drugbank_target|Q9ULX7 Carbonic anhydrase 14 (DB00819; DB00909; DB08846)
 OpenBabel12092120363D

  0  0  0     0  0            999 V3000
M  V30 BEGIN CTAB
M  V30 COUNTS 5267 5337 0 0 0
M  V30 BEGIN ATOM
M  V30 1 H -0.908 1.98254 -0.117106 0
M  V30 2 N 0 1.576 0 0
M  V30 3 C 0.933 2.03868 1.02534 0
M  V30 4 C 1.911 0.928543 1.3348 0
M  V30 5 O 3.095 1.19667 1.45644 0
M  V30 6 C 0.222 2.43627 2.35294 0
M  V30 7 C -0.732 3.65373 2.2001 0
M  V30 8 S 0.101 5.13292 1.52614 0
M  V30 9 C 1.257 5.56322 2.86805 0
M  V30 10 H 1.49 2.90518 0.631377 0
M  V30 11 H -0.977 1.52953 0.210867 0
M  V30 12 H 0.981 2.67203 3.11629 0
M  V30 13 H -0.358 1.57376 2.7183 0
M  V30 14 H -1.165 3.90944 3.18086 0
M  V30 15 H -1.563 3.418 1.51819 0
M  V30 16 H 0.729 5.58782 3.83104 0
M  V30 17 H 1.672 6.56266 2.65933 0
M  V30 18 H 2.08 4.83886 2.90714 0
M  V30 19 N 1.4781 -0.272755 1.55222 0
M  V30 20 C 2.4081 -1.34136 1.91127 0
M  V30 21 C 3.3891 -1.51513 0.773168 0
M  V30 22 O 4.5741 -1.64552 1.03132 0
M  V30 23 C 1.7041 -2.70083 2.1834 0
M  V30 24 C 0.6581 -2.67437 3.34158 0
M  V30 25 C -0.0159 -4.06938 3.46851 0
M  V30 26 C 1.2841 -2.26686 4.70543 0
M  V30 27 H 2.9781 -1.04333 2.80633 0
M  V30 28 H 0.5241 -0.500454 1.35024 0
M  V30 29 H 2.4771 -3.44952 2.42046 0
M  V30 30 H 1.2011 -3.01469 1.25634 0
M  V30 31 H -0.1399 -1.95026 3.1042 0
M  V30 32 H -0.4919 -4.35547 2.51611 0
M  V30 33 H -0.7919 -4.06062 4.2472 0
M  V30 34 H 0.7321 -4.83545 3.72849 0
M  V30 35 H 2.1461 -2.91277 4.93792 0
M  V30 36 H 0.5431 -2.36971 5.5133 0
M  V30 37 H 1.6131 -1.21818 4.69349 0
M  V30 38 N 2.9562 -1.48159 -0.537278 0
M  V30 39 C 4.2032 -1.55804 -1.29349 0
M  V30 40 C 4.5312 -0.228802 -1.9315 0
M  V30 41 O 3.7862 0.780242 -1.79473 0
M  V30 42 C 4.0852 -2.63956 -2.40961 0
M  V30 43 C 3.7512 -4.0662 -1.94861 0
M  V30 44 C 2.4132 -4.45452 -1.82006 0
M  V30 45 C 4.7652 -4.96055 -1.59933 0
M  V30 46 C 2.0932 -5.71531 -1.32547 0
M  V30 47 C 4.4452 -6.22617 -1.11939 0
M  V30 48 C 3.1092 -6.60312 -0.976951 0
M  V30 49 H 2.3792 -0.570129 -0.473322 0
M  V30 50 H 5.0262 -1.81845 -0.600372 0
M  V30 51 H 3.3312 -2.31747 -3.15912 0
M  V30 52 H 5.0282 -2.67089 -2.99107 0
M  V30 53 H 1.6182 -3.75949 -2.05815 0
M  V30 54 H 5.8022 -4.66738 -1.68728 0
M  V30 55 H 1.0582 -5.99468 -1.202 0
M  V30 56 H 5.2322 -6.91318 -0.839811 0
M  V30 57 H 2.8592 -7.57895 -0.591501 0
M  V30 58 N 4.4343 0.785586 -1.36625 0
M  V30 59 C 5.6593 1.57963 -1.34397 0
M  V30 60 C 6.0843 1.87964 0.071526 0
M  V30 61 O 5.4423 1.48182 1.0446 0
M  V30 62 C 5.4903 2.87511 -2.17646 0
M  V30 63 O 4.5943 3.81281 -1.57158 0
M  V30 64 H 3.9353 0.479014 -0.459828 0
M  V30 65 H 6.4653 0.973411 -1.79961 0
M  V30 66 H 6.4753 3.36745 -2.30362 0
M  V30 67 H 5.1503 2.65002 -3.20541 0
M  V30 68 H 3.7273 3.39885 -1.53403 0
M  V30 69 N 5.9124 1.20967 1.01018 0
M  V30 70 C 6.8754 0.965918 2.07853 0
M  V30 71 C 7.8754 -0.0610545 1.60684 0
M  V30 72 O 9.0654 0.175681 1.73312 0
M  V30 73 C 6.1974 0.455513 3.37843 0
M  V30 74 H 7.3904 1.91365 2.3091 0
M  V30 75 H 4.9434 1.02594 1.17916 0
M  V30 76 H 5.6784 -0.497381 3.20463 0
M  V30 77 H 5.4634 1.19622 3.73407 0
M  V30 78 H 6.9534 0.304667 4.16487 0
M  V30 79 N 7.3905 -1.2043 1.01659 0
M  V30 80 C 8.3205 -2.25466 0.607226 0
M  V30 81 C 9.3015 -1.65853 -0.377716 0
M  V30 82 O 10.4865 -1.92409 -0.263149 0
M  V30 83 C 7.6165 -3.47256 -0.0552949 0
M  V30 84 C 6.5705 -4.19462 0.850632 0
M  V30 85 C 5.8965 -5.34673 0.0538859 0
M  V30 86 C 7.1965 -4.75603 2.15868 0
M  V30 87 H 8.8905 -2.59962 1.48526 0
M  V30 88 H 6.4365 -1.2496 0.715605 0
M  V30 89 H 8.3895 -4.19917 -0.353233 0
M  V30 90 H 7.1135 -3.11924 -0.968045 0
M  V30 91 H 5.7725 -3.48667 1.13257 0
M  V30 92 H 5.4205 -4.95585 -0.860514 0
M  V30 93 H 5.1205 -5.83913 0.657192 0
M  V30 94 H 6.6445 -6.10138 -0.237598 0
M  V30 95 H 8.0585 -5.40083 1.92311 0
M  V30 96 H 6.4555 -5.3528 2.71284 0
M  V30 97 H 7.5255 -3.94346 2.82169 0
M  V30 98 N 8.8686 -0.792821 -1.36206 0
M  V30 99 C 9.7986 -0.207853 -2.32573 0
M  V30 100 C 10.7796 0.659055 -1.56813 0
M  V30 101 O 11.9646 0.592176 -1.84951 0
M  V30 102 C 9.0946 0.655449 -3.41059 0
M  V30 103 C 8.0486 -0.111842 -4.27854 0
M  V30 104 C 7.3746 0.872274 -5.27537 0
M  V30 105 C 8.6746 -1.30299 -5.05786 0
M  V30 106 H 10.3686 -1.01294 -2.81744 0
M  V30 107 H 7.9146 -0.48854 -1.3546 0
M  V30 108 H 9.8676 1.07464 -4.07467 0
M  V30 109 H 8.5916 1.49328 -2.90463 0
M  V30 110 H 7.2506 -0.512053 -3.63006 0
M  V30 111 H 6.8986 1.70523 -4.73214 0
M  V30 112 H 6.5986 0.363291 -5.86476 0
M  V30 113 H 8.1226 1.28996 -5.96818 0
M  V30 114 H 9.5366 -0.959379 -5.65216 0
M  V30 115 H 7.9336 -1.7455 -5.74154 0
M  V30 116 H 9.0036 -2.09663 -4.37229 0
M  V30 117 N 10.3467 1.47872 -0.545128 0
M  V30 118 C 11.2767 2.32661 0.197793 0
M  V30 119 C 12.2577 1.43041 0.920504 0
M  V30 120 O 13.4427 1.71912 0.90333 0
M  V30 121 C 10.5727 3.24569 1.23582 0
M  V30 122 C 9.5267 4.23333 0.630323 0
M  V30 123 C 8.8527 5.0448 1.77211 0
M  V30 124 C 10.1527 5.20704 -0.407974 0
M  V30 125 H 11.8467 2.95024 -0.510045 0
M  V30 126 H 9.3927 1.4187 -0.246731 0
M  V30 127 H 11.3457 3.8272 1.76362 0
M  V30 128 H 10.0697 2.60236 1.97344 0
M  V30 129 H 8.7287 3.6639 0.123922 0
M  V30 130 H 8.3767 4.36561 2.49847 0
M  V30 131 H 8.0767 5.71339 1.37281 0
M  V30 132 H 9.6007 5.65487 2.3034 0
M  V30 133 H 11.0147 5.7329 0.033305 0
M  V30 134 H 9.4117 5.95699 -0.725486 0
M  V30 135 H 10.4817 4.66917 -1.30828 0
M  V30 136 N 11.8248 0.280983 1.55075 0
M  V30 137 C 12.7348 -0.61388 2.26426 0
M  V30 138 C 13.7508 -1.16521 1.29224 0
M  V30 139 O 14.9268 -1.19426 1.62171 0
M  V30 140 C 11.9918 -1.7788 2.9759 0
M  V30 141 C 11.0528 -1.26355 4.10284 0
M  V30 142 C 10.2858 -2.37295 4.78045 0
M  V30 143 O 10.5088 -3.56777 4.45047 0
M  V30 144 O 9.4428 -2.05119 5.65871 0
M  V30 145 H 13.2688 -0.0356932 3.03679 0
M  V30 146 H 10.8538 0.0481686 1.49322 0
M  V30 147 H 12.7358 -2.45791 3.42293 0
M  V30 148 H 11.4108 -2.34397 2.23249 0
M  V30 149 H 10.3178 -0.550735 3.70024 0
M  V30 150 H 11.6508 -0.744065 4.86543 0
M  V30 151 N 13.3029 -1.57598 0.00835791 0
M  V30 152 C 14.5489 -1.91211 -0.675732 0
M  V30 153 C 14.8819 -0.883139 -1.72958 0
M  V30 154 O 14.1569 0.097016 -1.94258 0
M  V30 155 C 14.4399 -3.35379 -1.31123 0
M  V30 156 C 14.2929 -4.48999 -0.268356 0
M  V30 157 C 15.6119 -3.7912 -2.23508 0
M  V30 158 H 12.7309 -0.695374 -0.244179 0
M  V30 159 H 15.3729 -1.89901 0.0613655 0
M  V30 160 H 13.5229 -3.36626 -1.93946 0
M  V30 161 H 15.1949 -4.59887 0.360844 0
M  V30 162 H 13.4379 -4.31873 0.408482 0
M  V30 163 H 14.1089 -5.46851 -0.752218 0
M  V30 164 H 16.5849 -3.79477 -1.70693 0
M  V30 165 H 15.4609 -4.80729 -2.64936 0
M  V30 166 H 15.7219 -3.13455 -3.11766 0
M  V30 167 N 14.781 0.264519 -1.55364 0
M  V30 168 C 16.03 0.992812 -1.75574 0
M  V30 169 C 16.343 1.87142 -0.568979 0
M  V30 170 O 17.549 2.63513 -0.653682 0
M  V30 171 C 16.005 1.81519 -3.10771 0
M  V30 172 C 15.613 0.984839 -4.37041 0
M  V30 173 C 17.357 2.53727 -3.40327 0
M  V30 174 C 15.264 1.80209 -5.63275 0
M  V30 175 H 14.194 0.374412 -0.65447 0
M  V30 176 H 16.845 0.248138 -1.81815 0
M  V30 177 H 15.227 2.60115 -2.98591 0
M  V30 178 H 16.401 0.242455 -4.60162 0
M  V30 179 H 14.716 0.37691 -4.14691 0
M  V30 180 H 17.313 3.15292 -4.3185 0
M  V30 181 H 17.656 3.24447 -2.60845 0
M  V30 182 H 18.189 1.82156 -3.53644 0
M  V30 183 H 14.928 1.13896 -6.45529 0
M  V30 184 H 14.448 2.52022 -5.44284 0
M  V30 185 H 16.127 2.37364 -6.01887 0
M  V30 186 N 16.2591 1.48442 0.529413 0
M  V30 187 C 17.5051 1.57699 1.28463 0
M  V30 188 C 17.8601 0.247913 1.90796 0
M  V30 189 O 17.1531 -0.749279 1.76342 0
M  V30 190 C 17.3471 2.6523 2.39558 0
M  V30 191 C 17.1761 4.08464 1.88114 0
M  V30 192 C 15.9461 4.75596 1.70693 0
M  V30 193 C 18.1441 4.94613 1.40935 0
M  V30 194 N 16.1261 6.03245 1.13881 0
M  V30 195 C 17.4971 6.12511 0.960734 0
M  V30 196 C 19.5521 4.80833 1.29243 0
M  V30 197 C 18.2551 7.18149 0.406792 0
M  V30 198 C 20.2811 5.86593 0.752487 0
M  V30 199 C 19.6431 7.037 0.313946 0
M  V30 200 H 15.7421 0.631608 0.46108 0
M  V30 201 H 18.3261 1.85325 0.596886 0
M  V30 202 H 16.4971 2.39425 3.05827 0
M  V30 203 H 18.2291 2.64169 3.06589 0
M  V30 204 H 14.9841 4.31938 1.94232 0
M  V30 205 H 15.4081 6.71324 0.874831 0
M  V30 206 H 20.0501 3.90635 1.61754 0
M  V30 207 H 17.7681 8.0807 0.0693671 0
M  V30 208 H 21.3541 5.77985 0.665192 0
M  V30 209 H 20.2341 7.8414 -0.0973632 0
M  V30 210 N 17.7372 -0.778329 1.37039 0
M  V30 211 C 18.9862 -1.53189 1.3121 0
M  V30 212 C 19.2992 -1.95328 -0.103095 0
M  V30 213 O 20.5052 -2.70012 -0.283826 0
M  V30 214 C 18.9612 -2.76591 2.30272 0
M  V30 215 C 18.5692 -2.41577 3.77286 0
M  V30 216 C 20.3132 -3.5455 2.33441 0
M  V30 217 C 18.2202 -3.61441 4.68096 0
M  V30 218 H 17.1502 -0.5751 0.487622 0
M  V30 219 H 19.8012 -0.853101 1.62464 0
M  V30 220 H 18.1832 -3.46326 1.92027 0
M  V30 221 H 19.3572 -1.79668 4.2433 0
M  V30 222 H 17.6722 -1.76806 3.76999 0
M  V30 223 H 20.2692 -4.43628 2.98493 0
M  V30 224 H 20.6122 -3.93936 1.34611 0
M  V30 225 H 21.1452 -2.91805 2.7036 0
M  V30 226 H 17.8842 -3.27142 5.6803 0
M  V30 227 H 17.4042 -4.22478 4.25761 0
M  V30 228 H 19.0832 -4.28335 4.8491 0
M  V30 229 N 19.2153 -1.21501 -1.00376 0
M  V30 230 C 20.1453 -0.999478 -2.11028 0
M  V30 231 C 21.1263 0.0759671 -1.6993 0
M  V30 232 O 22.3113 -0.0841106 -1.94018 0
M  V30 233 C 19.4413 -0.564709 -3.42678 0
M  V30 234 C 18.3953 -1.58486 -3.97576 0
M  V30 235 C 17.7213 -1.00628 -5.25146 0
M  V30 236 C 19.0213 -2.97204 -4.29496 0
M  V30 237 H 20.7153 -1.92495 -2.29317 0
M  V30 238 H 18.2613 -0.92693 -1.102 0
M  V30 239 H 20.2143 -0.401091 -4.19487 0
M  V30 240 H 18.9383 0.396411 -3.24185 0
M  V30 241 H 17.5973 -1.73606 -3.22888 0
M  V30 242 H 17.2453 -0.0368439 -5.02987 0
M  V30 243 H 16.9453 -1.68771 -5.62841 0
M  V30 244 H 18.4693 -0.854015 -6.04598 0
M  V30 245 H 19.8833 -2.8552 -4.97143 0
M  V30 246 H 18.2803 -3.62372 -4.78338 0
M  V30 247 H 19.3503 -3.47956 -3.3772 0
M  V30 248 N 20.6934 1.19889 -1.02296 0
M  V30 249 C 21.6564 2.21116 -0.603351 0
M  V30 250 C 22.6564 1.5738 0.329884 0
M  V30 251 O 23.8464 1.73802 0.117702 0
M  V30 252 C 20.9784 3.40696 0.117992 0
M  V30 253 H 22.1714 2.59754 -1.49893 0
M  V30 254 H 19.7244 1.33463 -0.813468 0
M  V30 255 H 20.4594 3.07569 1.0282 0
M  V30 256 H 20.2444 3.88188 -0.552511 0
M  V30 257 H 21.7344 4.15692 0.398696 0
M  V30 258 N 22.1715 0.800033 1.35784 0
M  V30 259 C 23.1345 0.211565 2.28221 0
M  V30 260 C 24.1345 -0.59728 1.49296 0
M  V30 261 O 25.3245 -0.416721 1.69142 0
M  V30 262 C 22.4565 -0.705846 3.33513 0
M  V30 263 H 23.6495 1.02677 2.81776 0
M  V30 264 H 21.2025 0.570211 1.45528 0
M  V30 265 H 21.9375 -1.54498 2.85133 0
M  V30 266 H 21.7225 -0.127655 3.91892 0
M  V30 267 H 23.2125 -1.11211 4.02519 0
M  V30 268 N 23.6496 -1.47581 0.552962 0
M  V30 269 C 24.9266 -1.95563 -0.0381515 0
M  V30 270 C 25.3066 -1.49552 -1.48988 0
M  V30 271 O 24.6546 -0.732414 -2.16444 0
M  V30 272 C 24.8646 -3.48848 0.102919 0
M  V30 273 C 26.2126 -4.24577 -0.0446082 0
M  V30 274 O 27.2366 -3.56187 0.0302548 0
M  V30 275 O 26.0956 -5.46116 -0.204923 0
M  V30 276 H 23.1896 -0.824321 -0.0665067 0
M  V30 277 H 25.7356 -1.58001 0.619186 0
M  V30 278 H 24.5076 -3.75129 1.11328 0
M  V30 279 H 24.1306 -3.93165 -0.592224 0
M  V30 280 N 25.1277 -0.289203 -1.54924 0
M  V30 281 C 26.3757 0.322879 -1.99504 0
M  V30 282 C 26.6967 1.55313 -1.1791 0
M  V30 283 O 25.9667 1.94001 -0.272097 0
M  V30 284 H 24.5467 0.122291 -0.736922 0
M  V30 285 H 27.2087 -0.397802 -1.90797 0
M  V30 286 H 26.3047 0.603061 -3.06218 0
M  V30 287 N 26.6058 1.57591 -0.0167156 0
M  V30 288 C 27.8538 1.90906 0.663285 0
M  V30 289 C 28.1748 0.892509 1.73376 0
M  V30 290 O 27.4448 -0.0677623 1.95783 0
M  V30 291 H 26.0248 0.704637 0.247983 0
M  V30 292 H 28.6868 1.94803 -0.0615909 0
M  V30 293 H 27.7828 2.9116 1.12393 0
M  V30 294 N 28.0839 -0.256276 1.55502 0
M  V30 295 C 29.0159 -1.33981 1.85962 0
M  V30 296 C 30.0289 -1.44743 0.745212 0
M  V30 297 O 31.2179 -1.4626 1.02324 0
M  V30 298 C 28.3179 -2.7194 2.02242 0
M  V30 299 C 27.4909 -2.83562 3.33033 0
M  V30 300 C 26.5499 -4.02304 3.39172 0
M  V30 301 O 25.5759 -3.92273 4.12444 0
M  V30 302 N 26.7779 -5.15045 2.67784 0
M  V30 303 H 29.5429 -1.08191 2.7949 0
M  V30 304 H 27.1039 -0.446388 1.55624 0
M  V30 305 H 29.0959 -3.49697 2.03701 0
M  V30 306 H 27.6659 -2.90479 1.15502 0
M  V30 307 H 26.8859 -1.92555 3.43971 0
M  V30 308 H 28.1739 -2.88271 4.19258 0
M  V30 309 H 27.5719 -5.26085 2.07968 0
M  V30 310 H 26.1289 -5.90972 2.74947 0
M  V30 311 N 29.562 -1.4872 -0.521534 0
M  V30 312 C 30.512 -1.60269 -1.62166 0
M  V30 313 C 31.496 -0.45935 -1.54204 0
M  V30 314 O 32.688 -0.711241 -1.62081 0
M  V30 315 C 29.817 -1.65344 -3.00859 0
M  V30 316 C 28.903 -2.85187 -3.13894 0
M  V30 317 N 29.294 -4.09509 -2.96877 0
M  V30 318 C 27.592 -2.82695 -3.44963 0
M  V30 319 C 28.293 -4.89959 -3.13552 0
M  V30 320 N 27.269 -4.22934 -3.41508 0
M  V30 321 H 31.071 -2.5413 -1.47632 0
M  V30 322 H 28.585 -1.45209 -0.727194 0
M  V30 323 H 30.582 -1.71713 -3.79895 0
M  V30 324 H 29.242 -0.726058 -3.16478 0
M  V30 325 H 30.253 -4.39814 -2.73467 0
M  V30 326 H 26.93 -1.99249 -3.66887 0
M  V30 327 H 28.32 -5.98654 -3.05061 0
M  V30 328 N 31.0401 0.771051 -1.3745 0
M  V30 329 C 32.2861 1.53109 -1.339 0
M  V30 330 C 32.6411 1.9225 0.0758401 0
M  V30 331 O 31.9341 1.61264 1.03463 0
M  V30 332 C 32.1281 2.80676 -2.2126 0
M  V30 333 C 31.9571 2.54003 -3.71096 0
M  V30 334 C 30.7271 2.48097 -4.402 0
M  V30 335 C 32.9251 2.21953 -4.63941 0
M  V30 336 N 30.9071 2.13515 -5.75573 0
M  V30 337 C 32.2781 1.97516 -5.87697 0
M  V30 338 C 34.3331 2.08114 -4.5232 0
M  V30 339 C 33.0361 1.60638 -7.01133 0
M  V30 340 C 35.0621 1.72636 -5.65642 0
M  V30 341 C 34.4241 1.4906 -6.88448 0
M  V30 342 H 30.5231 0.56055 -0.54526 0
M  V30 343 H 33.1071 0.899472 -1.72678 0
M  V30 344 H 31.2781 3.41674 -1.84698 0
M  V30 345 H 33.0101 3.46578 -2.08963 0
M  V30 346 H 29.7651 2.63974 -3.93211 0
M  V30 347 H 30.1891 1.98919 -6.47117 0
M  V30 348 H 34.8311 2.25024 -3.57944 0
M  V30 349 H 32.5491 1.42467 -7.95443 0
M  V30 350 H 36.1351 1.62586 -5.58621 0
M  V30 351 H 35.0151 1.22014 -7.7465 0
M  V30 352 N 32.5182 1.22032 0.997298 0
M  V30 353 C 33.7462 1.06841 1.7718 0
M  V30 354 C 34.1612 -0.381325 1.84909 0
M  V30 355 O 33.5182 -1.26437 1.31605 0
M  V30 356 C 33.5692 1.66814 3.20711 0
M  V30 357 O 33.2902 3.06116 3.13408 0
M  V30 358 C 34.7912 1.56838 4.14628 0
M  V30 359 H 32.0112 0.374782 0.556578 0
M  V30 360 H 34.5552 1.61532 1.2541 0
M  V30 361 H 32.7102 1.16196 3.69564 0
M  V30 362 H 33.1242 3.34926 4.0364 0
M  V30 363 H 34.5982 2.03532 5.13107 0
M  V30 364 H 35.0752 0.524155 4.36061 0
M  V30 365 H 35.6812 2.06741 3.7167 0
M  V30 366 N 33.9963 -1.19345 1.0293 0
M  V30 367 C 35.2263 -1.92717 0.744563 0
M  V30 368 C 35.6343 -1.75751 -0.700579 0
M  V30 369 O 34.9773 -1.07703 -1.48815 0
M  V30 370 C 35.0393 -3.44828 1.01657 0
M  V30 371 C 34.7033 -3.85564 2.45335 0
M  V30 372 C 35.7003 -3.90286 3.43472 0
M  V30 373 C 33.3853 -4.1719 2.79746 0
M  V30 374 C 35.3793 -4.26065 4.74075 0
M  V30 375 C 33.0663 -4.52642 4.10559 0
M  V30 376 C 34.0643 -4.57054 5.07534 0
M  V30 377 O 33.7523 -4.91685 6.36004 0
M  V30 378 H 33.4843 -0.618977 0.271742 0
M  V30 379 H 36.0383 -1.52415 1.37691 0
M  V30 380 H 34.2683 -3.85314 0.327084 0
M  V30 381 H 35.9573 -3.99437 0.721427 0
M  V30 382 H 36.7233 -3.66002 3.18225 0
M  V30 383 H 32.6023 -4.1294 2.04943 0
M  V30 384 H 36.1463 -4.29423 5.49765 0
M  V30 385 H 32.0433 -4.76383 4.35579 0
M  V30 386 H 32.8113 -5.09631 6.40483 0
M  V30 387 N 35.4744 -0.807222 -1.35358 0
M  V30 388 C 36.3844 -0.219594 -2.3357 0
M  V30 389 C 37.4004 0.637734 -1.61892 0
M  V30 390 O 38.5764 0.549336 -1.93763 0
M  V30 391 C 35.6414 0.62158 -3.41083 0
M  V30 392 C 34.7024 -0.256315 -4.28534 0
M  V30 393 C 33.9354 0.544807 -5.30912 0
M  V30 394 O 34.1584 1.77944 -5.41934 0
M  V30 395 O 33.0924 -0.0646478 -6.01865 0
M  V30 396 H 36.9184 -1.03208 -2.85625 0
M  V30 397 H 34.5034 -0.569025 -1.38139 0
M  V30 398 H 36.3854 1.10067 -4.06772 0
M  V30 399 H 35.0604 1.41165 -2.91297 0
M  V30 400 H 33.9674 -0.782559 -3.65823 0
M  V30 401 H 35.3004 -1.01034 -4.81719 0
M  V30 402 N 36.9525 1.47285 -0.560781 0
M  V30 403 C 38.2005 2.02064 -0.0379868 0
M  V30 404 C 38.5215 1.43711 1.31803 0
M  V30 405 O 37.7915 0.61362 1.86042 0
M  V30 406 H 36.3715 0.746918 -0.0110531 0
M  V30 407 H 39.0335 1.80648 -0.731598 0
M  V30 408 H 38.1295 3.12064 0.0474463 0
M  V30 409 N 38.4306 0.297415 1.54768 0
M  V30 410 C 39.8416 -0.195947 1.85669 0
M  V30 411 C 40.1926 -1.53707 1.21937 0
M  V30 412 O 39.3176 -2.10164 0.515754 0
M  V30 413 C 39.9126 -0.362318 3.36857 0
M  V30 414 C 38.4716 -0.799901 3.67802 0
M  V30 415 C 37.6186 0.0938578 2.77141 0
M  V30 416 H 40.5696 0.518538 1.4999 0
M  V30 417 H 40.5906 -1.19745 3.61167 0
M  V30 418 H 40.1026 0.613921 3.83214 0
M  V30 419 H 38.2036 -1.78682 3.26961 0
M  V30 420 H 38.3166 -0.621773 4.75048 0
M  V30 421 H 36.6806 -0.426254 2.51108 0
M  V30 422 H 37.4636 1.06639 3.26318 0
M  V30 423 N 39.9087 -1.5758 0.0250728 0
M  V30 424 C 40.8587 -2.06468 -0.967201 0
M  V30 425 C 41.8427 -0.964376 -1.28797 0
M  V30 426 O 43.0347 -1.22797 -1.27475 0
M  V30 427 C 40.1637 -2.59203 -2.25097 0
M  V30 428 C 39.2497 -3.76157 -1.95874 0
M  V30 429 N 39.6407 -4.86919 -1.36905 0
M  V30 430 C 37.9387 -3.84566 -2.25887 0
M  V30 431 C 38.6397 -5.68172 -1.24724 0
M  V30 432 N 37.6157 -5.14953 -1.74138 0
M  V30 433 H 41.4177 -2.89508 -0.506176 0
M  V30 434 H 38.9317 -1.61399 -0.18004 0
M  V30 435 H 40.9287 -2.92517 -2.97052 0
M  V30 436 H 39.5887 -1.77592 -2.71829 0
M  V30 437 H 40.5997 -5.07256 -1.04459 0
M  V30 438 H 37.2767 -3.13854 -2.75321 0
M  V30 439 H 38.6667 -6.67221 -0.791605 0
M  V30 440 N 41.3868 0.248026 -1.55636 0
M  V30 441 C 42.6348 0.974295 -1.77065 0
M  V30 442 C 42.9558 1.85897 -0.588849 0
M  V30 443 O 42.2258 1.91868 0.395407 0
M  V30 444 H 40.8058 0.362733 -0.653019 0
M  V30 445 H 43.4678 0.266244 -1.93073 0
M  V30 446 H 42.5638 1.59667 -2.68166 0
M  V30 447 N 42.8649 1.48995 0.513639 0
M  V30 448 C 43.7969 1.60836 1.63293 0
M  V30 449 C 44.8099 0.491701 1.55197 0
M  V30 450 O 45.9989 0.763238 1.6136 0
M  V30 451 C 43.0989 1.53731 3.02027 0
M  V30 452 C 42.2719 2.80715 3.35437 0
M  V30 453 C 41.3309 2.66837 4.53525 0
M  V30 454 O 40.3569 3.40753 4.55934 0
M  V30 455 N 41.5589 1.77539 5.52684 0
M  V30 456 H 44.3239 2.57366 1.53566 0
M  V30 457 H 41.8849 1.45925 0.701259 0
M  V30 458 H 43.8769 1.42118 3.78926 0
M  V30 459 H 42.4469 0.651092 3.05744 0
M  V30 460 H 41.6669 3.06772 2.47557 0
M  V30 461 H 42.9549 3.64927 3.54551 0
M  V30 462 H 42.3529 1.16719 5.53528 0
M  V30 463 H 40.9099 1.71856 6.28736 0
M  V30 464 N 44.343 -0.763751 1.37857 0
M  V30 465 C 45.62 -1.51244 1.24035 0
M  V30 466 C 46 -2.10472 -0.162649 0
M  V30 467 O 45.348 -1.96206 -1.17112 0
M  V30 468 C 45.558 -2.58694 2.34261 0
M  V30 469 C 46.906 -3.25878 2.72193 0
M  V30 470 O 47.93 -2.68993 2.33497 0
M  V30 471 O 46.789 -4.2874 3.38887 0
M  V30 472 H 43.883 -0.670243 0.484462 0
M  V30 473 H 46.429 -0.800031 1.49658 0
M  V30 474 H 45.201 -2.13105 3.2818 0
M  V30 475 H 44.824 -3.37527 2.10146 0
M  V30 476 N 45.8211 -1.22559 -0.990812 0
M  V30 477 C 46.7711 -0.964807 -2.0658 0
M  V30 478 C 47.7551 0.0853472 -1.60673 0
M  V30 479 O 48.9471 -0.125443 -1.76555 0
M  V30 480 C 46.0761 -0.546707 -3.38919 0
M  V30 481 C 45.1621 -1.6317 -3.91454 0
M  V30 482 N 45.5531 -2.85985 -4.17189 0
M  V30 483 C 43.8511 -1.50387 -4.19881 0
M  V30 484 C 44.5521 -3.56159 -4.59919 0
M  V30 485 N 43.5281 -2.83637 -4.63736 0
M  V30 486 H 47.3301 -1.89769 -2.24421 0
M  V30 487 H 44.8441 -1.12343 -1.17273 0
M  V30 488 H 46.8411 -0.34119 -4.15502 0
M  V30 489 H 45.5011 0.379254 -3.22478 0
M  V30 490 H 46.5121 -3.22392 -4.05319 0
M  V30 491 H 43.1891 -0.644254 -4.12499 0
M  V30 492 H 44.5791 -4.6139 -4.88435 0
M  V30 493 N 47.2992 1.18797 -1.03562 0
M  V30 494 C 48.5452 1.89192 -0.746867 0
M  V30 495 C 48.9002 1.78531 0.717245 0
M  V30 496 O 48.1932 1.17137 1.51622 0
M  V30 497 C 48.3872 3.38692 -1.14117 0
M  V30 498 C 48.2162 3.63902 -2.64207 0
M  V30 499 C 46.9862 3.81553 -3.31279 0
M  V30 500 C 49.1842 3.64903 -3.62423 0
M  V30 501 N 47.1662 3.94455 -4.70402 0
M  V30 502 C 48.5372 3.83458 -4.87196 0
M  V30 503 C 50.5922 3.47965 -3.56125 0
M  V30 504 C 49.2952 3.86829 -6.06429 0
M  V30 505 C 51.3212 3.52616 -4.7478 0
M  V30 506 C 50.6832 3.71663 -5.9837 0
M  V30 507 H 46.7822 0.711141 -0.325273 0
M  V30 508 H 49.3662 1.42727 -1.32428 0
M  V30 509 H 47.5372 3.83864 -0.591889 0
M  V30 510 H 49.2692 3.96634 -0.803966 0
M  V30 511 H 46.0242 3.80723 -2.81686 0
M  V30 512 H 46.4482 4.0474 -5.42692 0
M  V30 513 H 51.0902 3.32189 -2.61553 0
M  V30 514 H 48.8082 4.01395 -7.01362 0
M  V30 515 H 52.3942 3.40791 -4.71543 0
M  V30 516 H 51.2742 3.75145 -6.88648 0
M  V30 517 N 48.7773 0.814389 1.34928 0
M  V30 518 C 50.1883 0.458364 1.80986 0
M  V30 519 C 50.5393 -1.02042 1.67577 0
M  V30 520 O 49.6643 -1.79352 1.21086 0
M  V30 521 C 50.2593 0.825212 3.28597 0
M  V30 522 C 48.8183 0.521677 3.72767 0
M  V30 523 C 47.9653 1.04668 2.56788 0
M  V30 524 H 50.9163 1.00533 1.22795 0
M  V30 525 H 50.9373 0.12571 3.80292 0
M  V30 526 H 50.4493 1.90154 3.38324 0
M  V30 527 H 48.5503 -0.545589 3.68584 0
M  V30 528 H 48.6633 1.05977 4.67232 0
M  V30 529 H 47.0273 0.468622 2.50352 0
M  V30 530 H 47.8103 2.12927 2.6929 0
M  V30 531 N 50.2554 -1.46986 0.568584 0
M  V30 532 C 51.2184 -2.28624 -0.162366 0
M  V30 533 C 52.2184 -1.37596 -0.832103 0
M  V30 534 O 53.4084 -1.60115 -0.68622 0
M  V30 535 C 50.5404 -3.17596 -1.23878 0
M  V30 536 H 51.7334 -2.94722 0.554899 0
M  V30 537 H 49.2864 -1.52863 0.325976 0
M  V30 538 H 50.0214 -2.56214 -1.98808 0
M  V30 539 H 49.8064 -3.846 -0.763219 0
M  V30 540 H 51.2964 -3.79078 -1.75185 0
M  V30 541 N 51.7335 -0.305618 -1.54608 0
M  V30 542 C 52.9585 0.307562 -2.05107 0
M  V30 543 C 53.3835 1.46385 -1.18123 0
M  V30 544 O 52.7415 1.8034 -0.186324 0
M  V30 545 C 52.7895 0.73704 -3.52987 0
M  V30 546 O 51.8935 1.84134 -3.6901 0
M  V30 547 H 51.2345 0.0589143 -0.661381 0
M  V30 548 H 53.7645 -0.448807 -1.99617 0
M  V30 549 H 53.7745 1.02459 -3.94925 0
M  V30 550 H 52.4495 -0.108773 -4.15758 0
M  V30 551 H 51.0265 1.55398 -3.38978 0
M  V30 552 N 53.2116 1.57565 -0.0334293 0
M  V30 553 C 54.4416 1.95996 0.653398 0
M  V30 554 C 54.8496 0.908749 1.65947 0
M  V30 555 O 54.1926 -0.117471 1.83324 0
M  V30 556 C 54.2546 3.30589 1.41249 0
M  V30 557 C 53.9186 4.53503 0.564263 0
M  V30 558 C 54.9156 5.19647 -0.16225 0
M  V30 559 C 52.6006 4.99801 0.500398 0
M  V30 560 C 54.5946 6.30412 -0.941255 0
M  V30 561 C 52.2816 6.10448 -0.282308 0
M  V30 562 C 53.2796 6.75612 -1.00184 0
M  V30 563 O 52.9676 7.84134 -1.77171 0
M  V30 564 H 52.6996 0.65027 0.184728 0
M  V30 565 H 55.2536 2.05199 -0.0907841 0
M  V30 566 H 53.4836 3.17888 2.20191 0
M  V30 567 H 55.1726 3.53892 1.98784 0
M  V30 568 H 55.9386 4.84846 -0.12227 0
M  V30 569 H 51.8176 4.48883 1.05002 0
M  V30 570 H 55.3616 6.81208 -1.50339 0
M  V30 571 H 51.2586 6.44686 -0.323989 0
M  V30 572 H 52.0266 8.00822 -1.69194 0
M  V30 573 N 54.6897 -0.239769 1.55765 0
M  V30 574 C 56.1007 -0.808263 1.68297 0
M  V30 575 C 56.4517 -1.85736 0.632181 0
M  V30 576 O 55.5767 -2.15277 -0.220204 0
M  V30 577 C 56.1717 -1.47284 3.05111 0
M  V30 578 C 54.7307 -1.98895 3.19559 0
M  V30 579 C 53.8777 -0.842575 2.64189 0
M  V30 580 H 56.8287 -0.0154422 1.58692 0
M  V30 581 H 56.8497 -2.34111 2.99954 0
M  V30 582 H 56.3617 -0.709053 3.81568 0
M  V30 583 H 54.4627 -2.78132 2.47938 0
M  V30 584 H 54.5757 -2.18143 4.26556 0
M  V30 585 H 52.9397 -1.24501 2.22197 0
M  V30 586 H 53.7227 -0.0917552 3.43177 0
M  V30 587 N 56.1678 -1.49265 -0.50573 0
M  V30 588 C 57.0778 -1.68312 -1.63427 0
M  V30 589 C 58.0938 -0.565682 -1.64548 0
M  V30 590 O 59.2698 -0.839801 -1.83055 0
M  V30 591 C 56.3348 -1.74107 -2.99813 0
M  V30 592 C 55.3958 -2.97653 -3.09356 0
M  V30 593 C 54.6288 -3.03163 -4.39236 0
M  V30 594 O 54.8518 -2.16396 -5.27758 0
M  V30 595 O 53.7858 -3.9558 -4.53652 0
M  V30 596 H 57.6118 -2.63907 -1.50289 0
M  V30 597 H 55.1968 -1.32951 -0.681502 0
M  V30 598 H 57.0788 -1.803 -3.80881 0
M  V30 599 H 55.7538 -0.816901 -3.13223 0
M  V30 600 H 54.6608 -2.96981 -2.27493 0
M  V30 601 H 55.9938 -3.89535 -3.00871 0
M  V30 602 N 57.6459 0.756429 -1.3826 0
M  V30 603 C 58.8859 1.52833 -1.35725 0
M  V30 604 C 59.2499 1.91926 0.0534106 0
M  V30 605 O 60.4509 2.68028 0.203613 0
M  V30 606 C 58.7219 2.74919 -2.28373 0
M  V30 607 S 60.2809 3.64817 -2.43832 0
M  V30 608 H 57.0989 0.523043 -0.481608 0
M  V30 609 H 59.7009 0.888212 -1.74158 0
M  V30 610 H 58.4049 2.44304 -3.29763 0
M  V30 611 H 57.9359 3.43878 -1.91079 0
M  V30 612 H 59.9509 4.676 -1.66027 0
M  V30 613 N 59.124 1.23083 0.984299 0
M  V30 614 C 60.372 1.05848 1.72165 0
M  V30 615 C 60.693 -0.406049 1.90726 0
M  V30 616 O 59.963 -1.29139 1.47309 0
M  V30 617 H 58.543 0.388685 0.637913 0
M  V30 618 H 61.205 1.54736 1.18503 0
M  V30 619 H 60.301 1.54327 2.71274 0
M  V30 620 N 60.6021 -1.18246 1.0419 0
M  V30 621 C 61.5501 -2.23968 0.627792 0
M  V30 622 C 62.5441 -1.65828 -0.346019 0
M  V30 623 O 63.7501 -1.78733 -0.213175 0
M  V30 624 H 60.1251 -0.728939 0.184802 0
M  V30 625 H 62.0961 -2.56202 1.52981 0
M  V30 626 C 60.8451 -3.47699 0.00796591 0
M  V30 627 H 60.1681 -3.92734 0.748347 0
M  V30 628 H 61.6081 -4.23294 -0.24455 0
M  V30 629 C 60.0671 -3.13153 -1.24246 0
M  V30 630 O 60.5971 -3.27003 -2.33307 0
M  V30 631 N 58.8031 -2.67467 -1.13622 0
M  V30 632 H 58.3501 -2.56396 -0.248734 0
M  V30 633 H 58.3081 -2.44724 -1.97377 0
M  V30 634 N 62.0802 -0.821533 -1.34494 0
M  V30 635 C 63.0282 -0.230702 -2.31453 0
M  V30 636 C 64.0222 0.627793 -1.57338 0
M  V30 637 O 65.2282 0.519288 -1.72347 0
M  V30 638 H 61.6032 -0.0558577 -0.749923 0
M  V30 639 H 63.5742 -1.06332 -2.78812 0
M  V30 640 C 62.3232 0.59391 -3.4259 0
M  V30 641 H 61.6462 -0.0573588 -3.99759 0
M  V30 642 H 63.0862 0.973446 -4.12674 0
M  V30 643 C 61.5452 1.76568 -2.86924 0
M  V30 644 O 62.0752 2.8638 -2.81691 0
M  V30 645 N 60.2812 1.58198 -2.43766 0
M  V30 646 H 59.8282 0.68872 -2.48222 0
M  V30 647 H 59.7862 2.36752 -2.06871 0
M  V30 648 N 63.5583 1.46682 -0.576371 0
M  V30 649 C 64.5213 2.28707 0.150239 0
M  V30 650 C 65.5213 1.38035 0.824794 0
M  V30 651 O 66.7113 1.60476 0.677719 0
M  V30 652 C 63.8433 3.18248 1.22192 0
M  V30 653 H 65.0363 2.94423 -0.570521 0
M  V30 654 H 62.5893 1.52688 -0.334078 0
M  V30 655 H 63.3243 2.57265 1.97447 0
M  V30 656 H 63.1093 3.85 0.742812 0
M  V30 657 H 64.5993 3.80001 1.73172 0
M  V30 658 N 65.0364 0.313813 1.54444 0
M  V30 659 C 65.9684 -0.590425 2.21465 0
M  V30 660 C 66.9814 -1.08753 1.21147 0
M  V30 661 O 68.1704 -1.00278 1.4767 0
M  V30 662 C 65.2704 -1.82179 2.85769 0
M  V30 663 C 64.4434 -1.46502 4.12136 0
M  V30 664 C 63.5024 -2.55288 4.60124 0
M  V30 665 O 62.5284 -2.19842 5.25032 0
M  V30 666 N 63.7304 -3.86053 4.33525 0
M  V30 667 H 66.4954 -0.0166033 2.99695 0
M  V30 668 H 64.0564 0.136578 1.61323 0
M  V30 669 H 66.0484 -2.54328 3.14801 0
M  V30 670 H 64.6184 -2.30369 2.11303 0
M  V30 671 H 63.8384 -0.575595 3.89975 0
M  V30 672 H 65.1264 -1.20221 4.94393 0
M  V30 673 H 64.5244 -4.17654 3.81552 0
M  V30 674 H 63.0814 -4.54461 4.67235 0
M  V30 675 N 66.5145 -1.57545 0.0417849 0
M  V30 676 C 67.7395 -1.97035 -0.647455 0
M  V30 677 C 68.1645 -0.918775 -1.64135 0
M  V30 678 O 67.5225 0.119006 -1.80909 0
M  V30 679 C 67.5705 -3.35609 -1.31905 0
M  V30 680 O 66.6745 -3.3287 -2.43457 0
M  V30 681 H 66.0155 -0.64211 -0.169086 0
M  V30 682 H 68.5455 -2.04318 0.107399 0
M  V30 683 H 68.5555 -3.72126 -1.67291 0
M  V30 684 H 67.2305 -4.11685 -0.590586 0
M  V30 685 H 65.8075 -3.08087 -2.10088 0
M  V30 686 N 67.9926 0.231505 -1.5589 0
M  V30 687 C 69.4036 0.799327 -1.68724 0
M  V30 688 C 69.7546 1.85398 -0.642022 0
M  V30 689 O 68.8796 2.1539 0.208784 0
M  V30 690 C 69.4746 1.45664 -3.05888 0
M  V30 691 C 68.0336 1.97197 -3.20609 0
M  V30 692 C 67.1806 0.828552 -2.64632 0
M  V30 693 H 70.1316 0.00702616 -1.58698 0
M  V30 694 H 70.1526 2.32517 -3.01191 0
M  V30 695 H 69.6646 0.688808 -3.81939 0
M  V30 696 H 67.7656 2.76813 -2.4941 0
M  V30 697 H 67.8786 2.15878 -4.27707 0
M  V30 698 H 66.2426 1.23321 -2.22854 0
M  V30 699 H 67.0256 0.0735544 -3.43221 0
M  V30 700 N 69.4707 1.49531 0.497807 0
M  V30 701 C 70.7197 1.58426 1.24837 0
M  V30 702 C 71.0327 0.277643 1.93619 0
M  V30 703 O 72.2387 0.24517 2.70391 0
M  V30 704 C 70.6947 2.79538 2.26686 0
M  V30 705 C 70.3027 4.16971 1.63828 0
M  V30 706 C 72.0467 2.97764 3.0255 0
M  V30 707 C 69.9537 5.29301 2.63807 0
M  V30 708 H 68.8837 0.58989 0.469623 0
M  V30 709 H 71.5347 1.75923 0.521857 0
M  V30 710 H 69.9167 2.55542 3.02514 0
M  V30 711 H 71.0907 4.51116 0.939711 0
M  V30 712 H 69.4057 4.04129 1.00342 0
M  V30 713 H 72.0027 3.78856 3.77323 0
M  V30 714 H 72.3457 2.08448 3.60354 0
M  V30 715 H 72.8787 3.21815 2.33838 0
M  V30 716 H 69.6177 6.20687 2.10779 0
M  V30 717 H 69.1377 4.99606 3.31894 0
M  V30 718 H 70.8167 5.58768 3.2617 0
M  V30 719 N 70.9488 -0.749086 1.3866 0
M  V30 720 C 72.2258 -1.4992 1.25632 0
M  V30 721 C 72.6058 -2.10633 -0.140317 0
M  V30 722 O 71.9538 -1.97437 -1.15025 0
M  V30 723 C 72.1638 -2.56195 2.36992 0
M  V30 724 C 73.5118 -3.22972 2.75634 0
M  V30 725 O 74.5358 -2.66502 2.36337 0
M  V30 726 O 73.3948 -4.25122 3.43415 0
M  V30 727 H 70.4888 -0.665067 0.491544 0
M  V30 728 H 73.0348 -0.784113 1.50498 0
M  V30 729 H 71.8068 -2.09612 3.30422 0
M  V30 730 H 71.4298 -3.35279 2.13714 0
M  V30 731 N 72.4269 -1.23603 -0.977757 0
M  V30 732 C 73.6759 -1.06377 -1.71368 0
M  V30 733 C 73.9889 0.399062 -1.91486 0
M  V30 734 O 75.1949 0.691312 -2.62551 0
M  V30 735 C 73.6509 -1.85512 -3.08404 0
M  V30 736 C 73.2589 -3.36141 -2.96164 0
M  V30 737 C 75.0029 -1.76783 -3.85938 0
M  V30 738 C 72.9099 -4.07659 -4.28449 0
M  V30 739 H 71.8399 -0.394452 -0.642591 0
M  V30 740 H 74.4909 -1.47594 -1.09034 0
M  V30 741 H 72.8729 -1.37103 -3.71509 0
M  V30 742 H 74.0469 -3.92056 -2.42133 0
M  V30 743 H 72.3619 -3.45712 -2.32104 0
M  V30 744 H 74.9589 -2.27526 -4.83876 0
M  V30 745 H 75.3019 -0.731116 -4.0983 0
M  V30 746 H 75.8349 -2.22818 -3.2954 0
M  V30 747 H 72.5739 -5.11648 -4.09752 0
M  V30 748 H 72.0939 -3.5653 -4.82334 0
M  V30 749 H 73.7729 -4.141 -4.97122 0
M  V30 750 N 73.905 1.17692 -1.04816 0
M  V30 751 C 74.837 2.21103 -0.603822 0
M  V30 752 C 75.85 1.59411 0.33046 0
M  V30 753 O 77.039 1.7807 0.12379 0
M  V30 754 C 74.139 3.38623 0.136898 0
M  V30 755 C 73.312 4.29888 -0.807137 0
M  V30 756 C 72.371 5.26088 -0.10836 0
M  V30 757 O 71.397 5.64353 -0.741232 0
M  V30 758 N 72.599 5.68882 1.15558 0
M  V30 759 H 75.364 2.59848 -1.49329 0
M  V30 760 H 72.925 1.32553 -0.929587 0
M  V30 761 H 74.917 4.00009 0.614401 0
M  V30 762 H 73.487 2.98508 0.927993 0
M  V30 763 H 72.707 3.65993 -1.46434 0
M  V30 764 H 73.995 4.87759 -1.44807 0
M  V30 765 H 73.393 5.39861 1.69015 0
M  V30 766 H 71.95 6.32429 1.57722 0
M  V30 767 N 75.3831 0.828654 1.34056 0
M  V30 768 C 76.6111 0.43262 2.02326 0
M  V30 769 C 77.0261 -0.963147 1.62385 0
M  V30 770 O 76.3831 -1.62425 0.832121 0
M  V30 771 C 76.4341 0.53182 3.57567 0
M  V30 772 O 76.1551 1.87258 3.96063 0
M  V30 773 C 77.6561 0.131422 4.43105 0
M  V30 774 H 74.8761 0.172923 0.648335 0
M  V30 775 H 77.4201 1.1184 1.71208 0
M  V30 776 H 75.5751 -0.105938 3.87255 0
M  V30 777 H 75.9891 1.85087 4.90758 0
M  V30 778 H 77.4631 0.251904 5.51425 0
M  V30 779 H 77.9401 -0.925645 4.29335 0
M  V30 780 H 78.5461 0.743207 4.18756 0
M  V30 781 N 76.8612 -1.46375 0.584142 0
M  V30 782 C 78.1382 -1.956 0.0033388 0
M  V30 783 C 78.5182 -1.52679 -1.45782 0
M  V30 784 O 77.8662 -0.77816 -2.14842 0
M  V30 785 C 78.0762 -3.48551 0.176891 0
M  V30 786 C 79.4242 -4.24576 0.0454609 0
M  V30 787 O 80.4482 -3.56043 0.105801 0
M  V30 788 O 79.3072 -5.46427 -0.0890376 0
M  V30 789 H 76.4012 -0.825547 -0.0490066 0
M  V30 790 H 78.9472 -1.56652 0.65256 0
M  V30 791 H 77.7192 -3.72683 1.1926 0
M  V30 792 H 77.3422 -3.94332 -0.508695 0
M  V30 793 N 78.3393 -0.321999 -1.54275 0
M  V30 794 C 79.5643 0.285791 -2.05422 0
M  V30 795 C 79.9893 1.45124 -1.19669 0
M  V30 796 O 79.3473 1.80132 -0.205441 0
M  V30 797 C 79.3953 0.69956 -3.53749 0
M  V30 798 O 78.4993 1.8021 -3.70942 0
M  V30 799 H 77.8403 0.0518962 -0.661969 0
M  V30 800 H 80.3703 -0.469954 -1.9913 0
M  V30 801 H 80.3803 0.982649 -3.9599 0
M  V30 802 H 79.0553 -0.152864 -4.15619 0
M  V30 803 H 77.6323 1.51794 -3.40607 0
M  V30 804 N 79.8174 1.5752 -0.0501392 0
M  V30 805 C 81.0634 1.92936 0.624798 0
M  V30 806 C 81.3964 0.928685 1.70555 0
M  V30 807 O 80.6714 -0.0454779 1.94447 0
M  V30 808 C 80.9544 3.38737 1.22185 0
M  V30 809 C 80.8074 4.49552 0.149218 0
M  V30 810 C 82.1264 3.84913 2.13378 0
M  V30 811 H 79.2454 0.701604 0.225657 0
M  V30 812 H 81.8874 1.89671 -0.111693 0
M  V30 813 H 80.0374 3.4165 1.84953 0
M  V30 814 H 81.7094 4.58768 -0.482648 0
M  V30 815 H 79.9524 4.30638 -0.522841 0
M  V30 816 H 80.6234 5.48653 0.606966 0
M  V30 817 H 83.0994 3.8387 1.60572 0
M  V30 818 H 81.9754 4.87584 2.52097 0
M  V30 819 H 82.2364 3.21611 3.03346 0
M  V30 820 N 81.2955 -0.223234 1.56011 0
M  V30 821 C 82.5235 -0.964812 1.83027 0
M  V30 822 C 82.9385 -1.78013 0.62904 0
M  V30 823 O 82.2955 -1.78008 -0.402414 0
M  V30 824 C 82.3465 -1.88373 3.08542 0
M  V30 825 O 82.0675 -1.10137 4.2403 0
M  V30 826 C 83.5685 -2.73934 3.48533 0
M  V30 827 H 80.7885 -0.282842 0.608475 0
M  V30 828 H 83.3325 -0.238971 2.03099 0
M  V30 829 H 81.4875 -2.56354 2.9045 0
M  V30 830 H 81.9015 -1.72501 4.95322 0
M  V30 831 H 83.3755 -3.34117 4.39397 0
M  V30 832 H 83.8525 -3.46244 2.70207 0
M  V30 833 H 84.4585 -2.11369 3.69057 0
M  V30 834 N 82.7736 -1.49793 -0.48987 0
M  V30 835 C 84.0206 -1.59841 -1.24327 0
M  V30 836 C 84.3486 -0.290135 -1.92324 0
M  V30 837 O 83.6036 0.722749 -1.81865 0
M  V30 838 C 83.9026 -2.71488 -2.32441 0
M  V30 839 C 83.5686 -4.12614 -1.81826 0
M  V30 840 C 82.2306 -4.51017 -1.67742 0
M  V30 841 C 84.5826 -5.00892 -1.4407 0
M  V30 842 C 81.9106 -5.75459 -1.14297 0
M  V30 843 C 84.2626 -6.25863 -0.920742 0
M  V30 844 C 82.9266 -6.63086 -0.766383 0
M  V30 845 H 82.1966 -0.584899 -0.454944 0
M  V30 846 H 84.8436 -1.83663 -0.542215 0
M  V30 847 H 83.1486 -2.4168 -3.0838 0
M  V30 848 H 84.8456 -2.76469 -2.90458 0
M  V30 849 H 81.4356 -3.82307 -1.93751 0
M  V30 850 H 85.6196 -4.7187 -1.53794 0
M  V30 851 H 80.8756 -6.02989 -1.01068 0
M  V30 852 H 85.0496 -6.9364 -0.619448 0
M  V30 853 H 82.6766 -7.59393 -0.350083 0
M  V30 854 N 84.2517 0.741722 -1.39055 0
M  V30 855 C 85.5287 1.49252 -1.26425 0
M  V30 856 C 85.9087 2.10705 0.129144 0
M  V30 857 O 85.2567 1.98045 1.13976 0
M  V30 858 C 85.4667 2.54934 -2.38347 0
M  V30 859 C 86.8147 3.21506 -2.77343 0
M  V30 860 O 87.8387 2.65245 -2.37747 0
M  V30 861 O 86.6977 4.23294 -3.45665 0
M  V30 862 H 83.7917 0.662451 -0.495064 0
M  V30 863 H 86.3377 0.776121 -1.50912 0
M  V30 864 H 85.1097 2.07857 -3.31529 0
M  V30 865 H 84.7327 3.34141 -2.15489 0
M  V30 866 N 85.7298 1.2412 0.971189 0
M  V30 867 C 87.1408 1.07236 1.52831 0
M  V30 868 C 87.4918 -0.357352 1.92918 0
M  V30 869 O 86.6168 -1.24528 1.76979 0
M  V30 870 C 87.2118 1.94043 2.77728 0
M  V30 871 C 85.7708 1.81394 3.29808 0
M  V30 872 C 84.9178 1.89189 2.02738 0
M  V30 873 H 87.8688 1.37648 0.789864 0
M  V30 874 H 87.8898 1.47066 3.5093 0
M  V30 875 H 87.4018 2.98093 2.4852 0
M  V30 876 H 85.5028 0.801634 3.63874 0
M  V30 877 H 85.6158 2.65294 3.98944 0
M  V30 878 H 83.9798 1.32877 2.17292 0
M  V30 879 H 84.7628 2.94812 1.759 0
M  V30 880 N 87.2079 -1.17134 1.05439 0
M  V30 881 C 88.4849 -1.83411 0.679699 0
M  V30 882 C 88.8649 -1.9368 -0.839726 0
M  V30 883 O 88.2129 -1.47325 -1.74664 0
M  V30 884 C 88.4229 -3.20918 1.37159 0
M  V30 885 C 89.7709 -3.96796 1.51123 0
M  V30 886 O 90.7949 -3.30406 1.3308 0
M  V30 887 O 89.6539 -5.15778 1.80651 0
M  V30 888 H 86.7479 -0.79154 0.239569 0
M  V30 889 H 89.2939 -1.24411 1.15413 0
M  V30 890 H 88.0659 -3.08428 2.40807 0
M  V30 891 H 87.6889 -3.87587 0.886674 0
M  V30 892 N 88.686 -0.835752 -1.33615 0
M  V30 893 C 89.616 -0.281739 -2.31794 0
M  V30 894 C 90.597 0.608833 -1.58831 0
M  V30 895 O 91.782 0.533035 -1.86741 0
M  V30 896 C 88.912 0.546612 -3.42971 0
M  V30 897 C 87.866 -0.247904 -4.27281 0
M  V30 898 C 87.192 0.704001 -5.30045 0
M  V30 899 C 88.492 -1.46324 -5.01385 0
M  V30 900 H 90.186 -1.10206 -2.78379 0
M  V30 901 H 87.732 -0.531388 -1.33837 0
M  V30 902 H 89.685 0.944467 -4.1068 0
M  V30 903 H 88.409 1.40011 -2.95067 0
M  V30 904 H 87.068 -0.627281 -3.61194 0
M  V30 905 H 86.716 1.55381 -4.78399 0
M  V30 906 H 86.416 0.176524 -5.87335 0
M  V30 907 H 87.94 1.09944 -6.0062 0
M  V30 908 H 89.354 -1.13871 -5.61877 0
M  V30 909 H 87.751 -1.92728 -5.6831 0
M  V30 910 H 88.821 -2.23467 -4.30338 0
M  V30 911 N 90.1641 1.46063 -0.591896 0
M  V30 912 C 91.5751 1.85944 -0.167822 0
M  V30 913 C 91.9261 1.49429 1.27143 0
M  V30 914 O 91.0511 0.913515 1.96173 0
M  V30 915 C 91.6461 3.37489 -0.297794 0
M  V30 916 C 90.2051 3.76332 0.0714732 0
M  V30 917 C 89.3521 2.7006 -0.629509 0
M  V30 918 H 92.3031 1.37087 -0.799555 0
M  V30 919 H 92.3241 3.77532 0.474349 0
M  V30 920 H 91.8361 3.64034 -1.3454 0
M  V30 921 H 89.9371 3.55405 1.11886 0
M  V30 922 H 90.0501 4.78088 -0.311245 0
M  V30 923 H 88.4141 2.54607 -0.0687867 0
M  V30 924 H 89.1971 2.99444 -1.67894 0
M  V30 925 N 91.6422 0.330177 1.54103 0
M  V30 926 C 92.6052 -0.520144 2.2322 0
M  V30 927 C 93.6052 -1.03828 1.22786 0
M  V30 928 O 94.7952 -0.929652 1.4732 0
M  V30 929 C 91.9272 -1.72317 2.94142 0
M  V30 930 H 93.1202 0.0841605 2.99782 0
M  V30 931 H 90.6732 0.0813433 1.56088 0
M  V30 932 H 91.4082 -2.36653 2.21734 0
M  V30 933 H 91.1932 -1.35898 3.67796 0
M  V30 934 H 92.6832 -2.3266 3.46784 0
M  V30 935 N 93.1203 -1.57491 0.0584922 0
M  V30 936 C 94.0503 -2.14988 -0.911178 0
M  V30 937 C 95.0313 -1.07343 -1.31952 0
M  V30 938 O 96.2163 -1.35318 -1.39294 0
M  V30 939 C 93.3463 -2.70078 -2.18347 0
M  V30 940 C 92.3003 -3.82771 -1.91495 0
M  V30 941 C 91.6263 -4.24408 -3.25241 0
M  V30 942 C 92.9263 -5.07592 -1.23075 0
M  V30 943 H 94.6203 -2.96263 -0.432246 0
M  V30 944 H 92.1663 -1.42512 -0.206469 0
M  V30 945 H 94.1193 -3.08943 -2.86587 0
M  V30 946 H 92.8433 -1.86005 -2.68458 0
M  V30 947 H 91.5023 -3.44389 -1.25664 0
M  V30 948 H 91.1503 -3.37275 -3.73168 0
M  V30 949 H 90.8503 -5.00366 -3.08071 0
M  V30 950 H 92.3743 -4.65879 -3.94701 0
M  V30 951 H 93.7883 -5.43857 -1.81362 0
M  V30 952 H 92.1853 -5.88741 -1.16207 0
M  V30 953 H 93.2553 -4.84454 -0.207847 0
M  V30 954 N 94.5984 0.214957 -1.56127 0
M  V30 955 C 95.5304 1.29004 -1.89448 0
M  V30 956 C 96.5434 1.42716 -0.783326 0
M  V30 957 O 97.7324 1.43496 -1.06166 0
M  V30 958 C 94.8324 2.66482 -2.09381 0
M  V30 959 C 94.0054 2.74633 -3.40434 0
M  V30 960 C 93.0644 3.9317 -3.49719 0
M  V30 961 O 92.0904 3.812 -4.227 0
M  V30 962 N 93.2924 5.07765 -2.81346 0
M  V30 963 H 96.0574 1.00743 -2.82261 0
M  V30 964 H 93.6184 0.40497 -1.56753 0
M  V30 965 H 95.6104 3.44173 -2.12901 0
M  V30 966 H 94.1804 2.87314 -1.23163 0
M  V30 967 H 93.4004 1.83368 -3.48955 0
M  V30 968 H 94.6884 2.77054 -4.26754 0
M  V30 969 H 94.0864 5.20386 -2.21843 0
M  V30 970 H 92.6434 5.83474 -2.90519 0
M  V30 971 N 96.0765 1.50051 0.48192 0
M  V30 972 C 97.4875 1.5348 1.06305 0
M  V30 973 C 97.8385 0.331997 1.93371 0
M  V30 974 O 96.9635 -0.556256 2.09129 0
M  V30 975 C 97.5585 2.7813 1.93466 0
M  V30 976 C 96.1175 2.84275 2.46707 0
M  V30 977 C 95.2645 2.47637 1.24785 0
M  V30 978 H 98.2155 1.56472 0.264995 0
M  V30 979 H 98.2365 2.59372 2.78399 0
M  V30 980 H 97.7485 3.65654 1.30072 0
M  V30 981 H 95.8495 2.01077 3.13686 0
M  V30 982 H 95.9625 3.8691 2.82555 0
M  V30 983 H 94.3265 1.99835 1.57918 0
M  V30 984 H 95.1095 3.37457 0.630694 0
M  V30 985 N 97.5546 -0.734337 1.39446 0
M  V30 986 C 98.5046 -1.83949 1.34709 0
M  V30 987 C 99.4886 -1.59279 0.227851 0
M  V30 988 O 100.681 -1.70771 0.465438 0
M  V30 989 C 97.8096 -3.21884 1.19356 0
M  V30 990 C 96.8956 -3.52381 2.35984 0
M  V30 991 N 97.2866 -3.53811 3.61457 0
M  V30 992 C 95.5846 -3.82747 2.28956 0
M  V30 993 C 96.2856 -3.82122 4.38586 0
M  V30 994 N 95.2616 -3.9993 3.68181 0
M  V30 995 H 99.0636 -1.83361 2.29687 0
M  V30 996 H 96.5776 -0.932609 1.32952 0
M  V30 997 H 98.5746 -4.00998 1.14046 0
M  V30 998 H 97.2346 -3.23711 0.253295 0
M  V30 999 H 98.2456 -3.35107 3.94872 0
M  V30 1000 H 94.9226 -3.92175 1.43194 0
M  V30 1001 H 96.3126 -3.89691 5.47349 0
M  V30 1002 N 99.0327 -1.24633 -0.964593 0
M  V30 1003 C 100.281 -1.08573 -1.70459 0
M  V30 1004 C 100.602 0.375655 -1.91347 0
M  V30 1005 O 99.8717 1.26779 -1.49345 0
M  V30 1006 H 98.4517 -0.398784 -0.631649 0
M  V30 1007 H 101.114 -1.56601 -1.16026 0
M  V30 1008 H 100.21 -1.58623 -2.68785 0
M  V30 1009 N 100.511 1.16574 -1.06058 0
M  V30 1010 C 101.741 1.90675 -0.795397 0
M  V30 1011 C 102.149 1.77547 0.653735 0
M  V30 1012 O 101.492 1.11611 1.45907 0
M  V30 1013 C 101.554 3.42011 -1.10764 0
M  V30 1014 C 101.218 3.78924 -2.55471 0
M  V30 1015 C 102.215 3.81042 -3.53699 0
M  V30 1016 C 99.8998 4.09626 -2.90708 0
M  V30 1017 C 101.894 4.13346 -4.85205 0
M  V30 1018 C 99.5808 4.41597 -4.22416 0
M  V30 1019 C 100.579 4.43436 -5.19474 0
M  V30 1020 O 100.267 4.74649 -6.48817 0
M  V30 1021 H 99.9988 0.611554 -0.288058 0
M  V30 1022 H 102.553 1.48711 -1.41683 0
M  V30 1023 H 100.783 3.84312 -0.429128 0
M  V30 1024 H 102.472 3.97384 -0.827077 0
M  V30 1025 H 103.238 3.57437 -3.27817 0
M  V30 1026 H 99.1168 4.07361 -2.15819 0
M  V30 1027 H 102.661 4.14696 -5.60957 0
M  V30 1028 H 98.5578 4.64667 -4.48056 0
M  V30 1029 H 99.3258 4.9247 -6.5377 0
M  V30 1030 N 101.989 0.842826 1.3317 0
M  V30 1031 C 103.266 0.362216 1.92217 0
M  V30 1032 C 103.646 -1.15289 1.76838 0
M  V30 1033 O 102.994 -1.96914 1.15919 0
M  V30 1034 C 103.204 0.813495 3.39387 0
M  V30 1035 C 104.552 0.823804 4.16532 0
M  V30 1036 O 105.576 0.757358 3.48055 0
M  V30 1037 O 104.435 0.915193 5.38782 0
M  V30 1038 H 101.529 0.103317 0.820521 0
M  V30 1039 H 104.075 0.928942 1.42017 0
M  V30 1040 H 102.847 1.85624 3.4447 0
M  V30 1041 H 102.47 0.223561 3.96971 0
M  V30 1042 N 103.467 -1.45747 0.599634 0
M  V30 1043 C 104.399 -2.28628 -0.161879 0
M  V30 1044 C 105.412 -1.39494 -0.839367 0
M  V30 1045 O 106.601 -1.63941 -0.706089 0
M  V30 1046 C 103.701 -3.15014 -1.24976 0
M  V30 1047 C 102.874 -4.32378 -0.660935 0
M  V30 1048 C 101.933 -5.00033 -1.63869 0
M  V30 1049 O 100.959 -5.57085 -1.1681 0
M  V30 1050 N 102.161 -4.98589 -2.97303 0
M  V30 1051 H 104.926 -2.94624 0.549265 0
M  V30 1052 H 102.487 -1.55847 0.438565 0
M  V30 1053 H 104.479 -3.5714 -1.9035 0
M  V30 1054 H 103.049 -2.5098 -1.86354 0
M  V30 1055 H 102.269 -3.9383 0.170688 0
M  V30 1056 H 103.557 -5.08197 -0.247619 0
M  V30 1057 H 102.955 -4.53514 -3.38145 0
M  V30 1058 H 101.512 -5.44603 -3.58121 0
M  V30 1059 N 104.945 -0.338344 -1.53925 0
M  V30 1060 C 106.356 0.146651 -1.86123 0
M  V30 1061 C 106.707 1.5042 -1.2597 0
M  V30 1062 O 105.832 2.08723 -0.571294 0
M  V30 1063 C 106.427 0.272879 -3.37699 0
M  V30 1064 C 104.986 0.702103 -3.69794 0
M  V30 1065 C 104.133 -0.167304 -2.76795 0
M  V30 1066 H 107.084 -0.558123 -1.48562 0
M  V30 1067 H 107.105 1.10128 -3.64214 0
M  V30 1068 H 106.617 -0.715307 -3.81451 0
M  V30 1069 H 104.718 1.6995 -3.31584 0
M  V30 1070 H 104.831 0.495604 -4.7653 0
M  V30 1071 H 103.195 0.359527 -2.5215 0
M  V30 1072 H 103.978 -1.15253 -3.23375 0
M  V30 1073 N 106.423 1.57458 -0.0668435 0
M  V30 1074 C 107.671 1.92919 0.602214 0
M  V30 1075 C 107.992 0.947215 1.70449 0
M  V30 1076 O 107.262 -0.00544117 1.95899 0
M  V30 1077 H 105.842 0.71217 0.22544 0
M  V30 1078 H 108.504 1.94508 -0.123535 0
M  V30 1079 H 107.6 2.94589 1.03073 0
M  V30 1080 N 107.901 -0.206675 1.56239 0
M  V30 1081 C 109.129 -0.945345 1.8404 0
M  V30 1082 C 109.544 -1.77336 0.647885 0
M  V30 1083 O 108.901 -1.78425 -0.383511 0
M  V30 1084 C 108.952 -1.8509 3.10522 0
M  V30 1085 O 108.673 -1.05634 4.25174 0
M  V30 1086 C 110.174 -2.70222 3.51418 0
M  V30 1087 H 107.394 -0.276372 0.61144 0
M  V30 1088 H 109.938 -0.217417 2.03341 0
M  V30 1089 H 108.093 -2.53259 2.93153 0
M  V30 1090 H 108.507 -1.67238 4.97124 0
M  V30 1091 H 109.981 -3.29438 4.42916 0
M  V30 1092 H 110.458 -3.43358 2.73864 0
M  V30 1093 H 111.064 -2.07443 3.71278 0
M  V30 1094 N 109.379 -1.50304 -0.473955 0
M  V30 1095 C 110.289 -1.7174 -1.5982 0
M  V30 1096 C 111.305 -0.600457 -1.63311 0
M  V30 1097 O 112.481 -0.878441 -1.81233 0
M  V30 1098 C 109.546 -1.80427 -2.96052 0
M  V30 1099 C 108.607 -3.04148 -3.02972 0
M  V30 1100 C 107.84 -3.12411 -4.32706 0
M  V30 1101 O 108.063 -2.27542 -5.23049 0
M  V30 1102 O 106.997 -4.05113 -4.45159 0
M  V30 1103 H 110.823 -2.67035 -1.44657 0
M  V30 1104 H 108.408 -1.34366 -0.653148 0
M  V30 1105 H 110.29 -1.88338 -3.7697 0
M  V30 1106 H 108.965 -0.883156 -3.11419 0
M  V30 1107 H 107.872 -3.0174 -2.21142 0
M  V30 1108 H 109.205 -3.95829 -2.92541 0
M  V30 1109 N 110.857 0.726932 -1.39834 0
M  V30 1110 C 112.268 1.30558 -1.3346 0
M  V30 1111 C 112.619 1.962 -0.00273003 0
M  V30 1112 O 111.744 1.96826 0.899371 0
M  V30 1113 C 112.339 2.37404 -2.41713 0
M  V30 1114 C 110.898 2.90921 -2.38835 0
M  V30 1115 C 110.045 1.64578 -2.2318 0
M  V30 1116 H 112.996 0.523862 -1.49804 0
M  V30 1117 H 113.017 3.17984 -2.08966 0
M  V30 1118 H 112.529 1.89599 -3.38635 0
M  V30 1119 H 110.63 3.42985 -1.45575 0
M  V30 1120 H 110.743 3.43487 -3.33997 0
M  V30 1121 H 109.107 1.89219 -1.70494 0
M  V30 1122 H 109.89 1.18814 -3.22084 0
M  V30 1123 N 112.336 1.25143 0.95797 0
M  V30 1124 C 113.266 1.07711 2.07173 0
M  V30 1125 C 114.247 -0.0128462 1.70095 0
M  V30 1126 O 115.432 0.156061 1.93572 0
M  V30 1127 C 112.562 0.691503 3.40346 0
M  V30 1128 C 111.516 1.73132 3.9142 0
M  V30 1129 C 110.842 1.20049 5.21049 0
M  V30 1130 C 112.142 3.1294 4.1817 0
M  V30 1131 H 113.836 2.00873 2.22014 0
M  V30 1132 H 111.382 0.967191 1.06684 0
M  V30 1133 H 113.335 0.556505 4.17709 0
M  V30 1134 H 112.059 -0.275819 3.25433 0
M  V30 1135 H 110.718 1.8547 3.16222 0
M  V30 1136 H 110.366 0.223499 5.02503 0
M  V30 1137 H 110.066 1.89545 5.56189 0
M  V30 1138 H 111.59 1.07782 6.01012 0
M  V30 1139 H 113.004 3.03775 4.86203 0
M  V30 1140 H 111.401 3.79875 4.64559 0
M  V30 1141 H 112.471 3.6025 3.24573 0
M  V30 1142 N 113.814 -1.1601 1.06675 0
M  V30 1143 C 115.091 -1.82679 0.699114 0
M  V30 1144 C 115.471 -1.94559 -0.819137 0
M  V30 1145 O 114.819 -1.49169 -1.73092 0
M  V30 1146 C 115.029 -3.19445 1.40555 0
M  V30 1147 C 116.377 -3.95171 1.55323 0
M  V30 1148 O 117.401 -3.28976 1.36577 0
M  V30 1149 O 116.26 -5.13833 1.86112 0
M  V30 1150 H 113.354 -0.788954 0.247951 0
M  V30 1151 H 115.9 -1.23179 1.16726 0
M  V30 1152 H 114.672 -3.05856 2.44065 0
M  V30 1153 H 114.295 -3.86625 0.927733 0
M  V30 1154 N 115.292 -0.849877 -1.32721 0
M  V30 1155 C 116.222 -0.306308 -2.31482 0
M  V30 1156 C 117.203 0.591952 -1.59468 0
M  V30 1157 O 118.388 0.513199 -1.87296 0
M  V30 1158 C 115.518 0.510204 -3.43532 0
M  V30 1159 C 114.472 -0.293209 -4.26994 0
M  V30 1160 C 113.798 0.647743 -5.30762 0
M  V30 1161 C 115.098 -1.51634 -4.99804 0
M  V30 1162 H 116.792 -1.13153 -2.77195 0
M  V30 1163 H 114.338 -0.545553 -1.33266 0
M  V30 1164 H 116.291 0.900856 -4.11658 0
M  V30 1165 H 115.015 1.36874 -2.96535 0
M  V30 1166 H 113.674 -0.665555 -3.60508 0
M  V30 1167 H 113.322 1.50299 -4.8002 0
M  V30 1168 H 113.022 0.11422 -5.87489 0
M  V30 1169 H 114.546 1.03567 -6.01753 0
M  V30 1170 H 115.96 -1.19824 -5.60638 0
M  V30 1171 H 114.357 -1.98745 -5.66234 0
M  V30 1172 H 115.427 -2.28018 -4.27943 0
M  V30 1173 N 116.77 1.45427 -0.607355 0
M  V30 1174 C 117.72 2.27612 0.133038 0
M  V30 1175 C 118.704 1.37307 0.838785 0
M  V30 1176 O 119.896 1.61299 0.728813 0
M  V30 1177 C 117.025 3.24173 1.12991 0
M  V30 1178 C 116.111 4.21965 0.425011 0
M  V30 1179 N 116.502 5.02982 -0.533217 0
M  V30 1180 C 114.8 4.40899 0.672593 0
M  V30 1181 C 115.501 5.73931 -0.947518 0
M  V30 1182 N 114.477 5.42819 -0.291321 0
M  V30 1183 H 118.279 2.87649 -0.602935 0
M  V30 1184 H 115.793 1.56576 -0.431006 0
M  V30 1185 H 117.79 3.81783 1.67473 0
M  V30 1186 H 116.45 2.65696 1.86644 0
M  V30 1187 H 117.461 5.09843 -0.90995 0
M  V30 1188 H 114.138 3.93547 1.39382 0
M  V30 1189 H 115.528 6.49037 -1.73782 0
M  V30 1190 N 118.248 0.346503 1.53744 0
M  V30 1191 C 119.196 -0.52422 2.26616 0
M  V30 1192 C 120.19 -1.09948 1.28871 0
M  V30 1193 O 121.396 -1.04488 1.46568 0
M  V30 1194 H 117.771 -0.187743 0.728187 0
M  V30 1195 H 119.742 0.11239 2.98188 0
M  V30 1196 C 118.491 -1.66186 3.05414 0
M  V30 1197 H 117.814 -1.22848 3.80458 0
M  V30 1198 H 119.254 -2.24622 3.59612 0
M  V30 1199 C 117.713 -2.59302 2.1509 0
M  V30 1200 O 118.243 -3.61628 1.74895 0
M  V30 1201 N 116.449 -2.28055 1.8011 0
M  V30 1202 H 115.996 -1.44883 2.12994 0
M  V30 1203 H 115.954 -2.90615 1.19958 0
M  V30 1204 N 119.726 -1.57421 0.075193 0
M  V30 1205 C 120.674 -2.14124 -0.908508 0
M  V30 1206 C 121.668 -1.07898 -1.30592 0
M  V30 1207 O 122.874 -1.26273 -1.28277 0
M  V30 1208 H 119.249 -0.684707 -0.310935 0
M  V30 1209 H 121.22 -2.95634 -0.405374 0
M  V30 1210 C 119.969 -2.72044 -2.16535 0
M  V30 1211 H 119.292 -3.53456 -1.86839 0
M  V30 1212 H 120.732 -3.15311 -2.83469 0
M  V30 1213 C 119.191 -1.66968 -2.92615 0
M  V30 1214 O 119.721 -1.0967 -3.86439 0
M  V30 1215 N 117.927 -1.37923 -2.55784 0
M  V30 1216 H 117.474 -1.84706 -1.79559 0
M  V30 1217 H 117.432 -0.67852 -3.06991 0
M  V30 1218 N 121.204 0.198386 -1.56346 0
M  V30 1219 C 122.452 0.91747 -1.80075 0
M  V30 1220 C 122.773 1.83929 -0.647692 0
M  V30 1221 O 122.043 1.93029 0.334166 0
M  V30 1222 H 120.623 0.341774 -0.664228 0
M  V30 1223 H 123.285 0.204684 -1.93822 0
M  V30 1224 H 122.381 1.51055 -2.7311 0
M  V30 1225 N 122.682 1.50554 0.465978 0
M  V30 1226 C 123.632 1.66177 1.56106 0
M  V30 1227 C 124.616 0.516265 1.52393 0
M  V30 1228 O 125.808 0.770906 1.5933 0
M  V30 1229 C 122.937 1.76396 2.94515 0
M  V30 1230 C 122.023 2.9664 3.03093 0
M  V30 1231 N 122.414 4.20245 2.81474 0
M  V30 1232 C 120.712 2.95304 3.34233 0
M  V30 1233 C 121.413 5.01259 2.95151 0
M  V30 1234 N 120.389 4.35318 3.25576 0
M  V30 1235 H 124.191 2.59434 1.38099 0
M  V30 1236 H 121.705 1.47808 0.6728 0
M  V30 1237 H 123.702 1.85694 3.73261 0
M  V30 1238 H 122.362 0.843017 3.13565 0
M  V30 1239 H 123.373 4.4966 2.56956 0
M  V30 1240 H 120.05 2.12729 3.59239 0
M  V30 1241 H 121.44 6.09564 2.82632 0
M  V30 1242 N 124.16 -0.719506 1.40217 0
M  V30 1243 C 125.388 -1.50864 1.41589 0
M  V30 1244 C 125.803 -1.88794 0.0145275 0
M  V30 1245 O 125.16 -1.55174 -0.960594 0
M  V30 1246 C 125.211 -2.78646 2.30302 0
M  V30 1247 O 124.932 -2.42321 3.64983 0
M  V30 1248 C 126.433 -3.72569 2.40224 0
M  V30 1249 H 123.653 -0.465709 0.48307 0
M  V30 1250 H 126.197 -0.88785 1.84221 0
M  V30 1251 H 124.352 -3.37019 1.91042 0
M  V30 1252 H 124.766 -3.24514 4.12057 0
M  V30 1253 H 126.24 -4.5908 3.06512 0
M  V30 1254 H 126.717 -4.15403 1.42608 0
M  V30 1255 H 127.323 -3.20109 2.80019 0
M  V30 1256 N 125.638 -1.25649 -0.95132 0
M  V30 1257 C 126.884 -1.10757 -1.69884 0
M  V30 1258 C 127.217 0.350061 -1.91019 0
M  V30 1259 O 126.492 1.25783 -1.48354 0
M  V30 1260 C 126.775 -1.86606 -3.07978 0
M  V30 1261 C 126.628 -3.40217 -2.94232 0
M  V30 1262 C 127.947 -1.65182 -4.07925 0
M  V30 1263 H 125.066 -0.40374 -0.616574 0
M  V30 1264 H 127.708 -1.54521 -1.10558 0
M  V30 1265 H 125.858 -1.49409 -3.58621 0
M  V30 1266 H 127.53 -3.87108 -2.50889 0
M  V30 1267 H 125.773 -3.67759 -2.30078 0
M  V30 1268 H 126.444 -3.88505 -3.92133 0
M  V30 1269 H 128.92 -1.9757 -3.66204 0
M  V30 1270 H 127.796 -2.20683 -5.02583 0
M  V30 1271 H 128.057 -0.593933 -4.38092 0
M  V30 1272 N 127.117 1.15442 -1.07289 0
M  V30 1273 C 128.049 2.19773 -0.650585 0
M  V30 1274 C 129.062 1.60076 0.296572 0
M  V30 1275 O 130.251 1.78293 0.0859905 0
M  V30 1276 C 127.351 3.38838 0.0650398 0
M  V30 1277 C 126.524 4.2808 -0.898141 0
M  V30 1278 C 125.583 5.2574 -0.219926 0
M  V30 1279 O 124.609 5.62654 -0.860773 0
M  V30 1280 N 125.811 5.71205 1.03466 0
M  V30 1281 H 128.576 2.56622 -1.54808 0
M  V30 1282 H 126.137 1.30551 -0.957494 0
M  V30 1283 H 128.129 4.01222 0.529415 0
M  V30 1284 H 126.699 3.00409 0.864466 0
M  V30 1285 H 125.919 3.62804 -1.54165 0
M  V30 1286 H 127.207 4.84577 -1.5512 0
M  V30 1287 H 126.605 5.43325 1.57526 0
M  V30 1288 H 125.162 6.35633 1.44272 0
M  V30 1289 N 128.595 0.856903 1.32268 0
M  V30 1290 C 129.525 0.31858 2.31316 0
M  V30 1291 C 130.506 -0.583487 1.59779 0
M  V30 1292 O 131.691 -0.503259 1.87566 0
M  V30 1293 C 128.821 -0.491979 3.43798 0
M  V30 1294 C 127.775 0.315849 4.26833 0
M  V30 1295 C 127.101 -0.619586 5.31098 0
M  V30 1296 C 128.401 1.54282 4.98993 0
M  V30 1297 H 130.095 1.14621 2.76591 0
M  V30 1298 H 127.641 0.552613 1.32974 0
M  V30 1299 H 129.594 -0.879012 4.1213 0
M  V30 1300 H 128.318 -1.35299 2.97257 0
M  V30 1301 H 126.977 0.684664 3.6015 0
M  V30 1302 H 126.625 -1.47751 4.8081 0
M  V30 1303 H 126.325 -0.0830621 5.87541 0
M  V30 1304 H 127.849 -1.00375 6.02293 0
M  V30 1305 H 129.263 1.22796 5.59995 0
M  V30 1306 H 127.66 2.01745 5.65172 0
M  V30 1307 H 128.73 2.30285 4.26728 0
M  V30 1308 N 130.073 -1.45103 0.615059 0
M  V30 1309 C 131.298 -2.07064 0.117988 0
M  V30 1310 C 131.723 -1.4554 -1.19163 0
M  V30 1311 O 131.081 -0.550855 -1.72729 0
M  V30 1312 C 131.129 -3.606 -0.000288387 0
M  V30 1313 O 130.233 -3.98847 -1.04856 0
M  V30 1314 H 129.574 -0.659467 0.0774581 0
M  V30 1315 H 132.104 -1.86236 0.847186 0
M  V30 1316 H 132.114 -4.07529 -0.196091 0
M  V30 1317 H 130.789 -4.04765 0.955932 0
M  V30 1318 H 129.366 -3.63577 -0.828619 0
M  V30 1319 N 131.551 -0.354651 -1.53558 0
M  V30 1320 C 132.481 0.489091 -2.2832 0
M  V30 1321 C 133.462 1.09324 -1.30316 0
M  V30 1322 O 134.647 1.11255 -1.59173 0
M  V30 1323 C 131.777 1.63456 -3.0643 0
M  V30 1324 C 130.731 1.1582 -4.12031 0
M  V30 1325 C 130.057 2.39305 -4.7816 0
M  V30 1326 C 131.357 0.250731 -5.21698 0
M  V30 1327 H 133.051 -0.134614 -2.99097 0
M  V30 1328 H 130.597 -0.0661826 -1.43848 0
M  V30 1329 H 132.55 2.23136 -3.57475 0
M  V30 1330 H 131.274 2.28533 -2.33325 0
M  V30 1331 H 129.933 0.584146 -3.61916 0
M  V30 1332 H 129.581 3.02814 -4.01637 0
M  V30 1333 H 129.281 2.08109 -5.49513 0
M  V30 1334 H 130.805 2.99691 -5.31994 0
M  V30 1335 H 132.219 0.754695 -5.68311 0
M  V30 1336 H 130.616 0.0301468 -6.00092 0
M  V30 1337 H 131.686 -0.710125 -4.79672 0
M  V30 1338 N 133.029 1.57378 -0.0835403 0
M  V30 1339 C 134.44 1.81261 0.447358 0
M  V30 1340 C 134.791 0.998331 1.68902 0
M  V30 1341 O 133.916 0.224282 2.15235 0
M  V30 1342 C 134.511 3.28767 0.818386 0
M  V30 1343 C 133.07 3.53455 1.29409 0
M  V30 1344 C 132.217 2.75831 0.285024 0
M  V30 1345 H 135.168 1.5566 -0.309115 0
M  V30 1346 H 135.189 3.41459 1.67887 0
M  V30 1347 H 134.701 3.88006 -0.0855019 0
M  V30 1348 H 132.802 2.99534 2.21608 0
M  V30 1349 H 132.915 4.62128 1.2639 0
M  V30 1350 H 131.279 2.42947 0.764767 0
M  V30 1351 H 132.062 3.37813 -0.611341 0
M  V30 1352 N 134.507 -0.190092 1.56449 0
M  V30 1353 C 135.732 -0.929864 1.85387 0
M  V30 1354 C 136.157 -1.7585 0.667704 0
M  V30 1355 O 135.515 -1.77198 -0.383459 0
M  V30 1356 C 135.563 -1.79773 3.12593 0
M  V30 1357 O 134.667 -2.89713 2.93496 0
M  V30 1358 H 134.008 -0.261574 0.610307 0
M  V30 1359 H 136.538 -0.193896 2.03679 0
M  V30 1360 H 136.548 -2.20139 3.43515 0
M  V30 1361 H 135.223 -1.18892 3.98544 0
M  V30 1362 H 133.8 -2.53065 2.73884 0
M  V30 1363 N 135.985 -1.50799 -0.457987 0
M  V30 1364 C 137.213 -1.66218 -1.23203 0
M  V30 1365 C 137.628 -0.350894 -1.85511 0
M  V30 1366 O 136.985 0.668546 -1.69814 0
M  V30 1367 C 137.036 -2.76291 -2.33121 0
M  V30 1368 O 136.757 -4.02338 -1.73366 0
M  V30 1369 C 138.258 -3.028 -3.2377 0
M  V30 1370 H 135.478 -0.558361 -0.372121 0
M  V30 1371 H 138.022 -1.97099 -0.545179 0
M  V30 1372 H 136.177 -2.48068 -2.97558 0
M  V30 1373 H 136.591 -4.63312 -2.4585 0
M  V30 1374 H 138.065 -3.8345 -3.97077 0
M  V30 1375 H 138.542 -2.14385 -3.83322 0
M  V30 1376 H 139.148 -3.32604 -2.65056 0
M  V30 1377 N 137.463 0.71206 -1.40597 0
M  V30 1378 C 138.393 1.83889 -1.43899 0
M  V30 1379 C 139.374 1.67442 -0.299504 0
M  V30 1380 O 140.559 1.87421 -0.508624 0
M  V30 1381 C 137.689 3.21877 -1.30431 0
M  V30 1382 C 136.643 3.53002 -2.42019 0
M  V30 1383 C 135.969 4.90172 -2.13626 0
M  V30 1384 C 137.269 3.53643 -3.84362 0
M  V30 1385 H 138.963 1.81383 -2.38203 0
M  V30 1386 H 136.509 0.871237 -1.14654 0
M  V30 1387 H 138.462 4.00404 -1.31357 0
M  V30 1388 H 137.186 3.24968 -0.326049 0
M  V30 1389 H 135.845 2.76818 -2.40349 0
M  V30 1390 H 135.493 4.89869 -1.14182 0
M  V30 1391 H 135.193 5.11962 -2.88389 0
M  V30 1392 H 136.717 5.71028 -2.1624 0
M  V30 1393 H 138.131 4.22203 -3.87837 0
M  V30 1394 H 136.528 3.86961 -4.58673 0
M  V30 1395 H 137.598 2.52954 -4.13693 0
M  V30 1396 N 138.941 1.26152 0.944643 0
M  V30 1397 C 140.171 1.14094 1.72239 0
M  V30 1398 C 140.579 -0.306931 1.86694 0
M  V30 1399 O 139.922 -1.22222 1.3714 0
M  V30 1400 C 139.984 1.73316 3.14963 0
M  V30 1401 C 139.648 3.2239 3.23904 0
M  V30 1402 C 140.645 4.19252 3.07447 0
M  V30 1403 C 138.33 3.62788 3.47405 0
M  V30 1404 C 140.324 5.54491 3.14353 0
M  V30 1405 C 138.011 4.98162 3.53947 0
M  V30 1406 C 139.009 5.93823 3.37436 0
M  V30 1407 O 138.697 7.26732 3.43679 0
M  V30 1408 H 138.429 0.398292 0.546205 0
M  V30 1409 H 140.983 1.67201 1.19301 0
M  V30 1410 H 139.213 1.14667 3.69308 0
M  V30 1411 H 140.902 1.56214 3.74636 0
M  V30 1412 H 141.668 3.8938 2.8915 0
M  V30 1413 H 137.547 2.88816 3.59313 0
M  V30 1414 H 141.091 6.29137 3.01384 0
M  V30 1415 H 136.988 5.27695 3.71763 0
M  V30 1416 H 137.756 7.3496 3.60245 0
M  V30 1417 N 140.419 -1.14872 1.07899 0
M  V30 1418 C 141.349 -2.2193 0.725887 0
M  V30 1419 C 142.33 -1.67622 -0.28927 0
M  V30 1420 O 143.515 -1.93533 -0.160787 0
M  V30 1421 C 140.645 -3.47061 0.128856 0
M  V30 1422 C 139.599 -4.14363 1.07178 0
M  V30 1423 C 138.925 -5.33636 0.337229 0
M  V30 1424 C 140.225 -4.63492 2.40775 0
M  V30 1425 H 141.919 -2.51724 1.62097 0
M  V30 1426 H 139.465 -1.20991 0.780838 0
M  V30 1427 H 141.418 -4.21199 -0.130147 0
M  V30 1428 H 140.142 -3.16617 -0.80134 0
M  V30 1429 H 138.801 -3.42173 1.3158 0
M  V30 1430 H 138.449 -4.99449 -0.596606 0
M  V30 1431 H 138.149 -5.79609 0.965788 0
M  V30 1432 H 139.673 -6.10539 0.0861567 0
M  V30 1433 H 141.087 -5.2913 2.20669 0
M  V30 1434 H 139.484 -5.20148 2.99276 0
M  V30 1435 H 140.554 -3.78834 3.02676 0
M  V30 1436 N 141.898 -0.863906 -1.31812 0
M  V30 1437 C 143.146 -0.470904 -1.96537 0
M  V30 1438 C 143.467 0.978771 -1.68657 0
M  V30 1439 O 142.737 1.6853 -0.998717 0
M  V30 1440 H 141.317 -0.171148 -0.72713 0
M  V30 1441 H 143.979 -1.10236 -1.60729 0
M  V30 1442 H 143.075 -0.623616 -3.05806 0
M  V30 1443 N 143.376 1.44774 -0.622745 0
M  V30 1444 C 144.624 2.01721 -0.123655 0
M  V30 1445 C 144.945 1.49172 1.25589 0
M  V30 1446 O 144.215 0.691974 1.83272 0
M  V30 1447 H 142.795 0.745777 -0.0427225 0
M  V30 1448 H 145.457 1.77382 -0.807559 0
M  V30 1449 H 144.553 3.11984 -0.0849534 0
M  V30 1450 N 144.854 0.36279 1.53368 0
M  V30 1451 C 145.784 -0.476976 2.28576 0
M  V30 1452 C 146.765 -1.08631 1.30894 0
M  V30 1453 O 147.95 -1.10409 1.59761 0
M  V30 1454 C 145.08 -1.61828 3.07293 0
M  V30 1455 C 144.034 -1.13633 4.1264 0
M  V30 1456 C 143.36 -2.36766 4.79423 0
M  V30 1457 C 144.66 -0.223061 5.21823 0
M  V30 1458 H 146.354 0.150474 2.99022 0
M  V30 1459 H 143.9 0.0738103 1.43811 0
M  V30 1460 H 145.853 -2.21237 3.58653 0
M  V30 1461 H 144.577 -2.27292 2.34533 0
M  V30 1462 H 143.236 -0.564945 3.62221 0
M  V30 1463 H 142.884 -3.0068 4.03238 0
M  V30 1464 H 142.584 -2.05192 5.50609 0
M  V30 1465 H 144.108 -2.96865 5.33576 0
M  V30 1466 H 145.522 -0.724545 5.68703 0
M  V30 1467 H 143.919 0.001678 6.001 0
M  V30 1468 H 144.989 0.735553 4.79289 0
M  V30 1469 N 146.332 -1.57332 0.0918853 0
M  V30 1470 C 147.743 -1.81496 -0.437739 0
M  V30 1471 C 148.094 -1.00727 -1.6837 0
M  V30 1472 O 147.219 -0.235694 -2.15113 0
M  V30 1473 C 147.814 -3.29197 -0.800939 0
M  V30 1474 C 146.373 -3.54136 -1.27532 0
M  V30 1475 C 145.52 -2.75979 -0.270392 0
M  V30 1476 H 148.471 -1.55494 0.317366 0
M  V30 1477 H 148.492 -3.42344 -1.66074 0
M  V30 1478 H 148.004 -3.87955 0.106078 0
M  V30 1479 H 146.105 -3.00705 -2.20016 0
M  V30 1480 H 146.218 -4.62792 -1.23938 0
M  V30 1481 H 144.582 -2.43349 -0.751872 0
M  V30 1482 H 145.365 -3.37484 0.629248 0
M  V30 1483 N 147.81 0.181792 -1.56548 0
M  V30 1484 C 149.226 0.53316 -1.50431 0
M  V30 1485 C 149.426 1.85184 -0.794297 0
M  V30 1486 O 148.482 2.50058 -0.350318 0
M  V30 1487 C 149.795 0.575597 -2.9514 0
M  V30 1488 C 151.343 0.663519 -3.05886 0
M  V30 1489 C 151.818 0.736946 -4.52032 0
M  V30 1490 N 153.309 0.800118 -4.56237 0
M  V30 1491 C 154.044 0.877327 -5.66649 0
M  V30 1492 N 153.54 0.916016 -6.86718 0
M  V30 1493 N 155.333 0.915542 -5.54594 0
M  V30 1494 H 147.484 -0.683025 -2.01118 0
M  V30 1495 H 149.747 -0.244988 -0.915797 0
M  V30 1496 H 149.453 -0.324482 -3.502 0
M  V30 1497 H 149.327 1.42572 -3.49218 0
M  V30 1498 H 151.714 1.55403 -2.50867 0
M  V30 1499 H 151.795 -0.21307 -2.54911 0
M  V30 1500 H 151.439 -0.149262 -5.07681 0
M  V30 1501 H 151.369 1.62953 -5.00753 0
M  V30 1502 H 153.86 0.778926 -3.69785 0
M  V30 1503 H 154.173 0.975813 -7.66614 0
M  V30 1504 H 152.518 0.884469 -6.89349 0
M  V30 1505 H 155.709 0.882245 -4.59711 0
M  V30 1506 H 155.882 0.972253 -6.40665 0
M  V30 1507 N 149.288 1.51039 0.449983 0
M  V30 1508 C 150.235 1.71439 1.54523 0
M  V30 1509 C 151.205 0.555871 1.56522 0
M  V30 1510 O 152.39 0.788871 1.73728 0
M  V30 1511 C 149.53 1.83384 2.92343 0
M  V30 1512 C 148.643 3.10873 2.9997 0
M  V30 1513 C 147.778 3.13488 4.28834 0
M  V30 1514 C 146.817 4.35343 4.30282 0
M  V30 1515 N 145.954 4.35579 5.5065 0
M  V30 1516 H 150.794 2.64934 1.36433 0
M  V30 1517 H 148.331 1.31312 0.662982 0
M  V30 1518 H 150.289 1.88291 3.72293 0
M  V30 1519 H 148.919 0.933086 3.0902 0
M  V30 1520 H 147.971 3.15336 2.12761 0
M  V30 1521 H 149.283 4.00814 2.96901 0
M  V30 1522 H 148.437 3.17241 5.17149 0
M  V30 1523 H 147.176 2.21414 4.34543 0
M  V30 1524 H 146.181 4.3178 3.40362 0
M  V30 1525 H 147.406 5.28668 4.26248 0
M  V30 1526 H 145.352 3.46369 5.57104 0
M  V30 1527 H 145.269 5.19313 5.49409 0
M  V30 1528 H 146.537 4.43507 6.41032 0
M  V30 1529 N 150.766 -0.704594 1.40972 0
M  V30 1530 C 151.996 -1.49138 1.42974 0
M  V30 1531 C 152.404 -1.89175 0.0308406 0
M  V30 1532 O 151.747 -1.56734 -0.958138 0
M  V30 1533 C 151.809 -2.79016 2.26694 0
M  V30 1534 C 151.473 -2.61236 3.74973 0
M  V30 1535 C 152.47 -2.27773 4.67349 0
M  V30 1536 C 150.155 -2.77158 4.18914 0
M  V30 1537 C 152.149 -2.10457 6.01653 0
M  V30 1538 C 149.836 -2.59459 5.53285 0
M  V30 1539 C 150.834 -2.26158 6.4447 0
M  V30 1540 O 150.522 -2.08605 7.76363 0
M  V30 1541 H 150.254 -0.466443 0.489292 0
M  V30 1542 H 152.808 -0.8758 1.85793 0
M  V30 1543 H 151.038 -3.42947 1.78673 0
M  V30 1544 H 152.727 -3.40782 2.20504 0
M  V30 1545 H 153.493 -2.15095 4.34694 0
M  V30 1546 H 149.372 -3.02064 3.48251 0
M  V30 1547 H 152.916 -1.84387 6.72791 0
M  V30 1548 H 148.813 -2.71725 5.85522 0
M  V30 1549 H 149.581 -2.23439 7.87412 0
M  V30 1550 N 152.244 -1.26651 -0.937939 0
M  V30 1551 C 153.49 -1.12553 -1.687 0
M  V30 1552 C 153.823 0.329782 -1.91379 0
M  V30 1553 O 153.098 1.24202 -1.4968 0
M  V30 1554 C 153.381 -1.89862 -3.05981 0
M  V30 1555 C 153.234 -3.43318 -2.90607 0
M  V30 1556 C 154.553 -1.69499 -4.0615 0
M  V30 1557 H 151.672 -0.410257 -0.612257 0
M  V30 1558 H 154.314 -1.55685 -1.08913 0
M  V30 1559 H 152.464 -1.53204 -3.57017 0
M  V30 1560 H 154.136 -3.89747 -2.46769 0
M  V30 1561 H 152.379 -3.70179 -2.26164 0
M  V30 1562 H 153.05 -3.92642 -3.8799 0
M  V30 1563 H 155.526 -2.01442 -3.64088 0
M  V30 1564 H 154.402 -2.26002 -5.00214 0
M  V30 1565 H 154.663 -0.640365 -4.37438 0
M  V30 1566 N 153.722 1.14298 -1.08507 0
M  V30 1567 C 154.685 2.17607 -0.719711 0
M  V30 1568 C 155.685 1.58907 0.245997 0
M  V30 1569 O 156.875 1.74181 0.0254081 0
M  V30 1570 C 154.007 3.40842 -0.0627695 0
M  V30 1571 H 155.2 2.51443 -1.63452 0
M  V30 1572 H 152.753 1.28963 -0.88307 0
M  V30 1573 H 153.488 3.12587 0.863716 0
M  V30 1574 H 153.273 3.84713 -0.757504 0
M  V30 1575 H 154.763 4.17221 0.177786 0
M  V30 1576 N 155.201 0.870884 1.31352 0
M  V30 1577 C 156.164 0.332243 2.26779 0
M  V30 1578 C 157.164 -0.517302 1.52252 0
M  V30 1579 O 158.354 -0.326477 1.71113 0
M  V30 1580 C 155.486 -0.528066 3.36785 0
M  V30 1581 H 156.679 1.17469 2.75937 0
M  V30 1582 H 154.232 0.64655 1.423 0
M  V30 1583 H 154.967 -1.39167 2.92922 0
M  V30 1584 H 154.752 0.0802582 3.92018 0
M  V30 1585 H 156.242 -0.897179 4.07849 0
M  V30 1586 N 156.679 -1.44442 0.630414 0
M  V30 1587 C 157.611 -2.2892 -0.113347 0
M  V30 1588 C 158.624 -1.41243 -0.80959 0
M  V30 1589 O 159.813 -1.65402 -0.671156 0
M  V30 1590 C 156.913 -3.17594 -1.18266 0
M  V30 1591 C 156.086 -4.33682 -0.569073 0
M  V30 1592 C 155.145 -5.03397 -1.53226 0
M  V30 1593 O 154.171 -5.59438 -1.04967 0
M  V30 1594 N 155.373 -5.04783 -2.86661 0
M  V30 1595 H 158.138 -2.93392 0.611636 0
M  V30 1596 H 155.699 -1.54881 0.471523 0
M  V30 1597 H 157.691 -3.61097 -1.82732 0
M  V30 1598 H 156.261 -2.54876 -1.80988 0
M  V30 1599 H 155.481 -3.9338 0.254187 0
M  V30 1600 H 156.769 -5.08608 -0.139767 0
M  V30 1601 H 156.167 -4.60584 -3.28449 0
M  V30 1602 H 154.724 -5.52077 -3.46489 0
M  V30 1603 N 158.157 -0.370918 -1.53173 0
M  V30 1604 C 159.087 0.464847 -2.28826 0
M  V30 1605 C 160.068 1.07936 -1.31468 0
M  V30 1606 O 161.253 1.0956 -1.60344 0
M  V30 1607 C 158.383 1.60196 -3.08147 0
M  V30 1608 C 157.337 1.11443 -4.13237 0
M  V30 1609 C 156.663 2.3422 -4.80672 0
M  V30 1610 C 157.963 0.195384 -5.21934 0
M  V30 1611 H 159.657 -0.166329 -2.98938 0
M  V30 1612 H 157.203 -0.0814359 -1.4377 0
M  V30 1613 H 159.156 2.19332 -3.59822 0
M  V30 1614 H 157.88 2.26045 -2.35735 0
M  V30 1615 H 156.539 0.545727 -3.62515 0
M  V30 1616 H 156.187 2.98537 -4.04827 0
M  V30 1617 H 155.887 2.02269 -5.51689 0
M  V30 1618 H 157.411 2.94032 -5.35143 0
M  V30 1619 H 158.825 0.694375 -5.69079 0
M  V30 1620 H 157.222 -0.0335027 -6.00091 0
M  V30 1621 H 158.292 -0.760961 -4.78892 0
M  V30 1622 N 159.635 1.57281 -0.100228 0
M  V30 1623 C 160.585 2.10848 0.86759 0
M  V30 1624 C 161.569 1.02473 1.24049 0
M  V30 1625 O 162.761 1.28739 1.21471 0
M  V30 1626 C 159.89 2.69648 2.12474 0
M  V30 1627 C 158.976 3.85074 1.77704 0
M  V30 1628 N 159.367 4.92897 1.13518 0
M  V30 1629 C 157.665 3.94905 2.07282 0
M  V30 1630 C 158.366 5.73475 0.974735 0
M  V30 1631 N 157.342 5.22675 1.4937 0
M  V30 1632 H 161.144 2.91594 0.367471 0
M  V30 1633 H 158.658 1.62074 0.102829 0
M  V30 1634 H 160.655 3.06356 2.82757 0
M  V30 1635 H 159.315 1.90359 2.63047 0
M  V30 1636 H 160.326 5.11662 0.801381 0
M  V30 1637 H 157.003 3.26633 2.60033 0
M  V30 1638 H 158.393 6.70238 0.472364 0
M  V30 1639 N 161.113 -0.173488 1.56642 0
M  V30 1640 C 162.043 -1.2171 1.99271 0
M  V30 1641 C 163.024 -1.46289 0.867959 0
M  V30 1642 O 164.209 -1.5766 1.13388 0
M  V30 1643 C 161.339 -2.55651 2.35074 0
M  V30 1644 C 160.293 -2.45645 3.50489 0
M  V30 1645 C 159.619 -3.84056 3.72028 0
M  V30 1646 C 160.919 -1.96302 4.84007 0
M  V30 1647 H 162.613 -0.86275 2.867 0
M  V30 1648 H 160.159 -0.413571 1.37933 0
M  V30 1649 H 162.112 -3.2886 2.63494 0
M  V30 1650 H 160.836 -2.92869 1.44552 0
M  V30 1651 H 159.495 -1.7489 3.22194 0
M  V30 1652 H 159.143 -4.18664 2.788 0
M  V30 1653 H 158.843 -3.7823 4.49684 0
M  V30 1654 H 160.367 -4.58854 4.02846 0
M  V30 1655 H 161.781 -2.59284 5.11317 0
M  V30 1656 H 160.178 -2.01429 5.65284 0
M  V30 1657 H 161.248 -0.917226 4.76146 0
M  V30 1658 N 162.591 -1.51276 -0.441967 0
M  V30 1659 C 163.541 -1.6864 -1.53442 0
M  V30 1660 C 164.525 -0.540444 -1.51552 0
M  V30 1661 O 165.717 -0.796157 -1.58083 0
M  V30 1662 C 162.846 -1.8106 -2.91672 0
M  V30 1663 C 161.932 -3.01424 -2.98336 0
M  V30 1664 N 162.323 -4.2467 -2.74752 0
M  V30 1665 C 160.621 -3.00584 -3.29493 0
M  V30 1666 C 161.322 -5.05891 -2.87139 0
M  V30 1667 N 160.298 -4.40442 -3.18609 0
M  V30 1668 H 164.1 -2.61598 -1.33954 0
M  V30 1669 H 161.614 -1.4886 -0.6492 0
M  V30 1670 H 163.611 -1.91609 -3.70259 0
M  V30 1671 H 162.271 -0.892795 -3.12185 0
M  V30 1672 H 163.282 -4.53691 -2.49769 0
M  V30 1673 H 159.959 -2.18417 -3.55809 0
M  V30 1674 H 161.349 -6.13983 -2.72899 0
M  V30 1675 N 164.069 0.697108 -1.41344 0
M  V30 1676 C 165.315 1.45796 -1.41828 0
M  V30 1677 C 165.67 1.92382 -0.0261743 0
M  V30 1678 O 164.963 1.66522 0.947688 0
M  V30 1679 C 165.157 2.68553 -2.35826 0
M  V30 1680 C 164.986 2.33975 -3.84039 0
M  V30 1681 C 163.756 2.24414 -4.52732 0
M  V30 1682 C 165.954 1.97048 -4.75054 0
M  V30 1683 N 163.936 1.82705 -5.86082 0
M  V30 1684 C 165.307 1.66086 -5.9734 0
M  V30 1685 C 167.362 1.83845 -4.62715 0
M  V30 1686 C 166.065 1.23246 -7.08663 0
M  V30 1687 C 168.091 1.4241 -5.73998 0
M  V30 1688 C 167.453 1.12357 -6.95381 0
M  V30 1689 H 163.552 0.530859 -0.574206 0
M  V30 1690 H 166.136 0.806674 -1.77203 0
M  V30 1691 H 164.307 3.31404 -2.02549 0
M  V30 1692 H 166.039 3.35015 -2.2704 0
M  V30 1693 H 162.794 2.4276 -4.0665 0
M  V30 1694 H 163.218 1.64337 -6.56751 0
M  V30 1695 H 167.86 2.05734 -3.69369 0
M  V30 1696 H 165.578 1.00102 -8.01876 0
M  V30 1697 H 169.164 1.32746 -5.66454 0
M  V30 1698 H 168.044 0.807795 -7.80028 0
M  V30 1699 N 165.547 1.27147 0.931209 0
M  V30 1700 C 166.795 1.13055 1.6752 0
M  V30 1701 C 167.116 -0.324791 1.92276 0
M  V30 1702 O 166.386 -1.22775 1.52654 0
M  V30 1703 H 164.966 0.415391 0.620854 0
M  V30 1704 H 167.628 1.59623 1.11833 0
M  V30 1705 H 166.724 1.65694 2.64485 0
M  V30 1706 N 167.025 -1.13721 1.09112 0
M  V30 1707 C 167.957 -2.1871 0.685467 0
M  V30 1708 C 168.97 -1.60527 -0.271068 0
M  V30 1709 O 170.159 -1.78407 -0.0576148 0
M  V30 1710 C 167.259 -3.38898 -0.0111255 0
M  V30 1711 C 166.432 -4.26597 0.966131 0
M  V30 1712 C 165.491 -5.25324 0.303539 0
M  V30 1713 O 164.517 -5.61213 0.950177 0
M  V30 1714 N 165.719 -5.72779 -0.943651 0
M  V30 1715 H 168.484 -2.54126 1.58871 0
M  V30 1716 H 166.045 -1.29012 0.978143 0
M  V30 1717 H 168.037 -4.02014 -0.465517 0
M  V30 1718 H 166.607 -3.01747 -0.816565 0
M  V30 1719 H 165.827 -3.60306 1.59917 0
M  V30 1720 H 167.115 -4.82048 1.6281 0
M  V30 1721 H 166.513 -5.45762 -1.48862 0
M  V30 1722 H 165.07 -6.37847 -1.34142 0
M  V30 1723 N 168.503 -0.877838 -1.30888 0
M  V30 1724 C 169.45 -0.337538 -2.28318 0
M  V30 1725 C 170.42 0.568346 -1.56074 0
M  V30 1726 O 171.605 0.498298 -1.84178 0
M  V30 1727 C 168.745 0.448142 -3.42178 0
M  V30 1728 C 167.858 -0.48615 -4.29256 0
M  V30 1729 C 166.993 0.314427 -5.30269 0
M  V30 1730 C 166.032 -0.615791 -6.08995 0
M  V30 1731 N 165.169 0.14902 -7.01942 0
M  V30 1732 H 170.009 -1.17356 -2.73919 0
M  V30 1733 H 167.546 -0.590094 -1.34745 0
M  V30 1734 H 169.504 0.919517 -4.06941 0
M  V30 1735 H 168.134 1.24879 -2.97666 0
M  V30 1736 H 167.186 -1.076 -3.64865 0
M  V30 1737 H 168.498 -1.19909 -4.84173 0
M  V30 1738 H 167.652 0.847969 -6.00745 0
M  V30 1739 H 166.391 1.06062 -4.76027 0
M  V30 1740 H 165.396 -1.16102 -5.37401 0
M  V30 1741 H 166.621 -1.36097 -6.65323 0
M  V30 1742 H 164.567 0.877884 -6.50099 0
M  V30 1743 H 164.484 -0.504433 -7.54315 0
M  V30 1744 H 165.752 0.663537 -7.76671 0
M  V30 1745 N 169.982 1.44106 -0.638065 0
M  V30 1746 C 171.23 2.01579 -0.145043 0
M  V30 1747 C 171.551 1.50496 1.24 0
M  V30 1748 O 170.821 0.711374 1.82527 0
M  V30 1749 H 169.401 0.745282 -0.05063 0
M  V30 1750 H 172.063 1.76516 -0.826327 0
M  V30 1751 H 171.159 3.11877 -0.118039 0
M  V30 1752 N 171.46 0.379036 1.52974 0
M  V30 1753 C 172.685 -0.209353 2.06341 0
M  V30 1754 C 173.11 -1.40583 1.24972 0
M  V30 1755 O 172.468 -1.79246 0.272155 0
M  V30 1756 C 172.516 -0.567786 3.56102 0
M  V30 1757 O 171.62 -1.66318 3.77375 0
M  V30 1758 H 170.961 -0.0272919 0.663439 0
M  V30 1759 H 173.491 0.543536 1.97248 0
M  V30 1760 H 173.501 -0.835003 3.99364 0
M  V30 1761 H 172.176 0.307013 4.14765 0
M  V30 1762 H 170.753 -1.39048 3.46006 0
M  V30 1763 N 172.938 -1.57226 0.108567 0
M  V30 1764 C 174.349 -1.8195 -0.418464 0
M  V30 1765 C 174.7 -1.02508 -1.67292 0
M  V30 1766 O 173.825 -0.258496 -2.14851 0
M  V30 1767 C 174.42 -3.30028 -0.765979 0
M  V30 1768 C 172.979 -3.55469 -1.23769 0
M  V30 1769 C 172.126 -2.7625 -0.241106 0
M  V30 1770 H 175.077 -1.55149 0.33384 0
M  V30 1771 H 175.098 -3.44086 -1.62434 0
M  V30 1772 H 174.61 -3.87821 0.147219 0
M  V30 1773 H 172.711 -3.03022 -2.16814 0
M  V30 1774 H 172.824 -4.6408 -1.19022 0
M  V30 1775 H 171.188 -2.44133 -0.72602 0
M  V30 1776 H 171.971 -3.36797 0.665007 0
M  V30 1777 N 174.416 0.165178 -1.56732 0
M  V30 1778 C 175.664 0.879068 -1.8198 0
M  V30 1779 C 175.985 1.82514 -0.686561 0
M  V30 1780 O 175.255 1.93694 0.293146 0
M  V30 1781 H 173.835 0.327608 -0.671329 0
M  V30 1782 H 176.497 0.163526 -1.94213 0
M  V30 1783 H 175.593 1.45228 -2.76252 0
M  V30 1784 N 175.894 1.51508 0.433938 0
M  V30 1785 C 177.142 1.6402 1.18075 0
M  V30 1786 C 177.463 0.360328 1.91642 0
M  V30 1787 O 176.733 -0.623945 1.85698 0
M  V30 1788 H 175.313 0.6045 0.43885 0
M  V30 1789 H 177.975 1.88452 0.497178 0
M  V30 1790 H 177.071 2.46949 1.90847 0
M  V30 1791 N 177.372 -0.689602 1.41712 0
M  V30 1792 C 178.597 -1.48329 1.44959 0
M  V30 1793 C 179.022 -1.8801 0.0581283 0
M  V30 1794 O 178.38 -1.55026 -0.940035 0
M  V30 1795 C 178.428 -2.71835 2.36935 0
M  V30 1796 O 177.532 -3.69549 1.8305 0
M  V30 1797 H 176.873 -0.446199 0.491734 0
M  V30 1798 H 179.403 -0.847127 1.86239 0
M  V30 1799 H 179.413 -3.20076 2.53013 0
M  V30 1800 H 178.088 -2.42291 3.38035 0
M  V30 1801 H 176.665 -3.2851 1.76452 0
M  V30 1802 N 178.85 -1.27639 -0.924453 0
M  V30 1803 C 179.76 -1.12466 -2.05885 0
M  V30 1804 C 180.776 -0.053869 -1.73917 0
M  V30 1805 O 181.952 -0.261012 -1.99702 0
M  V30 1806 C 179.017 -0.776768 -3.37886 0
M  V30 1807 C 178.078 -1.92878 -3.83532 0
M  V30 1808 C 177.311 -1.59739 -5.09234 0
M  V30 1809 O 177.534 -0.506782 -5.68144 0
M  V30 1810 O 176.468 -2.43761 -5.50331 0
M  V30 1811 H 180.294 -2.07671 -2.21599 0
M  V30 1812 H 177.879 -1.06857 -1.04413 0
M  V30 1813 H 179.761 -0.596229 -4.17161 0
M  V30 1814 H 178.436 0.145732 -3.23372 0
M  V30 1815 H 177.343 -2.1644 -3.0513 0
M  V30 1816 H 178.676 -2.8316 -4.02593 0
M  V30 1817 N 180.328 1.1314 -1.09713 0
M  V30 1818 C 181.278 2.16709 -0.708593 0
M  V30 1819 C 182.262 1.58471 0.278523 0
M  V30 1820 O 183.454 1.76779 0.088427 0
M  V30 1821 C 180.583 3.43039 -0.133923 0
M  V30 1822 C 179.669 4.08277 -1.14763 0
M  V30 1823 N 180.06 4.48637 -2.33577 0
M  V30 1824 C 178.358 4.34954 -0.986446 0
M  V30 1825 C 179.059 4.9952 -2.98085 0
M  V30 1826 N 178.035 4.94561 -2.25632 0
M  V30 1827 H 181.837 2.45672 -1.61315 0
M  V30 1828 H 179.351 1.29967 -0.973775 0
M  V30 1829 H 181.348 4.16583 0.162465 0
M  V30 1830 H 180.008 3.15549 0.765447 0
M  V30 1831 H 181.019 4.41246 -2.7115 0
M  V30 1832 H 177.696 4.17258 -0.142008 0
M  V30 1833 H 179.086 5.40521 -3.99108 0
M  V30 1834 N 181.806 0.884767 1.30421 0
M  V30 1835 C 182.738 0.308655 2.27112 0
M  V30 1836 C 183.751 -0.536655 1.53701 0
M  V30 1837 O 184.94 -0.35624 1.74909 0
M  V30 1838 C 182.04 -0.579782 3.33904 0
M  V30 1839 C 181.213 0.236417 4.36761 0
M  V30 1840 C 180.272 -0.582482 5.22966 0
M  V30 1841 O 179.298 -0.00525502 5.692 0
M  V30 1842 N 180.5 -1.89163 5.48815 0
M  V30 1843 H 183.265 1.13964 2.77186 0
M  V30 1844 H 180.826 0.747731 1.43599 0
M  V30 1845 H 182.818 -1.13366 3.88497 0
M  V30 1846 H 181.388 -1.31144 2.83761 0
M  V30 1847 H 180.608 0.97174 3.82035 0
M  V30 1848 H 181.896 0.795924 5.02536 0
M  V30 1849 H 181.294 -2.38352 5.13035 0
M  V30 1850 H 179.851 -2.39296 6.06284 0
M  V30 1851 N 183.284 -1.43765 0.645699 0
M  V30 1852 C 184.533 -2.01116 0.153412 0
M  V30 1853 C 184.846 -1.51493 -1.23731 0
M  V30 1854 O 186.052 -2.01067 -1.8244 0
M  V30 1855 C 184.508 -3.59206 0.223473 0
M  V30 1856 C 184.116 -4.17823 1.61642 0
M  V30 1857 C 185.86 -4.23972 -0.211597 0
M  V30 1858 C 183.767 -5.68183 1.64081 0
M  V30 1859 H 182.697 -0.752093 0.0535891 0
M  V30 1860 H 185.348 -1.6482 0.806633 0
M  V30 1861 H 183.73 -3.92867 -0.497118 0
M  V30 1862 H 184.904 -3.95674 2.36176 0
M  V30 1863 H 183.219 -3.65399 1.99681 0
M  V30 1864 H 185.816 -5.34275 -0.213112 0
M  V30 1865 H 186.159 -3.97352 -1.24165 0
M  V30 1866 H 186.692 -3.95166 0.456988 0
M  V30 1867 H 183.431 -5.99559 2.64971 0
M  V30 1868 H 182.951 -5.9241 0.938611 0
M  V30 1869 H 184.63 -6.32085 1.3812 0
M  V30 1870 N 184.763 -0.387143 -1.52771 0
M  V30 1871 C 185.711 0.463953 -2.27926 0
M  V30 1872 C 186.705 1.06493 -1.31741 0
M  V30 1873 O 187.911 1.00565 -1.49287 0
M  V30 1874 H 184.286 0.16837 -0.732909 0
M  V30 1875 H 186.257 -0.19141 -2.97785 0
M  V30 1876 C 185.006 1.5803 -3.09713 0
M  V30 1877 H 184.329 1.12718 -3.83581 0
M  V30 1878 H 185.769 2.15008 -3.65442 0
M  V30 1879 C 184.228 2.53509 -2.2189 0
M  V30 1880 O 184.758 3.56863 -1.84422 0
M  V30 1881 N 182.964 2.23199 -1.86093 0
M  V30 1882 H 182.511 1.39185 -2.16761 0
M  V30 1883 H 182.469 2.87333 -1.27621 0
M  V30 1884 N 186.241 1.57166 -0.116904 0
M  V30 1885 C 187.466 1.999 0.55271 0
M  V30 1886 C 187.891 0.996039 1.59564 0
M  V30 1887 O 187.249 -0.032556 1.81271 0
M  V30 1888 C 187.297 3.4152 1.15742 0
M  V30 1889 O 186.401 3.44106 2.27299 0
M  V30 1890 H 185.742 0.649447 0.138258 0
M  V30 1891 H 188.272 2.03573 -0.204759 0
M  V30 1892 H 188.282 3.79684 1.49346 0
M  V30 1893 H 186.957 4.14034 0.393493 0
M  V30 1894 H 185.534 3.17759 1.9515 0
M  V30 1895 N 187.719 -0.156864 1.56817 0
M  V30 1896 C 188.629 -1.2136 2.00771 0
M  V30 1897 C 189.645 -1.47598 0.921459 0
M  V30 1898 O 190.821 -1.59462 1.2302 0
M  V30 1899 C 187.886 -2.52943 2.37109 0
M  V30 1900 C 186.947 -2.34439 3.59634 0
M  V30 1901 C 186.18 -3.59748 3.94229 0
M  V30 1902 O 186.403 -4.65526 3.29609 0
M  V30 1903 O 185.337 -3.52998 4.8752 0
M  V30 1904 H 189.163 -0.870468 2.90958 0
M  V30 1905 H 186.748 -0.36484 1.44877 0
M  V30 1906 H 188.63 -3.30538 2.61386 0
M  V30 1907 H 187.305 -2.86806 1.5008 0
M  V30 1908 H 186.212 -1.54828 3.40557 0
M  V30 1909 H 187.545 -2.05496 4.4725 0
M  V30 1910 N 189.197 -1.51736 -0.425897 0
M  V30 1911 C 190.16 -1.73271 -1.50032 0
M  V30 1912 C 191.16 -0.602639 -1.4908 0
M  V30 1913 O 192.35 -0.87033 -1.509 0
M  V30 1914 C 189.482 -1.79969 -2.89523 0
M  V30 1915 H 190.675 -2.69172 -1.32237 0
M  V30 1916 H 188.228 -1.41899 -0.65532 0
M  V30 1917 H 188.963 -0.859241 -3.1271 0
M  V30 1918 H 188.748 -2.62109 -2.91619 0
M  V30 1919 H 190.238 -1.9843 -3.67444 0
M  V30 1920 N 190.675 0.682077 -1.42076 0
M  V30 1921 C 191.903 1.47057 -1.4554 0
M  V30 1922 C 192.318 1.8869 -0.0645779 0
M  V30 1923 O 191.675 1.57666 0.919115 0
M  V30 1924 C 191.726 2.72442 -2.37609 0
M  V30 1925 O 191.447 2.32559 -3.71279 0
M  V30 1926 C 192.948 3.66069 -2.50017 0
M  V30 1927 H 190.168 0.452737 -0.495248 0
M  V30 1928 H 192.712 0.838695 -1.8651 0
M  V30 1929 H 190.867 3.31835 -1.9991 0
M  V30 1930 H 191.281 3.13475 -4.20516 0
M  V30 1931 H 192.755 4.50792 -3.18576 0
M  V30 1932 H 193.232 4.11476 -1.53572 0
M  V30 1933 H 193.838 3.12572 -2.88407 0
M  V30 1934 N 192.153 1.28127 0.917671 0
M  V30 1935 C 193.4 1.15052 1.66641 0
M  V30 1936 C 193.728 -0.301677 1.92146 0
M  V30 1937 O 192.983 -1.23622 1.51711 0
M  V30 1938 C 193.282 1.89018 3.03327 0
M  V30 1939 C 192.948 3.38832 2.97496 0
M  V30 1940 C 191.61 3.79693 2.95613 0
M  V30 1941 C 193.962 4.34378 2.88036 0
M  V30 1942 C 191.29 5.14447 2.82066 0
M  V30 1943 C 193.642 5.69201 2.7603 0
M  V30 1944 C 192.306 6.09343 2.72502 0
M  V30 1945 H 191.576 0.421006 0.609783 0
M  V30 1946 H 194.223 1.58855 1.06945 0
M  V30 1947 H 192.528 1.37752 3.66785 0
M  V30 1948 H 194.225 1.76321 3.60156 0
M  V30 1949 H 190.815 3.06342 2.99754 0
M  V30 1950 H 194.999 4.03775 2.88581 0
M  V30 1951 H 190.255 5.44681 2.77728 0
M  V30 1952 H 194.429 6.42901 2.67678 0
M  V30 1953 H 192.056 7.13712 2.61762 0
M  V30 1954 N 193.631 -1.12557 1.10312 0
M  V30 1955 C 194.594 -2.16434 0.75424 0
M  V30 1956 C 195.594 -1.59278 -0.220685 0
M  V30 1957 O 196.784 -1.742 0.00230591 0
M  V30 1958 C 193.916 -3.40699 0.116987 0
M  V30 1959 H 195.109 -2.48811 1.67431 0
M  V30 1960 H 192.662 -1.27542 0.903475 0
M  V30 1961 H 193.397 -3.13921 -0.813877 0
M  V30 1962 H 193.182 -3.83459 0.818613 0
M  V30 1963 H 194.672 -4.17451 -0.111387 0
M  V30 1964 N 195.109 -0.891671 -1.2995 0
M  V30 1965 C 196.019 -0.367691 -2.31701 0
M  V30 1966 C 197.035 0.533486 -1.6562 0
M  V30 1967 O 198.211 0.424997 -1.96865 0
M  V30 1968 C 195.276 0.403406 -3.44345 0
M  V30 1969 C 194.337 -0.528328 -4.26037 0
M  V30 1970 C 193.57 0.206063 -5.33302 0
M  V30 1971 O 193.793 1.43119 -5.52153 0
M  V30 1972 O 192.727 -0.447281 -6.00236 0
M  V30 1973 H 196.553 -1.21163 -2.78484 0
M  V30 1974 H 194.138 -0.655725 -1.34241 0
M  V30 1975 H 196.02 0.839753 -4.12948 0
M  V30 1976 H 194.695 1.22354 -2.99685 0
M  V30 1977 H 193.602 -1.01362 -3.60106 0
M  V30 1978 H 194.935 -1.31465 -4.74318 0
M  V30 1979 N 196.587 1.43421 -0.653314 0
M  V30 1980 C 197.517 2.33487 0.0246656 0
M  V30 1981 C 198.498 1.49475 0.811863 0
M  V30 1982 O 199.683 1.78139 0.773322 0
M  V30 1983 C 196.813 3.32841 0.99166 0
M  V30 1984 C 195.767 4.26842 0.314568 0
M  V30 1985 C 195.093 5.16236 1.39302 0
M  V30 1986 C 196.393 5.16243 -0.793095 0
M  V30 1987 H 198.087 2.90427 -0.727481 0
M  V30 1988 H 195.633 1.39649 -0.351287 0
M  V30 1989 H 197.586 3.94747 1.47487 0
M  V30 1990 H 196.31 2.74158 1.77497 0
M  V30 1991 H 194.969 3.663 -0.148199 0
M  V30 1992 H 194.617 4.53891 2.16776 0
M  V30 1993 H 194.317 5.79948 0.945223 0
M  V30 1994 H 195.841 5.81015 1.87759 0
M  V30 1995 H 197.255 5.71958 -0.392039 0
M  V30 1996 H 195.652 5.88676 -1.16536 0
M  V30 1997 H 196.722 4.55927 -1.65103 0
M  V30 1998 N 198.065 0.39524 1.52563 0
M  V30 1999 C 199.015 -0.4541 2.23432 0
M  V30 2000 C 199.999 -1.02482 1.24042 0
M  V30 2001 O 201.191 -0.949938 1.49349 0
M  V30 2002 C 198.32 -1.57769 3.049 0
M  V30 2003 C 197.406 -1.01842 4.1169 0
M  V30 2004 N 197.797 -0.184613 5.05463 0
M  V30 2005 C 196.095 -1.29033 4.26927 0
M  V30 2006 C 196.796 0.125013 5.81566 0
M  V30 2007 N 195.772 -0.480498 5.41472 0
M  V30 2008 H 199.574 0.189413 2.93289 0
M  V30 2009 H 197.088 0.204877 1.61102 0
M  V30 2010 H 199.085 -2.19862 3.54212 0
M  V30 2011 H 197.745 -2.22397 2.36579 0
M  V30 2012 H 198.756 0.178602 5.17592 0
M  V30 2013 H 195.433 -1.93721 3.69836 0
M  V30 2014 H 196.823 0.800962 6.67109 0
M  V30 2015 N 199.544 -1.57102 0.125237 0
M  V30 2016 C 200.793 -1.94582 -0.531095 0
M  V30 2017 C 201.106 -1.01126 -1.6743 0
M  V30 2018 O 202.312 -1.28097 -2.39381 0
M  V30 2019 C 200.768 -3.45839 -0.996164 0
M  V30 2020 C 200.376 -4.47842 0.118926 0
M  V30 2021 C 202.12 -3.92227 -1.62352 0
M  V30 2022 C 200.027 -5.90284 -0.363192 0
M  V30 2023 H 198.957 -0.726391 -0.20217 0
M  V30 2024 H 201.608 -1.82339 0.206092 0
M  V30 2025 H 199.99 -3.53338 -1.78796 0
M  V30 2026 H 201.164 -4.52018 0.895358 0
M  V30 2027 H 199.479 -4.11243 0.653324 0
M  V30 2028 H 202.076 -4.96069 -1.99548 0
M  V30 2029 H 202.419 -3.32552 -2.50429 0
M  V30 2030 H 202.952 -3.87554 -0.897019 0
M  V30 2031 H 199.691 -6.53728 0.481679 0
M  V30 2032 H 199.211 -5.89515 -1.10597 0
M  V30 2033 H 200.89 -6.41752 -0.822377 0
M  V30 2034 N 201.022 0.148545 -1.56898 0
M  V30 2035 C 202.268 0.862694 -1.83536 0
M  V30 2036 C 202.601 1.80889 -0.706604 0
M  V30 2037 O 201.876 1.92328 0.289885 0
M  V30 2038 C 202.159 1.63853 -3.20662 0
M  V30 2039 C 202.012 0.713925 -4.44098 0
M  V30 2040 C 203.331 2.60133 -3.54991 0
M  V30 2041 H 200.45 0.312179 -0.667618 0
M  V30 2042 H 203.092 0.127953 -1.89569 0
M  V30 2043 H 201.242 2.26489 -3.1565 0
M  V30 2044 H 202.914 0.098686 -4.61194 0
M  V30 2045 H 201.157 0.0234019 -4.33794 0
M  V30 2046 H 201.828 1.29278 -5.36648 0
M  V30 2047 H 204.304 2.07616 -3.60603 0
M  V30 2048 H 203.18 3.11468 -4.51972 0
M  V30 2049 H 203.441 3.41417 -2.80868 0
M  V30 2050 N 202.5 1.5196 0.417844 0
M  V30 2051 C 203.45 1.7106 1.5074 0
M  V30 2052 C 204.434 0.564487 1.50673 0
M  V30 2053 O 205.626 0.821206 1.56797 0
M  V30 2054 C 202.755 1.85677 2.88754 0
M  V30 2055 C 201.841 3.06133 2.93502 0
M  V30 2056 N 202.232 4.28987 2.67962 0
M  V30 2057 C 200.53 3.05787 3.24669 0
M  V30 2058 C 201.231 5.10395 2.79055 0
M  V30 2059 N 200.207 4.45455 3.11561 0
M  V30 2060 H 204.009 2.63696 1.29775 0
M  V30 2061 H 201.523 1.49873 0.625436 0
M  V30 2062 H 203.52 1.97475 3.67164 0
M  V30 2063 H 202.18 0.942348 3.10725 0
M  V30 2064 H 203.191 4.57607 2.4252 0
M  V30 2065 H 199.868 2.2405 3.52289 0
M  V30 2066 H 201.258 6.18247 2.63097 0
M  V30 2067 N 203.978 -0.674533 1.42435 0
M  V30 2068 C 205.208 -1.46071 1.46105 0
M  V30 2069 C 205.616 -1.89067 0.0709605 0
M  V30 2070 O 204.959 -1.58731 -0.924677 0
M  V30 2071 C 205.021 -2.74145 2.32561 0
M  V30 2072 C 204.685 -2.53224 3.8043 0
M  V30 2073 C 205.682 -2.17809 4.72075 0
M  V30 2074 C 203.367 -2.6821 4.24698 0
M  V30 2075 C 205.361 -1.97648 6.05982 0
M  V30 2076 C 203.048 -2.47665 5.58664 0
M  V30 2077 C 204.046 -2.12437 6.49122 0
M  V30 2078 O 203.734 -1.9209 7.80613 0
M  V30 2079 H 203.466 -0.455959 0.499076 0
M  V30 2080 H 206.02 -0.836193 1.87609 0
M  V30 2081 H 204.25 -3.3908 1.85908 0
M  V30 2082 H 205.939 -3.36028 2.27683 0
M  V30 2083 H 206.705 -2.05826 4.39159 0
M  V30 2084 H 202.584 -2.94609 3.54579 0
M  V30 2085 H 206.128 -1.70075 6.7655 0
M  V30 2086 H 202.025 -2.59244 5.91154 0
M  V30 2087 H 202.793 -2.06686 7.91974 0
M  V30 2088 N 205.456 -1.28612 -0.910864 0
M  V30 2089 C 206.733 -1.06632 -1.63979 0
M  V30 2090 C 207.113 0.393351 -2.07403 0
M  V30 2091 O 206.461 1.37999 -1.82122 0
M  V30 2092 C 206.671 -2.0436 -2.8291 0
M  V30 2093 C 208.019 -2.34666 -3.5386 0
M  V30 2094 O 209.043 -2.02467 -2.93062 0
M  V30 2095 O 207.902 -2.89631 -4.63439 0
M  V30 2096 H 204.996 -0.407737 -0.7195 0
M  V30 2097 H 207.542 -1.39942 -0.959914 0
M  V30 2098 H 206.314 -3.02727 -2.47936 0
M  V30 2099 H 205.937 -1.71714 -3.58609 0
M  V30 2100 N 206.934 1.1197 -1.10907 0
M  V30 2101 C 208.159 1.87942 -0.877064 0
M  V30 2102 C 208.584 1.79341 0.567314 0
M  V30 2103 O 207.942 1.15184 1.40009 0
M  V30 2104 C 207.99 3.34926 -1.33629 0
M  V30 2105 O 207.094 4.09303 -0.504447 0
M  V30 2106 H 206.435 0.583785 -0.316371 0
M  V30 2107 H 208.965 1.4157 -1.47712 0
M  V30 2108 H 208.975 3.8577 -1.32837 0
M  V30 2109 H 207.65 3.40504 -2.3881 0
M  V30 2110 H 206.227 3.68393 -0.577993 0
M  V30 2111 N 208.412 0.89855 1.29475 0
M  V30 2112 C 209.689 0.443416 1.90508 0
M  V30 2113 C 210.069 -1.07685 1.81569 0
M  V30 2114 O 209.417 -1.9182 1.24166 0
M  V30 2115 C 209.627 0.956708 3.35631 0
M  V30 2116 C 210.975 0.999728 4.12663 0
M  V30 2117 O 211.999 0.904299 3.4453 0
M  V30 2118 O 210.858 1.14289 5.34416 0
M  V30 2119 H 207.952 0.138025 0.815401 0
M  V30 2120 H 210.498 0.98834 1.37949 0
M  V30 2121 H 209.27 2.00067 3.36287 0
M  V30 2122 H 208.893 0.391728 3.95666 0
M  V30 2123 N 209.89 -1.43072 0.660911 0
M  V30 2124 C 211.115 -2.06584 0.183805 0
M  V30 2125 C 211.54 -1.49257 -1.14472 0
M  V30 2126 O 210.898 -0.605528 -1.70889 0
M  V30 2127 C 210.946 -3.60418 0.114434 0
M  V30 2128 O 210.05 -4.01981 -0.921137 0
M  V30 2129 H 209.391 -0.656669 0.0983994 0
M  V30 2130 H 211.921 -1.83447 0.906006 0
M  V30 2131 H 211.931 -4.07946 -0.0663394 0
M  V30 2132 H 210.606 -4.01519 1.08422 0
M  V30 2133 H 209.183 -3.66029 -0.71253 0
M  V30 2134 N 211.368 -0.403325 -1.52352 0
M  V30 2135 C 212.598 0.17376 -2.05868 0
M  V30 2136 C 213.006 1.39898 -1.27378 0
M  V30 2137 O 212.349 1.80939 -0.31729 0
M  V30 2138 C 212.411 0.594756 -3.54546 0
M  V30 2139 C 212.075 -0.518926 -4.54044 0
M  V30 2140 C 213.072 -1.3807 -5.01231 0
M  V30 2141 C 210.757 -0.689961 -4.97539 0
M  V30 2142 C 212.751 -2.39852 -5.90551 0
M  V30 2143 C 210.438 -1.71109 -5.86656 0
M  V30 2144 C 211.436 -2.56378 -6.33056 0
M  V30 2145 O 211.124 -3.56743 -7.20409 0
M  V30 2146 H 210.856 0.0264951 -0.675481 0
M  V30 2147 H 213.41 -0.571179 -1.97299 0
M  V30 2148 H 211.64 1.39189 -3.60782 0
M  V30 2149 H 213.329 1.0991 -3.90736 0
M  V30 2150 H 214.095 -1.25994 -4.68349 0
M  V30 2151 H 209.974 -0.035939 -4.60986 0
M  V30 2152 H 213.518 -3.06441 -6.26689 0
M  V30 2153 H 209.415 -1.83218 -6.18952 0
M  V30 2154 H 210.183 -3.52918 -7.38506 0
M  V30 2155 N 212.846 1.57033 -0.133567 0
M  V30 2156 C 214.123 1.87256 0.56522 0
M  V30 2157 C 214.503 1.03726 1.83859 0
M  V30 2158 O 213.851 0.120247 2.28183 0
M  V30 2159 C 214.061 3.3865 0.843636 0
M  V30 2160 C 215.409 4.07574 1.19032 0
M  V30 2161 O 216.433 3.43752 0.933429 0
M  V30 2162 O 215.292 5.20259 1.67312 0
M  V30 2163 H 212.386 0.775678 0.286796 0
M  V30 2164 H 214.932 1.68855 -0.169168 0
M  V30 2165 H 213.704 3.91257 -0.0581149 0
M  V30 2166 H 213.327 3.62532 1.63268 0
M  V30 2167 N 214.325 -0.140222 1.56975 0
M  V30 2168 C 215.55 -0.870414 1.88251 0
M  V30 2169 C 215.975 -1.73637 0.723312 0
M  V30 2170 O 215.333 -1.78329 -0.32689 0
M  V30 2171 C 215.381 -1.69737 3.18154 0
M  V30 2172 O 214.485 -2.80229 3.02565 0
M  V30 2173 H 213.826 -0.242025 0.61832 0
M  V30 2174 H 216.356 -0.128999 2.04193 0
M  V30 2175 H 216.366 -2.09099 3.50345 0
M  V30 2176 H 215.041 -1.06152 4.02125 0
M  V30 2177 H 213.618 -2.44224 2.81796 0
M  V30 2178 N 215.803 -1.52179 -0.40978 0
M  V30 2179 C 216.733 -1.78435 -1.5061 0
M  V30 2180 C 217.714 -0.635295 -1.57791 0
M  V30 2181 O 218.899 -0.880823 -1.73076 0
M  V30 2182 C 216.029 -1.93444 -2.88439 0
M  V30 2183 C 214.983 -3.09038 -2.96108 0
M  V30 2184 C 214.309 -3.09268 -4.36185 0
M  V30 2185 C 215.609 -4.48508 -2.67652 0
M  V30 2186 H 217.303 -2.70237 -1.28889 0
M  V30 2187 H 214.849 -1.30036 -0.618605 0
M  V30 2188 H 216.802 -2.10394 -3.65119 0
M  V30 2189 H 215.526 -0.983129 -3.11452 0
M  V30 2190 H 214.185 -2.91837 -2.21872 0
M  V30 2191 H 213.833 -2.11861 -4.56206 0
M  V30 2192 H 213.533 -3.86907 -4.42241 0
M  V30 2193 H 215.057 -3.28348 -5.14801 0
M  V30 2194 H 216.471 -4.65918 -3.34056 0
M  V30 2195 H 214.868 -5.28059 -2.85085 0
M  V30 2196 H 215.938 -4.56649 -1.63095 0
M  V30 2197 N 217.281 0.66697 -1.42791 0
M  V30 2198 C 218.506 1.46004 -1.47301 0
M  V30 2199 C 218.931 1.87894 -0.0880317 0
M  V30 2200 O 218.289 1.56502 0.915253 0
M  V30 2201 C 218.337 2.68031 -2.41229 0
M  V30 2202 O 217.441 3.6659 -1.88906 0
M  V30 2203 H 216.782 0.43832 -0.49877 0
M  V30 2204 H 219.312 0.817391 -1.87563 0
M  V30 2205 H 219.322 3.1601 -2.58073 0
M  V30 2206 H 217.997 2.36883 -3.41847 0
M  V30 2207 H 216.574 3.25661 -1.81656 0
M  V30 2208 N 218.759 1.29093 0.90403 0
M  V30 2209 C 219.669 1.15727 2.0407 0
M  V30 2210 C 220.685 0.0815308 1.73809 0
M  V30 2211 O 221.861 0.292749 1.99261 0
M  V30 2212 C 218.926 0.830424 3.36608 0
M  V30 2213 C 217.987 1.98955 3.80415 0
M  V30 2214 C 217.22 1.6782 5.06628 0
M  V30 2215 O 217.443 0.597105 5.67266 0
M  V30 2216 O 216.377 2.52486 5.46383 0
M  V30 2217 H 220.203 2.11171 2.18267 0
M  V30 2218 H 217.788 1.08504 1.027 0
M  V30 2219 H 219.67 0.662521 4.16159 0
M  V30 2220 H 218.345 -0.0942678 3.23563 0
M  V30 2221 H 217.252 2.21267 3.01648 0
M  V30 2222 H 218.585 2.89529 3.98037 0
M  V30 2223 N 220.237 -1.11381 1.11499 0
M  V30 2224 C 221.2 -2.15622 0.777153 0
M  V30 2225 C 222.2 -1.59504 -0.203779 0
M  V30 2226 O 223.39 -1.74188 0.020782 0
M  V30 2227 C 220.522 -3.40556 0.153116 0
M  V30 2228 H 221.715 -2.47021 1.70061 0
M  V30 2229 H 219.268 -1.26577 0.916952 0
M  V30 2230 H 220.003 -3.14767 -0.780536 0
M  V30 2231 H 219.788 -3.8257 0.859238 0
M  V30 2232 H 221.278 -4.17546 -0.0671044 0
M  V30 2233 N 221.715 -0.905404 -1.28997 0
M  V30 2234 C 222.678 -0.392253 -2.25819 0
M  V30 2235 C 223.678 0.476753 -1.5357 0
M  V30 2236 O 224.868 0.280994 -1.71919 0
M  V30 2237 C 222 0.438588 -3.38067 0
M  V30 2238 H 223.193 -1.24743 -2.72725 0
M  V30 2239 H 220.746 -0.684051 -1.40536 0
M  V30 2240 H 221.481 1.31352 -2.96508 0
M  V30 2241 H 221.266 -0.184167 -3.91667 0
M  V30 2242 H 222.756 0.78873 -4.10084 0
M  V30 2243 N 223.193 1.4272 -0.668489 0
M  V30 2244 C 224.103 2.34596 0.0139753 0
M  V30 2245 C 225.119 1.5474 0.795703 0
M  V30 2246 O 226.295 1.87334 0.739466 0
M  V30 2247 C 223.36 3.33202 0.957982 0
M  V30 2248 C 222.421 4.28957 0.17149 0
M  V30 2249 C 221.654 5.22853 1.07053 0
M  V30 2250 O 221.877 5.21531 2.31001 0
M  V30 2251 O 220.811 5.9952 0.534727 0
M  V30 2252 H 224.637 2.9448 -0.742661 0
M  V30 2253 H 222.222 1.43117 -0.428705 0
M  V30 2254 H 224.104 3.93796 1.50008 0
M  V30 2255 H 222.779 2.758 1.69458 0
M  V30 2256 H 221.686 3.71796 -0.414558 0
M  V30 2257 H 223.019 4.89383 -0.52586 0
M  V30 2258 N 224.671 0.411399 1.52136 0
M  V30 2259 C 226.087 0.0623865 1.59478 0
M  V30 2260 C 226.287 -1.42554 1.4241 0
M  V30 2261 O 225.343 -2.19263 1.2522 0
M  V30 2262 C 226.656 0.559331 2.95452 0
M  V30 2263 C 228.204 0.517503 3.08692 0
M  V30 2264 C 228.679 0.990994 4.4715 0
M  V30 2265 N 230.17 0.947908 4.53397 0
M  V30 2266 C 230.905 1.28544 5.58806 0
M  V30 2267 N 230.401 1.69454 6.71757 0
M  V30 2268 N 232.194 1.20526 5.49026 0
M  V30 2269 H 224.345 1.37982 1.61477 0
M  V30 2270 H 226.608 0.566977 0.759764 0
M  V30 2271 H 226.314 1.59938 3.1323 0
M  V30 2272 H 226.188 -0.0298014 3.77188 0
M  V30 2273 H 228.575 -0.513505 2.90598 0
M  V30 2274 H 228.656 1.14272 2.28857 0
M  V30 2275 H 228.3 2.02034 4.65988 0
M  V30 2276 H 228.23 0.34257 5.25485 0
M  V30 2277 H 230.721 0.647157 3.72317 0
M  V30 2278 H 231.034 1.93513 7.48179 0
M  V30 2279 H 229.379 1.73359 6.73032 0
M  V30 2280 H 232.57 0.884505 4.59667 0
M  V30 2281 H 232.743 1.47161 6.31069 0
M  V30 2282 N 226.149 -1.5696 0.141893 0
M  V30 2283 C 227.56 -1.82797 -0.379776 0
M  V30 2284 C 227.911 -1.06033 -1.6508 0
M  V30 2285 O 227.036 -0.304011 -2.14254 0
M  V30 2286 C 227.631 -3.31578 -0.695802 0
M  V30 2287 C 226.19 -3.58014 -1.16201 0
M  V30 2288 C 225.337 -2.76699 -0.182455 0
M  V30 2289 H 228.288 -1.54406 0.366675 0
M  V30 2290 H 228.309 -3.47454 -1.55099 0
M  V30 2291 H 227.821 -3.87421 0.229449 0
M  V30 2292 H 225.922 -3.07553 -2.10338 0
M  V30 2293 H 226.035 -4.66501 -1.09151 0
M  V30 2294 H 224.399 -2.45618 -0.674072 0
M  V30 2295 H 225.182 -3.35311 0.736297 0
M  V30 2296 N 227.627 0.131896 -1.57047 0
M  V30 2297 C 228.559 1.1878 -1.9602 0
M  V30 2298 C 229.572 1.38363 -0.857875 0
M  V30 2299 O 230.761 1.37666 -1.13623 0
M  V30 2300 C 227.861 2.55008 -2.23213 0
M  V30 2301 C 227.034 2.56201 -3.54513 0
M  V30 2302 C 226.093 3.7408 -3.70069 0
M  V30 2303 O 225.119 3.58258 -4.42312 0
M  V30 2304 N 226.321 4.92137 -3.07866 0
M  V30 2305 H 229.086 0.85639 -2.87204 0
M  V30 2306 H 226.647 0.321309 -1.5868 0
M  V30 2307 H 228.639 3.32404 -2.30846 0
M  V30 2308 H 227.209 2.80382 -1.3822 0
M  V30 2309 H 226.429 1.64613 -3.58185 0
M  V30 2310 H 227.717 2.54043 -4.4084 0
M  V30 2311 H 227.115 5.07895 -2.49116 0
M  V30 2312 H 225.672 5.67254 -3.21039 0
M  V30 2313 N 229.106 1.52395 0.401703 0
M  V30 2314 C 230.354 1.66488 1.14569 0
M  V30 2315 C 230.675 0.400897 1.90835 0
M  V30 2316 O 229.945 -0.584415 1.8698 0
M  V30 2317 H 228.525 0.613672 0.425929 0
M  V30 2318 H 231.187 1.89464 0.457093 0
M  V30 2319 H 230.283 2.50942 1.85566 0
M  V30 2320 N 230.584 -0.659388 1.43143 0
M  V30 2321 C 231.514 -1.78422 1.50625 0
M  V30 2322 C 232.495 -1.66216 0.361443 0
M  V30 2323 O 233.68 -1.85404 0.577834 0
M  V30 2324 C 230.81 -3.16815 1.42287 0
M  V30 2325 C 229.764 -3.43777 2.54954 0
M  V30 2326 C 229.09 -4.81905 2.31671 0
M  V30 2327 C 230.39 -3.39134 3.97222 0
M  V30 2328 H 232.084 -1.72417 2.44771 0
M  V30 2329 H 229.63 -0.828084 1.17808 0
M  V30 2330 H 231.583 -3.95253 1.46127 0
M  V30 2331 H 230.307 -3.23534 0.446435 0
M  V30 2332 H 228.966 -2.67707 2.50457 0
M  V30 2333 H 228.614 -4.85294 1.32284 0
M  V30 2334 H 228.314 -5.00906 3.07192 0
M  V30 2335 H 229.838 -5.62609 2.37284 0
M  V30 2336 H 231.252 -4.07518 4.03239 0
M  V30 2337 H 229.649 -3.69671 4.72719 0
M  V30 2338 H 230.719 -2.37426 4.22797 0
M  V30 2339 N 232.062 -1.29571 -0.897171 0
M  V30 2340 C 233.025 -1.14913 -1.98312 0
M  V30 2341 C 234.025 -0.0838629 -1.60581 0
M  V30 2342 O 235.215 -0.331006 -1.71026 0
M  V30 2343 C 232.347 -0.757835 -3.3237 0
M  V30 2344 H 233.54 -2.11377 -2.12743 0
M  V30 2345 H 231.093 -1.12793 -1.08201 0
M  V30 2346 H 231.828 0.206837 -3.2364 0
M  V30 2347 H 231.613 -1.52755 -3.61121 0
M  V30 2348 H 233.103 -0.678408 -4.12053 0
M  V30 2349 N 233.54 1.10788 -1.12088 0
M  V30 2350 C 234.786 1.82942 -0.875226 0
M  V30 2351 C 235.119 1.84779 0.597538 0
M  V30 2352 O 234.394 1.30578 1.44152 0
M  V30 2353 C 234.677 3.29789 -1.44606 0
M  V30 2354 C 234.53 3.36307 -2.98693 0
M  V30 2355 C 235.849 4.26064 -1.10261 0
M  V30 2356 H 232.968 0.664195 -0.319397 0
M  V30 2357 H 235.61 1.29867 -1.38689 0
M  V30 2358 H 233.76 3.75118 -1.01089 0
M  V30 2359 H 235.432 2.99487 -3.50864 0
M  V30 2360 H 233.675 2.76318 -3.34411 0
M  V30 2361 H 234.346 4.39694 -3.33726 0
M  V30 2362 H 236.822 3.88951 -1.4784 0
M  V30 2363 H 235.698 5.27183 -1.52869 0
M  V30 2364 H 235.959 4.42098 -0.0142953 0
M  V30 2365 N 235.018 0.912232 1.28515 0
M  V30 2366 C 235.948 0.416403 2.29757 0
M  V30 2367 C 236.929 -0.515194 1.6211 0
M  V30 2368 O 238.114 -0.423253 1.89532 0
M  V30 2369 C 235.244 -0.34572 3.45575 0
M  V30 2370 C 234.198 0.496599 4.25109 0
M  V30 2371 C 233.524 -0.393771 5.33248 0
M  V30 2372 C 234.824 1.75307 4.92001 0
M  V30 2373 H 236.518 1.26249 2.7148 0
M  V30 2374 H 234.064 0.608515 1.30511 0
M  V30 2375 H 236.017 -0.703422 4.15488 0
M  V30 2376 H 234.741 -1.2257 3.02728 0
M  V30 2377 H 233.4 0.8368 3.56922 0
M  V30 2378 H 233.048 -1.27225 4.86644 0
M  V30 2379 H 232.748 0.166209 5.87365 0
M  V30 2380 H 234.272 -0.747389 6.06009 0
M  V30 2381 H 235.686 1.46437 5.54283 0
M  V30 2382 H 234.083 2.25534 5.56106 0
M  V30 2383 H 235.153 2.48176 4.16577 0
M  V30 2384 N 236.496 -1.42363 0.676048 0
M  V30 2385 C 237.744 -2.01123 0.198437 0
M  V30 2386 C 238.065 -1.53731 -1.19966 0
M  V30 2387 O 237.335 -0.759518 -1.80577 0
M  V30 2388 H 235.915 -0.743678 0.0703721 0
M  V30 2389 H 238.577 -1.74263 0.872837 0
M  V30 2390 H 237.673 -3.11454 0.200686 0
M  V30 2391 N 237.974 -0.419461 -1.51915 0
M  V30 2392 C 239.223 0.154346 -2.01109 0
M  V30 2393 C 239.536 1.45338 -1.30905 0
M  V30 2394 O 240.742 2.10906 -1.7097 0
M  V30 2395 C 239.198 0.325615 -3.58424 0
M  V30 2396 C 238.806 -0.961934 -4.37551 0
M  V30 2397 C 240.55 0.854155 -4.15818 0
M  V30 2398 C 238.457 -0.757287 -5.86531 0
M  V30 2399 H 237.387 0.0614563 -0.751491 0
M  V30 2400 H 240.038 -0.54649 -1.75173 0
M  V30 2401 H 238.42 1.08903 -3.80731 0
M  V30 2402 H 239.594 -1.7323 -4.26999 0
M  V30 2403 H 237.909 -1.41766 -3.91524 0
M  V30 2404 H 240.506 1.02346 -5.24814 0
M  V30 2405 H 240.849 1.83172 -3.73837 0
M  V30 2406 H 241.382 0.149528 -3.97519 0
M  V30 2407 H 238.121 -1.70671 -6.32892 0
M  V30 2408 H 237.641 -0.0264061 -5.99794 0
M  V30 2409 H 239.32 -0.403482 -6.45741 0
M  V30 2410 N 239.452 1.56882 -0.150215 0
M  V30 2411 C 240.382 2.19935 0.784284 0
M  V30 2412 C 241.363 1.14854 1.25469 0
M  V30 2413 O 242.548 1.43209 1.31168 0
M  V30 2414 C 239.678 2.82349 2.02229 0
M  V30 2415 C 238.632 3.93285 1.68853 0
M  V30 2416 C 237.958 4.42649 2.99944 0
M  V30 2417 C 239.258 5.13904 0.932714 0
M  V30 2418 H 240.952 2.9828 0.258781 0
M  V30 2419 H 238.498 1.43473 0.123029 0
M  V30 2420 H 240.451 3.25126 2.68088 0
M  V30 2421 H 239.175 2.0134 2.57157 0
M  V30 2422 H 237.834 3.5113 1.05371 0
M  V30 2423 H 237.482 3.58458 3.52869 0
M  V30 2424 H 237.182 5.17476 2.78374 0
M  V30 2425 H 238.706 4.88099 3.66868 0
M  V30 2426 H 240.12 5.53506 1.49345 0
M  V30 2427 H 238.517 5.94515 0.81684 0
M  V30 2428 H 239.587 4.84842 -0.0749568 0
M  V30 2429 N 240.93 -0.123565 1.57115 0
M  V30 2430 C 242.179 -0.830704 1.83799 0
M  V30 2431 C 242.492 -1.81259 0.735158 0
M  V30 2432 O 243.698 -2.56558 0.888278 0
M  V30 2433 C 242.154 -1.52802 3.25852 0
M  V30 2434 C 241.762 -0.587356 4.44133 0
M  V30 2435 C 243.506 -2.22056 3.61789 0
M  V30 2436 C 241.413 -1.28764 5.77212 0
M  V30 2437 H 240.343 -0.313967 0.685522 0
M  V30 2438 H 242.994 -0.0834359 1.8331 0
M  V30 2439 H 241.376 -2.32175 3.20797 0
M  V30 2440 H 242.55 0.172829 4.60476 0
M  V30 2441 H 240.865 -0.00201892 4.164 0
M  V30 2442 H 243.462 -2.75131 4.58483 0
M  V30 2443 H 243.805 -2.99644 2.88997 0
M  V30 2444 H 244.338 -1.49576 3.68608 0
M  V30 2445 H 241.077 -0.55314 6.53162 0
M  V30 2446 H 240.597 -2.01995 5.64764 0
M  V30 2447 H 242.276 -1.8221 6.20813 0
M  V30 2448 N 242.408 -1.52605 -0.393616 0
M  V30 2449 C 243.318 -1.79971 -1.50492 0
M  V30 2450 C 244.334 -0.686181 -1.59899 0
M  V30 2451 O 245.51 -0.973274 -1.76322 0
M  V30 2452 C 242.575 -1.95867 -2.86072 0
M  V30 2453 C 241.636 -3.19781 -2.86424 0
M  V30 2454 C 240.869 -3.34909 -4.15538 0
M  V30 2455 O 241.092 -2.54948 -5.10253 0
M  V30 2456 O 240.026 -4.28141 -4.23059 0
M  V30 2457 H 243.852 -2.74328 -1.30299 0
M  V30 2458 H 241.437 -1.3764 -0.581005 0
M  V30 2459 H 243.319 -2.08056 -3.66457 0
M  V30 2460 H 241.994 -1.04699 -3.063 0
M  V30 2461 H 240.901 -3.13038 -2.04837 0
M  V30 2462 H 242.234 -4.1078 -2.71147 0
M  V30 2463 N 243.887 0.651787 -1.4349 0
M  V30 2464 C 245.133 1.41376 -1.45398 0
M  V30 2465 C 245.466 1.94041 -0.0784823 0
M  V30 2466 O 244.741 1.72379 0.900878 0
M  V30 2467 C 245.024 2.59414 -2.49752 0
M  V30 2468 C 244.877 2.12232 -3.96582 0
M  V30 2469 C 246.196 3.61626 -2.50827 0
M  V30 2470 H 243.315 0.512719 -0.529422 0
M  V30 2471 H 245.957 0.738796 -1.75048 0
M  V30 2472 H 244.107 3.16997 -2.246 0
M  V30 2473 H 245.779 1.59639 -4.32797 0
M  V30 2474 H 244.022 1.43592 -4.09346 0
M  V30 2475 H 244.693 2.9712 -4.65214 0
M  V30 2476 H 247.169 3.13805 -2.7325 0
M  V30 2477 H 246.045 4.41766 -3.25783 0
M  V30 2478 H 246.306 4.14314 -1.5426 0
M  V30 2479 N 245.365 1.30045 0.890287 0
M  V30 2480 C 246.613 1.18327 1.63839 0
M  V30 2481 C 246.934 -0.263455 1.93212 0
M  V30 2482 O 246.204 -1.17856 1.56482 0
M  V30 2483 H 244.784 0.434933 0.607324 0
M  V30 2484 H 247.446 1.631 1.06698 0
M  V30 2485 H 246.542 1.74024 2.59079 0
M  V30 2486 N 246.843 -1.10192 1.12674 0
M  V30 2487 C 247.753 -2.20172 0.810026 0
M  V30 2488 C 248.769 -1.72821 -0.202188 0
M  V30 2489 O 249.945 -2.01369 -0.0351691 0
M  V30 2490 C 247.01 -3.45631 0.272007 0
M  V30 2491 C 246.071 -4.07704 1.34447 0
M  V30 2492 C 245.304 -5.27175 0.832029 0
M  V30 2493 O 245.527 -5.69425 -0.333284 0
M  V30 2494 O 244.461 -5.80168 1.60277 0
M  V30 2495 H 248.287 -2.49701 1.72867 0
M  V30 2496 H 245.872 -1.18977 0.903597 0
M  V30 2497 H 247.754 -4.21394 -0.0230219 0
M  V30 2498 H 246.429 -3.17723 -0.619164 0
M  V30 2499 H 245.336 -3.33614 1.6927 0
M  V30 2500 H 246.669 -4.3982 2.2095 0
M  V30 2501 N 248.321 -0.919034 -1.28029 0
M  V30 2502 C 249.549 -0.570971 -1.98866 0
M  V30 2503 C 249.964 0.848996 -1.68634 0
M  V30 2504 O 249.321 1.56307 -0.942036 0
M  V30 2505 C 249.372 -0.776876 -3.53054 0
M  V30 2506 O 249.093 -2.14097 -3.82222 0
M  V30 2507 C 250.594 -0.436356 -4.41147 0
M  V30 2508 H 247.814 -0.217175 -0.634883 0
M  V30 2509 H 250.358 -1.23368 -1.63097 0
M  V30 2510 H 248.513 -0.161085 -3.87065 0
M  V30 2511 H 248.927 -2.18455 -4.76841 0
M  V30 2512 H 250.401 -0.63117 -5.4838 0
M  V30 2513 H 250.878 0.627686 -4.34692 0
M  V30 2514 H 251.484 -1.02991 -4.12641 0
M  V30 2515 N 249.799 1.42003 -0.683588 0
M  V30 2516 C 250.746 2.30798 -0.0107309 0
M  V30 2517 C 251.716 1.4645 0.783688 0
M  V30 2518 O 252.901 1.75263 0.754156 0
M  V30 2519 C 250.041 3.3238 0.928306 0
M  V30 2520 C 249.154 4.31814 0.126776 0
M  V30 2521 C 248.289 5.20468 1.06236 0
M  V30 2522 C 247.328 6.11577 0.253035 0
M  V30 2523 N 246.465 6.92754 1.14179 0
M  V30 2524 H 251.305 2.8778 -0.773727 0
M  V30 2525 H 248.842 1.41745 -0.393283 0
M  V30 2526 H 250.8 3.89813 1.48666 0
M  V30 2527 H 249.43 2.76976 1.65783 0
M  V30 2528 H 248.482 3.76427 -0.54833 0
M  V30 2529 H 249.794 4.96276 -0.501192 0
M  V30 2530 H 248.948 5.82677 1.69035 0
M  V30 2531 H 247.687 4.56204 1.7242 0
M  V30 2532 H 246.692 5.48428 -0.388108 0
M  V30 2533 H 247.917 6.77892 -0.404839 0
M  V30 2534 H 245.863 6.3111 1.78987 0
M  V30 2535 H 245.78 7.53855 0.569111 0
M  V30 2536 H 247.048 7.59441 1.75697 0
M  V30 2537 N 251.277 0.427512 1.51691 0
M  V30 2538 C 252.225 -0.403359 2.29076 0
M  V30 2539 C 253.219 -1.02962 1.34518 0
M  V30 2540 O 254.425 -0.965715 1.51901 0
M  V30 2541 H 250.8 -0.148879 0.737115 0
M  V30 2542 H 252.771 0.270295 2.97173 0
M  V30 2543 C 251.52 -1.49763 3.13794 0
M  V30 2544 H 250.843 -1.02508 3.86435 0
M  V30 2545 H 252.283 -2.05244 3.71014 0
M  V30 2546 C 250.742 -2.47536 2.28533 0
M  V30 2547 O 251.272 -3.51848 1.93819 0
M  V30 2548 N 249.478 -2.18187 1.91945 0
M  V30 2549 H 249.025 -1.33389 2.20375 0
M  V30 2550 H 248.983 -2.83848 1.35195 0
M  V30 2551 N 252.755 -1.56801 0.158532 0
M  V30 2552 C 254.004 -1.95665 -0.489702 0
M  V30 2553 C 254.317 -1.04654 -1.65248 0
M  V30 2554 O 255.523 -1.33146 -2.3661 0
M  V30 2555 C 253.979 -3.47874 -0.922582 0
M  V30 2556 C 253.587 -4.47489 0.213893 0
M  V30 2557 C 255.331 -3.95583 -1.53996 0
M  V30 2558 C 253.238 -5.90921 -0.237903 0
M  V30 2559 H 252.168 -0.730516 -0.186716 0
M  V30 2560 H 254.819 -1.81861 0.244722 0
M  V30 2561 H 253.201 -3.57051 -1.71261 0
M  V30 2562 H 254.375 -4.50017 0.991036 0
M  V30 2563 H 252.69 -4.09764 0.740407 0
M  V30 2564 H 255.287 -5.0019 -1.8898 0
M  V30 2565 H 255.63 -3.37789 -2.43319 0
M  V30 2566 H 256.163 -3.8937 -0.814611 0
M  V30 2567 H 252.902 -6.52559 0.620236 0
M  V30 2568 H 252.422 -5.91729 -0.980676 0
M  V30 2569 H 254.101 -6.43352 -0.686067 0
M  V30 2570 N 254.233 0.115231 -1.57178 0
M  V30 2571 C 255.196 1.12526 -1.99676 0
M  V30 2572 C 256.196 1.34095 -0.88742 0
M  V30 2573 O 257.386 1.30548 -1.15337 0
M  V30 2574 C 254.518 2.4789 -2.34015 0
M  V30 2575 H 255.711 0.759912 -2.90113 0
M  V30 2576 H 253.264 0.359648 -1.52106 0
M  V30 2577 H 253.999 2.89339 -1.4647 0
M  V30 2578 H 253.784 2.33588 -3.14927 0
M  V30 2579 H 255.274 3.20575 -2.67622 0
M  V30 2580 N 255.711 1.52812 0.385517 0
M  V30 2581 C 256.941 1.71658 1.14966 0
M  V30 2582 C 257.349 0.436253 1.84102 0
M  V30 2583 O 256.692 -0.599313 1.73649 0
M  V30 2584 C 256.754 2.81309 2.23843 0
M  V30 2585 C 256.418 4.22313 1.74644 0
M  V30 2586 C 257.415 5.05352 1.22129 0
M  V30 2587 C 255.1 4.68648 1.80761 0
M  V30 2588 C 257.094 6.32807 0.763838 0
M  V30 2589 C 254.781 5.96086 1.34627 0
M  V30 2590 C 255.779 6.77996 0.825264 0
M  V30 2591 O 255.467 8.03045 0.370669 0
M  V30 2592 H 255.199 0.578022 0.350523 0
M  V30 2593 H 257.753 2.00263 0.456509 0
M  V30 2594 H 255.983 2.48133 2.96592 0
M  V30 2595 H 257.672 2.88524 2.85497 0
M  V30 2596 H 258.438 4.70736 1.16758 0
M  V30 2597 H 254.317 4.04979 2.20256 0
M  V30 2598 H 257.861 6.96689 0.356494 0
M  V30 2599 H 253.758 6.30205 1.39686 0
M  V30 2600 H 254.526 8.17021 0.491829 0
M  V30 2601 N 257.189 -0.644168 1.43834 0
M  V30 2602 C 258.099 -1.78563 1.52159 0
M  V30 2603 C 259.115 -1.69147 0.408069 0
M  V30 2604 O 260.291 -1.90156 0.663524 0
M  V30 2605 C 257.356 -3.14888 1.45073 0
M  V30 2606 C 256.417 -3.36034 2.6717 0
M  V30 2607 C 255.65 -4.65855 2.60413 0
M  V30 2608 O 255.873 -5.45805 1.65689 0
M  V30 2609 O 254.807 -4.88918 3.5106 0
M  V30 2610 H 258.633 -1.74494 2.48567 0
M  V30 2611 H 256.218 -0.80378 1.25935 0
M  V30 2612 H 258.1 -3.96179 1.43597 0
M  V30 2613 H 256.775 -3.19528 0.518037 0
M  V30 2614 H 255.682 -2.54472 2.74217 0
M  V30 2615 H 257.015 -3.36247 3.59442 0
M  V30 2616 N 258.668 -1.30515 -0.883378 0
M  V30 2617 C 259.618 -1.13641 -1.9766 0
M  V30 2618 C 260.602 -0.0511314 -1.60819 0
M  V30 2619 O 261.794 -0.274623 -1.74857 0
M  V30 2620 C 258.923 -0.831976 -3.33066 0
M  V30 2621 C 258.009 -1.95759 -3.76217 0
M  V30 2622 N 258.4 -3.20313 -3.9145 0
M  V30 2623 C 256.698 -1.85431 -4.05625 0
M  V30 2624 C 257.399 -3.93856 -4.2808 0
M  V30 2625 N 256.375 -3.21919 -4.38029 0
M  V30 2626 H 260.177 -2.08106 -2.07531 0
M  V30 2627 H 257.691 -1.21877 -1.0733 0
M  V30 2628 H 259.688 -0.692102 -4.11115 0
M  V30 2629 H 258.348 0.104588 -3.24532 0
M  V30 2630 H 259.359 -3.55583 -3.76538 0
M  V30 2631 H 256.036 -0.991531 -4.05555 0
M  V30 2632 H 257.426 -5.01125 -4.47575 0
M  V30 2633 N 260.146 1.09593 -1.13257 0
M  V30 2634 C 261.395 1.81105 -0.887917 0
M  V30 2635 C 261.708 1.86563 0.587672 0
M  V30 2636 O 262.914 2.54367 0.949204 0
M  V30 2637 C 261.37 3.25338 -1.53895 0
M  V30 2638 C 260.978 3.28151 -3.04994 0
M  V30 2639 C 262.722 4.01617 -1.37492 0
M  V30 2640 C 260.629 4.66897 -3.6299 0
M  V30 2641 H 259.559 0.678661 -0.328534 0
M  V30 2642 H 262.21 1.23183 -1.36008 0
M  V30 2643 H 260.592 3.8331 -0.994446 0
M  V30 2644 H 261.766 2.79953 -3.66009 0
M  V30 2645 H 260.081 2.65361 -3.20893 0
M  V30 2646 H 262.678 5.04119 -1.78235 0
M  V30 2647 H 263.021 4.15072 -0.31957 0
M  V30 2648 H 263.554 3.50082 -1.88912 0
M  V30 2649 H 260.293 4.58643 -4.68323 0
M  V30 2650 H 259.813 5.15426 -3.06752 0
M  V30 2651 H 261.492 5.3587 -3.62563 0
M  V30 2652 N 261.624 0.925811 1.2754 0
M  V30 2653 C 262.554 0.440748 2.29303 0
M  V30 2654 C 263.535 -0.497971 1.62648 0
M  V30 2655 O 264.72 -0.403126 1.8997 0
M  V30 2656 C 261.85 -0.309048 3.45922 0
M  V30 2657 C 260.804 0.54166 4.24559 0
M  V30 2658 C 260.13 -0.337191 5.33636 0
M  V30 2659 C 261.43 1.80516 4.90114 0
M  V30 2660 H 263.124 1.29121 2.70126 0
M  V30 2661 H 260.67 0.622323 1.29858 0
M  V30 2662 H 262.623 -0.659315 4.1621 0
M  V30 2663 H 261.347 -1.19352 3.04011 0
M  V30 2664 H 260.006 0.874609 3.56014 0
M  V30 2665 H 259.654 -1.22056 4.87966 0
M  V30 2666 H 259.354 0.228497 5.87156 0
M  V30 2667 H 260.878 -0.683072 6.06767 0
M  V30 2668 H 262.292 1.52307 5.52698 0
M  V30 2669 H 260.689 2.3142 5.53683 0
M  V30 2670 H 261.759 2.52581 4.13921 0
M  V30 2671 N 263.102 -1.41638 0.69111 0
M  V30 2672 C 264.327 -2.06148 0.227583 0
M  V30 2673 C 264.752 -1.51652 -1.11281 0
M  V30 2674 O 264.11 -0.64164 -1.69566 0
M  V30 2675 C 264.158 -3.60095 0.190858 0
M  V30 2676 O 263.262 -4.03845 -0.835664 0
M  V30 2677 H 262.603 -0.654434 0.112306 0
M  V30 2678 H 265.133 -1.81484 0.944714 0
M  V30 2679 H 265.143 -4.07995 0.020207 0
M  V30 2680 H 263.818 -3.99129 1.16915 0
M  V30 2681 H 262.395 -3.67458 -0.63473 0
M  V30 2682 N 264.58 -0.43555 -1.51462 0
M  V30 2683 C 265.53 0.394701 -2.24558 0
M  V30 2684 C 266.514 0.99157 -1.26715 0
M  V30 2685 O 267.706 0.910007 -1.51815 0
M  V30 2686 C 264.835 1.4963 -3.08975 0
M  V30 2687 C 263.921 0.908912 -4.14246 0
M  V30 2688 N 264.312 0.0505335 -5.05775 0
M  V30 2689 C 262.61 1.17668 -4.30198 0
M  V30 2690 C 263.311 -0.279161 -5.8103 0
M  V30 2691 N 262.287 0.336767 -5.42556 0
M  V30 2692 H 266.089 -0.267106 -2.92684 0
M  V30 2693 H 263.603 -0.247518 -1.60503 0
M  V30 2694 H 265.6 2.10394 -3.59917 0
M  V30 2695 H 264.26 2.16046 -2.42393 0
M  V30 2696 H 265.271 -0.31577 -5.16936 0
M  V30 2697 H 261.948 1.83847 -3.74842 0
M  V30 2698 H 263.338 -0.977553 -6.64751 0
M  V30 2699 N 266.058 1.56714 -0.166846 0
M  V30 2700 C 266.988 2.20754 0.760913 0
M  V30 2701 C 267.969 1.16178 1.24244 0
M  V30 2702 O 269.154 1.44592 1.29641 0
M  V30 2703 C 266.284 2.84478 1.99223 0
M  V30 2704 C 265.238 3.95053 1.64672 0
M  V30 2705 C 264.564 4.45805 2.95232 0
M  V30 2706 C 265.864 5.14865 0.878155 0
M  V30 2707 H 267.558 2.98537 0.22713 0
M  V30 2708 H 265.104 1.43596 0.107805 0
M  V30 2709 H 267.057 3.27951 2.64624 0
M  V30 2710 H 265.781 2.04056 2.55007 0
M  V30 2711 H 264.44 3.52228 1.01641 0
M  V30 2712 H 264.088 3.62181 3.49047 0
M  V30 2713 H 263.788 5.204 2.7287 0
M  V30 2714 H 265.312 4.91962 3.6167 0
M  V30 2715 H 266.726 5.55059 1.43466 0
M  V30 2716 H 265.123 5.95348 0.753738 0
M  V30 2717 H 266.193 4.84735 -0.126377 0
M  V30 2718 N 267.536 -0.106894 1.57237 0
M  V30 2719 C 268.486 -1.1366 1.9765 0
M  V30 2720 C 269.47 -1.36416 0.853203 0
M  V30 2721 O 270.662 -1.37305 1.11697 0
M  V30 2722 C 267.791 -2.46 2.39455 0
M  V30 2723 C 266.877 -2.26668 3.58445 0
M  V30 2724 N 267.268 -1.77176 4.73754 0
M  V30 2725 C 265.566 -2.57279 3.64312 0
M  V30 2726 C 266.267 -1.71836 5.5574 0
M  V30 2727 N 265.243 -2.16623 4.98573 0
M  V30 2728 H 269.045 -0.74669 2.84256 0
M  V30 2729 H 266.559 -0.314483 1.59326 0
M  V30 2730 H 268.556 -3.2049 2.6663 0
M  V30 2731 H 267.216 -2.85738 1.54219 0
M  V30 2732 H 268.227 -1.46545 4.96734 0
M  V30 2733 H 264.904 -3.00622 2.89711 0
M  V30 2734 H 266.294 -1.34723 6.58255 0
M  V30 2735 N 269.014 -1.53014 -0.377408 0
M  V30 2736 C 269.924 -1.81557 -1.48574 0
M  V30 2737 C 270.94 -0.703102 -1.59162 0
M  V30 2738 O 272.116 -0.99192 -1.75279 0
M  V30 2739 C 269.181 -1.9889 -2.83978 0
M  V30 2740 C 268.242 -3.22801 -2.83016 0
M  V30 2741 C 267.475 -3.39298 -4.11962 0
M  V30 2742 O 267.698 -2.60345 -5.0752 0
M  V30 2743 O 266.632 -4.32604 -4.18494 0
M  V30 2744 H 270.458 -2.75695 -1.27382 0
M  V30 2745 H 268.043 -1.38248 -0.566373 0
M  V30 2746 H 269.925 -2.11931 -3.6423 0
M  V30 2747 H 268.6 -1.07942 -3.05172 0
M  V30 2748 H 267.507 -3.15193 -2.01505 0
M  V30 2749 H 268.84 -4.13632 -2.66775 0
M  V30 2750 N 270.492 0.636531 -1.44174 0
M  V30 2751 C 271.738 1.39826 -1.4689 0
M  V30 2752 C 272.071 1.93947 -0.0990585 0
M  V30 2753 O 271.346 1.73325 0.882544 0
M  V30 2754 C 271.629 2.56751 -2.5249 0
M  V30 2755 C 271.482 2.08014 -3.98811 0
M  V30 2756 C 272.801 3.58946 -2.54649 0
M  V30 2757 H 269.92 0.507075 -0.53483 0
M  V30 2758 H 272.562 0.720188 -1.75822 0
M  V30 2759 H 270.712 3.14597 -2.2795 0
M  V30 2760 H 272.384 1.5504 -4.34466 0
M  V30 2761 H 270.627 1.39242 -4.10846 0
M  V30 2762 H 271.298 2.92169 -4.68339 0
M  V30 2763 H 273.774 3.1089 -2.76563 0
M  V30 2764 H 272.65 4.38286 -3.3045 0
M  V30 2765 H 272.911 4.12655 -1.58646 0
M  V30 2766 N 271.97 1.30982 0.876444 0
M  V30 2767 C 273.386 1.09498 1.16113 0
M  V30 2768 C 273.586 -0.13875 2.01022 0
M  V30 2769 O 272.642 -0.829935 2.38471 0
M  V30 2770 C 273.955 2.36308 1.85954 0
M  V30 2771 C 275.503 2.41856 1.98683 0
M  V30 2772 C 275.978 3.6853 2.71937 0
M  V30 2773 N 277.469 3.69387 2.79477 0
M  V30 2774 C 278.204 4.64096 3.36753 0
M  V30 2775 N 277.7 5.69155 3.95012 0
M  V30 2776 N 279.493 4.51626 3.3465 0
M  V30 2777 H 271.644 2.10118 0.310494 0
M  V30 2778 H 273.907 0.926634 0.200131 0
M  V30 2779 H 273.613 3.26388 1.31011 0
M  V30 2780 H 273.487 2.4561 2.86278 0
M  V30 2781 H 275.874 1.52249 2.52793 0
M  V30 2782 H 275.955 2.36523 0.9742 0
M  V30 2783 H 275.599 4.58499 2.18496 0
M  V30 2784 H 275.529 3.71127 3.73593 0
M  V30 2785 H 278.02 2.93438 2.38123 0
M  V30 2786 H 278.333 6.3751 4.36808 0
M  V30 2787 H 276.678 5.72937 3.93406 0
M  V30 2788 H 279.869 3.68728 2.8837 0
M  V30 2789 H 280.042 5.25614 3.7899 0
M  V30 2790 N 273.449 -1.08991 1.13837 0
M  V30 2791 C 274.399 -2.1393 0.788535 0
M  V30 2792 C 275.383 -1.59396 -0.219516 0
M  V30 2793 O 276.575 -1.76985 -0.0227557 0
M  V30 2794 C 273.704 -3.42305 0.261147 0
M  V30 2795 C 272.79 -4.03736 1.29837 0
M  V30 2796 N 273.181 -4.39659 2.50067 0
M  V30 2797 C 271.479 -4.30993 1.1472 0
M  V30 2798 C 272.18 -4.88113 3.16419 0
M  V30 2799 N 271.156 -4.85846 2.43832 0
M  V30 2800 H 274.958 -2.39516 1.70322 0
M  V30 2801 H 272.472 -1.26263 1.02134 0
M  V30 2802 H 274.469 -4.16899 -0.0077405 0
M  V30 2803 H 273.129 -3.18172 -0.647805 0
M  V30 2804 H 274.14 -4.30878 2.8734 0
M  V30 2805 H 270.817 -4.16444 0.296773 0
M  V30 2806 H 272.207 -5.25336 4.18894 0
M  V30 2807 N 274.927 -0.932562 -1.27047 0
M  V30 2808 C 275.874 -0.434072 -2.26681 0
M  V30 2809 C 276.844 0.501639 -1.58344 0
M  V30 2810 O 278.029 0.419734 -1.86126 0
M  V30 2811 C 275.169 0.30261 -3.43771 0
M  V30 2812 C 274.282 -0.667774 -4.26808 0
M  V30 2813 C 273.417 0.0892393 -5.31125 0
M  V30 2814 C 272.456 -0.873532 -6.05835 0
M  V30 2815 N 271.593 -0.148832 -7.01942 0
M  V30 2816 H 276.433 -1.28868 -2.68695 0
M  V30 2817 H 273.97 -0.646713 -1.32121 0
M  V30 2818 H 275.928 0.746092 -4.10474 0
M  V30 2819 H 274.558 1.12142 -3.02695 0
M  V30 2820 H 273.61 -1.22978 -3.59973 0
M  V30 2821 H 274.922 -1.40337 -4.78651 0
M  V30 2822 H 274.076 0.592409 -6.03801 0
M  V30 2823 H 272.815 0.85777 -4.80097 0
M  V30 2824 H 271.82 -1.38791 -5.31994 0
M  V30 2825 H 273.045 -1.64193 -6.58952 0
M  V30 2826 H 270.991 0.601365 -6.53238 0
M  V30 2827 H 270.908 -0.82391 -7.51497 0
M  V30 2828 H 272.176 0.333527 -7.78786 0
M  V30 2829 N 276.405 1.4127 -0.698611 0
M  V30 2830 C 277.682 1.94955 -0.158762 0
M  V30 2831 C 278.062 1.63781 1.33188 0
M  V30 2832 O 277.41 0.946423 2.07979 0
M  V30 2833 C 277.62 3.46044 -0.453309 0
M  V30 2834 C 278.968 4.22872 -0.382707 0
M  V30 2835 O 279.992 3.54076 -0.388396 0
M  V30 2836 O 278.851 5.45407 -0.345463 0
M  V30 2837 H 275.945 0.82683 -0.0167505 0
M  V30 2838 H 278.491 1.50971 -0.77498 0
M  V30 2839 H 277.263 3.62028 -1.48498 0
M  V30 2840 H 276.886 3.97128 0.19373 0
M  V30 2841 N 277.883 0.443576 1.51229 0
M  V30 2842 C 278.815 -0.400608 2.25672 0
M  V30 2843 C 279.828 -0.980945 1.29928 0
M  V30 2844 O 281.017 -0.874024 1.55638 0
M  V30 2845 C 278.117 -1.57304 3.00181 0
M  V30 2846 C 277.29 -1.11046 4.23069 0
M  V30 2847 C 276.349 -2.15374 4.80105 0
M  V30 2848 O 275.375 -1.74554 5.41774 0
M  V30 2849 N 276.577 -3.47922 4.64683 0
M  V30 2850 H 279.342 0.23745 2.98758 0
M  V30 2851 H 276.903 0.272809 1.59585 0
M  V30 2852 H 278.895 -2.26733 3.35223 0
M  V30 2853 H 277.465 -2.11632 2.30066 0
M  V30 2854 H 276.685 -0.243019 3.9345 0
M  V30 2855 H 277.973 -0.778888 5.02803 0
M  V30 2856 H 277.371 -3.83815 4.15575 0
M  V30 2857 H 275.928 -4.13228 5.0407 0
M  V30 2858 N 279.361 -1.56624 0.175154 0
M  V30 2859 C 280.308 -2.18149 -0.753634 0
M  V30 2860 C 281.278 -1.12265 -1.22417 0
M  V30 2861 O 282.463 -1.40432 -1.29165 0
M  V30 2862 C 279.603 -2.82933 -1.97592 0
M  V30 2863 C 278.716 -4.03289 -1.5486 0
M  V30 2864 C 277.851 -4.55988 -2.72485 0
M  V30 2865 C 276.89 -5.68746 -2.26262 0
M  V30 2866 N 276.027 -6.15938 -3.36994 0
M  V30 2867 H 280.867 -2.9717 -0.222195 0
M  V30 2868 H 278.404 -1.46774 -0.0979422 0
M  V30 2869 H 280.362 -3.18653 -2.69288 0
M  V30 2870 H 278.992 -2.06509 -2.481 0
M  V30 2871 H 278.044 -3.73364 -0.728246 0
M  V30 2872 H 279.356 -4.849 -1.16933 0
M  V30 2873 H 278.51 -4.9391 -3.52332 0
M  V30 2874 H 277.249 -3.73443 -3.13674 0
M  V30 2875 H 276.254 -5.30372 -1.44863 0
M  V30 2876 H 277.479 -6.53095 -1.86127 0
M  V30 2877 H 275.425 -5.36321 -3.77751 0
M  V30 2878 H 275.342 -6.92548 -3.03172 0
M  V30 2879 H 276.61 -6.58511 -4.17114 0
M  V30 2880 N 280.839 0.0985539 -1.57292 0
M  V30 2881 C 282.067 0.816318 -1.90115 0
M  V30 2882 C 282.482 1.72451 -0.768509 0
M  V30 2883 O 281.839 1.80643 0.259687 0
M  V30 2884 C 281.89 1.63259 -3.22535 0
M  V30 2885 O 281.611 0.760934 -4.31441 0
M  V30 2886 C 283.112 2.45372 -3.69199 0
M  V30 2887 H 280.332 0.233595 -0.629027 0
M  V30 2888 H 282.876 0.0768229 -2.04356 0
M  V30 2889 H 281.031 2.32463 -3.09903 0
M  V30 2890 H 281.445 1.32595 -5.07463 0
M  V30 2891 H 282.919 2.98144 -4.64558 0
M  V30 2892 H 283.396 3.23677 -2.96867 0
M  V30 2893 H 284.002 1.81373 -3.84687 0
M  V30 2894 N 282.317 1.53212 0.369288 0
M  V30 2895 C 283.542 1.73423 1.1375 0
M  V30 2896 C 283.967 0.460404 1.82378 0
M  V30 2897 O 283.325 -0.585298 1.71592 0
M  V30 2898 C 283.373 2.89769 2.1463 0
M  V30 2899 O 282.477 2.58119 3.21634 0
M  V30 2900 H 281.818 0.576061 0.330227 0
M  V30 2901 H 284.348 2.00083 0.427547 0
M  V30 2902 H 284.358 3.15829 2.58294 0
M  V30 2903 H 283.033 3.8217 1.64071 0
M  V30 2904 H 281.61 2.42864 2.82969 0
M  V30 2905 N 283.795 -0.628877 1.44509 0
M  V30 2906 C 285.041 -1.39045 1.47629 0
M  V30 2907 C 285.374 -1.93892 0.109343 0
M  V30 2908 O 284.649 -1.7379 -0.87334 0
M  V30 2909 C 284.932 -2.55408 2.53848 0
M  V30 2910 C 284.785 -2.05896 3.99909 0
M  V30 2911 C 286.104 -3.5759 2.56549 0
M  V30 2912 H 283.223 -0.504232 0.537512 0
M  V30 2913 H 285.865 -0.710854 1.76201 0
M  V30 2914 H 284.015 -3.13384 2.29615 0
M  V30 2915 H 285.687 -1.52734 4.35282 0
M  V30 2916 H 283.93 -1.37061 4.11578 0
M  V30 2917 H 284.601 -2.89681 4.69882 0
M  V30 2918 H 287.077 -3.09419 2.78207 0
M  V30 2919 H 285.953 -4.36527 3.32769 0
M  V30 2920 H 286.214 -4.11808 1.60832 0
M  V30 2921 N 285.273 -1.31445 -0.869486 0
M  V30 2922 C 286.684 -1.19042 -1.43826 0
M  V30 2923 C 287.035 0.202919 -1.95148 0
M  V30 2924 O 286.16 1.10071 -1.86315 0
M  V30 2925 C 286.755 -2.15499 -2.6143 0
M  V30 2926 C 285.314 -2.07028 -3.14351 0
M  V30 2927 C 284.461 -2.04701 -1.87063 0
M  V30 2928 H 287.412 -1.43489 -0.677984 0
M  V30 2929 H 287.433 -1.74488 -3.38134 0
M  V30 2930 H 286.945 -3.16899 -2.24046 0
M  V30 2931 H 285.046 -1.08825 -3.56354 0
M  V30 2932 H 285.159 -2.96157 -3.766 0
M  V30 2933 H 283.523 -1.49724 -2.06046 0
M  V30 2934 H 284.306 -3.07857 -1.51917 0
M  V30 2935 N 286.751 1.08385 -1.14413 0
M  V30 2936 C 288.162 1.62258 -0.923535 0
M  V30 2937 C 288.513 1.88691 0.537595 0
M  V30 2938 O 287.638 1.64454 1.40655 0
M  V30 2939 C 288.233 2.94781 -1.67002 0
M  V30 2940 C 286.792 3.45437 -1.495 0
M  V30 2941 C 285.939 2.19668 -1.69238 0
M  V30 2942 H 288.89 0.916086 -1.2959 0
M  V30 2943 H 288.911 3.63229 -1.13334 0
M  V30 2944 H 288.423 2.7551 -2.73342 0
M  V30 2945 H 286.524 3.6981 -0.455097 0
M  V30 2946 H 286.637 4.22173 -2.2651 0
M  V30 2947 H 285.001 2.28849 -1.11804 0
M  V30 2948 H 285.784 2.02905 -2.7692 0
M  V30 2949 N 288.23 0.939286 1.26551 0
M  V30 2950 C 289.477 0.585847 1.9384 0
M  V30 2951 C 289.805 -0.874784 1.73718 0
M  V30 2952 O 289.06 -1.64092 1.06642 0
M  V30 2953 C 289.359 0.872106 3.46596 0
M  V30 2954 C 289.025 2.31632 3.86856 0
M  V30 2955 C 287.687 2.71111 3.97558 0
M  V30 2956 C 290.039 3.25494 4.07066 0
M  V30 2957 C 287.367 4.03553 4.25866 0
M  V30 2958 C 289.719 4.57531 4.36862 0
M  V30 2959 C 288.383 4.96828 4.45778 0
M  V30 2960 H 287.653 0.214377 0.709312 0
M  V30 2961 H 290.3 1.18544 1.50398 0
M  V30 2962 H 288.605 0.18996 3.91339 0
M  V30 2963 H 290.302 0.577442 3.96821 0
M  V30 2964 H 286.892 2.00008 3.79071 0
M  V30 2965 H 291.076 2.9619 3.98227 0
M  V30 2966 H 286.332 4.33665 4.30981 0
M  V30 2967 H 290.506 5.30254 4.51446 0
M  V30 2968 H 288.133 5.99482 4.67468 0
M  V30 2969 N 289.708 -1.40897 0.706093 0
M  V30 2970 C 290.656 -2.32572 0.0361893 0
M  V30 2971 C 291.65 -1.51532 -0.757266 0
M  V30 2972 O 292.856 -1.67396 -0.661703 0
M  V30 2973 H 289.231 -0.751966 -0.00709935 0
M  V30 2974 H 291.202 -2.86733 0.826249 0
M  V30 2975 C 289.951 -3.36418 -0.87854 0
M  V30 2976 H 289.274 -3.98836 -0.277401 0
M  V30 2977 H 290.714 -4.0308 -1.3154 0
M  V30 2978 C 289.173 -2.71141 -1.99961 0
M  V30 2979 O 289.703 -2.56735 -3.0895 0
M  V30 2980 N 287.909 -2.29671 -1.78043 0
M  V30 2981 H 287.456 -2.41588 -0.894042 0
M  V30 2982 H 287.414 -1.86332 -2.53235 0
M  V30 2983 N 291.186 -0.45159 -1.50991 0
M  V30 2984 C 292.116 0.342898 -2.30969 0
M  V30 2985 C 293.097 1.00815 -1.37005 0
M  V30 2986 O 294.282 1.00907 -1.65926 0
M  V30 2987 C 291.412 1.43637 -3.16205 0
M  V30 2988 C 290.366 0.893818 -4.18563 0
M  V30 2989 C 289.692 2.08411 -4.92411 0
M  V30 2990 C 290.992 -0.0815568 -5.22236 0
M  V30 2991 H 292.686 -0.324556 -2.97636 0
M  V30 2992 H 290.232 -0.157531 -1.43136 0
M  V30 2993 H 292.185 1.9995 -3.70942 0
M  V30 2994 H 290.909 2.13232 -2.47386 0
M  V30 2995 H 289.568 0.352798 -3.64898 0
M  V30 2996 H 289.216 2.76658 -4.20082 0
M  V30 2997 H 288.916 1.72741 -5.61636 0
M  V30 2998 H 290.44 2.65251 -5.49976 0
M  V30 2999 H 291.854 0.391742 -5.7196 0
M  V30 3000 H 290.251 -0.351551 -5.99069 0
M  V30 3001 H 291.321 -1.01374 -4.74185 0
M  V30 3002 N 292.664 1.56529 -0.183458 0
M  V30 3003 C 294.08 1.58664 0.172554 0
M  V30 3004 C 294.28 1.19925 1.61926 0
M  V30 3005 O 293.336 0.916534 2.35278 0
M  V30 3006 C 294.649 3.00463 -0.119262 0
M  V30 3007 C 296.197 3.12945 -0.0584396 0
M  V30 3008 C 296.672 4.56857 -0.323408 0
M  V30 3009 N 298.163 4.62403 -0.271612 0
M  V30 3010 C 298.898 5.71626 -0.450639 0
M  V30 3011 N 298.394 6.89362 -0.689384 0
M  V30 3012 N 300.187 5.60775 -0.385701 0
M  V30 3013 H 292.338 1.79994 -1.12765 0
M  V30 3014 H 294.601 0.834808 -0.449222 0
M  V30 3015 H 294.307 3.33326 -1.12192 0
M  V30 3016 H 294.181 3.72659 0.583544 0
M  V30 3017 H 296.568 2.79902 0.934805 0
M  V30 3018 H 296.649 2.4316 -0.794144 0
M  V30 3019 H 296.293 4.9061 -1.31392 0
M  V30 3020 H 296.223 5.24816 0.43305 0
M  V30 3021 H 298.714 3.77785 -0.0932256 0
M  V30 3022 H 299.027 7.68489 -0.815113 0
M  V30 3023 H 297.372 6.91196 -0.726142 0
M  V30 3024 H 300.563 4.67674 -0.199687 0
M  V30 3025 H 300.736 6.4584 -0.528646 0
M  V30 3026 N 294.142 -0.090211 1.57342 0
M  V30 3027 C 295.052 -1.12735 2.05738 0
M  V30 3028 C 296.068 -1.43557 0.983231 0
M  V30 3029 O 297.244 -1.54101 1.29672 0
M  V30 3030 C 294.309 -2.42659 2.47624 0
M  V30 3031 C 293.37 -2.18975 3.69254 0
M  V30 3032 C 292.603 -3.42704 4.09133 0
M  V30 3033 O 292.826 -4.51127 3.49057 0
M  V30 3034 O 291.76 -3.32003 5.02053 0
M  V30 3035 H 295.586 -0.746279 2.94388 0
M  V30 3036 H 293.171 -0.303064 1.46294 0
M  V30 3037 H 295.053 -3.19155 2.7517 0
M  V30 3038 H 293.728 -2.80182 1.62109 0
M  V30 3039 H 292.635 -1.40244 3.46818 0
M  V30 3040 H 293.968 -1.86342 4.55563 0
M  V30 3041 N 295.62 -1.53406 -0.361157 0
M  V30 3042 C 296.55 -1.83136 -1.44857 0
M  V30 3043 C 297.531 -0.685174 -1.5569 0
M  V30 3044 O 298.716 -0.93544 -1.70186 0
M  V30 3045 C 295.846 -2.02522 -2.82138 0
M  V30 3046 C 294.8 -3.18302 -2.86126 0
M  V30 3047 C 294.126 -3.22989 -4.26125 0
M  V30 3048 C 295.426 -4.56796 -2.53248 0
M  V30 3049 H 297.12 -2.74201 -1.20226 0
M  V30 3050 H 294.666 -1.31938 -0.576922 0
M  V30 3051 H 296.619 -2.21904 -3.58241 0
M  V30 3052 H 295.343 -1.08172 -3.08166 0
M  V30 3053 H 294.002 -2.98747 -2.12475 0
M  V30 3054 H 293.65 -2.26267 -4.49235 0
M  V30 3055 H 293.35 -4.00781 -4.29708 0
M  V30 3056 H 294.874 -3.44559 -5.04094 0
M  V30 3057 H 296.288 -4.7631 -3.19064 0
M  V30 3058 H 294.685 -5.36862 -2.68141 0
M  V30 3059 H 295.755 -4.61606 -1.48484 0
M  V30 3060 N 297.098 0.621204 -1.44841 0
M  V30 3061 C 298.028 1.74366 -1.55303 0
M  V30 3062 C 299.009 1.65199 -0.405385 0
M  V30 3063 O 300.194 1.83807 -0.626787 0
M  V30 3064 C 297.324 3.12931 -1.50637 0
M  V30 3065 C 296.278 3.36896 -2.63979 0
M  V30 3066 C 295.604 4.75594 -2.44366 0
M  V30 3067 C 296.904 3.28483 -4.06074 0
M  V30 3068 H 298.598 1.65867 -2.49256 0
M  V30 3069 H 296.144 0.796558 -1.19962 0
M  V30 3070 H 298.097 3.9124 -1.56555 0
M  V30 3071 H 296.821 3.22237 -0.532057 0
M  V30 3072 H 295.48 2.60972 -2.57467 0
M  V30 3073 H 295.128 4.81616 -1.45105 0
M  V30 3074 H 294.828 4.92586 -3.20364 0
M  V30 3075 H 296.352 5.5612 -2.52117 0
M  V30 3076 H 297.766 3.96684 -4.13902 0
M  V30 3077 H 296.163 3.57008 -4.82354 0
M  V30 3078 H 297.233 2.26133 -4.28943 0
M  V30 3079 N 298.576 1.31904 0.862503 0
M  V30 3080 C 299.987 1.19803 1.43193 0
M  V30 3081 C 300.338 -0.192567 1.95253 0
M  V30 3082 O 299.463 -1.09081 1.86896 0
M  V30 3083 C 300.058 2.16883 2.60283 0
M  V30 3084 C 298.617 2.08692 3.13248 0
M  V30 3085 C 297.764 2.05691 1.85975 0
M  V30 3086 H 300.715 1.43846 0.670365 0
M  V30 3087 H 300.736 1.76278 3.37204 0
M  V30 3088 H 300.248 3.18083 2.22363 0
M  V30 3089 H 298.349 1.10713 3.55771 0
M  V30 3090 H 298.462 2.9815 3.75025 0
M  V30 3091 H 296.826 1.50814 2.05249 0
M  V30 3092 H 297.609 3.08659 1.50282 0
M  V30 3093 N 300.054 -1.07777 1.14986 0
M  V30 3094 C 301.001 -2.14867 0.842672 0
M  V30 3095 C 301.971 -1.6486 -0.202552 0
M  V30 3096 O 303.156 -1.90668 -0.0710568 0
M  V30 3097 C 300.296 -3.43486 0.333363 0
M  V30 3098 C 299.409 -4.07306 1.43965 0
M  V30 3099 C 298.544 -5.23744 0.886914 0
M  V30 3100 C 297.583 -5.79517 1.97043 0
M  V30 3101 N 296.72 -6.87291 1.4344 0
M  V30 3102 H 301.56 -2.40485 1.75986 0
M  V30 3103 H 299.097 -1.1801 0.878179 0
M  V30 3104 H 301.055 -4.17195 0.0198163 0
M  V30 3105 H 299.685 -3.18133 -0.546916 0
M  V30 3106 H 298.737 -3.31293 1.86946 0
M  V30 3107 H 300.049 -4.44771 2.25788 0
M  V30 3108 H 299.203 -6.04419 0.525651 0
M  V30 3109 H 297.942 -4.87685 0.0377957 0
M  V30 3110 H 296.947 -4.97491 2.34057 0
M  V30 3111 H 298.172 -6.17632 2.82325 0
M  V30 3112 H 296.118 -6.5318 0.607567 0
M  V30 3113 H 296.035 -7.23617 2.18895 0
M  V30 3114 H 297.303 -7.71682 1.10124 0
M  V30 3115 N 301.532 -0.945985 -1.26051 0
M  V30 3116 C 302.464 -0.416662 -2.25381 0
M  V30 3117 C 303.477 0.462712 -1.56086 0
M  V30 3118 O 304.666 0.272383 -1.7641 0
M  V30 3119 C 301.766 0.419812 -3.3629 0
M  V30 3120 C 300.939 -0.444531 -4.35135 0
M  V30 3121 C 299.998 0.332305 -5.2515 0
M  V30 3122 O 299.024 -0.266324 -5.68577 0
M  V30 3123 N 300.226 1.62763 -5.57215 0
M  V30 3124 H 302.991 -1.27059 -2.71433 0
M  V30 3125 H 300.552 -0.815392 -1.39868 0
M  V30 3126 H 302.544 0.947013 -3.93464 0
M  V30 3127 H 301.114 1.17456 -2.89694 0
M  V30 3128 H 300.334 -1.15291 -3.76964 0
M  V30 3129 H 301.622 -1.03478 -4.98166 0
M  V30 3130 H 301.02 2.13603 -5.23823 0
M  V30 3131 H 299.577 2.10097 -6.17011 0
M  V30 3132 N 303.011 1.40521 -0.713556 0
M  V30 3133 C 303.941 2.33381 -0.0743864 0
M  V30 3134 C 304.922 1.52784 0.747735 0
M  V30 3135 O 306.107 1.81258 0.697071 0
M  V30 3136 C 303.237 3.36748 0.849598 0
M  V30 3137 C 302.191 4.27793 0.133247 0
M  V30 3138 C 301.517 5.21679 1.17281 0
M  V30 3139 C 302.817 5.12415 -1.01134 0
M  V30 3140 H 304.511 2.87081 -0.850007 0
M  V30 3141 H 302.057 1.38034 -0.410201 0
M  V30 3142 H 304.01 4.00648 1.30612 0
M  V30 3143 H 302.734 2.81439 1.65709 0
M  V30 3144 H 301.393 3.65342 -0.303426 0
M  V30 3145 H 301.041 4.62677 1.9733 0
M  V30 3146 H 300.741 5.83435 0.698397 0
M  V30 3147 H 302.265 5.88456 1.62947 0
M  V30 3148 H 303.679 5.69781 -0.634274 0
M  V30 3149 H 302.076 5.83203 -1.41399 0
M  V30 3150 H 303.146 4.48514 -1.84292 0
M  V30 3151 N 304.489 0.459591 1.5075 0
M  V30 3152 C 305.737 -0.0991532 2.01857 0
M  V30 3153 C 306.058 -1.41247 1.34441 0
M  V30 3154 O 305.328 -1.89775 0.486022 0
M  V30 3155 H 303.908 -0.039633 0.745948 0
M  V30 3156 H 306.57 0.607387 1.85194 0
M  V30 3157 H 305.666 -0.258998 3.11023 0
M  V30 3158 N 305.967 -1.56429 0.191757 0
M  V30 3159 C 306.899 -2.16154 -0.762245 0
M  V30 3160 C 307.912 -1.12247 -1.17917 0
M  V30 3161 O 309.101 -1.39353 -1.11548 0
M  V30 3162 C 306.201 -2.70606 -2.04024 0
M  V30 3163 C 305.374 -3.99381 -1.78364 0
M  V30 3164 C 304.433 -4.38692 -2.90578 0
M  V30 3165 O 303.459 -5.06179 -2.6033 0
M  V30 3166 N 304.661 -4.01922 -4.18854 0
M  V30 3167 H 307.426 -2.98643 -0.251526 0
M  V30 3168 H 304.987 -1.61897 0.00967373 0
M  V30 3169 H 306.979 -2.93891 -2.78227 0
M  V30 3170 H 305.549 -1.9259 -2.46227 0
M  V30 3171 H 304.769 -3.84262 -0.879581 0
M  V30 3172 H 306.057 -4.83445 -1.58614 0
M  V30 3173 H 305.455 -3.47631 -4.46283 0
M  V30 3174 H 304.012 -4.30165 -4.89695 0
M  V30 3175 N 307.445 0.0818655 -1.57387 0
M  V30 3176 C 308.675 0.794954 -1.90694 0
M  V30 3177 C 309.083 1.72147 -0.784982 0
M  V30 3178 O 308.426 1.81974 0.251196 0
M  V30 3179 C 308.488 1.65042 -3.19376 0
M  V30 3180 C 308.152 0.894337 -4.48164 0
M  V30 3181 C 309.149 0.21813 -5.19442 0
M  V30 3182 C 306.834 0.864495 -4.94805 0
M  V30 3183 C 308.828 -0.477802 -6.35607 0
M  V30 3184 C 306.515 0.164785 -6.10878 0
M  V30 3185 C 307.513 -0.505173 -6.81129 0
M  V30 3186 O 307.201 -1.19363 -7.94989 0
M  V30 3187 H 306.933 0.231779 -0.635023 0
M  V30 3188 H 309.487 0.059493 -2.05314 0
M  V30 3189 H 307.717 2.42844 -3.00938 0
M  V30 3190 H 309.406 2.24127 -3.38411 0
M  V30 3191 H 310.172 0.232558 -4.84442 0
M  V30 3192 H 306.051 1.37542 -4.40004 0
M  V30 3193 H 309.595 -1.00129 -6.90377 0
M  V30 3194 H 305.492 0.148249 -6.4533 0
M  V30 3195 H 306.26 -1.10188 -8.11049 0
M  V30 3196 N 308.923 1.53595 0.353017 0
M  V30 3197 C 310.17 1.70385 1.09431 0
M  V30 3198 C 310.498 0.462113 1.88931 0
M  V30 3199 O 309.753 -0.556074 1.87633 0
M  V30 3200 C 310.052 2.91313 2.07054 0
M  V30 3201 C 309.718 4.27308 1.43939 0
M  V30 3202 C 308.38 4.64287 1.26454 0
M  V30 3203 C 310.732 5.11829 0.983883 0
M  V30 3204 C 308.06 5.83412 0.620226 0
M  V30 3205 C 310.412 6.31611 0.353516 0
M  V30 3206 C 309.076 6.67293 0.166272 0
M  V30 3207 H 308.346 0.623484 0.400436 0
M  V30 3208 H 310.993 1.87799 0.374655 0
M  V30 3209 H 309.298 2.68463 2.85368 0
M  V30 3210 H 310.995 3.01497 2.64387 0
M  V30 3211 H 307.585 3.98198 1.58543 0
M  V30 3212 H 311.769 4.838 1.10685 0
M  V30 3213 H 307.025 6.09639 0.463681 0
M  V30 3214 H 311.199 6.964 -0.00757555 0
M  V30 3215 H 308.826 7.59461 -0.335047 0
M  V30 3216 N 310.401 -0.613514 1.45168 0
M  V30 3217 C 311.817 -0.933629 1.29443 0
M  V30 3218 C 312.017 -2.00028 0.243101 0
M  V30 3219 O 311.073 -2.49848 -0.364992 0
M  V30 3220 C 312.386 -1.38018 2.67155 0
M  V30 3221 C 313.934 -1.49471 2.75004 0
M  V30 3222 C 314.409 -1.97503 4.13227 0
M  V30 3223 N 315.9 -2.04746 4.15491 0
M  V30 3224 C 316.635 -2.43121 5.19307 0
M  V30 3225 N 316.131 -2.80506 6.33473 0
M  V30 3226 N 317.924 -2.43408 5.06664 0
M  V30 3227 H 310.075 0.0916097 2.12202 0
M  V30 3228 H 312.338 -0.0216655 0.947752 0
M  V30 3229 H 312.044 -0.670625 3.45247 0
M  V30 3230 H 311.918 -2.34784 2.95222 0
M  V30 3231 H 314.305 -2.19519 1.9722 0
M  V30 3232 H 314.386 -0.510342 2.50657 0
M  V30 3233 H 314.03 -1.28045 4.91495 0
M  V30 3234 H 313.96 -2.96843 4.34962 0
M  V30 3235 H 316.451 -1.78468 3.33103 0
M  V30 3236 H 316.764 -3.08652 7.08487 0
M  V30 3237 H 315.109 -2.78216 6.36884 0
M  V30 3238 H 318.3 -2.13604 4.16523 0
M  V30 3239 H 318.473 -2.72989 5.87691 0
M  V30 3240 N 311.879 -1.3236 -0.855495 0
M  V30 3241 C 313.109 -1.25688 -1.6397 0
M  V30 3242 C 313.517 0.177592 -1.88365 0
M  V30 3243 O 312.86 1.12485 -1.45234 0
M  V30 3244 C 312.922 -1.94602 -3.02275 0
M  V30 3245 C 312.586 -3.43937 -3.00926 0
M  V30 3246 C 313.583 -4.39435 -2.77835 0
M  V30 3247 C 311.268 -3.85858 -3.21588 0
M  V30 3248 C 313.262 -5.74829 -2.75409 0
M  V30 3249 C 310.949 -5.21361 -3.18789 0
M  V30 3250 C 311.947 -6.15658 -2.95727 0
M  V30 3251 O 311.635 -7.48681 -2.928 0
M  V30 3252 H 311.367 -0.434972 -0.51747 0
M  V30 3253 H 313.921 -1.75023 -1.075 0
M  V30 3254 H 312.151 -1.39836 -3.60531 0
M  V30 3255 H 313.84 -1.81651 -3.62985 0
M  V30 3256 H 314.606 -4.08374 -2.6164 0
M  V30 3257 H 310.485 -3.12883 -3.38564 0
M  V30 3258 H 314.029 -6.48404 -2.57328 0
M  V30 3259 H 309.926 -5.52052 -3.34528 0
M  V30 3260 H 310.694 -7.5803 -3.0876 0
M  V30 3261 N 313.357 1.07166 -1.15556 0
M  V30 3262 C 314.305 2.16517 -0.8499 0
M  V30 3263 C 315.299 1.68468 0.177454 0
M  V30 3264 O 316.505 1.79971 0.0323026 0
M  V30 3265 H 312.88 0.706652 -0.25719 0
M  V30 3266 H 314.851 2.39514 -1.77976 0
M  V30 3267 C 313.6 3.45855 -0.357682 0
M  V30 3268 H 312.923 3.83214 -1.13961 0
M  V30 3269 H 314.363 4.23607 -0.182489 0
M  V30 3270 C 312.822 3.24062 0.921152 0
M  V30 3271 O 313.352 3.48813 1.9923 0
M  V30 3272 N 311.558 2.77539 0.86141 0
M  V30 3273 H 311.105 2.57598 -0.0104408 0
M  V30 3274 H 311.063 2.63337 1.71758 0
M  V30 3275 N 314.835 0.952656 1.25548 0
M  V30 3276 C 316.083 0.605176 1.92826 0
M  V30 3277 C 316.404 -0.860261 1.74999 0
M  V30 3278 O 315.674 -1.6125 1.11244 0
M  V30 3279 H 314.254 0.220832 0.713612 0
M  V30 3280 H 316.916 1.21047 1.52754 0
M  V30 3281 H 316.012 0.832798 3.00784 0
M  V30 3282 N 316.313 -1.40141 0.720998 0
M  V30 3283 C 317.538 -2.05618 0.271258 0
M  V30 3284 C 317.963 -1.53978 -1.08039 0
M  V30 3285 O 317.321 -0.677463 -1.68167 0
M  V30 3286 C 317.369 -3.59609 0.267197 0
M  V30 3287 O 316.473 -4.05526 -0.749814 0
M  V30 3288 H 315.814 -0.651904 0.126162 0
M  V30 3289 H 318.344 -1.79439 0.982997 0
M  V30 3290 H 318.354 -4.0786 0.106744 0
M  V30 3291 H 317.029 -3.96559 1.25354 0
M  V30 3292 H 315.606 -3.68722 -0.556644 0
M  V30 3293 N 317.792 -0.46758 -1.50504 0
M  V30 3294 C 318.722 0.318381 -2.31319 0
M  V30 3295 C 319.703 0.993564 -1.38066 0
M  V30 3296 O 320.888 0.991411 -1.66987 0
M  V30 3297 C 318.018 1.40275 -3.17711 0
M  V30 3298 C 316.972 0.849373 -4.19487 0
M  V30 3299 C 316.298 2.03177 -4.94594 0
M  V30 3300 C 317.598 -0.136942 -5.2212 0
M  V30 3301 H 319.292 -0.356106 -2.97275 0
M  V30 3302 H 316.838 -0.172703 -1.42961 0
M  V30 3303 H 318.791 1.96004 -3.73042 0
M  V30 3304 H 317.515 2.10596 -2.49634 0
M  V30 3305 H 316.174 0.314076 -3.65252 0
M  V30 3306 H 315.822 2.72187 -4.22993 0
M  V30 3307 H 315.522 1.66774 -5.63436 0
M  V30 3308 H 317.046 2.59403 -5.52759 0
M  V30 3309 H 318.46 0.331056 -5.72343 0
M  V30 3310 H 316.857 -0.41507 -5.98663 0
M  V30 3311 H 317.927 -1.06398 -4.73083 0
M  V30 3312 N 319.27 1.56325 -0.20005 0
M  V30 3313 C 320.498 2.02105 0.442874 0
M  V30 3314 C 320.913 1.08014 1.5485 0
M  V30 3315 O 320.27 0.0858797 1.82298 0
M  V30 3316 C 320.321 3.47549 0.994583 0
M  V30 3317 O 320.042 4.38049 -0.0669322 0
M  V30 3318 C 321.543 4.0887 1.7129 0
M  V30 3319 H 318.763 0.661807 0.110691 0
M  V30 3320 H 321.307 2.02134 -0.310207 0
M  V30 3321 H 319.462 3.48204 1.69803 0
M  V30 3322 H 319.876 5.23368 0.344462 0
M  V30 3323 H 321.35 5.12475 2.05118 0
M  V30 3324 H 321.827 3.52615 2.61838 0
M  V30 3325 H 322.433 4.12002 1.05518 0
M  V30 3326 N 320.748 -0.0735177 1.57428 0
M  V30 3327 C 321.976 -0.785969 1.9139 0
M  V30 3328 C 322.391 -1.71207 0.795847 0
M  V30 3329 O 321.748 -1.81033 -0.230915 0
M  V30 3330 C 321.799 -1.58107 3.25091 0
M  V30 3331 O 321.52 -0.6922 4.32597 0
M  V30 3332 C 323.021 -2.39467 3.73055 0
M  V30 3333 H 320.241 -0.223558 0.632663 0
M  V30 3334 H 322.785 -0.044302 2.04452 0
M  V30 3335 H 320.94 -2.27503 3.13562 0
M  V30 3336 H 321.354 -1.24504 5.09508 0
M  V30 3337 H 322.828 -2.90716 4.69242 0
M  V30 3338 H 323.305 -3.18913 3.01979 0
M  V30 3339 H 323.911 -1.7523 3.87523 0
M  V30 3340 N 322.226 -1.5378 -0.344866 0
M  V30 3341 C 323.637 -1.62428 -0.920552 0
M  V30 3342 C 323.988 -0.504747 -1.89596 0
M  V30 3343 O 323.113 0.365711 -2.13287 0
M  V30 3344 C 323.708 -2.94419 -1.67639 0
M  V30 3345 C 322.267 -3.05333 -2.20111 0
M  V30 3346 C 321.414 -2.57866 -1.01982 0
M  V30 3347 H 324.365 -1.58222 -0.123042 0
M  V30 3348 H 324.386 -2.83384 -2.53917 0
M  V30 3349 H 323.898 -3.7588 -0.966224 0
M  V30 3350 H 321.999 -2.28502 -2.94308 0
M  V30 3351 H 322.112 -4.10778 -2.46573 0
M  V30 3352 H 320.476 -2.13241 -1.39285 0
M  V30 3353 H 321.259 -3.41765 -0.324308 0
M  V30 3354 N 323.704 0.605807 -1.45491 0
M  V30 3355 C 325.115 1.18777 -1.44045 0
M  V30 3356 C 325.466 1.95471 -0.169001 0
M  V30 3357 O 324.591 2.0374 0.729324 0
M  V30 3358 C 325.186 2.16064 -2.60963 0
M  V30 3359 C 323.745 2.69633 -2.62631 0
M  V30 3360 C 322.892 1.45072 -2.36325 0
M  V30 3361 H 325.843 0.395017 -1.53705 0
M  V30 3362 H 325.864 2.9913 -2.35163 0
M  V30 3363 H 325.376 1.60217 -3.53486 0
M  V30 3364 H 323.477 3.29414 -1.74119 0
M  V30 3365 H 323.59 3.13944 -3.61906 0
M  V30 3366 H 321.954 1.74089 -1.85917 0
M  V30 3367 H 322.737 0.910899 -3.30995 0
M  V30 3368 N 325.182 1.32811 0.848464 0
M  V30 3369 C 326.422 1.25046 1.61687 0
M  V30 3370 C 326.786 -0.183464 1.91121 0
M  V30 3371 O 327.987 -0.384937 2.66029 0
M  V30 3372 C 326.258 2.09201 2.89775 0
M  V30 3373 S 327.817 2.18526 3.80515 0
M  V30 3374 H 324.635 0.445023 0.554505 0
M  V30 3375 H 327.237 1.67733 1.00429 0
M  V30 3376 H 325.941 3.12433 2.66108 0
M  V30 3377 H 325.472 1.67315 3.56047 0
M  V30 3378 H 327.487 1.3393 4.77784 0
M  V30 3379 N 326.66 -1.06551 1.16123 0
M  V30 3380 C 327.89 -1.8274 0.963838 0
M  V30 3381 C 328.298 -1.82712 -0.491228 0
M  V30 3382 O 327.641 -1.24294 -1.35265 0
M  V30 3383 C 327.703 -3.3065 1.41106 0
M  V30 3384 C 327.367 -3.54384 2.88549 0
M  V30 3385 C 328.364 -3.4765 3.86569 0
M  V30 3386 C 326.049 -3.81789 3.26408 0
M  V30 3387 C 328.043 -3.67982 5.2045 0
M  V30 3388 C 325.73 -4.01772 4.60459 0
M  V30 3389 C 326.728 -3.94866 5.57288 0
M  V30 3390 O 326.416 -4.14306 6.88916 0
M  V30 3391 H 326.148 -0.583136 0.341948 0
M  V30 3392 H 328.702 -1.35351 1.54497 0
M  V30 3393 H 326.932 -3.78887 0.773394 0
M  V30 3394 H 328.621 -3.88324 1.1815 0
M  V30 3395 H 329.387 -3.2647 3.58667 0
M  V30 3396 H 325.266 -3.86276 2.51619 0
M  V30 3397 H 328.81 -3.62507 5.96015 0
M  V30 3398 H 324.707 -4.2244 4.88072 0
M  V30 3399 H 325.475 -4.31609 6.95454 0
M  V30 3400 N 328.138 -0.959301 -1.25041 0
M  V30 3401 C 329.07 -0.440543 -2.24926 0
M  V30 3402 C 330.083 0.446131 -1.56568 0
M  V30 3403 O 331.272 0.253657 -1.76689 0
M  V30 3404 C 328.372 0.38412 -3.36716 0
M  V30 3405 C 327.545 -0.490658 -4.34639 0
M  V30 3406 C 326.604 0.276587 -5.25473 0
M  V30 3407 O 325.63 -0.326614 -5.68262 0
M  V30 3408 N 326.832 1.56844 -5.5891 0
M  V30 3409 H 329.597 -1.29931 -2.70071 0
M  V30 3410 H 327.158 -0.830181 -1.38995 0
M  V30 3411 H 329.15 0.905228 -3.94446 0
M  V30 3412 H 327.72 1.14377 -2.90924 0
M  V30 3413 H 326.94 -1.19282 -3.7572 0
M  V30 3414 H 328.228 -1.08756 -4.97041 0
M  V30 3415 H 327.626 2.08036 -5.26059 0
M  V30 3416 H 326.183 2.03541 -6.19205 0
M  V30 3417 N 329.616 1.39756 -0.72842 0
M  V30 3418 C 330.841 2.05472 -0.282159 0
M  V30 3419 C 331.266 1.54549 1.07221 0
M  V30 3420 O 330.624 0.686372 1.67805 0
M  V30 3421 C 330.672 3.59462 -0.286264 0
M  V30 3422 O 329.776 4.05918 0.728298 0
M  V30 3423 H 329.117 0.651226 -0.129618 0
M  V30 3424 H 331.647 1.78915 -0.992499 0
M  V30 3425 H 331.657 4.07798 -0.128373 0
M  V30 3426 H 330.332 3.95889 -1.27456 0
M  V30 3427 H 328.909 3.69012 0.537081 0
M  V30 3428 N 331.094 0.475555 1.50254 0
M  V30 3429 C 332.34 -0.0780073 2.0265 0
M  V30 3430 C 332.673 -1.38968 1.35652 0
M  V30 3431 O 331.948 -1.8839 0.483691 0
M  V30 3432 C 332.231 -0.257161 3.59181 0
M  V30 3433 C 332.084 1.07585 4.36744 0
M  V30 3434 C 333.403 -1.00965 4.28362 0
M  V30 3435 H 330.522 -0.0268758 0.73651 0
M  V30 3436 H 333.164 0.622015 1.7953 0
M  V30 3437 H 331.314 -0.853412 3.79011 0
M  V30 3438 H 332.986 1.70902 4.28474 0
M  V30 3439 H 331.229 1.6714 4.00308 0
M  V30 3440 H 331.9 0.904088 5.44546 0
M  V30 3441 H 334.376 -0.504214 4.13034 0
M  V30 3442 H 333.252 -1.10381 5.37687 0
M  V30 3443 H 333.513 -2.04731 3.91839 0
M  V30 3444 N 332.573 -1.56217 0.208337 0
M  V30 3445 C 333.503 -2.22694 -0.702116 0
M  V30 3446 C 334.484 -1.19432 -1.2112 0
M  V30 3447 O 335.669 -1.47978 -1.25762 0
M  V30 3448 C 332.799 -2.8966 -1.9161 0
M  V30 3449 C 331.753 -3.9928 -1.5414 0
M  V30 3450 C 331.079 -4.53476 -2.83308 0
M  V30 3451 C 332.379 -5.17012 -0.741339 0
M  V30 3452 H 334.073 -2.99034 -0.147898 0
M  V30 3453 H 331.619 -1.43831 -0.0696951 0
M  V30 3454 H 333.572 -3.34852 -2.55836 0
M  V30 3455 H 332.296 -2.10746 -2.49507 0
M  V30 3456 H 330.955 -3.54799 -0.922668 0
M  V30 3457 H 330.603 -3.71308 -3.39322 0
M  V30 3458 H 330.303 -5.27451 -2.58976 0
M  V30 3459 H 331.827 -5.01378 -3.485 0
M  V30 3460 H 333.241 -5.58667 -1.28699 0
M  V30 3461 H 331.638 -5.97137 -0.595627 0
M  V30 3462 H 332.708 -4.8423 0.254851 0
M  V30 3463 N 334.051 0.0651679 -1.57465 0
M  V30 3464 C 335.297 0.758912 -1.88712 0
M  V30 3465 C 335.652 1.7485 -0.802819 0
M  V30 3466 O 334.945 1.90632 0.192359 0
M  V30 3467 C 335.139 1.50081 -3.24362 0
M  V30 3468 C 334.968 0.584579 -4.45884 0
M  V30 3469 C 333.738 0.219039 -5.04825 0
M  V30 3470 C 335.936 -0.121559 -5.14156 0
M  V30 3471 N 333.918 -0.702222 -6.09871 0
M  V30 3472 C 335.289 -0.899767 -6.13436 0
M  V30 3473 C 337.344 -0.192331 -4.97528 0
M  V30 3474 C 336.047 -1.74218 -6.97883 0
M  V30 3475 C 338.073 -1.02174 -5.82507 0
M  V30 3476 C 337.435 -1.78798 -6.8133 0
M  V30 3477 H 333.534 0.25293 -0.739967 0
M  V30 3478 H 336.118 0.0201744 -1.9469 0
M  V30 3479 H 334.289 2.21023 -3.1938 0
M  V30 3480 H 336.021 2.14409 -3.43236 0
M  V30 3481 H 332.776 0.57336 -4.70117 0
M  V30 3482 H 333.2 -1.15629 -6.67052 0
M  V30 3483 H 337.842 0.385741 -4.21037 0
M  V30 3484 H 335.56 -2.3312 -7.73745 0
M  V30 3485 H 339.146 -1.07957 -5.71696 0
M  V30 3486 H 338.026 -2.41942 -7.45945 0
M  V30 3487 N 335.529 1.53961 0.336706 0
M  V30 3488 C 336.757 1.75483 1.09605 0
M  V30 3489 C 337.172 0.4972 1.82136 0
M  V30 3490 O 336.529 -0.53149 1.74589 0
M  V30 3491 C 336.58 2.93943 2.10428 0
M  V30 3492 O 336.301 4.14842 1.40846 0
M  V30 3493 C 337.802 3.27571 2.98684 0
M  V30 3494 H 335.022 0.586166 0.326574 0
M  V30 3495 H 337.566 2.00808 0.38683 0
M  V30 3496 H 335.721 2.70929 2.76905 0
M  V30 3497 H 336.135 4.81383 2.08255 0
M  V30 3498 H 337.609 4.13791 3.6535 0
M  V30 3499 H 338.086 2.44168 3.65074 0
M  V30 3500 H 338.692 3.52615 2.37787 0
M  V30 3501 N 337.007 -0.598083 1.45811 0
M  V30 3502 C 338.253 -1.35882 1.50545 0
M  V30 3503 C 338.586 -1.93616 0.150445 0
M  V30 3504 O 337.861 -1.75604 -0.83628 0
M  V30 3505 C 338.144 -2.49966 2.59208 0
M  V30 3506 C 337.997 -1.97367 4.04186 0
M  V30 3507 C 339.316 -3.52068 2.64076 0
M  V30 3508 H 336.435 -0.492717 0.548087 0
M  V30 3509 H 339.077 -0.673319 1.77669 0
M  V30 3510 H 337.227 -3.08443 2.3621 0
M  V30 3511 H 338.899 -1.43466 4.38423 0
M  V30 3512 H 337.142 -1.283 4.14393 0
M  V30 3513 H 337.813 -2.79649 4.75921 0
M  V30 3514 H 340.289 -3.03448 2.84708 0
M  V30 3515 H 339.165 -4.2937 3.41954 0
M  V30 3516 H 339.426 -4.08304 1.69531 0
M  V30 3517 N 338.485 -1.33259 -0.841409 0
M  V30 3518 C 339.732 -1.24572 -1.5965 0
M  V30 3519 C 340.06 0.189137 -1.93578 0
M  V30 3520 O 339.315 1.14566 -1.5866 0
M  V30 3521 C 339.614 -2.06381 -2.9179 0
M  V30 3522 C 339.28 -3.556 -2.77235 0
M  V30 3523 C 337.942 -3.96282 -2.72973 0
M  V30 3524 C 340.294 -4.50433 -2.62221 0
M  V30 3525 C 337.622 -5.30017 -2.51592 0
M  V30 3526 C 339.974 -5.84327 -2.42374 0
M  V30 3527 C 338.638 -6.24194 -2.36512 0
M  V30 3528 H 337.908 -0.455842 -0.5842 0
M  V30 3529 H 340.555 -1.6482 -0.975016 0
M  V30 3530 H 338.86 -1.58903 -3.5813 0
M  V30 3531 H 340.557 -1.97019 -3.49263 0
M  V30 3532 H 337.147 -3.23298 -2.81384 0
M  V30 3533 H 341.331 -4.19914 -2.64549 0
M  V30 3534 H 336.587 -5.59947 -2.45499 0
M  V30 3535 H 340.761 -6.57414 -2.29739 0
M  V30 3536 H 338.388 -7.27759 -2.19706 0
M  V30 3537 N 339.963 1.05934 -1.16686 0
M  V30 3538 C 341.193 1.82226 -0.973515 0
M  V30 3539 C 341.601 1.8297 0.481532 0
M  V30 3540 O 340.944 1.25009 1.34604 0
M  V30 3541 C 341.006 3.29897 -1.42858 0
M  V30 3542 C 340.67 3.52849 -2.90425 0
M  V30 3543 C 341.667 3.45595 -3.88407 0
M  V30 3544 C 339.352 3.80053 -3.28428 0
M  V30 3545 C 341.346 3.65217 -5.22394 0
M  V30 3546 C 339.033 3.99325 -4.62583 0
M  V30 3547 C 340.031 3.91905 -5.59374 0
M  V30 3548 O 339.719 4.10647 -6.91104 0
M  V30 3549 H 339.451 0.581314 -0.345036 0
M  V30 3550 H 342.005 1.3453 -1.55212 0
M  V30 3551 H 340.235 3.78472 -0.793477 0
M  V30 3552 H 341.924 3.87692 -1.20207 0
M  V30 3553 H 342.69 3.24564 -3.60393 0
M  V30 3554 H 338.569 3.84936 -2.53664 0
M  V30 3555 H 342.113 3.59341 -5.9793 0
M  V30 3556 H 338.01 4.19846 -4.90306 0
M  V30 3557 H 338.778 4.27915 -6.97733 0
M  V30 3558 N 341.441 0.965919 1.2453 0
M  V30 3559 C 342.857 0.67216 1.44756 0
M  V30 3560 C 343.057 -0.766609 1.86347 0
M  V30 3561 O 342.113 -1.5407 2.00047 0
M  V30 3562 C 343.426 1.65473 2.51076 0
M  V30 3563 C 344.974 1.66716 2.64905 0
M  V30 3564 C 345.449 2.63766 3.74421 0
M  V30 3565 N 346.94 2.62198 3.81846 0
M  V30 3566 C 347.675 3.33966 4.66106 0
M  V30 3567 N 347.171 4.15245 5.54566 0
M  V30 3568 N 348.964 3.22799 4.60171 0
M  V30 3569 H 341.115 1.89553 0.958293 0
M  V30 3570 H 343.378 0.815979 0.482579 0
M  V30 3571 H 343.084 2.68296 2.27399 0
M  V30 3572 H 342.958 1.4261 3.49202 0
M  V30 3573 H 345.345 0.646057 2.87941 0
M  V30 3574 H 345.426 1.93642 1.67142 0
M  V30 3575 H 345.07 3.6601 3.52135 0
M  V30 3576 H 345 2.34121 4.71694 0
M  V30 3577 H 347.491 2.032 3.18619 0
M  V30 3578 H 347.804 4.66898 6.15814 0
M  V30 3579 H 346.149 4.1934 5.54237 0
M  V30 3580 H 349.34 2.58764 3.90075 0
M  V30 3581 H 349.513 3.78994 5.25612 0
M  V30 3582 N 342.919 -1.39368 0.735821 0
M  V30 3583 C 344.335 -1.54204 0.411492 0
M  V30 3584 C 344.535 -1.70268 -1.07755 0
M  V30 3585 O 343.591 -1.70364 -1.86366 0
M  V30 3586 C 344.904 -2.75925 1.19523 0
M  V30 3587 C 346.452 -2.89761 1.18354 0
M  V30 3588 C 346.927 -4.14421 1.94986 0
M  V30 3589 N 348.418 -4.21462 1.92156 0
M  V30 3590 C 349.153 -5.16871 2.48258 0
M  V30 3591 N 348.649 -6.18063 3.13001 0
M  V30 3592 N 350.442 -5.09093 2.38287 0
M  V30 3593 H 342.593 -1.27189 1.70108 0
M  V30 3594 H 344.856 -0.616517 0.720147 0
M  V30 3595 H 344.562 -2.70401 2.24892 0
M  V30 3596 H 344.436 -3.68614 0.800222 0
M  V30 3597 H 346.823 -2.94777 0.137975 0
M  V30 3598 H 346.904 -1.98133 1.61793 0
M  V30 3599 H 346.548 -4.10166 2.99543 0
M  V30 3600 H 346.478 -5.05095 1.48953 0
M  V30 3601 H 348.969 -3.48979 1.44991 0
M  V30 3602 H 349.282 -6.87326 3.53275 0
M  V30 3603 H 347.627 -6.18448 3.17091 0
M  V30 3604 H 350.818 -4.28973 1.8735 0
M  V30 3605 H 350.991 -5.83272 2.82308 0
M  V30 3606 N 344.397 -0.483516 -1.5 0
M  V30 3607 C 345.622 0.0667119 -2.07293 0
M  V30 3608 C 346.047 1.3164 -1.3436 0
M  V30 3609 O 345.405 1.76945 -0.394987 0
M  V30 3610 C 345.453 0.321126 -3.59167 0
M  V30 3611 O 344.557 1.39927 -3.87936 0
M  V30 3612 H 343.898 -0.0184758 -0.663743 0
M  V30 3613 H 346.428 -0.678125 -1.93035 0
M  V30 3614 H 346.438 0.557906 -4.04168 0
M  V30 3615 H 345.113 -0.592007 -4.11665 0
M  V30 3616 H 343.69 1.14882 -3.54763 0
M  V30 3617 N 345.875 1.56104 -0.216619 0
M  V30 3618 C 346.807 2.17339 0.72776 0
M  V30 3619 C 347.82 1.14109 1.16116 0
M  V30 3620 O 349.009 1.4111 1.09317 0
M  V30 3621 C 346.109 2.73818 1.99693 0
M  V30 3622 C 345.282 4.02168 1.71988 0
M  V30 3623 C 344.341 4.43259 2.83562 0
M  V30 3624 O 343.367 5.10257 2.52244 0
M  V30 3625 N 344.569 4.08535 4.12407 0
M  V30 3626 H 347.334 2.99005 0.203983 0
M  V30 3627 H 344.895 1.61861 -0.0354289 0
M  V30 3628 H 346.887 2.9828 2.73516 0
M  V30 3629 H 345.457 1.96483 2.43132 0
M  V30 3630 H 344.677 3.85612 0.818337 0
M  V30 3631 H 345.965 4.85907 1.50903 0
M  V30 3632 H 345.363 3.54687 4.40696 0
M  V30 3633 H 343.92 4.37901 4.8279 0
M  V30 3634 N 347.353 -0.0568162 1.57498 0
M  V30 3635 C 348.602 -0.752001 1.87157 0
M  V30 3636 C 348.915 -1.77978 0.811375 0
M  V30 3637 O 350.121 -2.52559 0.996293 0
M  V30 3638 C 348.577 -1.38844 3.3204 0
M  V30 3639 C 348.185 -0.398456 4.46225 0
M  V30 3640 C 349.929 -2.06512 3.70882 0
M  V30 3641 C 347.836 -1.04166 5.82154 0
M  V30 3642 H 346.766 -0.28461 0.698222 0
M  V30 3643 H 349.417 -0.00561272 1.83499 0
M  V30 3644 H 347.799 -2.1836 3.30356 0
M  V30 3645 H 348.973 0.367977 4.59328 0
M  V30 3646 H 347.288 0.174592 4.16034 0
M  V30 3647 H 349.885 -2.55437 4.6974 0
M  V30 3648 H 350.228 -2.87117 3.01445 0
M  V30 3649 H 350.761 -1.33808 3.7462 0
M  V30 3650 H 347.5 -0.275614 6.5492 0
M  V30 3651 H 347.02 -1.7786 5.72823 0
M  V30 3652 H 348.699 -1.55715 6.27982 0
M  V30 3653 N 348.832 -1.54138 -0.328536 0
M  V30 3654 C 350.057 -1.76378 -1.09112 0
M  V30 3655 C 350.482 -0.508596 -1.81094 0
M  V30 3656 O 349.84 0.539598 -1.73084 0
M  V30 3657 C 349.888 -2.95358 -2.06872 0
M  V30 3658 O 348.992 -2.66556 -3.14677 0
M  V30 3659 H 348.333 -0.584614 -0.314838 0
M  V30 3660 H 350.863 -2.01146 -0.374348 0
M  V30 3661 H 350.873 -3.22566 -2.4983 0
M  V30 3662 H 349.548 -3.86385 -1.5388 0
M  V30 3663 H 348.125 -2.50282 -2.7643 0
M  V30 3664 N 350.31 0.590341 -1.46126 0
M  V30 3665 C 351.243 1.71434 -1.50617 0
M  V30 3666 C 352.221 1.58543 -0.360948 0
M  V30 3667 O 353.405 1.79865 -0.563985 0
M  V30 3668 C 350.532 3.09422 -1.37753 0
M  V30 3669 C 349.578 3.40854 -2.5636 0
M  V30 3670 S 350.411 3.33773 -4.18755 0
M  V30 3671 C 351.567 4.74312 -4.08386 0
M  V30 3672 H 351.8 1.67364 -2.45717 0
M  V30 3673 H 349.333 0.76845 -1.33919 0
M  V30 3674 H 351.291 3.8903 -1.31018 0
M  V30 3675 H 349.952 3.10989 -0.440949 0
M  V30 3676 H 349.145 4.41368 -2.43332 0
M  V30 3677 H 348.747 2.68798 -2.60046 0
M  V30 3678 H 351.039 5.64522 -3.74595 0
M  V30 3679 H 351.982 4.92397 -5.08872 0
M  V30 3680 H 352.39 4.50803 -3.3976 0
M  V30 3681 N 351.788 1.33704 0.83433 0
M  V30 3682 C 352.698 1.26382 1.97648 0
M  V30 3683 C 353.714 0.173548 1.73132 0
M  V30 3684 O 354.89 0.397962 1.97429 0
M  V30 3685 C 351.955 1.00769 3.31733 0
M  V30 3686 C 351.016 2.1884 3.69334 0
M  V30 3687 C 350.249 1.9444 4.9702 0
M  V30 3688 O 350.472 0.896961 5.63303 0
M  V30 3689 O 349.406 2.81093 5.32231 0
M  V30 3690 H 353.232 2.22444 2.06767 0
M  V30 3691 H 350.817 1.13795 0.968037 0
M  V30 3692 H 352.699 0.882186 4.12062 0
M  V30 3693 H 351.374 0.0773783 3.23608 0
M  V30 3694 H 350.281 2.36946 2.89495 0
M  V30 3695 H 351.614 3.10221 3.82131 0
M  V30 3696 N 353.266 -1.05314 1.17247 0
M  V30 3697 C 354.198 -2.13023 0.845812 0
M  V30 3698 C 355.211 -1.62096 -0.151246 0
M  V30 3699 O 356.4 -1.78343 0.0748818 0
M  V30 3700 C 353.5 -3.38047 0.240292 0
M  V30 3701 C 352.673 -4.18255 1.27991 0
M  V30 3702 C 351.732 -5.21625 0.692375 0
M  V30 3703 O 350.758 -5.52619 1.36385 0
M  V30 3704 N 351.96 -5.78201 -0.516178 0
M  V30 3705 H 354.725 -2.41642 1.77283 0
M  V30 3706 H 352.286 -1.21401 1.07115 0
M  V30 3707 H 354.278 -4.04359 -0.16603 0
M  V30 3708 H 352.848 -3.06972 -0.590487 0
M  V30 3709 H 352.068 -3.47451 1.86203 0
M  V30 3710 H 353.356 -4.68643 1.98119 0
M  V30 3711 H 352.754 -5.55301 -1.07969 0
M  V30 3712 H 351.311 -6.4604 -0.86458 0
M  V30 3713 N 354.744 -0.972509 -1.24016 0
M  V30 3714 C 355.674 -0.525548 -2.27509 0
M  V30 3715 C 356.655 0.437262 -1.64384 0
M  V30 3716 O 357.84 0.332343 -1.91335 0
M  V30 3717 C 354.97 0.180448 -3.46831 0
M  V30 3718 C 353.924 -0.698859 -4.22256 0
M  V30 3719 C 353.25 0.138903 -5.3452 0
M  V30 3720 C 354.55 -1.98582 -4.83076 0
M  V30 3721 H 356.244 -1.39058 -2.65148 0
M  V30 3722 H 353.79 -0.67009 -1.27459 0
M  V30 3723 H 355.743 0.504387 -4.18371 0
M  V30 3724 H 354.467 1.07987 -3.08231 0
M  V30 3725 H 353.126 -1.00614 -3.52523 0
M  V30 3726 H 352.774 1.03862 -4.9216 0
M  V30 3727 H 352.474 -0.446259 -5.85903 0
M  V30 3728 H 353.998 0.457404 -6.08884 0
M  V30 3729 H 355.412 -1.72715 -5.46665 0
M  V30 3730 H 353.809 -2.5181 -5.44713 0
M  V30 3731 H 354.879 -2.67769 -4.04262 0
M  V30 3732 N 356.222 1.38976 -0.743202 0
M  V30 3733 C 357.132 2.3434 -0.110399 0
M  V30 3734 C 358.148 1.58741 0.712559 0
M  V30 3735 O 359.324 1.9099 0.639125 0
M  V30 3736 C 356.389 3.37812 0.780012 0
M  V30 3737 C 355.45 4.29263 -0.0561319 0
M  V30 3738 C 354.683 5.27793 0.791875 0
M  V30 3739 O 354.906 5.33043 2.03031 0
M  V30 3740 O 353.84 6.01512 0.216183 0
M  V30 3741 H 357.666 2.90129 -0.897714 0
M  V30 3742 H 355.251 1.40643 -0.503966 0
M  V30 3743 H 357.133 4.01194 1.28923 0
M  V30 3744 H 355.808 2.84395 1.546 0
M  V30 3745 H 354.715 3.69076 -0.611056 0
M  V30 3746 H 356.048 4.85907 -0.784531 0
M  V30 3747 N 357.7 0.491464 1.49741 0
M  V30 3748 C 358.647 -0.292027 2.28945 0
M  V30 3749 C 359.617 -0.968973 1.34908 0
M  V30 3750 O 360.802 -0.97748 1.6386 0
M  V30 3751 C 357.942 -1.35617 3.17336 0
M  V30 3752 C 357.055 -0.691957 4.26422 0
M  V30 3753 C 356.19 -1.73572 5.02042 0
M  V30 3754 C 355.229 -1.05286 6.02977 0
M  V30 3755 N 354.366 -2.0404 6.71798 0
M  V30 3756 H 359.206 0.389654 2.95442 0
M  V30 3757 H 356.743 0.204003 1.45679 0
M  V30 3758 H 358.701 -1.98502 3.66951 0
M  V30 3759 H 357.331 -2.00674 2.52844 0
M  V30 3760 H 356.383 0.0499523 3.80367 0
M  V30 3761 H 357.695 -0.153946 4.98562 0
M  V30 3762 H 356.849 -2.43987 5.55478 0
M  V30 3763 H 355.588 -2.30757 4.29654 0
M  V30 3764 H 354.593 -0.334446 5.48782 0
M  V30 3765 H 355.818 -0.487636 6.77347 0
M  V30 3766 H 353.764 -2.60205 6.02187 0
M  V30 3767 H 353.681 -1.55279 7.39881 0
M  V30 3768 H 354.949 -2.73772 7.29842 0
M  V30 3769 N 359.178 -1.55987 0.224894 0
M  V30 3770 C 360.108 -2.23426 -0.678457 0
M  V30 3771 C 361.089 -1.20709 -1.19847 0
M  V30 3772 O 362.274 -1.49304 -1.24186 0
M  V30 3773 C 359.404 -2.91676 -1.88527 0
M  V30 3774 C 358.358 -4.00893 -1.49896 0
M  V30 3775 C 357.684 -4.56455 -2.78483 0
M  V30 3776 C 358.984 -5.17769 -0.686461 0
M  V30 3777 H 360.678 -2.99175 -0.116173 0
M  V30 3778 H 358.224 -1.43897 -0.054436 0
M  V30 3779 H 360.177 -3.37547 -2.5227 0
M  V30 3780 H 358.901 -2.1338 -2.47258 0
M  V30 3781 H 357.56 -3.55758 -0.884985 0
M  V30 3782 H 357.208 -3.74886 -3.35365 0
M  V30 3783 H 356.908 -5.30169 -2.53368 0
M  V30 3784 H 358.432 -5.05047 -3.43162 0
M  V30 3785 H 359.846 -5.60001 -1.22767 0
M  V30 3786 H 358.243 -5.97735 -0.532259 0
M  V30 3787 H 359.313 -4.83932 0.306196 0
M  V30 3788 N 360.656 0.0484629 -1.57525 0
M  V30 3789 C 361.588 1.08222 -2.02041 0
M  V30 3790 C 362.601 1.33621 -0.930012 0
M  V30 3791 O 363.79 1.3145 -1.20761 0
M  V30 3792 C 360.89 2.42818 -2.36416 0
M  V30 3793 C 360.063 2.37049 -3.67596 0
M  V30 3794 C 359.122 3.53937 -3.89378 0
M  V30 3795 O 358.148 3.34308 -4.60681 0
M  V30 3796 N 359.35 4.75126 -3.3352 0
M  V30 3797 H 362.115 0.702946 -2.9134 0
M  V30 3798 H 359.676 0.236745 -1.6016 0
M  V30 3799 H 361.668 3.197 -2.48141 0
M  V30 3800 H 360.238 2.72661 -1.52888 0
M  V30 3801 H 359.458 1.45395 -3.66407 0
M  V30 3802 H 360.746 2.30318 -4.53686 0
M  V30 3803 H 360.144 4.93976 -2.75688 0
M  V30 3804 H 358.701 5.49439 -3.50656 0
M  V30 3805 N 362.134 1.5431 0.320358 0
M  V30 3806 C 363.382 1.72327 1.05583 0
M  V30 3807 C 363.703 0.50149 1.88441 0
M  V30 3808 O 362.973 -0.48448 1.89815 0
M  V30 3809 H 361.553 0.635387 0.3928 0
M  V30 3810 H 364.215 1.91621 0.356019 0
M  V30 3811 H 363.311 2.60426 1.72003 0
M  V30 3812 N 363.613 -0.582584 1.46437 0
M  V30 3813 C 364.841 -1.36682 1.55324 0
M  V30 3814 C 365.256 -1.87796 0.194409 0
M  V30 3815 O 364.613 -1.63623 -0.808318 0
M  V30 3816 C 364.664 -2.55426 2.55812 0
M  V30 3817 O 364.385 -2.0643 3.86417 0
M  V30 3818 C 365.886 -3.47976 2.74641 0
M  V30 3819 H 363.106 -0.417545 0.525259 0
M  V30 3820 H 365.65 -0.708219 1.91845 0
M  V30 3821 H 363.805 -3.17275 2.22295 0
M  V30 3822 H 364.219 -2.83762 4.41111 0
M  V30 3823 H 365.693 -4.27775 3.48874 0
M  V30 3824 H 366.17 -3.99919 1.81553 0
M  V30 3825 H 366.776 -2.91962 3.09255 0
M  V30 3826 N 365.091 -1.34144 -0.827227 0
M  V30 3827 C 366.021 -1.28005 -1.95287 0
M  V30 3828 C 367.002 -0.158321 -1.69362 0
M  V30 3829 O 368.187 -0.349987 -1.9102 0
M  V30 3830 C 365.317 -1.03036 -3.31664 0
M  V30 3831 C 364.271 -2.11628 -3.72019 0
M  V30 3832 C 363.597 -1.71854 -5.0633 0
M  V30 3833 C 364.897 -3.53417 -3.8457 0
M  V30 3834 H 366.591 -2.22187 -2.00682 0
M  V30 3835 H 364.137 -1.0696 -0.964135 0
M  V30 3836 H 366.09 -0.973863 -4.09993 0
M  V30 3837 H 364.814 -0.0529391 -3.26557 0
M  V30 3838 H 363.473 -2.16339 -2.95961 0
M  V30 3839 H 363.121 -0.727841 -4.97706 0
M  V30 3840 H 362.821 -2.44531 -5.34302 0
M  V30 3841 H 364.345 -1.67692 -5.87122 0
M  V30 3842 H 365.759 -3.51142 -4.5318 0
M  V30 3843 H 364.156 -4.24679 -4.2399 0
M  V30 3844 H 365.226 -3.91072 -2.86689 0
M  V30 3845 N 366.569 1.04691 -1.17803 0
M  V30 3846 C 367.816 1.77782 -0.969532 0
M  V30 3847 C 368.144 1.87926 0.501401 0
M  V30 3848 O 367.399 1.37918 1.38842 0
M  V30 3849 C 367.698 3.21467 -1.56186 0
M  V30 3850 C 367.364 3.3137 -3.05786 0
M  V30 3851 C 366.026 3.3378 -3.46619 0
M  V30 3852 C 368.378 3.31976 -4.01797 0
M  V30 3853 C 365.706 3.34431 -4.82051 0
M  V30 3854 C 368.058 3.34167 -5.37136 0
M  V30 3855 C 366.722 3.34866 -5.77426 0
M  V30 3856 H 365.992 0.650549 -0.354777 0
M  V30 3857 H 368.639 1.23006 -1.46772 0
M  V30 3858 H 366.944 3.79203 -0.985515 0
M  V30 3859 H 368.641 3.76652 -1.37602 0
M  V30 3860 H 365.231 3.3021 -2.73238 0
M  V30 3861 H 369.415 3.29311 -3.71306 0
M  V30 3862 H 364.671 3.33285 -5.12573 0
M  V30 3863 H 368.845 3.33585 -6.11305 0
M  V30 3864 H 366.472 3.35124 -6.82346 0
M  V30 3865 N 368.047 0.979072 1.23499 0
M  V30 3866 C 369.272 0.664845 1.96455 0
M  V30 3867 C 369.697 -0.761287 1.72006 0
M  V30 3868 O 369.055 -1.51837 0.990713 0
M  V30 3869 C 369.103 0.959479 3.47601 0
M  V30 3870 O 368.207 0.0508168 4.12369 0
M  V30 3871 H 367.548 0.250185 0.615064 0
M  V30 3872 H 370.078 1.31231 1.5697 0
M  V30 3873 H 370.088 0.895642 3.98048 0
M  V30 3874 H 368.763 1.99876 3.64723 0
M  V30 3875 H 367.34 0.16895 3.72517 0
M  V30 3876 N 369.525 -1.3858 0.750561 0
M  V30 3877 C 370.753 -2.04471 0.316098 0
M  V30 3878 C 371.168 -1.56606 -1.05452 0
M  V30 3879 O 370.525 -0.737784 -1.66922 0
M  V30 3880 C 370.576 -3.60025 0.326275 0
M  V30 3881 O 370.297 -4.06133 1.6428 0
M  V30 3882 C 371.798 -4.43131 -0.122429 0
M  V30 3883 H 369.018 -0.65717 0.135528 0
M  V30 3884 H 371.562 -1.77329 1.01857 0
M  V30 3885 H 369.717 -3.86014 -0.327431 0
M  V30 3886 H 370.131 -5.00547 1.56693 0
M  V30 3887 H 371.605 -5.51963 -0.0641473 0
M  V30 3888 H 372.082 -4.23333 -1.16988 0
M  V30 3889 H 372.688 -4.22323 0.50229 0
M  V30 3890 N 371.003 -0.499398 -1.49478 0
M  V30 3891 C 371.913 0.284489 -2.32869 0
M  V30 3892 C 372.929 0.968885 -1.44529 0
M  V30 3893 O 374.105 0.95062 -1.77553 0
M  V30 3894 C 371.17 1.33594 -3.19928 0
M  V30 3895 C 370.231 0.665149 -4.24116 0
M  V30 3896 C 369.464 1.6665 -5.07014 0
M  V30 3897 O 369.687 2.89618 -4.91404 0
M  V30 3898 O 368.621 1.22271 -5.8935 0
M  V30 3899 H 372.447 -0.39802 -3.01081 0
M  V30 3900 H 370.032 -0.260758 -1.47107 0
M  V30 3901 H 371.914 1.94431 -3.73864 0
M  V30 3902 H 370.589 2.0014 -2.54412 0
M  V30 3903 H 369.496 0.0170769 -3.74096 0
M  V30 3904 H 370.829 0.0421555 -4.92182 0
M  V30 3905 N 372.481 1.55866 -0.233164 0
M  V30 3906 C 373.391 2.24431 0.683217 0
M  V30 3907 C 374.407 1.2558 1.2044 0
M  V30 3908 O 375.583 1.58422 1.24356 0
M  V30 3909 C 372.648 2.91979 1.86947 0
M  V30 3910 C 371.709 4.06204 1.38912 0
M  V30 3911 C 370.942 4.70522 2.51883 0
M  V30 3912 O 371.165 4.33865 3.70293 0
M  V30 3913 O 370.099 5.59296 2.22423 0
M  V30 3914 H 373.925 3.03426 0.129059 0
M  V30 3915 H 371.51 1.494 -0.0022283 0
M  V30 3916 H 373.392 3.34573 2.56201 0
M  V30 3917 H 372.067 2.15935 2.41151 0
M  V30 3918 H 370.974 3.68155 0.664259 0
M  V30 3919 H 372.307 4.84025 0.893328 0
M  V30 3920 N 373.959 -0.0401083 1.57549 0
M  V30 3921 C 374.869 -1.06133 2.0922 0
M  V30 3922 C 375.885 -1.40356 1.0284 0
M  V30 3923 O 377.061 -1.49897 1.34509 0
M  V30 3924 C 374.126 -2.34658 2.55218 0
M  V30 3925 C 373.187 -2.07117 3.76033 0
M  V30 3926 C 372.42 -3.29514 4.19829 0
M  V30 3927 O 372.643 -4.39794 3.63232 0
M  V30 3928 O 371.577 -3.15863 5.12362 0
M  V30 3929 H 375.403 -0.652244 2.96613 0
M  V30 3930 H 372.988 -0.256368 1.47184 0
M  V30 3931 H 374.87 -3.10239 2.85184 0
M  V30 3932 H 373.545 -2.74883 1.70941 0
M  V30 3933 H 372.452 -1.29139 3.51104 0
M  V30 3934 H 373.785 -1.71754 4.61261 0
M  V30 3935 N 375.437 -1.54477 -0.31217 0
M  V30 3936 C 376.848 -1.64344 -0.885891 0
M  V30 3937 C 377.199 -0.54485 -1.88483 0
M  V30 3938 O 376.324 0.320387 -2.14015 0
M  V30 3939 C 376.919 -2.97908 -1.61357 0
M  V30 3940 C 375.478 -3.09933 -2.13585 0
M  V30 3941 C 374.625 -2.59971 -0.964897 0
M  V30 3942 H 377.576 -1.58448 -0.0894528 0
M  V30 3943 H 377.597 -2.88706 -2.47848 0
M  V30 3944 H 377.109 -3.77845 -0.886277 0
M  V30 3945 H 375.21 -2.34694 -2.89395 0
M  V30 3946 H 375.323 -4.15916 -2.37804 0
M  V30 3947 H 373.687 -2.16147 -1.34731 0
M  V30 3948 H 374.47 -3.42376 -0.251742 0
M  V30 3949 N 376.915 0.57481 -1.46744 0
M  V30 3950 C 378.14 1.36341 -1.56288 0
M  V30 3951 C 378.565 1.86954 -0.207347 0
M  V30 3952 O 377.923 1.62006 0.813871 0
M  V30 3953 C 377.971 2.52147 -2.57787 0
M  V30 3954 O 377.075 3.53834 -2.11838 0
M  V30 3955 H 376.416 0.405713 -0.525636 0
M  V30 3956 H 378.946 0.696453 -1.92382 0
M  V30 3957 H 378.956 2.98958 -2.77648 0
M  V30 3958 H 377.631 2.14663 -3.5622 0
M  V30 3959 H 376.208 3.1345 -2.01999 0
M  V30 3960 N 378.394 1.34581 0.820102 0
M  V30 3961 C 379.341 1.2639 1.93117 0
M  V30 3962 C 380.311 0.138554 1.65521 0
M  V30 3963 O 381.496 0.320004 1.88097 0
M  V30 3964 C 378.636 1.02812 3.29429 0
M  V30 3965 C 377.749 2.24146 3.693 0
M  V30 3966 C 376.884 1.93829 4.94574 0
M  V30 3967 C 375.923 3.1129 5.27034 0
M  V30 3968 N 375.06 2.80838 6.43486 0
M  V30 3969 H 379.9 2.21408 1.99455 0
M  V30 3970 H 377.437 1.10077 0.975784 0
M  V30 3971 H 379.395 0.871788 4.0799 0
M  V30 3972 H 378.025 0.114612 3.22596 0
M  V30 3973 H 377.077 2.50691 2.86109 0
M  V30 3974 H 378.389 3.11899 3.89257 0
M  V30 3975 H 377.543 1.74948 5.80929 0
M  V30 3976 H 376.282 1.03341 4.76626 0
M  V30 3977 H 375.287 3.30764 4.39175 0
M  V30 3978 H 376.512 4.02561 5.4692 0
M  V30 3979 H 374.458 1.92929 6.26988 0
M  V30 3980 H 374.375 3.62123 6.63629 0
M  V30 3981 H 375.643 2.65467 7.32903 0
M  V30 3982 N 379.872 -1.04064 1.18357 0
M  V30 3983 C 380.802 -2.14001 0.934113 0
M  V30 3984 C 381.783 -1.69616 -0.128186 0
M  V30 3985 O 382.968 -1.94185 0.0244093 0
M  V30 3986 C 380.098 -3.44253 0.459066 0
M  V30 3987 C 379.052 -4.02261 1.46185 0
M  V30 3988 C 378.378 -5.27992 0.844322 0
M  V30 3989 C 379.678 -4.38432 2.83856 0
M  V30 3990 H 381.372 -2.35127 1.85352 0
M  V30 3991 H 378.918 -1.12998 0.892604 0
M  V30 3992 H 380.871 -4.20522 0.271907 0
M  V30 3993 H 379.595 -3.22813 -0.495912 0
M  V30 3994 H 378.254 -3.28074 1.63595 0
M  V30 3995 H 377.902 -5.02862 -0.117845 0
M  V30 3996 H 377.602 -5.67765 1.51384 0
M  V30 3997 H 379.126 -6.06938 0.667693 0
M  V30 3998 H 380.54 -5.05688 2.70098 0
M  V30 3999 H 378.937 -4.89254 3.47491 0
M  V30 4000 H 380.007 -3.4826 3.37406 0
M  V30 4001 N 381.35 -0.985608 -1.22978 0
M  V30 4002 C 382.28 -0.549649 -2.26939 0
M  V30 4003 C 383.261 0.419803 -1.64838 0
M  V30 4004 O 384.446 0.31203 -1.91677 0
M  V30 4005 C 381.576 0.143652 -3.47003 0
M  V30 4006 C 380.53 -0.743606 -4.21491 0
M  V30 4007 C 379.856 0.0822027 -5.34637 0
M  V30 4008 C 381.156 -2.03694 -4.80943 0
M  V30 4009 H 382.85 -1.41862 -2.63658 0
M  V30 4010 H 380.396 -0.683571 -1.26741 0
M  V30 4011 H 382.349 0.459985 -4.18882 0
M  V30 4012 H 381.073 1.04711 -3.09359 0
M  V30 4013 H 379.732 -1.04347 -3.51436 0
M  V30 4014 H 379.38 0.986359 -4.93234 0
M  V30 4015 H 379.08 -0.508377 -5.85397 0
M  V30 4016 H 380.604 0.392797 -6.09335 0
M  V30 4017 H 382.018 -1.78504 -5.44802 0
M  V30 4018 H 380.415 -2.57573 -5.42011 0
M  V30 4019 H 381.485 -2.72042 -4.01399 0
M  V30 4020 N 382.828 1.3818 -0.7579 0
M  V30 4021 C 384.074 2.00316 -0.316453 0
M  V30 4022 C 384.407 1.60026 1.10025 0
M  V30 4023 O 383.682 0.839835 1.75434 0
M  V30 4024 C 383.965 3.57349 -0.444245 0
M  V30 4025 C 383.818 4.07591 -1.90236 0
M  V30 4026 C 385.137 4.3981 0.1598 0
M  V30 4027 H 382.256 0.727741 -0.116459 0
M  V30 4028 H 384.898 1.6406 -0.958352 0
M  V30 4029 H 383.048 3.88365 0.102233 0
M  V30 4030 H 384.72 3.87199 -2.50748 0
M  V30 4031 H 382.963 3.60297 -2.41595 0
M  V30 4032 H 383.634 5.16677 -1.94291 0
M  V30 4033 H 386.11 4.14971 -0.306314 0
M  V30 4034 H 384.986 5.48885 0.0401675 0
M  V30 4035 H 385.247 4.24102 1.24859 0
M  V30 4036 N 384.306 0.507319 1.49211 0
M  V30 4037 C 385.238 -0.304532 2.27168 0
M  V30 4038 C 386.251 -0.924956 1.33972 0
M  V30 4039 O 387.44 -0.807227 1.59205 0
M  V30 4040 C 384.54 -1.44431 3.06583 0
M  V30 4041 C 383.713 -0.930026 4.27398 0
M  V30 4042 C 382.772 -1.94817 4.88807 0
M  V30 4043 O 381.798 -1.51418 5.4869 0
M  V30 4044 N 383 -3.279 4.79022 0
M  V30 4045 H 385.765 0.36395 2.97482 0
M  V30 4046 H 383.326 0.340249 1.58284 0
M  V30 4047 H 385.318 -2.12311 3.44537 0
M  V30 4048 H 383.888 -2.01684 2.38835 0
M  V30 4049 H 383.108 -0.0759244 3.94127 0
M  V30 4050 H 384.396 -0.564932 5.05654 0
M  V30 4051 H 383.794 -3.65843 4.3148 0
M  V30 4052 H 382.351 -3.91476 5.21142 0
M  V30 4053 N 385.784 -1.5574 0.241426 0
M  V30 4054 C 386.732 -2.22538 -0.676718 0
M  V30 4055 C 387.726 -1.21117 -1.18436 0
M  V30 4056 O 388.932 -1.39144 -1.14188 0
M  V30 4057 H 385.307 -0.713776 -0.236701 0
M  V30 4058 H 387.278 -2.98264 -0.0901187 0
M  V30 4059 C 386.027 -2.93439 -1.86518 0
M  V30 4060 H 385.35 -3.7125 -1.4837 0
M  V30 4061 H 386.79 -3.43549 -2.48495 0
M  V30 4062 C 385.249 -1.97008 -2.73294 0
M  V30 4063 O 385.779 -1.49965 -3.72657 0
M  V30 4064 N 383.985 -1.64227 -2.39745 0
M  V30 4065 H 383.532 -2.02677 -1.58996 0
M  V30 4066 H 383.49 -0.999708 -2.98083 0
M  V30 4067 N 387.262 0.0317525 -1.57568 0
M  V30 4068 C 388.492 0.733884 -1.93126 0
M  V30 4069 C 388.9 1.69563 -0.839352 0
M  V30 4070 O 388.243 1.82681 0.193175 0
M  V30 4071 C 388.305 1.54798 -3.24465 0
M  V30 4072 C 387.969 0.751304 -4.50782 0
M  V30 4073 C 388.966 0.0527632 -5.19873 0
M  V30 4074 C 386.651 0.706639 -4.97305 0
M  V30 4075 C 388.645 -0.679774 -6.33765 0
M  V30 4076 C 386.332 -0.0296449 -6.11093 0
M  V30 4077 C 387.33 -0.721614 -6.79177 0
M  V30 4078 O 387.018 -1.44595 -7.90789 0
M  V30 4079 H 386.75 0.211459 -0.642076 0
M  V30 4080 H 389.304 -0.00585615 -2.05399 0
M  V30 4081 H 387.534 2.33147 -3.08512 0
M  V30 4082 H 389.223 2.13247 -3.4537 0
M  V30 4083 H 389.989 0.0783188 -4.84937 0
M  V30 4084 H 385.868 1.23474 -4.44157 0
M  V30 4085 H 389.412 -1.22042 -6.86842 0
M  V30 4086 H 385.309 -0.0571331 -6.45475 0
M  V30 4087 H 386.077 -1.35935 -8.07133 0
M  V30 4088 N 388.74 1.54641 0.303973 0
M  V30 4089 C 390.156 1.45788 0.649463 0
M  V30 4090 C 390.356 0.64666 1.90842 0
M  V30 4091 O 389.412 0.153183 2.52035 0
M  V30 4092 C 390.725 2.89718 0.805227 0
M  V30 4093 C 392.273 2.99742 0.901305 0
M  V30 4094 C 392.748 4.44863 1.08909 0
M  V30 4095 N 394.239 4.48559 1.15536 0
M  V30 4096 C 394.974 5.58026 1.3189 0
M  V30 4097 N 394.47 6.77422 1.45161 0
M  V30 4098 N 396.263 5.45708 1.34755 0
M  V30 4099 H 388.414 2.05854 -0.523237 0
M  V30 4100 H 390.677 0.932186 -0.172431 0
M  V30 4101 H 390.383 3.51666 -0.0489108 0
M  V30 4102 H 390.257 3.36964 1.69513 0
M  V30 4103 H 392.644 2.3791 1.74593 0
M  V30 4104 H 392.725 2.55797 -0.0125531 0
M  V30 4105 H 392.369 5.07288 0.249241 0
M  V30 4106 H 392.299 4.86436 2.01713 0
M  V30 4107 H 394.79 3.6254 1.06646 0
M  V30 4108 H 395.103 7.56604 1.57387 0
M  V30 4109 H 393.448 6.80292 1.42223 0
M  V30 4110 H 396.639 4.51378 1.23996 0
M  V30 4111 H 396.812 6.3107 1.47157 0
M  V30 4112 N 390.218 -0.567019 1.47046 0
M  V30 4113 C 391.181 -1.65696 1.58359 0
M  V30 4114 C 392.181 -1.54097 0.459441 0
M  V30 4115 O 393.371 -1.58432 0.724225 0
M  V30 4116 C 390.503 -3.05197 1.51879 0
M  V30 4117 H 391.696 -1.57019 2.5551 0
M  V30 4118 H 389.249 -0.786148 1.3509 0
M  V30 4119 H 389.984 -3.19417 0.560673 0
M  V30 4120 H 389.769 -3.15025 2.33455 0
M  V30 4121 H 391.259 -3.84511 1.62913 0
M  V30 4122 N 391.696 -1.35014 -0.812953 0
M  V30 4123 C 392.626 -1.30069 -1.93919 0
M  V30 4124 C 393.607 -0.176275 -1.69184 0
M  V30 4125 O 394.792 -0.370227 -1.90638 0
M  V30 4126 C 391.922 -1.06547 -3.30552 0
M  V30 4127 C 390.876 -2.15561 -3.69753 0
M  V30 4128 C 390.202 -1.77214 -5.04479 0
M  V30 4129 C 391.502 -3.57476 -3.808 0
M  V30 4130 H 393.196 -2.24303 -1.98314 0
M  V30 4131 H 390.742 -1.07977 -0.952736 0
M  V30 4132 H 392.695 -1.01729 -4.08937 0
M  V30 4133 H 391.419 -0.0875719 -3.26483 0
M  V30 4134 H 390.078 -2.19466 -2.9365 0
M  V30 4135 H 389.726 -0.780589 -4.96906 0
M  V30 4136 H 389.426 -2.50184 -5.31678 0
M  V30 4137 H 390.95 -1.7391 -5.8531 0
M  V30 4138 H 392.364 -3.55929 -4.4943 0
M  V30 4139 H 390.761 -4.29152 -4.19462 0
M  V30 4140 H 391.831 -3.94091 -2.82525 0
M  V30 4141 N 393.175 1.03435 -1.18907 0
M  V30 4142 C 394.107 2.1165 -0.879595 0
M  V30 4143 C 395.12 1.62316 0.125439 0
M  V30 4144 O 396.309 1.78201 -0.103245 0
M  V30 4145 C 393.409 3.37622 -0.294042 0
M  V30 4146 C 392.582 4.16166 -1.34629 0
M  V30 4147 C 391.641 5.20457 -0.775274 0
M  V30 4148 O 390.667 5.50379 -1.4516 0
M  V30 4149 N 391.869 5.78949 0.424126 0
M  V30 4150 H 394.634 2.38791 -1.81105 0
M  V30 4151 H 392.195 1.19681 -1.09032 0
M  V30 4152 H 394.187 4.04572 0.101679 0
M  V30 4153 H 392.757 3.07873 0.541575 0
M  V30 4154 H 391.977 3.44444 -1.91707 0
M  V30 4155 H 393.265 4.65432 -2.05549 0
M  V30 4156 H 392.663 5.56948 0.991209 0
M  V30 4157 H 391.22 6.47334 0.761691 0
M  V30 4158 N 394.653 0.992116 1.22453 0
M  V30 4159 C 396.064 0.702776 1.72968 0
M  V30 4160 C 396.415 -0.780399 1.80012 0
M  V30 4161 O 395.54 -1.61007 1.44589 0
M  V30 4162 C 396.135 1.26903 3.14135 0
M  V30 4163 C 394.694 1.02909 3.62059 0
M  V30 4164 C 393.841 1.38969 2.39964 0
M  V30 4165 H 396.792 1.16457 1.07812 0
M  V30 4166 H 396.813 0.647223 3.74955 0
M  V30 4167 H 396.325 2.34851 3.08977 0
M  V30 4168 H 394.426 -0.0337979 3.72585 0
M  V30 4169 H 394.539 1.69191 4.48231 0
M  V30 4170 H 392.903 0.808279 2.41535 0
M  V30 4171 H 393.686 2.4792 2.37467 0
M  V30 4172 N 396.131 -1.37776 0.765217 0
M  V30 4173 C 397.061 -2.32945 0.160953 0
M  V30 4174 C 398.042 -1.55454 -0.690516 0
M  V30 4175 O 399.227 -1.83721 -0.629318 0
M  V30 4176 C 396.357 -3.39669 -0.724031 0
M  V30 4177 C 395.311 -4.27992 0.0256173 0
M  V30 4178 C 394.637 -5.25673 -0.978383 0
M  V30 4179 C 395.937 -5.08309 1.20082 0
M  V30 4180 H 397.631 -2.83728 0.955969 0
M  V30 4181 H 395.177 -1.36416 0.461149 0
M  V30 4182 H 397.13 -4.05219 -1.15652 0
M  V30 4183 H 395.854 -2.87396 -1.5515 0
M  V30 4184 H 394.513 -3.63964 0.438812 0
M  V30 4185 H 394.161 -4.69682 -1.80022 0
M  V30 4186 H 393.861 -5.85625 -0.481378 0
M  V30 4187 H 395.385 -5.94098 -1.40995 0
M  V30 4188 H 396.799 -5.67034 0.845307 0
M  V30 4189 H 395.196 -5.77554 1.62947 0
M  V30 4190 H 396.266 -4.41365 2.00811 0
M  V30 4191 N 397.609 -0.515225 -1.4894 0
M  V30 4192 C 398.557 0.269115 -2.31038 0
M  V30 4193 C 399.551 0.949443 -1.40292 0
M  V30 4194 O 400.757 0.87551 -1.57273 0
M  V30 4195 H 397.132 0.10565 -0.744542 0
M  V30 4196 H 399.103 -0.443096 -2.95092 0
M  V30 4197 C 397.852 1.31213 -3.21991 0
M  V30 4198 H 397.175 0.798034 -3.91754 0
M  V30 4199 H 398.615 1.83263 -3.82349 0
M  V30 4200 C 397.074 2.33791 -2.42576 0
M  V30 4201 O 397.604 3.3995 -2.14003 0
M  V30 4202 N 395.81 2.06625 -2.0434 0
M  V30 4203 H 395.357 1.20314 -2.27777 0
M  V30 4204 H 395.315 2.75483 -1.51514 0
M  V30 4205 N 399.087 1.5561 -0.249682 0
M  V30 4206 C 400.019 2.18834 0.681496 0
M  V30 4207 C 401.032 1.16546 1.1367 0
M  V30 4208 O 402.221 1.43397 1.06299 0
M  V30 4209 C 399.321 2.77992 1.9384 0
M  V30 4210 C 398.494 4.05725 1.63419 0
M  V30 4211 C 397.553 4.49174 2.74096 0
M  V30 4212 O 396.579 5.15492 2.41364 0
M  V30 4213 N 397.781 4.17191 4.03649 0
M  V30 4214 H 400.546 2.9937 0.140514 0
M  V30 4215 H 398.107 1.6175 -0.0697541 0
M  V30 4216 H 400.099 3.04015 2.67127 0
M  V30 4217 H 398.669 2.01596 2.38909 0
M  V30 4218 H 397.889 3.87261 0.736358 0
M  V30 4219 H 399.177 4.88999 1.40562 0
M  V30 4220 H 398.575 3.63955 4.33074 0
M  V30 4221 H 397.132 4.48043 4.73393 0
M  V30 4222 N 400.565 -0.0233959 1.57583 0
M  V30 4223 C 401.981 -0.379134 1.55031 0
M  V30 4224 C 402.181 -1.76255 0.976548 0
M  V30 4225 O 401.237 -2.45266 0.600078 0
M  V30 4226 C 402.55 -0.275792 2.99433 0
M  V30 4227 C 404.098 -0.352458 3.11009 0
M  V30 4228 C 404.573 -0.278501 4.57152 0
M  V30 4229 N 406.064 -0.337123 4.61972 0
M  V30 4230 C 406.799 -0.302876 5.726 0
M  V30 4231 N 406.295 -0.220589 6.92449 0
M  V30 4232 N 408.088 -0.353023 5.6099 0
M  V30 4233 H 400.239 0.881869 1.93227 0
M  V30 4234 H 402.502 0.335867 0.886509 0
M  V30 4235 H 402.208 0.675108 3.4516 0
M  V30 4236 H 402.082 -1.06721 3.61788 0
M  V30 4237 H 404.469 -1.29379 2.65226 0
M  V30 4238 H 404.55 0.468409 2.51475 0
M  V30 4239 H 404.194 0.659189 5.03604 0
M  V30 4240 H 404.124 -1.11755 5.14605 0
M  V30 4241 H 406.615 -0.403002 3.75745 0
M  V30 4242 H 406.928 -0.199713 7.72542 0
M  V30 4243 H 405.273 -0.186555 6.9475 0
M  V30 4244 H 408.464 -0.415339 4.66254 0
M  V30 4245 H 408.637 -0.322866 6.47195 0
M  V30 4246 N 402.043 -1.548 -0.295768 0
M  V30 4247 C 402.976 -1.81003 -1.38972 0
M  V30 4248 C 403.954 -0.661544 -1.48534 0
M  V30 4249 O 405.138 -0.902074 -1.65514 0
M  V30 4250 C 402.265 -1.95141 -2.76835 0
M  V30 4251 C 401.311 -3.17592 -2.84671 0
M  V30 4252 S 402.144 -4.75531 -2.46232 0
M  V30 4253 C 403.3 -4.92613 -3.86114 0
M  V30 4254 H 403.533 -2.73507 -1.16537 0
M  V30 4255 H 401.066 -1.46278 -0.494168 0
M  V30 4256 H 403.024 -2.03972 -3.56238 0
M  V30 4257 H 401.685 -1.03565 -2.96535 0
M  V30 4258 H 400.878 -3.24303 -3.85803 0
M  V30 4259 H 400.48 -3.07235 -2.13267 0
M  V30 4260 H 402.772 -4.76957 -4.81164 0
M  V30 4261 H 403.715 -5.94698 -3.8437 0
M  V30 4262 H 404.123 -4.2073 -3.76359 0
M  V30 4263 N 403.521 0.559213 -1.47345 0
M  V30 4264 C 404.767 1.31843 -1.54095 0
M  V30 4265 C 405.1 1.93149 -0.201726 0
M  V30 4266 O 404.375 1.77759 0.789428 0
M  V30 4267 C 404.658 2.43006 -2.65744 0
M  V30 4268 C 404.511 1.86581 -4.09277 0
M  V30 4269 C 405.83 3.44943 -2.73318 0
M  V30 4270 H 402.949 0.478012 -0.560957 0
M  V30 4271 H 405.591 0.625977 -1.79392 0
M  V30 4272 H 403.741 3.02072 -2.44305 0
M  V30 4273 H 405.413 1.31792 -4.42073 0
M  V30 4274 H 403.656 1.17268 -4.17649 0
M  V30 4275 H 404.327 2.66933 -4.83168 0
M  V30 4276 H 406.803 2.95793 -2.92653 0
M  V30 4277 H 405.679 4.20153 -3.53218 0
M  V30 4278 H 405.94 4.03665 -1.80296 0
M  V30 4279 N 404.999 1.35443 0.805782 0
M  V30 4280 C 406.246 1.28761 1.56291 0
M  V30 4281 C 406.574 -0.137747 1.94012 0
M  V30 4282 O 405.829 -1.1032 1.61642 0
M  V30 4283 C 406.128 2.14045 2.86216 0
M  V30 4284 C 405.794 3.62826 2.67709 0
M  V30 4285 C 404.456 4.0338 2.6237 0
M  V30 4286 C 406.808 4.57227 2.50186 0
M  V30 4287 C 404.136 5.36501 2.37451 0
M  V30 4288 C 406.488 5.90547 2.26797 0
M  V30 4289 C 405.152 6.30245 2.1988 0
M  V30 4290 H 404.422 0.471171 0.571908 0
M  V30 4291 H 407.069 1.67347 0.930974 0
M  V30 4292 H 405.374 1.68342 3.53791 0
M  V30 4293 H 407.071 2.0621 3.43917 0
M  V30 4294 H 403.661 3.30644 2.72713 0
M  V30 4295 H 407.845 4.2678 2.53323 0
M  V30 4296 H 403.101 5.66259 2.30567 0
M  V30 4297 H 407.275 6.63274 2.12228 0
M  V30 4298 H 404.902 7.33328 2.00333 0
M  V30 4299 N 406.477 -1.02803 1.19454 0
M  V30 4300 C 407.44 -2.09264 0.934955 0
M  V30 4301 C 408.44 -1.60576 -0.0849015 0
M  V30 4302 O 409.63 -1.73554 0.149933 0
M  V30 4303 C 406.762 -3.38482 0.40531 0
M  V30 4304 H 407.955 -2.33726 1.87916 0
M  V30 4305 H 405.508 -1.19426 1.00832 0
M  V30 4306 H 406.243 -3.19689 -0.544899 0
M  V30 4307 H 406.028 -3.75142 1.14065 0
M  V30 4308 H 407.518 -4.16894 0.242806 0
M  V30 4309 N 407.956 -0.998596 -1.21925 0
M  V30 4310 C 409.181 -0.696015 -1.95372 0
M  V30 4311 C 409.606 0.733826 -1.73195 0
M  V30 4312 O 408.964 1.50242 -1.01474 0
M  V30 4313 C 409.012 -1.01466 -3.4603 0
M  V30 4314 O 408.116 -0.116415 -4.12236 0
M  V30 4315 H 407.457 -0.259938 -0.611006 0
M  V30 4316 H 409.987 -1.33711 -1.54863 0
M  V30 4317 H 409.997 -0.958855 -3.96573 0
M  V30 4318 H 408.672 -2.05653 -3.61497 0
M  V30 4319 H 407.249 -0.228193 -3.72201 0
M  V30 4320 N 409.434 1.37368 -0.772513 0
M  V30 4321 C 410.681 1.99673 -0.337182 0
M  V30 4322 C 411.009 1.61324 1.0865 0
M  V30 4323 O 410.264 0.851377 1.7621 0
M  V30 4324 C 410.563 3.54817 -0.428876 0
M  V30 4325 C 410.229 4.12936 -1.81092 0
M  V30 4326 C 408.891 4.28523 -2.1891 0
M  V30 4327 C 411.243 4.44801 -2.71664 0
M  V30 4328 C 408.571 4.73277 -3.46735 0
M  V30 4329 C 410.923 4.90981 -3.98899 0
M  V30 4330 C 409.587 5.04773 -4.36761 0
M  V30 4331 H 408.857 0.730656 -0.123384 0
M  V30 4332 H 411.504 1.64124 -0.986686 0
M  V30 4333 H 409.809 3.90618 0.304167 0
M  V30 4334 H 411.506 4.00933 -0.0733334 0
M  V30 4335 H 408.096 4.01233 -1.50699 0
M  V30 4336 H 412.28 4.32344 -2.43706 0
M  V30 4337 H 407.536 4.82142 -3.75964 0
M  V30 4338 H 411.71 5.14603 -4.69208 0
M  V30 4339 H 409.337 5.39211 -5.35868 0
M  V30 4340 N 410.912 0.523116 1.48665 0
M  V30 4341 C 412.161 -0.01544 2.01694 0
M  V30 4342 C 412.474 -1.35975 1.40606 0
M  V30 4343 O 413.68 -1.98627 1.85093 0
M  V30 4344 C 412.136 -0.0779303 3.59816 0
M  V30 4345 C 411.744 1.26107 4.29885 0
M  V30 4346 C 413.488 -0.565678 4.20714 0
M  V30 4347 C 411.395 1.15954 5.79921 0
M  V30 4348 H 410.325 -0.00954163 0.75394 0
M  V30 4349 H 412.976 0.665865 1.70993 0
M  V30 4350 H 411.358 -0.824165 3.87329 0
M  V30 4351 H 412.532 2.02233 4.14051 0
M  V30 4352 H 410.847 1.68401 3.80828 0
M  V30 4353 H 413.444 -0.6595 5.30617 0
M  V30 4354 H 413.787 -1.56984 3.85567 0
M  V30 4355 H 414.32 0.12467 3.97605 0
M  V30 4356 H 411.059 2.13864 6.19631 0
M  V30 4357 H 410.579 0.439529 5.98187 0
M  V30 4358 H 412.258 0.847361 6.41427 0
M  V30 4359 N 412.39 -1.55475 0.257931 0
M  V30 4360 C 413.322 -2.19192 -0.669881 0
M  V30 4361 C 414.335 -1.17148 -1.1305 0
M  V30 4362 O 415.524 -1.43959 -1.05537 0
M  V30 4363 C 412.624 -2.79016 -1.92363 0
M  V30 4364 C 411.797 -4.06586 -1.61265 0
M  V30 4365 C 410.856 -4.50622 -2.7171 0
M  V30 4366 O 409.882 -5.16765 -2.38627 0
M  V30 4367 N 411.084 -4.19325 -4.01431 0
M  V30 4368 H 413.849 -2.99441 -0.124635 0
M  V30 4369 H 411.41 -1.6171 0.0783311 0
M  V30 4370 H 413.402 -3.05427 -2.65511 0
M  V30 4371 H 411.972 -2.0286 -2.37837 0
M  V30 4372 H 411.192 -3.87646 -0.715811 0
M  V30 4373 H 412.48 -4.89737 -1.37967 0
M  V30 4374 H 411.878 -3.66247 -4.31138 0
M  V30 4375 H 410.435 -4.50547 -4.7101 0
M  V30 4376 N 413.868 0.0150385 -1.57593 0
M  V30 4377 C 414.831 0.995996 -2.06428 0
M  V30 4378 C 415.831 1.2818 -0.970903 0
M  V30 4379 O 417.021 1.22949 -1.23406 0
M  V30 4380 C 414.153 2.32506 -2.49307 0
M  V30 4381 H 415.346 0.573873 -2.94358 0
M  V30 4382 H 412.899 0.262186 -1.54085 0
M  V30 4383 H 413.634 2.79438 -1.64575 0
M  V30 4384 H 413.419 2.13087 -3.29145 0
M  V30 4385 H 414.909 3.02906 -2.87468 0
M  V30 4386 N 415.346 1.54954 0.287554 0
M  V30 4387 C 416.594 1.74528 1.01904 0
M  V30 4388 C 416.915 0.541349 1.87335 0
M  V30 4389 O 416.185 -0.444108 1.908 0
M  V30 4390 H 414.765 0.643576 0.379235 0
M  V30 4391 H 417.427 1.92333 0.315294 0
M  V30 4392 H 416.523 2.64015 1.6644 0
M  V30 4393 N 416.824 -0.551391 1.4764 0
M  V30 4394 C 418.049 -1.33837 1.58437 0
M  V30 4395 C 418.474 -1.866 0.237063 0
M  V30 4396 O 417.832 -1.6328 -0.787994 0
M  V30 4397 C 417.88 -2.48014 2.61766 0
M  V30 4398 O 416.984 -3.50419 2.1744 0
M  V30 4399 H 416.325 -0.397299 0.532024 0
M  V30 4400 H 418.855 -0.665759 1.93465 0
M  V30 4401 H 418.865 -2.94503 2.82369 0
M  V30 4402 H 417.54 -2.08969 3.5959 0
M  V30 4403 H 416.117 -3.10196 2.06961 0
M  V30 4404 N 418.302 -1.35869 -0.798587 0
M  V30 4405 C 419.527 -1.32883 -1.59238 0
M  V30 4406 C 419.952 0.0894587 -1.87887 0
M  V30 4407 O 419.31 1.05869 -1.47178 0
M  V30 4408 C 419.358 -2.14892 -2.89575 0
M  V30 4409 O 418.462 -1.53512 -3.82763 0
M  V30 4410 H 417.803 -0.455236 -0.48338 0
M  V30 4411 H 420.333 -1.79024 -0.990539 0
M  V30 4412 H 420.343 -2.27139 -3.38928 0
M  V30 4413 H 419.018 -3.17998 -2.68049 0
M  V30 4414 H 417.595 -1.50153 -3.41334 0
M  V30 4415 N 419.78 1.02168 -1.19998 0
M  V30 4416 C 421.01 1.79036 -1.031 0
M  V30 4417 C 421.418 1.84409 0.423078 0
M  V30 4418 O 420.761 1.29228 1.30559 0
M  V30 4419 C 420.823 3.25185 -1.53281 0
M  V30 4420 C 420.487 3.43431 -3.01503 0
M  V30 4421 C 421.484 3.33063 -3.99206 0
M  V30 4422 C 419.169 3.69412 -3.40353 0
M  V30 4423 C 421.163 3.48413 -5.33748 0
M  V30 4424 C 418.85 3.84406 -4.75053 0
M  V30 4425 C 419.848 3.7391 -5.71559 0
M  V30 4426 O 419.536 3.88452 -7.03818 0
M  V30 4427 H 419.268 0.570043 -0.363355 0
M  V30 4428 H 421.822 1.29524 -1.59414 0
M  V30 4429 H 420.052 3.75756 -0.913483 0
M  V30 4430 H 421.741 3.83671 -1.32481 0
M  V30 4431 H 422.507 3.12934 -3.70537 0
M  V30 4432 H 418.386 3.76671 -2.65782 0
M  V30 4433 H 421.93 3.40137 -6.09059 0
M  V30 4434 H 417.827 4.04035 -5.03415 0
M  V30 4435 H 418.595 4.055 -7.10993 0
M  V30 4436 N 421.258 1.00505 1.21394 0
M  V30 4437 C 422.486 0.706609 1.9446 0
M  V30 4438 C 422.901 -0.73081 1.74082 0
M  V30 4439 O 422.258 -1.49446 1.04747 0
M  V30 4440 C 422.309 1.01824 3.46863 0
M  V30 4441 O 422.03 2.39919 3.66566 0
M  V30 4442 C 423.531 0.739216 4.37093 0
M  V30 4443 H 420.751 0.260394 0.618414 0
M  V30 4444 H 423.295 1.34311 1.54211 0
M  V30 4445 H 421.45 0.427343 3.85036 0
M  V30 4446 H 421.864 2.50784 4.6066 0
M  V30 4447 H 423.338 1.00744 5.42729 0
M  V30 4448 H 423.815 -0.326746 4.37983 0
M  V30 4449 H 424.421 1.31173 4.04566 0
M  V30 4450 N 422.737 -1.36956 0.779787 0
M  V30 4451 C 423.965 -2.03755 0.359398 0
M  V30 4452 C 424.38 -1.58807 -1.02106 0
M  V30 4453 O 423.737 -0.773024 -1.6532 0
M  V30 4454 C 423.788 -3.59251 0.402568 0
M  V30 4455 O 423.509 -4.02557 1.72858 0
M  V30 4456 C 425.01 -4.43291 -0.0284068 0
M  V30 4457 H 422.23 -0.654148 0.149437 0
M  V30 4458 H 424.774 -1.75128 1.05595 0
M  V30 4459 H 422.929 -3.86621 -0.245478 0
M  V30 4460 H 423.343 -4.97111 1.67275 0
M  V30 4461 H 424.817 -5.51975 0.0529466 0
M  V30 4462 H 425.294 -4.25719 -1.07982 0
M  V30 4463 H 425.9 -4.21163 0.591758 0
M  V30 4464 N 424.215 -0.530993 -1.48385 0
M  V30 4465 C 425.463 0.00273189 -2.021 0
M  V30 4466 C 425.784 1.34672 -1.41027 0
M  V30 4467 O 425.054 1.8724 -0.576012 0
M  V30 4468 H 423.634 0.00399774 -0.746989 0
M  V30 4469 H 426.296 -0.695054 -1.82085 0
M  V30 4470 H 425.392 0.11031 -3.11905 0
M  V30 4471 N 425.693 1.55336 -0.266172 0
M  V30 4472 C 426.603 2.2583 0.635458 0
M  V30 4473 C 427.619 1.28106 1.17749 0
M  V30 4474 O 428.795 1.61024 1.20968 0
M  V30 4475 C 425.86 2.95879 1.80712 0
M  V30 4476 C 424.921 4.09059 1.30265 0
M  V30 4477 C 424.154 4.75759 2.41846 0
M  V30 4478 O 424.377 4.41622 3.61007 0
M  V30 4479 O 423.311 5.63888 2.1051 0
M  V30 4480 H 427.137 3.03631 0.0646693 0
M  V30 4481 H 424.722 1.49361 -0.0339177 0
M  V30 4482 H 426.604 3.39932 2.49047 0
M  V30 4483 H 425.279 2.21002 2.36516 0
M  V30 4484 H 424.186 3.69482 0.586019 0
M  V30 4485 H 425.519 4.85811 0.790458 0
M  V30 4486 N 427.171 -0.0066808 1.57599 0
M  V30 4487 C 428.104 -1.03397 2.03431 0
M  V30 4488 C 429.082 -1.33872 0.922877 0
M  V30 4489 O 430.266 -1.4615 1.19048 0
M  V30 4490 C 427.393 -2.36325 2.42628 0
M  V30 4491 C 426.439 -2.21557 3.64438 0
M  V30 4492 S 427.272 -1.54789 5.12641 0
M  V30 4493 C 428.428 -2.8916 5.55101 0
M  V30 4494 H 428.661 -0.643687 2.90248 0
M  V30 4495 H 426.194 -0.217349 1.52863 0
M  V30 4496 H 428.152 -3.12759 2.65879 0
M  V30 4497 H 426.813 -2.72495 1.56222 0
M  V30 4498 H 426.006 -3.1974 3.89592 0
M  V30 4499 H 425.608 -1.53267 3.41153 0
M  V30 4500 H 427.9 -3.8547 5.57153 0
M  V30 4501 H 428.843 -2.68713 6.55133 0
M  V30 4502 H 429.251 -2.92762 4.82649 0
M  V30 4503 N 428.649 -1.55105 -0.279332 0
M  V30 4504 C 429.579 -1.90557 -1.34945 0
M  V30 4505 C 430.56 -0.766738 -1.51839 0
M  V30 4506 O 431.745 -1.02434 -1.64988 0
M  V30 4507 C 428.875 -2.17193 -2.71006 0
M  V30 4508 C 427.829 -3.33021 -2.68851 0
M  V30 4509 C 427.155 -3.45123 -4.08405 0
M  V30 4510 C 428.455 -4.69578 -2.28678 0
M  V30 4511 H 430.149 -2.80188 -1.05522 0
M  V30 4512 H 427.695 -1.34811 -0.506173 0
M  V30 4513 H 429.648 -2.40581 -3.45975 0
M  V30 4514 H 428.372 -1.24355 -3.01999 0
M  V30 4515 H 427.031 -3.0959 -1.9634 0
M  V30 4516 H 426.679 -2.49762 -4.3661 0
M  V30 4517 H 426.379 -4.22995 -4.07859 0
M  V30 4518 H 427.903 -3.70796 -4.85121 0
M  V30 4519 H 429.317 -4.92553 -2.93368 0
M  V30 4520 H 427.714 -5.5032 -2.39306 0
M  V30 4521 H 428.784 -4.68828 -1.23807 0
M  V30 4522 N 430.127 0.543554 -1.4793 0
M  V30 4523 C 431.352 1.32995 -1.59145 0
M  V30 4524 C 431.777 1.86472 -0.246956 0
M  V30 4525 O 431.135 1.63696 0.779324 0
M  V30 4526 C 431.183 2.46623 -2.63077 0
M  V30 4527 O 430.287 3.49261 -2.19295 0
M  V30 4528 H 429.628 0.394472 -0.534124 0
M  V30 4529 H 432.158 0.655489 -1.93816 0
M  V30 4530 H 432.168 2.93001 -2.83926 0
M  V30 4531 H 430.843 2.07059 -3.60693 0
M  V30 4532 H 429.42 3.09094 -2.08603 0
M  V30 4533 N 431.605 1.3629 0.791371 0
M  V30 4534 C 432.535 1.33137 1.91825 0
M  V30 4535 C 433.516 0.203168 1.68882 0
M  V30 4536 O 434.701 0.400509 1.90025 0
M  V30 4537 C 431.831 1.11793 3.28816 0
M  V30 4538 C 430.785 2.21417 3.66277 0
M  V30 4539 C 430.111 1.85218 5.01596 0
M  V30 4540 C 431.411 3.63489 3.75064 0
M  V30 4541 H 433.105 2.2743 1.9472 0
M  V30 4542 H 430.651 1.09479 0.935437 0
M  V30 4543 H 432.604 1.08222 4.07266 0
M  V30 4544 H 431.328 0.139501 3.26302 0
M  V30 4545 H 429.987 2.2411 2.90121 0
M  V30 4546 H 429.635 0.859544 4.95602 0
M  V30 4547 H 429.335 2.58611 5.27631 0
M  V30 4548 H 430.859 1.832 5.82469 0
M  V30 4549 H 432.273 3.63034 4.43711 0
M  V30 4550 H 430.67 4.35771 4.12582 0
M  V30 4551 H 431.74 3.98536 2.76219 0
M  V30 4552 N 433.083 -1.0153 1.20538 0
M  V30 4553 C 434.331 -1.74803 1.01432 0
M  V30 4554 C 434.652 -1.8963 -0.454456 0
M  V30 4555 O 433.922 -1.43975 -1.32846 0
M  V30 4556 H 432.502 -0.647598 0.372324 0
M  V30 4557 H 435.164 -1.22402 1.5167 0
M  V30 4558 H 434.26 -2.75114 1.47373 0
M  V30 4559 N 434.561 -1.01147 -1.20859 0
M  V30 4560 C 435.807 -0.698899 -1.90377 0
M  V30 4561 C 436.14 0.76904 -1.78324 0
M  V30 4562 O 435.415 1.55817 -1.16409 0
M  V30 4563 C 435.698 -1.12878 -3.41951 0
M  V30 4564 C 435.551 -2.65665 -3.62963 0
M  V30 4565 C 436.87 -0.696114 -4.3456 0
M  V30 4566 H 433.989 -0.255372 -0.691342 0
M  V30 4567 H 436.631 -1.25831 -1.42361 0
M  V30 4568 H 434.781 -0.652827 -3.82976 0
M  V30 4569 H 436.453 -3.21074 -3.31224 0
M  V30 4570 H 434.696 -3.06878 -3.06608 0
M  V30 4571 H 435.367 -2.90797 -4.69192 0
M  V30 4572 H 437.843 -1.10521 -4.01154 0
M  V30 4573 H 436.719 -1.025 -5.39245 0
M  V30 4574 H 436.98 0.402465 -4.40264 0
M  V30 4575 N 436.039 1.36541 -0.78704 0
M  V30 4576 C 437.287 1.98911 -0.357633 0
M  V30 4577 C 437.608 1.62778 1.07371 0
M  V30 4578 O 436.878 0.900612 1.73971 0
M  V30 4579 H 435.458 0.735734 -0.129246 0
M  V30 4580 H 438.12 1.66776 -1.00855 0
M  V30 4581 H 437.216 3.08874 -0.447549 0
M  V30 4582 N 437.518 0.538854 1.48102 0
M  V30 4583 C 438.767 0.0059532 2.01699 0
M  V30 4584 C 439.08 -1.34476 1.42041 0
M  V30 4585 O 440.286 -1.96653 1.87189 0
M  V30 4586 C 438.742 -0.0397627 3.59878 0
M  V30 4587 C 438.35 1.30659 4.28523 0
M  V30 4588 C 440.094 -0.521024 4.2129 0
M  V30 4589 C 438.001 1.22098 5.78659 0
M  V30 4590 H 436.931 -0.00154456 0.753998 0
M  V30 4591 H 439.582 0.683963 1.70277 0
M  V30 4592 H 437.964 -0.783037 3.88181 0
M  V30 4593 H 439.138 2.06613 4.11883 0
M  V30 4594 H 437.453 1.7243 3.79021 0
M  V30 4595 H 440.05 -0.603184 5.31287 0
M  V30 4596 H 440.393 -1.52885 3.8721 0
M  V30 4597 H 440.926 0.166834 3.9745 0
M  V30 4598 H 437.665 2.20424 6.17328 0
M  V30 4599 H 437.185 0.50295 5.97688 0
M  V30 4600 H 438.864 0.915345 6.40492 0
M  V30 4601 N 438.996 -1.55193 0.274407 0
M  V30 4602 C 439.926 -2.25471 -0.607032 0
M  V30 4603 C 440.907 -1.24461 -1.15946 0
M  V30 4604 O 442.092 -1.53179 -1.19373 0
M  V30 4605 C 439.222 -2.97526 -1.79153 0
M  V30 4606 C 438.176 -4.05459 -1.37067 0
M  V30 4607 C 437.502 -4.65084 -2.6382 0
M  V30 4608 C 438.802 -5.19691 -0.521389 0
M  V30 4609 H 440.496 -2.99393 -0.0209343 0
M  V30 4610 H 438.042 -1.43997 -0.00862866 0
M  V30 4611 H 439.995 -3.45402 -2.41404 0
M  V30 4612 H 438.719 -2.21138 -2.40344 0
M  V30 4613 H 437.378 -3.58393 -0.771355 0
M  V30 4614 H 437.026 -3.85365 -3.23268 0
M  V30 4615 H 436.726 -5.37961 -2.36372 0
M  V30 4616 H 438.25 -5.15708 -3.26921 0
M  V30 4617 H 439.664 -5.63623 -1.04889 0
M  V30 4618 H 438.061 -5.99126 -0.341825 0
M  V30 4619 H 439.131 -4.82713 0.46 0
M  V30 4620 N 440.474 -0.00167713 -1.576 0
M  V30 4621 C 441.72 0.683832 -1.90923 0
M  V30 4622 C 442.053 1.7333 -0.875799 0
M  V30 4623 O 441.328 1.94215 0.10525 0
M  V30 4624 C 441.611 1.32543 -3.3482 0
M  V30 4625 C 441.464 0.287387 -4.48881 0
M  V30 4626 C 442.783 2.25114 -3.78169 0
M  V30 4627 H 439.902 0.247125 -0.694333 0
M  V30 4628 H 442.544 -0.0533149 -1.89925 0
M  V30 4629 H 440.694 1.95372 -3.35801 0
M  V30 4630 H 442.366 -0.341346 -4.60035 0
M  V30 4631 H 440.609 -0.39017 -4.32042 0
M  V30 4632 H 441.28 0.775393 -5.46527 0
M  V30 4633 H 443.756 1.723 -3.7875 0
M  V30 4634 H 442.632 2.66971 -4.79602 0
M  V30 4635 H 442.893 3.13092 -3.12131 0
M  V30 4636 N 441.952 1.55251 0.271103 0
M  V30 4637 C 443.2 1.75599 1.00047 0
M  V30 4638 C 443.521 0.561188 1.8675 0
M  V30 4639 O 442.791 -0.423846 1.9126 0
M  V30 4640 H 441.371 0.647562 0.372387 0
M  V30 4641 H 444.033 1.92656 0.294876 0
M  V30 4642 H 443.129 2.65766 1.6363 0
M  V30 4643 N 443.43 -0.535701 1.48216 0
M  V30 4644 C 444.67 -1.30238 1.57536 0
M  V30 4645 C 445.034 -1.90479 0.241229 0
M  V30 4646 O 446.235 -2.67983 0.20938 0
M  V30 4647 C 444.506 -2.3669 2.67792 0
M  V30 4648 S 446.065 -3.23159 2.9684 0
M  V30 4649 H 442.883 -0.443093 0.556048 0
M  V30 4650 H 445.485 -0.610937 1.85709 0
M  V30 4651 H 444.189 -1.90905 3.63296 0
M  V30 4652 H 443.72 -3.10548 2.41502 0
M  V30 4653 H 445.735 -4.36647 2.35699 0
M  V30 4654 N 444.908 -1.36708 -0.784132 0
M  V30 4655 C 445.838 -1.34153 -1.91116 0
M  V30 4656 C 446.819 -0.212121 -1.68772 0
M  V30 4657 O 448.004 -0.410581 -1.8981 0
M  V30 4658 C 445.134 -1.13535 -3.28218 0
M  V30 4659 C 444.088 -2.23356 -3.65097 0
M  V30 4660 C 443.414 -1.87875 -5.00607 0
M  V30 4661 C 444.714 -3.65473 -3.73131 0
M  V30 4662 H 446.408 -2.28459 -1.93512 0
M  V30 4663 H 443.954 -1.09973 -0.929618 0
M  V30 4664 H 445.907 -1.10381 -4.06687 0
M  V30 4665 H 444.631 -0.156804 -3.26223 0
M  V30 4666 H 443.29 -2.25645 -2.88929 0
M  V30 4667 H 442.938 -0.885814 -4.95139 0
M  V30 4668 H 442.638 -2.61406 -5.26252 0
M  V30 4669 H 444.162 -1.86286 -5.81489 0
M  V30 4670 H 445.576 -3.65382 -4.41779 0
M  V30 4671 H 443.973 -4.37953 -4.10265 0
M  V30 4672 H 445.043 -3.99995 -2.74102 0
M  V30 4673 N 446.386 1.0089 -1.21074 0
M  V30 4674 C 447.626 1.76142 -1.03699 0
M  V30 4675 C 447.99 1.87292 0.422587 0
M  V30 4676 O 449.191 2.59068 0.716752 0
M  V30 4677 C 447.462 3.13805 -1.7106 0
M  V30 4678 S 449.021 4.04996 -1.68889 0
M  V30 4679 H 445.839 0.606113 -0.371683 0
M  V30 4680 H 448.441 1.20744 -1.53756 0
M  V30 4681 H 447.145 3.0332 -2.76451 0
M  V30 4682 H 446.676 3.74276 -1.21166 0
M  V30 4683 H 448.691 4.90842 -0.727211 0
M  V30 4684 N 447.864 1.01787 1.20321 0
M  V30 4685 C 448.794 0.609625 2.25401 0
M  V30 4686 C 449.775 -0.375951 1.65893 0
M  V30 4687 O 450.96 -0.261101 1.92437 0
M  V30 4688 C 448.09 -0.0515995 3.47262 0
M  V30 4689 C 447.044 0.855095 4.19371 0
M  V30 4690 C 446.37 0.0595757 5.34667 0
M  V30 4691 C 447.67 2.16374 4.75373 0
M  V30 4692 H 449.364 1.48803 2.59804 0
M  V30 4693 H 446.91 0.716934 1.24884 0
M  V30 4694 H 448.863 -0.348764 4.19954 0
M  V30 4695 H 447.587 -0.964726 3.12027 0
M  V30 4696 H 446.246 1.13628 3.48546 0
M  V30 4697 H 445.894 -0.85524 4.95676 0
M  V30 4698 H 445.594 0.663406 5.83843 0
M  V30 4699 H 447.118 -0.231105 6.10162 0
M  V30 4700 H 448.532 1.92885 5.39878 0
M  V30 4701 H 446.929 2.71853 5.34991 0
M  V30 4702 H 447.999 2.82589 3.94045 0
M  V30 4703 N 449.342 -1.36122 0.79427 0
M  V30 4704 C 450.272 -2.32551 0.210328 0
M  V30 4705 C 451.253 -1.56884 -0.657386 0
M  V30 4706 O 452.438 -1.85014 -0.590207 0
M  V30 4707 C 449.568 -3.41128 -0.651819 0
M  V30 4708 C 448.522 -4.27842 0.116395 0
M  V30 4709 C 447.848 -5.2763 -0.86666 0
M  V30 4710 C 449.148 -5.05647 1.30837 0
M  V30 4711 H 450.842 -2.81636 1.01594 0
M  V30 4712 H 448.388 -1.35407 0.489981 0
M  V30 4713 H 450.341 -4.07581 -1.07031 0
M  V30 4714 H 449.065 -2.90622 -1.49019 0
M  V30 4715 H 447.724 -3.62952 0.515915 0
M  V30 4716 H 447.372 -4.73395 -1.70019 0
M  V30 4717 H 447.072 -5.86514 -0.35705 0
M  V30 4718 H 448.596 -5.96955 -1.28361 0
M  V30 4719 H 450.01 -5.65113 0.965393 0
M  V30 4720 H 448.407 -5.73967 1.75161 0
M  V30 4721 H 449.477 -4.37006 2.10128 0
M  V30 4722 N 450.82 -0.546701 -1.47814 0
M  V30 4723 C 451.75 0.195317 -2.32682 0
M  V30 4724 C 452.731 0.918981 -1.43139 0
M  V30 4725 O 453.916 0.901501 -1.72008 0
M  V30 4726 C 451.046 1.23237 -3.247 0
M  V30 4727 C 450 0.625818 -4.234 0
M  V30 4728 C 449.326 1.76674 -5.04669 0
M  V30 4729 C 450.626 -0.413515 -5.2066 0
M  V30 4730 H 452.32 -0.513184 -2.94969 0
M  V30 4731 H 449.866 -0.248241 -1.41844 0
M  V30 4732 H 451.819 1.75955 -3.82907 0
M  V30 4733 H 450.543 1.97067 -2.60446 0
M  V30 4734 H 449.202 0.120023 -3.66403 0
M  V30 4735 H 448.85 2.49383 -4.36826 0
M  V30 4736 H 448.55 1.36673 -5.71484 0
M  V30 4737 H 450.074 2.29738 -5.65732 0
M  V30 4738 H 451.488 0.0272042 -5.73294 0
M  V30 4739 H 449.885 -0.731825 -5.95621 0
M  V30 4740 H 450.955 -1.31325 -4.66778 0
M  V30 4741 N 452.299 1.55045 -0.282633 0
M  V30 4742 C 453.262 2.21515 0.588539 0
M  V30 4743 C 454.262 1.19535 1.07554 0
M  V30 4744 O 455.452 1.44391 0.974514 0
M  V30 4745 C 452.584 2.88704 1.8128 0
M  V30 4746 H 453.777 2.99899 0.00806397 0
M  V30 4747 H 451.33 1.56265 -0.0333067 0
M  V30 4748 H 452.065 2.14352 2.43359 0
M  V30 4749 H 451.85 3.63443 1.47144 0
M  V30 4750 H 453.34 3.39465 2.43214 0
M  V30 4751 N 453.777 0.010035 1.57597 0
M  V30 4752 C 455.023 -0.673697 1.91283 0
M  V30 4753 C 455.356 -1.72863 0.884979 0
M  V30 4754 O 454.631 -1.94268 -0.0949487 0
M  V30 4755 C 454.914 -1.30766 3.35518 0
M  V30 4756 C 454.767 -0.263578 4.49027 0
M  V30 4757 C 456.086 -2.23105 3.79358 0
M  V30 4758 H 453.205 -0.243439 0.695634 0
M  V30 4759 H 455.847 0.0633864 1.89894 0
M  V30 4760 H 453.997 -1.93588 3.36832 0
M  V30 4761 H 455.669 0.365738 4.59848 0
M  V30 4762 H 453.912 0.413077 4.31829 0
M  V30 4763 H 454.583 -0.746398 5.4693 0
M  V30 4764 H 457.059 -1.70289 3.79659 0
M  V30 4765 H 455.935 -2.64424 4.81011 0
M  V30 4766 H 456.196 -3.11433 3.13787 0
M  V30 4767 N 455.255 -1.55392 -0.262866 0
M  V30 4768 C 456.485 -1.80251 -1.00961 0
M  V30 4769 C 456.893 -0.58117 -1.80053 0
M  V30 4770 O 456.236 0.459427 -1.77862 0
M  V30 4771 C 456.298 -2.98207 -2.00781 0
M  V30 4772 C 455.962 -4.34856 -1.40533 0
M  V30 4773 C 456.959 -5.13459 -0.815853 0
M  V30 4774 C 454.644 -4.8153 -1.42948 0
M  V30 4775 C 456.638 -6.36875 -0.258562 0
M  V30 4776 C 454.325 -6.04899 -0.868334 0
M  V30 4777 C 455.323 -6.8241 -0.283884 0
M  V30 4778 O 455.011 -8.03451 0.268644 0
M  V30 4779 H 454.743 -0.604049 -0.303482 0
M  V30 4780 H 457.297 -2.03257 -0.295926 0
M  V30 4781 H 455.527 -2.70917 -2.75936 0
M  V30 4782 H 457.216 -3.10299 -2.61667 0
M  V30 4783 H 457.982 -4.78526 -0.789812 0
M  V30 4784 H 453.861 -4.21201 -1.87378 0
M  V30 4785 H 457.405 -6.97318 0.198257 0
M  V30 4786 H 453.302 -6.39312 -0.891649 0
M  V30 4787 H 454.07 -8.18346 0.158974 0
M  V30 4788 N 456.733 0.527833 -1.48498 0
M  V30 4789 C 457.98 1.28354 -1.56625 0
M  V30 4790 C 458.308 1.93 -0.241096 0
M  V30 4791 O 457.563 1.79967 0.768798 0
M  V30 4792 C 457.862 2.39275 -2.65485 0
M  V30 4793 C 457.528 1.92268 -4.07853 0
M  V30 4794 C 456.19 1.79166 -4.46602 0
M  V30 4795 C 458.542 1.56771 -4.97064 0
M  V30 4796 C 455.87 1.28905 -5.72364 0
M  V30 4797 C 458.222 1.07972 -6.23318 0
M  V30 4798 C 456.886 0.934887 -6.60921 0
M  V30 4799 H 456.156 0.469682 -0.573131 0
M  V30 4800 H 458.803 0.588781 -1.82224 0
M  V30 4801 H 457.108 3.1443 -2.33754 0
M  V30 4802 H 458.805 2.974 -2.68988 0
M  V30 4803 H 455.395 2.03417 -3.77252 0
M  V30 4804 H 459.579 1.65753 -4.67803 0
M  V30 4805 H 454.835 1.16381 -6.00221 0
M  V30 4806 H 459.009 0.795775 -6.91838 0
M  V30 4807 H 456.636 0.543231 -7.58257 0
M  V30 4808 N 458.211 1.37122 0.776871 0
M  V30 4809 C 459.46 1.31373 1.53049 0
M  V30 4810 C 459.773 -0.101016 1.95339 0
M  V30 4811 O 460.979 -0.280953 2.70042 0
M  V30 4812 C 459.435 2.30567 2.76346 0
M  V30 4813 C 459.043 3.77543 2.41175 0
M  V30 4814 C 460.787 2.33818 3.54301 0
M  V30 4815 C 458.694 4.68481 3.60943 0
M  V30 4816 H 457.624 0.488234 0.574581 0
M  V30 4817 H 460.275 1.62554 0.851372 0
M  V30 4818 H 458.657 1.92396 3.46121 0
M  V30 4819 H 459.831 4.24521 1.79216 0
M  V30 4820 H 458.146 3.77187 1.76405 0
M  V30 4821 H 460.743 2.98965 4.4331 0
M  V30 4822 H 461.086 1.3503 3.93793 0
M  V30 4823 H 461.619 2.7067 2.91518 0
M  V30 4824 H 458.358 5.68378 3.26537 0
M  V30 4825 H 457.878 4.2621 4.22025 0
M  V30 4826 H 459.557 4.85366 4.27819 0
M  V30 4827 N 459.689 -1.00246 1.21608 0
M  V30 4828 C 460.652 -2.07233 0.979133 0
M  V30 4829 C 461.652 -1.6072 -0.0508219 0
M  V30 4830 O 462.842 -1.73196 0.186712 0
M  V30 4831 C 459.974 -3.37546 0.477016 0
M  V30 4832 H 461.167 -2.29687 1.92831 0
M  V30 4833 H 458.72 -1.17261 1.03342 0
M  V30 4834 H 459.455 -3.20773 -0.476966 0
M  V30 4835 H 459.24 -3.72638 1.21997 0
M  V30 4836 H 460.73 -4.16285 0.331181 0
M  V30 4837 N 461.167 -1.02423 -1.1978 0
M  V30 4838 C 462.583 -0.740459 -1.41384 0
M  V30 4839 C 462.783 0.676827 -1.89793 0
M  V30 4840 O 461.839 1.4435 -2.0717 0
M  V30 4841 C 463.152 -1.77264 -2.42895 0
M  V30 4842 C 464.7 -1.79165 -2.56649 0
M  V30 4843 C 465.175 -2.8133 -3.6141 0
M  V30 4844 N 466.666 -2.80118 -3.68901 0
M  V30 4845 C 467.401 -3.55824 -4.49641 0
M  V30 4846 N 466.897 -4.41231 -5.34123 0
M  V30 4847 N 468.69 -3.44387 -4.44246 0
M  V30 4848 H 460.841 -1.9391 -0.866764 0
M  V30 4849 H 463.104 -0.838074 -0.443098 0
M  V30 4850 H 462.81 -2.7884 -2.14339 0
M  V30 4851 H 462.684 -1.59108 -3.42001 0
M  V30 4852 H 465.071 -0.782702 -2.84531 0
M  V30 4853 H 465.152 -2.01396 -1.57713 0
M  V30 4854 H 464.796 -3.82394 -3.34271 0
M  V30 4855 H 464.726 -2.56359 -4.59986 0
M  V30 4856 H 467.217 -2.1817 -3.08562 0
M  V30 4857 H 467.53 -4.95747 -5.92836 0
M  V30 4858 H 465.875 -4.45306 -5.33599 0
M  V30 4859 H 469.066 -2.7708 -3.77285 0
M  V30 4860 H 469.239 -4.0364 -5.06931 0
M  V30 4861 N 462.645 1.35699 -0.801477 0
M  V30 4862 C 463.592 2.29876 -0.206294 0
M  V30 4863 C 464.562 1.52565 0.656752 0
M  V30 4864 O 465.747 1.81024 0.602906 0
M  V30 4865 C 462.887 3.39052 0.643272 0
M  V30 4866 C 462 4.31335 -0.239644 0
M  V30 4867 C 461.135 5.27599 0.61744 0
M  V30 4868 C 460.174 6.11521 -0.26619 0
M  V30 4869 N 459.311 6.99938 0.550571 0
M  V30 4870 H 464.151 2.80187 -1.01484 0
M  V30 4871 H 461.688 1.37902 -0.511997 0
M  V30 4872 H 463.646 4.0101 1.15094 0
M  V30 4873 H 462.276 2.9003 1.41713 0
M  V30 4874 H 461.328 3.70426 -0.865381 0
M  V30 4875 H 462.64 4.90243 -0.919985 0
M  V30 4876 H 461.794 5.94906 1.19045 0
M  V30 4877 H 460.533 4.69176 1.33137 0
M  V30 4878 H 459.538 5.43166 -0.851507 0
M  V30 4879 H 460.763 6.72022 -0.9779 0
M  V30 4880 H 458.709 6.44008 1.24856 0
M  V30 4881 H 458.626 7.55966 -0.071832 0
M  V30 4882 H 459.894 7.71599 1.10702 0
M  V30 4883 N 464.123 0.554532 1.47522 0
M  V30 4884 C 465.372 0.0273458 2.01681 0
M  V30 4885 C 465.685 -1.32962 1.43459 0
M  V30 4886 O 466.891 -1.94657 1.89265 0
M  V30 4887 C 465.347 -0.00159057 3.599 0
M  V30 4888 C 464.955 1.35197 4.27113 0
M  V30 4889 C 466.699 -0.476311 4.21819 0
M  V30 4890 C 464.606 1.28229 5.77331 0
M  V30 4891 H 463.536 0.00645269 0.753972 0
M  V30 4892 H 466.187 0.701985 1.69542 0
M  V30 4893 H 464.569 -0.741821 3.8899 0
M  V30 4894 H 465.743 2.1097 4.09668 0
M  V30 4895 H 464.058 1.76441 3.77171 0
M  V30 4896 H 466.655 -0.5468 5.31897 0
M  V30 4897 H 466.998 -1.4877 3.8881 0
M  V30 4898 H 467.531 0.20898 3.97251 0
M  V30 4899 H 464.27 2.26959 6.14955 0
M  V30 4900 H 463.79 0.566314 5.97121 0
M  V30 4901 H 465.469 0.983226 6.39485 0
M  V30 4902 N 465.601 -1.54893 0.290851 0
M  V30 4903 C 467.017 -1.59476 -0.0628432 0
M  V30 4904 C 467.217 -1.30795 -1.5328 0
M  V30 4905 O 466.273 -1.07644 -2.28406 0
M  V30 4906 C 467.586 -2.98928 0.325962 0
M  V30 4907 C 469.134 -3.11799 0.273882 0
M  V30 4908 C 469.609 -4.53544 0.637359 0
M  V30 4909 N 471.1 -4.59433 0.589507 0
M  V30 4910 C 471.835 -5.67164 0.84335 0
M  V30 4911 N 471.331 -6.82975 1.16263 0
M  V30 4912 N 473.124 -5.56786 0.771091 0
M  V30 4913 H 465.275 -1.71798 1.24896 0
M  V30 4914 H 467.538 -0.801879 0.505663 0
M  V30 4915 H 467.244 -3.24805 1.34887 0
M  V30 4916 H 467.118 -3.75793 -0.325441 0
M  V30 4917 H 469.505 -2.85677 -0.739765 0
M  V30 4918 H 469.586 -2.37112 0.959766 0
M  V30 4919 H 469.23 -4.80394 1.64877 0
M  V30 4920 H 469.16 -5.26553 -0.0704866 0
M  V30 4921 H 471.651 -3.76245 0.353252 0
M  V30 4922 H 471.964 -7.61048 1.34257 0
M  V30 4923 H 470.309 -6.84552 1.20057 0
M  V30 4924 H 473.5 -4.65187 0.521383 0
M  V30 4925 H 473.673 -6.40664 0.972295 0
M  V30 4926 N 467.08 -0.0183926 -1.57589 0
M  V30 4927 C 468.027 0.967022 -2.09565 0
M  V30 4928 C 468.997 1.32983 -0.995225 0
M  V30 4929 O 470.182 1.42501 -1.26878 0
M  V30 4930 C 467.322 2.24772 -2.61861 0
M  V30 4931 C 466.435 1.94232 -3.85873 0
M  V30 4932 C 465.57 3.16518 -4.26603 0
M  V30 4933 C 464.609 2.81748 -5.43401 0
M  V30 4934 N 463.746 3.96626 -5.79338 0
M  V30 4935 H 468.586 0.516874 -2.93483 0
M  V30 4936 H 466.123 0.243544 -1.4507 0
M  V30 4937 H 468.081 2.99667 -2.90268 0
M  V30 4938 H 466.711 2.67423 -1.8079 0
M  V30 4939 H 465.763 1.09625 -3.64262 0
M  V30 4940 H 467.075 1.64616 -4.70853 0
M  V30 4941 H 466.229 3.99743 -4.56389 0
M  V30 4942 H 464.968 3.49286 -3.40368 0
M  V30 4943 H 463.973 1.96933 -5.1332 0
M  V30 4944 H 465.198 2.50207 -6.31327 0
M  V30 4945 H 463.144 4.29257 -4.96059 0
M  V30 4946 H 463.061 3.70598 -6.58933 0
M  V30 4947 H 464.329 4.80586 -6.13724 0
M  V30 4948 N 468.558 1.5553 0.254621 0
M  V30 4949 C 469.505 1.89666 1.31512 0
M  V30 4950 C 470.475 0.750057 1.482 0
M  V30 4951 O 471.66 1.00301 1.62309 0
M  V30 4952 C 468.8 2.19009 2.667 0
M  V30 4953 C 467.913 3.46435 2.58083 0
M  V30 4954 C 467.048 3.65386 3.85573 0
M  V30 4955 C 466.087 4.8644 3.71541 0
M  V30 4956 N 465.224 5.01952 4.90906 0
M  V30 4957 H 470.064 2.80109 1.017 0
M  V30 4958 H 467.601 1.38666 0.490938 0
M  V30 4959 H 469.559 2.34025 3.45381 0
M  V30 4960 H 468.189 1.31779 2.94676 0
M  V30 4961 H 467.241 3.39792 1.71013 0
M  V30 4962 H 468.553 4.35258 2.43622 0
M  V30 4963 H 467.707 3.80319 4.72697 0
M  V30 4964 H 466.446 2.74781 4.02922 0
M  V30 4965 H 465.451 4.71491 2.82801 0
M  V30 4966 H 466.676 5.78497 3.55694 0
M  V30 4967 H 464.622 4.14283 5.08631 0
M  V30 4968 H 464.539 5.84851 4.79046 0
M  V30 4969 H 465.807 5.21289 5.7955 0
M  V30 4970 N 470.036 -0.519951 1.48776 0
M  V30 4971 C 471.452 -0.849418 1.35119 0
M  V30 4972 C 471.652 -1.98077 0.36982 0
M  V30 4973 O 470.708 -2.51664 -0.205359 0
M  V30 4974 C 472.021 -1.20748 2.75391 0
M  V30 4975 C 473.569 -1.31679 2.83954 0
M  V30 4976 C 474.044 -1.70824 4.24951 0
M  V30 4977 N 475.535 -1.77908 4.27672 0
M  V30 4978 C 476.27 -2.09603 5.33717 0
M  V30 4979 N 475.766 -2.39652 6.5003 0
M  V30 4980 N 477.559 -2.10694 5.21119 0
M  V30 4981 H 469.71 0.226377 2.1119 0
M  V30 4982 H 471.973 0.0386519 0.947212 0
M  V30 4983 H 471.679 -0.449703 3.48813 0
M  V30 4984 H 471.553 -2.15534 3.09556 0
M  V30 4985 H 473.94 -2.06532 2.10781 0
M  V30 4986 H 474.021 -0.3499 2.53396 0
M  V30 4987 H 473.665 -0.965282 4.98643 0
M  V30 4988 H 473.595 -2.6858 4.52959 0
M  V30 4989 H 476.086 -1.56923 3.43779 0
M  V30 4990 H 476.399 -2.6297 7.26682 0
M  V30 4991 H 474.744 -2.37149 6.53288 0
M  V30 4992 H 477.935 -1.86682 4.29264 0
M  V30 4993 H 478.108 -2.35062 6.03863 0
M  V30 4994 N 471.514 -1.37532 -0.769588 0
M  V30 4995 C 472.444 -1.36172 -1.89682 0
M  V30 4996 C 473.425 -0.23001 -1.68538 0
M  V30 4997 O 474.61 -0.43069 -1.89364 0
M  V30 4998 C 471.74 -1.1701 -3.26995 0
M  V30 4999 C 470.694 -2.27216 -3.62708 0
M  V30 5000 C 470.02 -1.93174 -4.98586 0
M  V30 5001 C 471.32 -3.6941 -3.69234 0
M  V30 5002 H 473.014 -2.30499 -1.91078 0
M  V30 5003 H 470.56 -1.10953 -0.917902 0
M  V30 5004 H 472.513 -1.14688 -4.05493 0
M  V30 5005 H 471.237 -0.191395 -3.26039 0
M  V30 5006 H 469.896 -2.28697 -2.86519 0
M  V30 5007 H 469.544 -0.938281 -4.94171 0
M  V30 5008 H 469.244 -2.66973 -5.23449 0
M  V30 5009 H 470.768 -1.92443 -5.79481 0
M  V30 5010 H 472.182 -3.70047 -4.37879 0
M  V30 5011 H 470.579 -4.4228 -4.05597 0
M  V30 5012 H 471.649 -4.0288 -2.69844 0
M  V30 5013 N 472.992 0.995999 -1.22138 0
M  V30 5014 C 473.902 2.11985 -1.00496 0
M  V30 5015 C 474.918 1.7394 0.0457701 0
M  V30 5016 O 476.094 2.00868 -0.146273 0
M  V30 5017 C 473.159 3.41779 -0.582086 0
M  V30 5018 C 472.22 3.93943 -1.70608 0
M  V30 5019 C 471.453 5.17542 -1.30328 0
M  V30 5020 O 471.676 5.70114 -0.180743 0
M  V30 5021 O 470.61 5.63382 -2.11861 0
M  V30 5022 H 474.436 2.33123 -1.94647 0
M  V30 5023 H 472.021 1.10358 -1.00705 0
M  V30 5024 H 473.903 4.1989 -0.356467 0
M  V30 5025 H 472.578 3.22007 0.330592 0
M  V30 5026 H 471.485 3.17019 -1.98619 0
M  V30 5027 H 472.818 4.18141 -2.59651 0
M  V30 5028 N 474.47 1.03057 1.19235 0
M  V30 5029 C 475.418 0.606391 2.24557 0
M  V30 5030 C 476.412 -0.361826 1.65491 0
M  V30 5031 O 477.618 -0.23022 1.78522 0
M  V30 5032 H 473.993 0.177838 0.730669 0
M  V30 5033 H 475.964 1.50529 2.5765 0
M  V30 5034 C 474.713 -0.0252127 3.47691 0
M  V30 5035 H 474.036 0.710838 3.9343 0
M  V30 5036 H 475.476 -0.284931 4.23042 0
M  V30 5037 C 473.935 -1.27229 3.11953 0
M  V30 5038 O 474.465 -2.36416 3.24762 0
M  V30 5039 N 472.671 -1.16169 2.6637 0
M  V30 5040 H 472.218 -0.273189 2.56147 0
M  V30 5041 H 472.176 -1.99703 2.42829 0
M  V30 5042 N 475.948 -1.35272 0.808662 0
M  V30 5043 C 477.364 -1.51806 0.492653 0
M  V30 5044 C 477.564 -1.7574 -0.985778 0
M  V30 5045 O 476.62 -1.80003 -1.77074 0
M  V30 5046 C 477.933 -2.69202 1.33981 0
M  V30 5047 C 479.481 -2.8308 1.33547 0
M  V30 5048 C 479.956 -4.03502 2.16679 0
M  V30 5049 N 481.447 -4.10684 2.14227 0
M  V30 5050 C 482.182 -5.02984 2.75308 0
M  V30 5051 N 481.678 -6.00603 3.45323 0
M  V30 5052 N 483.471 -4.95746 2.64938 0
M  V30 5053 H 475.622 -1.17993 1.76611 0
M  V30 5054 H 477.885 -0.577476 0.751814 0
M  V30 5055 H 477.591 -2.581 2.38909 0
M  V30 5056 H 477.465 -3.63854 0.994491 0
M  V30 5057 H 479.852 -2.93631 0.294036 0
M  V30 5058 H 479.933 -1.89278 1.72068 0
M  V30 5059 H 479.577 -3.93711 3.20864 0
M  V30 5060 H 479.507 -4.96489 1.75517 0
M  V30 5061 H 481.998 -3.40802 1.63285 0
M  V30 5062 H 482.311 -6.67633 3.89212 0
M  V30 5063 H 480.656 -6.0077 3.49428 0
M  V30 5064 H 483.847 -4.18439 2.09825 0
M  V30 5065 H 484.02 -5.67487 3.12829 0
M  V30 5066 N 477.426 -0.562348 -1.47226 0
M  V30 5067 C 478.373 0.182461 -2.30078 0
M  V30 5068 C 479.343 0.903503 -1.39377 0
M  V30 5069 O 480.528 0.898188 -1.68337 0
M  V30 5070 C 477.668 1.20322 -3.23445 0
M  V30 5071 C 476.781 0.487717 -4.29238 0
M  V30 5072 C 475.916 1.49422 -5.09752 0
M  V30 5073 C 474.955 0.763976 -6.07314 0
M  V30 5074 N 474.092 1.71755 -6.80768 0
M  V30 5075 H 478.932 -0.530169 -2.93246 0
M  V30 5076 H 476.469 -0.273276 -1.44539 0
M  V30 5077 H 478.427 1.80768 -3.76004 0
M  V30 5078 H 477.057 1.88382 -2.6213 0
M  V30 5079 H 476.109 -0.231374 -3.79696 0
M  V30 5080 H 477.421 -0.0841003 -4.98729 0
M  V30 5081 H 476.575 2.17206 -5.66486 0
M  V30 5082 H 475.314 2.09995 -4.40174 0
M  V30 5083 H 474.319 0.0722344 -5.49753 0
M  V30 5084 H 475.544 0.16391 -6.78902 0
M  V30 5085 H 473.49 2.31177 -6.13916 0
M  V30 5086 H 473.407 1.19802 -7.46447 0
M  V30 5087 H 474.675 2.38638 -7.42073 0
M  V30 5088 N 478.904 1.54736 -0.299062 0
M  V30 5089 C 480.129 2.04975 0.316254 0
M  V30 5090 C 480.554 1.17501 1.46885 0
M  V30 5091 O 479.912 0.178678 1.80417 0
M  V30 5092 C 479.96 3.52672 0.751997 0
M  V30 5093 O 479.064 3.68226 1.85697 0
M  V30 5094 H 478.405 0.661126 0.0617175 0
M  V30 5095 H 480.935 1.99805 -0.440341 0
M  V30 5096 H 480.945 3.94488 1.04133 0
M  V30 5097 H 479.62 4.158 -0.0911482 0
M  V30 5098 H 478.197 3.38316 1.56834 0
M  V30 5099 N 480.382 0.0267497 1.57577 0
M  V30 5100 C 481.628 -0.653371 1.91987 0
M  V30 5101 C 481.961 -1.71915 0.903263 0
M  V30 5102 O 481.236 -1.94358 -0.0743387 0
M  V30 5103 C 481.519 -1.272 3.36886 0
M  V30 5104 C 481.372 -0.215938 4.49281 0
M  V30 5105 C 482.691 -2.19069 3.81703 0
M  V30 5106 H 479.81 -0.236047 0.698177 0
M  V30 5107 H 482.452 0.0835236 1.89816 0
M  V30 5108 H 480.602 -1.90005 3.38866 0
M  V30 5109 H 482.274 0.41449 4.59434 0
M  V30 5110 H 480.517 0.458855 4.31366 0
M  V30 5111 H 481.188 -0.688347 5.47691 0
M  V30 5112 H 483.664 -1.66253 3.81444 0
M  V30 5113 H 482.54 -2.59307 4.83788 0
M  V30 5114 H 482.801 -3.08087 3.17072 0
M  V30 5115 N 481.861 -1.55662 -0.24637 0
M  V30 5116 C 483.107 -1.77782 -0.975779 0
M  V30 5117 C 483.44 -0.592103 -1.84953 0
M  V30 5118 O 482.715 0.409588 -1.90138 0
M  V30 5119 C 482.998 -3.09788 -1.83584 0
M  V30 5120 C 482.851 -4.38764 -0.990241 0
M  V30 5121 C 484.17 -3.38029 -2.81823 0
M  V30 5122 H 481.289 -0.646789 -0.353317 0
M  V30 5123 H 483.931 -1.88398 -0.246248 0
M  V30 5124 H 482.081 -3.00869 -2.45784 0
M  V30 5125 H 483.753 -4.59675 -0.386897 0
M  V30 5126 H 481.996 -4.32798 -0.294626 0
M  V30 5127 H 482.667 -5.27514 -1.62584 0
M  V30 5128 H 485.143 -3.46915 -2.2976 0
M  V30 5129 H 484.019 -4.3161 -3.39122 0
M  V30 5130 H 484.28 -2.58968 -3.58313 0
M  V30 5131 N 483.339 0.512053 -1.4905 0
M  V30 5132 C 484.586 1.26686 -1.57978 0
M  V30 5133 C 484.914 1.92733 -0.261553 0
M  V30 5134 O 484.169 1.80772 0.749667 0
M  V30 5135 C 484.468 2.36446 -2.68008 0
M  V30 5136 C 484.134 1.87932 -4.09869 0
M  V30 5137 C 482.796 1.74419 -4.48477 0
M  V30 5138 C 485.148 1.5149 -4.98698 0
M  V30 5139 C 482.476 1.22827 -5.73699 0
M  V30 5140 C 484.828 1.01355 -6.24428 0
M  V30 5141 C 483.492 0.864735 -6.61875 0
M  V30 5142 H 482.762 0.463577 -0.578081 0
M  V30 5143 H 485.409 0.569421 -1.82838 0
M  V30 5144 H 483.714 3.11933 -2.37076 0
M  V30 5145 H 485.411 2.9453 -2.72127 0
M  V30 5146 H 482.001 1.99405 -3.79389 0
M  V30 5147 H 486.185 1.60782 -4.69535 0
M  V30 5148 H 481.441 1.10008 -6.01422 0
M  V30 5149 H 485.615 0.722351 -6.92644 0
M  V30 5150 H 483.242 0.462777 -7.5879 0
M  V30 5151 N 484.817 1.37938 0.762283 0
M  V30 5152 C 486.045 1.36883 1.55147 0
M  V30 5153 C 486.46 -0.0435348 1.8875 0
M  V30 5154 O 485.817 -1.00786 1.52146 0
M  V30 5155 C 485.868 2.21624 2.85596 0
M  V30 5156 O 485.589 3.57358 2.5343 0
M  V30 5157 C 487.09 2.28653 3.7978 0
M  V30 5158 H 484.31 0.468521 0.480343 0
M  V30 5159 H 486.854 1.81404 0.944079 0
M  V30 5160 H 485.009 1.80588 3.42734 0
M  V30 5161 H 485.423 4.01883 3.37032 0
M  V30 5162 H 486.897 2.9225 4.68288 0
M  V30 5163 H 487.374 1.29767 4.19592 0
M  V30 5164 H 487.98 2.70043 3.28568 0
M  V30 5165 N 486.295 -0.989507 1.22664 0
M  V30 5166 C 487.52 -1.77031 1.08051 0
M  V30 5167 C 487.945 -1.84535 -0.364483 0
M  V30 5168 O 487.303 -1.3003 -1.2634 0
M  V30 5169 C 487.351 -3.18 1.70024 0
M  V30 5170 O 486.455 -4.01161 0.956216 0
M  V30 5171 H 485.796 -0.545008 0.379292 0
M  V30 5172 H 488.326 -1.24277 1.62531 0
M  V30 5173 H 488.336 -3.68616 1.74888 0
M  V30 5174 H 487.011 -3.11853 2.75174 0
M  V30 5175 H 485.588 -3.59687 0.98384 0
M  V30 5176 N 487.773 -1.03688 -1.18687 0
M  V30 5177 C 488.736 -0.629115 -2.20397 0
M  V30 5178 C 489.736 0.311495 -1.57754 0
M  V30 5179 O 490.926 0.0974107 -1.73927 0
M  V30 5180 C 488.058 0.0782231 -3.4081 0
M  V30 5181 H 489.251 -1.52915 -2.57987 0
M  V30 5182 H 486.804 -0.828988 -1.32505 0
M  V30 5183 H 487.539 0.992233 -3.08748 0
M  V30 5184 H 487.324 -0.597776 -3.87517 0
M  V30 5185 H 488.814 0.350156 -4.16129 0
M  V30 5186 N 489.251 1.34841 -0.815825 0
M  V30 5187 C 490.183 2.28409 -0.190265 0
M  V30 5188 C 491.196 1.50705 0.615771 0
M  V30 5189 O 492.385 1.72822 0.446616 0
M  V30 5190 C 489.485 3.30441 0.752446 0
M  V30 5191 C 488.658 4.37399 -0.00922152 0
M  V30 5192 C 487.717 5.19234 0.853351 0
M  V30 5193 O 486.743 5.68404 0.300919 0
M  V30 5194 N 487.945 5.38248 2.17416 0
M  V30 5195 H 490.71 2.82732 -0.994114 0
M  V30 5196 H 488.271 1.47289 -0.672129 0
M  V30 5197 H 490.263 3.82084 1.33394 0
M  V30 5198 H 488.833 2.76565 1.45707 0
M  V30 5199 H 488.053 3.86567 -0.771979 0
M  V30 5200 H 489.341 5.05992 -0.533807 0
M  V30 5201 H 488.739 4.99961 2.6468 0
M  V30 5202 H 487.296 5.93035 2.70467 0
M  V30 5203 N 490.729 0.570148 1.46925 0
M  V30 5204 C 491.692 -0.159933 2.28641 0
M  V30 5205 C 492.692 -0.830638 1.37685 0
M  V30 5206 O 493.882 -0.684516 1.60187 0
M  V30 5207 C 491.014 -1.2354 3.17727 0
M  V30 5208 H 492.207 0.558035 2.94662 0
M  V30 5209 H 489.76 0.327603 1.52828 0
M  V30 5210 H 490.495 -1.98535 2.56426 0
M  V30 5211 H 490.28 -0.759125 3.84681 0
M  V30 5212 H 491.77 -1.74782 3.79264 0
M  V30 5213 N 492.207 -1.54576 0.307264 0
M  V30 5214 C 493.435 -2.04675 -0.302597 0
M  V30 5215 C 493.85 -1.18425 -1.47041 0
M  V30 5216 O 493.207 -0.211257 -1.81273 0
M  V30 5217 C 493.258 -3.53575 -0.752801 0
M  V30 5218 O 492.979 -4.36547 0.368536 0
M  V30 5219 C 494.48 -4.19699 -1.42717 0
M  V30 5220 H 491.7 -0.66786 -0.0648374 0
M  V30 5221 H 494.244 -1.99516 0.448716 0
M  V30 5222 H 492.399 -3.59074 -1.45412 0
M  V30 5223 H 492.813 -5.24497 0.0168937 0
M  V30 5224 H 494.287 -5.25388 -1.69327 0
M  V30 5225 H 494.764 -3.69815 -2.36925 0
M  V30 5226 H 495.37 -4.18293 -0.768856 0
M  V30 5227 N 493.685 -0.035106 -1.57561 0
M  V30 5228 C 494.913 0.652258 -1.9635 0
M  V30 5229 C 495.328 1.65317 -0.911897 0
M  V30 5230 O 494.685 1.82194 0.105657 0
M  V30 5231 C 494.736 1.35337 -3.35211 0
M  V30 5232 O 494.457 0.392548 -4.36338 0
M  V30 5233 C 495.958 2.13199 -3.88666 0
M  V30 5234 H 493.178 0.179444 -0.646561 0
M  V30 5235 H 495.722 -0.0966459 -2.04271 0
M  V30 5236 H 493.877 2.05362 -3.28489 0
M  V30 5237 H 494.291 0.891097 -5.16875 0
M  V30 5238 H 495.765 2.577 -4.88154 0
M  V30 5239 H 496.242 2.97353 -3.23231 0
M  V30 5240 H 496.848 1.48118 -3.98674 0
M  V30 5241 N 495.163 1.55791 0.238111 0
M  V30 5242 C 496.073 1.94196 1.31625 0
M  V30 5243 C 497.089 0.843545 1.52185 0
M  V30 5244 O 498.265 1.1457 1.65637 0
M  V30 5245 C 495.33 2.2365 2.64918 0
M  V30 5246 C 494.391 3.46971 2.52804 0
M  V30 5247 C 493.624 3.7501 3.79741 0
M  V30 5248 O 493.847 3.04982 4.82019 0
M  V30 5249 O 492.781 4.68525 3.77846 0
M  V30 5250 H 496.607 2.86044 1.02043 0
M  V30 5251 H 494.192 1.42786 0.439603 0
M  V30 5252 H 496.074 2.43863 3.4367 0
M  V30 5253 H 494.749 1.34979 2.94215 0
M  V30 5254 H 493.656 3.32055 1.72309 0
M  V30 5255 H 494.989 4.35971 2.28451 0
M  V30 5256 N 496.642 -0.504142 1.49319 0
M  V30 5257 C 497.605 -1.5883 1.65244 0
M  V30 5258 C 498.605 -1.52009 0.524386 0
M  V30 5259 O 499.795 -1.55218 0.79077 0
M  V30 5260 C 496.927 -2.98481 1.64687 0
M  V30 5261 H 498.12 -1.4604 2.61939 0
M  V30 5262 H 495.673 -0.728144 1.38303 0
M  V30 5263 H 496.408 -3.16751 0.695644 0
M  V30 5264 H 496.193 -3.0484 2.46607 0
M  V30 5265 H 497.683 -3.77256 1.79075 0
M  V30 5266 O 498.159 -1.47868 -0.649398 0
M  V30 5267 H 498.85 -1.43327 -1.30297 0
M  V30 END ATOM
M  V30 BEGIN BOND
M  V30 END BOND
M  V30 END CTAB
M  END
$$$$
