drugbank_target|Q9ULD8 Potassium voltage-gated channel subfamily H member 3 (DB00228; DB01069; DB01110)
 OpenBabel12092121213D

  0  0  0     0  0            999 V3000
M  V30 BEGIN CTAB
M  V30 COUNTS 16469 16679 0 0 0
M  V30 BEGIN ATOM
M  V30 1 H -0.908 1.98254 -0.117106 0
M  V30 2 N 0 1.576 0 0
M  V30 3 C 0.933 2.03868 1.02534 0
M  V30 4 C 1.911 0.928543 1.3348 0
M  V30 5 O 3.095 1.19667 1.45644 0
M  V30 6 C 0.222 2.43627 2.35294 0
M  V30 7 C -0.732 3.65373 2.2001 0
M  V30 8 S 0.101 5.13292 1.52614 0
M  V30 9 C 1.257 5.56322 2.86805 0
M  V30 10 H 1.49 2.90518 0.631377 0
M  V30 11 H -0.977 1.52953 0.210867 0
M  V30 12 H 0.981 2.67203 3.11629 0
M  V30 13 H -0.358 1.57376 2.7183 0
M  V30 14 H -1.165 3.90944 3.18086 0
M  V30 15 H -1.563 3.418 1.51819 0
M  V30 16 H 0.729 5.58782 3.83104 0
M  V30 17 H 1.672 6.56266 2.65933 0
M  V30 18 H 2.08 4.83886 2.90714 0
M  V30 19 N 1.4781 -0.272755 1.55222 0
M  V30 20 C 2.8891 -0.84378 1.66545 0
M  V30 21 C 3.2401 -1.87035 0.592641 0
M  V30 22 O 2.3651 -2.14761 -0.265818 0
M  V30 23 C 2.9601 -1.53723 3.01918 0
M  V30 24 C 1.5191 -2.05628 3.15268 0
M  V30 25 C 0.6661 -0.898424 2.62343 0
M  V30 26 H 3.6171 -0.0490998 1.58624 0
M  V30 27 H 3.6381 -2.40421 2.94921 0
M  V30 28 H 3.1501 -0.78983 3.79978 0
M  V30 29 H 1.2511 -2.83329 2.41983 0
M  V30 30 H 1.3641 -2.27142 4.21833 0
M  V30 31 H -0.2719 -1.29186 2.19506 0
M  V30 32 H 0.5111 -0.164528 3.42906 0
M  V30 33 N 2.9562 -1.48159 -0.537278 0
M  V30 34 C 3.9192 -1.61665 -1.62472 0
M  V30 35 C 4.9192 -0.490395 -1.5314 0
M  V30 36 O 6.1092 -0.755998 -1.5694 0
M  V30 37 C 3.2412 -1.57997 -3.02076 0
M  V30 38 H 4.4342 -2.58621 -1.51839 0
M  V30 39 H 1.9872 -1.36647 -0.758771 0
M  V30 40 H 2.7222 -0.624913 -3.18222 0
M  V30 41 H 2.5072 -2.39755 -3.10258 0
M  V30 42 H 3.9972 -1.70627 -3.81151 0
M  V30 43 N 4.4343 0.785586 -1.36625 0
M  V30 44 C 5.3673 1.90509 -1.25625 0
M  V30 45 C 6.3453 1.62 -0.139607 0
M  V30 46 O 7.5293 1.8591 -0.31141 0
M  V30 47 C 4.6563 3.25419 -0.939158 0
M  V30 48 C 3.7023 3.72856 -2.07077 0
M  V30 49 S 4.5353 3.88162 -3.68904 0
M  V30 50 C 5.6913 5.25942 -3.39317 0
M  V30 51 H 5.9243 1.99549 -2.20381 0
M  V30 52 H 3.4573 0.945226 -1.22085 0
M  V30 53 H 5.4153 4.03346 -0.763029 0
M  V30 54 H 4.0763 3.14099 -0.00931402 0
M  V30 55 H 3.2693 4.70624 -1.80357 0
M  V30 56 H 2.8713 3.01989 -2.20632 0
M  V30 57 H 5.1633 6.10651 -2.93447 0
M  V30 58 H 6.1063 5.57668 -4.36363 0
M  V30 59 H 6.5143 4.93224 -2.74573 0
M  V30 60 N 5.9124 1.20967 1.01018 0
M  V30 61 C 7.3284 0.965905 1.27053 0
M  V30 62 C 7.5284 -0.350785 1.98423 0
M  V30 63 O 6.5844 -1.07773 2.28344 0
M  V30 64 C 7.8974 2.15294 2.09926 0
M  V30 65 C 9.4454 2.19463 2.23171 0
M  V30 66 C 9.9204 3.3767 3.09424 0
M  V30 67 N 11.4114 3.37724 3.17012 0
M  V30 68 C 12.1464 4.25837 3.83993 0
M  V30 69 N 11.6424 5.24138 4.53047 0
M  V30 70 N 13.4354 4.1366 3.80581 0
M  V30 71 H 5.5864 2.0565 0.531194 0
M  V30 72 H 7.8494 0.90024 0.297106 0
M  V30 73 H 7.5554 3.10684 1.64828 0
M  V30 74 H 7.4294 2.13923 3.10672 0
M  V30 75 H 9.8164 1.24632 2.6749 0
M  V30 76 H 9.8974 2.2488 1.21912 0
M  V30 77 H 9.5414 4.32791 2.65808 0
M  V30 78 H 9.4714 3.29491 4.10784 0
M  V30 79 H 11.9624 2.6658 2.6785 0
M  V30 80 H 12.2754 5.87684 5.01844 0
M  V30 81 H 10.6204 5.28068 4.5185 0
M  V30 82 H 13.8114 3.36127 3.25785 0
M  V30 83 H 13.9844 4.82538 4.32505 0
M  V30 84 N 7.3905 -1.2043 1.01659 0
M  V30 85 C 8.6385 -1.89423 0.704522 0
M  V30 86 C 8.9595 -1.79231 -0.768197 0
M  V30 87 O 8.2295 -1.1947 -1.55254 0
M  V30 88 H 6.8095 -0.701178 0.257602 0
M  V30 89 H 9.4715 -1.4626 1.28818 0
M  V30 90 H 8.5675 -2.96052 0.987916 0
M  V30 91 N 8.8686 -0.792821 -1.36206 0
M  V30 92 C 9.7986 -0.207853 -2.32573 0
M  V30 93 C 10.7796 0.659055 -1.56813 0
M  V30 94 O 11.9646 0.592176 -1.84951 0
M  V30 95 C 9.0946 0.655449 -3.41059 0
M  V30 96 C 8.0486 -0.111842 -4.27854 0
M  V30 97 C 7.3746 0.872274 -5.27537 0
M  V30 98 C 8.6746 -1.30299 -5.05786 0
M  V30 99 H 10.3686 -1.01294 -2.81744 0
M  V30 100 H 7.9146 -0.48854 -1.3546 0
M  V30 101 H 9.8676 1.07464 -4.07467 0
M  V30 102 H 8.5916 1.49328 -2.90463 0
M  V30 103 H 7.2506 -0.512053 -3.63006 0
M  V30 104 H 6.8986 1.70523 -4.73214 0
M  V30 105 H 6.5986 0.363291 -5.86476 0
M  V30 106 H 8.1226 1.28996 -5.96818 0
M  V30 107 H 9.5366 -0.959379 -5.65216 0
M  V30 108 H 7.9336 -1.7455 -5.74154 0
M  V30 109 H 9.0036 -2.09663 -4.37229 0
M  V30 110 N 10.3467 1.47872 -0.545128 0
M  V30 111 C 11.2767 2.32661 0.197793 0
M  V30 112 C 12.2577 1.43041 0.920504 0
M  V30 113 O 13.4427 1.71912 0.90333 0
M  V30 114 C 10.5727 3.24569 1.23582 0
M  V30 115 C 9.5267 4.23333 0.630323 0
M  V30 116 C 8.8527 5.0448 1.77211 0
M  V30 117 C 10.1527 5.20704 -0.407974 0
M  V30 118 H 11.8467 2.95024 -0.510045 0
M  V30 119 H 9.3927 1.4187 -0.246731 0
M  V30 120 H 11.3457 3.8272 1.76362 0
M  V30 121 H 10.0697 2.60236 1.97344 0
M  V30 122 H 8.7287 3.6639 0.123922 0
M  V30 123 H 8.3767 4.36561 2.49847 0
M  V30 124 H 8.0767 5.71339 1.37281 0
M  V30 125 H 9.6007 5.65487 2.3034 0
M  V30 126 H 11.0147 5.7329 0.033305 0
M  V30 127 H 9.4117 5.95699 -0.725486 0
M  V30 128 H 10.4817 4.66917 -1.30828 0
M  V30 129 N 11.8248 0.280983 1.55075 0
M  V30 130 C 12.7878 -0.590896 2.21452 0
M  V30 131 C 13.7878 -1.07682 1.19421 0
M  V30 132 O 14.9778 -0.97605 1.44288 0
M  V30 133 C 12.1098 -1.81587 2.88511 0
M  V30 134 H 13.3028 -0.0112554 2.99898 0
M  V30 135 H 10.8558 0.0316438 1.56268 0
M  V30 136 H 11.5908 -2.43587 2.14093 0
M  V30 137 H 11.3758 -1.4753 3.63287 0
M  V30 138 H 12.8658 -2.43575 3.39206 0
M  V30 139 N 13.3029 -1.57598 0.00835791 0
M  V30 140 C 14.7139 -1.7892 -0.53333 0
M  V30 141 C 15.0649 -0.916609 -1.73473 0
M  V30 142 O 14.1899 -0.121336 -2.1606 0
M  V30 143 C 14.7849 -3.24488 -0.974313 0
M  V30 144 C 13.3439 -3.46878 -1.46125 0
M  V30 145 C 12.4909 -2.74157 -0.416302 0
M  V30 146 H 15.4419 -1.56958 0.234495 0
M  V30 147 H 15.4629 -3.3306 -1.83988 0
M  V30 148 H 14.9749 -3.87972 -0.099718 0
M  V30 149 H 13.0759 -2.8862 -2.35646 0
M  V30 150 H 13.1889 -4.55572 -1.48295 0
M  V30 151 H 11.5529 -2.39022 -0.87981 0
M  V30 152 H 12.3359 -3.40345 0.44947 0
M  V30 153 N 14.781 0.264519 -1.55364 0
M  V30 154 C 15.713 1.34965 -1.85248 0
M  V30 155 C 16.726 1.45136 -0.737525 0
M  V30 156 O 17.915 1.46801 -1.01547 0
M  V30 157 C 15.015 2.73008 -2.00797 0
M  V30 158 C 14.188 2.85324 -3.31525 0
M  V30 159 C 13.247 4.04097 -3.37034 0
M  V30 160 O 12.273 3.94455 -4.10358 0
M  V30 161 N 13.475 5.16458 -2.65049 0
M  V30 162 H 16.24 1.09672 -2.78913 0
M  V30 163 H 13.801 0.454635 -1.55386 0
M  V30 164 H 15.793 3.50772 -2.01844 0
M  V30 165 H 14.363 2.91087 -1.1396 0
M  V30 166 H 13.583 1.94377 -3.42945 0
M  V30 167 H 14.871 2.9049 -4.17724 0
M  V30 168 H 14.269 5.27181 -2.05175 0
M  V30 169 H 12.826 5.92422 -2.71809 0
M  V30 170 N 16.2591 1.48442 0.529413 0
M  V30 171 C 17.2071 1.63452 1.65487 0
M  V30 172 C 18.2011 0.500955 1.61823 0
M  V30 173 O 19.4071 0.679695 1.66674 0
M  V30 174 H 15.7821 0.514905 0.548066 0
M  V30 175 H 17.7531 2.57975 1.49971 0
M  V30 176 C 16.5021 1.69196 3.03756 0
M  V30 177 H 15.8251 2.55784 3.07269 0
M  V30 178 H 17.2651 1.83743 3.82119 0
M  V30 179 C 15.7241 0.430765 3.34135 0
M  V30 180 O 16.2541 -0.4561 3.99102 0
M  V30 181 N 14.4601 0.302293 2.89023 0
M  V30 182 H 14.0071 1.02496 2.36331 0
M  V30 183 H 13.9651 -0.540546 3.09718 0
M  V30 184 N 17.7372 -0.778329 1.37039 0
M  V30 185 C 18.9652 -1.56734 1.35063 0
M  V30 186 C 19.3802 -1.88686 -0.0655597 0
M  V30 187 O 18.7372 -1.5096 -1.02554 0
M  V30 188 C 18.7882 -2.88163 2.18276 0
M  V30 189 O 18.5092 -2.57583 3.54376 0
M  V30 190 C 20.0102 -3.82422 2.24206 0
M  V30 191 H 17.2302 -0.485778 0.462883 0
M  V30 192 H 19.7742 -0.965185 1.8029 0
M  V30 193 H 17.9292 -3.44818 1.76576 0
M  V30 194 H 18.3432 -3.41699 3.97922 0
M  V30 195 H 19.8172 -4.71667 2.86765 0
M  V30 196 H 20.2942 -4.21078 1.24861 0
M  V30 197 H 20.9002 -3.31697 2.6619 0
M  V30 198 N 19.2153 -1.21501 -1.00376 0
M  V30 199 C 20.4623 -1.03299 -1.74171 0
M  V30 200 C 20.7903 0.433326 -1.89612 0
M  V30 201 O 20.0453 1.33779 -1.42834 0
M  V30 202 C 20.3443 -1.67673 -3.15627 0
M  V30 203 C 20.0103 -3.17533 -3.2013 0
M  V30 204 C 18.6723 -3.58427 -3.21067 0
M  V30 205 C 21.0243 -4.13504 -3.17275 0
M  V30 206 C 18.3523 -4.93794 -3.16835 0
M  V30 207 C 20.7043 -5.48834 -3.14585 0
M  V30 208 C 19.3683 -5.89123 -3.13831 0
M  V30 209 H 18.6383 -0.377999 -0.637336 0
M  V30 210 H 21.2853 -1.51111 -1.17634 0
M  V30 211 H 19.5903 -1.12158 -3.75404 0
M  V30 212 H 21.2873 -1.51091 -3.71446 0
M  V30 213 H 17.8773 -2.84965 -3.20145 0
M  V30 214 H 22.0613 -3.82936 -3.15711 0
M  V30 215 H 17.3173 -5.24255 -3.1459 0
M  V30 216 H 21.4913 -6.22934 -3.1133 0
M  V30 217 H 19.1183 -6.93984 -3.10307 0
M  V30 218 N 20.6934 1.19889 -1.02296 0
M  V30 219 C 21.6234 2.25141 -0.619174 0
M  V30 220 C 22.6044 1.66051 0.368915 0
M  V30 221 O 23.7894 1.92546 0.252941 0
M  V30 222 C 20.9194 3.4728 0.0368783 0
M  V30 223 C 19.8734 4.19005 -0.872865 0
M  V30 224 C 19.1994 5.34637 -0.0822402 0
M  V30 225 C 20.4994 4.74452 -2.18387 0
M  V30 226 H 22.1934 2.59171 -1.49903 0
M  V30 227 H 19.7394 1.24579 -0.722222 0
M  V30 228 H 21.6924 4.20098 0.330958 0
M  V30 229 H 20.4164 3.12433 0.95149 0
M  V30 230 H 19.0754 3.48061 -1.15105 0
M  V30 231 H 18.7234 4.96034 0.83422 0
M  V30 232 H 18.4234 5.83557 -0.688149 0
M  V30 233 H 19.9474 6.10255 0.205238 0
M  V30 234 H 21.3614 5.39055 -1.95172 0
M  V30 235 H 19.7584 5.33834 -2.74119 0
M  V30 236 H 20.8284 3.92844 -2.84257 0
M  V30 237 N 22.1715 0.800033 1.35784 0
M  V30 238 C 23.4485 0.30088 1.93272 0
M  V30 239 C 23.8285 -1.20857 1.73081 0
M  V30 240 O 23.1765 -2.00502 1.09596 0
M  V30 241 C 23.3865 0.70511 3.41803 0
M  V30 242 C 24.7345 0.690871 4.18942 0
M  V30 243 O 25.7585 0.646244 3.50289 0
M  V30 244 O 24.6175 0.74332 5.41421 0
M  V30 245 H 21.7115 0.0771605 0.823393 0
M  V30 246 H 24.2575 0.88329 1.449 0
M  V30 247 H 23.0295 1.74571 3.50201 0
M  V30 248 H 22.6525 0.0971541 3.97481 0
M  V30 249 N 23.6496 -1.47581 0.552962 0
M  V30 250 C 24.8776 -2.06875 0.0320556 0
M  V30 251 C 25.2926 -1.40625 -1.25976 0
M  V30 252 O 24.6496 -0.501349 -1.75479 0
M  V30 253 C 24.7006 -3.61092 -0.17167 0
M  V30 254 O 24.4216 -4.24858 1.06899 0
M  V30 255 C 25.9226 -4.37242 -0.730344 0
M  V30 256 H 23.1426 -0.669561 0.043915 0
M  V30 257 H 25.6866 -1.89646 0.765163 0
M  V30 258 H 23.8416 -3.7785 -0.854894 0
M  V30 259 H 24.2556 -5.17334 0.864059 0
M  V30 260 H 25.7296 -5.45842 -0.822203 0
M  V30 261 H 26.2066 -4.03235 -1.74064 0
M  V30 262 H 26.8126 -4.25219 -0.0829543 0
M  V30 263 N 25.1277 -0.289203 -1.54924 0
M  V30 264 C 26.3767 0.324231 -1.99077 0
M  V30 265 C 26.6897 1.5591 -1.18117 0
M  V30 266 O 27.8957 2.24637 -1.52481 0
M  V30 267 C 26.3517 0.628209 -3.54375 0
M  V30 268 C 25.9597 -0.587647 -4.44129 0
M  V30 269 C 27.7037 1.20349 -4.07083 0
M  V30 270 C 25.6107 -0.257475 -5.90839 0
M  V30 271 H 24.5407 0.124924 -0.743579 0
M  V30 272 H 27.1917 -0.396063 -1.79175 0
M  V30 273 H 25.5737 1.40778 -3.70132 0
M  V30 274 H 26.7477 -1.36418 -4.40144 0
M  V30 275 H 25.0627 -1.08074 -4.0213 0
M  V30 276 H 27.6597 1.46456 -5.14252 0
M  V30 277 H 28.0027 2.14195 -3.56968 0
M  V30 278 H 28.5357 0.485889 -3.94821 0
M  V30 279 H 25.2747 -1.16419 -6.45079 0
M  V30 280 H 24.7947 0.482018 -5.9786 0
M  V30 281 H 26.4737 0.145238 -6.46837 0
M  V30 282 N 26.6058 1.57591 -0.0167156 0
M  V30 283 C 27.5688 2.08393 0.954204 0
M  V30 284 C 28.5688 0.996531 1.26198 0
M  V30 285 O 29.7588 1.25858 1.20438 0
M  V30 286 C 26.8908 2.5394 2.27436 0
M  V30 287 H 28.0838 2.95455 0.514451 0
M  V30 288 H 25.6368 1.54582 0.231089 0
M  V30 289 H 26.3718 1.70171 2.76066 0
M  V30 290 H 26.1568 3.33371 2.06412 0
M  V30 291 H 27.6468 2.93512 2.97053 0
M  V30 292 N 28.0839 -0.256276 1.55502 0
M  V30 293 C 29.3119 -1.00342 1.8094 0
M  V30 294 C 29.7269 -1.79307 0.59114 0
M  V30 295 O 29.0839 -1.77114 -0.440081 0
M  V30 296 C 29.1349 -1.94875 3.04476 0
M  V30 297 O 28.8559 -1.19107 4.21598 0
M  V30 298 C 30.3569 -2.81266 3.42644 0
M  V30 299 H 27.5769 -0.295685 0.602338 0
M  V30 300 H 30.1209 -0.281998 2.02546 0
M  V30 301 H 28.2759 -2.62457 2.84947 0
M  V30 302 H 28.6899 -1.82969 4.91551 0
M  V30 303 H 30.1639 -3.43362 4.32211 0
M  V30 304 H 30.6409 -3.51897 2.62802 0
M  V30 305 H 31.2469 -2.1915 3.64491 0
M  V30 306 N 29.562 -1.4872 -0.521534 0
M  V30 307 C 30.978 -1.35028 -0.850855 0
M  V30 308 C 31.178 -0.367712 -1.98116 0
M  V30 309 O 30.234 0.208037 -2.51642 0
M  V30 310 C 31.547 -2.75263 -1.21041 0
M  V30 311 C 33.095 -2.83813 -1.31981 0
M  V30 312 C 33.57 -4.24769 -1.71276 0
M  V30 313 N 35.061 -4.27482 -1.78363 0
M  V30 314 C 35.796 -5.33494 -2.1017 0
M  V30 315 N 35.292 -6.49775 -2.40343 0
M  V30 316 N 37.085 -5.20894 -2.11248 0
M  V30 317 H 29.236 -2.11214 0.22413 0
M  V30 318 H 31.499 -0.947252 0.0376439 0
M  V30 319 H 31.205 -3.48765 -0.453415 0
M  V30 320 H 31.079 -3.09327 -2.15863 0
M  V30 321 H 33.466 -2.10561 -2.06756 0
M  V30 322 H 33.547 -2.53358 -0.352596 0
M  V30 323 H 33.191 -4.9854 -0.970588 0
M  V30 324 H 33.121 -4.52673 -2.69062 0
M  V30 325 H 35.612 -3.43611 -1.57288 0
M  V30 326 H 35.925 -7.26402 -2.63743 0
M  V30 327 H 34.27 -6.53035 -2.37844 0
M  V30 328 H 37.461 -4.29065 -1.87139 0
M  V30 329 H 37.634 -6.03612 -2.35704 0
M  V30 330 N 31.0401 0.771051 -1.3745 0
M  V30 331 C 32.2871 1.52963 -1.32697 0
M  V30 332 C 32.6151 1.94299 0.0883274 0
M  V30 333 O 31.8701 1.64397 1.0617 0
M  V30 334 C 32.1691 2.80676 -2.2126 0
M  V30 335 C 31.8351 2.58389 -3.69521 0
M  V30 336 C 30.4971 2.52019 -4.09927 0
M  V30 337 C 32.8491 2.38469 -4.63446 0
M  V30 338 C 30.1771 2.23721 -5.42371 0
M  V30 339 C 32.5291 2.11694 -5.96128 0
M  V30 340 C 31.1931 2.03769 -6.35637 0
M  V30 341 H 30.4631 0.559732 -0.485573 0
M  V30 342 H 33.1101 0.888083 -1.69662 0
M  V30 343 H 31.4151 3.49392 -1.77291 0
M  V30 344 H 33.1121 3.38557 -2.14895 0
M  V30 345 H 29.7021 2.6421 -3.37478 0
M  V30 346 H 33.8861 2.4238 -4.33089 0
M  V30 347 H 29.1421 2.16081 -5.71943 0
M  V30 348 H 33.3161 1.9528 -6.6846 0
M  V30 349 H 30.9431 1.81606 -7.38189 0
M  V30 350 N 32.5182 1.22032 0.997298 0
M  V30 351 C 33.7952 0.950823 1.70935 0
M  V30 352 C 34.1752 -0.535292 2.042 0
M  V30 353 O 33.5232 -1.50217 1.72183 0
M  V30 354 C 33.7332 1.84386 2.96315 0
M  V30 355 C 35.0812 2.09732 3.69185 0
M  V30 356 O 36.1052 1.81798 3.06314 0
M  V30 357 O 34.9642 2.57018 4.82291 0
M  V30 358 H 32.0582 0.357204 0.745878 0
M  V30 359 H 34.6042 1.32997 1.05404 0
M  V30 360 H 33.3762 2.84928 2.68201 0
M  V30 361 H 32.9992 1.46602 3.69586 0
M  V30 362 N 33.9963 -1.19345 1.0293 0
M  V30 363 C 35.2443 -1.88665 0.724574 0
M  V30 364 C 35.5653 -1.80036 -0.749144 0
M  V30 365 O 34.8353 -1.2111 -1.53978 0
M  V30 366 H 33.4153 -0.698406 0.265025 0
M  V30 367 H 36.0773 -1.44885 1.30362 0
M  V30 368 H 35.1733 -2.94987 1.01926 0
M  V30 369 N 35.4744 -0.807222 -1.35358 0
M  V30 370 C 36.7024 -0.400377 -2.02989 0
M  V30 371 C 37.1174 0.988859 -1.60832 0
M  V30 372 O 36.4744 1.63729 -0.806175 0
M  V30 373 C 36.5254 -0.474867 -3.58368 0
M  V30 374 O 36.2464 -1.80933 -3.98992 0
M  V30 375 C 37.7474 -0.0609112 -4.43258 0
M  V30 376 H 34.9674 -0.162587 -0.651004 0
M  V30 377 H 37.5114 -1.09102 -1.72965 0
M  V30 378 H 35.6664 0.167534 -3.87038 0
M  V30 379 H 36.0804 -1.77256 -4.9364 0
M  V30 380 H 37.5544 -0.164145 -5.51756 0
M  V30 381 H 38.0314 0.993831 -4.27808 0
M  V30 382 H 38.6374 -0.676492 -4.19885 0
M  V30 383 N 36.9525 1.47285 -0.560781 0
M  V30 384 C 37.9025 2.27073 0.205384 0
M  V30 385 C 38.8865 1.34569 0.882044 0
M  V30 386 O 40.0785 1.58899 0.77976 0
M  V30 387 C 37.2075 3.20414 1.23247 0
M  V30 388 C 36.2935 4.20399 0.559041 0
M  V30 389 N 36.6845 5.04423 -0.372927 0
M  V30 390 C 34.9825 4.38536 0.812522 0
M  V30 391 C 35.6835 5.76655 -0.764446 0
M  V30 392 N 34.6595 5.43471 -0.11848 0
M  V30 393 H 38.4615 2.89422 -0.511117 0
M  V30 394 H 35.9755 1.57868 -0.380975 0
M  V30 395 H 37.9725 3.76262 1.79534 0
M  V30 396 H 36.6325 2.59623 1.95002 0
M  V30 397 H 37.6435 5.1248 -0.747287 0
M  V30 398 H 34.3205 3.88913 1.51832 0
M  V30 399 H 35.7105 6.54238 -1.53045 0
M  V30 400 N 38.4306 0.297415 1.54768 0
M  V30 401 C 39.6556 -0.318435 2.04941 0
M  V30 402 C 40.0806 -1.4701 1.17345 0
M  V30 403 O 39.4386 -1.80436 0.176758 0
M  V30 404 C 39.4866 -0.755749 3.52592 0
M  V30 405 O 38.5906 -1.86088 3.68028 0
M  V30 406 H 37.9316 -0.062421 0.661059 0
M  V30 407 H 40.4616 0.438215 1.99852 0
M  V30 408 H 40.4716 -1.04552 3.94376 0
M  V30 409 H 39.1466 0.0867233 4.1581 0
M  V30 410 H 37.7236 -1.57193 3.38149 0
M  V30 411 N 39.9087 -1.5758 0.0250728 0
M  V30 412 C 40.8567 -2.11125 -0.97617 0
M  V30 413 C 41.8507 -1.03689 -1.33959 0
M  V30 414 O 43.0567 -1.22128 -1.3223 0
M  V30 415 H 39.4317 -0.674468 -0.332561 0
M  V30 416 H 41.4027 -2.94194 -0.499223 0
M  V30 417 C 40.1517 -2.65017 -2.2508 0
M  V30 418 H 39.4747 -3.47333 -1.9799 0
M  V30 419 H 40.9147 -3.06133 -2.93357 0
M  V30 420 C 39.3737 -1.57574 -2.97779 0
M  V30 421 O 39.9037 -0.973203 -3.89733 0
M  V30 422 N 38.1097 -1.29716 -2.60043 0
M  V30 423 H 37.6567 -1.789 -1.85345 0
M  V30 424 H 37.6147 -0.58051 -3.08994 0
M  V30 425 N 41.3868 0.248026 -1.55636 0
M  V30 426 C 42.6338 0.976224 -1.77415 0
M  V30 427 C 42.9618 1.85361 -0.589193 0
M  V30 428 O 42.2168 1.90973 0.427529 0
M  V30 429 C 42.5158 1.86819 -3.04686 0
M  V30 430 C 42.1818 1.14625 -4.36087 0
M  V30 431 C 40.8438 0.946723 -4.71795 0
M  V30 432 C 43.1958 0.634463 -5.17324 0
M  V30 433 C 40.5238 0.223091 -5.86276 0
M  V30 434 C 42.8758 -0.0756959 -6.32555 0
M  V30 435 C 41.5398 -0.286711 -6.66884 0
M  V30 436 H 40.8098 0.357226 -0.649208 0
M  V30 437 H 43.4568 0.246415 -1.89908 0
M  V30 438 H 41.7618 2.66502 -2.872 0
M  V30 439 H 43.4588 2.43329 -3.18735 0
M  V30 440 H 40.0488 1.3117 -4.08035 0
M  V30 441 H 44.2328 0.77616 -4.90193 0
M  V30 442 H 39.4888 0.0491185 -6.1138 0
M  V30 443 H 43.6628 -0.479899 -6.94745 0
M  V30 444 H 41.2898 -0.849389 -7.5544 0
M  V30 445 N 42.8649 1.48995 0.513639 0
M  V30 446 C 44.1109 1.58076 1.27042 0
M  V30 447 C 44.4439 0.261026 1.92438 0
M  V30 448 O 43.7189 -0.734393 1.80103 0
M  V30 449 C 44.0019 2.73091 2.34719 0
M  V30 450 C 43.8549 4.14821 1.73907 0
M  V30 451 C 45.1739 2.83796 3.36375 0
M  V30 452 H 42.2929 0.575391 0.460536 0
M  V30 453 H 44.9349 1.81232 0.570516 0
M  V30 454 H 43.0849 2.53479 2.94416 0
M  V30 455 H 44.7569 4.45917 1.18135 0
M  V30 456 H 42.9999 4.21058 1.0437 0
M  V30 457 H 43.6709 4.91147 2.51949 0
M  V30 458 H 46.1469 3.01611 2.86653 0
M  V30 459 H 45.0229 3.65971 4.09093 0
M  V30 460 H 45.2839 1.92624 3.9793 0
M  V30 461 N 44.343 -0.763751 1.37857 0
M  V30 462 C 45.273 -1.89103 1.36975 0
M  V30 463 C 46.254 -1.68439 0.237152 0
M  V30 464 O 47.439 -1.8918 0.438713 0
M  V30 465 C 44.569 -3.26496 1.18395 0
M  V30 466 C 43.523 -3.61741 2.28751 0
M  V30 467 C 42.849 -4.97762 1.95286 0
M  V30 468 C 44.149 -3.67665 3.70972 0
M  V30 469 H 45.843 -1.90099 2.31307 0
M  V30 470 H 43.389 -0.91319 1.11341 0
M  V30 471 H 45.342 -4.05003 1.16406 0
M  V30 472 H 44.066 -3.25955 0.205215 0
M  V30 473 H 42.725 -2.85547 2.29909 0
M  V30 474 H 42.373 -4.93769 0.959221 0
M  V30 475 H 42.073 -5.22313 2.69189 0
M  V30 476 H 43.597 -5.7866 1.94898 0
M  V30 477 H 45.011 -4.36307 3.719 0
M  V30 478 H 43.408 -4.03718 4.43995 0
M  V30 479 H 44.478 -2.68134 4.0402 0
M  V30 480 N 45.8211 -1.22559 -0.990812 0
M  V30 481 C 47.0691 -1.04933 -1.72724 0
M  V30 482 C 47.3901 0.416158 -1.90508 0
M  V30 483 O 46.6601 1.29918 -1.46622 0
M  V30 484 H 45.2401 -0.385296 -0.639965 0
M  V30 485 H 47.9021 -1.54105 -1.19322 0
M  V30 486 H 46.9981 -1.52886 -2.72089 0
M  V30 487 N 47.2992 1.18797 -1.03562 0
M  V30 488 C 48.2472 2.24297 -0.615905 0
M  V30 489 C 49.2412 1.65643 0.354808 0
M  V30 490 O 50.4472 1.78618 0.22265 0
M  V30 491 H 46.8222 0.729909 -0.180934 0
M  V30 492 H 48.7932 2.5701 -1.5162 0
M  V30 493 C 47.5422 3.47698 0.0104735 0
M  V30 494 H 46.8652 3.93125 -0.727509 0
M  V30 495 H 48.3052 4.23159 0.266995 0
M  V30 496 C 46.7642 3.12489 1.25905 0
M  V30 497 O 47.2942 3.25761 2.35038 0
M  V30 498 N 45.5002 2.6686 1.15039 0
M  V30 499 H 45.0472 2.56261 0.262328 0
M  V30 500 H 45.0052 2.43674 1.98672 0
M  V30 501 N 48.7773 0.814389 1.34928 0
M  V30 502 C 49.7403 0.235759 2.27984 0
M  V30 503 C 50.7403 -0.581412 1.49921 0
M  V30 504 O 51.9303 -0.398758 1.69575 0
M  V30 505 C 49.0623 -0.670433 3.34242 0
M  V30 506 H 50.2553 1.05659 2.80671 0
M  V30 507 H 47.8083 0.585614 1.44915 0
M  V30 508 H 48.5433 -1.51466 2.86755 0
M  V30 509 H 48.3283 -0.0860822 3.92005 0
M  V30 510 H 49.8183 -1.06935 4.03676 0
M  V30 511 N 50.2554 -1.46986 0.568584 0
M  V30 512 C 51.1874 -2.28233 -0.210337 0
M  V30 513 C 52.2004 -1.37682 -0.868767 0
M  V30 514 O 53.3894 -1.62406 -0.740705 0
M  V30 515 C 50.4894 -3.12293 -1.3163 0
M  V30 516 C 49.6624 -4.30878 -0.7525 0
M  V30 517 C 48.7214 -4.96445 -1.74439 0
M  V30 518 O 47.7474 -5.54482 -1.286 0
M  V30 519 N 48.9494 -4.92171 -3.07812 0
M  V30 520 H 51.7144 -2.95723 0.486648 0
M  V30 521 H 49.2754 -1.56742 0.405409 0
M  V30 522 H 51.2674 -3.53022 -1.97883 0
M  V30 523 H 49.8374 -2.46971 -1.91636 0
M  V30 524 H 49.0574 -3.94104 0.0871128 0
M  V30 525 H 50.3454 -5.07558 -0.35536 0
M  V30 526 H 49.7434 -4.46239 -3.47688 0
M  V30 527 H 48.3004 -5.36884 -3.69592 0
M  V30 528 N 51.7335 -0.305618 -1.54608 0
M  V30 529 C 52.9795 0.302746 -2.00528 0
M  V30 530 C 53.3125 1.53184 -1.19367 0
M  V30 531 O 52.5875 1.92598 -0.271321 0
M  V30 532 C 52.8705 0.654756 -3.54097 0
M  V30 533 C 52.7235 -0.583793 -4.45995 0
M  V30 534 C 54.0425 1.47947 -4.14487 0
M  V30 535 H 51.1615 0.108564 -0.72896 0
M  V30 536 H 53.8035 -0.418634 -1.85331 0
M  V30 537 H 51.9535 1.26935 -3.67178 0
M  V30 538 H 53.6255 -1.22224 -4.44814 0
M  V30 539 H 51.8685 -1.21615 -4.16404 0
M  V30 540 H 52.5395 -0.293287 -5.5122 0
M  V30 541 H 55.0155 0.96013 -4.04871 0
M  V30 542 H 53.8915 1.69454 -5.22088 0
M  V30 543 H 54.1525 2.47011 -3.66658 0
M  V30 544 N 53.2116 1.57565 -0.0334293 0
M  V30 545 C 54.1746 2.09393 0.932048 0
M  V30 546 C 55.1746 1.00986 1.25134 0
M  V30 547 O 56.3646 1.27129 1.19096 0
M  V30 548 C 53.4966 2.56338 2.2473 0
M  V30 549 H 54.6896 2.95984 0.483085 0
M  V30 550 H 52.2426 1.54819 0.21468 0
M  V30 551 H 52.9776 1.7309 2.74245 0
M  V30 552 H 52.7626 3.35542 2.02865 0
M  V30 553 H 54.2526 2.96646 2.93923 0
M  V30 554 N 54.6897 -0.239769 1.55765 0
M  V30 555 C 55.9377 -0.964892 1.77579 0
M  V30 556 C 56.2587 -1.85582 0.598699 0
M  V30 557 O 55.5287 -1.92075 -0.385226 0
M  V30 558 H 54.1087 -0.359265 0.654933 0
M  V30 559 H 56.7707 -0.256001 1.93211 0
M  V30 560 H 55.8667 -1.58243 2.69009 0
M  V30 561 N 56.1678 -1.49265 -0.50573 0
M  V30 562 C 57.0978 -1.68495 -1.61653 0
M  V30 563 C 58.0788 -0.53366 -1.61512 0
M  V30 564 O 59.2638 -0.76897 -1.78327 0
M  V30 565 C 56.3938 -1.74709 -3.00157 0
M  V30 566 C 55.3478 -2.89581 -3.15162 0
M  V30 567 C 54.6738 -2.80903 -4.5497 0
M  V30 568 C 55.9738 -4.30578 -2.95634 0
M  V30 569 H 57.6678 -2.61493 -1.45814 0
M  V30 570 H 55.2138 -1.25838 -0.70005 0
M  V30 571 H 57.1668 -1.86748 -3.77761 0
M  V30 572 H 55.8908 -0.783067 -3.17074 0
M  V30 573 H 54.5498 -2.77136 -2.39982 0
M  V30 574 H 54.1978 -1.82419 -4.68756 0
M  V30 575 H 53.8978 -3.57999 -4.65951 0
M  V30 576 H 55.4218 -2.94944 -5.34641 0
M  V30 577 H 56.8358 -4.4373 -3.63011 0
M  V30 578 H 55.2328 -5.0886 -3.18091 0
M  V30 579 H 56.3028 -4.45352 -1.91806 0
M  V30 580 N 57.6459 0.756429 -1.3826 0
M  V30 581 C 58.8929 1.51547 -1.34312 0
M  V30 582 C 59.2209 1.94382 0.0677144 0
M  V30 583 O 58.4759 1.65514 1.04421 0
M  V30 584 C 58.7749 2.78313 -2.24224 0
M  V30 585 C 58.4409 2.54455 -3.72241 0
M  V30 586 C 57.1029 2.47657 -4.12576 0
M  V30 587 C 59.4549 2.3354 -4.65949 0
M  V30 588 C 56.7829 2.17956 -5.44713 0
M  V30 589 C 59.1349 2.05359 -5.9834 0
M  V30 590 C 57.7989 1.97016 -6.37762 0
M  V30 591 H 57.0689 0.55455 -0.491482 0
M  V30 592 H 59.7159 0.870039 -1.70595 0
M  V30 593 H 58.0209 3.47492 -1.80987 0
M  V30 594 H 59.7179 3.36259 -2.18474 0
M  V30 595 H 56.3079 2.60616 -3.40261 0
M  V30 596 H 60.4919 2.37772 -4.35635 0
M  V30 597 H 55.7479 2.10003 -5.74203 0
M  V30 598 H 59.9219 1.88179 -6.70494 0
M  V30 599 H 57.5489 1.73766 -7.40074 0
M  V30 600 N 59.124 1.23083 0.984299 0
M  V30 601 C 60.535 1.05609 1.5396 0
M  V30 602 C 60.886 -0.377793 1.92528 0
M  V30 603 O 60.011 -1.26398 1.75649 0
M  V30 604 C 60.606 1.91087 2.7977 0
M  V30 605 C 59.165 1.77885 3.31713 0
M  V30 606 C 58.312 1.87028 2.04733 0
M  V30 607 H 61.263 1.36802 0.804419 0
M  V30 608 H 61.284 1.43336 3.5247 0
M  V30 609 H 60.796 2.9544 2.51668 0
M  V30 610 H 58.897 0.762995 3.64704 0
M  V30 611 H 59.01 2.61047 4.01735 0
M  V30 612 H 57.374 1.30565 2.18689 0
M  V30 613 H 58.157 2.92929 1.79017 0
M  V30 614 N 60.6021 -1.18246 1.0419 0
M  V30 615 C 61.8481 -1.88536 0.747122 0
M  V30 616 C 62.1811 -1.80223 -0.723409 0
M  V30 617 O 61.4561 -1.20337 -1.52804 0
M  V30 618 C 61.7391 -3.38968 1.21544 0
M  V30 619 C 61.5921 -3.56084 2.74816 0
M  V30 620 C 62.9111 -4.32648 0.806482 0
M  V30 621 H 60.0301 -0.684619 0.272883 0
M  V30 622 H 62.6721 -1.39113 1.29413 0
M  V30 623 H 60.8221 -3.8119 0.750081 0
M  V30 624 H 62.4941 -3.22946 3.29399 0
M  V30 625 H 60.7371 -2.98699 3.14582 0
M  V30 626 H 61.4081 -4.61639 3.02644 0
M  V30 627 H 63.8841 -3.98211 1.20695 0
M  V30 628 H 62.7601 -5.36462 1.1619 0
M  V30 629 H 63.0211 -4.41146 -0.29029 0
M  V30 630 N 62.0802 -0.821533 -1.34494 0
M  V30 631 C 63.3262 -0.409552 -1.98622 0
M  V30 632 C 63.6592 1.0244 -1.64984 0
M  V30 633 O 62.9342 1.71325 -0.920758 0
M  V30 634 C 63.2172 -0.610458 -3.54888 0
M  V30 635 C 63.0702 -2.09043 -3.98273 0
M  V30 636 C 64.3892 -0.0455379 -4.40076 0
M  V30 637 H 61.5082 -0.15028 -0.721516 0
M  V30 638 H 64.1502 -1.03384 -1.59411 0
M  V30 639 H 62.3002 -0.079044 -3.8842 0
M  V30 640 H 63.9722 -2.68537 -3.75081 0
M  V30 641 H 62.2152 -2.58139 -3.48635 0
M  V30 642 H 62.8862 -2.18182 -5.07051 0
M  V30 643 H 65.3622 -0.499557 -4.1309 0
M  V30 644 H 64.2382 -0.215922 -5.48475 0
M  V30 645 H 64.4992 1.04939 -4.29465 0
M  V30 646 N 63.5583 1.46682 -0.576371 0
M  V30 647 C 64.7883 2.06498 -0.0648694 0
M  V30 648 C 65.1963 1.42665 1.24271 0
M  V30 649 O 64.5393 0.523886 1.76071 0
M  V30 650 C 64.6013 3.5904 0.181816 0
M  V30 651 C 64.2653 4.45028 -1.0392 0
M  V30 652 C 65.2623 4.81959 -1.94966 0
M  V30 653 C 62.9473 4.86259 -1.25927 0
M  V30 654 C 64.9413 5.58942 -3.06371 0
M  V30 655 C 62.6283 5.63002 -2.37638 0
M  V30 656 C 63.6263 5.99257 -3.2769 0
M  V30 657 O 63.3143 6.7445 -4.37461 0
M  V30 658 H 63.0463 0.674028 -0.0515987 0
M  V30 659 H 65.6003 1.89393 -0.794951 0
M  V30 660 H 63.8303 3.74429 0.966436 0
M  V30 661 H 65.5193 4.00806 0.641047 0
M  V30 662 H 66.2853 4.50689 -1.79177 0
M  V30 663 H 62.1643 4.57494 -0.567448 0
M  V30 664 H 65.7083 5.87158 -3.76684 0
M  V30 665 H 61.6053 5.93686 -2.53392 0
M  V30 666 H 62.3733 6.92867 -4.35749 0
M  V30 667 N 65.0364 0.313813 1.54444 0
M  V30 668 C 66.2764 -0.292389 2.02298 0
M  V30 669 C 66.6404 -1.50105 1.19719 0
M  V30 670 O 67.8414 -2.17947 1.5733 0
M  V30 671 C 66.1124 -0.627682 3.51845 0
M  V30 672 S 67.6714 -1.21493 4.21646 0
M  V30 673 H 64.4894 -0.0890247 0.705405 0
M  V30 674 H 67.0914 0.444668 1.90376 0
M  V30 675 H 65.7954 0.260265 4.09574 0
M  V30 676 H 65.3264 -1.39519 3.67829 0
M  V30 677 H 67.3414 -2.5022 4.28491 0
M  V30 678 N 66.5145 -1.57545 0.0417849 0
M  V30 679 C 67.7395 -1.97035 -0.647455 0
M  V30 680 C 68.1645 -0.918775 -1.64135 0
M  V30 681 O 67.5225 0.119006 -1.80909 0
M  V30 682 C 67.5705 -3.35609 -1.31905 0
M  V30 683 O 66.6745 -3.3287 -2.43457 0
M  V30 684 H 66.0155 -0.64211 -0.169086 0
M  V30 685 H 68.5455 -2.04318 0.107399 0
M  V30 686 H 68.5555 -3.72126 -1.67291 0
M  V30 687 H 67.2305 -4.11685 -0.590586 0
M  V30 688 H 65.8075 -3.08087 -2.10088 0
M  V30 689 N 67.9926 0.231505 -1.5589 0
M  V30 690 C 69.2696 0.981096 -1.69215 0
M  V30 691 C 69.6496 2.02799 -0.586164 0
M  V30 692 O 68.9976 2.24823 0.408253 0
M  V30 693 C 69.2076 1.60054 -3.10135 0
M  V30 694 C 70.5556 2.09658 -3.69227 0
M  V30 695 O 71.5796 1.69967 -3.13033 0
M  V30 696 O 70.4386 2.8258 -4.67772 0
M  V30 697 H 67.5326 0.457653 -0.688827 0
M  V30 698 H 70.0786 0.224073 -1.68214 0
M  V30 699 H 68.8506 0.844105 -3.82087 0
M  V30 700 H 68.4736 2.42336 -3.15212 0
M  V30 701 N 69.4707 1.49531 0.497807 0
M  V30 702 C 70.7187 1.58865 1.24926 0
M  V30 703 C 71.0397 0.278721 1.92998 0
M  V30 704 O 70.3097 -0.702144 1.82885 0
M  V30 705 H 68.8897 0.585343 0.464094 0
M  V30 706 H 71.5517 1.86174 0.57666 0
M  V30 707 H 70.6477 2.38633 2.01149 0
M  V30 708 N 70.9488 -0.749086 1.3866 0
M  V30 709 C 72.1958 -1.50833 1.35114 0
M  V30 710 C 72.5238 -1.94415 -0.0574049 0
M  V30 711 O 71.7788 -1.66065 -1.03541 0
M  V30 712 C 72.0778 -2.7712 2.25697 0
M  V30 713 C 71.7438 -2.52477 3.73585 0
M  V30 714 C 70.4058 -2.45466 4.13884 0
M  V30 715 C 72.7578 -2.31066 4.67181 0
M  V30 716 C 70.0858 -2.15064 5.45861 0
M  V30 717 C 72.4378 -2.02183 5.9942 0
M  V30 718 C 71.1018 -1.93631 6.38798 0
M  V30 719 H 70.3718 -0.551936 0.494416 0
M  V30 720 H 73.0188 -0.860979 1.71054 0
M  V30 721 H 71.3238 -3.46528 1.82827 0
M  V30 722 H 73.0208 -3.35096 2.20254 0
M  V30 723 H 69.6108 -2.58807 3.41638 0
M  V30 724 H 73.7948 -2.35459 4.3689 0
M  V30 725 H 69.0508 -2.06954 5.75308 0
M  V30 726 H 73.2248 -1.8462 6.71482 0
M  V30 727 H 70.8518 -1.69839 7.40985 0
M  V30 728 N 72.4269 -1.23603 -0.977757 0
M  V30 729 C 73.6669 -1.08148 -1.73446 0
M  V30 730 C 74.0309 0.374785 -1.88307 0
M  V30 731 O 75.2319 0.650588 -2.60808 0
M  V30 732 C 73.5029 -1.78991 -3.0935 0
M  V30 733 S 75.0619 -1.79141 -4.00567 0
M  V30 734 H 71.8799 -0.386987 -0.596458 0
M  V30 735 H 74.4819 -1.5678 -1.16792 0
M  V30 736 H 73.1859 -2.8408 -2.96187 0
M  V30 737 H 72.7169 -1.30651 -3.71071 0
M  V30 738 H 74.7319 -0.851892 -4.88833 0
M  V30 739 N 73.905 1.17692 -1.04816 0
M  V30 740 C 75.182 1.83768 -0.669963 0
M  V30 741 C 75.562 1.93232 0.849986 0
M  V30 742 O 74.91 1.46397 1.75443 0
M  V30 743 C 75.12 3.21641 -1.35455 0
M  V30 744 C 76.468 3.97592 -1.49017 0
M  V30 745 O 77.492 3.31107 -1.31326 0
M  V30 746 O 76.351 5.16729 -1.77914 0
M  V30 747 H 73.445 0.792799 -0.235368 0
M  V30 748 H 75.991 1.25021 -1.14751 0
M  V30 749 H 74.763 3.097 -2.39168 0
M  V30 750 H 74.386 3.88052 -0.866107 0
M  V30 751 N 75.3831 0.828654 1.34056 0
M  V30 752 C 76.3131 0.269443 2.3194 0
M  V30 753 C 77.2941 -0.617247 1.58506 0
M  V30 754 O 78.4791 -0.542931 1.86456 0
M  V30 755 C 75.6091 -0.564793 3.42677 0
M  V30 756 C 74.5631 0.225241 4.27407 0
M  V30 757 C 73.8891 -0.7321 5.29664 0
M  V30 758 C 75.1891 1.43663 5.02154 0
M  V30 759 H 76.8831 1.08728 2.7896 0
M  V30 760 H 74.4291 0.524283 1.34117 0
M  V30 761 H 76.3821 -0.966233 4.10173 0
M  V30 762 H 75.1061 -1.41574 2.9432 0
M  V30 763 H 73.7651 0.608117 3.61521 0
M  V30 764 H 73.4131 -1.57916 4.77568 0
M  V30 765 H 73.1131 -0.20767 5.87233 0
M  V30 766 H 74.6371 -1.13128 6.00029 0
M  V30 767 H 76.0511 1.1089 5.62473 0
M  V30 768 H 74.4481 1.89711 5.69324 0
M  V30 769 H 75.5181 2.21181 4.31517 0
M  V30 770 N 76.8612 -1.46375 0.584142 0
M  V30 771 C 78.0892 -2.06761 0.0759296 0
M  V30 772 C 78.5042 -1.43266 -1.22965 0
M  V30 773 O 77.8612 -0.538458 -1.74376 0
M  V30 774 C 77.9122 -3.61375 -0.0950384 0
M  V30 775 O 77.6332 -4.22495 1.15887 0
M  V30 776 C 79.1342 -4.38693 -0.637434 0
M  V30 777 H 76.3542 -0.668479 0.0581075 0
M  V30 778 H 78.8982 -1.8798 0.805218 0
M  V30 779 H 77.0532 -3.79578 -0.774554 0
M  V30 780 H 77.4672 -5.15385 0.973598 0
M  V30 781 H 78.9412 -5.47464 -0.706237 0
M  V30 782 H 79.4182 -4.06836 -1.65472 0
M  V30 783 H 80.0242 -4.25299 0.00725967 0
M  V30 784 N 78.3393 -0.321999 -1.54275 0
M  V30 785 C 79.5873 0.280489 -2.00144 0
M  V30 786 C 79.9083 1.52777 -1.21178 0
M  V30 787 O 79.1783 1.9338 -0.313187 0
M  V30 788 H 77.7583 0.106632 -0.73935 0
M  V30 789 H 80.4203 -0.438184 -1.8991 0
M  V30 790 H 79.5163 0.537972 -3.07428 0
M  V30 791 N 79.8174 1.5752 -0.0501392 0
M  V30 792 C 81.0644 1.9265 0.623874 0
M  V30 793 C 81.3924 0.928411 1.70912 0
M  V30 794 O 80.6474 -0.0594525 1.9561 0
M  V30 795 C 80.9464 3.34467 1.25963 0
M  V30 796 C 80.6124 4.49883 0.302689 0
M  V30 797 C 79.2744 4.81184 0.0393636 0
M  V30 798 C 81.6264 5.20002 -0.353205 0
M  V30 799 C 78.9544 5.79951 -0.887308 0
M  V30 800 C 81.3064 6.1976 -1.26806 0
M  V30 801 C 79.9704 6.49491 -1.54007 0
M  V30 802 H 79.2404 0.704957 0.228292 0
M  V30 803 H 81.8874 1.91146 -0.116398 0
M  V30 804 H 80.1924 3.32333 2.07514 0
M  V30 805 H 81.8894 3.58928 1.78806 0
M  V30 806 H 78.4794 4.25457 0.518109 0
M  V30 807 H 82.6634 4.96033 -0.162854 0
M  V30 808 H 77.9194 6.01322 -1.10553 0
M  V30 809 H 82.0934 6.73205 -1.78236 0
M  V30 810 H 79.7204 7.25837 -2.25976 0
M  V30 811 N 81.2955 -0.223234 1.56011 0
M  V30 812 C 82.5205 -0.968978 1.83373 0
M  V30 813 C 82.9455 -1.77227 0.630254 0
M  V30 814 O 82.3035 -1.76345 -0.420959 0
M  V30 815 C 82.3515 -1.86363 3.08709 0
M  V30 816 O 81.4555 -2.95873 2.87285 0
M  V30 817 H 80.7965 -0.274461 0.604622 0
M  V30 818 H 83.3265 -0.237056 2.03222 0
M  V30 819 H 83.3365 -2.27376 3.38768 0
M  V30 820 H 82.0115 -1.27319 3.95933 0
M  V30 821 H 80.5885 -2.58818 2.68454 0
M  V30 822 N 82.7736 -1.49793 -0.48987 0
M  V30 823 C 84.1896 -1.36803 -0.822022 0
M  V30 824 C 84.3896 -0.409652 -1.97292 0
M  V30 825 O 83.4456 0.154614 -2.52026 0
M  V30 826 C 84.7586 -2.77768 -1.15175 0
M  V30 827 C 86.3066 -2.86549 -1.25931 0
M  V30 828 C 86.7816 -4.28306 -1.62228 0
M  V30 829 N 88.2726 -4.31169 -1.69256 0
M  V30 830 C 89.0076 -5.37832 -1.98807 0
M  V30 831 N 88.5036 -6.54726 -2.26507 0
M  V30 832 N 90.2966 -5.25258 -2.00152 0
M  V30 833 H 82.4476 -2.10691 0.268881 0
M  V30 834 H 84.7106 -0.946241 0.057728 0
M  V30 835 H 84.4166 -3.49648 -0.379335 0
M  V30 836 H 84.2906 -3.13836 -2.09253 0
M  V30 837 H 86.6776 -2.14899 -2.02243 0
M  V30 838 H 86.7586 -2.54049 -0.298776 0
M  V30 839 H 86.4026 -5.00486 -0.864622 0
M  V30 840 H 86.3326 -4.58279 -2.594 0
M  V30 841 H 88.8236 -3.4687 -1.49965 0
M  V30 842 H 89.1366 -7.31833 -2.48276 0
M  V30 843 H 87.4816 -6.57933 -2.23939 0
M  V30 844 H 90.6726 -4.32938 -1.77996 0
M  V30 845 H 90.8456 -6.08476 -2.22848 0
M  V30 846 N 84.2517 0.741722 -1.39055 0
M  V30 847 C 85.2147 1.83733 -1.37021 0
M  V30 848 C 86.2147 1.58542 -0.268534 0
M  V30 849 O 87.4047 1.66067 -0.526076 0
M  V30 850 C 84.5367 3.2141 -1.13617 0
M  V30 851 H 85.7297 1.86941 -2.34506 0
M  V30 852 H 83.2827 0.944676 -1.24521 0
M  V30 853 H 84.0177 3.23865 -0.167863 0
M  V30 854 H 83.8027 3.4109 -1.93391 0
M  V30 855 H 85.2927 4.01477 -1.14918 0
M  V30 856 N 85.7298 1.2412 0.971189 0
M  V30 857 C 86.6398 1.04747 2.09917 0
M  V30 858 C 87.6558 -0.0107162 1.73997 0
M  V30 859 O 88.8318 0.186714 2.00533 0
M  V30 860 C 85.8968 0.650828 3.40537 0
M  V30 861 C 84.9578 1.7851 3.90426 0
M  V30 862 C 84.1908 1.40729 5.14812 0
M  V30 863 O 84.4138 0.29557 5.69634 0
M  V30 864 O 83.3478 2.23168 5.58999 0
M  V30 865 H 87.1738 1.99304 2.29154 0
M  V30 866 H 84.7588 1.02908 1.08307 0
M  V30 867 H 86.6408 0.440992 4.19086 0
M  V30 868 H 85.3158 -0.265649 3.22608 0
M  V30 869 H 84.2228 2.04966 3.12953 0
M  V30 870 H 85.5558 2.68023 4.12825 0
M  V30 871 N 87.2079 -1.17134 1.05439 0
M  V30 872 C 88.4539 -1.87733 0.767077 0
M  V30 873 C 88.7869 -1.8098 -0.704253 0
M  V30 874 O 88.0619 -1.21951 -1.5152 0
M  V30 875 C 88.3449 -3.37659 1.25133 0
M  V30 876 C 88.1979 -3.53149 2.78578 0
M  V30 877 C 89.5169 -4.31768 0.852324 0
M  V30 878 H 86.6359 -0.681687 0.280129 0
M  V30 879 H 89.2779 -1.37732 1.30881 0
M  V30 880 H 87.4279 -3.80373 0.790469 0
M  V30 881 H 89.0999 -3.19434 3.32806 0
M  V30 882 H 87.3429 -2.95345 3.17732 0
M  V30 883 H 88.0139 -4.58403 3.07523 0
M  V30 884 H 90.4899 -3.96909 1.24911 0
M  V30 885 H 89.3659 -5.35199 1.21873 0
M  V30 886 H 89.6269 -4.41429 -0.243485 0
M  V30 887 N 88.686 -0.835752 -1.33615 0
M  V30 888 C 89.619 -0.211815 -2.27215 0
M  V30 889 C 90.597 0.639249 -1.49507 0
M  V30 890 O 91.781 0.600193 -1.78689 0
M  V30 891 C 88.908 0.702893 -3.31326 0
M  V30 892 C 87.954 -0.0723049 -4.26439 0
M  V30 893 S 88.787 -1.42811 -5.16106 0
M  V30 894 C 89.943 -0.518613 -6.23748 0
M  V30 895 H 90.176 -1.00533 -2.79786 0
M  V30 896 H 87.709 -0.632336 -1.40858 0
M  V30 897 H 89.667 1.22505 -3.91794 0
M  V30 898 H 88.328 1.47004 -2.77576 0
M  V30 899 H 87.521 0.62359 -5.00127 0
M  V30 900 H 87.123 -0.525424 -3.70291 0
M  V30 901 H 89.415 0.284778 -6.76901 0
M  V30 902 H 90.358 -1.22556 -6.97413 0
M  V30 903 H 90.766 -0.101344 -5.64409 0
M  V30 904 N 90.1641 1.46063 -0.591896 0
M  V30 905 C 91.0961 2.28539 0.174001 0
M  V30 906 C 92.1091 1.39047 0.846753 0
M  V30 907 O 93.2981 1.63564 0.714774 0
M  V30 908 C 90.3981 3.14347 1.26645 0
M  V30 909 C 89.5711 4.32021 0.683856 0
M  V30 910 C 88.6301 4.99157 1.66518 0
M  V30 911 O 87.6561 5.56458 1.19763 0
M  V30 912 N 88.8581 4.97005 2.99943 0
M  V30 913 H 91.6231 2.94911 -0.533633 0
M  V30 914 H 89.1841 1.56077 -0.430294 0
M  V30 915 H 91.1761 3.56125 1.92242 0
M  V30 916 H 89.7461 2.49988 1.87682 0
M  V30 917 H 88.9661 3.93915 -0.1498 0
M  V30 918 H 90.2541 5.08059 0.274567 0
M  V30 919 H 89.6521 4.51714 3.40545 0
M  V30 920 H 88.2091 5.42696 3.61004 0
M  V30 921 N 91.6422 0.330177 1.54103 0
M  V30 922 C 93.0582 -0.0222371 1.59585 0
M  V30 923 C 93.2582 -1.49902 1.34654 0
M  V30 924 O 92.3142 -2.25592 1.13421 0
M  V30 925 C 93.6272 0.401932 2.98002 0
M  V30 926 C 95.1752 0.353145 3.11001 0
M  V30 927 C 95.6502 0.752576 4.51775 0
M  V30 928 N 97.1412 0.706239 4.57784 0
M  V30 929 C 97.8762 0.987417 5.64834 0
M  V30 930 N 97.3722 1.33607 6.79795 0
M  V30 931 N 99.1652 0.91254 5.54643 0
M  V30 932 H 91.3162 1.29228 1.68564 0
M  V30 933 H 93.5792 0.525906 0.78875 0
M  V30 934 H 93.2852 1.4311 3.21267 0
M  V30 935 H 93.1592 -0.229699 3.765 0
M  V30 936 H 95.5462 -0.666822 2.87467 0
M  V30 937 H 95.6272 1.0198 2.34593 0
M  V30 938 H 95.2712 1.77049 4.76042 0
M  V30 939 H 95.2012 0.0635409 5.26562 0
M  V30 940 H 97.6922 0.44889 3.75224 0
M  V30 941 H 98.0052 1.53582 7.57385 0
M  V30 942 H 96.3502 1.37439 6.81275 0
M  V30 943 H 99.5412 0.639601 4.6371 0
M  V30 944 H 99.7142 1.13503 6.37982 0
M  V30 945 N 93.1203 -1.57491 0.0584922 0
M  V30 946 C 94.3683 -1.92597 -0.612436 0
M  V30 947 C 94.6893 -0.938162 -1.70949 0
M  V30 948 O 93.9593 0.0158301 -1.95894 0
M  V30 949 H 92.5393 -0.710964 -0.229214 0
M  V30 950 H 95.2013 -1.94571 0.113218 0
M  V30 951 H 94.2973 -2.94038 -1.04633 0
M  V30 952 N 94.5984 0.214957 -1.56127 0
M  V30 953 C 95.8384 0.945364 -1.81224 0
M  V30 954 C 96.2024 1.81265 -0.633005 0
M  V30 955 O 97.4034 2.57731 -0.763423 0
M  V30 956 C 95.6744 1.75665 -3.1125 0
M  V30 957 S 97.2334 2.54179 -3.57685 0
M  V30 958 H 94.0514 0.317443 -0.6362 0
M  V30 959 H 96.6534 0.210381 -1.94365 0
M  V30 960 H 95.3574 1.10977 -3.9511 0
M  V30 961 H 94.8884 2.53381 -3.00934 0
M  V30 962 H 96.9034 3.7792 -3.21545 0
M  V30 963 N 96.0765 1.50051 0.48192 0
M  V30 964 C 97.0395 1.67584 1.5636 0
M  V30 965 C 98.0395 0.546894 1.51214 0
M  V30 966 O 99.2295 0.813725 1.54026 0
M  V30 967 C 96.3615 1.691 2.96003 0
M  V30 968 H 97.5545 2.64078 1.42136 0
M  V30 969 H 95.1075 1.39369 0.707533 0
M  V30 970 H 95.8425 0.742589 3.15684 0
M  V30 971 H 95.6275 2.51105 3.01146 0
M  V30 972 H 97.1175 1.84656 3.74556 0
M  V30 973 N 97.5546 -0.734337 1.39446 0
M  V30 974 C 98.7946 -1.50655 1.38139 0
M  V30 975 C 99.1586 -1.91986 -0.0228701 0
M  V30 976 O 100.36 -2.68318 -0.160947 0
M  V30 977 C 98.6306 -2.71251 2.32718 0
M  V30 978 S 100.19 -3.60892 2.49605 0
M  V30 979 H 97.0076 -0.515315 0.489869 0
M  V30 980 H 99.6096 -0.860392 1.75549 0
M  V30 981 H 98.3136 -2.39027 3.33608 0
M  V30 982 H 97.8446 -3.40795 1.96526 0
M  V30 983 H 99.8596 -4.64899 1.73446 0
M  V30 984 N 99.0327 -1.24633 -0.964593 0
M  V30 985 C 100.258 -1.11596 -1.74818 0
M  V30 986 C 100.683 0.32723 -1.85232 0
M  V30 987 O 100.041 1.23695 -1.32549 0
M  V30 988 C 100.089 -1.76397 -3.1451 0
M  V30 989 O 99.1927 -1.03685 -3.99153 0
M  V30 990 H 98.5337 -0.390196 -0.537255 0
M  V30 991 H 101.064 -1.65002 -1.20977 0
M  V30 992 H 101.074 -1.8228 -3.65018 0
M  V30 993 H 99.7487 -2.81401 -3.06246 0
M  V30 994 H 98.3257 -1.05611 -3.57632 0
M  V30 995 N 100.511 1.16574 -1.06058 0
M  V30 996 C 101.758 1.87047 -0.775873 0
M  V30 997 C 102.086 1.81562 0.697534 0
M  V30 998 O 101.341 1.22445 1.52662 0
M  V30 999 C 101.64 3.36195 -1.21275 0
M  V30 1000 C 101.306 3.6188 -2.68986 0
M  V30 1001 C 99.9678 3.68599 -3.09335 0
M  V30 1002 C 102.32 3.72648 -3.64394 0
M  V30 1003 C 99.6478 3.83584 -4.43937 0
M  V30 1004 C 102 3.89154 -4.98741 0
M  V30 1005 C 100.664 3.94114 -5.3873 0
M  V30 1006 H 99.9338 0.684452 -0.283912 0
M  V30 1007 H 102.581 1.37853 -1.32925 0
M  V30 1008 H 100.886 3.87505 -0.578528 0
M  V30 1009 H 102.583 3.89103 -0.969542 0
M  V30 1010 H 99.1728 3.57281 -2.36744 0
M  V30 1011 H 103.357 3.66769 -3.34356 0
M  V30 1012 H 98.6128 3.85677 -4.74409 0
M  V30 1013 H 102.787 3.96427 -5.72554 0
M  V30 1014 H 100.414 4.05478 -6.43033 0
M  V30 1015 N 101.989 0.842826 1.3317 0
M  V30 1016 C 102.919 0.294028 2.31641 0
M  V30 1017 C 103.9 -0.600401 1.59151 0
M  V30 1018 O 105.085 -0.523124 1.87022 0
M  V30 1019 C 102.215 -0.528416 3.43257 0
M  V30 1020 C 101.169 0.27056 4.27144 0
M  V30 1021 C 100.495 -0.675881 5.30411 0
M  V30 1022 C 101.795 1.48981 5.00602 0
M  V30 1023 H 103.489 1.11681 2.77791 0
M  V30 1024 H 101.035 0.538478 1.33553 0
M  V30 1025 H 102.988 -0.922674 4.11175 0
M  V30 1026 H 101.712 -1.38445 2.95805 0
M  V30 1027 H 100.371 0.646427 3.60856 0
M  V30 1028 H 100.019 -1.52842 4.79216 0
M  V30 1029 H 99.7189 -0.145374 5.8742 0
M  V30 1030 H 101.243 -1.06757 6.01195 0
M  V30 1031 H 102.657 1.16849 5.61266 0
M  V30 1032 H 101.054 1.95739 5.6728 0
M  V30 1033 H 102.124 2.25746 4.29147 0
M  V30 1034 N 103.467 -1.45747 0.599634 0
M  V30 1035 C 104.697 -2.06369 0.0977132 0
M  V30 1036 C 105.105 -1.44624 -1.21985 0
M  V30 1037 O 104.448 -0.551831 -1.75216 0
M  V30 1038 C 104.51 -3.59284 -0.124673 0
M  V30 1039 C 104.174 -4.43318 1.10987 0
M  V30 1040 C 105.171 -4.78796 2.02609 0
M  V30 1041 C 102.856 -4.84194 1.33647 0
M  V30 1042 C 104.85 -5.53997 3.15224 0
M  V30 1043 C 102.537 -5.5915 2.46565 0
M  V30 1044 C 103.535 -5.93968 3.37182 0
M  V30 1045 O 103.223 -6.67405 4.48136 0
M  V30 1046 H 102.955 -0.673122 0.0623153 0
M  V30 1047 H 105.509 -1.88104 0.824981 0
M  V30 1048 H 103.739 -3.75919 -0.906745 0
M  V30 1049 H 105.428 -4.01775 -0.577201 0
M  V30 1050 H 106.194 -4.47781 1.86325 0
M  V30 1051 H 102.073 -4.56534 0.64016 0
M  V30 1052 H 105.617 -5.81091 3.85978 0
M  V30 1053 H 101.514 -5.89579 2.62805 0
M  V30 1054 H 102.282 -6.85847 4.46717 0
M  V30 1055 N 104.945 -0.338344 -1.53925 0
M  V30 1056 C 106.193 0.259245 -2.0043 0
M  V30 1057 C 106.514 1.51484 -1.22791 0
M  V30 1058 O 105.784 1.93037 -0.33368 0
M  V30 1059 H 104.364 0.0987845 -0.740439 0
M  V30 1060 H 107.026 -0.458302 -1.89435 0
M  V30 1061 H 106.122 0.505334 -3.07982 0
M  V30 1062 N 106.423 1.57458 -0.0668435 0
M  V30 1063 C 107.834 1.80776 0.466558 0
M  V30 1064 C 108.185 0.980361 1.69951 0
M  V30 1065 O 107.31 0.201441 2.1546 0
M  V30 1066 C 107.905 3.27881 0.85321 0
M  V30 1067 C 106.464 3.52062 1.3315 0
M  V30 1068 C 105.611 2.75513 0.314264 0
M  V30 1069 H 108.562 1.5598 -0.292588 0
M  V30 1070 H 108.583 3.39659 1.715 0
M  V30 1071 H 108.095 3.88075 -0.0443439 0
M  V30 1072 H 106.196 2.97167 2.24772 0
M  V30 1073 H 106.309 4.60762 1.31285 0
M  V30 1074 H 104.673 2.42123 0.790492 0
M  V30 1075 H 105.456 3.38442 -0.575477 0
M  V30 1076 N 107.901 -0.206675 1.56239 0
M  V30 1077 C 109.178 -0.954051 1.70755 0
M  V30 1078 C 109.558 -2.01841 0.618353 0
M  V30 1079 O 108.906 -2.25444 -0.372434 0
M  V30 1080 C 109.116 -1.551 3.12642 0
M  V30 1081 C 110.464 -2.03757 3.72516 0
M  V30 1082 O 111.488 -1.64965 3.15698 0
M  V30 1083 O 110.347 -2.75103 4.72208 0
M  V30 1084 H 107.441 -0.446636 0.696021 0
M  V30 1085 H 109.987 -0.197283 1.68549 0
M  V30 1086 H 108.759 -0.783212 3.83382 0
M  V30 1087 H 108.382 -2.37291 3.19028 0
M  V30 1088 N 109.379 -1.50304 -0.473955 0
M  V30 1089 C 110.607 -1.64902 -1.24959 0
M  V30 1090 C 111.022 -0.331198 -1.85872 0
M  V30 1091 O 110.379 0.68652 -1.69095 0
M  V30 1092 C 110.43 -2.73803 -2.36038 0
M  V30 1093 O 110.151 -4.00477 -1.77624 0
M  V30 1094 C 111.652 -2.99349 -3.26964 0
M  V30 1095 H 108.872 -0.554383 -0.378022 0
M  V30 1096 H 111.416 -1.9651 -0.566054 0
M  V30 1097 H 109.571 -2.44898 -3.00173 0
M  V30 1098 H 109.985 -4.60678 -2.5075 0
M  V30 1099 H 111.459 -3.79217 -4.01121 0
M  V30 1100 H 111.936 -2.10307 -3.85574 0
M  V30 1101 H 112.542 -3.29774 -2.68569 0
M  V30 1102 N 110.857 0.726932 -1.39834 0
M  V30 1103 C 112.082 1.52121 -1.40976 0
M  V30 1104 C 112.507 1.88098 -0.00826029 0
M  V30 1105 O 111.865 1.52479 0.980807 0
M  V30 1106 C 111.913 2.78021 -2.29644 0
M  V30 1107 O 111.017 3.74272 -1.73188 0
M  V30 1108 H 110.358 0.45908 -0.479731 0
M  V30 1109 H 112.888 0.896207 -1.83927 0
M  V30 1110 H 112.898 3.26671 -2.44438 0
M  V30 1111 H 111.573 2.51169 -3.31492 0
M  V30 1112 H 110.15 3.33073 -1.6768 0
M  V30 1113 N 112.336 1.25143 0.95797 0
M  V30 1114 C 113.246 1.06968 2.08794 0
M  V30 1115 C 114.262 0.00773911 1.73998 0
M  V30 1116 O 115.438 0.207972 2.00323 0
M  V30 1117 C 112.503 0.68691 3.39827 0
M  V30 1118 C 111.564 1.82641 3.88511 0
M  V30 1119 C 110.797 1.46181 5.1329 0
M  V30 1120 O 111.02 0.355971 5.69288 0
M  V30 1121 O 109.954 2.29085 5.566 0
M  V30 1122 H 113.78 2.01723 2.27027 0
M  V30 1123 H 111.365 1.04051 1.07209 0
M  V30 1124 H 113.247 0.485417 4.18595 0
M  V30 1125 H 111.922 -0.231417 3.22872 0
M  V30 1126 H 110.829 2.08274 3.10762 0
M  V30 1127 H 112.162 2.72386 4.09959 0
M  V30 1128 N 113.814 -1.1601 1.06675 0
M  V30 1129 C 114.744 -2.22688 0.702307 0
M  V30 1130 C 115.725 -1.67306 -0.307032 0
M  V30 1131 O 116.91 -1.93352 -0.181305 0
M  V30 1132 C 114.04 -3.47178 0.092038 0
M  V30 1133 C 112.994 -4.15477 1.02777 0
M  V30 1134 C 112.32 -5.33963 0.28061 0
M  V30 1135 C 113.62 -4.66019 2.35846 0
M  V30 1136 H 115.314 -2.53429 1.59419 0
M  V30 1137 H 112.86 -1.21813 0.767961 0
M  V30 1138 H 114.813 -4.21037 -0.174814 0
M  V30 1139 H 113.537 -3.15749 -0.834877 0
M  V30 1140 H 112.196 -3.43549 1.27944 0
M  V30 1141 H 111.844 -4.98788 -0.649545 0
M  V30 1142 H 111.544 -5.806 0.904258 0
M  V30 1143 H 113.068 -6.10596 0.021396 0
M  V30 1144 H 114.482 -5.3144 2.15045 0
M  V30 1145 H 112.879 -5.23293 2.93743 0
M  V30 1146 H 113.949 -3.82023 2.98641 0
M  V30 1147 N 115.292 -0.849877 -1.32721 0
M  V30 1148 C 116.538 -0.451591 -1.97708 0
M  V30 1149 C 116.871 0.989175 -1.6712 0
M  V30 1150 O 116.146 1.69334 -0.956891 0
M  V30 1151 C 116.429 -0.685598 -3.53513 0
M  V30 1152 C 116.282 -2.17444 -3.93749 0
M  V30 1153 C 117.601 -0.138874 -4.39881 0
M  V30 1154 H 114.72 -0.16555 -0.718166 0
M  V30 1155 H 117.362 -1.06742 -1.57182 0
M  V30 1156 H 115.512 -0.161416 -3.88165 0
M  V30 1157 H 117.184 -2.76433 -3.693 0
M  V30 1158 H 115.427 -2.65476 -3.43081 0
M  V30 1159 H 116.098 -2.28888 -5.02309 0
M  V30 1160 H 118.574 -0.587068 -4.11938 0
M  V30 1161 H 117.45 -0.332213 -5.47894 0
M  V30 1162 H 117.711 0.95806 -4.31594 0
M  V30 1163 N 116.77 1.45427 -0.607355 0
M  V30 1164 C 118.186 1.57283 -0.270985 0
M  V30 1165 C 118.386 1.59875 1.22647 0
M  V30 1166 O 117.442 1.52893 2.00948 0
M  V30 1167 C 118.755 2.85566 -0.941952 0
M  V30 1168 C 120.303 2.9924 -0.917849 0
M  V30 1169 C 120.778 4.30293 -1.56882 0
M  V30 1170 N 122.269 4.37051 -1.5343 0
M  V30 1171 C 123.004 5.37123 -2.00715 0
M  V30 1172 N 122.5 6.43734 -2.56084 0
M  V30 1173 N 124.293 5.28479 -1.91484 0
M  V30 1174 H 116.444 1.41988 -1.57966 0
M  V30 1175 H 118.707 0.67885 -0.661715 0
M  V30 1176 H 118.413 2.8955 -1.99633 0
M  V30 1177 H 118.287 3.74322 -0.465096 0
M  V30 1178 H 120.674 2.94822 0.127984 0
M  V30 1179 H 120.755 2.11895 -1.43297 0
M  V30 1180 H 120.399 4.35469 -2.61398 0
M  V30 1181 H 120.329 5.16454 -1.02873 0
M  V30 1182 H 122.82 3.60615 -1.12982 0
M  V30 1183 H 123.133 7.16341 -2.89958 0
M  V30 1184 H 121.478 6.44485 -2.60122 0
M  V30 1185 H 124.669 4.44098 -1.47967 0
M  V30 1186 H 124.842 6.0632 -2.28648 0
M  V30 1187 N 118.248 0.346503 1.53744 0
M  V30 1188 C 119.18 -0.543316 2.22667 0
M  V30 1189 C 120.193 -1.06159 1.23427 0
M  V30 1190 O 121.382 -0.971235 1.49764 0
M  V30 1191 C 118.482 -1.76076 2.89569 0
M  V30 1192 C 117.655 -1.37727 4.15151 0
M  V30 1193 C 116.714 -2.45471 4.65436 0
M  V30 1194 O 115.74 -2.08655 5.29577 0
M  V30 1195 N 116.942 -3.7677 4.41616 0
M  V30 1196 H 119.707 0.0469703 2.99663 0
M  V30 1197 H 117.268 0.170766 1.60997 0
M  V30 1198 H 119.26 -2.47593 3.20125 0
M  V30 1199 H 117.83 -2.25835 2.16142 0
M  V30 1200 H 117.05 -0.492746 3.91108 0
M  V30 1201 H 118.338 -1.09708 4.96832 0
M  V30 1202 H 117.736 -4.09467 3.90325 0
M  V30 1203 H 116.293 -4.44448 4.7677 0
M  V30 1204 N 119.726 -1.57421 0.075193 0
M  V30 1205 C 120.658 -2.09904 -0.920483 0
M  V30 1206 C 121.671 -1.03191 -1.25918 0
M  V30 1207 O 122.86 -1.30695 -1.21577 0
M  V30 1208 C 119.96 -2.54726 -2.23534 0
M  V30 1209 C 119.133 -3.8505 -2.07498 0
M  V30 1210 C 118.192 -4.15929 -3.22319 0
M  V30 1211 O 117.218 -4.85474 -2.9716 0
M  V30 1212 N 118.42 -3.69745 -4.47514 0
M  V30 1213 H 121.185 -2.95954 -0.472359 0
M  V30 1214 H 118.746 -1.61523 -0.110444 0
M  V30 1215 H 120.738 -2.72443 -2.9926 0
M  V30 1216 H 119.308 -1.73795 -2.59835 0
M  V30 1217 H 118.528 -3.76679 -1.16219 0
M  V30 1218 H 119.816 -4.70348 -1.94038 0
M  V30 1219 H 119.214 -3.13569 -4.7084 0
M  V30 1220 H 117.771 -3.92655 -5.20255 0
M  V30 1221 N 121.204 0.198386 -1.56346 0
M  V30 1222 C 122.453 0.917451 -1.79627 0
M  V30 1223 C 122.766 1.8456 -0.64784 0
M  V30 1224 O 123.972 2.60504 -0.764859 0
M  V30 1225 C 122.428 1.68175 -3.18191 0
M  V30 1226 C 122.036 0.798589 -4.40825 0
M  V30 1227 C 123.78 2.39065 -3.50782 0
M  V30 1228 C 121.687 1.56157 -5.70411 0
M  V30 1229 H 120.617 0.346317 -0.669762 0
M  V30 1230 H 123.268 0.170801 -1.82703 0
M  V30 1231 H 121.65 2.47216 -3.09354 0
M  V30 1232 H 122.824 0.0470665 -4.60776 0
M  V30 1233 H 121.139 0.200686 -4.15916 0
M  V30 1234 H 123.736 2.96692 -4.44835 0
M  V30 1235 H 124.079 3.13091 -2.74371 0
M  V30 1236 H 124.612 1.66993 -3.61052 0
M  V30 1237 H 121.351 0.864142 -6.49779 0
M  V30 1238 H 120.871 2.2871 -5.54483 0
M  V30 1239 H 122.55 2.11622 -6.11412 0
M  V30 1240 N 122.682 1.50554 0.465978 0
M  V30 1241 C 124.098 1.38093 0.800154 0
M  V30 1242 C 124.298 0.440988 1.96615 0
M  V30 1243 O 123.354 -0.114499 2.5224 0
M  V30 1244 C 124.667 2.79565 1.10742 0
M  V30 1245 C 126.215 2.88516 1.21357 0
M  V30 1246 C 126.69 4.30833 1.55393 0
M  V30 1247 N 128.181 4.33807 1.62375 0
M  V30 1248 C 128.916 5.40927 1.90225 0
M  V30 1249 N 128.412 6.58247 2.16062 0
M  V30 1250 N 130.205 5.28376 1.9177 0
M  V30 1251 H 122.356 2.10237 -0.302366 0
M  V30 1252 H 124.619 0.945203 -0.0727746 0
M  V30 1253 H 124.325 3.50208 0.323661 0
M  V30 1254 H 124.199 3.17125 2.04234 0
M  V30 1255 H 126.586 2.1809 1.98799 0
M  V30 1256 H 126.667 2.54492 0.258321 0
M  V30 1257 H 126.311 5.01799 0.784889 0
M  V30 1258 H 126.241 4.62347 2.52076 0
M  V30 1259 H 128.732 3.49212 1.44427 0
M  V30 1260 H 129.045 7.3569 2.36601 0
M  V30 1261 H 127.39 6.61413 2.13444 0
M  V30 1262 H 130.581 4.35715 1.71085 0
M  V30 1263 H 130.754 6.11944 2.13139 0
M  V30 1264 N 124.16 -0.719506 1.40217 0
M  V30 1265 C 125.107 -1.83359 1.40172 0
M  V30 1266 C 126.077 -1.64065 0.259206 0
M  V30 1267 O 127.262 -1.85254 0.456677 0
M  V30 1268 C 124.402 -3.2103 1.26624 0
M  V30 1269 C 123.515 -3.51923 2.50548 0
M  V30 1270 C 122.65 -4.79079 2.29471 0
M  V30 1271 C 121.689 -5.02863 3.48992 0
M  V30 1272 N 120.826 -6.2123 3.27135 0
M  V30 1273 H 125.666 -1.82733 2.35399 0
M  V30 1274 H 123.203 -0.892688 1.16917 0
M  V30 1275 H 125.161 -4.00524 1.16776 0
M  V30 1276 H 123.791 -3.20895 0.350176 0
M  V30 1277 H 122.843 -2.67014 2.70939 0
M  V30 1278 H 124.155 -3.6541 3.39525 0
M  V30 1279 H 123.309 -5.66582 2.16955 0
M  V30 1280 H 122.048 -4.67794 1.37913 0
M  V30 1281 H 121.053 -4.13816 3.6199 0
M  V30 1282 H 122.278 -5.16023 4.41472 0
M  V30 1283 H 120.224 -6.11204 2.38256 0
M  V30 1284 H 120.141 -6.35375 4.09675 0
M  V30 1285 H 121.409 -7.11532 3.18344 0
M  V30 1286 N 125.638 -1.25649 -0.95132 0
M  V30 1287 C 126.601 -1.06399 -2.03007 0
M  V30 1288 C 127.601 -0.0156794 -1.60792 0
M  V30 1289 O 128.791 -0.25817 -1.72276 0
M  V30 1290 C 125.923 -0.616184 -3.35285 0
M  V30 1291 H 127.116 -2.02164 -2.21517 0
M  V30 1292 H 124.669 -1.08103 -1.12887 0
M  V30 1293 H 125.404 0.343917 -3.22471 0
M  V30 1294 H 125.189 -1.37301 -3.67275 0
M  V30 1295 H 126.679 -0.503032 -4.14559 0
M  V30 1296 N 127.117 1.15442 -1.07289 0
M  V30 1297 C 128.047 2.22312 -0.714107 0
M  V30 1298 C 129.028 1.67467 0.298155 0
M  V30 1299 O 130.213 1.93445 0.171048 0
M  V30 1300 C 127.343 3.47124 -0.110448 0
M  V30 1301 C 126.297 4.14926 -1.04979 0
M  V30 1302 C 125.623 5.33807 -0.308924 0
M  V30 1303 C 126.923 4.64762 -2.38314 0
M  V30 1304 H 128.617 2.5258 -1.6076 0
M  V30 1305 H 126.163 1.21404 -0.77441 0
M  V30 1306 H 128.116 4.21124 0.152482 0
M  V30 1307 H 126.84 3.16187 0.81812 0
M  V30 1308 H 125.499 3.42866 -1.29764 0
M  V30 1309 H 125.147 4.99126 0.623084 0
M  V30 1310 H 124.847 5.80113 -0.935036 0
M  V30 1311 H 126.371 6.10576 -0.0537771 0
M  V30 1312 H 127.785 5.30292 -2.1786 0
M  V30 1313 H 126.182 5.21728 -2.96514 0
M  V30 1314 H 127.252 3.80434 -3.00663 0
M  V30 1315 N 128.595 0.856903 1.32268 0
M  V30 1316 C 129.872 0.382583 1.91822 0
M  V30 1317 C 130.252 -1.13407 1.78051 0
M  V30 1318 O 129.6 -1.95673 1.18001 0
M  V30 1319 C 129.81 0.849446 3.38505 0
M  V30 1320 C 131.158 0.867936 4.15634 0
M  V30 1321 O 132.182 0.794232 3.47232 0
M  V30 1322 O 131.041 0.972286 5.37781 0
M  V30 1323 H 128.135 0.112014 0.819379 0
M  V30 1324 H 130.681 0.943952 1.41024 0
M  V30 1325 H 129.453 1.89267 3.42482 0
M  V30 1326 H 129.076 0.265652 3.96712 0
M  V30 1327 N 130.073 -1.45103 0.615059 0
M  V30 1328 C 130.983 -2.34382 -0.101034 0
M  V30 1329 C 131.999 -1.51681 -0.852585 0
M  V30 1330 O 133.175 -1.8446 -0.808484 0
M  V30 1331 C 130.24 -3.29417 -1.08099 0
M  V30 1332 C 129.301 -4.28025 -0.330577 0
M  V30 1333 C 128.534 -5.1852 -1.26385 0
M  V30 1334 O 128.757 -5.12598 -2.50198 0
M  V30 1335 O 127.691 -5.97122 -0.756866 0
M  V30 1336 H 131.517 -2.97033 0.632855 0
M  V30 1337 H 129.102 -1.4461 0.375293 0
M  V30 1338 H 130.984 -3.87958 -1.6452 0
M  V30 1339 H 129.659 -2.69321 -1.79577 0
M  V30 1340 H 128.566 -3.73078 0.276283 0
M  V30 1341 H 129.899 -4.90997 0.343866 0
M  V30 1342 N 131.551 -0.354651 -1.53558 0
M  V30 1343 C 132.501 0.513179 -2.2215 0
M  V30 1344 C 133.485 1.05734 -1.21281 0
M  V30 1345 O 134.677 0.989202 -1.46778 0
M  V30 1346 C 131.806 1.65798 -3.00609 0
M  V30 1347 C 130.892 1.12722 -4.08845 0
M  V30 1348 N 131.283 0.318563 -5.04796 0
M  V30 1349 C 129.581 1.40307 -4.23356 0
M  V30 1350 C 130.282 0.0292224 -5.81693 0
M  V30 1351 N 129.258 0.623891 -5.40008 0
M  V30 1352 H 133.06 -0.111586 -2.93688 0
M  V30 1353 H 130.574 -0.162091 -1.61589 0
M  V30 1354 H 132.571 2.29176 -3.48258 0
M  V30 1355 H 131.231 2.28591 -2.306 0
M  V30 1356 H 132.242 -0.0413091 -5.17884 0
M  V30 1357 H 128.919 2.03458 -3.6457 0
M  V30 1358 H 130.309 -0.623808 -6.68998 0
M  V30 1359 N 133.029 1.57378 -0.0835403 0
M  V30 1360 C 133.976 2.13384 0.879539 0
M  V30 1361 C 134.946 1.04936 1.28754 0
M  V30 1362 O 136.131 1.32662 1.37133 0
M  V30 1363 C 133.271 2.70932 2.13752 0
M  V30 1364 C 132.384 3.93575 1.7811 0
M  V30 1365 C 131.519 4.39326 2.98607 0
M  V30 1366 C 130.558 5.54587 2.59037 0
M  V30 1367 N 129.695 5.95243 3.72331 0
M  V30 1368 H 134.535 2.9537 0.395076 0
M  V30 1369 H 132.072 1.45953 0.183349 0
M  V30 1370 H 134.03 3.02411 2.87408 0
M  V30 1371 H 132.66 1.91693 2.59718 0
M  V30 1372 H 131.712 3.68483 0.94469 0
M  V30 1373 H 133.024 4.77258 1.45005 0
M  V30 1374 H 132.178 4.72528 3.80529 0
M  V30 1375 H 130.917 3.5452 3.34913 0
M  V30 1376 H 129.922 5.21024 1.75539 0
M  V30 1377 H 131.147 6.41133 2.23887 0
M  V30 1378 H 129.093 5.13385 4.08378 0
M  V30 1379 H 129.01 6.73694 3.43034 0
M  V30 1380 H 130.278 6.33072 4.54797 0
M  V30 1381 N 134.507 -0.190092 1.56449 0
M  V30 1382 C 135.417 -1.25591 1.98152 0
M  V30 1383 C 136.433 -1.49519 0.889944 0
M  V30 1384 O 137.609 -1.62036 1.19609 0
M  V30 1385 C 134.674 -2.57916 2.3169 0
M  V30 1386 C 133.735 -2.42015 3.5458 0
M  V30 1387 C 132.968 -3.6803 3.8651 0
M  V30 1388 O 133.191 -4.72413 3.1966 0
M  V30 1389 O 132.125 -3.6326 4.79923 0
M  V30 1390 H 135.951 -0.931988 2.89046 0
M  V30 1391 H 133.536 -0.395488 1.4407 0
M  V30 1392 H 135.418 -3.36008 2.54316 0
M  V30 1393 H 134.093 -2.89925 1.43963 0
M  V30 1394 H 133 -1.62017 3.37196 0
M  V30 1395 H 134.333 -2.14937 4.4279 0
M  V30 1396 N 135.985 -1.50799 -0.457987 0
M  V30 1397 C 137.232 -1.62442 -1.20908 0
M  V30 1398 C 137.56 -0.330865 -1.91665 0
M  V30 1399 O 136.815 0.68401 -1.83357 0
M  V30 1400 C 137.114 -2.76358 -2.2663 0
M  V30 1401 C 136.78 -4.16378 -1.73033 0
M  V30 1402 C 135.442 -4.54473 -1.58138 0
M  V30 1403 C 137.794 -5.03836 -1.33413 0
M  V30 1404 C 135.122 -5.77754 -1.02065 0
M  V30 1405 C 137.474 -6.27676 -0.78778 0
M  V30 1406 C 136.138 -6.64562 -0.625561 0
M  V30 1407 H 135.408 -0.594417 -0.442435 0
M  V30 1408 H 138.055 -1.84772 -0.503136 0
M  V30 1409 H 136.36 -2.48167 -3.03184 0
M  V30 1410 H 138.057 -2.82568 -2.84528 0
M  V30 1411 H 134.647 -3.86331 -1.85598 0
M  V30 1412 H 138.831 -4.75026 -1.4375 0
M  V30 1413 H 134.087 -6.04997 -0.882547 0
M  V30 1414 H 138.261 -6.94797 -0.472177 0
M  V30 1415 H 135.888 -7.59965 -0.188926 0
M  V30 1416 N 137.463 0.71206 -1.40597 0
M  V30 1417 C 138.41 1.82613 -1.41142 0
M  V30 1418 C 139.38 1.63925 -0.267903 0
M  V30 1419 O 140.565 1.85009 -0.466495 0
M  V30 1420 C 137.705 3.20354 -1.28324 0
M  V30 1421 C 136.818 3.50589 -2.52411 0
M  V30 1422 C 135.953 4.77855 -2.32009 0
M  V30 1423 C 134.992 5.01005 -3.51654 0
M  V30 1424 N 134.129 6.19487 -3.30425 0
M  V30 1425 H 138.969 1.81482 -2.36365 0
M  V30 1426 H 136.506 0.886475 -1.17388 0
M  V30 1427 H 138.464 3.99899 -1.18899 0
M  V30 1428 H 137.094 3.20705 -0.367189 0
M  V30 1429 H 136.146 2.65573 -2.72351 0
M  V30 1430 H 137.458 3.63604 -3.41458 0
M  V30 1431 H 136.612 5.65424 -2.19956 0
M  V30 1432 H 135.351 4.67056 -1.40392 0
M  V30 1433 H 134.356 4.1189 -3.64179 0
M  V30 1434 H 135.581 5.13674 -4.44202 0
M  V30 1435 H 133.527 6.09932 -2.41494 0
M  V30 1436 H 133.444 6.33194 -4.13039 0
M  V30 1437 H 134.712 7.09834 -3.22113 0
M  V30 1438 N 138.941 1.26152 0.944643 0
M  V30 1439 C 139.904 1.07474 2.0244 0
M  V30 1440 C 140.904 0.0242064 1.60782 0
M  V30 1441 O 142.094 0.267302 1.72137 0
M  V30 1442 C 139.226 0.633956 3.34953 0
M  V30 1443 H 140.419 2.03336 2.20442 0
M  V30 1444 H 137.972 1.087 1.12312 0
M  V30 1445 H 138.707 -0.326811 3.22649 0
M  V30 1446 H 138.492 1.39247 3.66542 0
M  V30 1447 H 139.982 0.52501 4.14287 0
M  V30 1448 N 140.419 -1.14872 1.07899 0
M  V30 1449 C 141.329 -2.2341 0.715915 0
M  V30 1450 C 142.345 -1.71808 -0.275306 0
M  V30 1451 O 143.521 -2.01039 -0.120545 0
M  V30 1452 C 140.586 -3.46474 0.125168 0
M  V30 1453 C 139.647 -4.13039 1.17034 0
M  V30 1454 C 138.88 -5.30229 0.607688 0
M  V30 1455 O 139.103 -5.675 -0.574497 0
M  V30 1456 O 138.037 -5.86444 1.35526 0
M  V30 1457 H 141.863 -2.56808 1.62121 0
M  V30 1458 H 139.448 -1.22702 0.852322 0
M  V30 1459 H 141.33 -4.20917 -0.201729 0
M  V30 1460 H 140.005 -3.14811 -0.753364 0
M  V30 1461 H 138.912 -3.40493 1.54968 0
M  V30 1462 H 140.245 -4.48796 2.02097 0
M  V30 1463 N 141.898 -0.863906 -1.31812 0
M  V30 1464 C 142.828 -0.330843 -2.31144 0
M  V30 1465 C 143.809 0.575005 -1.60087 0
M  V30 1466 O 144.994 0.493304 -1.8783 0
M  V30 1467 C 142.124 0.47374 -3.44054 0
M  V30 1468 C 141.078 -0.338481 -4.26659 0
M  V30 1469 C 140.404 0.591412 -5.31419 0
M  V30 1470 C 141.704 -1.56926 -4.98168 0
M  V30 1471 H 143.398 -1.16086 -2.75979 0
M  V30 1472 H 140.944 -0.559657 -1.32679 0
M  V30 1473 H 142.897 0.857143 -4.12591 0
M  V30 1474 H 141.621 1.33721 -2.9797 0
M  V30 1475 H 140.28 -0.703754 -3.59782 0
M  V30 1476 H 139.928 1.45199 -4.81587 0
M  V30 1477 H 139.628 0.0519022 -5.87577 0
M  V30 1478 H 141.152 0.97179 -6.02817 0
M  V30 1479 H 142.566 -1.25764 -5.59336 0
M  V30 1480 H 140.963 -2.04739 -5.64094 0
M  V30 1481 H 142.033 -2.32544 -4.25501 0
M  V30 1482 N 143.376 1.44774 -0.622745 0
M  V30 1483 C 144.625 2.01334 -0.121397 0
M  V30 1484 C 144.938 1.49505 1.26125 0
M  V30 1485 O 146.144 1.98139 1.85616 0
M  V30 1486 C 144.6 3.59516 -0.166298 0
M  V30 1487 C 144.208 4.20342 -1.54974 0
M  V30 1488 C 145.952 4.23582 0.279021 0
M  V30 1489 C 143.859 5.70721 -1.55021 0
M  V30 1490 H 142.789 0.752851 -0.0416172 0
M  V30 1491 H 145.44 1.66083 -0.780309 0
M  V30 1492 H 143.822 3.92027 0.559557 0
M  V30 1493 H 144.996 3.99381 -2.29851 0
M  V30 1494 H 143.311 3.68529 -1.93843 0
M  V30 1495 H 145.908 5.33868 0.298083 0
M  V30 1496 H 146.251 3.95327 1.30471 0
M  V30 1497 H 146.784 3.95843 -0.394063 0
M  V30 1498 H 143.523 6.03698 -2.55399 0
M  V30 1499 H 143.043 5.93829 -0.844245 0
M  V30 1500 H 144.722 6.34203 -1.28047 0
M  V30 1501 N 144.854 0.36279 1.53368 0
M  V30 1502 C 145.784 -0.476976 2.28576 0
M  V30 1503 C 146.765 -1.08631 1.30894 0
M  V30 1504 O 147.95 -1.10409 1.59761 0
M  V30 1505 C 145.08 -1.61828 3.07293 0
M  V30 1506 C 144.034 -1.13633 4.1264 0
M  V30 1507 C 143.36 -2.36766 4.79423 0
M  V30 1508 C 144.66 -0.223061 5.21823 0
M  V30 1509 H 146.354 0.150474 2.99022 0
M  V30 1510 H 143.9 0.0738103 1.43811 0
M  V30 1511 H 145.853 -2.21237 3.58653 0
M  V30 1512 H 144.577 -2.27292 2.34533 0
M  V30 1513 H 143.236 -0.564945 3.62221 0
M  V30 1514 H 142.884 -3.0068 4.03238 0
M  V30 1515 H 142.584 -2.05192 5.50609 0
M  V30 1516 H 144.108 -2.96865 5.33576 0
M  V30 1517 H 145.522 -0.724545 5.68703 0
M  V30 1518 H 143.919 0.001678 6.001 0
M  V30 1519 H 144.989 0.735553 4.79289 0
M  V30 1520 N 146.332 -1.57332 0.0918853 0
M  V30 1521 C 147.562 -1.98286 -0.580205 0
M  V30 1522 C 147.97 -0.969713 -1.6246 0
M  V30 1523 O 147.313 0.0493501 -1.83634 0
M  V30 1524 C 147.375 -3.35603 -1.28882 0
M  V30 1525 C 147.039 -4.55285 -0.395559 0
M  V30 1526 C 148.036 -5.18687 0.355002 0
M  V30 1527 C 145.721 -5.01314 -0.314556 0
M  V30 1528 C 147.715 -6.26484 1.17458 0
M  V30 1529 C 145.402 -6.08979 0.508677 0
M  V30 1530 C 146.4 -6.71429 1.2519 0
M  V30 1531 O 146.088 -7.77018 2.06151 0
M  V30 1532 H 145.82 -0.656678 -0.160466 0
M  V30 1533 H 148.374 -2.04721 0.16688 0
M  V30 1534 H 146.604 -3.25842 -2.08241 0
M  V30 1535 H 148.293 -3.61026 -1.85512 0
M  V30 1536 H 149.059 -4.84058 0.302134 0
M  V30 1537 H 144.938 -4.5247 -0.882697 0
M  V30 1538 H 148.482 -6.75159 1.75518 0
M  V30 1539 H 144.379 -6.4304 0.563037 0
M  V30 1540 H 145.147 -7.93991 1.98799 0
M  V30 1541 N 147.81 0.181792 -1.56548 0
M  V30 1542 C 149.226 0.53316 -1.50431 0
M  V30 1543 C 149.426 1.85184 -0.794297 0
M  V30 1544 O 148.482 2.50058 -0.350318 0
M  V30 1545 C 149.795 0.575597 -2.9514 0
M  V30 1546 C 151.343 0.663519 -3.05886 0
M  V30 1547 C 151.818 0.736946 -4.52032 0
M  V30 1548 N 153.309 0.800118 -4.56237 0
M  V30 1549 C 154.044 0.877327 -5.66649 0
M  V30 1550 N 153.54 0.916016 -6.86718 0
M  V30 1551 N 155.333 0.915542 -5.54594 0
M  V30 1552 H 147.484 -0.683025 -2.01118 0
M  V30 1553 H 149.747 -0.244988 -0.915797 0
M  V30 1554 H 149.453 -0.324482 -3.502 0
M  V30 1555 H 149.327 1.42572 -3.49218 0
M  V30 1556 H 151.714 1.55403 -2.50867 0
M  V30 1557 H 151.795 -0.21307 -2.54911 0
M  V30 1558 H 151.439 -0.149262 -5.07681 0
M  V30 1559 H 151.369 1.62953 -5.00753 0
M  V30 1560 H 153.86 0.778926 -3.69785 0
M  V30 1561 H 154.173 0.975813 -7.66614 0
M  V30 1562 H 152.518 0.884469 -6.89349 0
M  V30 1563 H 155.709 0.882245 -4.59711 0
M  V30 1564 H 155.882 0.972253 -6.40665 0
M  V30 1565 N 149.288 1.51039 0.449983 0
M  V30 1566 C 150.235 1.71439 1.54523 0
M  V30 1567 C 151.205 0.555871 1.56522 0
M  V30 1568 O 152.39 0.788871 1.73728 0
M  V30 1569 C 149.53 1.83384 2.92343 0
M  V30 1570 C 148.643 3.10873 2.9997 0
M  V30 1571 C 147.778 3.13488 4.28834 0
M  V30 1572 C 146.817 4.35343 4.30282 0
M  V30 1573 N 145.954 4.35579 5.5065 0
M  V30 1574 H 150.794 2.64934 1.36433 0
M  V30 1575 H 148.331 1.31312 0.662982 0
M  V30 1576 H 150.289 1.88291 3.72293 0
M  V30 1577 H 148.919 0.933086 3.0902 0
M  V30 1578 H 147.971 3.15336 2.12761 0
M  V30 1579 H 149.283 4.00814 2.96901 0
M  V30 1580 H 148.437 3.17241 5.17149 0
M  V30 1581 H 147.176 2.21414 4.34543 0
M  V30 1582 H 146.181 4.3178 3.40362 0
M  V30 1583 H 147.406 5.28668 4.26248 0
M  V30 1584 H 145.352 3.46369 5.57104 0
M  V30 1585 H 145.269 5.19313 5.49409 0
M  V30 1586 H 146.537 4.43507 6.41032 0
M  V30 1587 N 150.766 -0.704594 1.40972 0
M  V30 1588 C 151.991 -1.49858 1.43378 0
M  V30 1589 C 152.416 -1.88061 0.038184 0
M  V30 1590 O 151.774 -1.5402 -0.956425 0
M  V30 1591 C 151.822 -2.74333 2.34038 0
M  V30 1592 O 150.926 -3.7147 1.7912 0
M  V30 1593 H 150.267 -0.45139 0.486974 0
M  V30 1594 H 152.797 -0.866832 1.8533 0
M  V30 1595 H 152.807 -3.22741 2.49604 0
M  V30 1596 H 151.482 -2.45863 3.35446 0
M  V30 1597 H 150.059 -3.30363 1.72958 0
M  V30 1598 N 152.244 -1.26651 -0.937939 0
M  V30 1599 C 153.492 -1.12165 -1.68118 0
M  V30 1600 C 153.813 0.334983 -1.92101 0
M  V30 1601 O 153.083 1.23583 -1.52 0
M  V30 1602 H 151.663 -0.412093 -0.623048 0
M  V30 1603 H 154.325 -1.59027 -1.12678 0
M  V30 1604 H 153.421 -1.64289 -2.6536 0
M  V30 1605 N 153.722 1.14298 -1.08507 0
M  V30 1606 C 154.652 2.21542 -0.737646 0
M  V30 1607 C 155.633 1.67773 0.280377 0
M  V30 1608 O 156.818 1.93616 0.150521 0
M  V30 1609 C 153.948 3.46988 -0.147259 0
M  V30 1610 C 152.902 4.13789 -1.09374 0
M  V30 1611 C 152.228 5.33449 -0.365524 0
M  V30 1612 C 153.528 4.62208 -2.4323 0
M  V30 1613 H 155.222 2.5086 -1.6343 0
M  V30 1614 H 152.768 1.20576 -0.787243 0
M  V30 1615 H 154.721 4.21262 0.107808 0
M  V30 1616 H 153.445 3.17037 0.784538 0
M  V30 1617 H 152.104 3.4147 -1.33393 0
M  V30 1618 H 151.752 4.99759 0.57011 0
M  V30 1619 H 151.452 5.79088 -0.996512 0
M  V30 1620 H 152.976 6.10485 -0.118534 0
M  V30 1621 H 154.39 5.27952 -2.23472 0
M  V30 1622 H 152.787 5.18553 -3.02031 0
M  V30 1623 H 153.857 3.77224 -3.04681 0
M  V30 1624 N 155.201 0.870884 1.31352 0
M  V30 1625 C 156.612 0.534714 1.78879 0
M  V30 1626 C 156.963 -0.948423 1.71754 0
M  V30 1627 O 156.088 -1.74055 1.28584 0
M  V30 1628 C 156.683 0.963839 3.24801 0
M  V30 1629 C 155.242 0.679311 3.70219 0
M  V30 1630 C 154.389 1.15465 2.52117 0
M  V30 1631 H 157.34 1.05651 1.18421 0
M  V30 1632 H 157.361 0.286892 3.79417 0
M  V30 1633 H 156.873 2.04332 3.29955 0
M  V30 1634 H 154.974 -0.388769 3.70566 0
M  V30 1635 H 155.087 1.25698 4.62317 0
M  V30 1636 H 153.451 0.574383 2.48139 0
M  V30 1637 H 154.234 2.24157 2.60016 0
M  V30 1638 N 156.679 -1.44442 0.630414 0
M  V30 1639 C 157.926 -2.02052 0.134617 0
M  V30 1640 C 158.254 -1.49576 -1.24327 0
M  V30 1641 O 157.509 -0.669806 -1.83881 0
M  V30 1642 C 157.808 -3.57332 0.0697835 0
M  V30 1643 C 157.474 -4.29058 1.38635 0
M  V30 1644 C 156.136 -4.4837 1.74694 0
M  V30 1645 C 158.488 -4.69872 2.25543 0
M  V30 1646 C 155.816 -5.05756 2.97369 0
M  V30 1647 C 158.168 -5.28616 3.47487 0
M  V30 1648 C 156.832 -5.46147 3.8377 0
M  V30 1649 H 156.102 -0.739361 0.0492598 0
M  V30 1650 H 158.749 -1.73217 0.816586 0
M  V30 1651 H 157.054 -3.85577 -0.695553 0
M  V30 1652 H 158.751 -3.99637 -0.330344 0
M  V30 1653 H 155.341 -4.14357 1.09574 0
M  V30 1654 H 159.525 -4.54666 1.98979 0
M  V30 1655 H 154.781 -5.17515 3.25558 0
M  V30 1656 H 158.955 -5.59192 4.15063 0
M  V30 1657 H 156.582 -5.9038 4.7891 0
M  V30 1658 N 158.157 -0.370918 -1.53173 0
M  V30 1659 C 159.403 0.209976 -2.02313 0
M  V30 1660 C 159.758 1.45987 -1.25322 0
M  V30 1661 O 159.051 1.8856 -0.339965 0
M  V30 1662 C 159.245 0.549696 -3.53147 0
M  V30 1663 C 159.074 -0.665721 -4.44745 0
M  V30 1664 C 157.844 -1.17942 -4.91343 0
M  V30 1665 C 160.042 -1.53255 -4.90935 0
M  V30 1666 N 158.024 -2.35431 -5.66962 0
M  V30 1667 C 159.395 -2.55403 -5.64951 0
M  V30 1668 C 161.45 -1.5548 -4.73002 0
M  V30 1669 C 160.153 -3.5964 -6.22938 0
M  V30 1670 C 162.179 -2.58613 -5.31858 0
M  V30 1671 C 161.541 -3.59485 -6.05764 0
M  V30 1672 H 157.64 0.0394095 -0.781006 0
M  V30 1673 H 160.224 -0.516666 -1.8772 0
M  V30 1674 H 158.395 1.24541 -3.67891 0
M  V30 1675 H 160.127 1.11614 -3.89004 0
M  V30 1676 H 156.882 -0.743228 -4.67732 0
M  V30 1677 H 157.306 -2.94827 -6.09431 0
M  V30 1678 H 161.948 -0.788457 -4.15383 0
M  V30 1679 H 159.666 -4.37153 -6.79649 0
M  V30 1680 H 163.252 -2.61195 -5.19873 0
M  V30 1681 H 162.132 -4.3798 -6.50495 0
M  V30 1682 N 159.635 1.57281 -0.100228 0
M  V30 1683 C 160.875 1.96419 0.56558 0
M  V30 1684 C 161.239 0.981265 1.65031 0
M  V30 1685 O 162.44 1.26133 2.37369 0
M  V30 1686 C 160.711 3.39996 1.10171 0
M  V30 1687 S 162.27 4.01134 1.77867 0
M  V30 1688 H 159.088 0.68667 0.184406 0
M  V30 1689 H 161.69 1.94662 -0.180851 0
M  V30 1690 H 160.394 4.09296 0.300803 0
M  V30 1691 H 159.925 3.45361 1.88385 0
M  V30 1692 H 161.94 3.90358 3.06326 0
M  V30 1693 N 161.113 -0.173488 1.56642 0
M  V30 1694 C 162.043 -1.2171 1.99271 0
M  V30 1695 C 163.024 -1.46289 0.867959 0
M  V30 1696 O 164.209 -1.5766 1.13388 0
M  V30 1697 C 161.339 -2.55651 2.35074 0
M  V30 1698 C 160.293 -2.45645 3.50489 0
M  V30 1699 C 159.619 -3.84056 3.72028 0
M  V30 1700 C 160.919 -1.96302 4.84007 0
M  V30 1701 H 162.613 -0.86275 2.867 0
M  V30 1702 H 160.159 -0.413571 1.37933 0
M  V30 1703 H 162.112 -3.2886 2.63494 0
M  V30 1704 H 160.836 -2.92869 1.44552 0
M  V30 1705 H 159.495 -1.7489 3.22194 0
M  V30 1706 H 159.143 -4.18664 2.788 0
M  V30 1707 H 158.843 -3.7823 4.49684 0
M  V30 1708 H 160.367 -4.58854 4.02846 0
M  V30 1709 H 161.781 -2.59284 5.11317 0
M  V30 1710 H 160.178 -2.01429 5.65284 0
M  V30 1711 H 161.248 -0.917226 4.76146 0
M  V30 1712 N 162.591 -1.51276 -0.441967 0
M  V30 1713 C 163.521 -1.752 -1.54361 0
M  V30 1714 C 164.502 -0.601682 -1.59103 0
M  V30 1715 O 165.687 -0.843913 -1.74905 0
M  V30 1716 C 162.817 -1.87282 -2.92477 0
M  V30 1717 C 161.771 -3.02687 -3.02596 0
M  V30 1718 C 161.097 -2.99947 -4.42647 0
M  V30 1719 C 162.397 -4.4273 -2.77106 0
M  V30 1720 H 164.091 -2.67442 -1.34592 0
M  V30 1721 H 161.637 -1.28694 -0.646048 0
M  V30 1722 H 163.59 -2.02602 -3.695 0
M  V30 1723 H 162.314 -0.916844 -3.13467 0
M  V30 1724 H 160.973 -2.87065 -2.28012 0
M  V30 1725 H 160.621 -2.02136 -4.60597 0
M  V30 1726 H 160.321 -3.77439 -4.50348 0
M  V30 1727 H 161.845 -3.17354 -5.2165 0
M  V30 1728 H 163.259 -4.58727 -3.43864 0
M  V30 1729 H 161.656 -5.21893 -2.96222 0
M  V30 1730 H 162.726 -4.53087 -1.72744 0
M  V30 1731 N 164.069 0.697108 -1.41344 0
M  V30 1732 C 165.346 1.45154 -1.31109 0
M  V30 1733 C 165.726 2.11009 0.0620449 0
M  V30 1734 O 165.074 2.01571 1.07618 0
M  V30 1735 C 165.284 2.47223 -2.46337 0
M  V30 1736 C 166.632 3.1252 -2.87431 0
M  V30 1737 O 167.656 2.57547 -2.46065 0
M  V30 1738 O 166.515 4.12083 -3.58957 0
M  V30 1739 H 163.609 0.646365 -0.515889 0
M  V30 1740 H 166.155 0.727716 -1.53305 0
M  V30 1741 H 164.927 1.97204 -3.37974 0
M  V30 1742 H 164.55 3.27116 -2.2601 0
M  V30 1743 N 165.547 1.27147 0.931209 0
M  V30 1744 C 166.793 1.13446 1.68101 0
M  V30 1745 C 167.126 -0.319628 1.91552 0
M  V30 1746 O 166.401 -1.23407 1.50336 0
M  V30 1747 C 166.684 1.91482 3.0497 0
M  V30 1748 C 166.537 3.44855 2.88782 0
M  V30 1749 C 167.856 1.71651 4.05246 0
M  V30 1750 H 164.975 0.413498 0.610072 0
M  V30 1751 H 167.617 1.56261 1.08086 0
M  V30 1752 H 165.767 1.55095 3.56199 0
M  V30 1753 H 167.439 3.9105 2.44698 0
M  V30 1754 H 165.682 3.71373 2.24198 0
M  V30 1755 H 166.353 3.94694 3.85902 0
M  V30 1756 H 168.829 2.0337 3.63015 0
M  V30 1757 H 167.705 2.28651 4.99009 0
M  V30 1758 H 167.966 0.663555 4.37092 0
M  V30 1759 N 167.025 -1.13721 1.09112 0
M  V30 1760 C 168.274 -1.84275 0.82009 0
M  V30 1761 C 168.587 -1.84253 -0.656509 0
M  V30 1762 O 169.793 -2.50668 -1.04296 0
M  V30 1763 C 168.249 -3.30825 1.41714 0
M  V30 1764 C 167.857 -3.39244 2.92605 0
M  V30 1765 C 169.601 -4.06443 1.22492 0
M  V30 1766 C 167.508 -4.80047 3.45411 0
M  V30 1767 H 166.438 -0.690387 0.30312 0
M  V30 1768 H 169.089 -1.28146 1.31343 0
M  V30 1769 H 167.471 -3.86737 0.851498 0
M  V30 1770 H 168.645 -2.93344 3.55367 0
M  V30 1771 H 166.96 -2.77088 3.10823 0
M  V30 1772 H 169.557 -5.10387 1.59402 0
M  V30 1773 H 169.9 -4.15972 0.165299 0
M  V30 1774 H 170.433 -3.56852 1.75788 0
M  V30 1775 H 167.172 -4.75709 4.50978 0
M  V30 1776 H 166.692 -5.26455 2.87411 0
M  V30 1777 H 168.371 -5.48957 3.42425 0
M  V30 1778 N 168.503 -0.877838 -1.30888 0
M  V30 1779 C 169.914 -0.544193 -1.78593 0
M  V30 1780 C 170.265 0.939301 -1.72254 0
M  V30 1781 O 169.39 1.7337 -1.29505 0
M  V30 1782 C 169.985 -0.98105 -3.24285 0
M  V30 1783 C 168.544 -0.698935 -3.69854 0
M  V30 1784 C 167.691 -1.168 -2.51502 0
M  V30 1785 H 170.642 -1.06278 -1.17859 0
M  V30 1786 H 170.663 -0.307009 -3.79259 0
M  V30 1787 H 170.175 -2.06079 -3.28866 0
M  V30 1788 H 168.276 0.369112 -3.70767 0
M  V30 1789 H 168.389 -1.28148 -4.61644 0
M  V30 1790 H 166.753 -0.587535 -2.47831 0
M  V30 1791 H 167.536 -2.25533 -2.58824 0
M  V30 1792 N 169.982 1.44106 -0.638065 0
M  V30 1793 C 171.231 2.01194 -0.142744 0
M  V30 1794 C 171.544 1.50835 1.24532 0
M  V30 1795 O 172.75 2.00096 1.83504 0
M  V30 1796 C 171.206 3.59319 -0.20442 0
M  V30 1797 C 170.814 4.18674 -1.59423 0
M  V30 1798 C 172.558 4.23854 0.234079 0
M  V30 1799 C 170.465 5.69045 -1.61065 0
M  V30 1800 H 169.395 0.752367 -0.0495998 0
M  V30 1801 H 172.046 1.65246 -0.797881 0
M  V30 1802 H 170.428 3.92598 0.517946 0
M  V30 1803 H 171.602 3.96921 -2.34074 0
M  V30 1804 H 169.917 3.66453 -1.97741 0
M  V30 1805 H 172.514 5.34155 0.241443 0
M  V30 1806 H 172.857 3.96688 1.2627 0
M  V30 1807 H 173.39 3.95403 -0.436025 0
M  V30 1808 H 170.129 6.00956 -2.61787 0
M  V30 1809 H 169.649 5.929 -0.90718 0
M  V30 1810 H 171.328 6.32809 -1.34766 0
M  V30 1811 N 171.46 0.379036 1.52974 0
M  V30 1812 C 172.407 -0.461048 2.26148 0
M  V30 1813 C 173.377 -1.06637 1.27349 0
M  V30 1814 O 174.562 -1.09633 1.56157 0
M  V30 1815 C 171.702 -1.58782 3.06402 0
M  V30 1816 C 170.815 -1.00636 4.20115 0
M  V30 1817 C 169.95 -2.10334 4.87784 0
M  V30 1818 C 168.989 -1.49724 5.93506 0
M  V30 1819 N 168.126 -2.5331 6.54812 0
M  V30 1820 H 172.966 0.169429 2.97518 0
M  V30 1821 H 170.503 0.0953806 1.4679 0
M  V30 1822 H 172.461 -2.25174 3.51215 0
M  V30 1823 H 171.091 -2.18876 2.37261 0
M  V30 1824 H 170.143 -0.232332 3.7969 0
M  V30 1825 H 171.455 -0.523343 4.96047 0
M  V30 1826 H 170.609 -2.84519 5.35849 0
M  V30 1827 H 169.348 -2.61992 4.11353 0
M  V30 1828 H 168.353 -0.740598 5.44789 0
M  V30 1829 H 169.578 -0.988732 6.71864 0
M  V30 1830 H 167.524 -3.04156 5.81227 0
M  V30 1831 H 167.441 -2.09734 7.26325 0
M  V30 1832 H 168.709 -3.27155 7.07524 0
M  V30 1833 N 172.938 -1.57226 0.108567 0
M  V30 1834 C 173.886 -2.16002 -0.862885 0
M  V30 1835 C 174.88 -1.10644 -1.28274 0
M  V30 1836 O 176.086 -1.28966 -1.2557 0
M  V30 1837 H 172.461 -0.691148 -0.296342 0
M  V30 1838 H 174.432 -2.96427 -0.342575 0
M  V30 1839 C 173.181 -2.76576 -2.10716 0
M  V30 1840 H 172.504 -3.5734 -1.793 0
M  V30 1841 H 173.944 -3.21253 -2.76717 0
M  V30 1842 C 172.403 -1.73137 -2.89007 0
M  V30 1843 O 172.933 -1.17842 -3.84026 0
M  V30 1844 N 171.139 -1.43317 -2.52801 0
M  V30 1845 H 170.686 -1.88473 -1.75601 0
M  V30 1846 H 170.644 -0.743485 -3.05483 0
M  V30 1847 N 174.416 0.165178 -1.56732 0
M  V30 1848 C 175.326 1.22423 -2.00125 0
M  V30 1849 C 176.342 1.48084 -0.913619 0
M  V30 1850 O 177.518 1.60112 -1.22172 0
M  V30 1851 C 174.583 2.54197 -2.35764 0
M  V30 1852 C 173.644 2.36343 -3.58386 0
M  V30 1853 C 172.877 3.61834 -3.92316 0
M  V30 1854 O 173.1 4.67267 -3.27135 0
M  V30 1855 O 172.034 3.55579 -4.85641 0
M  V30 1856 H 175.86 0.885886 -2.90492 0
M  V30 1857 H 173.445 0.372518 -1.44681 0
M  V30 1858 H 175.327 3.3192 -2.59629 0
M  V30 1859 H 174.002 2.87598 -1.48557 0
M  V30 1860 H 172.909 1.56632 -3.39731 0
M  V30 1861 H 174.242 2.07865 -4.46154 0
M  V30 1862 N 175.894 1.51508 0.433938 0
M  V30 1863 C 176.841 1.73068 1.52696 0
M  V30 1864 C 177.811 0.572441 1.55924 0
M  V30 1865 O 178.996 0.807253 1.72882 0
M  V30 1866 C 176.136 1.86474 2.90381 0
M  V30 1867 C 175.249 3.14037 2.96656 0
M  V30 1868 C 174.384 3.18019 4.25485 0
M  V30 1869 C 173.423 4.39882 4.2564 0
M  V30 1870 N 172.56 4.41394 5.45999 0
M  V30 1871 H 177.4 2.66366 1.33615 0
M  V30 1872 H 174.937 1.32008 0.649018 0
M  V30 1873 H 176.895 1.92229 3.70275 0
M  V30 1874 H 175.525 0.965809 3.08013 0
M  V30 1875 H 174.577 3.17575 2.09404 0
M  V30 1876 H 175.889 4.0394 2.92633 0
M  V30 1877 H 175.043 3.22708 5.13755 0
M  V30 1878 H 173.782 2.2601 4.3217 0
M  V30 1879 H 172.787 4.35366 3.35763 0
M  V30 1880 H 174.012 5.33159 4.20617 0
M  V30 1881 H 171.958 3.52258 5.53399 0
M  V30 1882 H 171.875 5.25111 5.4387 0
M  V30 1883 H 173.143 4.50281 6.36292 0
M  V30 1884 N 177.372 -0.689602 1.41712 0
M  V30 1885 C 178.62 -1.4468 1.4111 0
M  V30 1886 C 178.941 -1.94986 0.0232196 0
M  V30 1887 O 178.211 -1.72097 -0.935913 0
M  V30 1888 H 176.791 -0.536847 0.519427 0
M  V30 1889 H 179.453 -0.815825 1.77004 0
M  V30 1890 H 178.549 -2.30706 2.10193 0
M  V30 1891 N 178.85 -1.27639 -0.924453 0
M  V30 1892 C 179.76 -1.12466 -2.05885 0
M  V30 1893 C 180.776 -0.053869 -1.73917 0
M  V30 1894 O 181.952 -0.261012 -1.99702 0
M  V30 1895 C 179.017 -0.776768 -3.37886 0
M  V30 1896 C 178.078 -1.92878 -3.83532 0
M  V30 1897 C 177.311 -1.59739 -5.09234 0
M  V30 1898 O 177.534 -0.506782 -5.68144 0
M  V30 1899 O 176.468 -2.43761 -5.50331 0
M  V30 1900 H 180.294 -2.07671 -2.21599 0
M  V30 1901 H 177.879 -1.06857 -1.04413 0
M  V30 1902 H 179.761 -0.596229 -4.17161 0
M  V30 1903 H 178.436 0.145732 -3.23372 0
M  V30 1904 H 177.343 -2.1644 -3.0513 0
M  V30 1905 H 178.676 -2.8316 -4.02593 0
M  V30 1906 N 180.328 1.1314 -1.09713 0
M  V30 1907 C 181.574 1.84757 -0.836224 0
M  V30 1908 C 181.907 1.8347 0.636598 0
M  V30 1909 O 181.182 1.27491 1.46889 0
M  V30 1910 C 181.465 3.32782 -1.37578 0
M  V30 1911 C 181.318 3.42567 -2.91493 0
M  V30 1912 C 182.637 4.28307 -1.01198 0
M  V30 1913 H 179.756 0.67082 -0.305236 0
M  V30 1914 H 182.398 1.3278 -1.35903 0
M  V30 1915 H 180.548 3.77177 -0.931097 0
M  V30 1916 H 182.22 3.06862 -3.44432 0
M  V30 1917 H 180.463 2.83349 -3.28475 0
M  V30 1918 H 181.134 4.46674 -3.24324 0
M  V30 1919 H 183.61 3.91999 -1.39556 0
M  V30 1920 H 182.486 5.30307 -1.41653 0
M  V30 1921 H 182.747 4.42029 0.0794833 0
M  V30 1922 N 181.806 0.884767 1.30421 0
M  V30 1923 C 182.769 0.356277 2.26414 0
M  V30 1924 C 183.769 -0.501124 1.52792 0
M  V30 1925 O 184.959 -0.30831 1.7145 0
M  V30 1926 C 182.091 -0.492316 3.37326 0
M  V30 1927 H 183.284 1.20389 2.74675 0
M  V30 1928 H 180.837 0.661607 1.41607 0
M  V30 1929 H 181.572 -1.36052 2.94381 0
M  V30 1930 H 181.357 0.121832 3.91911 0
M  V30 1931 H 182.847 -0.853871 4.08777 0
M  V30 1932 N 183.284 -1.43765 0.645699 0
M  V30 1933 C 184.214 -2.33471 -0.0370477 0
M  V30 1934 C 185.195 -1.49042 -0.819779 0
M  V30 1935 O 186.38 -1.77726 -0.782758 0
M  V30 1936 C 183.51 -3.32311 -1.0093 0
M  V30 1937 C 182.464 -4.2667 -0.337201 0
M  V30 1938 C 181.79 -5.1549 -1.42037 0
M  V30 1939 C 183.09 -5.16657 0.765706 0
M  V30 1940 H 184.784 -2.90809 0.712069 0
M  V30 1941 H 182.33 -1.39834 0.343876 0
M  V30 1942 H 184.283 -3.9396 -1.49578 0
M  V30 1943 H 183.007 -2.73213 -1.78948 0
M  V30 1944 H 181.666 -3.66374 0.128771 0
M  V30 1945 H 181.314 -4.52735 -2.1918 0
M  V30 1946 H 181.014 -5.79438 -0.975966 0
M  V30 1947 H 182.538 -5.80012 -1.90838 0
M  V30 1948 H 183.952 -5.72158 0.361702 0
M  V30 1949 H 182.349 -5.89286 1.13413 0
M  V30 1950 H 183.419 -4.56796 1.62683 0
M  V30 1951 N 184.763 -0.387143 -1.52771 0
M  V30 1952 C 186.01 0.195735 -2.01552 0
M  V30 1953 C 186.338 1.46995 -1.27369 0
M  V30 1954 O 185.593 1.92325 -0.361879 0
M  V30 1955 C 185.892 0.512209 -3.53711 0
M  V30 1956 C 185.558 -0.670202 -4.45891 0
M  V30 1957 C 184.22 -0.994586 -4.70809 0
M  V30 1958 C 186.572 -1.46134 -5.00294 0
M  V30 1959 C 183.9 -2.11169 -5.4738 0
M  V30 1960 C 186.252 -2.56903 -5.78086 0
M  V30 1961 C 184.916 -2.89852 -6.01284 0
M  V30 1962 H 184.186 0.0716246 -0.73753 0
M  V30 1963 H 186.833 -0.524046 -1.8419 0
M  V30 1964 H 185.138 1.31329 -3.69134 0
M  V30 1965 H 186.835 0.975804 -3.88946 0
M  V30 1966 H 183.425 -0.407366 -4.2666 0
M  V30 1967 H 187.609 -1.22397 -4.80971 0
M  V30 1968 H 182.865 -2.3707 -5.63567 0
M  V30 1969 H 187.039 -3.18608 -6.19243 0
M  V30 1970 H 184.666 -3.76533 -6.60399 0
M  V30 1971 N 186.241 1.57166 -0.116904 0
M  V30 1972 C 187.171 2.18222 0.830759 0
M  V30 1973 C 188.152 1.12167 1.27877 0
M  V30 1974 O 189.337 1.40394 1.34176 0
M  V30 1975 C 186.467 2.77996 2.08172 0
M  V30 1976 C 185.421 3.89614 1.77157 0
M  V30 1977 C 184.747 4.36187 3.09265 0
M  V30 1978 C 186.047 5.1181 1.04151 0
M  V30 1979 H 187.741 2.97664 0.321992 0
M  V30 1980 H 185.287 1.4318 0.153434 0
M  V30 1981 H 187.24 3.19366 2.74924 0
M  V30 1982 H 185.964 1.9584 2.6137 0
M  V30 1983 H 184.623 3.48816 1.12796 0
M  V30 1984 H 184.271 3.50893 3.60393 0
M  V30 1985 H 183.971 5.11455 2.89288 0
M  V30 1986 H 185.495 4.80207 3.77139 0
M  V30 1987 H 186.909 5.50214 1.61052 0
M  V30 1988 H 185.306 5.92648 0.942762 0
M  V30 1989 H 186.376 4.84892 0.0279022 0
M  V30 1990 N 187.719 -0.156864 1.56817 0
M  V30 1991 C 188.965 -0.872416 1.83076 0
M  V30 1992 C 189.298 -1.81261 0.697001 0
M  V30 1993 O 188.573 -1.92171 -0.30008 0
M  V30 1994 C 188.856 -1.65551 3.19789 0
M  V30 1995 C 188.709 -0.737467 4.43713 0
M  V30 1996 C 190.028 -2.62012 3.53606 0
M  V30 1997 H 187.147 -0.315715 0.665953 0
M  V30 1998 H 189.789 -0.138004 1.89498 0
M  V30 1999 H 187.939 -2.28159 3.14445 0
M  V30 2000 H 189.611 -0.123143 4.61136 0
M  V30 2001 H 187.854 -0.0464067 4.33775 0
M  V30 2002 H 188.525 -1.32122 5.35955 0
M  V30 2003 H 191.001 -2.09525 3.59497 0
M  V30 2004 H 189.877 -3.13861 4.50314 0
M  V30 2005 H 190.138 -3.42902 2.79053 0
M  V30 2006 N 189.197 -1.51736 -0.425897 0
M  V30 2007 C 190.422 -1.69082 -1.20108 0
M  V30 2008 C 190.847 -0.392398 -1.83962 0
M  V30 2009 O 190.205 0.64858 -1.69302 0
M  V30 2010 C 190.253 -2.81604 -2.25237 0
M  V30 2011 O 189.357 -2.46004 -3.30992 0
M  V30 2012 H 188.698 -0.563408 -0.35138 0
M  V30 2013 H 191.228 -1.98358 -0.501512 0
M  V30 2014 H 191.238 -3.06025 -2.69838 0
M  V30 2015 H 189.913 -3.75817 -1.78142 0
M  V30 2016 H 188.49 -2.32195 -2.91787 0
M  V30 2017 N 190.675 0.682077 -1.42076 0
M  V30 2018 C 191.625 1.78823 -1.41444 0
M  V30 2019 C 192.609 1.58323 -0.28681 0
M  V30 2020 O 193.801 1.68926 -0.528498 0
M  V30 2021 C 190.93 3.17232 -1.3122 0
M  V30 2022 C 190.016 3.4338 -2.489 0
M  V30 2023 N 190.407 3.40152 -3.7434 0
M  V30 2024 C 188.705 3.73986 -2.43003 0
M  V30 2025 C 189.406 3.65581 -4.52466 0
M  V30 2026 N 188.382 3.85989 -3.8277 0
M  V30 2027 H 192.184 1.7471 -2.36334 0
M  V30 2028 H 189.698 0.882622 -1.36321 0
M  V30 2029 H 191.695 3.96489 -1.2885 0
M  V30 2030 H 190.355 3.22547 -0.373263 0
M  V30 2031 H 191.366 3.20221 -4.07037 0
M  V30 2032 H 188.043 3.86591 -1.57651 0
M  V30 2033 H 189.433 3.69108 -5.61435 0
M  V30 2034 N 192.153 1.28127 0.917671 0
M  V30 2035 C 193.1 1.11717 2.0196 0
M  V30 2036 C 194.07 0.0153929 1.66093 0
M  V30 2037 O 195.255 0.179596 1.89953 0
M  V30 2038 C 192.395 0.780927 3.36148 0
M  V30 2039 C 191.508 1.96135 3.84909 0
M  V30 2040 C 190.643 1.56609 5.0759 0
M  V30 2041 C 189.682 2.71339 5.48673 0
M  V30 2042 N 188.819 2.32332 6.62545 0
M  V30 2043 H 193.659 2.06003 2.15329 0
M  V30 2044 H 191.196 1.02535 1.05475 0
M  V30 2045 H 193.154 0.56675 4.13333 0
M  V30 2046 H 191.784 -0.124998 3.22558 0
M  V30 2047 H 190.836 2.28777 3.03916 0
M  V30 2048 H 192.148 2.82165 4.1132 0
M  V30 2049 H 191.302 1.31374 5.92305 0
M  V30 2050 H 190.041 0.677014 4.82978 0
M  V30 2051 H 189.046 2.97276 4.62501 0
M  V30 2052 H 190.271 3.60882 5.75274 0
M  V30 2053 H 188.217 1.45889 6.39572 0
M  V30 2054 H 188.134 3.11899 6.88662 0
M  V30 2055 H 189.402 2.10371 7.50576 0
M  V30 2056 N 193.631 -1.12557 1.10312 0
M  V30 2057 C 194.908 -1.80363 0.756878 0
M  V30 2058 C 195.288 -1.97067 -0.756824 0
M  V30 2059 O 194.636 -1.54601 -1.68259 0
M  V30 2060 C 194.846 -3.14812 1.50647 0
M  V30 2061 C 196.194 -3.90029 1.67817 0
M  V30 2062 O 197.218 -3.24464 1.46974 0
M  V30 2063 O 196.077 -5.07652 2.02365 0
M  V30 2064 H 193.171 -0.780667 0.272926 0
M  V30 2065 H 195.717 -1.19404 1.20586 0
M  V30 2066 H 194.489 -2.97936 2.53672 0
M  V30 2067 H 194.112 -3.83478 1.05026 0
M  V30 2068 N 195.109 -0.891671 -1.2995 0
M  V30 2069 C 196.358 -0.509521 -1.95158 0
M  V30 2070 C 196.671 0.947388 -1.71125 0
M  V30 2071 O 197.877 1.43669 -2.30372 0
M  V30 2072 C 196.333 -0.860315 -3.49466 0
M  V30 2073 C 195.941 -2.33545 -3.8231 0
M  V30 2074 C 197.685 -0.547687 -4.20952 0
M  V30 2075 C 195.592 -2.62752 -5.29826 0
M  V30 2076 H 194.522 -0.18682 -0.730489 0
M  V30 2077 H 197.173 -1.08756 -1.47798 0
M  V30 2078 H 195.555 -0.211285 -3.95436 0
M  V30 2079 H 196.729 -3.02936 -3.47227 0
M  V30 2080 H 195.044 -2.61629 -3.23944 0
M  V30 2081 H 197.641 -0.742854 -5.29515 0
M  V30 2082 H 197.984 0.51332 -4.13123 0
M  V30 2083 H 198.517 -1.1542 -3.80688 0
M  V30 2084 H 195.256 -3.6762 -5.42712 0
M  V30 2085 H 194.776 -1.97977 -5.66185 0
M  V30 2086 H 196.455 -2.48601 -5.97333 0
M  V30 2087 N 196.587 1.43421 -0.653314 0
M  V30 2088 C 197.812 2.06678 -0.172846 0
M  V30 2089 C 198.237 1.48648 1.15262 0
M  V30 2090 O 197.595 0.596457 1.71208 0
M  V30 2091 C 197.643 3.60474 -0.0953184 0
M  V30 2092 O 196.747 4.01487 0.942442 0
M  V30 2093 H 196.088 0.657181 -0.0949155 0
M  V30 2094 H 198.618 1.83925 -0.896265 0
M  V30 2095 H 198.628 4.07905 0.0879728 0
M  V30 2096 H 197.303 4.02088 -1.06291 0
M  V30 2097 H 195.88 3.65646 0.731932 0
M  V30 2098 N 198.065 0.39524 1.52563 0
M  V30 2099 C 198.975 -0.444232 2.30356 0
M  V30 2100 C 199.991 -1.06615 1.37511 0
M  V30 2101 O 201.167 -1.07067 1.70583 0
M  V30 2102 C 198.232 -1.55315 3.09964 0
M  V30 2103 C 197.293 -0.955734 4.18526 0
M  V30 2104 C 196.526 -2.01181 4.9433 0
M  V30 2105 O 196.749 -3.22781 4.70285 0
M  V30 2106 O 195.683 -1.62579 5.79527 0
M  V30 2107 H 199.509 0.189667 3.03107 0
M  V30 2108 H 197.094 0.1588 1.48554 0
M  V30 2109 H 198.976 -2.19724 3.59582 0
M  V30 2110 H 197.651 -2.17191 2.4002 0
M  V30 2111 H 196.558 -0.274743 3.7309 0
M  V30 2112 H 197.891 -0.381109 4.90722 0
M  V30 2113 N 199.544 -1.57102 0.125237 0
M  V30 2114 C 200.772 -1.99761 -0.538797 0
M  V30 2115 C 201.187 -1.00503 -1.59827 0
M  V30 2116 O 200.544 0.00119474 -1.825 0
M  V30 2117 C 200.595 -3.42408 -1.15927 0
M  V30 2118 O 200.316 -4.37869 -0.142143 0
M  V30 2119 C 201.817 -4.00232 -1.90602 0
M  V30 2120 H 199.037 -0.655772 -0.14214 0
M  V30 2121 H 201.581 -2.03383 0.213413 0
M  V30 2122 H 199.736 -3.39706 -1.86223 0
M  V30 2123 H 200.15 -5.21128 -0.593775 0
M  V30 2124 H 201.624 -5.02105 -2.29335 0
M  V30 2125 H 202.101 -3.39721 -2.78363 0
M  V30 2126 H 202.707 -4.06499 -1.25055 0
M  V30 2127 N 201.022 0.148545 -1.56898 0
M  V30 2128 C 201.969 1.18345 -1.98149 0
M  V30 2129 C 202.939 1.42772 -0.848848 0
M  V30 2130 O 204.124 1.55132 -1.11079 0
M  V30 2131 C 201.264 2.51231 -2.36594 0
M  V30 2132 C 200.377 2.33991 -3.63142 0
M  V30 2133 C 199.512 3.59902 -3.90697 0
M  V30 2134 C 198.551 3.37692 -5.1052 0
M  V30 2135 N 197.688 4.5573 -5.34092 0
M  V30 2136 H 202.528 0.82467 -2.86362 0
M  V30 2137 H 200.065 0.395756 -1.41676 0
M  V30 2138 H 202.023 3.28713 -2.56912 0
M  V30 2139 H 200.653 2.85059 -1.51463 0
M  V30 2140 H 199.705 1.47572 -3.50609 0
M  V30 2141 H 201.017 2.13539 -4.5078 0
M  V30 2142 H 200.171 4.45813 -4.11505 0
M  V30 2143 H 198.91 3.83357 -3.01477 0
M  V30 2144 H 197.915 2.5017 -4.89587 0
M  V30 2145 H 199.14 3.15637 -6.0129 0
M  V30 2146 H 197.086 4.79361 -4.47827 0
M  V30 2147 H 197.003 4.38274 -6.15996 0
M  V30 2148 H 198.271 5.42858 -5.59397 0
M  V30 2149 N 202.5 1.5196 0.417844 0
M  V30 2150 C 203.448 1.75278 1.52907 0
M  V30 2151 C 204.442 0.619611 1.57662 0
M  V30 2152 O 205.648 0.801457 1.61173 0
M  V30 2153 H 202.023 0.554141 0.508362 0
M  V30 2154 H 203.994 2.68389 1.30422 0
M  V30 2155 C 202.743 1.91262 2.90369 0
M  V30 2156 H 202.066 2.77872 2.8745 0
M  V30 2157 H 203.506 2.11581 3.67436 0
M  V30 2158 C 201.965 0.677431 3.30019 0
M  V30 2159 O 202.495 -0.158799 4.01386 0
M  V30 2160 N 200.701 0.515851 2.85985 0
M  V30 2161 H 200.248 1.19744 2.28077 0
M  V30 2162 H 200.206 -0.309315 3.12875 0
M  V30 2163 N 203.978 -0.674533 1.42435 0
M  V30 2164 C 205.394 -0.98769 1.25367 0
M  V30 2165 C 205.594 -2.00879 0.158044 0
M  V30 2166 O 204.65 -2.48075 -0.470633 0
M  V30 2167 C 205.963 -1.49224 2.6106 0
M  V30 2168 C 207.511 -1.61 2.68417 0
M  V30 2169 C 207.986 -2.14852 4.04478 0
M  V30 2170 N 209.477 -2.22185 4.06434 0
M  V30 2171 C 210.212 -2.64928 5.08528 0
M  V30 2172 N 209.708 -3.07121 6.21006 0
M  V30 2173 N 211.501 -2.64679 4.95885 0
M  V30 2174 H 203.652 0.00152503 2.124 0
M  V30 2175 H 205.915 -0.0618434 0.945981 0
M  V30 2176 H 205.621 -0.816453 3.42092 0
M  V30 2177 H 205.495 -2.47094 2.84999 0
M  V30 2178 H 207.882 -2.27686 1.87732 0
M  V30 2179 H 207.963 -0.616195 2.48267 0
M  V30 2180 H 207.607 -1.48775 4.85622 0
M  V30 2181 H 207.537 -3.15024 4.2198 0
M  V30 2182 H 210.028 -1.92435 3.25234 0
M  V30 2183 H 210.341 -3.38423 6.94759 0
M  V30 2184 H 208.686 -3.04978 6.24511 0
M  V30 2185 H 211.877 -2.31078 4.07088 0
M  V30 2186 H 212.05 -2.9767 5.75584 0
M  V30 2187 N 205.456 -1.28612 -0.910864 0
M  V30 2188 C 206.704 -1.15705 -1.65701 0
M  V30 2189 C 207.025 0.29416 -1.92769 0
M  V30 2190 O 206.295 1.20331 -1.54588 0
M  V30 2191 H 204.875 -0.425216 -0.614167 0
M  V30 2192 H 207.537 -1.61381 -1.0928 0
M  V30 2193 H 206.633 -1.6988 -2.61815 0
M  V30 2194 N 206.934 1.1197 -1.10907 0
M  V30 2195 C 208.182 1.83225 -0.852819 0
M  V30 2196 C 208.503 1.84769 0.623341 0
M  V30 2197 O 207.773 1.3143 1.45269 0
M  V30 2198 H 206.353 0.67849 -0.312507 0
M  V30 2199 H 209.015 1.3556 -1.40033 0
M  V30 2200 H 208.111 2.87265 -1.22005 0
M  V30 2201 N 208.412 0.89855 1.29475 0
M  V30 2202 C 209.823 0.572537 1.77705 0
M  V30 2203 C 210.174 -0.911778 1.73727 0
M  V30 2204 O 209.299 -1.71288 1.32247 0
M  V30 2205 C 209.894 1.03252 3.22683 0
M  V30 2206 C 208.453 0.757687 3.68695 0
M  V30 2207 C 207.6 1.20787 2.49612 0
M  V30 2208 H 210.551 1.08139 1.16153 0
M  V30 2209 H 210.572 0.367307 3.78723 0
M  V30 2210 H 210.084 2.11285 3.25546 0
M  V30 2211 H 208.185 -0.310079 3.71308 0
M  V30 2212 H 208.298 1.35476 4.59547 0
M  V30 2213 H 206.662 0.626888 2.46865 0
M  V30 2214 H 207.445 2.29622 2.55203 0
M  V30 2215 N 209.89 -1.43072 0.660911 0
M  V30 2216 C 211.167 -1.95307 0.107017 0
M  V30 2217 C 211.547 -1.60192 -1.37484 0
M  V30 2218 O 210.895 -0.890949 -2.10415 0
M  V30 2219 C 211.105 -3.47124 0.361402 0
M  V30 2220 C 212.453 -4.23738 0.270455 0
M  V30 2221 O 213.477 -3.54981 0.294382 0
M  V30 2222 O 212.336 -5.46131 0.200737 0
M  V30 2223 H 209.43 -0.826984 -0.00517729 0
M  V30 2224 H 211.976 -1.52972 0.734681 0
M  V30 2225 H 210.748 -3.65837 1.38848 0
M  V30 2226 H 210.371 -3.96475 -0.298953 0
M  V30 2227 N 211.368 -0.403325 -1.52352 0
M  V30 2228 C 212.784 -0.0539281 -1.59509 0
M  V30 2229 C 212.984 1.43307 -1.41652 0
M  V30 2230 O 212.04 2.19924 -1.24056 0
M  V30 2231 C 213.353 -0.543654 -2.95745 0
M  V30 2232 C 214.901 -0.501125 -3.08962 0
M  V30 2233 C 215.376 -0.967267 -4.47669 0
M  V30 2234 N 216.867 -0.923849 -4.53893 0
M  V30 2235 C 217.602 -1.25578 -5.5948 0
M  V30 2236 N 217.098 -1.65889 -6.72646 0
M  V30 2237 N 218.891 -1.17613 -5.49658 0
M  V30 2238 H 211.042 -1.37123 -1.62206 0
M  V30 2239 H 213.305 -0.56294 -0.76276 0
M  V30 2240 H 213.011 -1.58275 -3.14073 0
M  V30 2241 H 212.885 0.0498042 -3.77167 0
M  V30 2242 H 215.272 0.528909 -2.90321 0
M  V30 2243 H 215.353 -1.13056 -2.2946 0
M  V30 2244 H 214.997 -1.9956 -4.67053 0
M  V30 2245 H 214.927 -0.314698 -5.25659 0
M  V30 2246 H 217.418 -0.627403 -3.72655 0
M  V30 2247 H 217.731 -1.89543 -7.49195 0
M  V30 2248 H 216.076 -1.69787 -6.73942 0
M  V30 2249 H 219.267 -0.860115 -4.6013 0
M  V30 2250 H 219.44 -1.43812 -6.3184 0
M  V30 2251 N 212.846 1.57033 -0.133567 0
M  V30 2252 C 214.092 1.96764 0.515326 0
M  V30 2253 C 214.447 1.01653 1.63353 0
M  V30 2254 O 213.74 0.0491374 1.91537 0
M  V30 2255 C 213.934 3.40674 1.08057 0
M  V30 2256 C 213.763 4.49696 0.0186522 0
M  V30 2257 C 212.533 5.03567 -0.418174 0
M  V30 2258 C 214.731 5.08536 -0.767809 0
M  V30 2259 N 212.713 5.9618 -1.46434 0
M  V30 2260 C 214.084 5.97231 -1.6648 0
M  V30 2261 C 216.139 4.9115 -0.817087 0
M  V30 2262 C 214.842 6.70401 -2.60681 0
M  V30 2263 C 216.868 5.65012 -1.74687 0
M  V30 2264 C 216.23 6.53403 -2.63141 0
M  V30 2265 H 212.329 0.765919 0.157771 0
M  V30 2266 H 214.913 1.93395 -0.22506 0
M  V30 2267 H 213.084 3.44662 1.79061 0
M  V30 2268 H 214.816 3.67495 1.69497 0
M  V30 2269 H 211.571 4.73594 -0.0229803 0
M  V30 2270 H 211.995 6.47191 -1.98678 0
M  V30 2271 H 216.637 4.22543 -0.147326 0
M  V30 2272 H 214.355 7.38245 -3.28664 0
M  V30 2273 H 217.941 5.53559 -1.79063 0
M  V30 2274 H 216.821 7.09556 -3.33917 0
M  V30 2275 N 214.325 -0.140222 1.56975 0
M  V30 2276 C 215.272 -1.17292 1.98774 0
M  V30 2277 C 216.242 -1.4232 0.856408 0
M  V30 2278 O 217.427 -1.54541 1.119 0
M  V30 2279 C 214.567 -2.49973 2.37923 0
M  V30 2280 C 213.68 -2.32062 3.64378 0
M  V30 2281 C 212.815 -3.57825 3.926 0
M  V30 2282 C 211.854 -3.3498 5.12303 0
M  V30 2283 N 210.991 -4.52891 5.36502 0
M  V30 2284 H 215.831 -0.809472 2.86795 0
M  V30 2285 H 213.368 -0.388237 1.41884 0
M  V30 2286 H 215.326 -3.27346 2.58652 0
M  V30 2287 H 213.956 -2.84252 1.52972 0
M  V30 2288 H 213.008 -1.45711 3.51387 0
M  V30 2289 H 214.32 -2.11145 4.51906 0
M  V30 2290 H 213.474 -4.43624 4.13863 0
M  V30 2291 H 212.213 -3.81753 3.03506 0
M  V30 2292 H 211.218 -2.4757 4.90906 0
M  V30 2293 H 212.443 -3.12444 6.02956 0
M  V30 2294 H 210.389 -4.76979 4.50363 0
M  V30 2295 H 210.306 -4.35001 6.18312 0
M  V30 2296 H 211.574 -5.39884 5.62268 0
M  V30 2297 N 215.803 -1.52179 -0.40978 0
M  V30 2298 C 216.713 -1.78364 -1.52392 0
M  V30 2299 C 217.729 -0.669183 -1.60617 0
M  V30 2300 O 218.905 -0.954518 -1.77344 0
M  V30 2301 C 215.97 -1.92822 -2.88133 0
M  V30 2302 C 215.031 -3.16725 -2.898 0
M  V30 2303 C 214.264 -3.30483 -4.19067 0
M  V30 2304 O 214.487 -2.49522 -5.12928 0
M  V30 2305 O 213.421 -4.2363 -4.27576 0
M  V30 2306 H 217.247 -2.72931 -1.33201 0
M  V30 2307 H 214.832 -1.37016 -0.59557 0
M  V30 2308 H 216.714 -2.04157 -3.68643 0
M  V30 2309 H 215.389 -1.01444 -3.07393 0
M  V30 2310 H 214.296 -3.10848 -2.08146 0
M  V30 2311 H 215.629 -4.07881 -2.75489 0
M  V30 2312 N 217.281 0.66697 -1.42791 0
M  V30 2313 C 218.509 1.45505 -1.47091 0
M  V30 2314 C 218.924 1.8861 -0.0845873 0
M  V30 2315 O 218.281 1.58632 0.90234 0
M  V30 2316 C 218.332 2.69906 -2.40485 0
M  V30 2317 O 218.053 2.28608 -3.73725 0
M  V30 2318 C 219.554 3.63396 -2.53886 0
M  V30 2319 H 216.774 0.447459 -0.500022 0
M  V30 2320 H 219.318 0.818866 -1.8739 0
M  V30 2321 H 217.473 3.29696 -2.03419 0
M  V30 2322 H 217.887 3.08997 -4.23817 0
M  V30 2323 H 219.361 4.47387 -3.2334 0
M  V30 2324 H 219.838 4.09824 -1.57927 0
M  V30 2325 H 220.444 3.09495 -2.91706 0
M  V30 2326 N 218.759 1.29093 0.90403 0
M  V30 2327 C 220.007 1.16583 1.65085 0
M  V30 2328 C 220.328 -0.283933 1.92922 0
M  V30 2329 O 219.598 -1.19509 1.55224 0
M  V30 2330 H 218.178 0.428467 0.611903 0
M  V30 2331 H 220.84 1.61959 1.08422 0
M  V30 2332 H 219.936 1.71266 2.6091 0
M  V30 2333 N 220.237 -1.11381 1.11499 0
M  V30 2334 C 221.485 -1.8277 0.862524 0
M  V30 2335 C 221.806 -1.85097 -0.613534 0
M  V30 2336 O 221.076 -1.32198 -1.4457 0
M  V30 2337 H 219.656 -0.676823 0.316101 0
M  V30 2338 H 222.318 -1.34816 1.4075 0
M  V30 2339 H 221.414 -2.86614 1.23527 0
M  V30 2340 N 221.715 -0.905404 -1.28997 0
M  V30 2341 C 222.963 -0.533192 -1.9494 0
M  V30 2342 C 223.284 0.924618 -1.71685 0
M  V30 2343 O 222.554 1.65268 -1.05183 0
M  V30 2344 H 221.134 -0.194194 -0.721317 0
M  V30 2345 H 223.796 -1.15294 -1.57141 0
M  V30 2346 H 222.892 -0.72059 -3.03667 0
M  V30 2347 N 223.193 1.4272 -0.668489 0
M  V30 2348 C 224.609 1.55992 -0.33745 0
M  V30 2349 C 224.809 1.64933 1.15756 0
M  V30 2350 O 223.865 1.61278 1.94282 0
M  V30 2351 C 225.178 2.81314 -1.06222 0
M  V30 2352 C 226.726 2.95078 -1.04394 0
M  V30 2353 C 227.201 4.23252 -1.74991 0
M  V30 2354 N 228.692 4.3015 -1.71829 0
M  V30 2355 C 229.427 5.28127 -2.23315 0
M  V30 2356 N 228.923 6.32293 -2.83156 0
M  V30 2357 N 230.716 5.19882 -2.13726 0
M  V30 2358 H 222.867 1.3516 -1.63846 0
M  V30 2359 H 225.13 0.650174 -0.689912 0
M  V30 2360 H 224.836 2.80823 -2.11734 0
M  V30 2361 H 224.71 3.72012 -0.62344 0
M  V30 2362 H 227.097 2.951 0.0028244 0
M  V30 2363 H 227.178 2.05627 -1.52155 0
M  V30 2364 H 226.822 4.2399 -2.79633 0
M  V30 2365 H 226.752 5.11626 -1.24685 0
M  V30 2366 H 229.243 3.55499 -1.28175 0
M  V30 2367 H 229.556 7.03398 -3.20079 0
M  V30 2368 H 227.901 6.32873 -2.87223 0
M  V30 2369 H 231.092 4.37423 -1.66669 0
M  V30 2370 H 231.265 5.96077 -2.54158 0
M  V30 2371 N 224.671 0.411399 1.52136 0
M  V30 2372 C 226.087 0.0623865 1.59478 0
M  V30 2373 C 226.287 -1.42554 1.4241 0
M  V30 2374 O 225.343 -2.19263 1.2522 0
M  V30 2375 C 226.656 0.559331 2.95452 0
M  V30 2376 C 228.204 0.517503 3.08692 0
M  V30 2377 C 228.679 0.990994 4.4715 0
M  V30 2378 N 230.17 0.947908 4.53397 0
M  V30 2379 C 230.905 1.28544 5.58806 0
M  V30 2380 N 230.401 1.69454 6.71757 0
M  V30 2381 N 232.194 1.20526 5.49026 0
M  V30 2382 H 224.345 1.37982 1.61477 0
M  V30 2383 H 226.608 0.566977 0.759764 0
M  V30 2384 H 226.314 1.59938 3.1323 0
M  V30 2385 H 226.188 -0.0298014 3.77188 0
M  V30 2386 H 228.575 -0.513505 2.90598 0
M  V30 2387 H 228.656 1.14272 2.28857 0
M  V30 2388 H 228.3 2.02034 4.65988 0
M  V30 2389 H 228.23 0.34257 5.25485 0
M  V30 2390 H 230.721 0.647157 3.72317 0
M  V30 2391 H 231.034 1.93513 7.48179 0
M  V30 2392 H 229.379 1.73359 6.73032 0
M  V30 2393 H 232.57 0.884505 4.59667 0
M  V30 2394 H 232.743 1.47161 6.31069 0
M  V30 2395 N 226.149 -1.5696 0.141893 0
M  V30 2396 C 227.565 -1.58151 -0.21456 0
M  V30 2397 C 227.765 -1.1559 -1.65049 0
M  V30 2398 O 226.821 -0.853832 -2.37626 0
M  V30 2399 C 228.134 -3.00674 0.0395576 0
M  V30 2400 C 229.682 -3.1299 -0.0245529 0
M  V30 2401 C 230.157 -4.57554 0.202167 0
M  V30 2402 N 231.648 -4.62961 0.148919 0
M  V30 2403 C 232.383 -5.7262 0.298924 0
M  V30 2404 N 231.879 -6.90947 0.50637 0
M  V30 2405 N 233.672 -5.61601 0.236886 0
M  V30 2406 H 225.823 -1.8292 1.07953 0
M  V30 2407 H 228.086 -0.846425 0.42693 0
M  V30 2408 H 227.792 -3.36183 1.03315 0
M  V30 2409 H 227.666 -3.70981 -0.682143 0
M  V30 2410 H 230.053 -2.77326 -1.00869 0
M  V30 2411 H 230.134 -2.4518 0.729396 0
M  V30 2412 H 229.778 -4.93922 1.18338 0
M  V30 2413 H 229.708 -5.23484 -0.572044 0
M  V30 2414 H 232.199 -3.77899 -0.00697015 0
M  V30 2415 H 232.512 -7.7038 0.611076 0
M  V30 2416 H 230.857 -6.92878 0.542628 0
M  V30 2417 H 234.048 -4.68039 0.0756209 0
M  V30 2418 H 234.221 -6.47015 0.357227 0
M  V30 2419 N 227.627 0.131896 -1.57047 0
M  V30 2420 C 228.857 0.855219 -1.88068 0
M  V30 2421 C 229.265 1.74557 -0.729817 0
M  V30 2422 O 228.608 1.81083 0.308962 0
M  V30 2423 C 228.67 1.75119 -3.13964 0
M  V30 2424 C 228.334 1.03646 -4.45091 0
M  V30 2425 C 229.331 0.383276 -5.18485 0
M  V30 2426 C 227.016 1.02148 -4.91804 0
M  V30 2427 C 229.01 -0.275347 -6.36805 0
M  V30 2428 C 226.697 0.359047 -6.10044 0
M  V30 2429 C 227.695 -0.288222 -6.82392 0
M  V30 2430 O 227.383 -0.94011 -7.98384 0
M  V30 2431 H 227.115 0.251864 -0.627328 0
M  V30 2432 H 229.669 0.124782 -2.05021 0
M  V30 2433 H 227.899 2.52295 -2.9306 0
M  V30 2434 H 229.588 2.3478 -3.31109 0
M  V30 2435 H 230.354 0.386562 -4.83457 0
M  V30 2436 H 226.233 1.5147 -4.35405 0
M  V30 2437 H 229.777 -0.781148 -6.93213 0
M  V30 2438 H 225.674 0.35348 -6.44531 0
M  V30 2439 H 226.442 -0.84329 -8.14144 0
M  V30 2440 N 229.106 1.52395 0.401703 0
M  V30 2441 C 230.354 1.66488 1.14569 0
M  V30 2442 C 230.675 0.400897 1.90835 0
M  V30 2443 O 229.945 -0.584415 1.8698 0
M  V30 2444 H 228.525 0.613672 0.425929 0
M  V30 2445 H 231.187 1.89464 0.457093 0
M  V30 2446 H 230.283 2.50942 1.85566 0
M  V30 2447 N 230.584 -0.659388 1.43143 0
M  V30 2448 C 232 -0.974337 1.26407 0
M  V30 2449 C 232.2 -2.007 0.179341 0
M  V30 2450 O 231.256 -2.4856 -0.444295 0
M  V30 2451 C 232.569 -1.46447 2.62628 0
M  V30 2452 C 234.117 -1.58144 2.7011 0
M  V30 2453 C 234.592 -2.1055 4.06734 0
M  V30 2454 N 236.083 -2.17861 4.08767 0
M  V30 2455 C 236.818 -2.59519 5.1131 0
M  V30 2456 N 236.314 -3.00518 6.24228 0
M  V30 2457 N 238.107 -2.59404 4.98664 0
M  V30 2458 H 230.258 0.0240528 2.12386 0
M  V30 2459 H 232.521 -0.0518065 0.946583 0
M  V30 2460 H 232.227 -0.780123 3.42939 0
M  V30 2461 H 232.101 -2.44058 2.87603 0
M  V30 2462 H 234.488 -2.25682 1.90136 0
M  V30 2463 H 234.569 -0.589828 2.48907 0
M  V30 2464 H 234.213 -1.43616 4.87172 0
M  V30 2465 H 234.143 -3.10531 4.25298 0
M  V30 2466 H 236.634 -1.88975 3.27257 0
M  V30 2467 H 236.947 -3.31036 6.98309 0
M  V30 2468 H 235.292 -2.98337 6.2771 0
M  V30 2469 H 238.483 -2.26747 4.09516 0
M  V30 2470 H 238.656 -2.91548 5.78709 0
M  V30 2471 N 232.062 -1.29571 -0.897171 0
M  V30 2472 C 233.025 -1.14913 -1.98312 0
M  V30 2473 C 234.025 -0.0838629 -1.60581 0
M  V30 2474 O 235.215 -0.331006 -1.71026 0
M  V30 2475 C 232.347 -0.757835 -3.3237 0
M  V30 2476 H 233.54 -2.11377 -2.12743 0
M  V30 2477 H 231.093 -1.12793 -1.08201 0
M  V30 2478 H 231.828 0.206837 -3.2364 0
M  V30 2479 H 231.613 -1.52755 -3.61121 0
M  V30 2480 H 233.103 -0.678408 -4.12053 0
M  V30 2481 N 233.54 1.10788 -1.12088 0
M  V30 2482 C 234.956 1.34691 -0.856186 0
M  V30 2483 C 235.156 1.94791 0.515615 0
M  V30 2484 O 234.212 2.18524 1.26505 0
M  V30 2485 C 235.525 2.27208 -1.9697 0
M  V30 2486 C 237.073 2.40755 -2.00016 0
M  V30 2487 C 237.548 3.36598 -3.1059 0
M  V30 2488 N 239.039 3.44164 -3.10008 0
M  V30 2489 C 239.774 4.18284 -3.92206 0
M  V30 2490 N 239.27 4.95322 -4.84384 0
M  V30 2491 N 241.063 4.13865 -3.80357 0
M  V30 2492 H 233.214 0.70144 -2.00483 0
M  V30 2493 H 235.477 0.371405 -0.872217 0
M  V30 2494 H 235.183 1.90251 -2.958 0
M  V30 2495 H 235.057 3.27485 -1.87172 0
M  V30 2496 H 237.444 2.76982 -1.01808 0
M  V30 2497 H 237.525 1.40305 -2.13888 0
M  V30 2498 H 237.169 3.01096 -4.09028 0
M  V30 2499 H 237.099 4.36918 -2.93956 0
M  V30 2500 H 239.59 2.8922 -2.43228 0
M  V30 2501 H 239.903 5.49267 -5.43623 0
M  V30 2502 H 238.248 4.94459 -4.884 0
M  V30 2503 H 241.439 3.52773 -3.07683 0
M  V30 2504 H 241.612 4.71372 -4.44649 0
M  V30 2505 N 235.018 0.912232 1.28515 0
M  V30 2506 C 236.243 0.559774 1.99703 0
M  V30 2507 C 236.668 -0.851393 1.67729 0
M  V30 2508 O 236.026 -1.56875 0.908834 0
M  V30 2509 C 236.074 0.773874 3.52198 0
M  V30 2510 O 235.178 -0.167842 4.12058 0
M  V30 2511 H 234.519 0.21723 0.627461 0
M  V30 2512 H 237.049 1.22725 1.63706 0
M  V30 2513 H 237.059 0.683386 4.02236 0
M  V30 2514 H 235.734 1.80261 3.74805 0
M  V30 2515 H 234.311 -0.0287509 3.72889 0
M  V30 2516 N 236.496 -1.42363 0.676048 0
M  V30 2517 C 237.443 -2.308 -0.00150904 0
M  V30 2518 C 238.413 -1.46032 -0.791444 0
M  V30 2519 O 239.598 -1.74861 -0.76344 0
M  V30 2520 C 236.738 -3.31883 -0.945919 0
M  V30 2521 C 235.851 -4.31741 -0.149675 0
M  V30 2522 C 234.986 -5.19898 -1.08995 0
M  V30 2523 C 234.025 -6.11434 -0.285465 0
M  V30 2524 N 233.162 -6.92138 -1.17851 0
M  V30 2525 H 238.002 -2.88187 0.758455 0
M  V30 2526 H 235.539 -1.41952 0.38576 0
M  V30 2527 H 237.497 -3.89019 -1.50731 0
M  V30 2528 H 236.127 -2.76093 -1.6725 0
M  V30 2529 H 235.179 -3.76713 0.528359 0
M  V30 2530 H 236.491 -4.96534 0.474866 0
M  V30 2531 H 235.645 -5.81772 -1.72123 0
M  V30 2532 H 234.384 -4.55284 -1.74837 0
M  V30 2533 H 233.389 -5.48627 0.359018 0
M  V30 2534 H 234.614 -6.78097 0.368883 0
M  V30 2535 H 232.56 -6.30152 -1.82332 0
M  V30 2536 H 232.477 -7.53542 -0.609082 0
M  V30 2537 H 233.745 -7.58499 -1.79722 0
M  V30 2538 N 237.974 -0.419461 -1.51915 0
M  V30 2539 C 239.222 0.152637 -2.01523 0
M  V30 2540 C 239.543 1.44762 -1.30649 0
M  V30 2541 O 238.813 1.90997 -0.435535 0
M  V30 2542 H 237.393 0.0593966 -0.744635 0
M  V30 2543 H 240.055 -0.558073 -1.86739 0
M  V30 2544 H 239.151 0.341369 -3.10227 0
M  V30 2545 N 239.452 1.56882 -0.150215 0
M  V30 2546 C 240.699 1.96228 0.500093 0
M  V30 2547 C 241.027 1.03522 1.64661 0
M  V30 2548 O 240.282 0.0650683 1.95592 0
M  V30 2549 C 240.581 3.41801 1.04437 0
M  V30 2550 C 240.247 4.50897 0.0159671 0
M  V30 2551 C 238.909 4.8046 -0.266731 0
M  V30 2552 C 241.261 5.16703 -0.683192 0
M  V30 2553 C 238.589 5.73135 -1.25434 0
M  V30 2554 C 240.941 6.10441 -1.65964 0
M  V30 2555 C 239.605 6.38382 -1.95 0
M  V30 2556 H 238.875 0.718048 0.182997 0
M  V30 2557 H 241.522 1.90019 -0.237724 0
M  V30 2558 H 239.827 3.44857 1.85959 0
M  V30 2559 H 241.524 3.69573 1.55618 0
M  V30 2560 H 238.114 4.27891 0.246485 0
M  V30 2561 H 242.298 4.93993 -0.477983 0
M  V30 2562 H 237.554 5.93074 -1.48571 0
M  V30 2563 H 241.728 6.60507 -2.20689 0
M  V30 2564 H 239.355 7.09996 -2.71679 0
M  V30 2565 N 240.93 -0.123565 1.57115 0
M  V30 2566 C 241.878 -1.17082 2.00984 0
M  V30 2567 C 242.872 -1.43136 0.906009 0
M  V30 2568 O 244.078 -1.43152 1.09121 0
M  V30 2569 H 240.453 -0.394653 0.64012 0
M  V30 2570 H 242.424 -0.774292 2.88179 0
M  V30 2571 C 241.173 -2.49057 2.42623 0
M  V30 2572 H 240.496 -2.29846 3.27125 0
M  V30 2573 H 241.936 -3.20906 2.7712 0
M  V30 2574 C 240.395 -3.11305 1.28805 0
M  V30 2575 O 240.925 -3.97171 0.60153 0
M  V30 2576 N 239.131 -2.71111 1.04628 0
M  V30 2577 H 238.678 -2.01382 1.60634 0
M  V30 2578 H 238.636 -3.1309 0.286685 0
M  V30 2579 N 242.408 -1.52605 -0.393616 0
M  V30 2580 C 243.371 -1.76415 -1.46323 0
M  V30 2581 C 244.371 -0.634126 -1.47768 0
M  V30 2582 O 245.561 -0.902142 -1.4902 0
M  V30 2583 C 242.693 -1.8607 -2.85641 0
M  V30 2584 H 243.886 -2.71916 -1.26498 0
M  V30 2585 H 241.439 -1.43257 -0.625073 0
M  V30 2586 H 242.174 -0.925378 -3.10817 0
M  V30 2587 H 241.959 -2.68235 -2.85993 0
M  V30 2588 H 243.449 -2.06179 -3.63153 0
M  V30 2589 N 243.887 0.651787 -1.4349 0
M  V30 2590 C 244.835 1.78586 -1.49029 0
M  V30 2591 C 245.829 1.65448 -0.363767 0
M  V30 2592 O 247.035 1.71777 -0.537821 0
M  V30 2593 H 243.41 0.589236 -0.467231 0
M  V30 2594 H 245.381 1.71035 -2.44519 0
M  V30 2595 C 244.13 3.16851 -1.43181 0
M  V30 2596 H 243.453 3.27598 -2.29171 0
M  V30 2597 H 244.893 3.96156 -1.51118 0
M  V30 2598 C 243.352 3.36568 -0.149616 0
M  V30 2599 O 243.882 3.93885 0.788509 0
M  V30 2600 N 242.088 2.90539 -0.0593484 0
M  V30 2601 H 241.635 2.4408 -0.823575 0
M  V30 2602 H 241.593 3.04108 0.797853 0
M  V30 2603 N 245.365 1.30045 0.890287 0
M  V30 2604 C 246.781 1.08261 1.17268 0
M  V30 2605 C 246.981 -0.160063 2.00863 0
M  V30 2606 O 246.037 -0.855181 2.37577 0
M  V30 2607 C 247.35 2.34323 1.8845 0
M  V30 2608 C 248.898 2.39735 2.01237 0
M  V30 2609 C 249.373 3.65625 2.7583 0
M  V30 2610 N 250.864 3.66402 2.83379 0
M  V30 2611 C 251.599 4.60498 3.41657 0
M  V30 2612 N 251.095 5.64933 4.01026 0
M  V30 2613 N 252.888 4.48051 3.39421 0
M  V30 2614 H 245.039 2.09777 0.332762 0
M  V30 2615 H 247.302 0.92446 0.209948 0
M  V30 2616 H 247.008 3.2498 1.34465 0
M  V30 2617 H 246.882 2.4256 2.88867 0
M  V30 2618 H 249.269 1.4956 2.54393 0
M  V30 2619 H 249.35 2.35476 0.999232 0
M  V30 2620 H 248.994 4.56156 2.23347 0
M  V30 2621 H 248.924 3.67144 3.77509 0
M  V30 2622 H 251.415 2.90896 2.41222 0
M  V30 2623 H 251.728 6.32841 4.43545 0
M  V30 2624 H 250.073 5.68732 3.99461 0
M  V30 2625 H 253.264 3.65649 2.92264 0
M  V30 2626 H 253.437 5.21565 3.84544 0
M  V30 2627 N 246.843 -1.10192 1.12674 0
M  V30 2628 C 248.259 -1.34235 0.863317 0
M  V30 2629 C 248.459 -1.95062 -0.505277 0
M  V30 2630 O 247.515 -2.19192 -1.25345 0
M  V30 2631 C 248.828 -2.2616 1.98172 0
M  V30 2632 C 250.376 -2.3969 2.0129 0
M  V30 2633 C 250.851 -3.34946 3.1237 0
M  V30 2634 N 252.342 -3.42515 3.11829 0
M  V30 2635 C 253.077 -4.16199 3.94419 0
M  V30 2636 N 252.573 -4.92747 4.87004 0
M  V30 2637 N 254.366 -4.11843 3.82547 0
M  V30 2638 H 246.517 -0.690798 2.00853 0
M  V30 2639 H 248.78 -0.366774 0.874174 0
M  V30 2640 H 248.486 -1.8868 2.96804 0
M  V30 2641 H 248.36 -3.26488 1.88906 0
M  V30 2642 H 250.747 -2.76438 1.03276 0
M  V30 2643 H 250.828 -1.39169 2.14629 0
M  V30 2644 H 250.472 -2.98923 4.10619 0
M  V30 2645 H 250.402 -4.35353 2.96269 0
M  V30 2646 H 252.893 -2.87926 2.44759 0
M  V30 2647 H 253.206 -5.46376 5.46528 0
M  V30 2648 H 251.551 -4.91862 4.91016 0
M  V30 2649 H 254.742 -3.51136 3.0955 0
M  V30 2650 H 254.915 -4.69007 4.47142 0
M  V30 2651 N 248.321 -0.919034 -1.28029 0
M  V30 2652 C 249.737 -0.617972 -1.4715 0
M  V30 2653 C 249.937 0.835242 -1.83374 0
M  V30 2654 O 248.993 1.61388 -1.94191 0
M  V30 2655 C 250.306 -1.56041 -2.57044 0
M  V30 2656 C 251.854 -1.56769 -2.7091 0
M  V30 2657 C 252.329 -2.49688 -3.83953 0
M  V30 2658 N 253.82 -2.47845 -3.91314 0
M  V30 2659 C 254.555 -3.16437 -4.78179 0
M  V30 2660 N 254.051 -3.94376 -5.69596 0
M  V30 2661 N 255.844 -3.05498 -4.71834 0
M  V30 2662 H 247.995 -1.85866 -1.02798 0
M  V30 2663 H 250.258 -0.797506 -0.512531 0
M  V30 2664 H 249.964 -2.59671 -2.372 0
M  V30 2665 H 249.838 -1.29551 -3.54255 0
M  V30 2666 H 252.225 -0.538745 -2.90141 0
M  V30 2667 H 252.306 -1.87305 -1.74214 0
M  V30 2668 H 251.95 -3.52688 -3.65477 0
M  V30 2669 H 251.88 -2.16453 -4.80058 0
M  V30 2670 H 254.371 -1.91234 -3.25941 0
M  V30 2671 H 254.684 -4.43721 -6.32718 0
M  V30 2672 H 253.029 -3.98481 -5.69419 0
M  V30 2673 H 256.22 -2.44108 -3.99411 0
M  V30 2674 H 256.393 -3.59225 -5.39316 0
M  V30 2675 N 249.799 1.42003 -0.683588 0
M  V30 2676 C 251.024 2.06265 -0.216647 0
M  V30 2677 C 251.449 1.51059 1.12083 0
M  V30 2678 O 250.807 0.632638 1.69904 0
M  V30 2679 C 250.855 3.60191 -0.171759 0
M  V30 2680 O 249.959 4.03396 0.857069 0
M  V30 2681 H 249.3 0.65502 -0.108834 0
M  V30 2682 H 251.83 1.81982 -0.935077 0
M  V30 2683 H 251.84 4.08 0.0014303 0
M  V30 2684 H 250.515 3.99743 -1.14796 0
M  V30 2685 H 249.092 3.67117 0.654208 0
M  V30 2686 N 251.277 0.427512 1.51691 0
M  V30 2687 C 252.693 0.0792977 1.59403 0
M  V30 2688 C 252.893 -1.41035 1.43914 0
M  V30 2689 O 251.949 -2.17922 1.27539 0
M  V30 2690 C 253.262 0.590636 2.94842 0
M  V30 2691 C 254.81 0.550215 3.08126 0
M  V30 2692 C 255.285 1.03836 4.46074 0
M  V30 2693 N 256.776 0.995943 4.52366 0
M  V30 2694 C 257.511 1.34463 5.57411 0
M  V30 2695 N 257.007 1.76569 6.69922 0
M  V30 2696 N 258.8 1.26343 5.47717 0
M  V30 2697 H 250.951 1.39687 1.60004 0
M  V30 2698 H 253.214 0.575003 0.753708 0
M  V30 2699 H 252.92 1.63251 3.11516 0
M  V30 2700 H 252.794 0.0102061 3.77199 0
M  V30 2701 H 255.181 -0.482654 2.91126 0
M  V30 2702 H 255.262 1.16693 2.27632 0
M  V30 2703 H 254.906 2.06965 4.63819 0
M  V30 2704 H 254.836 0.398286 5.25092 0
M  V30 2705 H 257.327 0.68661 3.7161 0
M  V30 2706 H 257.64 2.01438 7.46085 0
M  V30 2707 H 255.985 1.80488 6.71155 0
M  V30 2708 H 259.176 0.933209 4.58703 0
M  V30 2709 H 259.349 1.53846 6.29472 0
M  V30 2710 N 252.755 -1.56801 0.158532 0
M  V30 2711 C 253.718 -2.16138 -0.762705 0
M  V30 2712 C 254.718 -1.1061 -1.16713 0
M  V30 2713 O 255.908 -1.36191 -1.08617 0
M  V30 2714 C 253.04 -2.73386 -2.03649 0
M  V30 2715 H 254.233 -2.98886 -0.246354 0
M  V30 2716 H 251.786 -1.56035 -0.0909744 0
M  V30 2717 H 252.521 -1.94335 -2.59623 0
M  V30 2718 H 252.306 -3.50601 -1.75559 0
M  V30 2719 H 253.796 -3.19065 -2.6942 0
M  V30 2720 N 254.233 0.115231 -1.57178 0
M  V30 2721 C 255.479 0.82357 -1.85325 0
M  V30 2722 C 255.812 1.79349 -0.744814 0
M  V30 2723 O 255.087 1.92899 0.249024 0
M  V30 2724 C 255.37 1.57014 -3.24066 0
M  V30 2725 C 255.223 0.619565 -4.45513 0
M  V30 2726 C 256.542 2.52545 -3.60429 0
M  V30 2727 H 253.661 0.297948 -0.674089 0
M  V30 2728 H 256.303 0.0877138 -1.89797 0
M  V30 2729 H 254.453 2.19742 -3.20383 0
M  V30 2730 H 256.125 0.000837639 -4.613 0
M  V30 2731 H 254.368 -0.0686174 -4.33746 0
M  V30 2732 H 255.039 1.17866 -5.3927 0
M  V30 2733 H 257.515 1.9992 -3.64926 0
M  V30 2734 H 256.391 3.01811 -4.58477 0
M  V30 2735 H 256.652 3.35383 -2.88047 0
M  V30 2736 N 255.711 1.52812 0.385517 0
M  V30 2737 C 256.641 1.80808 1.47752 0
M  V30 2738 C 257.622 0.660318 1.5676 0
M  V30 2739 O 258.807 0.908246 1.71652 0
M  V30 2740 C 255.937 1.98008 2.85324 0
M  V30 2741 C 254.891 3.13709 2.91154 0
M  V30 2742 C 254.217 3.16169 4.31209 0
M  V30 2743 C 255.517 4.52709 2.60483 0
M  V30 2744 H 257.211 2.72253 1.24573 0
M  V30 2745 H 254.757 1.31003 0.597839 0
M  V30 2746 H 256.71 2.16176 3.61726 0
M  V30 2747 H 255.434 1.03255 3.09848 0
M  V30 2748 H 254.093 2.95329 2.17201 0
M  V30 2749 H 253.741 2.19092 4.52778 0
M  V30 2750 H 253.441 3.93894 4.36029 0
M  V30 2751 H 254.965 3.36496 5.09512 0
M  V30 2752 H 256.379 4.71173 3.26602 0
M  V30 2753 H 254.776 5.32528 2.76648 0
M  V30 2754 H 255.846 4.59186 1.55809 0
M  V30 2755 N 257.189 -0.644168 1.43834 0
M  V30 2756 C 258.419 -1.42939 1.49171 0
M  V30 2757 C 258.827 -1.88874 0.111048 0
M  V30 2758 O 258.17 -1.60656 -0.8908 0
M  V30 2759 C 258.232 -2.69151 2.38324 0
M  V30 2760 C 257.896 -2.45097 3.85715 0
M  V30 2761 C 258.893 -2.07747 4.76589 0
M  V30 2762 C 256.578 -2.59141 4.30292 0
M  V30 2763 C 258.572 -1.8475 6.10038 0
M  V30 2764 C 256.259 -2.35759 5.63792 0
M  V30 2765 C 257.257 -1.9862 6.53482 0
M  V30 2766 O 256.945 -1.75489 7.84512 0
M  V30 2767 H 256.677 -0.445271 0.508635 0
M  V30 2768 H 259.231 -0.79621 1.8934 0
M  V30 2769 H 257.461 -3.3506 1.93058 0
M  V30 2770 H 259.15 -3.31123 2.3476 0
M  V30 2771 H 259.916 -1.96465 4.43426 0
M  V30 2772 H 255.795 -2.87022 3.60749 0
M  V30 2773 H 259.339 -1.55686 6.80006 0
M  V30 2774 H 255.236 -2.46646 5.9652 0
M  V30 2775 H 256.004 -1.89841 7.9618 0
M  V30 2776 N 258.668 -1.30515 -0.883378 0
M  V30 2777 C 259.618 -1.13641 -1.9766 0
M  V30 2778 C 260.602 -0.0511314 -1.60819 0
M  V30 2779 O 261.794 -0.274623 -1.74857 0
M  V30 2780 C 258.923 -0.831976 -3.33066 0
M  V30 2781 C 258.009 -1.95759 -3.76217 0
M  V30 2782 N 258.4 -3.20313 -3.9145 0
M  V30 2783 C 256.698 -1.85431 -4.05625 0
M  V30 2784 C 257.399 -3.93856 -4.2808 0
M  V30 2785 N 256.375 -3.21919 -4.38029 0
M  V30 2786 H 260.177 -2.08106 -2.07531 0
M  V30 2787 H 257.691 -1.21877 -1.0733 0
M  V30 2788 H 259.688 -0.692102 -4.11115 0
M  V30 2789 H 258.348 0.104588 -3.24532 0
M  V30 2790 H 259.359 -3.55583 -3.76538 0
M  V30 2791 H 256.036 -0.991531 -4.05555 0
M  V30 2792 H 257.426 -5.01125 -4.47575 0
M  V30 2793 N 260.146 1.09593 -1.13257 0
M  V30 2794 C 261.076 2.18214 -0.830946 0
M  V30 2795 C 262.057 1.68812 0.208966 0
M  V30 2796 O 263.242 1.9408 0.0682666 0
M  V30 2797 C 260.372 3.46051 -0.294296 0
M  V30 2798 C 259.326 4.08778 -1.26826 0
M  V30 2799 C 258.652 5.31419 -0.591449 0
M  V30 2800 C 259.952 4.51476 -2.62615 0
M  V30 2801 H 261.646 2.43703 -1.73923 0
M  V30 2802 H 259.192 1.17128 -0.837675 0
M  V30 2803 H 261.145 4.2134 -0.0709606 0
M  V30 2804 H 259.869 3.20079 0.649366 0
M  V30 2805 H 258.528 3.35505 -1.47756 0
M  V30 2806 H 258.176 5.01727 0.357633 0
M  V30 2807 H 257.876 5.74341 -1.24123 0
M  V30 2808 H 259.4 6.09433 -0.377355 0
M  V30 2809 H 260.814 5.17999 -2.45663 0
M  V30 2810 H 259.211 5.05277 -3.23752 0
M  V30 2811 H 260.281 3.63962 -3.20406 0
M  V30 2812 N 261.624 0.925811 1.2754 0
M  V30 2813 C 262.849 0.580924 1.99098 0
M  V30 2814 C 263.274 -0.833555 1.68622 0
M  V30 2815 O 262.632 -1.55903 0.925422 0
M  V30 2816 C 262.68 0.811186 3.51358 0
M  V30 2817 O 261.784 -0.124129 4.12213 0
M  V30 2818 H 261.125 0.223873 0.625122 0
M  V30 2819 H 263.655 1.24455 1.62395 0
M  V30 2820 H 263.665 0.72601 4.01489 0
M  V30 2821 H 262.34 1.84227 3.72872 0
M  V30 2822 H 260.917 0.0108006 3.72898 0
M  V30 2823 N 263.102 -1.41638 0.69111 0
M  V30 2824 C 264.35 -2.00902 0.219758 0
M  V30 2825 C 264.671 -1.54994 -1.18329 0
M  V30 2826 O 263.941 -0.778628 -1.79762 0
M  V30 2827 H 262.521 -0.74289 0.0782558 0
M  V30 2828 H 265.183 -1.73327 0.891271 0
M  V30 2829 H 264.279 -3.11224 0.233708 0
M  V30 2830 N 264.58 -0.43555 -1.51462 0
M  V30 2831 C 265.53 0.394701 -2.24558 0
M  V30 2832 C 266.514 0.99157 -1.26715 0
M  V30 2833 O 267.706 0.910007 -1.51815 0
M  V30 2834 C 264.835 1.4963 -3.08975 0
M  V30 2835 C 263.921 0.908912 -4.14246 0
M  V30 2836 N 264.312 0.0505335 -5.05775 0
M  V30 2837 C 262.61 1.17668 -4.30198 0
M  V30 2838 C 263.311 -0.279161 -5.8103 0
M  V30 2839 N 262.287 0.336767 -5.42556 0
M  V30 2840 H 266.089 -0.267106 -2.92684 0
M  V30 2841 H 263.603 -0.247518 -1.60503 0
M  V30 2842 H 265.6 2.10394 -3.59917 0
M  V30 2843 H 264.26 2.16046 -2.42393 0
M  V30 2844 H 265.271 -0.31577 -5.16936 0
M  V30 2845 H 261.948 1.83847 -3.74842 0
M  V30 2846 H 263.338 -0.977553 -6.64751 0
M  V30 2847 N 266.058 1.56714 -0.166846 0
M  V30 2848 C 266.988 2.20754 0.760913 0
M  V30 2849 C 267.969 1.16178 1.24244 0
M  V30 2850 O 269.154 1.44592 1.29641 0
M  V30 2851 C 266.284 2.84478 1.99223 0
M  V30 2852 C 265.238 3.95053 1.64672 0
M  V30 2853 C 264.564 4.45805 2.95232 0
M  V30 2854 C 265.864 5.14865 0.878155 0
M  V30 2855 H 267.558 2.98537 0.22713 0
M  V30 2856 H 265.104 1.43596 0.107805 0
M  V30 2857 H 267.057 3.27951 2.64624 0
M  V30 2858 H 265.781 2.04056 2.55007 0
M  V30 2859 H 264.44 3.52228 1.01641 0
M  V30 2860 H 264.088 3.62181 3.49047 0
M  V30 2861 H 263.788 5.204 2.7287 0
M  V30 2862 H 265.312 4.91962 3.6167 0
M  V30 2863 H 266.726 5.55059 1.43466 0
M  V30 2864 H 265.123 5.95348 0.753738 0
M  V30 2865 H 266.193 4.84735 -0.126377 0
M  V30 2866 N 267.536 -0.106894 1.57237 0
M  V30 2867 C 268.468 -1.15646 1.97885 0
M  V30 2868 C 269.481 -1.36981 0.879779 0
M  V30 2869 O 270.67 -1.35841 1.15799 0
M  V30 2870 C 267.77 -2.51425 2.27241 0
M  V30 2871 C 266.943 -2.50529 3.58545 0
M  V30 2872 C 266.002 -3.68145 3.75973 0
M  V30 2873 O 265.028 -3.51176 4.47956 0
M  V30 2874 N 266.23 -4.87177 3.15656 0
M  V30 2875 H 268.995 -0.81059 2.8853 0
M  V30 2876 H 266.556 -0.296024 1.59171 0
M  V30 2877 H 268.548 -3.28689 2.36105 0
M  V30 2878 H 267.118 -2.78147 1.42663 0
M  V30 2879 H 266.338 -1.58894 3.60758 0
M  V30 2880 H 267.626 -2.46997 4.44826 0
M  V30 2881 H 267.024 -5.03868 2.57165 0
M  V30 2882 H 265.581 -5.62075 3.30023 0
M  V30 2883 N 269.014 -1.53014 -0.377408 0
M  V30 2884 C 269.961 -1.78616 -1.46168 0
M  V30 2885 C 270.931 -0.629917 -1.53692 0
M  V30 2886 O 272.116 -0.870861 -1.69766 0
M  V30 2887 C 269.256 -1.97123 -2.8326 0
M  V30 2888 C 268.369 -3.24831 -2.84796 0
M  V30 2889 C 267.504 -3.33591 -4.13389 0
M  V30 2890 C 266.543 -4.55377 -4.09021 0
M  V30 2891 N 265.68 -4.61355 -5.29241 0
M  V30 2892 H 270.52 -2.71142 -1.23637 0
M  V30 2893 H 268.057 -1.34326 -0.599577 0
M  V30 2894 H 270.015 -2.05839 -3.62886 0
M  V30 2895 H 268.645 -1.07946 -3.04216 0
M  V30 2896 H 267.697 -3.25128 -1.97474 0
M  V30 2897 H 269.009 -4.14523 -2.77439 0
M  V30 2898 H 268.163 -3.41554 -5.01424 0
M  V30 2899 H 266.902 -2.41894 -4.23484 0
M  V30 2900 H 265.907 -4.47527 -3.19373 0
M  V30 2901 H 267.132 -5.48402 -4.00539 0
M  V30 2902 H 265.078 -3.72554 -5.39944 0
M  V30 2903 H 264.995 -5.44935 -5.24006 0
M  V30 2904 H 266.263 -4.73586 -6.19141 0
M  V30 2905 N 270.492 0.636531 -1.44174 0
M  V30 2906 C 271.424 1.7618 -1.46606 0
M  V30 2907 C 272.437 1.58768 -0.360091 0
M  V30 2908 O 273.626 1.67181 -0.625518 0
M  V30 2909 C 270.726 3.13833 -1.27915 0
M  V30 2910 C 269.899 3.57753 -2.51658 0
M  V30 2911 C 268.958 4.74265 -2.27945 0
M  V30 2912 O 267.984 4.82852 -3.01401 0
M  V30 2913 N 269.186 5.65604 -1.30662 0
M  V30 2914 H 271.951 1.74567 -2.43612 0
M  V30 2915 H 269.512 0.820924 -1.39544 0
M  V30 2916 H 271.504 3.8949 -1.09907 0
M  V30 2917 H 270.074 3.10121 -0.39293 0
M  V30 2918 H 269.294 2.72362 -2.84978 0
M  V30 2919 H 270.582 3.83847 -3.33974 0
M  V30 2920 H 269.98 5.61354 -0.699844 0
M  V30 2921 H 268.537 6.40913 -1.18634 0
M  V30 2922 N 271.97 1.30982 0.876444 0
M  V30 2923 C 273.381 1.18277 1.44456 0
M  V30 2924 C 273.732 -0.213265 1.95037 0
M  V30 2925 O 272.857 -1.11057 1.85729 0
M  V30 2926 C 273.452 2.1411 2.62569 0
M  V30 2927 C 272.011 2.05358 3.15444 0
M  V30 2928 C 271.158 2.03706 1.88146 0
M  V30 2929 H 274.109 1.43127 0.685584 0
M  V30 2930 H 274.13 1.72692 3.39054 0
M  V30 2931 H 273.642 3.15706 2.25724 0
M  V30 2932 H 271.743 1.06934 3.56926 0
M  V30 2933 H 271.856 2.94156 3.78166 0
M  V30 2934 H 270.22 1.48629 2.06837 0
M  V30 2935 H 271.003 3.07047 1.53547 0
M  V30 2936 N 273.449 -1.08991 1.13837 0
M  V30 2937 C 274.396 -2.15748 0.819835 0
M  V30 2938 C 275.366 -1.64636 -0.220026 0
M  V30 2939 O 276.551 -1.90582 -0.0912757 0
M  V30 2940 C 273.691 -3.4382 0.296913 0
M  V30 2941 C 272.804 -4.0881 1.39636 0
M  V30 2942 C 271.939 -5.24655 0.831314 0
M  V30 2943 C 270.978 -5.81575 1.90886 0
M  V30 2944 N 270.115 -6.88774 1.36142 0
M  V30 2945 H 274.955 -2.42338 1.73426 0
M  V30 2946 H 272.492 -1.18935 0.865613 0
M  V30 2947 H 274.45 -4.17193 -0.0244339 0
M  V30 2948 H 273.08 -3.17535 -0.580628 0
M  V30 2949 H 272.132 -3.33258 1.83422 0
M  V30 2950 H 273.444 -4.47141 2.21058 0
M  V30 2951 H 272.598 -6.04942 0.461515 0
M  V30 2952 H 271.337 -4.87698 -0.013932 0
M  V30 2953 H 270.342 -4.99946 2.28767 0
M  V30 2954 H 271.567 -6.20592 2.75758 0
M  V30 2955 H 269.513 -6.53788 0.538254 0
M  V30 2956 H 269.43 -7.25898 2.11208 0
M  V30 2957 H 270.698 -7.72806 1.01933 0
M  V30 2958 N 274.927 -0.932562 -1.27047 0
M  V30 2959 C 276.175 -0.574422 -1.93765 0
M  V30 2960 C 276.496 0.887993 -1.73608 0
M  V30 2961 O 275.766 1.62999 -1.08665 0
M  V30 2962 H 274.346 -0.209451 -0.717035 0
M  V30 2963 H 277.008 -1.18601 -1.5466 0
M  V30 2964 H 276.104 -0.784841 -3.02071 0
M  V30 2965 N 276.405 1.4127 -0.698611 0
M  V30 2966 C 277.352 2.30773 -0.0352094 0
M  V30 2967 C 278.322 1.47273 0.768111 0
M  V30 2968 O 279.507 1.76053 0.735524 0
M  V30 2969 C 276.647 3.33346 0.893 0
M  V30 2970 C 275.76 4.31924 0.0809695 0
M  V30 2971 C 274.895 5.21566 1.0071 0
M  V30 2972 C 273.934 6.11811 0.188155 0
M  V30 2973 N 273.071 6.93926 1.06825 0
M  V30 2974 H 277.911 2.86943 -0.804207 0
M  V30 2975 H 275.448 1.4132 -0.408294 0
M  V30 2976 H 277.406 3.91368 1.44523 0
M  V30 2977 H 276.036 2.78719 1.62836 0
M  V30 2978 H 275.088 3.75825 -0.588224 0
M  V30 2979 H 276.4 4.95716 -0.553801 0
M  V30 2980 H 275.554 5.84437 1.62845 0
M  V30 2981 H 274.293 4.58008 1.67572 0
M  V30 2982 H 273.298 5.47986 -0.446254 0
M  V30 2983 H 274.523 6.77425 -0.476716 0
M  V30 2984 H 272.469 6.32973 1.72283 0
M  V30 2985 H 272.386 7.54416 0.489123 0
M  V30 2986 H 273.654 7.61262 1.67632 0
M  V30 2987 N 277.883 0.443576 1.51229 0
M  V30 2988 C 278.833 -0.382787 2.24764 0
M  V30 2989 C 279.817 -0.984836 1.27239 0
M  V30 2990 O 281.009 -0.901943 1.52296 0
M  V30 2991 C 278.138 -1.47989 3.09765 0
M  V30 2992 C 277.224 -0.886931 4.14722 0
M  V30 2993 N 277.615 -0.0237103 5.05794 0
M  V30 2994 C 275.913 -1.15385 4.30816 0
M  V30 2995 C 276.614 0.309971 5.80874 0
M  V30 2996 N 275.59 -0.307989 5.42727 0
M  V30 2997 H 279.392 0.282624 2.92538 0
M  V30 2998 H 276.906 0.256027 1.60369 0
M  V30 2999 H 278.903 -2.08482 3.61027 0
M  V30 3000 H 277.563 -2.14758 2.43535 0
M  V30 3001 H 278.574 0.34318 5.16762 0
M  V30 3002 H 275.251 -1.81857 3.75812 0
M  V30 3003 H 276.641 1.01279 6.64223 0
M  V30 3004 N 279.361 -1.56624 0.175154 0
M  V30 3005 C 280.308 -2.18149 -0.753634 0
M  V30 3006 C 281.278 -1.12265 -1.22417 0
M  V30 3007 O 282.463 -1.40432 -1.29165 0
M  V30 3008 C 279.603 -2.82933 -1.97592 0
M  V30 3009 C 278.716 -4.03289 -1.5486 0
M  V30 3010 C 277.851 -4.55988 -2.72485 0
M  V30 3011 C 276.89 -5.68746 -2.26262 0
M  V30 3012 N 276.027 -6.15938 -3.36994 0
M  V30 3013 H 280.867 -2.9717 -0.222195 0
M  V30 3014 H 278.404 -1.46774 -0.0979422 0
M  V30 3015 H 280.362 -3.18653 -2.69288 0
M  V30 3016 H 278.992 -2.06509 -2.481 0
M  V30 3017 H 278.044 -3.73364 -0.728246 0
M  V30 3018 H 279.356 -4.849 -1.16933 0
M  V30 3019 H 278.51 -4.9391 -3.52332 0
M  V30 3020 H 277.249 -3.73443 -3.13674 0
M  V30 3021 H 276.254 -5.30372 -1.44863 0
M  V30 3022 H 277.479 -6.53095 -1.86127 0
M  V30 3023 H 275.425 -5.36321 -3.77751 0
M  V30 3024 H 275.342 -6.92548 -3.03172 0
M  V30 3025 H 276.61 -6.58511 -4.17114 0
M  V30 3026 N 280.839 0.0985539 -1.57292 0
M  V30 3027 C 281.769 1.12064 -2.04851 0
M  V30 3028 C 282.75 1.41981 -0.936767 0
M  V30 3029 O 283.935 1.52071 -1.20781 0
M  V30 3030 C 281.065 2.44144 -2.47004 0
M  V30 3031 C 280.019 2.28643 -3.6181 0
M  V30 3032 C 279.345 3.65869 -3.89929 0
M  V30 3033 C 280.645 1.72986 -4.92822 0
M  V30 3034 H 282.339 0.724979 -2.9049 0
M  V30 3035 H 279.885 0.34729 -1.39749 0
M  V30 3036 H 281.838 3.15914 -2.78884 0
M  V30 3037 H 280.562 2.85639 -1.5836 0
M  V30 3038 H 279.221 1.59318 -3.30172 0
M  V30 3039 H 278.869 4.04885 -2.98458 0
M  V30 3040 H 278.569 3.56344 -4.67218 0
M  V30 3041 H 280.093 4.39112 -4.2428 0
M  V30 3042 H 281.507 2.34593 -5.23105 0
M  V30 3043 H 279.904 1.74229 -5.74251 0
M  V30 3044 H 280.974 0.689007 -4.7998 0
M  V30 3045 N 282.317 1.53212 0.369288 0
M  V30 3046 C 283.265 1.80054 1.47253 0
M  V30 3047 C 284.259 0.669456 1.55611 0
M  V30 3048 O 285.465 0.852328 1.58541 0
M  V30 3049 H 281.84 0.570034 0.490475 0
M  V30 3050 H 283.811 2.72403 1.21817 0
M  V30 3051 C 282.56 2.00403 2.84137 0
M  V30 3052 H 281.883 2.86876 2.78464 0
M  V30 3053 H 283.323 2.23164 3.60519 0
M  V30 3054 C 281.782 0.782081 3.27697 0
M  V30 3055 O 282.312 -0.0310205 4.01688 0
M  V30 3056 N 280.518 0.606573 2.84199 0
M  V30 3057 H 280.065 1.26939 2.24152 0
M  V30 3058 H 280.023 -0.20962 3.137 0
M  V30 3059 N 283.795 -0.628877 1.44509 0
M  V30 3060 C 284.742 -1.74074 1.51549 0
M  V30 3061 C 285.712 -1.62084 0.363021 0
M  V30 3062 O 286.897 -1.81975 0.573567 0
M  V30 3063 C 284.037 -3.12328 1.46784 0
M  V30 3064 C 283.15 -3.35277 2.72422 0
M  V30 3065 C 282.285 -4.63515 2.59475 0
M  V30 3066 C 281.324 -4.7965 3.80266 0
M  V30 3067 N 280.461 -5.99168 3.65981 0
M  V30 3068 H 285.301 -1.67392 2.46544 0
M  V30 3069 H 282.838 -0.816527 1.22357 0
M  V30 3070 H 284.796 -3.92286 1.42012 0
M  V30 3071 H 283.426 -3.18018 0.553544 0
M  V30 3072 H 282.478 -2.49242 2.87372 0
M  V30 3073 H 283.79 -3.43078 3.62076 0
M  V30 3074 H 282.944 -5.51638 2.52548 0
M  V30 3075 H 281.683 -4.58076 1.67384 0
M  V30 3076 H 280.688 -3.89957 3.87574 0
M  V30 3077 H 281.913 -4.86902 4.73395 0
M  V30 3078 H 279.859 -5.94814 2.76644 0
M  V30 3079 H 279.776 -6.08035 4.49254 0
M  V30 3080 H 281.044 -6.89846 3.6295 0
M  V30 3081 N 285.273 -1.31445 -0.869486 0
M  V30 3082 C 286.521 -1.20918 -1.61936 0
M  V30 3083 C 286.842 0.232683 -1.93607 0
M  V30 3084 O 286.112 1.15352 -1.58338 0
M  V30 3085 H 284.692 -0.44454 -0.600328 0
M  V30 3086 H 287.354 -1.64776 -1.0409 0
M  V30 3087 H 286.45 -1.78124 -2.56278 0
M  V30 3088 N 286.751 1.08385 -1.14413 0
M  V30 3089 C 287.997 1.81044 -0.913834 0
M  V30 3090 C 288.33 1.86004 0.558209 0
M  V30 3091 O 287.605 1.33606 1.4135 0
M  V30 3092 C 287.888 3.26648 -1.51569 0
M  V30 3093 C 287.741 3.29895 -3.0576 0
M  V30 3094 C 289.06 4.23629 -1.19273 0
M  V30 3095 H 286.179 0.65727 -0.333414 0
M  V30 3096 H 288.821 1.26896 -1.41412 0
M  V30 3097 H 286.971 3.72889 -1.09023 0
M  V30 3098 H 288.643 2.91977 -3.57137 0
M  V30 3099 H 286.886 2.69163 -3.40197 0
M  V30 3100 H 287.557 4.32516 -3.42977 0
M  V30 3101 H 290.033 3.85727 -1.56057 0
M  V30 3102 H 288.909 5.23822 -1.64017 0
M  V30 3103 H 289.17 4.41968 -0.108068 0
M  V30 3104 N 288.23 0.939286 1.26551 0
M  V30 3105 C 289.477 0.585847 1.9384 0
M  V30 3106 C 289.805 -0.874784 1.73718 0
M  V30 3107 O 289.06 -1.64092 1.06642 0
M  V30 3108 C 289.359 0.872106 3.46596 0
M  V30 3109 C 289.025 2.31632 3.86856 0
M  V30 3110 C 287.687 2.71111 3.97558 0
M  V30 3111 C 290.039 3.25494 4.07066 0
M  V30 3112 C 287.367 4.03553 4.25866 0
M  V30 3113 C 289.719 4.57531 4.36862 0
M  V30 3114 C 288.383 4.96828 4.45778 0
M  V30 3115 H 287.653 0.214377 0.709312 0
M  V30 3116 H 290.3 1.18544 1.50398 0
M  V30 3117 H 288.605 0.18996 3.91339 0
M  V30 3118 H 290.302 0.577442 3.96821 0
M  V30 3119 H 286.892 2.00008 3.79071 0
M  V30 3120 H 291.076 2.9619 3.98227 0
M  V30 3121 H 286.332 4.33665 4.30981 0
M  V30 3122 H 290.506 5.30254 4.51446 0
M  V30 3123 H 288.133 5.99482 4.67468 0
M  V30 3124 N 289.708 -1.40897 0.706093 0
M  V30 3125 C 290.956 -2.00657 0.241054 0
M  V30 3126 C 291.277 -1.56241 -1.16678 0
M  V30 3127 O 290.547 -0.79765 -1.78926 0
M  V30 3128 H 289.127 -0.742018 0.0861308 0
M  V30 3129 H 291.789 -1.72372 0.909604 0
M  V30 3130 H 290.885 -3.10958 0.266705 0
M  V30 3131 N 291.186 -0.45159 -1.50991 0
M  V30 3132 C 292.096 0.358431 -2.31846 0
M  V30 3133 C 293.112 1.01438 -1.41373 0
M  V30 3134 O 294.288 1.00663 -1.74439 0
M  V30 3135 C 291.353 1.43704 -3.15515 0
M  V30 3136 C 290.414 0.799742 -4.21785 0
M  V30 3137 C 289.647 1.82696 -5.01456 0
M  V30 3138 O 289.87 3.05105 -4.81941 0
M  V30 3139 O 288.804 1.40958 -5.85162 0
M  V30 3140 H 292.63 -0.302032 -3.02194 0
M  V30 3141 H 290.215 -0.213825 -1.47862 0
M  V30 3142 H 292.097 2.06227 -3.67489 0
M  V30 3143 H 290.772 2.08133 -2.47916 0
M  V30 3144 H 289.679 0.136084 -3.73852 0
M  V30 3145 H 291.012 0.198718 -4.91799 0
M  V30 3146 N 292.664 1.56529 -0.183458 0
M  V30 3147 C 293.611 2.18546 0.742055 0
M  V30 3148 C 294.581 1.12912 1.2182 0
M  V30 3149 O 295.766 1.41115 1.28418 0
M  V30 3150 C 292.906 2.83977 1.96089 0
M  V30 3151 C 292.019 4.04105 1.52719 0
M  V30 3152 C 291.154 4.57427 2.70063 0
M  V30 3153 C 290.193 5.69938 2.23243 0
M  V30 3154 N 289.33 6.17717 3.33722 0
M  V30 3155 H 294.17 2.97284 0.206432 0
M  V30 3156 H 291.707 1.46823 0.0901571 0
M  V30 3157 H 293.665 3.20077 2.67594 0
M  V30 3158 H 292.295 2.07822 2.47002 0
M  V30 3159 H 291.347 3.73745 0.708436 0
M  V30 3160 H 292.659 4.85513 1.1436 0
M  V30 3161 H 291.813 4.95772 3.49708 0
M  V30 3162 H 290.552 3.75101 3.11689 0
M  V30 3163 H 289.557 5.31133 1.42048 0
M  V30 3164 H 290.782 6.54073 1.82661 0
M  V30 3165 H 288.728 5.38317 3.74902 0
M  V30 3166 H 288.645 6.94146 2.99495 0
M  V30 3167 H 289.913 6.60713 4.13616 0
M  V30 3168 N 294.142 -0.090211 1.57342 0
M  V30 3169 C 295.553 -0.644173 1.75235 0
M  V30 3170 C 295.904 -1.78865 0.806335 0
M  V30 3171 O 295.029 -2.16395 -0.0140128 0
M  V30 3172 C 295.624 -1.17532 3.1776 0
M  V30 3173 C 294.183 -1.67531 3.37061 0
M  V30 3174 C 293.33 -0.58693 2.71017 0
M  V30 3175 H 296.281 0.135884 1.58117 0
M  V30 3176 H 296.302 -2.04455 3.20902 0
M  V30 3177 H 295.814 -0.342138 3.86589 0
M  V30 3178 H 293.915 -2.53234 2.73319 0
M  V30 3179 H 294.028 -1.76493 4.45406 0
M  V30 3180 H 292.392 -1.02756 2.33052 0
M  V30 3181 H 293.175 0.235758 3.4249 0
M  V30 3182 N 295.62 -1.53406 -0.361157 0
M  V30 3183 C 296.568 -1.80832 -1.46296 0
M  V30 3184 C 297.562 -0.677699 -1.55253 0
M  V30 3185 O 298.768 -0.860723 -1.58087 0
M  V30 3186 H 295.143 -0.572627 -0.487445 0
M  V30 3187 H 297.114 -2.73045 -1.20371 0
M  V30 3188 C 295.863 -2.01907 -2.8307 0
M  V30 3189 H 295.186 -2.88349 -2.76938 0
M  V30 3190 H 296.626 -2.25072 -3.59331 0
M  V30 3191 C 295.085 -0.799449 -3.27277 0
M  V30 3192 O 295.615 0.00971761 -4.01699 0
M  V30 3193 N 293.821 -0.621637 -2.83873 0
M  V30 3194 H 293.368 -1.28126 -2.23476 0
M  V30 3195 H 293.326 0.19298 -3.13807 0
M  V30 3196 N 297.098 0.621204 -1.44841 0
M  V30 3197 C 298.028 1.74366 -1.55303 0
M  V30 3198 C 299.009 1.65199 -0.405385 0
M  V30 3199 O 300.194 1.83807 -0.626787 0
M  V30 3200 C 297.324 3.12931 -1.50637 0
M  V30 3201 C 296.278 3.36896 -2.63979 0
M  V30 3202 C 295.604 4.75594 -2.44366 0
M  V30 3203 C 296.904 3.28483 -4.06074 0
M  V30 3204 H 298.598 1.65867 -2.49256 0
M  V30 3205 H 296.144 0.796558 -1.19962 0
M  V30 3206 H 298.097 3.9124 -1.56555 0
M  V30 3207 H 296.821 3.22237 -0.532057 0
M  V30 3208 H 295.48 2.60972 -2.57467 0
M  V30 3209 H 295.128 4.81616 -1.45105 0
M  V30 3210 H 294.828 4.92586 -3.20364 0
M  V30 3211 H 296.352 5.5612 -2.52117 0
M  V30 3212 H 297.766 3.96684 -4.13902 0
M  V30 3213 H 296.163 3.57008 -4.82354 0
M  V30 3214 H 297.233 2.26133 -4.28943 0
M  V30 3215 N 298.576 1.31904 0.862503 0
M  V30 3216 C 299.987 1.19803 1.43193 0
M  V30 3217 C 300.338 -0.192567 1.95253 0
M  V30 3218 O 299.463 -1.09081 1.86896 0
M  V30 3219 C 300.058 2.16883 2.60283 0
M  V30 3220 C 298.617 2.08692 3.13248 0
M  V30 3221 C 297.764 2.05691 1.85975 0
M  V30 3222 H 300.715 1.43846 0.670365 0
M  V30 3223 H 300.736 1.76278 3.37204 0
M  V30 3224 H 300.248 3.18083 2.22363 0
M  V30 3225 H 298.349 1.10713 3.55771 0
M  V30 3226 H 298.462 2.9815 3.75025 0
M  V30 3227 H 296.826 1.50814 2.05249 0
M  V30 3228 H 297.609 3.08659 1.50282 0
M  V30 3229 N 300.054 -1.07777 1.14986 0
M  V30 3230 C 300.964 -2.18404 0.856546 0
M  V30 3231 C 301.98 -1.73211 -0.165485 0
M  V30 3232 O 303.156 -2.01399 0.00755219 0
M  V30 3233 C 300.221 -3.44977 0.34526 0
M  V30 3234 C 299.282 -4.0476 1.43065 0
M  V30 3235 C 298.515 -5.25291 0.943663 0
M  V30 3236 O 298.738 -5.70004 -0.212426 0
M  V30 3237 O 297.672 -5.76638 1.72547 0
M  V30 3238 H 301.498 -2.45978 1.78125 0
M  V30 3239 H 299.083 -1.17033 0.928631 0
M  V30 3240 H 300.965 -4.21348 0.0663671 0
M  V30 3241 H 299.64 -3.18965 -0.551631 0
M  V30 3242 H 298.547 -3.29949 1.76309 0
M  V30 3243 H 299.88 -4.35035 2.30229 0
M  V30 3244 N 301.532 -0.945985 -1.26051 0
M  V30 3245 C 302.762 -0.612136 -1.97323 0
M  V30 3246 C 303.17 0.818171 -1.70595 0
M  V30 3247 O 302.513 1.55777 -0.973613 0
M  V30 3248 C 302.575 -0.780347 -3.50929 0
M  V30 3249 C 302.239 -2.18619 -4.01317 0
M  V30 3250 C 303.236 -3.16209 -4.12683 0
M  V30 3251 C 300.921 -2.50805 -4.35203 0
M  V30 3252 C 302.915 -4.44085 -4.57238 0
M  V30 3253 C 300.602 -3.78912 -4.79446 0
M  V30 3254 C 301.6 -4.75365 -4.90425 0
M  V30 3255 O 301.288 -6.01191 -5.3369 0
M  V30 3256 H 301.02 -0.229134 -0.635982 0
M  V30 3257 H 303.574 -1.27036 -1.61404 0
M  V30 3258 H 301.804 -0.0649864 -3.86645 0
M  V30 3259 H 303.493 -0.448842 -4.03411 0
M  V30 3260 H 304.259 -2.92668 -3.86744 0
M  V30 3261 H 300.138 -1.76463 -4.2589 0
M  V30 3262 H 303.682 -5.19373 -4.65723 0
M  V30 3263 H 299.579 -4.02265 -5.0483 0
M  V30 3264 H 300.347 -6.04442 -5.51899 0
M  V30 3265 N 303.011 1.40521 -0.713556 0
M  V30 3266 C 303.958 2.30723 -0.059684 0
M  V30 3267 C 304.928 1.48079 0.752448 0
M  V30 3268 O 306.113 1.76823 0.71681 0
M  V30 3269 C 303.253 3.34274 0.857594 0
M  V30 3270 C 302.366 4.31986 0.0351536 0
M  V30 3271 C 301.501 5.22605 0.951724 0
M  V30 3272 C 300.54 6.11976 0.123253 0
M  V30 3273 N 299.677 6.9502 0.99459 0
M  V30 3274 H 304.517 2.86074 -0.834596 0
M  V30 3275 H 302.054 1.40879 -0.42326 0
M  V30 3276 H 304.012 3.92879 1.40364 0
M  V30 3277 H 302.642 2.8043 1.59871 0
M  V30 3278 H 301.694 3.7518 -0.628052 0
M  V30 3279 H 303.006 4.95101 -0.606347 0
M  V30 3280 H 302.16 5.86131 1.56638 0
M  V30 3281 H 300.899 4.59759 1.62705 0
M  V30 3282 H 299.904 5.47482 -0.50435 0
M  V30 3283 H 301.129 6.76881 -0.548539 0
M  V30 3284 H 299.075 6.34764 1.6556 0
M  V30 3285 H 298.992 7.54892 0.40908 0
M  V30 3286 H 300.26 7.62997 1.59549 0
M  V30 3287 N 304.489 0.459591 1.5075 0
M  V30 3288 C 305.735 -0.0994966 2.02556 0
M  V30 3289 C 306.068 -1.40399 1.3417 0
M  V30 3290 O 305.343 -1.88892 0.463683 0
M  V30 3291 C 305.626 -0.295242 3.58888 0
M  V30 3292 C 305.479 1.02947 4.37861 0
M  V30 3293 C 306.798 -1.05502 4.27267 0
M  V30 3294 H 303.917 -0.034686 0.736183 0
M  V30 3295 H 306.559 0.602938 1.8018 0
M  V30 3296 H 304.709 -0.893563 3.78084 0
M  V30 3297 H 306.381 1.66348 4.30263 0
M  V30 3298 H 304.624 1.62885 4.02058 0
M  V30 3299 H 305.295 0.846281 5.45474 0
M  V30 3300 H 307.771 -0.547993 4.12476 0
M  V30 3301 H 306.647 -1.16077 5.36486 0
M  V30 3302 H 306.908 -2.08875 3.89645 0
M  V30 3303 N 305.967 -1.56429 0.191757 0
M  V30 3304 C 306.93 -2.17707 -0.716688 0
M  V30 3305 C 307.93 -1.13061 -1.14341 0
M  V30 3306 O 309.12 -1.38464 -1.05704 0
M  V30 3307 C 306.252 -2.77644 -1.97804 0
M  V30 3308 H 307.445 -2.99342 -0.1829 0
M  V30 3309 H 304.998 -1.56193 -0.0578566 0
M  V30 3310 H 305.733 -1.99799 -2.55443 0
M  V30 3311 H 305.518 -3.54246 -1.68083 0
M  V30 3312 H 307.008 -3.24708 -2.62592 0
M  V30 3313 N 307.445 0.0818655 -1.57387 0
M  V30 3314 C 308.408 1.08265 -2.02018 0
M  V30 3315 C 309.408 1.32183 -0.915664 0
M  V30 3316 O 310.598 1.28073 -1.18081 0
M  V30 3317 C 307.73 2.42871 -2.39221 0
M  V30 3318 H 308.923 0.698204 -2.91659 0
M  V30 3319 H 306.476 0.327303 -1.52835 0
M  V30 3320 H 307.211 2.86167 -1.52575 0
M  V30 3321 H 306.996 2.26855 -3.19811 0
M  V30 3322 H 308.486 3.14826 -2.74362 0
M  V30 3323 N 308.923 1.53595 0.353017 0
M  V30 3324 C 310.172 1.69603 1.09168 0
M  V30 3325 C 310.485 0.460925 1.90092 0
M  V30 3326 O 311.691 0.501774 2.66823 0
M  V30 3327 C 310.147 2.99872 1.9901 0
M  V30 3328 C 309.755 4.30687 1.23339 0
M  V30 3329 C 311.499 3.25246 2.72792 0
M  V30 3330 C 309.406 5.52036 2.12156 0
M  V30 3331 H 308.336 0.631966 0.411261 0
M  V30 3332 H 310.987 1.80096 0.351802 0
M  V30 3333 H 309.369 2.83212 2.7678 0
M  V30 3334 H 310.543 4.58019 0.505456 0
M  V30 3335 H 308.858 4.11853 0.613663 0
M  V30 3336 H 311.455 4.13095 3.39495 0
M  V30 3337 H 311.798 2.41846 3.38846 0
M  V30 3338 H 312.331 3.42638 2.021 0
M  V30 3339 H 309.07 6.37951 1.50659 0
M  V30 3340 H 308.59 5.28966 2.82764 0
M  V30 3341 H 310.269 5.87313 2.71427 0
M  V30 3342 N 310.401 -0.613514 1.45168 0
M  V30 3343 C 311.817 -0.933629 1.29443 0
M  V30 3344 C 312.017 -2.00028 0.243101 0
M  V30 3345 O 311.073 -2.49848 -0.364992 0
M  V30 3346 C 312.386 -1.38018 2.67155 0
M  V30 3347 C 313.934 -1.49471 2.75004 0
M  V30 3348 C 314.409 -1.97503 4.13227 0
M  V30 3349 N 315.9 -2.04746 4.15491 0
M  V30 3350 C 316.635 -2.43121 5.19307 0
M  V30 3351 N 316.131 -2.80506 6.33473 0
M  V30 3352 N 317.924 -2.43408 5.06664 0
M  V30 3353 H 310.075 0.0916097 2.12202 0
M  V30 3354 H 312.338 -0.0216655 0.947752 0
M  V30 3355 H 312.044 -0.670625 3.45247 0
M  V30 3356 H 311.918 -2.34784 2.95222 0
M  V30 3357 H 314.305 -2.19519 1.9722 0
M  V30 3358 H 314.386 -0.510342 2.50657 0
M  V30 3359 H 314.03 -1.28045 4.91495 0
M  V30 3360 H 313.96 -2.96843 4.34962 0
M  V30 3361 H 316.451 -1.78468 3.33103 0
M  V30 3362 H 316.764 -3.08652 7.08487 0
M  V30 3363 H 315.109 -2.78216 6.36884 0
M  V30 3364 H 318.3 -2.13604 4.16523 0
M  V30 3365 H 318.473 -2.72989 5.87691 0
M  V30 3366 N 311.879 -1.3236 -0.855495 0
M  V30 3367 C 312.826 -1.21225 -1.964 0
M  V30 3368 C 313.796 -0.0946204 -1.6583 0
M  V30 3369 O 314.981 -0.27002 -1.8888 0
M  V30 3370 C 312.121 -0.940419 -3.32039 0
M  V30 3371 C 311.234 -2.14276 -3.75113 0
M  V30 3372 C 310.369 -1.80648 -4.9954 0
M  V30 3373 C 309.408 -2.97208 -5.35102 0
M  V30 3374 N 308.545 -2.63678 -6.50706 0
M  V30 3375 H 313.385 -2.16042 -2.05255 0
M  V30 3376 H 310.922 -1.07451 -1.00463 0
M  V30 3377 H 312.88 -0.763311 -4.10158 0
M  V30 3378 H 311.51 -0.0290413 -3.22787 0
M  V30 3379 H 310.562 -2.43017 -2.92655 0
M  V30 3380 H 311.874 -3.01468 -3.97389 0
M  V30 3381 H 311.028 -1.59484 -5.85363 0
M  V30 3382 H 309.767 -0.906678 -4.79198 0
M  V30 3383 H 308.772 -3.19004 -4.47791 0
M  V30 3384 H 309.997 -3.87918 -5.57401 0
M  V30 3385 H 307.943 -1.76238 -6.31883 0
M  V30 3386 H 307.86 -3.444 -6.72997 0
M  V30 3387 H 309.128 -2.45942 -7.39684 0
M  V30 3388 N 313.357 1.07166 -1.15556 0
M  V30 3389 C 314.582 1.84053 -0.955988 0
M  V30 3390 C 315.007 1.81586 0.490739 0
M  V30 3391 O 314.365 1.21018 1.34997 0
M  V30 3392 C 314.413 3.28957 -1.47714 0
M  V30 3393 O 313.517 4.06795 -0.677593 0
M  V30 3394 H 312.858 0.569842 -0.340847 0
M  V30 3395 H 315.388 1.35178 -1.53584 0
M  V30 3396 H 315.398 3.79788 -1.4908 0
M  V30 3397 H 314.073 3.30068 -2.53037 0
M  V30 3398 H 312.65 3.6561 -0.733721 0
M  V30 3399 N 314.835 0.952656 1.25548 0
M  V30 3400 C 316.246 0.647392 1.75116 0
M  V30 3401 C 316.597 -0.837274 1.77438 0
M  V30 3402 O 315.722 -1.65525 1.39393 0
M  V30 3403 C 316.317 1.16845 3.18014 0
M  V30 3404 C 314.876 0.913382 3.6515 0
M  V30 3405 C 314.023 1.31265 2.44264 0
M  V30 3406 H 316.974 1.12968 1.11462 0
M  V30 3407 H 316.995 0.527606 3.76824 0
M  V30 3408 H 316.507 2.24902 3.16292 0
M  V30 3409 H 314.608 -0.152316 3.72289 0
M  V30 3410 H 314.721 1.54845 4.53387 0
M  V30 3411 H 313.085 0.731028 2.43984 0
M  V30 3412 H 313.868 2.40239 2.45234 0
M  V30 3413 N 316.313 -1.40141 0.720998 0
M  V30 3414 C 317.56 -2.00787 0.262842 0
M  V30 3415 C 317.888 -1.5718 -1.14563 0
M  V30 3416 O 317.143 -0.785391 -1.79249 0
M  V30 3417 C 317.442 -3.56165 0.296892 0
M  V30 3418 C 317.108 -4.19373 1.65641 0
M  V30 3419 C 315.77 -4.36352 2.02855 0
M  V30 3420 C 318.122 -4.54578 2.54968 0
M  V30 3421 C 315.45 -4.8582 3.28931 0
M  V30 3422 C 317.802 -5.05447 3.80402 0
M  V30 3423 C 316.466 -5.20635 4.17726 0
M  V30 3424 H 315.736 -0.734731 0.0961807 0
M  V30 3425 H 318.383 -1.67673 0.925093 0
M  V30 3426 H 316.688 -3.8922 -0.448932 0
M  V30 3427 H 318.385 -4.00929 -0.0755208 0
M  V30 3428 H 314.975 -4.06549 1.35704 0
M  V30 3429 H 319.159 -4.41091 2.27491 0
M  V30 3430 H 314.415 -4.95764 3.57811 0
M  V30 3431 H 318.589 -5.31663 4.49786 0
M  V30 3432 H 316.216 -5.58728 5.15487 0
M  V30 3433 N 317.792 -0.46758 -1.50504 0
M  V30 3434 C 319.041 0.0902868 -2.01498 0
M  V30 3435 C 319.354 1.411 -1.35463 0
M  V30 3436 O 320.56 2.0536 -1.77594 0
M  V30 3437 C 319.016 0.21142 -3.59278 0
M  V30 3438 C 318.624 -1.10065 -4.34269 0
M  V30 3439 C 320.368 0.721433 -4.18325 0
M  V30 3440 C 318.275 -0.943505 -5.83825 0
M  V30 3441 H 317.205 0.037517 -0.753066 0
M  V30 3442 H 319.856 -0.601943 -1.73346 0
M  V30 3443 H 318.238 0.967352 -3.84003 0
M  V30 3444 H 319.412 -1.86726 -4.21272 0
M  V30 3445 H 317.727 -1.5415 -3.86816 0
M  V30 3446 H 320.324 0.85598 -5.27804 0
M  V30 3447 H 320.667 1.71186 -3.79475 0
M  V30 3448 H 321.2 0.0229843 -3.97793 0
M  V30 3449 H 317.939 -1.90719 -6.27141 0
M  V30 3450 H 317.459 -0.217213 -5.99407 0
M  V30 3451 H 319.138 -0.608715 -6.4413 0
M  V30 3452 N 319.27 1.56325 -0.20005 0
M  V30 3453 C 320.2 2.22318 0.713916 0
M  V30 3454 C 321.181 1.18788 1.21752 0
M  V30 3455 O 322.366 1.47309 1.26545 0
M  V30 3456 C 319.496 2.88639 1.93144 0
M  V30 3457 C 318.45 3.98457 1.56255 0
M  V30 3458 C 317.776 4.51967 2.85709 0
M  V30 3459 C 319.076 5.16612 0.768747 0
M  V30 3460 H 320.77 2.98952 0.163755 0
M  V30 3461 H 318.316 1.43792 0.0773219 0
M  V30 3462 H 320.269 3.33491 2.57608 0
M  V30 3463 H 318.993 2.09419 2.50621 0
M  V30 3464 H 317.652 3.54305 0.941471 0
M  V30 3465 H 317.3 3.69503 3.41287 0
M  V30 3466 H 317 5.26071 2.6177 0
M  V30 3467 H 318.524 4.99523 3.51154 0
M  V30 3468 H 319.938 5.57977 1.3166 0
M  V30 3469 H 318.335 5.96812 0.627286 0
M  V30 3470 H 319.405 4.84358 -0.229168 0
M  V30 3471 N 320.748 -0.0735177 1.57428 0
M  V30 3472 C 321.678 -1.0879 2.06608 0
M  V30 3473 C 322.659 -1.40473 0.959237 0
M  V30 3474 O 323.844 -1.5013 1.23185 0
M  V30 3475 C 320.974 -2.40183 2.50857 0
M  V30 3476 C 319.928 -2.22858 3.65402 0
M  V30 3477 C 319.254 -3.59619 3.957 0
M  V30 3478 C 320.554 -1.65123 4.95511 0
M  V30 3479 H 322.248 -0.678673 2.91607 0
M  V30 3480 H 319.794 -0.325013 1.40284 0
M  V30 3481 H 321.747 -3.11437 2.83874 0
M  V30 3482 H 320.471 -2.83083 1.62885 0
M  V30 3483 H 319.13 -1.54045 3.32664 0
M  V30 3484 H 318.778 -4.00086 3.04861 0
M  V30 3485 H 318.478 -3.48866 4.72828 0
M  V30 3486 H 320.002 -4.32306 4.31212 0
M  V30 3487 H 321.416 -2.26241 5.26771 0
M  V30 3488 H 319.813 -1.65071 5.7695 0
M  V30 3489 H 320.883 -0.612559 4.81015 0
M  V30 3490 N 322.226 -1.5378 -0.344866 0
M  V30 3491 C 323.176 -1.78057 -1.42407 0
M  V30 3492 C 324.16 -0.635732 -1.47808 0
M  V30 3493 O 325.352 -0.89508 -1.527 0
M  V30 3494 C 322.481 -1.99242 -2.79566 0
M  V30 3495 C 321.567 -3.19787 -2.78562 0
M  V30 3496 N 321.958 -4.41284 -2.47189 0
M  V30 3497 C 320.256 -3.2093 -3.0971 0
M  V30 3498 C 320.957 -5.23128 -2.54385 0
M  V30 3499 N 319.933 -4.59813 -2.89953 0
M  V30 3500 H 323.735 -2.69588 -1.17046 0
M  V30 3501 H 321.249 -1.52687 -0.553217 0
M  V30 3502 H 323.246 -2.14768 -3.57324 0
M  V30 3503 H 321.906 -1.08953 -3.05875 0
M  V30 3504 H 322.917 -4.68657 -2.20411 0
M  V30 3505 H 319.594 -2.40603 -3.41199 0
M  V30 3506 H 320.984 -6.30096 -2.333 0
M  V30 3507 N 323.704 0.605807 -1.45491 0
M  V30 3508 C 324.944 1.37606 -1.51142 0
M  V30 3509 C 325.308 1.91413 -0.150075 0
M  V30 3510 O 326.509 2.68677 -0.0812828 0
M  V30 3511 C 324.78 2.49197 -2.56195 0
M  V30 3512 S 326.339 3.36953 -2.81083 0
M  V30 3513 H 323.157 0.469118 -0.534275 0
M  V30 3514 H 325.759 0.698845 -1.82583 0
M  V30 3515 H 324.463 2.0802 -3.53773 0
M  V30 3516 H 323.994 3.21717 -2.26411 0
M  V30 3517 H 326.009 4.47395 -2.14598 0
M  V30 3518 N 325.182 1.32811 0.848464 0
M  V30 3519 C 326.43 1.23479 1.59991 0
M  V30 3520 C 326.751 -0.201853 1.93952 0
M  V30 3521 O 326.021 -1.12818 1.60153 0
M  V30 3522 H 324.601 0.454034 0.593179 0
M  V30 3523 H 327.263 1.66412 1.01455 0
M  V30 3524 H 326.359 1.82178 2.53412 0
M  V30 3525 N 326.66 -1.06551 1.16123 0
M  V30 3526 C 327.623 -2.12132 0.867906 0
M  V30 3527 C 328.623 -1.60224 -0.135944 0
M  V30 3528 O 329.813 -1.73943 0.0946422 0
M  V30 3529 C 326.945 -3.396 0.297419 0
M  V30 3530 H 328.138 -2.39586 1.80385 0
M  V30 3531 H 325.691 -1.22574 0.969812 0
M  V30 3532 H 326.426 -3.17794 -0.64633 0
M  V30 3533 H 326.211 -3.78581 1.02073 0
M  V30 3534 H 327.701 -4.17455 0.110052 0
M  V30 3535 N 328.138 -0.959301 -1.25041 0
M  V30 3536 C 329.068 -0.501388 -2.28053 0
M  V30 3537 C 330.049 0.454673 -1.63911 0
M  V30 3538 O 331.234 0.352618 -1.90972 0
M  V30 3539 C 328.364 0.217224 -3.4662 0
M  V30 3540 C 327.318 -0.654034 -4.22973 0
M  V30 3541 C 326.644 0.195589 -5.34342 0
M  V30 3542 C 327.944 -1.93447 -4.85155 0
M  V30 3543 H 329.638 -1.36238 -2.66608 0
M  V30 3544 H 327.184 -0.656534 -1.28163 0
M  V30 3545 H 329.137 0.548732 -4.17812 0
M  V30 3546 H 327.861 1.1125 -3.07068 0
M  V30 3547 H 326.52 -0.968693 -3.5357 0
M  V30 3548 H 326.168 1.09076 -4.91031 0
M  V30 3549 H 325.868 -0.384091 -5.86343 0
M  V30 3550 H 327.392 0.521958 -6.08365 0
M  V30 3551 H 328.806 -1.66908 -5.48466 0
M  V30 3552 H 327.203 -2.46018 -5.47353 0
M  V30 3553 H 328.273 -2.63466 -4.07079 0
M  V30 3554 N 329.616 1.39756 -0.72842 0
M  V30 3555 C 331.032 1.5442 -0.403308 0
M  V30 3556 C 331.232 1.69694 1.08656 0
M  V30 3557 O 330.288 1.69373 1.87267 0
M  V30 3558 C 331.601 2.76555 -1.18058 0
M  V30 3559 C 333.149 2.90384 -1.16815 0
M  V30 3560 C 333.624 4.15449 -1.92785 0
M  V30 3561 N 335.115 4.22475 -1.89918 0
M  V30 3562 C 335.85 5.1818 -2.45514 0
M  V30 3563 N 335.346 6.19714 -3.09719 0
M  V30 3564 N 337.139 5.1035 -2.35584 0
M  V30 3565 H 329.29 1.28089 -1.69431 0
M  V30 3566 H 331.553 0.620327 -0.716867 0
M  V30 3567 H 331.259 2.7159 -2.23455 0
M  V30 3568 H 331.133 3.69033 -0.780662 0
M  V30 3569 H 333.52 2.94846 -0.12234 0
M  V30 3570 H 333.601 1.98988 -1.6074 0
M  V30 3571 H 333.245 4.11749 -2.97364 0
M  V30 3572 H 333.175 5.05877 -1.46272 0
M  V30 3573 H 335.666 3.49743 -1.43138 0
M  V30 3574 H 335.979 6.8919 -3.49625 0
M  V30 3575 H 334.324 6.20121 -3.13807 0
M  V30 3576 H 337.515 4.2996 -1.85072 0
M  V30 3577 H 337.688 5.84761 -2.79211 0
M  V30 3578 N 331.094 0.475555 1.50254 0
M  V30 3579 C 332.057 -0.305016 2.27161 0
M  V30 3580 C 333.057 -0.916519 1.32123 0
M  V30 3581 O 334.247 -0.785003 1.5551 0
M  V30 3582 C 331.379 -1.43496 3.09227 0
M  V30 3583 H 332.572 0.369511 2.97615 0
M  V30 3584 H 330.125 0.229747 1.54602 0
M  V30 3585 H 330.86 -2.14441 2.43281 0
M  V30 3586 H 330.645 -1.00223 3.79075 0
M  V30 3587 H 332.135 -1.98548 3.67381 0
M  V30 3588 N 332.573 -1.56217 0.208337 0
M  V30 3589 C 333.801 -2.02337 -0.43215 0
M  V30 3590 C 334.216 -1.08834 -1.54275 0
M  V30 3591 O 333.573 -0.0955462 -1.8225 0
M  V30 3592 C 333.624 -3.48072 -0.976138 0
M  V30 3593 O 333.345 -4.38007 0.0901621 0
M  V30 3594 C 334.846 -4.09773 -1.69119 0
M  V30 3595 H 332.066 -0.662385 -0.10718 0
M  V30 3596 H 334.61 -2.01966 0.320923 0
M  V30 3597 H 332.765 -3.49099 -1.67954 0
M  V30 3598 H 333.179 -5.23543 -0.316701 0
M  V30 3599 H 334.653 -5.13556 -2.02397 0
M  V30 3600 H 335.13 -3.53999 -2.59964 0
M  V30 3601 H 335.736 -4.12556 -1.03332 0
M  V30 3602 N 334.051 0.0651679 -1.57465 0
M  V30 3603 C 335.297 0.758912 -1.88712 0
M  V30 3604 C 335.652 1.7485 -0.802819 0
M  V30 3605 O 334.945 1.90632 0.192359 0
M  V30 3606 C 335.139 1.50081 -3.24362 0
M  V30 3607 C 334.968 0.584579 -4.45884 0
M  V30 3608 C 333.738 0.219039 -5.04825 0
M  V30 3609 C 335.936 -0.121559 -5.14156 0
M  V30 3610 N 333.918 -0.702222 -6.09871 0
M  V30 3611 C 335.289 -0.899767 -6.13436 0
M  V30 3612 C 337.344 -0.192331 -4.97528 0
M  V30 3613 C 336.047 -1.74218 -6.97883 0
M  V30 3614 C 338.073 -1.02174 -5.82507 0
M  V30 3615 C 337.435 -1.78798 -6.8133 0
M  V30 3616 H 333.534 0.25293 -0.739967 0
M  V30 3617 H 336.118 0.0201744 -1.9469 0
M  V30 3618 H 334.289 2.21023 -3.1938 0
M  V30 3619 H 336.021 2.14409 -3.43236 0
M  V30 3620 H 332.776 0.57336 -4.70117 0
M  V30 3621 H 333.2 -1.15629 -6.67052 0
M  V30 3622 H 337.842 0.385741 -4.21037 0
M  V30 3623 H 335.56 -2.3312 -7.73745 0
M  V30 3624 H 339.146 -1.07957 -5.71696 0
M  V30 3625 H 338.026 -2.41942 -7.45945 0
M  V30 3626 N 335.529 1.53961 0.336706 0
M  V30 3627 C 336.806 1.62171 1.09361 0
M  V30 3628 C 337.186 0.447263 2.06307 0
M  V30 3629 O 336.534 -0.559802 2.21537 0
M  V30 3630 C 336.744 2.98565 1.80721 0
M  V30 3631 C 338.092 3.54157 2.34218 0
M  V30 3632 O 339.116 3.00784 1.90807 0
M  V30 3633 O 337.975 4.47528 3.13657 0
M  V30 3634 H 335.069 0.6562 0.503319 0
M  V30 3635 H 337.615 1.66307 0.33765 0
M  V30 3636 H 336.387 3.75482 1.10132 0
M  V30 3637 H 336.01 2.9805 2.63158 0
M  V30 3638 N 337.007 -0.598083 1.45811 0
M  V30 3639 C 338.255 -1.35413 1.50026 0
M  V30 3640 C 338.576 -1.94444 0.147177 0
M  V30 3641 O 337.846 -1.77701 -0.824571 0
M  V30 3642 H 336.426 -0.502727 0.552517 0
M  V30 3643 H 339.088 -0.701606 1.81834 0
M  V30 3644 H 338.184 -2.16871 2.2444 0
M  V30 3645 N 338.485 -1.33259 -0.841409 0
M  V30 3646 C 339.732 -1.24572 -1.5965 0
M  V30 3647 C 340.06 0.189137 -1.93578 0
M  V30 3648 O 339.315 1.14566 -1.5866 0
M  V30 3649 C 339.614 -2.06381 -2.9179 0
M  V30 3650 C 339.28 -3.556 -2.77235 0
M  V30 3651 C 337.942 -3.96282 -2.72973 0
M  V30 3652 C 340.294 -4.50433 -2.62221 0
M  V30 3653 C 337.622 -5.30017 -2.51592 0
M  V30 3654 C 339.974 -5.84327 -2.42374 0
M  V30 3655 C 338.638 -6.24194 -2.36512 0
M  V30 3656 H 337.908 -0.455842 -0.5842 0
M  V30 3657 H 340.555 -1.6482 -0.975016 0
M  V30 3658 H 338.86 -1.58903 -3.5813 0
M  V30 3659 H 340.557 -1.97019 -3.49263 0
M  V30 3660 H 337.147 -3.23298 -2.81384 0
M  V30 3661 H 341.331 -4.19914 -2.64549 0
M  V30 3662 H 336.587 -5.59947 -2.45499 0
M  V30 3663 H 340.761 -6.57414 -2.29739 0
M  V30 3664 H 338.388 -7.27759 -2.19706 0
M  V30 3665 N 339.963 1.05934 -1.16686 0
M  V30 3666 C 341.212 1.78188 -0.945085 0
M  V30 3667 C 341.525 1.88338 0.528021 0
M  V30 3668 O 342.731 2.57258 0.867799 0
M  V30 3669 C 341.187 3.20277 -1.64167 0
M  V30 3670 C 340.795 3.18281 -3.15279 0
M  V30 3671 C 342.539 3.97039 -1.502 0
M  V30 3672 C 340.446 4.55112 -3.7766 0
M  V30 3673 H 339.376 0.667866 -0.349959 0
M  V30 3674 H 342.027 1.18794 -1.39858 0
M  V30 3675 H 340.409 3.79952 -1.11589 0
M  V30 3676 H 341.583 2.68167 -3.74731 0
M  V30 3677 H 339.898 2.55018 -3.29173 0
M  V30 3678 H 342.495 4.98194 -1.94183 0
M  V30 3679 H 342.838 4.13845 -0.451461 0
M  V30 3680 H 343.371 3.43894 -1.99954 0
M  V30 3681 H 340.11 4.43512 -4.82677 0
M  V30 3682 H 339.63 5.05406 -3.22994 0
M  V30 3683 H 341.309 5.24064 -3.79428 0
M  V30 3684 N 341.441 0.965919 1.2453 0
M  V30 3685 C 342.371 0.513476 2.27784 0
M  V30 3686 C 343.352 -0.445974 1.6415 0
M  V30 3687 O 344.537 -0.342485 1.91156 0
M  V30 3688 C 341.667 -0.198839 3.4673 0
M  V30 3689 C 340.621 0.676456 4.2262 0
M  V30 3690 C 339.947 -0.167248 5.34438 0
M  V30 3691 C 341.247 1.96017 4.84123 0
M  V30 3692 H 342.941 1.3765 2.65881 0
M  V30 3693 H 340.487 0.663321 1.27813 0
M  V30 3694 H 342.44 -0.526567 4.18097 0
M  V30 3695 H 341.164 -1.0962 3.07654 0
M  V30 3696 H 339.823 0.98743 3.53052 0
M  V30 3697 H 339.471 -1.0647 4.91603 0
M  V30 3698 H 339.171 0.415181 5.86131 0
M  V30 3699 H 340.695 -0.489688 6.08633 0
M  V30 3700 H 342.109 1.69814 5.47573 0
M  V30 3701 H 340.506 2.48918 5.4604 0
M  V30 3702 H 341.576 2.65622 4.05676 0
M  V30 3703 N 342.919 -1.39368 0.735821 0
M  V30 3704 C 343.849 -2.33234 0.111506 0
M  V30 3705 C 344.83 -1.53954 -0.723334 0
M  V30 3706 O 346.015 -1.82344 -0.668147 0
M  V30 3707 C 343.145 -3.38057 -0.795917 0
M  V30 3708 C 342.099 -4.2795 -0.065172 0
M  V30 3709 C 341.425 -5.23479 -1.08967 0
M  V30 3710 C 342.725 -5.10741 1.09273 0
M  V30 3711 H 344.419 -2.85692 0.895571 0
M  V30 3712 H 341.965 -1.37364 0.432109 0
M  V30 3713 H 343.918 -4.02675 -1.24221 0
M  V30 3714 H 342.642 -2.8404 -1.61211 0
M  V30 3715 H 341.301 -3.64813 0.361511 0
M  V30 3716 H 340.949 -4.65758 -1.89944 0
M  V30 3717 H 340.649 -5.84472 -0.605489 0
M  V30 3718 H 342.173 -5.90974 -1.53565 0
M  V30 3719 H 343.587 -5.68699 0.724841 0
M  V30 3720 H 341.984 -5.8088 1.50659 0
M  V30 3721 H 343.054 -4.45525 1.91404 0
M  V30 3722 N 344.397 -0.483516 -1.5 0
M  V30 3723 C 345.36 0.292965 -2.2732 0
M  V30 3724 C 346.36 0.909499 -1.32608 0
M  V30 3725 O 347.55 0.776745 -1.55924 0
M  V30 3726 C 344.682 1.41854 -3.09984 0
M  V30 3727 H 345.875 -0.385289 -2.97415 0
M  V30 3728 H 343.428 -0.237942 -1.54478 0
M  V30 3729 H 344.163 2.13148 -2.44414 0
M  V30 3730 H 343.948 0.982114 -3.79601 0
M  V30 3731 H 345.438 1.96597 -3.68429 0
M  V30 3732 N 345.875 1.56104 -0.216619 0
M  V30 3733 C 347.103 2.02563 0.421413 0
M  V30 3734 C 347.518 1.0965 1.53695 0
M  V30 3735 O 346.875 0.10521 1.82196 0
M  V30 3736 C 346.926 3.48584 0.957665 0
M  V30 3737 O 346.647 4.37953 -0.113389 0
M  V30 3738 C 348.148 4.10664 1.66943 0
M  V30 3739 H 345.368 0.662944 0.103665 0
M  V30 3740 H 347.912 2.01793 -0.331629 0
M  V30 3741 H 346.067 3.49985 1.661 0
M  V30 3742 H 346.481 5.23704 0.288932 0
M  V30 3743 H 347.955 5.14622 1.99671 0
M  V30 3744 H 348.432 3.55373 2.58083 0
M  V30 3745 H 349.038 4.13098 1.01142 0
M  V30 3746 N 347.353 -0.0568162 1.57498 0
M  V30 3747 C 348.283 -1.06593 2.0775 0
M  V30 3748 C 349.264 -1.39448 0.974082 0
M  V30 3749 O 350.449 -1.48815 1.24771 0
M  V30 3750 C 347.579 -2.37509 2.5339 0
M  V30 3751 C 346.533 -2.1897 3.67745 0
M  V30 3752 C 345.859 -3.55402 3.99492 0
M  V30 3753 C 347.159 -1.59859 4.97235 0
M  V30 3754 H 348.853 -0.647706 2.9231 0
M  V30 3755 H 346.399 -0.310116 1.40621 0
M  V30 3756 H 348.352 -3.08409 2.87162 0
M  V30 3757 H 347.076 -2.8134 1.65878 0
M  V30 3758 H 345.735 -1.50508 3.3428 0
M  V30 3759 H 345.383 -3.9683 3.09088 0
M  V30 3760 H 345.083 -3.43831 4.76502 0
M  V30 3761 H 346.607 -4.27708 4.35773 0
M  V30 3762 H 348.021 -2.20642 5.29141 0
M  V30 3763 H 346.418 -1.58942 5.78669 0
M  V30 3764 H 347.488 -0.561506 4.81638 0
M  V30 3765 N 348.832 -1.54138 -0.328536 0
M  V30 3766 C 350.062 -1.75807 -1.08516 0
M  V30 3767 C 350.47 -0.50428 -1.82356 0
M  V30 3768 O 349.813 0.534451 -1.75754 0
M  V30 3769 C 349.875 -2.89423 -2.13248 0
M  V30 3770 C 349.539 -4.28504 -1.5885 0
M  V30 3771 C 350.536 -5.09536 -1.03289 0
M  V30 3772 C 348.221 -4.75034 -1.63243 0
M  V30 3773 C 350.215 -6.35206 -0.52845 0
M  V30 3774 C 347.902 -6.00672 -1.12411 0
M  V30 3775 C 348.9 -6.80592 -0.573062 0
M  V30 3776 O 348.588 -8.03867 -0.0723692 0
M  V30 3777 H 348.32 -0.590633 -0.328829 0
M  V30 3778 H 350.874 -2.01819 -0.381868 0
M  V30 3779 H 349.104 -2.5897 -2.87178 0
M  V30 3780 H 350.793 -2.98921 -2.74592 0
M  V30 3781 H 351.559 -4.74745 -0.99206 0
M  V30 3782 H 347.438 -4.12875 -2.05074 0
M  V30 3783 H 350.982 -6.97532 -0.0976774 0
M  V30 3784 H 346.879 -6.34955 -1.162 0
M  V30 3785 H 347.647 -8.18283 -0.188258 0
M  V30 3786 N 350.31 0.590341 -1.46126 0
M  V30 3787 C 351.556 1.35082 -1.51264 0
M  V30 3788 C 351.889 1.93534 -0.160711 0
M  V30 3789 O 351.164 1.76045 0.826956 0
M  V30 3790 C 351.447 2.48588 -2.6053 0
M  V30 3791 C 351.3 1.95221 -4.05227 0
M  V30 3792 C 352.619 3.50662 -2.6594 0
M  V30 3793 H 349.738 0.489803 -0.550692 0
M  V30 3794 H 352.38 0.663887 -1.78024 0
M  V30 3795 H 350.53 3.07186 -2.37843 0
M  V30 3796 H 352.202 1.41139 -4.39178 0
M  V30 3797 H 350.445 1.26101 -4.15068 0
M  V30 3798 H 351.116 2.77121 -4.77397 0
M  V30 3799 H 353.592 3.01934 -2.86313 0
M  V30 3800 H 352.468 4.27551 -3.44226 0
M  V30 3801 H 352.729 4.07399 -1.71694 0
M  V30 3802 N 351.788 1.33704 0.83433 0
M  V30 3803 C 352.751 1.24244 1.92603 0
M  V30 3804 C 353.751 0.160383 1.59998 0
M  V30 3805 O 354.941 0.412228 1.69252 0
M  V30 3806 C 352.073 0.91555 3.28376 0
M  V30 3807 H 353.266 2.21287 2.02416 0
M  V30 3808 H 350.819 1.17827 1.02696 0
M  V30 3809 H 351.554 -0.0521886 3.24258 0
M  V30 3810 H 351.339 1.69811 3.53422 0
M  V30 3811 H 352.829 0.874231 4.08347 0
M  V30 3812 N 353.266 -1.05314 1.17247 0
M  V30 3813 C 354.512 -1.78557 0.961513 0
M  V30 3814 C 354.845 -1.87419 -0.508697 0
M  V30 3815 O 354.12 -1.37307 -1.37757 0
M  V30 3816 C 354.403 -3.22514 1.60176 0
M  V30 3817 C 354.256 -3.21673 3.14399 0
M  V30 3818 C 355.575 -4.20318 1.30463 0
M  V30 3819 H 352.694 -0.6482 0.350723 0
M  V30 3820 H 355.336 -1.23102 1.44727 0
M  V30 3821 H 353.486 -3.69867 1.18871 0
M  V30 3822 H 355.158 -2.82405 3.64753 0
M  V30 3823 H 353.401 -2.60048 3.47214 0
M  V30 3824 H 354.072 -4.23271 3.54324 0
M  V30 3825 H 356.548 -3.81454 1.66229 0
M  V30 3826 H 355.424 -5.19289 1.77848 0
M  V30 3827 H 355.685 -4.41526 0.22521 0
M  V30 3828 N 354.744 -0.972509 -1.24016 0
M  V30 3829 C 355.972 -0.654803 -1.96265 0
M  V30 3830 C 356.387 0.776708 -1.72083 0
M  V30 3831 O 355.744 1.52171 -1.00748 0
M  V30 3832 C 355.795 -0.92592 -3.49441 0
M  V30 3833 O 355.516 -2.30116 -3.72798 0
M  V30 3834 C 357.017 -0.623068 -4.38899 0
M  V30 3835 H 354.237 -0.243907 -0.6251 0
M  V30 3836 H 356.781 -1.30175 -1.57717 0
M  V30 3837 H 354.936 -0.325108 -3.86033 0
M  V30 3838 H 355.35 -2.38483 -4.67147 0
M  V30 3839 H 356.824 -0.863189 -5.45209 0
M  V30 3840 H 357.301 0.442754 -4.36963 0
M  V30 3841 H 357.907 -1.204 -4.07902 0
M  V30 3842 N 356.222 1.38976 -0.743202 0
M  V30 3843 C 357.468 2.0064 -0.295189 0
M  V30 3844 C 357.801 1.5885 1.11716 0
M  V30 3845 O 357.076 0.821181 1.76315 0
M  V30 3846 C 357.359 3.578 -0.406318 0
M  V30 3847 C 357.212 4.09586 -1.85903 0
M  V30 3848 C 358.531 4.39616 0.206439 0
M  V30 3849 H 355.65 0.728935 -0.108733 0
M  V30 3850 H 358.292 1.65067 -0.940897 0
M  V30 3851 H 356.442 3.88235 0.143419 0
M  V30 3852 H 358.114 3.89837 -2.46627 0
M  V30 3853 H 356.357 3.6284 -2.3776 0
M  V30 3854 H 357.028 5.18708 -1.888 0
M  V30 3855 H 359.504 4.15273 -0.262283 0
M  V30 3856 H 358.38 5.48812 0.0983819 0
M  V30 3857 H 358.641 4.22754 1.2935 0
M  V30 3858 N 357.7 0.491464 1.49741 0
M  V30 3859 C 359.111 0.0413169 1.86654 0
M  V30 3860 C 359.462 -1.36985 1.40462 0
M  V30 3861 O 358.587 -2.01917 0.778354 0
M  V30 3862 C 359.182 0.0682023 3.38731 0
M  V30 3863 C 357.741 -0.32656 3.74981 0
M  V30 3864 C 356.888 0.444888 2.73708 0
M  V30 3865 H 359.839 0.704733 1.42194 0
M  V30 3866 H 359.86 -0.729322 3.73445 0
M  V30 3867 H 359.372 1.09539 3.72321 0
M  V30 3868 H 357.473 -1.35734 3.46997 0
M  V30 3869 H 357.586 -0.013741 4.79098 0
M  V30 3870 H 355.95 -0.104062 2.54487 0
M  V30 3871 H 356.733 1.47197 3.10142 0
M  V30 3872 N 359.178 -1.55987 0.224894 0
M  V30 3873 C 360.408 -2.02489 -0.41007 0
M  V30 3874 C 360.816 -1.10391 -1.53657 0
M  V30 3875 O 360.159 -0.106458 -1.83391 0
M  V30 3876 C 360.221 -3.45319 -0.999757 0
M  V30 3877 C 359.885 -4.56999 -0.00827976 0
M  V30 3878 C 360.882 -5.13812 0.793314 0
M  V30 3879 C 358.567 -5.02176 0.111442 0
M  V30 3880 C 360.561 -6.14276 1.7013 0
M  V30 3881 C 358.248 -6.02477 1.02296 0
M  V30 3882 C 359.246 -6.58403 1.81643 0
M  V30 3883 O 358.934 -7.56751 2.71262 0
M  V30 3884 H 358.666 -0.667915 -0.104235 0
M  V30 3885 H 361.22 -2.0257 0.339782 0
M  V30 3886 H 359.45 -3.42318 -1.79876 0
M  V30 3887 H 361.139 -3.7545 -1.54248 0
M  V30 3888 H 361.905 -4.79756 0.711288 0
M  V30 3889 H 357.784 -4.58323 -0.49605 0
M  V30 3890 H 361.328 -6.57854 2.32107 0
M  V30 3891 H 357.225 -6.35954 1.10599 0
M  V30 3892 H 357.993 -7.74286 2.65375 0
M  V30 3893 N 360.656 0.0484629 -1.57525 0
M  V30 3894 C 361.881 0.759177 -1.93006 0
M  V30 3895 C 362.306 1.69125 -0.823317 0
M  V30 3896 O 361.664 1.79931 0.222364 0
M  V30 3897 C 361.712 1.50899 -3.27509 0
M  V30 3898 O 360.816 2.62112 -3.18388 0
M  V30 3899 H 360.157 0.205564 -0.631379 0
M  V30 3900 H 362.687 0.00972959 -2.04598 0
M  V30 3901 H 362.697 1.88317 -3.6194 0
M  V30 3902 H 361.372 0.825269 -4.0763 0
M  V30 3903 H 359.949 2.27379 -2.95556 0
M  V30 3904 N 362.134 1.5431 0.320358 0
M  V30 3905 C 363.38 1.72924 1.05949 0
M  V30 3906 C 363.713 0.503185 1.87568 0
M  V30 3907 O 362.988 -0.499839 1.87968 0
M  V30 3908 C 363.271 3.00676 1.98156 0
M  V30 3909 C 363.124 4.3354 1.19845 0
M  V30 3910 C 364.443 3.24198 2.9763 0
M  V30 3911 H 361.562 0.629195 0.383774 0
M  V30 3912 H 364.204 1.87008 0.335854 0
M  V30 3913 H 362.354 2.888 2.59859 0
M  V30 3914 H 364.026 4.57305 0.605773 0
M  V30 3915 H 362.269 4.309 0.500784 0
M  V30 3916 H 362.94 5.19156 1.87567 0
M  V30 3917 H 365.416 3.35557 2.4605 0
M  V30 3918 H 364.292 4.14938 3.59329 0
M  V30 3919 H 364.553 2.41577 3.7026 0
M  V30 3920 N 363.613 -0.582584 1.46437 0
M  V30 3921 C 364.853 -1.35184 1.53312 0
M  V30 3922 C 365.217 -1.9115 0.180508 0
M  V30 3923 O 366.418 -2.68514 0.124017 0
M  V30 3924 C 364.689 -2.45089 2.60127 0
M  V30 3925 S 366.248 -3.32439 2.86408 0
M  V30 3926 H 363.066 -0.460559 0.54167 0
M  V30 3927 H 365.668 -0.669709 1.83671 0
M  V30 3928 H 364.372 -2.02366 3.57038 0
M  V30 3929 H 363.903 -3.18074 2.315 0
M  V30 3930 H 365.918 -4.43924 2.21688 0
M  V30 3931 N 365.091 -1.34144 -0.827227 0
M  V30 3932 C 366.337 -1.26446 -1.58554 0
M  V30 3933 C 366.67 0.1664 -1.93486 0
M  V30 3934 O 365.945 1.1107 -1.59667 0
M  V30 3935 C 366.228 -2.15111 -2.8879 0
M  V30 3936 C 366.081 -3.66712 -2.60465 0
M  V30 3937 C 367.4 -2.03311 -3.90324 0
M  V30 3938 H 364.519 -0.46067 -0.575284 0
M  V30 3939 H 367.161 -1.64356 -0.953269 0
M  V30 3940 H 365.311 -1.8291 -3.42748 0
M  V30 3941 H 366.983 -4.09259 -2.1285 0
M  V30 3942 H 365.226 -3.88014 -1.93978 0
M  V30 3943 H 365.897 -4.24112 -3.53317 0
M  V30 3944 H 368.373 -2.31574 -3.45706 0
M  V30 3945 H 367.249 -2.67582 -4.79261 0
M  V30 3946 H 367.51 -1.00879 -4.30437 0
M  V30 3947 N 366.569 1.04691 -1.17803 0
M  V30 3948 C 367.794 1.81984 -0.994813 0
M  V30 3949 C 368.219 1.82586 0.452112 0
M  V30 3950 O 367.577 1.23854 1.324 0
M  V30 3951 C 367.625 3.2575 -1.54659 0
M  V30 3952 O 366.729 4.05267 -0.763728 0
M  V30 3953 H 366.07 0.562483 -0.352857 0
M  V30 3954 H 368.6 1.3189 -1.56417 0
M  V30 3955 H 368.61 3.76541 -1.57102 0
M  V30 3956 H 367.285 3.24627 -2.59981 0
M  V30 3957 H 365.862 3.63972 -0.811108 0
M  V30 3958 N 368.047 0.979072 1.23499 0
M  V30 3959 C 369.275 0.665202 1.95915 0
M  V30 3960 C 369.69 -0.767571 1.72493 0
M  V30 3961 O 369.047 -1.51635 1.01554 0
M  V30 3962 C 369.098 0.944438 3.48945 0
M  V30 3963 O 368.819 2.3209 3.71572 0
M  V30 3964 C 370.32 0.646336 4.38563 0
M  V30 3965 H 367.54 0.247218 0.623798 0
M  V30 3966 H 370.084 1.31009 1.57025 0
M  V30 3967 H 368.239 0.345575 3.85856 0
M  V30 3968 H 368.653 2.40957 4.65876 0
M  V30 3969 H 370.127 0.892091 5.44744 0
M  V30 3970 H 370.604 -0.419575 4.37191 0
M  V30 3971 H 371.21 1.22562 4.07258 0
M  V30 3972 N 369.525 -1.3858 0.750561 0
M  V30 3973 C 370.488 -2.28836 0.129152 0
M  V30 3974 C 371.488 -1.47045 -0.650714 0
M  V30 3975 O 372.678 -1.6753 -0.477428 0
M  V30 3976 C 369.81 -3.30751 -0.825622 0
M  V30 3977 H 371.003 -2.85294 0.924516 0
M  V30 3978 H 368.556 -1.47489 0.517376 0
M  V30 3979 H 369.291 -2.79378 -1.64677 0
M  V30 3980 H 369.076 -3.91177 -0.268852 0
M  V30 3981 H 370.566 -3.98249 -1.2565 0
M  V30 3982 N 371.003 -0.499398 -1.49478 0
M  V30 3983 C 372.419 -0.155261 -1.58843 0
M  V30 3984 C 372.619 1.34008 -1.50479 0
M  V30 3985 O 371.675 2.11589 -1.37791 0
M  V30 3986 C 372.988 -0.730636 -2.91689 0
M  V30 3987 C 374.536 -0.696599 -3.0515 0
M  V30 3988 C 375.011 -1.25001 -4.40612 0
M  V30 3989 N 376.502 -1.21064 -4.47099 0
M  V30 3990 C 377.237 -1.60905 -5.50361 0
M  V30 3991 N 376.733 -2.08331 -6.60735 0
M  V30 3992 N 378.526 -1.52331 -5.41065 0
M  V30 3993 H 370.677 -1.47162 -1.53158 0
M  V30 3994 H 372.94 -0.610309 -0.725415 0
M  V30 3995 H 372.646 -1.77928 -3.03372 0
M  V30 3996 H 372.52 -0.190161 -3.7672 0
M  V30 3997 H 374.907 0.343204 -2.93097 0
M  V30 3998 H 374.988 -1.2742 -2.21806 0
M  V30 3999 H 374.632 -2.28859 -4.53416 0
M  V30 4000 H 374.562 -0.64836 -5.22593 0
M  V30 4001 H 377.053 -0.863128 -3.67911 0
M  V30 4002 H 377.366 -2.36805 -7.35624 0
M  V30 4003 H 375.711 -2.12304 -6.6178 0
M  V30 4004 H 378.902 -1.151 -4.53729 0
M  V30 4005 H 379.075 -1.83704 -6.21415 0
M  V30 4006 N 372.481 1.55866 -0.233164 0
M  V30 4007 C 373.391 2.24431 0.683217 0
M  V30 4008 C 374.407 1.2558 1.2044 0
M  V30 4009 O 375.583 1.58422 1.24356 0
M  V30 4010 C 372.648 2.91979 1.86947 0
M  V30 4011 C 371.709 4.06204 1.38912 0
M  V30 4012 C 370.942 4.70522 2.51883 0
M  V30 4013 O 371.165 4.33865 3.70293 0
M  V30 4014 O 370.099 5.59296 2.22423 0
M  V30 4015 H 373.925 3.03426 0.129059 0
M  V30 4016 H 371.51 1.494 -0.0022283 0
M  V30 4017 H 373.392 3.34573 2.56201 0
M  V30 4018 H 372.067 2.15935 2.41151 0
M  V30 4019 H 370.974 3.68155 0.664259 0
M  V30 4020 H 372.307 4.84025 0.893328 0
M  V30 4021 N 373.959 -0.0401083 1.57549 0
M  V30 4022 C 375.37 -0.588097 1.77196 0
M  V30 4023 C 375.721 -1.76209 0.862832 0
M  V30 4024 O 374.846 -2.16331 0.0548389 0
M  V30 4025 C 375.441 -1.07363 3.21339 0
M  V30 4026 C 374 -1.56723 3.42221 0
M  V30 4027 C 373.147 -0.50041 2.72747 0
M  V30 4028 H 376.098 0.186119 1.57605 0
M  V30 4029 H 376.119 -1.94143 3.27244 0
M  V30 4030 H 375.631 -0.218975 3.87482 0
M  V30 4031 H 373.732 -2.4441 2.81237 0
M  V30 4032 H 373.845 -1.62234 4.50796 0
M  V30 4033 H 372.209 -0.952894 2.36203 0
M  V30 4034 H 372.992 0.344599 3.41566 0
M  V30 4035 N 375.437 -1.54477 -0.31217 0
M  V30 4036 C 376.662 -1.77526 -1.07235 0
M  V30 4037 C 377.087 -0.527775 -1.80544 0
M  V30 4038 O 376.445 0.52121 -1.73646 0
M  V30 4039 C 376.493 -2.97535 -2.03728 0
M  V30 4040 O 375.597 -2.69878 -3.11833 0
M  V30 4041 H 374.938 -0.58792 -0.30862 0
M  V30 4042 H 377.468 -2.01532 -0.352993 0
M  V30 4043 H 377.478 -3.25198 -2.46395 0
M  V30 4044 H 376.153 -3.87996 -1.49774 0
M  V30 4045 H 374.73 -2.53199 -2.7376 0
M  V30 4046 N 376.915 0.57481 -1.46744 0
M  V30 4047 C 377.878 1.66533 -1.57478 0
M  V30 4048 C 378.878 1.54338 -0.451263 0
M  V30 4049 O 380.068 1.58814 -0.715813 0
M  V30 4050 C 377.2 3.05999 -1.50259 0
M  V30 4051 H 378.393 1.58372 -2.54673 0
M  V30 4052 H 375.946 0.793301 -1.34672 0
M  V30 4053 H 376.681 3.19709 -0.543725 0
M  V30 4054 H 376.466 3.16259 -2.31781 0
M  V30 4055 H 377.956 3.8537 -1.60872 0
M  V30 4056 N 378.394 1.34581 0.820102 0
M  V30 4057 C 379.357 1.2628 1.91275 0
M  V30 4058 C 380.357 0.177344 1.59819 0
M  V30 4059 O 381.547 0.430156 1.68806 0
M  V30 4060 C 378.679 0.950327 3.27386 0
M  V30 4061 H 379.872 2.23421 2.00057 0
M  V30 4062 H 377.425 1.1891 1.0144 0
M  V30 4063 H 378.16 -0.0177938 3.24295 0
M  V30 4064 H 377.945 1.73549 3.51601 0
M  V30 4065 H 379.435 0.917492 4.07396 0
M  V30 4066 N 379.872 -1.04064 1.18357 0
M  V30 4067 C 381.288 -1.2947 0.933258 0
M  V30 4068 C 381.488 -1.97466 -0.401169 0
M  V30 4069 O 380.544 -2.25528 -1.13549 0
M  V30 4070 C 381.857 -2.15337 2.09882 0
M  V30 4071 C 383.405 -2.28683 2.13712 0
M  V30 4072 C 383.88 -3.17917 3.29686 0
M  V30 4073 N 385.371 -3.25504 3.29547 0
M  V30 4074 C 386.106 -3.94706 4.15926 0
M  V30 4075 N 385.602 -4.66239 5.12439 0
M  V30 4076 N 387.395 -3.90986 4.0384 0
M  V30 4077 H 379.546 -0.583359 2.04232 0
M  V30 4078 H 381.809 -0.319921 0.892387 0
M  V30 4079 H 381.515 -1.72682 3.06389 0
M  V30 4080 H 381.389 -3.16015 2.05947 0
M  V30 4081 H 383.776 -2.70575 1.17784 0
M  V30 4082 H 383.857 -1.27596 2.21705 0
M  V30 4083 H 383.501 -2.76736 4.25887 0
M  V30 4084 H 383.431 -4.19036 3.1893 0
M  V30 4085 H 385.922 -2.74547 2.59677 0
M  V30 4086 H 386.235 -5.16638 5.74722 0
M  V30 4087 H 384.58 -4.65143 5.16398 0
M  V30 4088 H 387.771 -3.34234 3.27727 0
M  V30 4089 H 387.944 -4.44646 4.71375 0
M  V30 4090 N 381.35 -0.985608 -1.22978 0
M  V30 4091 C 382.598 -0.656087 -1.91154 0
M  V30 4092 C 382.919 0.813561 -1.77218 0
M  V30 4093 O 382.189 1.58244 -1.1548 0
M  V30 4094 H 380.769 -0.239674 -0.707506 0
M  V30 4095 H 383.431 -1.25054 -1.49491 0
M  V30 4096 H 382.527 -0.912253 -2.9847 0
M  V30 4097 N 382.828 1.3818 -0.7579 0
M  V30 4098 C 384.239 1.82726 -0.383134 0
M  V30 4099 C 384.59 1.63214 1.08884 0
M  V30 4100 O 383.715 1.13566 1.84205 0
M  V30 4101 C 384.31 3.31728 -0.688631 0
M  V30 4102 C 382.869 3.74606 -0.367091 0
M  V30 4103 C 382.016 2.60896 -0.939599 0
M  V30 4104 H 384.967 1.26847 -0.953699 0
M  V30 4105 H 384.988 3.80487 0.0316492 0
M  V30 4106 H 384.5 3.45898 -1.76001 0
M  V30 4107 H 382.601 3.66013 0.697532 0
M  V30 4108 H 382.714 4.71215 -0.865658 0
M  V30 4109 H 381.078 2.52075 -0.3647 0
M  V30 4110 H 381.861 2.77864 -2.0161 0
M  V30 4111 N 384.306 0.507319 1.49211 0
M  V30 4112 C 385.717 0.0611118 1.866 0
M  V30 4113 C 386.068 -1.35488 1.41907 0
M  V30 4114 O 385.193 -2.0108 0.799726 0
M  V30 4115 C 385.788 0.104125 3.3864 0
M  V30 4116 C 384.347 -0.28677 3.75306 0
M  V30 4117 C 383.494 0.473893 2.73221 0
M  V30 4118 H 386.445 0.719775 1.41439 0
M  V30 4119 H 386.466 -0.689672 3.74198 0
M  V30 4120 H 385.978 1.13482 3.71138 0
M  V30 4121 H 384.079 -1.32046 3.48417 0
M  V30 4122 H 384.192 0.0370745 4.79086 0
M  V30 4123 H 382.556 -0.0770644 2.54583 0
M  V30 4124 H 383.339 1.50478 3.08563 0
M  V30 4125 N 385.784 -1.5574 0.241426 0
M  V30 4126 C 387.009 -2.0366 -0.392111 0
M  V30 4127 C 387.434 -1.11969 -1.51144 0
M  V30 4128 O 386.792 -0.111594 -1.80956 0
M  V30 4129 C 386.84 -3.49638 -0.882371 0
M  V30 4130 O 385.944 -3.6108 -1.99235 0
M  V30 4131 H 385.285 -0.658379 -0.0862122 0
M  V30 4132 H 387.815 -2.01302 0.365881 0
M  V30 4133 H 387.825 -3.90351 -1.18702 0
M  V30 4134 H 386.5 -4.15852 -0.0632361 0
M  V30 4135 H 385.077 -3.32262 -1.69282 0
M  V30 4136 N 387.262 0.0317525 -1.57568 0
M  V30 4137 C 388.508 0.724175 -1.8943 0
M  V30 4138 C 388.841 1.75149 -0.838836 0
M  V30 4139 O 388.116 1.93948 0.146422 0
M  V30 4140 C 388.399 1.39615 -3.31933 0
M  V30 4141 C 388.252 0.382537 -4.4817 0
M  V30 4142 C 389.571 2.33084 -3.73309 0
M  V30 4143 H 386.69 0.261797 -0.688935 0
M  V30 4144 H 389.332 -0.013017 -1.89996 0
M  V30 4145 H 387.482 2.02451 -3.31581 0
M  V30 4146 H 389.154 -0.243689 -4.60656 0
M  V30 4147 H 387.397 -0.29844 -4.32772 0
M  V30 4148 H 388.068 0.891145 -5.44759 0
M  V30 4149 H 390.544 1.80295 -3.7501 0
M  V30 4150 H 389.42 2.77084 -4.73831 0
M  V30 4151 H 389.681 3.19643 -3.05419 0
M  V30 4152 N 388.74 1.54641 0.303973 0
M  V30 4153 C 389.98 1.75516 1.04755 0
M  V30 4154 C 390.344 0.528211 1.84591 0
M  V30 4155 O 391.545 0.614645 2.61678 0
M  V30 4156 C 389.816 3.00685 1.93193 0
M  V30 4157 S 391.375 3.42549 2.74237 0
M  V30 4158 H 388.193 0.616987 0.353339 0
M  V30 4159 H 390.795 1.92842 0.321292 0
M  V30 4160 H 389.499 3.8811 1.33411 0
M  V30 4161 H 389.03 2.85937 2.70191 0
M  V30 4162 H 391.045 2.99386 3.95705 0
M  V30 4163 N 390.218 -0.567019 1.47046 0
M  V30 4164 C 391.495 -1.3276 1.43646 0
M  V30 4165 C 391.875 -2.1071 0.128186 0
M  V30 4166 O 391.223 -2.10441 -0.890326 0
M  V30 4167 C 391.433 -2.2404 2.67595 0
M  V30 4168 C 392.781 -2.85372 3.14401 0
M  V30 4169 O 393.805 -2.34346 2.68254 0
M  V30 4170 O 392.664 -3.78091 3.946 0
M  V30 4171 H 389.758 -0.597293 0.571988 0
M  V30 4172 H 392.304 -0.586735 1.59234 0
M  V30 4173 H 391.076 -1.65975 3.54356 0
M  V30 4174 H 390.699 -3.05439 2.54544 0
M  V30 4175 N 391.696 -1.35014 -0.812953 0
M  V30 4176 C 392.626 -1.30069 -1.93919 0
M  V30 4177 C 393.607 -0.176275 -1.69184 0
M  V30 4178 O 394.792 -0.370227 -1.90638 0
M  V30 4179 C 391.922 -1.06547 -3.30552 0
M  V30 4180 C 390.876 -2.15561 -3.69753 0
M  V30 4181 C 390.202 -1.77214 -5.04479 0
M  V30 4182 C 391.502 -3.57476 -3.808 0
M  V30 4183 H 393.196 -2.24303 -1.98314 0
M  V30 4184 H 390.742 -1.07977 -0.952736 0
M  V30 4185 H 392.695 -1.01729 -4.08937 0
M  V30 4186 H 391.419 -0.0875719 -3.26483 0
M  V30 4187 H 390.078 -2.19466 -2.9365 0
M  V30 4188 H 389.726 -0.780589 -4.96906 0
M  V30 4189 H 389.426 -2.50184 -5.31678 0
M  V30 4190 H 390.95 -1.7391 -5.8531 0
M  V30 4191 H 392.364 -3.55929 -4.4943 0
M  V30 4192 H 390.761 -4.29152 -4.19462 0
M  V30 4193 H 391.831 -3.94091 -2.82525 0
M  V30 4194 N 393.175 1.03435 -1.18907 0
M  V30 4195 C 394.138 2.09756 -0.923844 0
M  V30 4196 C 395.138 1.60528 0.093416 0
M  V30 4197 O 396.328 1.73631 -0.140727 0
M  V30 4198 C 393.46 3.38692 -0.387354 0
M  V30 4199 H 394.653 2.34719 -1.86674 0
M  V30 4200 H 392.206 1.19959 -1.00197 0
M  V30 4201 H 392.941 3.19396 0.561845 0
M  V30 4202 H 392.726 3.75742 -1.12074 0
M  V30 4203 H 394.216 4.17016 -0.220694 0
M  V30 4204 N 394.653 0.992116 1.22453 0
M  V30 4205 C 395.899 0.668523 1.91464 0
M  V30 4206 C 396.232 -0.797313 1.77078 0
M  V30 4207 O 395.507 -1.5765 1.13916 0
M  V30 4208 C 395.79 1.07424 3.43703 0
M  V30 4209 C 395.643 2.59857 3.67143 0
M  V30 4210 C 396.962 0.626891 4.35612 0
M  V30 4211 H 394.081 0.244341 0.695318 0
M  V30 4212 H 396.723 1.2355 1.44345 0
M  V30 4213 H 394.873 0.591816 3.83966 0
M  V30 4214 H 396.545 3.15764 3.3629 0
M  V30 4215 H 394.788 3.01961 3.11451 0
M  V30 4216 H 395.459 2.83296 4.73759 0
M  V30 4217 H 397.935 1.04125 4.02861 0
M  V30 4218 H 396.811 0.939076 5.40807 0
M  V30 4219 H 397.072 -0.472457 4.39568 0
M  V30 4220 N 396.131 -1.37776 0.765217 0
M  V30 4221 C 397.041 -2.34135 0.147666 0
M  V30 4222 C 398.057 -1.59854 -0.687215 0
M  V30 4223 O 399.233 -1.91983 -0.608659 0
M  V30 4224 C 396.298 -3.3901 -0.72617 0
M  V30 4225 C 395.359 -4.2912 0.124417 0
M  V30 4226 C 394.592 -5.28986 -0.707807 0
M  V30 4227 O 394.815 -5.36205 -1.94525 0
M  V30 4228 O 393.749 -6.01779 -0.12046 0
M  V30 4229 H 397.575 -2.88664 0.943758 0
M  V30 4230 H 395.16 -1.39824 0.526277 0
M  V30 4231 H 397.042 -4.03195 -1.22524 0
M  V30 4232 H 395.717 -2.86819 -1.50056 0
M  V30 4233 H 394.624 -3.68057 0.669696 0
M  V30 4234 H 395.957 -4.84598 0.861736 0
M  V30 4235 N 397.609 -0.515225 -1.4894 0
M  V30 4236 C 398.855 0.0242508 -2.02785 0
M  V30 4237 C 399.188 1.35323 -1.39289 0
M  V30 4238 O 398.463 1.87041 -0.533469 0
M  V30 4239 C 398.746 0.16184 -3.59736 0
M  V30 4240 C 398.599 -1.19127 -4.33738 0
M  V30 4241 C 399.918 0.895719 -4.30888 0
M  V30 4242 H 397.037 0.00733914 -0.736963 0
M  V30 4243 H 399.679 -0.669395 -1.77818 0
M  V30 4244 H 397.829 0.752624 -3.8114 0
M  V30 4245 H 399.501 -1.82202 -4.23792 0
M  V30 4246 H 397.744 -1.77695 -3.95736 0
M  V30 4247 H 398.415 -1.04815 -5.41957 0
M  V30 4248 H 400.891 0.394528 -4.14225 0
M  V30 4249 H 399.767 0.960859 -5.40425 0
M  V30 4250 H 400.028 1.9427 -3.97129 0
M  V30 4251 N 399.087 1.5561 -0.249682 0
M  V30 4252 C 400.017 2.24477 0.642826 0
M  V30 4253 C 400.998 1.22601 1.17911 0
M  V30 4254 O 402.183 1.5126 1.21795 0
M  V30 4255 C 399.313 2.94638 1.83863 0
M  V30 4256 C 398.267 4.03227 1.435 0
M  V30 4257 C 397.593 4.60828 2.71186 0
M  V30 4258 C 398.893 5.18796 0.604002 0
M  V30 4259 H 400.587 2.99321 0.0685625 0
M  V30 4260 H 398.133 1.43965 0.0315363 0
M  V30 4261 H 400.086 3.41517 2.46868 0
M  V30 4262 H 398.81 2.17287 2.43832 0
M  V30 4263 H 397.469 3.57121 0.828275 0
M  V30 4264 H 397.117 3.80174 3.29358 0
M  V30 4265 H 396.817 5.34132 2.44901 0
M  V30 4266 H 398.341 5.10442 3.35084 0
M  V30 4267 H 399.755 5.61883 1.13842 0
M  V30 4268 H 398.152 5.98506 0.437097 0
M  V30 4269 H 399.222 4.83384 -0.383147 0
M  V30 4270 N 400.565 -0.0233959 1.57583 0
M  V30 4271 C 401.812 -0.713063 1.8953 0
M  V30 4272 C 402.14 -1.75056 0.847673 0
M  V30 4273 O 401.395 -1.95119 -0.150636 0
M  V30 4274 C 401.694 -1.41428 3.28227 0
M  V30 4275 C 401.36 -0.512222 4.47981 0
M  V30 4276 C 400.022 -0.263785 4.80476 0
M  V30 4277 C 402.374 0.110248 5.21083 0
M  V30 4278 C 399.702 0.615804 5.83459 0
M  V30 4279 C 402.054 0.977573 6.25001 0
M  V30 4280 C 400.718 1.23542 6.55968 0
M  V30 4281 H 399.988 -0.260928 0.69354 0
M  V30 4282 H 402.635 0.0271047 1.91481 0
M  V30 4283 H 400.94 -2.22791 3.22291 0
M  V30 4284 H 402.637 -1.95355 3.50196 0
M  V30 4285 H 399.227 -0.716013 4.22577 0
M  V30 4286 H 403.411 -0.0687137 4.96252 0
M  V30 4287 H 398.667 0.82382 6.05824 0
M  V30 4288 H 402.841 1.46638 6.80786 0
M  V30 4289 H 400.468 1.91871 7.35588 0
M  V30 4290 N 402.043 -1.548 -0.295768 0
M  V30 4291 C 403.292 -1.73538 -1.02798 0
M  V30 4292 C 403.605 -0.531159 -1.8825 0
M  V30 4293 O 404.811 -0.600458 -2.64777 0
M  V30 4294 C 403.267 -3.07051 -1.87744 0
M  V30 4295 C 402.875 -4.34968 -1.07269 0
M  V30 4296 C 404.619 -3.35146 -2.60533 0
M  V30 4297 C 402.526 -5.5953 -1.91521 0
M  V30 4298 H 401.456 -0.646794 -0.387522 0
M  V30 4299 H 404.107 -1.81278 -0.284718 0
M  V30 4300 H 402.489 -2.93289 -2.66078 0
M  V30 4301 H 403.663 -4.5958 -0.335117 0
M  V30 4302 H 401.978 -4.13847 -0.460384 0
M  V30 4303 H 404.575 -4.2541 -3.23929 0
M  V30 4304 H 404.918 -2.54255 -3.29636 0
M  V30 4305 H 405.451 -3.49902 -1.89244 0
M  V30 4306 H 402.19 -6.43103 -1.26878 0
M  V30 4307 H 401.71 -5.39096 -2.62937 0
M  V30 4308 H 403.389 -5.96982 -2.49442 0
M  V30 4309 N 403.521 0.559213 -1.47345 0
M  V30 4310 C 404.451 1.67622 -1.62558 0
M  V30 4311 C 405.432 1.63331 -0.475087 0
M  V30 4312 O 406.617 1.80983 -0.704182 0
M  V30 4313 C 403.747 3.0626 -1.63774 0
M  V30 4314 C 402.701 3.25397 -2.7803 0
M  V30 4315 C 402.027 4.64801 -2.64318 0
M  V30 4316 C 403.327 3.10965 -4.19641 0
M  V30 4317 H 405.021 1.55146 -2.56067 0
M  V30 4318 H 402.567 0.744961 -1.23233 0
M  V30 4319 H 404.52 3.84247 -1.73008 0
M  V30 4320 H 403.244 3.1969 -0.66825 0
M  V30 4321 H 401.903 2.49817 -2.68304 0
M  V30 4322 H 401.551 4.75028 -1.65401 0
M  V30 4323 H 401.251 4.78555 -3.40968 0
M  V30 4324 H 402.775 5.44926 -2.75478 0
M  V30 4325 H 404.189 3.78772 -4.30354 0
M  V30 4326 H 402.586 3.36229 -4.97062 0
M  V30 4327 H 403.656 2.07736 -4.38148 0
M  V30 4328 N 404.999 1.35443 0.805782 0
M  V30 4329 C 406.276 1.19325 1.54987 0
M  V30 4330 C 406.656 -0.227294 2.09873 0
M  V30 4331 O 406.004 -1.2309 1.92512 0
M  V30 4332 C 406.214 2.26196 2.65775 0
M  V30 4333 C 407.562 2.62043 3.34094 0
M  V30 4334 O 408.586 2.25115 2.76046 0
M  V30 4335 O 407.445 3.25542 4.38958 0
M  V30 4336 H 404.539 0.463623 0.684823 0
M  V30 4337 H 407.085 1.47127 0.845674 0
M  V30 4338 H 405.857 3.21471 2.23096 0
M  V30 4339 H 405.48 1.99667 3.43829 0
M  V30 4340 N 406.477 -1.02803 1.19454 0
M  V30 4341 C 407.726 -1.7562 0.991996 0
M  V30 4342 C 408.039 -1.89672 -0.477901 0
M  V30 4343 O 409.245 -2.59468 -0.799287 0
M  V30 4344 C 407.701 -3.15812 1.72601 0
M  V30 4345 C 407.309 -3.0981 3.23607 0
M  V30 4346 C 409.053 -3.92918 1.60674 0
M  V30 4347 C 406.96 -4.44939 3.89594 0
M  V30 4348 H 405.89 -0.658352 0.367543 0
M  V30 4349 H 408.541 -1.15044 1.42959 0
M  V30 4350 H 406.923 -3.7686 1.21624 0
M  V30 4351 H 408.097 -2.58138 3.81709 0
M  V30 4352 H 406.412 -2.46201 3.35819 0
M  V30 4353 H 409.009 -4.9287 2.07323 0
M  V30 4354 H 409.352 -4.12502 0.561025 0
M  V30 4355 H 409.885 -3.38472 2.09001 0
M  V30 4356 H 406.624 -4.30559 4.94267 0
M  V30 4357 H 406.144 -4.96664 3.36281 0
M  V30 4358 H 407.823 -5.1382 3.93189 0
M  V30 4359 N 407.956 -0.998596 -1.21925 0
M  V30 4360 C 409.202 -0.678667 -1.91107 0
M  V30 4361 C 409.535 0.78791 -1.77498 0
M  V30 4362 O 408.81 1.57043 -1.1475 0
M  V30 4363 C 409.093 -1.09245 -3.43129 0
M  V30 4364 C 408.946 -2.61801 -3.6576 0
M  V30 4365 C 410.265 -0.649984 -4.35274 0
M  V30 4366 H 407.384 -0.248025 -0.694012 0
M  V30 4367 H 410.026 -1.24314 -1.43688 0
M  V30 4368 H 408.176 -0.612171 -3.83647 0
M  V30 4369 H 409.848 -3.17543 -3.34611 0
M  V30 4370 H 408.091 -3.03609 -3.09845 0
M  V30 4371 H 408.762 -2.85804 -4.7225 0
M  V30 4372 H 411.238 -1.0626 -4.02303 0
M  V30 4373 H 410.114 -0.967743 -5.40302 0
M  V30 4374 H 410.375 0.449139 -4.39813 0
M  V30 4375 N 409.434 1.37368 -0.772513 0
M  V30 4376 C 410.364 2.32856 -0.173304 0
M  V30 4377 C 411.345 1.55818 0.682262 0
M  V30 4378 O 412.53 1.84052 0.619566 0
M  V30 4379 C 409.66 3.40048 0.706007 0
M  V30 4380 C 408.614 4.27973 -0.0483144 0
M  V30 4381 C 407.94 5.26184 0.950491 0
M  V30 4382 C 409.24 5.07665 -1.22776 0
M  V30 4383 H 410.934 2.83217 -0.971002 0
M  V30 4384 H 408.48 1.3617 -0.468377 0
M  V30 4385 H 410.433 4.05827 1.13501 0
M  V30 4386 H 409.157 2.88214 1.53623 0
M  V30 4387 H 407.816 3.63726 -0.458107 0
M  V30 4388 H 407.464 4.7063 1.77529 0
M  V30 4389 H 407.164 5.85872 0.450314 0
M  V30 4390 H 408.688 5.94838 1.37842 0
M  V30 4391 H 410.102 5.66578 -0.875366 0
M  V30 4392 H 408.499 5.76681 -1.66007 0
M  V30 4393 H 409.569 4.40294 -2.03149 0
M  V30 4394 N 410.912 0.523116 1.48665 0
M  V30 4395 C 411.86 -0.256859 2.31177 0
M  V30 4396 C 412.854 -0.94199 1.40794 0
M  V30 4397 O 414.06 -0.867157 1.57735 0
M  V30 4398 H 410.435 -0.1017 0.745091 0
M  V30 4399 H 412.406 0.458739 2.94853 0
M  V30 4400 C 411.155 -1.29503 3.22683 0
M  V30 4401 H 410.478 -0.777248 3.92172 0
M  V30 4402 H 411.918 -1.81233 3.83315 0
M  V30 4403 C 410.377 -2.32501 2.43813 0
M  V30 4404 O 410.907 -3.3881 2.15803 0
M  V30 4405 N 409.113 -2.05538 2.05432 0
M  V30 4406 H 408.66 -1.19104 2.28412 0
M  V30 4407 H 408.618 -2.74676 1.52973 0
M  V30 4408 N 412.39 -1.55475 0.257931 0
M  V30 4409 C 413.637 -1.99207 -0.363728 0
M  V30 4410 C 413.965 -1.1462 -1.57139 0
M  V30 4411 O 413.22 -0.199653 -1.94679 0
M  V30 4412 C 413.519 -3.48183 -0.806433 0
M  V30 4413 C 413.185 -4.49936 0.294684 0
M  V30 4414 C 411.847 -4.77481 0.597076 0
M  V30 4415 C 414.199 -5.10769 1.03751 0
M  V30 4416 C 411.527 -5.63132 1.64618 0
M  V30 4417 C 413.879 -5.97558 2.07622 0
M  V30 4418 C 412.543 -6.23432 2.38514 0
M  V30 4419 H 411.813 -0.728949 -0.133097 0
M  V30 4420 H 414.46 -1.8793 0.368059 0
M  V30 4421 H 412.765 -3.56848 -1.61761 0
M  V30 4422 H 414.462 -3.79415 -1.29789 0
M  V30 4423 H 411.052 -4.28572 0.0488649 0
M  V30 4424 H 415.236 -4.89527 0.817149 0
M  V30 4425 H 410.492 -5.8143 1.89074 0
M  V30 4426 H 414.666 -6.43735 2.65666 0
M  V30 4427 H 412.293 -6.89594 3.19943 0
M  V30 4428 N 413.868 0.0150385 -1.57593 0
M  V30 4429 C 415.284 0.370907 -1.5523 0
M  V30 4430 C 415.484 1.75735 -0.985882 0
M  V30 4431 O 414.54 2.44944 -0.613077 0
M  V30 4432 C 415.853 0.259908 -2.99575 0
M  V30 4433 C 417.401 0.335959 -3.11192 0
M  V30 4434 C 417.876 0.254253 -4.57294 0
M  V30 4435 N 419.367 0.312618 -4.62144 0
M  V30 4436 C 420.102 0.272505 -5.72752 0
M  V30 4437 N 419.598 0.183864 -6.92556 0
M  V30 4438 N 421.391 0.323267 -5.6117 0
M  V30 4439 H 413.542 -0.892104 -1.92757 0
M  V30 4440 H 415.805 -0.340563 -0.884715 0
M  V30 4441 H 415.511 -0.693403 -3.44797 0
M  V30 4442 H 415.385 1.048 -3.62349 0
M  V30 4443 H 417.772 1.27971 -2.65909 0
M  V30 4444 H 417.853 -0.481739 -2.51223 0
M  V30 4445 H 417.497 -0.685887 -5.03247 0
M  V30 4446 H 417.427 1.09024 -5.15191 0
M  V30 4447 H 419.918 0.38307 -3.75953 0
M  V30 4448 H 420.231 0.15874 -7.72637 0
M  V30 4449 H 418.576 0.149708 -6.94839 0
M  V30 4450 H 421.767 0.390607 -4.66467 0
M  V30 4451 H 421.94 0.288539 -6.47357 0
M  V30 4452 N 415.346 1.54954 0.287554 0
M  V30 4453 C 416.574 1.78881 1.03967 0
M  V30 4454 C 416.989 0.554894 1.80462 0
M  V30 4455 O 416.346 -0.475676 1.76192 0
M  V30 4456 C 416.397 3.00488 2.0097 0
M  V30 4457 O 416.118 4.19113 1.27577 0
M  V30 4458 C 417.619 3.36907 2.88112 0
M  V30 4459 H 414.839 0.596259 0.307761 0
M  V30 4460 H 417.383 2.01937 0.322749 0
M  V30 4461 H 415.538 2.79601 2.68145 0
M  V30 4462 H 415.952 4.87765 1.92835 0
M  V30 4463 H 417.426 4.25205 3.52001 0
M  V30 4464 H 417.903 2.55659 3.57121 0
M  V30 4465 H 418.509 3.60001 2.26449 0
M  V30 4466 N 416.824 -0.551391 1.4764 0
M  V30 4467 C 418.052 -1.33357 1.58189 0
M  V30 4468 C 418.467 -1.87342 0.234199 0
M  V30 4469 O 417.824 -1.65301 -0.77343 0
M  V30 4470 C 417.875 -2.49942 2.61173 0
M  V30 4471 O 417.596 -1.98187 3.90709 0
M  V30 4472 C 419.097 -3.42072 2.8196 0
M  V30 4473 H 416.317 -0.40631 0.533998 0
M  V30 4474 H 418.861 -0.667367 1.93304 0
M  V30 4475 H 417.016 -3.12489 2.28975 0
M  V30 4476 H 417.43 -2.74342 4.47031 0
M  V30 4477 H 418.904 -4.20278 3.57869 0
M  V30 4478 H 419.381 -3.95978 1.89995 0
M  V30 4479 H 419.987 -2.85336 3.15378 0
M  V30 4480 N 418.302 -1.35869 -0.798587 0
M  V30 4481 C 419.549 -1.29588 -1.55606 0
M  V30 4482 C 419.877 0.127456 -1.94082 0
M  V30 4483 O 419.132 1.09461 -1.62225 0
M  V30 4484 C 419.431 -2.1556 -2.85077 0
M  V30 4485 C 419.097 -3.6424 -2.65781 0
M  V30 4486 C 417.759 -4.04766 -2.60227 0
M  V30 4487 C 420.111 -4.58547 -2.47758 0
M  V30 4488 C 417.439 -5.37753 -2.34603 0
M  V30 4489 C 419.791 -5.91742 -2.23662 0
M  V30 4490 C 418.455 -6.31402 -2.16534 0
M  V30 4491 H 417.725 -0.474197 -0.569402 0
M  V30 4492 H 420.372 -1.67839 -0.922086 0
M  V30 4493 H 418.677 -1.70216 -3.52893 0
M  V30 4494 H 420.374 -2.08031 -3.42818 0
M  V30 4495 H 416.964 -3.32086 -2.70956 0
M  V30 4496 H 421.148 -4.28117 -2.51056 0
M  V30 4497 H 416.404 -5.67474 -2.2756 0
M  V30 4498 H 420.578 -6.6439 -2.08708 0
M  V30 4499 H 418.205 -7.34381 -1.96441 0
M  V30 4500 N 419.78 1.02168 -1.19998 0
M  V30 4501 C 421.026 1.75945 -1.00852 0
M  V30 4502 C 421.359 1.88702 0.458828 0
M  V30 4503 O 420.634 1.40911 1.34069 0
M  V30 4504 C 420.917 3.18154 -1.68671 0
M  V30 4505 C 420.77 3.13224 -3.22817 0
M  V30 4506 C 422.089 4.16711 -1.41561 0
M  V30 4507 H 419.208 0.638673 -0.367785 0
M  V30 4508 H 421.85 1.19222 -1.4794 0
M  V30 4509 H 420 3.66586 -1.28636 0
M  V30 4510 H 421.672 2.72635 -3.72112 0
M  V30 4511 H 419.915 2.50751 -3.53986 0
M  V30 4512 H 420.586 4.13728 -3.65422 0
M  V30 4513 H 423.062 3.76913 -1.76284 0
M  V30 4514 H 421.938 5.14391 -1.91553 0
M  V30 4515 H 422.199 4.40774 -0.342193 0
M  V30 4516 N 421.258 1.00505 1.21394 0
M  V30 4517 C 422.483 0.706367 1.95001 0
M  V30 4518 C 422.908 -0.72463 1.73582 0
M  V30 4519 O 422.266 -1.49702 1.0227 0
M  V30 4520 C 422.314 1.03299 3.45487 0
M  V30 4521 O 421.418 0.138275 4.12168 0
M  V30 4522 H 420.759 0.263175 0.609619 0
M  V30 4523 H 423.289 1.34531 1.54151 0
M  V30 4524 H 423.299 0.979872 3.96059 0
M  V30 4525 H 421.974 2.07567 3.60401 0
M  V30 4526 H 420.551 0.247928 3.72075 0
M  V30 4527 N 422.737 -1.36956 0.779787 0
M  V30 4528 C 423.684 -2.30175 0.169697 0
M  V30 4529 C 424.654 -1.51501 -0.68094 0
M  V30 4530 O 425.839 -1.80042 -0.631629 0
M  V30 4531 C 422.979 -3.37985 -0.697131 0
M  V30 4532 C 422.092 -4.31661 0.170992 0
M  V30 4533 C 421.227 -5.2655 -0.701298 0
M  V30 4534 C 420.266 -6.11867 0.168869 0
M  V30 4535 N 419.403 -6.98973 -0.661855 0
M  V30 4536 H 424.243 -2.81767 0.970135 0
M  V30 4537 H 421.78 -1.38699 0.489994 0
M  V30 4538 H 423.738 -3.99128 -1.2146 0
M  V30 4539 H 422.368 -2.87739 -1.46309 0
M  V30 4540 H 421.42 -3.71756 0.80634 0
M  V30 4541 H 422.732 -4.91644 0.841875 0
M  V30 4542 H 421.886 -5.92937 -1.28494 0
M  V30 4543 H 420.625 -4.66998 -1.40584 0
M  V30 4544 H 419.63 -5.44452 0.764986 0
M  V30 4545 H 420.855 -6.73493 0.870863 0
M  V30 4546 H 418.801 -6.41941 -1.35086 0
M  V30 4547 H 418.718 -7.55984 -0.0484447 0
M  V30 4548 H 419.986 -7.6974 -1.22963 0
M  V30 4549 N 424.215 -0.530993 -1.48385 0
M  V30 4550 C 425.44 0.000729535 -2.074 0
M  V30 4551 C 425.865 1.27298 -1.3848 0
M  V30 4552 O 425.223 1.75599 -0.451081 0
M  V30 4553 C 425.271 0.206697 -3.60007 0
M  V30 4554 O 424.375 1.27514 -3.92191 0
M  V30 4555 H 423.716 -0.039583 -0.662819 0
M  V30 4556 H 426.246 -0.739194 -1.9078 0
M  V30 4557 H 426.256 0.42904 -4.05738 0
M  V30 4558 H 424.931 -0.722675 -4.09573 0
M  V30 4559 H 423.508 1.03537 -3.58238 0
M  V30 4560 N 425.693 1.55336 -0.266172 0
M  V30 4561 C 426.941 1.99003 0.35246 0
M  V30 4562 C 427.262 1.15591 1.57047 0
M  V30 4563 O 426.532 0.243268 1.94384 0
M  V30 4564 H 425.112 0.735025 0.133217 0
M  V30 4565 H 427.774 1.91367 -0.369434 0
M  V30 4566 H 426.87 3.05289 0.648453 0
M  V30 4567 N 427.171 -0.0066808 1.57599 0
M  V30 4568 C 428.103 -1.02827 2.04839 0
M  V30 4569 C 429.116 -1.31108 0.965113 0
M  V30 4570 O 430.305 -1.28202 1.24203 0
M  V30 4571 C 427.405 -2.36464 2.42771 0
M  V30 4572 C 426.578 -2.27219 3.73751 0
M  V30 4573 C 425.637 -3.43489 3.98625 0
M  V30 4574 O 424.663 -3.21976 4.69382 0
M  V30 4575 N 425.865 -4.66116 3.46 0
M  V30 4576 H 428.63 -0.625455 2.93101 0
M  V30 4577 H 426.191 -0.194198 1.60731 0
M  V30 4578 H 428.183 -3.13008 2.56531 0
M  V30 4579 H 426.753 -2.68512 1.60063 0
M  V30 4580 H 425.973 -1.35629 3.70133 0
M  V30 4581 H 427.261 -2.18208 4.59633 0
M  V30 4582 H 426.659 -4.86493 2.88688 0
M  V30 4583 H 425.216 -5.39949 3.65101 0
M  V30 4584 N 428.649 -1.55105 -0.279332 0
M  V30 4585 C 429.895 -1.75672 -1.01327 0
M  V30 4586 C 430.228 -0.552739 -1.86168 0
M  V30 4587 O 429.503 0.449827 -1.89227 0
M  V30 4588 C 429.786 -3.05825 -1.90114 0
M  V30 4589 C 429.639 -4.36565 -1.08309 0
M  V30 4590 C 430.958 -3.31975 -2.8893 0
M  V30 4591 H 428.077 -0.639149 -0.366957 0
M  V30 4592 H 430.719 -1.87833 -0.286154 0
M  V30 4593 H 428.869 -2.95588 -2.52111 0
M  V30 4594 H 430.541 -4.58751 -0.484314 0
M  V30 4595 H 428.784 -4.32076 -0.386362 0
M  V30 4596 H 429.455 -5.23946 -1.73737 0
M  V30 4597 H 431.931 -3.41963 -2.37067 0
M  V30 4598 H 430.807 -4.2432 -3.48201 0
M  V30 4599 H 431.068 -2.51309 -3.63725 0
M  V30 4600 N 430.127 0.543554 -1.4793 0
M  V30 4601 C 431.373 1.30201 -1.55485 0
M  V30 4602 C 431.706 1.92925 -0.222201 0
M  V30 4603 O 430.981 1.78586 0.77053 0
M  V30 4604 C 431.264 2.40174 -2.68307 0
M  V30 4605 C 431.117 1.8223 -4.11233 0
M  V30 4606 C 432.436 3.42024 -2.76961 0
M  V30 4607 H 429.555 0.472036 -0.565996 0
M  V30 4608 H 432.197 0.606914 -1.80046 0
M  V30 4609 H 430.347 2.99463 -2.47495 0
M  V30 4610 H 432.019 1.27096 -4.43446 0
M  V30 4611 H 430.262 1.12832 -4.18869 0
M  V30 4612 H 430.933 2.61793 -4.85972 0
M  V30 4613 H 433.409 2.92672 -2.95774 0
M  V30 4614 H 432.285 4.16383 -3.57654 0
M  V30 4615 H 432.546 4.0173 -1.84568 0
M  V30 4616 N 431.605 1.3629 0.791371 0
M  V30 4617 C 432.852 1.30412 1.54916 0
M  V30 4618 C 433.18 -0.117162 1.94147 0
M  V30 4619 O 432.435 -1.08599 1.62803 0
M  V30 4620 C 432.734 2.17068 2.8393 0
M  V30 4621 C 432.4 3.65645 2.63846 0
M  V30 4622 C 431.062 4.0614 2.58077 0
M  V30 4623 C 433.414 4.59855 2.45322 0
M  V30 4624 C 430.742 5.3899 2.31748 0
M  V30 4625 C 433.094 5.9292 2.2052 0
M  V30 4626 C 431.758 6.32542 2.13183 0
M  V30 4627 H 431.028 0.47721 0.566879 0
M  V30 4628 H 433.675 1.68325 0.913172 0
M  V30 4629 H 431.98 1.72085 3.51986 0
M  V30 4630 H 433.677 2.09846 3.4171 0
M  V30 4631 H 430.267 3.33518 2.69191 0
M  V30 4632 H 434.451 4.29443 2.48782 0
M  V30 4633 H 429.707 5.68672 2.24548 0
M  V30 4634 H 433.881 6.65487 2.05182 0
M  V30 4635 H 431.508 7.35412 1.92544 0
M  V30 4636 N 433.083 -1.0153 1.20538 0
M  V30 4637 C 434.046 -2.0826 0.957098 0
M  V30 4638 C 435.046 -1.60657 -0.0678655 0
M  V30 4639 O 436.236 -1.73385 0.168332 0
M  V30 4640 C 433.368 -3.38033 0.441188 0
M  V30 4641 H 434.561 -2.31719 1.90384 0
M  V30 4642 H 432.114 -1.1835 1.02093 0
M  V30 4643 H 432.849 -3.20249 -0.510961 0
M  V30 4644 H 432.634 -3.73911 1.18038 0
M  V30 4645 H 434.124 -4.16613 0.287009 0
M  V30 4646 N 434.561 -1.01147 -1.20859 0
M  V30 4647 C 435.972 -0.730205 -1.71828 0
M  V30 4648 C 436.323 0.751662 -1.8123 0
M  V30 4649 O 435.448 1.58686 -1.47132 0
M  V30 4650 C 436.043 -1.31885 -3.12077 0
M  V30 4651 C 434.602 -1.08656 -3.60376 0
M  V30 4652 C 433.749 -1.42769 -2.37723 0
M  V30 4653 H 436.7 -1.18158 -1.05945 0
M  V30 4654 H 436.721 -0.706793 -3.73878 0
M  V30 4655 H 436.233 -2.39737 -3.05201 0
M  V30 4656 H 434.334 -0.0254814 -3.72591 0
M  V30 4657 H 434.447 -1.76301 -4.45483 0
M  V30 4658 H 432.811 -0.846603 -2.40218 0
M  V30 4659 H 433.594 -2.51666 -2.33493 0
M  V30 4660 N 436.039 1.36541 -0.78704 0
M  V30 4661 C 436.986 2.30082 -0.181901 0
M  V30 4662 C 437.956 1.5186 0.672896 0
M  V30 4663 O 439.141 1.80374 0.622072 0
M  V30 4664 C 436.281 3.3835 0.679197 0
M  V30 4665 C 435.394 4.31565 -0.193882 0
M  V30 4666 C 434.529 5.26915 0.673364 0
M  V30 4667 C 433.568 6.11769 -0.201315 0
M  V30 4668 N 432.705 6.99315 0.624777 0
M  V30 4669 H 437.545 2.81248 -0.985064 0
M  V30 4670 H 435.082 1.38437 -0.497342 0
M  V30 4671 H 437.04 3.99767 1.19341 0
M  V30 4672 H 435.67 2.8851 1.44781 0
M  V30 4673 H 434.722 3.71323 -0.826044 0
M  V30 4674 H 436.034 4.91191 -0.867937 0
M  V30 4675 H 435.188 5.9361 1.25348 0
M  V30 4676 H 433.927 4.67737 1.38105 0
M  V30 4677 H 432.932 5.44039 -0.793849 0
M  V30 4678 H 434.157 6.73022 -0.906568 0
M  V30 4679 H 432.103 6.42648 1.3168 0
M  V30 4680 H 432.02 7.56 0.00835237 0
M  V30 4681 H 433.288 7.70382 1.18879 0
M  V30 4682 N 437.518 0.538854 1.48102 0
M  V30 4683 C 438.743 0.0102694 2.07397 0
M  V30 4684 C 439.168 -1.26562 1.39153 0
M  V30 4685 O 438.526 -1.75357 0.460387 0
M  V30 4686 C 438.574 -0.187602 3.60112 0
M  V30 4687 O 437.678 -1.25432 3.92862 0
M  V30 4688 H 437.019 0.0430975 0.6626 0
M  V30 4689 H 439.549 0.749301 1.90385 0
M  V30 4690 H 439.559 -0.407517 4.0596 0
M  V30 4691 H 438.234 0.744386 4.09184 0
M  V30 4692 H 436.811 -1.01636 3.58782 0
M  V30 4693 N 438.996 -1.55193 0.274407 0
M  V30 4694 C 440.245 -1.98758 -0.343213 0
M  V30 4695 C 440.558 -1.16624 -1.5703 0
M  V30 4696 O 441.764 -1.5033 -2.26082 0
M  V30 4697 C 440.22 -3.53759 -0.661996 0
M  V30 4698 C 439.828 -4.4467 0.54524 0
M  V30 4699 C 441.572 -4.05916 -1.24228 0
M  V30 4700 C 439.479 -5.91058 0.201084 0
M  V30 4701 H 438.409 -0.742353 -0.132014 0
M  V30 4702 H 441.06 -1.79545 0.378948 0
M  V30 4703 H 439.442 -3.68772 -1.44304 0
M  V30 4704 H 440.616 -4.41426 1.32212 0
M  V30 4705 H 438.931 -4.03143 1.04232 0
M  V30 4706 H 441.528 -5.12831 -1.51357 0
M  V30 4707 H 441.871 -3.54908 -2.17592 0
M  V30 4708 H 442.404 -3.9434 -0.523542 0
M  V30 4709 H 439.143 -6.46161 1.10258 0
M  V30 4710 H 438.663 -5.97373 -0.539045 0
M  V30 4711 H 440.342 -6.46669 -0.206954 0
M  V30 4712 N 440.474 -0.00167713 -1.576 0
M  V30 4713 C 441.714 0.687302 -1.92498 0
M  V30 4714 C 442.078 1.70844 -0.876144 0
M  V30 4715 O 443.279 2.44792 -1.11043 0
M  V30 4716 C 441.55 1.31217 -3.32441 0
M  V30 4717 S 443.109 2.02604 -3.89226 0
M  V30 4718 H 439.927 0.226985 -0.673794 0
M  V30 4719 H 442.529 -0.0587666 -1.95412 0
M  V30 4720 H 441.233 0.556164 -4.06614 0
M  V30 4721 H 440.764 2.09613 -3.32905 0
M  V30 4722 H 442.779 3.30137 -3.70438 0
M  V30 4723 N 441.952 1.55251 0.271103 0
M  V30 4724 C 442.882 1.9127 1.33933 0
M  V30 4725 C 443.863 0.77478 1.5143 0
M  V30 4726 O 445.048 1.03307 1.64442 0
M  V30 4727 C 442.178 2.18627 2.69851 0
M  V30 4728 C 441.132 3.34442 2.67081 0
M  V30 4729 C 440.458 3.47284 4.06569 0
M  V30 4730 C 441.758 4.70784 2.26185 0
M  V30 4731 H 443.452 2.80744 1.04035 0
M  V30 4732 H 440.998 1.35077 0.499017 0
M  V30 4733 H 442.951 2.42413 3.44694 0
M  V30 4734 H 441.675 1.25955 3.01335 0
M  V30 4735 H 440.334 3.10627 1.94695 0
M  V30 4736 H 439.982 2.52074 4.35279 0
M  V30 4737 H 439.682 4.25152 4.0561 0
M  V30 4738 H 441.206 3.73363 4.83148 0
M  V30 4739 H 442.62 4.94102 2.90751 0
M  V30 4740 H 441.017 5.51582 2.36384 0
M  V30 4741 H 442.087 4.69478 1.21319 0
M  V30 4742 N 443.43 -0.535701 1.48216 0
M  V30 4743 C 444.38 -1.63688 1.58714 0
M  V30 4744 C 445.364 -1.54635 0.444615 0
M  V30 4745 O 446.556 -1.62753 0.695742 0
M  V30 4746 C 443.685 -3.02423 1.62466 0
M  V30 4747 C 442.771 -3.16601 2.82178 0
M  V30 4748 N 443.162 -3.00771 4.06658 0
M  V30 4749 C 441.46 -3.47645 2.79391 0
M  V30 4750 C 442.161 -3.18213 4.86945 0
M  V30 4751 N 441.137 -3.45528 4.19656 0
M  V30 4752 H 444.939 -1.5005 2.5271 0
M  V30 4753 H 442.453 -0.741018 1.44508 0
M  V30 4754 H 444.45 -3.81517 1.6808 0
M  V30 4755 H 443.11 -3.17157 0.695826 0
M  V30 4756 H 444.121 -2.77652 4.37184 0
M  V30 4757 H 440.798 -3.68771 1.95739 0
M  V30 4758 H 442.188 -3.1076 5.95716 0
M  V30 4759 N 444.908 -1.36708 -0.784132 0
M  V30 4760 C 446.138 -1.34203 -1.57077 0
M  V30 4761 C 446.546 0.0774945 -1.89041 0
M  V30 4762 O 445.889 1.04628 -1.50992 0
M  V30 4763 C 445.951 -2.10351 -2.91535 0
M  V30 4764 C 445.615 -3.59405 -2.82272 0
M  V30 4765 C 446.612 -4.53545 -2.54151 0
M  V30 4766 C 444.297 -4.02362 -3.00683 0
M  V30 4767 C 446.291 -5.8862 -2.44551 0
M  V30 4768 C 443.978 -5.37526 -2.90704 0
M  V30 4769 C 444.976 -6.30468 -2.62677 0
M  V30 4770 O 444.664 -7.63149 -2.52702 0
M  V30 4771 H 444.396 -0.461791 -0.493685 0
M  V30 4772 H 446.95 -1.80475 -0.980712 0
M  V30 4773 H 445.18 -1.5875 -3.52612 0
M  V30 4774 H 446.869 -2.00636 -3.52845 0
M  V30 4775 H 447.635 -4.21669 -2.39625 0
M  V30 4776 H 443.514 -3.30389 -3.21503 0
M  V30 4777 H 447.058 -6.61133 -2.22596 0
M  V30 4778 H 442.955 -5.69008 -3.04795 0
M  V30 4779 H 443.723 -7.73331 -2.68144 0
M  V30 4780 N 446.386 1.0089 -1.21074 0
M  V30 4781 C 447.632 1.74866 -1.02712 0
M  V30 4782 C 447.965 1.89178 0.438787 0
M  V30 4783 O 447.24 1.42325 1.32567 0
M  V30 4784 C 447.523 3.16347 -1.72036 0
M  V30 4785 C 447.376 3.09782 -3.26121 0
M  V30 4786 C 448.695 4.15187 -1.45973 0
M  V30 4787 H 445.814 0.634736 -0.374539 0
M  V30 4788 H 448.456 1.17646 -1.49196 0
M  V30 4789 H 446.606 3.65201 -1.32517 0
M  V30 4790 H 448.278 2.68673 -3.74983 0
M  V30 4791 H 446.521 2.46982 -3.56626 0
M  V30 4792 H 447.192 4.09829 -3.6979 0
M  V30 4793 H 449.668 3.75022 -1.80272 0
M  V30 4794 H 448.544 5.12331 -1.96999 0
M  V30 4795 H 448.805 4.40386 -0.388924 0
M  V30 4796 N 447.864 1.01787 1.20321 0
M  V30 4797 C 449.092 0.727194 1.937 0
M  V30 4798 C 449.507 -0.712305 1.74848 0
M  V30 4799 O 448.864 -1.48327 1.06327 0
M  V30 4800 C 448.915 1.05497 3.45764 0
M  V30 4801 O 448.636 2.43794 3.64 0
M  V30 4802 C 450.137 0.785534 4.36285 0
M  V30 4803 H 447.357 0.266939 0.615617 0
M  V30 4804 H 449.901 1.35939 1.52777 0
M  V30 4805 H 448.056 0.468158 3.84561 0
M  V30 4806 H 448.47 2.55656 4.57974 0
M  V30 4807 H 449.944 1.06495 5.4163 0
M  V30 4808 H 450.421 -0.280273 4.38305 0
M  V30 4809 H 451.027 1.35456 4.03152 0
M  V30 4810 N 449.342 -1.36122 0.79427 0
M  V30 4811 C 450.57 -2.03362 0.380989 0
M  V30 4812 C 450.985 -1.59881 -1.00416 0
M  V30 4813 O 450.342 -0.790515 -1.6449 0
M  V30 4814 C 450.393 -3.58804 0.440649 0
M  V30 4815 O 450.114 -4.007 1.77118 0
M  V30 4816 C 451.615 -4.43296 0.0186117 0
M  V30 4817 H 448.835 -0.652526 0.156367 0
M  V30 4818 H 451.379 -1.73998 1.07447 0
M  V30 4819 H 449.534 -3.8686 -0.204458 0
M  V30 4820 H 449.948 -4.95309 1.72538 0
M  V30 4821 H 451.422 -5.51887 0.111488 0
M  V30 4822 H 451.899 -4.2684 -1.03461 0
M  V30 4823 H 452.505 -4.20512 0.636395 0
M  V30 4824 N 450.82 -0.546701 -1.47814 0
M  V30 4825 C 452.066 -0.0269594 -2.03382 0
M  V30 4826 C 452.421 1.30406 -1.41464 0
M  V30 4827 O 451.714 1.8332 -0.557151 0
M  V30 4828 C 451.908 0.134869 -3.57145 0
M  V30 4829 C 451.737 -1.17891 -4.33972 0
M  V30 4830 C 450.507 -1.74336 -4.74273 0
M  V30 4831 C 452.705 -2.09361 -4.69758 0
M  V30 4832 N 450.687 -2.99829 -5.35701 0
M  V30 4833 C 452.058 -3.19431 -5.31379 0
M  V30 4834 C 454.113 -2.09484 -4.51687 0
M  V30 4835 C 452.816 -4.2971 -5.76838 0
M  V30 4836 C 454.842 -3.18767 -4.98138 0
M  V30 4837 C 454.204 -4.27557 -5.59799 0
M  V30 4838 H 450.303 -0.0517733 -0.780284 0
M  V30 4839 H 452.887 -0.731673 -1.80429 0
M  V30 4840 H 451.058 0.80869 -3.79888 0
M  V30 4841 H 452.79 0.655726 -3.99352 0
M  V30 4842 H 449.545 -1.28265 -4.559 0
M  V30 4843 H 449.969 -3.63765 -5.70968 0
M  V30 4844 H 454.611 -1.26663 -4.03381 0
M  V30 4845 H 452.329 -5.13297 -6.24141 0
M  V30 4846 H 455.915 -3.19937 -4.85934 0
M  V30 4847 H 454.795 -5.10725 -5.95088 0
M  V30 4848 N 452.299 1.55045 -0.282633 0
M  V30 4849 C 453.546 1.9976 0.33199 0
M  V30 4850 C 453.874 1.17105 1.55295 0
M  V30 4851 O 453.129 0.230599 1.94337 0
M  V30 4852 C 453.428 3.49422 0.750938 0
M  V30 4853 C 453.094 4.4941 -0.366228 0
M  V30 4854 C 451.756 4.76471 -0.672964 0
M  V30 4855 C 454.108 5.09054 -1.11864 0
M  V30 4856 C 451.436 5.60442 -1.73556 0
M  V30 4857 C 453.788 5.9418 -2.17102 0
M  V30 4858 C 452.452 6.19558 -2.48402 0
M  V30 4859 H 451.722 0.730974 0.121484 0
M  V30 4860 H 454.369 1.8732 -0.39791 0
M  V30 4861 H 452.674 3.59377 1.56063 0
M  V30 4862 H 454.371 3.81432 1.23736 0
M  V30 4863 H 450.961 4.2844 -0.117041 0
M  V30 4864 H 455.145 4.88165 -0.894925 0
M  V30 4865 H 450.401 5.78349 -1.983 0
M  V30 4866 H 454.575 6.39427 -2.75873 0
M  V30 4867 H 452.202 6.84417 -3.30874 0
M  V30 4868 N 453.777 0.010035 1.57597 0
M  V30 4869 C 454.707 -0.976857 2.12084 0
M  V30 4870 C 455.688 -1.35191 1.03235 0
M  V30 4871 O 456.873 -1.43389 1.3097 0
M  V30 4872 C 454.003 -2.26548 2.63236 0
M  V30 4873 C 452.957 -2.03175 3.76701 0
M  V30 4874 C 452.283 -3.38138 4.14206 0
M  V30 4875 C 453.583 -1.38625 5.03568 0
M  V30 4876 H 455.277 -0.523145 2.94794 0
M  V30 4877 H 452.823 -0.250195 1.4181 0
M  V30 4878 H 454.776 -2.95952 2.99984 0
M  V30 4879 H 453.5 -2.74051 1.77661 0
M  V30 4880 H 452.159 -1.36195 3.40362 0
M  V30 4881 H 451.807 -3.83363 3.25641 0
M  V30 4882 H 451.507 -3.23312 4.90656 0
M  V30 4883 H 453.031 -4.08841 4.53521 0
M  V30 4884 H 454.445 -1.98 5.38023 0
M  V30 4885 H 452.842 -1.34256 5.84889 0
M  V30 4886 H 453.912 -0.356722 4.83586 0
M  V30 4887 N 455.255 -1.55392 -0.262866 0
M  V30 4888 C 456.185 -1.91978 -1.32917 0
M  V30 4889 C 457.166 -0.7828 -1.51017 0
M  V30 4890 O 458.351 -1.04178 -1.63892 0
M  V30 4891 C 455.481 -2.20055 -2.68687 0
M  V30 4892 C 454.435 -3.35854 -2.65304 0
M  V30 4893 C 453.761 -3.49435 -4.04721 0
M  V30 4894 C 455.061 -4.71977 -2.23685 0
M  V30 4895 H 456.755 -2.81292 -1.02544 0
M  V30 4896 H 454.301 -1.3534 -0.491846 0
M  V30 4897 H 456.254 -2.44237 -3.43404 0
M  V30 4898 H 454.978 -1.27551 -3.00663 0
M  V30 4899 H 453.637 -3.11655 -1.93045 0
M  V30 4900 H 453.285 -2.54379 -4.33936 0
M  V30 4901 H 452.985 -4.27297 -4.0335 0
M  V30 4902 H 454.509 -3.7592 -4.81161 0
M  V30 4903 H 455.923 -4.95637 -2.88127 0
M  V30 4904 H 454.32 -5.52828 -2.33456 0
M  V30 4905 H 455.39 -4.70115 -1.18827 0
M  V30 4906 N 456.733 0.527833 -1.48498 0
M  V30 4907 C 458.01 1.28905 -1.47115 0
M  V30 4908 C 458.39 2.10297 -0.184007 0
M  V30 4909 O 457.738 2.12728 0.834218 0
M  V30 4910 C 457.948 2.16866 -2.73441 0
M  V30 4911 C 459.296 2.76936 -3.21857 0
M  V30 4912 O 460.32 2.27152 -2.74373 0
M  V30 4913 O 459.179 3.67496 -4.04486 0
M  V30 4914 H 456.273 0.581918 -0.587623 0
M  V30 4915 H 458.819 0.544311 -1.60734 0
M  V30 4916 H 457.591 1.56521 -3.58632 0
M  V30 4917 H 457.214 2.98583 -2.62553 0
M  V30 4918 N 458.211 1.37122 0.776871 0
M  V30 4919 C 459.457 1.32243 1.53752 0
M  V30 4920 C 459.79 -0.0944745 1.9397 0
M  V30 4921 O 459.065 -1.05068 1.6368 0
M  V30 4922 C 459.348 2.25681 2.80607 0
M  V30 4923 C 459.201 3.76127 2.46676 0
M  V30 4924 C 460.52 2.17657 3.82509 0
M  V30 4925 H 457.639 0.481704 0.557791 0
M  V30 4926 H 460.281 1.6778 0.891612 0
M  V30 4927 H 458.431 1.95505 3.35723 0
M  V30 4928 H 460.103 4.16877 1.97513 0
M  V30 4929 H 458.346 3.94946 1.79443 0
M  V30 4930 H 459.017 4.36933 3.37333 0
M  V30 4931 H 461.493 2.44245 3.36873 0
M  V30 4932 H 460.369 2.85185 4.69 0
M  V30 4933 H 460.63 1.16785 4.26396 0
M  V30 4934 N 459.689 -1.00246 1.21608 0
M  V30 4935 C 460.938 -1.73476 1.02902 0
M  V30 4936 C 461.251 -1.90643 -0.437561 0
M  V30 4937 O 462.457 -2.61105 -0.74407 0
M  V30 4938 C 460.913 -3.12079 1.79261 0
M  V30 4939 C 460.521 -3.02877 3.30106 0
M  V30 4940 C 462.265 -3.89421 1.68972 0
M  V30 4941 C 460.172 -4.36575 3.98944 0
M  V30 4942 H 459.102 -0.650408 0.381425 0
M  V30 4943 H 461.753 -1.11985 1.45367 0
M  V30 4944 H 460.135 -3.74196 1.2959 0
M  V30 4945 H 461.309 -2.49983 3.87098 0
M  V30 4946 H 459.624 -2.39022 3.40965 0
M  V30 4947 H 462.221 -4.88362 2.17731 0
M  V30 4948 H 462.564 -4.1122 0.648397 0
M  V30 4949 H 463.097 -3.33963 2.16133 0
M  V30 4950 H 459.836 -4.19978 5.03288 0
M  V30 4951 H 459.356 -4.8942 3.4674 0
M  V30 4952 H 461.035 -5.05364 4.04 0
M  V30 4953 N 461.167 -1.02423 -1.1978 0
M  V30 4954 C 462.13 -0.605703 -2.21052 0
M  V30 4955 C 463.13 0.328209 -1.57415 0
M  V30 4956 O 464.32 0.115853 -1.73814 0
M  V30 4957 C 461.452 0.114366 -3.40708 0
M  V30 4958 H 462.645 -1.5017 -2.59594 0
M  V30 4959 H 460.198 -0.814888 -1.33376 0
M  V30 4960 H 460.933 1.02492 -3.07678 0
M  V30 4961 H 460.718 -0.556641 -3.88129 0
M  V30 4962 H 462.208 0.394272 -4.15735 0
M  V30 4963 N 462.645 1.35699 -0.801477 0
M  V30 4964 C 463.608 2.28199 -0.213994 0
M  V30 4965 C 464.608 1.49359 0.595691 0
M  V30 4966 O 465.798 1.69186 0.414921 0
M  V30 4967 C 462.93 3.33587 0.702297 0
M  V30 4968 H 464.123 2.81666 -1.02976 0
M  V30 4969 H 461.676 1.45467 -0.571759 0
M  V30 4970 H 462.411 2.85297 1.54195 0
M  V30 4971 H 462.196 3.91906 0.123484 0
M  V30 4972 H 463.686 4.02638 1.10783 0
M  V30 4973 N 464.123 0.554532 1.47522 0
M  V30 4974 C 465.053 -0.182974 2.32782 0
M  V30 4975 C 466.034 -0.911377 1.43624 0
M  V30 4976 O 467.219 -0.892366 1.72483 0
M  V30 4977 C 464.349 -1.21513 3.25349 0
M  V30 4978 C 463.303 -0.603355 4.23726 0
M  V30 4979 C 462.629 -1.73995 5.05598 0
M  V30 4980 C 463.929 0.441121 5.20434 0
M  V30 4981 H 465.623 0.52882 2.94693 0
M  V30 4982 H 463.169 0.255759 1.41711 0
M  V30 4983 H 465.122 -1.73922 3.83835 0
M  V30 4984 H 463.846 -1.95683 2.61487 0
M  V30 4985 H 462.505 -0.10059 3.66462 0
M  V30 4986 H 462.153 -2.47063 4.38143 0
M  V30 4987 H 461.853 -1.3364 5.72201 0
M  V30 4988 H 463.377 -2.26735 5.66942 0
M  V30 4989 H 464.791 0.00319931 5.733 0
M  V30 4990 H 463.188 0.763402 5.95224 0
M  V30 4991 H 464.258 1.33799 4.66075 0
M  V30 4992 N 465.601 -1.54893 0.290851 0
M  V30 4993 C 467.012 -1.85584 -0.203816 0
M  V30 4994 C 467.363 -1.21285 -1.54222 0
M  V30 4995 O 466.488 -0.506841 -2.10381 0
M  V30 4996 C 467.083 -3.367 -0.376595 0
M  V30 4997 C 465.642 -3.6746 -0.815485 0
M  V30 4998 C 464.789 -2.77178 0.0821087 0
M  V30 4999 H 467.74 -1.50208 0.512175 0
M  V30 5000 H 467.761 -3.60656 -1.21275 0
M  V30 5001 H 467.273 -3.8347 0.59767 0
M  V30 5002 H 465.374 -3.26201 -1.80066 0
M  V30 5003 H 465.487 -4.7478 -0.641905 0
M  V30 5004 H 463.851 -2.50925 -0.436895 0
M  V30 5005 H 464.634 -3.26767 1.05254 0
M  V30 5006 N 467.08 -0.0183926 -1.57589 0
M  V30 5007 C 468.327 0.662562 -1.91354 0
M  V30 5008 C 468.655 1.72747 -0.893788 0
M  V30 5009 O 467.91 1.9545 0.0988509 0
M  V30 5010 C 468.209 1.32676 -3.31861 0
M  V30 5011 C 467.875 0.393267 -4.49182 0
M  V30 5012 C 466.537 0.136302 -4.81007 0
M  V30 5013 C 468.889 -0.248366 -5.20608 0
M  V30 5014 C 466.217 -0.770282 -5.81621 0
M  V30 5015 C 468.569 -1.14294 -6.22189 0
M  V30 5016 C 467.233 -1.4089 -6.52462 0
M  V30 5017 H 466.503 0.242448 -0.700214 0
M  V30 5018 H 469.15 -0.0778629 -1.91342 0
M  V30 5019 H 467.455 2.14168 -3.28084 0
M  V30 5020 H 469.152 1.86001 -3.55253 0
M  V30 5021 H 465.742 0.603723 -4.24327 0
M  V30 5022 H 469.926 -0.062883 -4.9626 0
M  V30 5023 H 465.182 -0.984154 -6.03427 0
M  V30 5024 H 469.356 -1.64637 -6.76659 0
M  V30 5025 H 466.983 -2.11306 -7.30242 0
M  V30 5026 N 468.558 1.5553 0.254621 0
M  V30 5027 C 469.835 1.6774 1.00611 0
M  V30 5028 C 470.215 0.555993 2.03647 0
M  V30 5029 O 469.563 -0.441583 2.24193 0
M  V30 5030 C 469.773 3.07725 1.6464 0
M  V30 5031 C 471.121 3.66074 2.15116 0
M  V30 5032 O 472.145 3.10476 1.74595 0
M  V30 5033 O 471.004 4.63526 2.89493 0
M  V30 5034 H 468.098 0.681958 0.467828 0
M  V30 5035 H 470.644 1.67863 0.24902 0
M  V30 5036 H 469.416 3.80792 0.900734 0
M  V30 5037 H 469.039 3.1158 2.46989 0
M  V30 5038 N 470.036 -0.519951 1.48776 0
M  V30 5039 C 470.966 -1.63253 1.66945 0
M  V30 5040 C 471.947 -1.62014 0.518224 0
M  V30 5041 O 473.132 -1.79053 0.751919 0
M  V30 5042 C 470.262 -3.0181 1.71836 0
M  V30 5043 C 469.216 -3.17911 2.8656 0
M  V30 5044 C 468.542 -4.5763 2.76548 0
M  V30 5045 C 469.842 -2.99729 4.27738 0
M  V30 5046 H 471.536 -1.48302 2.6009 0
M  V30 5047 H 469.082 -0.712026 1.25165 0
M  V30 5048 H 471.035 -3.79525 1.83135 0
M  V30 5049 H 469.759 -3.17806 0.752775 0
M  V30 5050 H 468.418 -2.42616 2.74833 0
M  V30 5051 H 468.066 -4.70476 1.77937 0
M  V30 5052 H 467.766 -4.69346 3.53536 0
M  V30 5053 H 469.29 -5.37431 2.89828 0
M  V30 5054 H 470.704 -3.67228 4.40246 0
M  V30 5055 H 469.101 -3.22932 5.05801 0
M  V30 5056 H 470.171 -1.96047 4.43502 0
M  V30 5057 N 471.514 -1.37532 -0.769588 0
M  V30 5058 C 472.444 -1.36172 -1.89682 0
M  V30 5059 C 473.425 -0.23001 -1.68538 0
M  V30 5060 O 474.61 -0.43069 -1.89364 0
M  V30 5061 C 471.74 -1.1701 -3.26995 0
M  V30 5062 C 470.694 -2.27216 -3.62708 0
M  V30 5063 C 470.02 -1.93174 -4.98586 0
M  V30 5064 C 471.32 -3.6941 -3.69234 0
M  V30 5065 H 473.014 -2.30499 -1.91078 0
M  V30 5066 H 470.56 -1.10953 -0.917902 0
M  V30 5067 H 472.513 -1.14688 -4.05493 0
M  V30 5068 H 471.237 -0.191395 -3.26039 0
M  V30 5069 H 469.896 -2.28697 -2.86519 0
M  V30 5070 H 469.544 -0.938281 -4.94171 0
M  V30 5071 H 469.244 -2.66973 -5.23449 0
M  V30 5072 H 470.768 -1.92443 -5.79481 0
M  V30 5073 H 472.182 -3.70047 -4.37879 0
M  V30 5074 H 470.579 -4.4228 -4.05597 0
M  V30 5075 H 471.649 -4.0288 -2.69844 0
M  V30 5076 N 472.992 0.995999 -1.22138 0
M  V30 5077 C 473.942 2.06988 -0.956042 0
M  V30 5078 C 474.926 1.60636 0.0921576 0
M  V30 5079 O 476.118 1.76607 -0.117958 0
M  V30 5080 C 473.247 3.39148 -0.532335 0
M  V30 5081 C 472.333 3.92142 -1.61509 0
M  V30 5082 N 472.724 4.18397 -2.84214 0
M  V30 5083 C 471.022 4.20514 -1.48606 0
M  V30 5084 C 471.723 4.61425 -3.54206 0
M  V30 5085 N 470.699 4.64934 -2.81669 0
M  V30 5086 H 474.501 2.25223 -1.88816 0
M  V30 5087 H 472.015 1.17748 -1.11845 0
M  V30 5088 H 474.012 4.15642 -0.323574 0
M  V30 5089 H 472.672 3.22314 0.392921 0
M  V30 5090 H 473.683 4.06682 -3.20671 0
M  V30 5091 H 470.36 4.12769 -0.626762 0
M  V30 5092 H 471.75 4.90387 -4.59315 0
M  V30 5093 N 474.47 1.03057 1.19235 0
M  V30 5094 C 475.433 0.617418 2.20727 0
M  V30 5095 C 476.433 -0.319856 1.57587 0
M  V30 5096 O 477.623 -0.106633 1.73873 0
M  V30 5097 C 474.755 -0.096296 3.40764 0
M  V30 5098 H 475.948 1.51544 2.58794 0
M  V30 5099 H 473.501 0.821949 1.32942 0
M  V30 5100 H 474.236 -1.00859 3.08217 0
M  V30 5101 H 474.021 0.577217 3.87828 0
M  V30 5102 H 475.511 -0.372219 4.15938 0
M  V30 5103 N 475.948 -1.35272 0.808662 0
M  V30 5104 C 477.195 -1.98709 0.390003 0
M  V30 5105 C 477.523 -1.64148 -1.04335 0
M  V30 5106 O 476.778 -0.897797 -1.73891 0
M  V30 5107 C 477.077 -3.53556 0.522798 0
M  V30 5108 C 476.743 -4.0799 1.91977 0
M  V30 5109 C 475.405 -4.22568 2.30195 0
M  V30 5110 C 477.757 -4.37442 2.83361 0
M  V30 5111 C 475.085 -4.63918 3.59162 0
M  V30 5112 C 477.437 -4.80232 4.11776 0
M  V30 5113 C 476.101 -4.93016 4.49991 0
M  V30 5114 H 475.371 -0.727127 0.142712 0
M  V30 5115 H 478.018 -1.6145 1.02985 0
M  V30 5116 H 476.323 -3.91287 -0.200494 0
M  V30 5117 H 478.02 -4.00598 0.179608 0
M  V30 5118 H 474.61 -3.97096 1.61284 0
M  V30 5119 H 478.794 -4.25731 2.55083 0
M  V30 5120 H 474.05 -4.72005 3.88615 0
M  V30 5121 H 478.224 -5.01982 4.82687 0
M  V30 5122 H 475.851 -5.24814 5.49976 0
M  V30 5123 N 477.426 -0.562348 -1.47226 0
M  V30 5124 C 478.373 0.182461 -2.30078 0
M  V30 5125 C 479.343 0.903503 -1.39377 0
M  V30 5126 O 480.528 0.898188 -1.68337 0
M  V30 5127 C 477.668 1.20322 -3.23445 0
M  V30 5128 C 476.781 0.487717 -4.29238 0
M  V30 5129 C 475.916 1.49422 -5.09752 0
M  V30 5130 C 474.955 0.763976 -6.07314 0
M  V30 5131 N 474.092 1.71755 -6.80768 0
M  V30 5132 H 478.932 -0.530169 -2.93246 0
M  V30 5133 H 476.469 -0.273276 -1.44539 0
M  V30 5134 H 478.427 1.80768 -3.76004 0
M  V30 5135 H 477.057 1.88382 -2.6213 0
M  V30 5136 H 476.109 -0.231374 -3.79696 0
M  V30 5137 H 477.421 -0.0841003 -4.98729 0
M  V30 5138 H 476.575 2.17206 -5.66486 0
M  V30 5139 H 475.314 2.09995 -4.40174 0
M  V30 5140 H 474.319 0.0722344 -5.49753 0
M  V30 5141 H 475.544 0.16391 -6.78902 0
M  V30 5142 H 473.49 2.31177 -6.13916 0
M  V30 5143 H 473.407 1.19802 -7.46447 0
M  V30 5144 H 474.675 2.38638 -7.42073 0
M  V30 5145 N 478.904 1.54736 -0.299062 0
M  V30 5146 C 480.15 2.00397 0.311244 0
M  V30 5147 C 480.483 1.18716 1.53688 0
M  V30 5148 O 479.758 0.263154 1.92712 0
M  V30 5149 C 480.041 3.53817 0.669761 0
M  V30 5150 C 479.894 4.46239 -0.564882 0
M  V30 5151 C 481.213 4.13856 1.49702 0
M  V30 5152 H 478.332 0.728493 0.111653 0
M  V30 5153 H 480.974 1.85506 -0.410774 0
M  V30 5154 H 479.124 3.66637 1.28491 0
M  V30 5155 H 480.796 4.45328 -1.20337 0
M  V30 5156 H 479.039 4.16916 -1.19849 0
M  V30 5157 H 479.71 5.5134 -0.269918 0
M  V30 5158 H 482.186 4.04461 0.977284 0
M  V30 5159 H 481.062 5.21365 1.71666 0
M  V30 5160 H 481.323 3.65608 2.48563 0
M  V30 5161 N 480.382 0.0267497 1.57577 0
M  V30 5162 C 481.33 -0.973923 2.11229 0
M  V30 5163 C 482.324 -1.33849 1.03831 0
M  V30 5164 O 483.53 -1.321 1.22269 0
M  V30 5165 H 479.905 -0.331844 0.674821 0
M  V30 5166 H 481.876 -0.496092 2.94247 0
M  V30 5167 C 480.625 -2.24798 2.65257 0
M  V30 5168 H 479.948 -1.9762 3.47543 0
M  V30 5169 H 481.388 -2.93031 3.06445 0
M  V30 5170 C 479.847 -2.97611 1.57891 0
M  V30 5171 O 480.377 -3.89629 0.97735 0
M  V30 5172 N 478.583 -2.59905 1.29992 0
M  V30 5173 H 478.13 -1.85154 1.79097 0
M  V30 5174 H 478.088 -3.08932 0.583798 0
M  V30 5175 N 481.861 -1.55662 -0.24637 0
M  V30 5176 C 483.107 -1.77782 -0.975779 0
M  V30 5177 C 483.44 -0.592103 -1.84953 0
M  V30 5178 O 482.715 0.409588 -1.90138 0
M  V30 5179 C 482.998 -3.09788 -1.83584 0
M  V30 5180 C 482.851 -4.38764 -0.990241 0
M  V30 5181 C 484.17 -3.38029 -2.81823 0
M  V30 5182 H 481.289 -0.646789 -0.353317 0
M  V30 5183 H 483.931 -1.88398 -0.246248 0
M  V30 5184 H 482.081 -3.00869 -2.45784 0
M  V30 5185 H 483.753 -4.59675 -0.386897 0
M  V30 5186 H 481.996 -4.32798 -0.294626 0
M  V30 5187 H 482.667 -5.27514 -1.62584 0
M  V30 5188 H 485.143 -3.46915 -2.2976 0
M  V30 5189 H 484.019 -4.3161 -3.39122 0
M  V30 5190 H 484.28 -2.58968 -3.58313 0
M  V30 5191 N 483.339 0.512053 -1.4905 0
M  V30 5192 C 484.569 1.28928 -1.61434 0
M  V30 5193 C 484.977 1.87107 -0.280647 0
M  V30 5194 O 484.32 1.68024 0.742537 0
M  V30 5195 C 484.382 2.466 -2.61588 0
M  V30 5196 C 484.046 2.09375 -4.06216 0
M  V30 5197 C 485.043 1.63994 -4.93358 0
M  V30 5198 C 482.728 2.19348 -4.51876 0
M  V30 5199 C 484.722 1.29076 -6.24194 0
M  V30 5200 C 482.409 1.84041 -5.82728 0
M  V30 5201 C 483.407 1.38978 -6.68711 0
M  V30 5202 O 483.095 1.04144 -7.97126 0
M  V30 5203 H 482.827 0.397668 -0.546659 0
M  V30 5204 H 485.381 0.622507 -1.9574 0
M  V30 5205 H 483.611 3.16318 -2.22441 0
M  V30 5206 H 485.3 3.08642 -2.63619 0
M  V30 5207 H 486.066 1.55744 -4.59313 0
M  V30 5208 H 481.945 2.53376 -3.85125 0
M  V30 5209 H 485.489 0.938303 -6.91261 0
M  V30 5210 H 481.386 1.91938 -6.16304 0
M  V30 5211 H 482.154 1.17387 -8.10039 0
M  V30 5212 N 484.817 1.37938 0.762283 0
M  V30 5213 C 486.064 1.33668 1.52115 0
M  V30 5214 C 486.392 -0.0759538 1.94352 0
M  V30 5215 O 485.647 -1.05121 1.6507 0
M  V30 5216 C 485.946 2.23042 2.79261 0
M  V30 5217 C 485.612 3.71159 2.56031 0
M  V30 5218 C 484.274 4.11523 2.49404 0
M  V30 5219 C 486.626 4.64955 2.35513 0
M  V30 5220 C 483.954 5.43784 2.20263 0
M  V30 5221 C 486.306 5.97464 2.07894 0
M  V30 5222 C 484.97 6.36922 1.99718 0
M  V30 5223 H 484.24 0.489127 0.556629 0
M  V30 5224 H 486.887 1.70224 0.877262 0
M  V30 5225 H 485.192 1.79512 3.48256 0
M  V30 5226 H 486.889 2.17047 3.37182 0
M  V30 5227 H 483.479 3.39153 2.62056 0
M  V30 5228 H 487.663 4.34623 2.39617 0
M  V30 5229 H 482.919 5.73307 2.12435 0
M  V30 5230 H 487.093 6.6969 1.91019 0
M  V30 5231 H 484.72 7.39331 1.76902 0
M  V30 5232 N 486.295 -0.989507 1.22664 0
M  V30 5233 C 487.543 -1.72612 1.05117 0
M  V30 5234 C 487.864 -1.90552 -0.414131 0
M  V30 5235 O 487.134 -1.4676 -1.29762 0
M  V30 5236 H 485.714 -0.639555 0.385977 0
M  V30 5237 H 488.376 -1.19158 1.54232 0
M  V30 5238 H 487.472 -2.71926 1.53175 0
M  V30 5239 N 487.773 -1.03688 -1.18687 0
M  V30 5240 C 488.736 -0.629115 -2.20397 0
M  V30 5241 C 489.736 0.311495 -1.57754 0
M  V30 5242 O 490.926 0.0974107 -1.73927 0
M  V30 5243 C 488.058 0.0782231 -3.4081 0
M  V30 5244 H 489.251 -1.52915 -2.57987 0
M  V30 5245 H 486.804 -0.828988 -1.32505 0
M  V30 5246 H 487.539 0.992233 -3.08748 0
M  V30 5247 H 487.324 -0.597776 -3.87517 0
M  V30 5248 H 488.814 0.350156 -4.16129 0
M  V30 5249 N 489.251 1.34841 -0.815825 0
M  V30 5250 C 490.201 2.27075 -0.205169 0
M  V30 5251 C 491.185 1.48205 0.626414 0
M  V30 5252 O 492.377 1.70306 0.482157 0
M  V30 5253 C 489.506 3.37322 0.637871 0
M  V30 5254 C 488.592 4.23609 -0.203948 0
M  V30 5255 N 488.983 4.89558 -1.27149 0
M  V30 5256 C 487.281 4.45998 0.0128971 0
M  V30 5257 C 487.982 5.53597 -1.7862 0
M  V30 5258 N 486.958 5.32535 -1.0912 0
M  V30 5259 H 490.76 2.75563 -1.02187 0
M  V30 5260 H 488.274 1.48477 -0.657912 0
M  V30 5261 H 490.271 4.02359 1.09146 0
M  V30 5262 H 488.931 2.90385 1.45281 0
M  V30 5263 H 489.942 4.9077 -1.65423 0
M  V30 5264 H 486.619 4.09837 0.79624 0
M  V30 5265 H 488.009 6.16184 -2.67892 0
M  V30 5266 N 490.729 0.570148 1.46925 0
M  V30 5267 C 491.659 -0.158274 2.32963 0
M  V30 5268 C 492.64 -0.896093 1.44583 0
M  V30 5269 O 493.825 -0.874022 1.7342 0
M  V30 5270 C 490.955 -1.18055 3.26619 0
M  V30 5271 C 489.909 -0.558379 4.24342 0
M  V30 5272 C 489.235 -1.68623 5.07415 0
M  V30 5273 C 490.535 0.496295 5.19937 0
M  V30 5274 H 492.229 0.560046 2.94115 0
M  V30 5275 H 489.775 0.270775 1.41431 0
M  V30 5276 H 491.728 -1.69841 3.85658 0
M  V30 5277 H 490.452 -1.92899 2.63548 0
M  V30 5278 H 489.111 -0.0617157 3.66548 0
M  V30 5279 H 488.759 -2.42402 4.40738 0
M  V30 5280 H 488.459 -1.27564 5.73586 0
M  V30 5281 H 489.983 -2.20709 5.69315 0
M  V30 5282 H 491.397 0.0640052 5.73264 0
M  V30 5283 H 489.794 0.82649 5.94381 0
M  V30 5284 H 490.864 1.38735 4.6463 0
M  V30 5285 N 492.207 -1.54576 0.307264 0
M  V30 5286 C 493.137 -2.26708 -0.55907 0
M  V30 5287 C 494.118 -1.26893 -1.1328 0
M  V30 5288 O 495.303 -1.55677 -1.16097 0
M  V30 5289 C 492.433 -3.01259 -1.72801 0
M  V30 5290 C 491.387 -4.08275 -1.28435 0
M  V30 5291 C 490.713 -4.70575 -2.53895 0
M  V30 5292 C 492.013 -5.2068 -0.411038 0
M  V30 5293 H 493.707 -2.9937 0.042576 0
M  V30 5294 H 491.253 -1.43983 0.0219173 0
M  V30 5295 H 493.206 -3.50444 -2.34023 0
M  V30 5296 H 491.93 -2.26187 -2.356 0
M  V30 5297 H 490.589 -3.59949 -0.695161 0
M  V30 5298 H 490.237 -3.92136 -3.15021 0
M  V30 5299 H 489.937 -5.42854 -2.24908 0
M  V30 5300 H 491.461 -5.22527 -3.15908 0
M  V30 5301 H 492.875 -5.65721 -0.929097 0
M  V30 5302 H 491.272 -5.99716 -0.214664 0
M  V30 5303 H 492.342 -4.81629 0.562287 0
M  V30 5304 N 493.685 -0.035106 -1.57561 0
M  V30 5305 C 494.632 0.94474 -2.10578 0
M  V30 5306 C 495.602 1.3192 -1.00927 0
M  V30 5307 O 496.787 1.41147 -1.28382 0
M  V30 5308 C 493.927 2.21982 -2.64231 0
M  V30 5309 C 493.04 1.90128 -3.87911 0
M  V30 5310 C 492.175 3.11975 -4.29936 0
M  V30 5311 C 491.214 2.75968 -5.46359 0
M  V30 5312 N 490.351 3.90459 -5.83512 0
M  V30 5313 H 495.191 0.485717 -2.94015 0
M  V30 5314 H 492.728 0.228143 -1.4532 0
M  V30 5315 H 494.686 2.96572 -2.9343 0
M  V30 5316 H 493.316 2.6549 -1.83616 0
M  V30 5317 H 492.368 1.05755 -3.65404 0
M  V30 5318 H 493.68 1.59613 -4.72573 0
M  V30 5319 H 492.834 3.9488 -4.60603 0
M  V30 5320 H 491.573 3.45657 -3.44053 0
M  V30 5321 H 490.578 1.91478 -5.1538 0
M  V30 5322 H 491.803 2.43497 -6.33945 0
M  V30 5323 H 489.749 4.23971 -5.00584 0
M  V30 5324 H 489.666 3.63588 -6.62827 0
M  V30 5325 H 490.934 4.7405 -6.18787 0
M  V30 5326 N 495.163 1.55791 0.238111 0
M  V30 5327 C 496.391 1.82098 0.982233 0
M  V30 5328 C 496.806 0.612025 1.78605 0
M  V30 5329 O 496.163 -0.419381 1.77616 0
M  V30 5330 C 496.214 3.0673 1.91309 0
M  V30 5331 O 495.935 4.2296 1.14179 0
M  V30 5332 C 497.436 3.45903 2.77248 0
M  V30 5333 H 494.656 0.605748 0.288635 0
M  V30 5334 H 497.2 2.02862 0.258341 0
M  V30 5335 H 495.355 2.87991 2.59114 0
M  V30 5336 H 495.769 4.93653 1.7722 0
M  V30 5337 H 497.243 4.36189 3.38295 0
M  V30 5338 H 497.72 2.66891 3.48806 0
M  V30 5339 H 498.326 3.67024 2.14881 0
M  V30 5340 N 496.642 -0.504142 1.49319 0
M  V30 5341 C 497.888 -1.26033 1.58882 0
M  V30 5342 C 498.221 -1.92268 0.273274 0
M  V30 5343 O 497.496 -1.80567 -0.72291 0
M  V30 5344 C 497.779 -2.32976 2.7458 0
M  V30 5345 C 497.632 -1.71263 4.1592 0
M  V30 5346 C 498.951 -3.34561 2.85932 0
M  V30 5347 H 496.07 -0.456863 0.578312 0
M  V30 5348 H 498.712 -0.558965 1.81592 0
M  V30 5349 H 496.862 -2.92796 2.55348 0
M  V30 5350 H 498.534 -1.15294 4.4666 0
M  V30 5351 H 496.777 -1.01686 4.21714 0
M  V30 5352 H 497.448 -2.48816 4.92742 0
M  V30 5353 H 499.924 -2.84727 3.0343 0
M  V30 5354 H 498.8 -4.06754 3.68568 0
M  V30 5355 H 499.061 -3.96695 1.95154 0
M  V30 5356 N 498.12 -1.38341 -0.754957 0
M  V30 5357 C 499.536 -1.19508 -1.05783 0
M  V30 5358 C 499.736 -0.0428005 -2.01455 0
M  V30 5359 O 498.792 0.611861 -2.44975 0
M  V30 5360 C 500.105 -2.52091 -1.63923 0
M  V30 5361 C 501.653 -2.58762 -1.76101 0
M  V30 5362 C 502.128 -3.91517 -2.37652 0
M  V30 5363 N 503.619 -3.93049 -2.45085 0
M  V30 5364 C 504.354 -4.9253 -2.93602 0
M  V30 5365 N 503.85 -6.02408 -3.42165 0
M  V30 5366 N 505.643 -4.79921 -2.92629 0
M  V30 5367 H 497.794 -2.1206 -0.120056 0
M  V30 5368 H 500.057 -0.94089 -0.11589 0
M  V30 5369 H 499.763 -3.36858 -1.01093 0
M  V30 5370 H 499.637 -2.70388 -2.63003 0
M  V30 5371 H 502.024 -1.74391 -2.38058 0
M  V30 5372 H 502.105 -2.44333 -0.757294 0
M  V30 5373 H 501.749 -4.76309 -1.76329 0
M  V30 5374 H 501.679 -4.03256 -3.38662 0
M  V30 5375 H 504.17 -3.13685 -2.10736 0
M  V30 5376 H 504.483 -6.74248 -3.77637 0
M  V30 5377 H 502.828 -6.0603 -3.40225 0
M  V30 5378 H 506.019 -3.93194 -2.54001 0
M  V30 5379 H 506.192 -5.57601 -3.30128 0
M  V30 5380 N 499.598 0.982988 -1.23187 0
M  V30 5381 C 500.528 2.09301 -1.03515 0
M  V30 5382 C 501.509 1.70035 0.0471136 0
M  V30 5383 O 502.694 1.93847 -0.117029 0
M  V30 5384 C 499.824 3.4167 -0.622791 0
M  V30 5385 C 498.778 3.94828 -1.65211 0
M  V30 5386 C 498.104 5.23362 -1.09527 0
M  V30 5387 C 499.404 4.2439 -3.04451 0
M  V30 5388 H 501.098 2.26016 -1.96359 0
M  V30 5389 H 498.644 1.08611 -0.945501 0
M  V30 5390 H 500.597 4.18746 -0.472233 0
M  V30 5391 H 499.321 3.24811 0.341329 0
M  V30 5392 H 497.98 3.19895 -1.79061 0
M  V30 5393 H 497.628 5.02852 -0.122211 0
M  V30 5394 H 497.328 5.59895 -1.783 0
M  V30 5395 H 498.852 6.03062 -0.956511 0
M  V30 5396 H 500.266 4.92225 -2.93917 0
M  V30 5397 H 498.663 4.72118 -3.70438 0
M  V30 5398 H 499.733 3.31765 -3.53638 0
M  V30 5399 N 501.076 1.04316 1.18135 0
M  V30 5400 C 502.006 0.657299 2.24058 0
M  V30 5401 C 502.987 -0.340678 1.66654 0
M  V30 5402 O 504.172 -0.220223 1.92947 0
M  V30 5403 C 501.302 0.0220715 3.47293 0
M  V30 5404 C 500.256 0.943857 4.17463 0
M  V30 5405 C 499.582 0.172973 5.3442 0
M  V30 5406 C 500.882 2.26409 4.70677 0
M  V30 5407 H 502.576 1.5428 2.56589 0
M  V30 5408 H 500.122 0.743263 1.23335 0
M  V30 5409 H 502.075 -0.259607 4.206 0
M  V30 5410 H 500.799 -0.898323 3.14003 0
M  V30 5411 H 499.458 1.20996 3.46057 0
M  V30 5412 H 499.106 -0.749907 4.97379 0
M  V30 5413 H 498.806 0.787098 5.82304 0
M  V30 5414 H 500.33 -0.101628 6.10515 0
M  V30 5415 H 501.744 2.04294 5.35665 0
M  V30 5416 H 500.141 2.8314 5.29105 0
M  V30 5417 H 501.211 2.90883 3.87962 0
M  V30 5418 N 502.554 -1.34406 0.822964 0
M  V30 5419 C 503.97 -1.51275 0.508727 0
M  V30 5420 C 504.17 -1.76776 -0.967083 0
M  V30 5421 O 503.226 -1.81871 -1.75155 0
M  V30 5422 C 504.539 -2.67765 1.36829 0
M  V30 5423 C 506.087 -2.81647 1.36542 0
M  V30 5424 C 506.562 -4.01181 2.20947 0
M  V30 5425 N 508.053 -4.08388 2.18571 0
M  V30 5426 C 508.788 -5.00036 2.80627 0
M  V30 5427 N 508.284 -5.96906 3.51674 0
M  V30 5428 N 510.077 -4.92908 2.70181 0
M  V30 5429 H 502.228 -1.16113 1.77852 0
M  V30 5430 H 504.491 -0.56947 0.757897 0
M  V30 5431 H 504.197 -2.55551 2.41633 0
M  V30 5432 H 504.071 -3.62779 1.03303 0
M  V30 5433 H 506.458 -2.93303 0.325163 0
M  V30 5434 H 506.539 -1.87443 1.74066 0
M  V30 5435 H 506.183 -3.90286 3.25022 0
M  V30 5436 H 506.113 -4.94599 1.80774 0
M  V30 5437 H 508.604 -3.39051 1.66891 0
M  V30 5438 H 508.917 -6.63468 3.96271 0
M  V30 5439 H 507.262 -5.9703 3.5578 0
M  V30 5440 H 510.453 -4.1619 2.14251 0
M  V30 5441 H 510.626 -5.64137 3.18831 0
M  V30 5442 N 504.032 -0.577932 -1.46621 0
M  V30 5443 C 504.962 0.145917 -2.33044 0
M  V30 5444 C 505.943 0.888412 -1.45056 0
M  V30 5445 O 507.128 0.864812 -1.73881 0
M  V30 5446 C 504.258 1.16322 -3.27241 0
M  V30 5447 C 503.212 0.535868 -4.24632 0
M  V30 5448 C 502.538 1.65929 -5.08303 0
M  V30 5449 C 503.838 -0.523861 -5.19666 0
M  V30 5450 H 505.532 -0.575636 -2.93814 0
M  V30 5451 H 503.078 -0.278272 -1.41286 0
M  V30 5452 H 505.031 1.67793 -3.86553 0
M  V30 5453 H 503.755 1.91498 -2.64567 0
M  V30 5454 H 502.414 0.0422759 -3.66576 0
M  V30 5455 H 502.062 2.40061 -4.42018 0
M  V30 5456 H 501.762 1.2452 -5.74255 0
M  V30 5457 H 503.286 2.17686 -5.70478 0
M  V30 5458 H 504.7 -0.0944059 -5.73222 0
M  V30 5459 H 503.097 -0.858 -5.93935 0
M  V30 5460 H 504.167 -1.41197 -4.63887 0
M  V30 5461 N 505.51 1.54411 -0.315457 0
M  V30 5462 C 506.44 2.27002 0.547039 0
M  V30 5463 C 507.421 1.27492 1.12605 0
M  V30 5464 O 508.606 1.5629 1.15269 0
M  V30 5465 C 505.736 3.02171 1.71201 0
M  V30 5466 C 504.69 4.0895 1.26268 0
M  V30 5467 C 504.016 4.71915 2.51396 0
M  V30 5468 C 505.316 5.20891 0.383419 0
M  V30 5469 H 507.01 2.99343 -0.0584517 0
M  V30 5470 H 504.556 1.4397 -0.0295527 0
M  V30 5471 H 506.509 3.51681 2.32161 0
M  V30 5472 H 505.233 2.27433 2.34397 0
M  V30 5473 H 503.892 3.60312 0.676062 0
M  V30 5474 H 503.54 3.93801 3.12937 0
M  V30 5475 H 503.24 5.44039 2.22026 0
M  V30 5476 H 504.764 5.24195 3.13133 0
M  V30 5477 H 506.178 5.66206 0.899082 0
M  V30 5478 H 504.575 5.99821 0.182857 0
M  V30 5479 H 505.645 4.81324 -0.587821 0
M  V30 5480 N 506.988 0.0434614 1.5754 0
M  V30 5481 C 508.404 -0.313039 1.565 0
M  V30 5482 C 508.604 -1.71954 1.05043 0
M  V30 5483 O 507.66 -2.425 0.703564 0
M  V30 5484 C 508.973 -0.148544 3.00333 0
M  V30 5485 C 510.521 -0.220231 3.12224 0
M  V30 5486 C 510.996 -0.0843565 4.57922 0
M  V30 5487 N 512.487 -0.140881 4.62986 0
M  V30 5488 C 513.222 -0.0597443 5.73369 0
M  V30 5489 N 512.718 0.0733004 6.92761 0
M  V30 5490 N 514.511 -0.11477 5.61983 0
M  V30 5491 H 506.662 0.96303 1.89313 0
M  V30 5492 H 508.925 0.373164 0.871466 0
M  V30 5493 H 508.631 0.820894 3.41986 0
M  V30 5494 H 508.505 -0.912798 3.65989 0
M  V30 5495 H 510.892 -1.18014 2.70475 0
M  V30 5496 H 510.973 0.574646 2.49262 0
M  V30 5497 H 510.617 0.872192 5.00355 0
M  V30 5498 H 510.547 -0.898281 5.18882 0
M  V30 5499 H 513.038 -0.243273 3.77116 0
M  V30 5500 H 513.351 0.128128 7.72694 0
M  V30 5501 H 511.696 0.10828 6.94916 0
M  V30 5502 H 514.887 -0.217212 4.67596 0
M  V30 5503 H 515.06 -0.0480779 6.47982 0
M  V30 5504 N 508.466 -1.55915 -0.229846 0
M  V30 5505 C 509.396 -1.94754 -1.28815 0
M  V30 5506 C 510.377 -0.814657 -1.49323 0
M  V30 5507 O 511.562 -1.07631 -1.61645 0
M  V30 5508 C 508.692 -2.25705 -2.63959 0
M  V30 5509 C 507.646 -3.41406 -2.5812 0
M  V30 5510 C 506.972 -3.57941 -3.97218 0
M  V30 5511 C 508.272 -4.76616 -2.13623 0
M  V30 5512 H 509.966 -2.83404 -0.965547 0
M  V30 5513 H 507.512 -1.36353 -0.463028 0
M  V30 5514 H 509.465 -2.51467 -3.38146 0
M  V30 5515 H 508.189 -1.339 -2.9789 0
M  V30 5516 H 506.848 -3.1568 -1.86391 0
M  V30 5517 H 506.496 -2.63526 -4.28443 0
M  V30 5518 H 506.196 -4.35757 -3.94195 0
M  V30 5519 H 507.72 -3.86042 -4.73079 0
M  V30 5520 H 509.134 -5.01637 -2.77549 0
M  V30 5521 H 507.531 -5.57655 -2.21677 0
M  V30 5522 H 508.601 -4.7253 -1.08829 0
M  V30 5523 N 509.944 0.496216 -1.49584 0
M  V30 5524 C 510.874 1.60576 -1.69521 0
M  V30 5525 C 511.855 1.61169 -0.543933 0
M  V30 5526 O 513.04 1.77834 -0.78031 0
M  V30 5527 C 510.17 2.99038 -1.76616 0
M  V30 5528 C 509.124 3.13312 -2.91581 0
M  V30 5529 C 508.45 4.53172 -2.83794 0
M  V30 5530 C 509.75 2.92886 -4.32452 0
M  V30 5531 H 511.444 1.44146 -2.62416 0
M  V30 5532 H 508.99 0.692024 -1.26282 0
M  V30 5533 H 510.943 3.76564 -1.8915 0
M  V30 5534 H 509.667 3.16568 -0.80324 0
M  V30 5535 H 508.326 2.38213 -2.78658 0
M  V30 5536 H 507.974 4.67585 -1.854 0
M  V30 5537 H 507.674 4.63662 -3.60958 0
M  V30 5538 H 509.198 5.32752 -2.98342 0
M  V30 5539 H 510.612 3.60178 -4.46032 0
M  V30 5540 H 509.009 3.14844 -5.10875 0
M  V30 5541 H 510.079 1.88966 -4.46565 0
M  V30 5542 N 511.423 1.38739 0.74761 0
M  V30 5543 C 512.834 1.31507 1.32524 0
M  V30 5544 C 513.185 -0.0263963 1.96182 0
M  V30 5545 O 512.31 -0.92849 1.95469 0
M  V30 5546 C 512.905 2.38162 2.40966 0
M  V30 5547 C 511.464 2.34489 2.94434 0
M  V30 5548 C 510.611 2.20712 1.67873 0
M  V30 5549 H 513.562 1.4901 0.546043 0
M  V30 5550 H 513.583 2.04222 3.21051 0
M  V30 5551 H 513.095 3.35783 1.94605 0
M  V30 5552 H 511.196 1.40467 3.45108 0
M  V30 5553 H 511.309 3.28861 3.48407 0
M  V30 5554 H 509.673 1.67667 1.91729 0
M  V30 5555 H 510.456 3.20285 1.23582 0
M  V30 5556 N 512.901 -0.976442 1.23707 0
M  V30 5557 C 514.317 -1.24341 1.00058 0
M  V30 5558 C 514.517 -1.99315 -0.295932 0
M  V30 5559 O 513.573 -2.3123 -1.01435 0
M  V30 5560 C 514.886 -2.03909 2.21001 0
M  V30 5561 C 516.434 -2.17034 2.25534 0
M  V30 5562 C 516.909 -2.99994 3.46075 0
M  V30 5563 N 518.4 -3.07578 3.46338 0
M  V30 5564 C 519.135 -3.72104 4.36264 0
M  V30 5565 N 518.631 -4.3842 5.36432 0
M  V30 5566 N 520.424 -3.69029 4.23998 0
M  V30 5567 H 512.575 -0.47428 2.07037 0
M  V30 5568 H 514.838 -0.272167 0.908091 0
M  V30 5569 H 514.544 -1.56198 3.15111 0
M  V30 5570 H 514.418 -3.04654 2.22409 0
M  V30 5571 H 516.805 -2.63951 1.31961 0
M  V30 5572 H 516.886 -1.15664 2.28156 0
M  V30 5573 H 516.53 -2.53772 4.39957 0
M  V30 5574 H 516.46 -4.01541 3.40694 0
M  V30 5575 H 518.951 -2.60397 2.73865 0
M  V30 5576 H 519.264 -4.85447 6.013 0
M  V30 5577 H 517.609 -4.37116 5.40328 0
M  V30 5578 H 520.8 -3.16392 3.44984 0
M  V30 5579 H 520.973 -4.19034 4.94282 0
M  V30 5580 N 514.379 -1.04941 -1.1758 0
M  V30 5581 C 515.309 -0.669172 -2.23706 0
M  V30 5582 C 516.29 0.331835 -1.66832 0
M  V30 5583 O 517.475 0.209988 -1.93061 0
M  V30 5584 C 514.605 -0.0404889 -3.47276 0
M  V30 5585 C 513.559 -0.965983 -4.16957 0
M  V30 5586 C 512.885 -0.201312 -5.34321 0
M  V30 5587 C 514.185 -2.28902 -4.69469 0
M  V30 5588 H 515.879 -1.55639 -2.55767 0
M  V30 5589 H 513.425 -0.749793 -1.22939 0
M  V30 5590 H 515.378 0.237298 -4.20731 0
M  V30 5591 H 514.102 0.881658 -3.14475 0
M  V30 5592 H 512.761 -1.22829 -3.45411 0
M  V30 5593 H 512.409 0.723519 -4.97769 0
M  V30 5594 H 512.109 -0.817968 -5.81879 0
M  V30 5595 H 513.633 0.0692499 -6.10561 0
M  V30 5596 H 515.047 -2.07132 -5.34574 0
M  V30 5597 H 513.444 -2.85942 -5.27596 0
M  V30 5598 H 514.514 -2.92937 -3.86414 0
M  V30 5599 N 515.857 1.33968 -0.830081 0
M  V30 5600 C 517.134 1.92554 -0.343858 0
M  V30 5601 C 517.514 1.7573 1.16971 0
M  V30 5602 O 516.862 1.14035 1.98011 0
M  V30 5603 C 517.072 3.40147 -0.781073 0
M  V30 5604 C 518.42 4.17299 -0.78402 0
M  V30 5605 O 519.444 3.48762 -0.724112 0
M  V30 5606 O 518.303 5.39631 -0.863739 0
M  V30 5607 H 515.397 0.821469 -0.0954827 0
M  V30 5608 H 517.943 1.42897 -0.915348 0
M  V30 5609 H 516.715 3.46225 -1.82329 0
M  V30 5610 H 516.338 3.97166 -0.18567 0
M  V30 5611 N 517.335 0.585699 1.46312 0
M  V30 5612 C 518.751 0.247607 1.57668 0
M  V30 5613 C 518.951 -1.25007 1.58037 0
M  V30 5614 O 518.007 -2.03196 1.49893 0
M  V30 5615 C 519.32 0.899456 2.86933 0
M  V30 5616 C 520.868 0.873326 3.00569 0
M  V30 5617 C 521.343 1.50477 4.32574 0
M  V30 5618 N 522.834 1.46925 4.3928 0
M  V30 5619 C 523.569 1.92719 5.40044 0
M  V30 5620 N 523.065 2.46499 6.47464 0
M  V30 5621 N 524.858 1.83617 5.31264 0
M  V30 5622 H 517.009 1.55841 1.44317 0
M  V30 5623 H 519.272 0.651564 0.688599 0
M  V30 5624 H 518.978 1.95313 2.92482 0
M  V30 5625 H 518.852 0.409476 3.74971 0
M  V30 5626 H 521.239 -0.171736 2.946 0
M  V30 5627 H 521.32 1.40136 2.13999 0
M  V30 5628 H 520.964 2.54905 4.39302 0
M  V30 5629 H 520.894 0.951944 5.17924 0
M  V30 5630 H 523.385 1.07616 3.62253 0
M  V30 5631 H 523.698 2.79291 7.20567 0
M  V30 5632 H 522.043 2.50526 6.48276 0
M  V30 5633 H 525.234 1.41358 4.46246 0
M  V30 5634 H 525.407 2.19622 6.09648 0
M  V30 5635 N 518.813 -1.54241 0.323641 0
M  V30 5636 C 520.043 -2.04687 -0.280464 0
M  V30 5637 C 520.451 -1.19939 -1.46326 0
M  V30 5638 O 519.794 -0.222872 -1.82343 0
M  V30 5639 C 519.856 -3.50978 -0.778123 0
M  V30 5640 C 519.52 -4.56127 0.282371 0
M  V30 5641 C 520.517 -5.07726 1.11847 0
M  V30 5642 C 518.202 -5.00451 0.430582 0
M  V30 5643 C 520.196 -6.02212 2.08851 0
M  V30 5644 C 517.883 -5.94752 1.40404 0
M  V30 5645 C 518.881 -6.45519 2.23147 0
M  V30 5646 O 518.569 -7.37968 3.1884 0
M  V30 5647 H 518.301 -0.673192 -0.0615473 0
M  V30 5648 H 520.855 -1.99999 0.467921 0
M  V30 5649 H 519.085 -3.53064 -1.57742 0
M  V30 5650 H 520.774 -3.84499 -1.30058 0
M  V30 5651 H 521.54 -4.74261 1.01496 0
M  V30 5652 H 517.419 -4.6055 -0.203569 0
M  V30 5653 H 520.963 -6.41761 2.73474 0
M  V30 5654 H 516.86 -6.27633 1.5082 0
M  V30 5655 H 517.628 -7.55841 3.14079 0
M  V30 5656 N 520.291 -0.0518155 -1.57515 0
M  V30 5657 C 521.516 0.634896 -1.97443 0
M  V30 5658 C 521.941 1.63546 -0.929207 0
M  V30 5659 O 521.299 1.80981 0.107484 0
M  V30 5660 C 521.347 1.29765 -3.36442 0
M  V30 5661 O 520.451 2.41333 -3.34413 0
M  V30 5662 H 519.792 0.164994 -0.643174 0
M  V30 5663 H 522.322 -0.120407 -2.04245 0
M  V30 5664 H 522.332 1.64918 -3.73184 0
M  V30 5665 H 521.007 0.564361 -4.12053 0
M  V30 5666 H 519.584 2.08122 -3.09418 0
M  V30 5667 N 521.769 1.56035 0.221574 0
M  V30 5668 C 522.701 1.889 1.29805 0
M  V30 5669 C 523.714 0.777269 1.43047 0
M  V30 5670 O 524.903 1.05557 1.43945 0
M  V30 5671 C 522.003 2.0825 2.67367 0
M  V30 5672 C 521.176 3.39267 2.76073 0
M  V30 5673 C 520.235 3.48049 3.94649 0
M  V30 5674 O 519.261 4.2108 3.82988 0
M  V30 5675 N 520.463 2.79191 5.08953 0
M  V30 5676 H 523.228 2.81831 1.01938 0
M  V30 5677 H 520.789 1.5658 0.411612 0
M  V30 5678 H 522.781 2.11441 3.45072 0
M  V30 5679 H 521.351 1.21944 2.87834 0
M  V30 5680 H 520.571 3.48175 1.84846 0
M  V30 5681 H 521.859 4.25575 2.7886 0
M  V30 5682 H 521.257 2.19635 5.21322 0
M  V30 5683 H 519.814 2.88043 5.84701 0
M  V30 5684 N 523.247 -0.488276 1.49845 0
M  V30 5685 C 524.477 -1.26344 1.63465 0
M  V30 5686 C 524.885 -1.86637 0.310379 0
M  V30 5687 O 524.228 -1.69184 -0.715712 0
M  V30 5688 C 524.29 -2.42407 2.65479 0
M  V30 5689 C 523.954 -2.02886 4.09495 0
M  V30 5690 C 524.951 -1.56124 4.95904 0
M  V30 5691 C 522.636 -2.12131 4.55308 0
M  V30 5692 C 524.63 -1.19129 6.26169 0
M  V30 5693 C 522.317 -1.74747 5.85582 0
M  V30 5694 C 523.315 -1.28322 6.70837 0
M  V30 5695 O 523.003 -0.914491 7.98682 0
M  V30 5696 H 522.735 -0.388921 0.552916 0
M  V30 5697 H 525.289 -0.591288 1.96705 0
M  V30 5698 H 523.519 -3.12739 2.27445 0
M  V30 5699 H 525.208 -3.04409 2.68495 0
M  V30 5700 H 525.974 -1.48417 4.61733 0
M  V30 5701 H 521.853 -2.47217 3.89107 0
M  V30 5702 H 525.397 -0.828211 6.92666 0
M  V30 5703 H 521.294 -1.82109 6.19279 0
M  V30 5704 H 522.062 -1.04485 8.11804 0
M  V30 5705 N 524.725 -1.39134 -0.740242 0
M  V30 5706 C 525.95 -1.39518 -1.53459 0
M  V30 5707 C 526.375 0.00968883 -1.88098 0
M  V30 5708 O 525.733 0.995312 -1.51536 0
M  V30 5709 C 525.781 -2.26981 -2.802 0
M  V30 5710 O 524.885 -1.69609 -3.75908 0
M  V30 5711 H 524.226 -0.475328 -0.463637 0
M  V30 5712 H 526.756 -1.83064 -0.913717 0
M  V30 5713 H 526.766 -2.41309 -3.28989 0
M  V30 5714 H 525.441 -3.29081 -2.5432 0
M  V30 5715 H 524.018 -1.64495 -3.34658 0
M  V30 5716 N 526.204 0.969867 -1.24223 0
M  V30 5717 C 527.167 2.04564 -1.03373 0
M  V30 5718 C 528.167 1.60798 0.00819206 0
M  V30 5719 O 529.357 1.72641 -0.232567 0
M  V30 5720 C 526.489 3.36163 -0.566343 0
M  V30 5721 H 527.682 2.24494 -1.98853 0
M  V30 5722 H 525.235 1.1448 -1.06415 0
M  V30 5723 H 525.97 3.21925 0.391751 0
M  V30 5724 H 525.755 3.69273 -1.31834 0
M  V30 5725 H 527.245 4.1526 -0.441435 0
M  V30 5726 N 527.682 1.05563 1.17022 0
M  V30 5727 C 528.928 0.769074 1.87652 0
M  V30 5728 C 529.261 -0.702326 1.81055 0
M  V30 5729 O 528.536 -1.5139 1.22112 0
M  V30 5730 C 528.819 1.25492 3.37526 0
M  V30 5731 C 528.672 2.78953 3.52853 0
M  V30 5732 C 529.991 0.856919 4.31677 0
M  V30 5733 H 527.11 0.280854 0.681388 0
M  V30 5734 H 529.752 1.31027 1.37593 0
M  V30 5735 H 527.902 0.794516 3.80289 0
M  V30 5736 H 529.574 3.33146 3.19079 0
M  V30 5737 H 527.817 3.18046 2.95007 0
M  V30 5738 H 528.488 3.08011 4.58076 0
M  V30 5739 H 530.964 1.25334 3.96775 0
M  V30 5740 H 529.84 1.22443 5.35069 0
M  V30 5741 H 530.101 -0.238787 4.41455 0
M  V30 5742 N 529.16 -1.33526 0.837174 0
M  V30 5743 C 530.406 -1.9813 0.432704 0
M  V30 5744 C 530.739 -1.66168 -1.00508 0
M  V30 5745 O 530.014 -0.94069 -1.70239 0
M  V30 5746 C 530.297 -3.54151 0.651834 0
M  V30 5747 C 530.15 -3.95806 2.13676 0
M  V30 5748 C 531.469 -4.39993 0.0968937 0
M  V30 5749 H 528.588 -0.719713 0.15869 0
M  V30 5750 H 531.23 -1.58193 1.05237 0
M  V30 5751 H 529.38 -3.88301 0.124369 0
M  V30 5752 H 531.052 -3.71921 2.72896 0
M  V30 5753 H 529.295 -3.45599 2.62191 0
M  V30 5754 H 529.966 -5.0447 2.24084 0
M  V30 5755 H 532.442 -4.12479 0.547733 0
M  V30 5756 H 531.318 -5.48186 0.279917 0
M  V30 5757 H 531.579 -4.3066 -0.9992 0
M  V30 5758 N 530.638 -0.59345 -1.46 0
M  V30 5759 C 531.568 0.121192 -2.33185 0
M  V30 5760 C 532.549 0.872977 -1.4599 0
M  V30 5761 O 533.734 0.846321 -1.74789 0
M  V30 5762 C 530.864 1.12844 -3.28456 0
M  V30 5763 C 529.818 0.4908 -4.25177 0
M  V30 5764 C 529.144 1.60529 -5.10034 0
M  V30 5765 C 530.444 -0.578949 -5.19081 0
M  V30 5766 H 532.138 -0.606767 -2.93187 0
M  V30 5767 H 529.684 -0.293242 -1.40983 0
M  V30 5768 H 531.637 1.63684 -3.88311 0
M  V30 5769 H 530.361 1.88681 -2.66584 0
M  V30 5770 H 529.02 0.00339328 -3.666 0
M  V30 5771 H 528.668 2.35359 -4.44539 0
M  V30 5772 H 528.368 1.18422 -5.75543 0
M  V30 5773 H 529.892 2.11623 -5.72755 0
M  V30 5774 H 531.306 -0.155199 -5.7309 0
M  V30 5775 H 529.703 -0.920947 -5.92991 0
M  V30 5776 H 530.773 -1.46109 -4.62364 0
M  V30 5777 N 532.116 1.54067 -0.331816 0
M  V30 5778 C 533.344 2.05131 0.269996 0
M  V30 5779 C 533.759 1.20749 1.45138 0
M  V30 5780 O 533.116 0.240069 1.80914 0
M  V30 5781 C 533.167 3.54728 0.696456 0
M  V30 5782 O 532.888 4.35906 -0.43794 0
M  V30 5783 C 534.389 4.21916 1.36021 0
M  V30 5784 H 531.609 0.668807 0.0542042 0
M  V30 5785 H 534.153 1.98777 -0.4804 0
M  V30 5786 H 532.308 3.61342 1.39681 0
M  V30 5787 H 532.722 5.24404 -0.100334 0
M  V30 5788 H 534.196 5.28015 1.60947 0
M  V30 5789 H 534.673 3.73538 2.31011 0
M  V30 5790 H 535.279 4.19463 0.702212 0
M  V30 5791 N 533.594 0.0601682 1.57485 0
M  V30 5792 C 534.524 -0.90889 2.15085 0
M  V30 5793 C 535.505 -1.31838 1.07484 0
M  V30 5794 O 536.69 -1.3915 1.35466 0
M  V30 5795 C 533.82 -2.18059 2.7031 0
M  V30 5796 C 532.774 -1.91088 3.82974 0
M  V30 5797 C 532.1 -3.24789 4.24754 0
M  V30 5798 C 533.4 -1.22535 5.07723 0
M  V30 5799 H 535.094 -0.429093 2.96309 0
M  V30 5800 H 532.64 -0.204952 1.42534 0
M  V30 5801 H 534.593 -2.86258 3.09248 0
M  V30 5802 H 533.317 -2.6826 1.8629 0
M  V30 5803 H 531.976 -1.25297 3.44523 0
M  V30 5804 H 531.624 -3.72809 3.37672 0
M  V30 5805 H 531.324 -3.07538 5.00694 0
M  V30 5806 H 532.848 -3.94205 4.66299 0
M  V30 5807 H 534.262 -1.80783 5.4405 0
M  V30 5808 H 532.659 -1.1558 5.88864 0
M  V30 5809 H 533.729 -0.202692 4.84476 0
M  V30 5810 N 535.072 -1.5615 -0.213296 0
M  V30 5811 C 536.002 -1.96109 -1.26742 0
M  V30 5812 C 536.983 -0.830448 -1.48451 0
M  V30 5813 O 538.168 -1.09339 -1.60495 0
M  V30 5814 C 535.298 -2.28492 -2.61551 0
M  V30 5815 C 534.252 -3.44124 -2.54485 0
M  V30 5816 C 533.578 -3.62134 -3.93399 0
M  V30 5817 C 534.878 -4.78855 -2.08556 0
M  V30 5818 H 536.572 -2.84412 -0.935434 0
M  V30 5819 H 534.118 -1.36836 -0.44854 0
M  V30 5820 H 536.071 -2.55039 -3.3546 0
M  V30 5821 H 534.795 -1.37052 -2.96453 0
M  V30 5822 H 533.454 -3.17639 -1.83033 0
M  V30 5823 H 533.102 -2.68055 -4.25623 0
M  V30 5824 H 532.802 -4.39913 -3.89551 0
M  V30 5825 H 534.326 -3.91038 -4.68958 0
M  V30 5826 H 535.74 -5.04552 -2.72213 0
M  V30 5827 H 534.137 -5.59975 -2.1575 0
M  V30 5828 H 535.207 -4.73657 -1.03811 0
M  V30 5829 N 536.55 0.480323 -1.50102 0
M  V30 5830 C 537.483 1.59789 -1.62919 0
M  V30 5831 C 538.461 1.55429 -0.477557 0
M  V30 5832 O 539.645 1.75186 -0.695851 0
M  V30 5833 C 536.772 2.98351 -1.60325 0
M  V30 5834 C 535.818 3.20899 -2.80938 0
M  V30 5835 S 536.651 3.01791 -4.4236 0
M  V30 5836 C 537.807 4.42712 -4.42444 0
M  V30 5837 H 538.04 1.48676 -2.57454 0
M  V30 5838 H 535.573 0.666996 -1.3925 0
M  V30 5839 H 537.531 3.7824 -1.59514 0
M  V30 5840 H 536.192 3.06862 -0.670419 0
M  V30 5841 H 535.385 4.22102 -2.75401 0
M  V30 5842 H 534.987 2.48768 -2.79268 0
M  V30 5843 H 537.279 5.3518 -4.15438 0
M  V30 5844 H 538.222 4.53294 -5.43995 0
M  V30 5845 H 538.63 4.24359 -3.72263 0
M  V30 5846 N 538.028 1.39524 0.732853 0
M  V30 5847 C 538.991 1.38189 1.82857 0
M  V30 5848 C 539.991 0.278624 1.58368 0
M  V30 5849 O 541.181 0.536639 1.65728 0
M  V30 5850 C 538.313 1.15661 3.2068 0
M  V30 5851 H 539.506 2.35692 1.85444 0
M  V30 5852 H 537.059 1.2512 0.936728 0
M  V30 5853 H 537.794 0.188482 3.23752 0
M  V30 5854 H 537.579 1.95559 3.39852 0
M  V30 5855 H 539.069 1.17472 4.00737 0
M  V30 5856 N 539.506 -0.963266 1.24736 0
M  V30 5857 C 540.752 -1.70933 1.09131 0
M  V30 5858 C 541.085 -1.90676 -0.368273 0
M  V30 5859 O 540.36 -1.47147 -1.27193 0
M  V30 5860 C 540.643 -3.09744 1.83658 0
M  V30 5861 C 540.496 -2.97465 3.37394 0
M  V30 5862 C 541.815 -4.09483 1.61282 0
M  V30 5863 H 538.934 -0.620398 0.397838 0
M  V30 5864 H 541.576 -1.12028 1.53459 0
M  V30 5865 H 539.726 -3.60031 1.4598 0
M  V30 5866 H 541.398 -2.54571 3.84696 0
M  V30 5867 H 539.641 -2.33576 3.65547 0
M  V30 5868 H 540.312 -3.95822 3.84745 0
M  V30 5869 H 542.788 -3.68073 1.94066 0
M  V30 5870 H 541.664 -5.04666 2.15878 0
M  V30 5871 H 541.925 -4.38639 0.552102 0
M  V30 5872 N 540.985 -1.06182 -1.16461 0
M  V30 5873 C 542.232 -0.777863 -1.86964 0
M  V30 5874 C 542.56 0.695602 -1.81636 0
M  V30 5875 O 541.815 1.52532 -1.22607 0
M  V30 5876 C 542.114 -1.21633 -3.36066 0
M  V30 5877 C 541.78 -2.69371 -3.61594 0
M  V30 5878 C 540.442 -3.09727 -3.6827 0
M  V30 5879 C 542.794 -3.64791 -3.7226 0
M  V30 5880 C 540.122 -4.44345 -3.83112 0
M  V30 5881 C 542.474 -4.99155 -3.88623 0
M  V30 5882 C 541.138 -5.39149 -3.93541 0
M  V30 5883 H 540.408 -0.28464 -0.68415 0
M  V30 5884 H 543.055 -1.33071 -1.37711 0
M  V30 5885 H 541.36 -0.582651 -3.87443 0
M  V30 5886 H 543.057 -0.973682 -3.88999 0
M  V30 5887 H 539.647 -2.37124 -3.57029 0
M  V30 5888 H 543.831 -3.34746 -3.66413 0
M  V30 5889 H 539.087 -4.74819 -3.85172 0
M  V30 5890 H 543.261 -5.72976 -3.95817 0
M  V30 5891 H 540.888 -6.43464 -4.04794 0
M  V30 5892 N 542.463 1.3308 -0.844243 0
M  V30 5893 C 543.426 2.27403 -0.286485 0
M  V30 5894 C 544.426 1.51179 0.547872 0
M  V30 5895 O 545.616 1.70421 0.360886 0
M  V30 5896 C 542.748 3.35653 0.595813 0
M  V30 5897 H 543.941 2.78248 -1.11885 0
M  V30 5898 H 541.494 1.43574 -0.617749 0
M  V30 5899 H 542.229 2.90058 1.4504 0
M  V30 5900 H 542.014 3.921 -0.00125994 0
M  V30 5901 H 543.504 4.05958 0.979168 0
M  V30 5902 N 543.941 0.601185 1.45683 0
M  V30 5903 C 544.871 -0.108824 2.33246 0
M  V30 5904 C 545.852 -0.865223 1.46451 0
M  V30 5905 O 547.037 -0.83704 1.75235 0
M  V30 5906 C 544.167 -1.11101 3.2905 0
M  V30 5907 C 543.121 -0.468244 4.25431 0
M  V30 5908 C 542.447 -1.57822 5.10878 0
M  V30 5909 C 543.747 0.606469 5.18767 0
M  V30 5910 H 545.441 0.622306 2.92861 0
M  V30 5911 H 542.987 0.300714 1.40825 0
M  V30 5912 H 544.94 -1.61622 3.89174 0
M  V30 5913 H 543.664 -1.87265 2.67581 0
M  V30 5914 H 542.323 0.0160484 3.66596 0
M  V30 5915 H 541.971 -2.32998 4.45781 0
M  V30 5916 H 541.671 -1.15369 5.76163 0
M  V30 5917 H 543.195 -2.08583 5.73869 0
M  V30 5918 H 544.609 0.185589 5.73 0
M  V30 5919 H 543.006 0.952381 5.92494 0
M  V30 5920 H 544.076 1.48559 4.61582 0
M  V30 5921 N 545.419 -1.53889 0.339982 0
M  V30 5922 C 546.349 -2.27843 -0.510856 0
M  V30 5923 C 547.33 -1.29267 -1.10563 0
M  V30 5924 O 548.515 -1.58104 -1.12768 0
M  V30 5925 C 545.645 -3.04857 -1.66372 0
M  V30 5926 C 544.599 -4.10907 -1.19746 0
M  V30 5927 C 543.925 -4.75855 -2.43857 0
M  V30 5928 C 545.225 -5.21435 -0.300501 0
M  V30 5929 H 546.919 -2.99212 0.106067 0
M  V30 5930 H 544.465 -1.43904 0.0524533 0
M  V30 5931 H 546.418 -3.5533 -2.26537 0
M  V30 5932 H 545.142 -2.31133 -2.30749 0
M  V30 5933 H 543.801 -3.61342 -0.618654 0
M  V30 5934 H 543.449 -3.9873 -3.06633 0
M  V30 5935 H 543.149 -5.47502 -2.13343 0
M  V30 5936 H 544.673 -5.2911 -3.04754 0
M  V30 5937 H 546.087 -5.67565 -0.80889 0
M  V30 5938 H 544.484 -6.00036 -0.0874076 0
M  V30 5939 H 545.554 -4.80328 0.664321 0
M  V30 5940 N 546.897 -0.0685191 -1.57451 0
M  V30 5941 C 547.86 0.885173 -2.11417 0
M  V30 5942 C 548.86 1.22853 -1.03748 0
M  V30 5943 O 550.05 1.16235 -1.2975 0
M  V30 5944 C 547.182 2.18964 -2.61281 0
M  V30 5945 H 548.375 0.417034 -2.96986 0
M  V30 5946 H 545.928 0.18014 -1.55258 0
M  V30 5947 H 546.663 2.70321 -1.79156 0
M  V30 5948 H 546.448 1.9534 -3.39977 0
M  V30 5949 H 547.938 2.87242 -3.0312 0
M  V30 5950 N 548.375 1.56261 0.205012 0
M  V30 5951 C 549.325 1.90155 1.25798 0
M  V30 5952 C 550.309 0.766227 1.41484 0
M  V30 5953 O 551.501 1.02893 1.44021 0
M  V30 5954 C 548.63 2.23603 2.60493 0
M  V30 5955 C 547.716 3.43568 2.48639 0
M  V30 5956 N 548.107 4.61747 2.06455 0
M  V30 5957 C 546.405 3.4751 2.79558 0
M  V30 5958 C 547.106 5.43907 2.06253 0
M  V30 5959 N 546.082 4.84051 2.47377 0
M  V30 5960 H 549.884 2.79031 0.922986 0
M  V30 5961 H 547.398 1.57048 0.413501 0
M  V30 5962 H 549.395 2.46067 3.36537 0
M  V30 5963 H 548.055 1.36049 2.94823 0
M  V30 5964 H 549.066 4.86598 1.77321 0
M  V30 5965 H 545.743 2.70345 3.18151 0
M  V30 5966 H 547.133 6.48542 1.75622 0
M  V30 5967 N 549.853 -0.472356 1.50355 0
M  V30 5968 C 551.099 -1.22348 1.62488 0
M  V30 5969 C 551.454 -1.89711 0.320574 0
M  V30 5970 O 550.747 -1.79074 -0.68141 0
M  V30 5971 C 550.941 -2.29257 2.74182 0
M  V30 5972 C 550.77 -1.72383 4.15348 0
M  V30 5973 C 549.54 -1.52411 4.81766 0
M  V30 5974 C 551.738 -1.21949 4.99633 0
M  V30 5975 N 549.72 -0.907669 6.07153 0
M  V30 5976 C 551.091 -0.726191 6.15732 0
M  V30 5977 C 553.146 -1.10792 4.85417 0
M  V30 5978 C 551.849 -0.132322 7.19178 0
M  V30 5979 C 553.875 -0.52799 5.89038 0
M  V30 5980 C 553.237 -0.0450604 7.04386 0
M  V30 5981 H 549.336 -0.436631 0.648751 0
M  V30 5982 H 551.92 -0.525698 1.87469 0
M  V30 5983 H 550.091 -2.96464 2.50926 0
M  V30 5984 H 551.823 -2.9628 2.75681 0
M  V30 5985 H 548.578 -1.776 4.39039 0
M  V30 5986 H 549.002 -0.617897 6.74174 0
M  V30 5987 H 553.644 -1.46722 3.96525 0
M  V30 5988 H 551.362 0.239187 8.07746 0
M  V30 5989 H 554.948 -0.444046 5.80103 0
M  V30 5990 H 553.828 0.396659 7.83196 0
M  V30 5991 N 551.331 -1.39911 -0.725443 0
M  V30 5992 C 552.577 -1.37858 -1.48738 0
M  V30 5993 C 552.91 0.0224187 -1.94187 0
M  V30 5994 O 552.185 0.989204 -1.67466 0
M  V30 5995 C 552.468 -2.3594 -2.72038 0
M  V30 5996 C 552.321 -3.85023 -2.32546 0
M  V30 5997 C 553.64 -2.31704 -3.74167 0
M  V30 5998 H 550.759 -0.502074 -0.539528 0
M  V30 5999 H 553.401 -1.70974 -0.828728 0
M  V30 6000 H 551.551 -2.0783 -3.28236 0
M  V30 6001 H 553.223 -4.2392 -1.81905 0
M  V30 6002 H 551.466 -4.01334 -1.64661 0
M  V30 6003 H 552.137 -4.49152 -3.20884 0
M  V30 6004 H 554.613 -2.5658 -3.27576 0
M  V30 6005 H 553.489 -3.02395 -4.58092 0
M  V30 6006 H 553.75 -1.3253 -4.21768 0
M  V30 6007 N 552.809 0.956637 -1.25245 0
M  V30 6008 C 553.772 2.03457 -1.05537 0
M  V30 6009 C 554.772 1.60798 -0.00886317 0
M  V30 6010 O 555.962 1.72384 -0.250865 0
M  V30 6011 C 553.094 3.35543 -0.601965 0
M  V30 6012 H 554.287 2.22372 -2.01223 0
M  V30 6013 H 551.84 1.13344 -1.07623 0
M  V30 6014 H 552.575 3.22323 0.357584 0
M  V30 6015 H 552.36 3.67854 -1.35743 0
M  V30 6016 H 553.85 4.14769 -0.485454 0
M  V30 6017 N 554.287 1.06798 1.15896 0
M  V30 6018 C 555.527 0.797041 1.8822 0
M  V30 6019 C 555.891 -0.664549 1.80133 0
M  V30 6020 O 557.092 -1.0503 2.47431 0
M  V30 6021 C 555.363 1.28431 3.33527 0
M  V30 6022 S 556.922 1.14319 4.23647 0
M  V30 6023 H 553.74 0.288988 0.649621 0
M  V30 6024 H 556.342 1.36594 1.39865 0
M  V30 6025 H 555.046 2.34286 3.36954 0
M  V30 6026 H 554.577 0.710371 3.86933 0
M  V30 6027 H 556.592 0.0772467 4.9614 0
M  V30 6028 N 555.766 -1.3263 0.851289 0
M  V30 6029 C 557.012 -1.9766 0.453694 0
M  V30 6030 C 557.345 -1.67225 -0.987396 0
M  V30 6031 O 556.62 -0.958693 -1.69232 0
M  V30 6032 C 556.903 -3.5344 0.68936 0
M  V30 6033 C 556.756 -3.93517 2.17862 0
M  V30 6034 C 558.075 -4.39866 0.143555 0
M  V30 6035 H 555.194 -0.717989 0.166314 0
M  V30 6036 H 557.836 -1.57068 1.06909 0
M  V30 6037 H 555.986 -3.88147 0.165546 0
M  V30 6038 H 557.658 -3.69006 2.76826 0
M  V30 6039 H 555.901 -3.42798 2.65841 0
M  V30 6040 H 556.572 -5.02065 2.29422 0
M  V30 6041 H 559.048 -4.11875 0.591451 0
M  V30 6042 H 557.924 -5.47858 0.338043 0
M  V30 6043 H 558.185 -4.31696 -0.953466 0
M  V30 6044 N 557.244 -0.608902 -1.45362 0
M  V30 6045 C 558.49 -0.113196 -2.03085 0
M  V30 6046 C 558.845 1.24288 -1.46868 0
M  V30 6047 O 558.138 1.80792 -0.634402 0
M  V30 6048 C 558.332 -0.0167296 -3.57396 0
M  V30 6049 C 558.161 -1.36191 -4.28581 0
M  V30 6050 C 556.931 -1.94295 -4.66452 0
M  V30 6051 C 559.129 -2.29097 -4.60455 0
M  V30 6052 N 557.111 -3.2228 -5.22503 0
M  V30 6053 C 558.482 -3.41681 -5.17353 0
M  V30 6054 C 560.537 -2.28453 -4.42395 0
M  V30 6055 C 559.24 -4.53789 -5.58093 0
M  V30 6056 C 561.266 -3.39608 -4.8417 0
M  V30 6057 C 560.628 -4.50915 -5.41161 0
M  V30 6058 H 556.727 -0.0848213 -0.777386 0
M  V30 6059 H 559.311 -0.807541 -1.77163 0
M  V30 6060 H 557.482 0.646839 -3.82976 0
M  V30 6061 H 559.214 0.485757 -4.01774 0
M  V30 6062 H 555.969 -1.47486 -4.5005 0
M  V30 6063 H 556.393 -3.87654 -5.55025 0
M  V30 6064 H 561.035 -1.43658 -3.97646 0
M  V30 6065 H 558.753 -5.39307 -6.01808 0
M  V30 6066 H 562.339 -3.40259 -4.71927 0
M  V30 6067 H 561.219 -5.35505 -5.72891 0
M  V30 6068 N 558.722 1.53707 -0.348139 0
M  V30 6069 C 559.969 2.00988 0.246966 0
M  V30 6070 C 560.297 1.23586 1.50189 0
M  V30 6071 O 559.552 0.312817 1.93184 0
M  V30 6072 C 559.851 3.52292 0.602061 0
M  V30 6073 C 559.517 4.47453 -0.556509 0
M  V30 6074 C 558.179 4.73188 -0.874446 0
M  V30 6075 C 560.531 5.03851 -1.33354 0
M  V30 6076 C 557.859 5.52577 -1.9717 0
M  V30 6077 C 560.211 5.84437 -2.42108 0
M  V30 6078 C 558.875 6.08465 -2.74456 0
M  V30 6079 H 558.145 0.735469 0.0903712 0
M  V30 6080 H 560.792 1.85464 -0.477001 0
M  V30 6081 H 559.097 3.65672 1.40681 0
M  V30 6082 H 560.794 3.86337 1.07447 0
M  V30 6083 H 557.384 4.27558 -0.298652 0
M  V30 6084 H 561.568 4.8393 -1.10117 0
M  V30 6085 H 556.824 5.69418 -2.22651 0
M  V30 6086 H 560.998 6.27151 -3.02745 0
M  V30 6087 H 558.625 6.69768 -3.59604 0
M  V30 6088 N 560.2 0.0768682 1.57412 0
M  V30 6089 C 561.43 -0.5991 1.97723 0
M  V30 6090 C 561.838 -1.63378 0.954166 0
M  V30 6091 O 561.181 -1.83578 -0.0668706 0
M  V30 6092 C 561.243 -1.32078 3.34358 0
M  V30 6093 C 560.907 -0.438985 4.54887 0
M  V30 6094 C 561.904 0.305492 5.19002 0
M  V30 6095 C 559.589 -0.362378 5.00991 0
M  V30 6096 C 561.583 1.11475 6.27576 0
M  V30 6097 C 559.27 0.450543 6.09437 0
M  V30 6098 C 560.268 1.18777 6.72593 0
M  V30 6099 O 559.956 1.98727 7.7895 0
M  V30 6100 H 559.688 -0.166725 0.655117 0
M  V30 6101 H 562.242 0.147337 2.04871 0
M  V30 6102 H 560.472 -2.1134 3.2384 0
M  V30 6103 H 562.161 -1.88949 3.5924 0
M  V30 6104 H 562.927 0.25593 4.84324 0
M  V30 6105 H 558.806 -0.925832 4.51608 0
M  V30 6106 H 562.35 1.69068 6.76803 0
M  V30 6107 H 558.247 0.501651 6.43548 0
M  V30 6108 H 559.015 1.91214 7.95851 0
M  V30 6109 N 561.678 -1.56367 -0.196722 0
M  V30 6110 C 562.927 -1.79724 -0.915539 0
M  V30 6111 C 563.24 -0.649804 -1.84491 0
M  V30 6112 O 564.446 -0.767631 -2.60422 0
M  V30 6113 C 562.902 -3.18369 -1.67836 0
M  V30 6114 C 562.51 -4.4091 -0.793897 0
M  V30 6115 C 564.254 -3.51037 -2.38691 0
M  V30 6116 C 562.161 -5.70577 -1.55549 0
M  V30 6117 H 561.091 -0.67013 -0.345604 0
M  V30 6118 H 563.742 -1.82721 -0.168856 0
M  V30 6119 H 562.124 -3.09617 -2.46887 0
M  V30 6120 H 563.298 -4.60781 -0.042163 0
M  V30 6121 H 561.613 -4.15937 -0.19626 0
M  V30 6122 H 564.21 -4.4515 -2.96219 0
M  V30 6123 H 564.553 -2.74704 -3.12799 0
M  V30 6124 H 565.086 -3.61229 -1.66608 0
M  V30 6125 H 561.825 -6.49871 -0.857226 0
M  V30 6126 H 561.345 -5.54726 -2.2812 0
M  V30 6127 H 563.024 -6.11637 -2.10971 0
M  V30 6128 N 563.156 0.464375 -1.50603 0
M  V30 6129 C 564.404 1.21356 -1.61608 0
M  V30 6130 C 564.725 1.92329 -0.321643 0
M  V30 6131 O 563.995 1.84403 0.661232 0
M  V30 6132 H 562.575 0.45094 -0.595535 0
M  V30 6133 H 565.237 0.535046 -1.87412 0
M  V30 6134 H 564.333 1.95783 -2.43054 0
M  V30 6135 N 564.634 1.40294 0.718013 0
M  V30 6136 C 565.566 1.36281 1.84283 0
M  V30 6137 C 566.579 0.268621 1.60569 0
M  V30 6138 O 567.768 0.528798 1.70487 0
M  V30 6139 C 564.868 1.09741 3.2064 0
M  V30 6140 C 564.041 2.30767 3.71571 0
M  V30 6141 C 563.1 2.00424 4.86535 0
M  V30 6142 O 562.126 2.73268 4.99313 0
M  V30 6143 N 563.328 0.980724 5.72156 0
M  V30 6144 H 566.093 2.3322 1.88225 0
M  V30 6145 H 563.654 1.34616 0.899453 0
M  V30 6146 H 565.646 0.874322 3.95143 0
M  V30 6147 H 564.216 0.214771 3.11861 0
M  V30 6148 H 563.436 2.68921 2.88228 0
M  V30 6149 H 564.724 3.11455 4.02335 0
M  V30 6150 H 564.122 0.377375 5.6444 0
M  V30 6151 H 562.679 0.817538 6.46653 0
M  V30 6152 N 566.112 -0.949982 1.2575 0
M  V30 6153 C 567.528 -1.22191 1.02672 0
M  V30 6154 C 567.728 -1.99898 -0.253588 0
M  V30 6155 O 566.784 -2.33329 -0.965076 0
M  V30 6156 C 568.097 -1.99175 2.25277 0
M  V30 6157 C 569.645 -2.12201 2.30087 0
M  V30 6158 C 570.12 -2.92586 3.5236 0
M  V30 6159 N 571.611 -3.00163 3.52784 0
M  V30 6160 C 572.346 -3.62766 4.44059 0
M  V30 6161 N 571.842 -4.26943 5.45611 0
M  V30 6162 N 573.635 -3.59953 4.3173 0
M  V30 6163 H 565.786 -0.430258 2.07996 0
M  V30 6164 H 568.049 -0.252844 0.91366 0
M  V30 6165 H 567.755 -1.49479 3.18354 0
M  V30 6166 H 567.629 -2.99868 2.28821 0
M  V30 6167 H 570.016 -2.61093 1.3753 0
M  V30 6168 H 570.097 -1.10799 2.30559 0
M  V30 6169 H 569.741 -2.44383 4.45241 0
M  V30 6170 H 569.671 -3.94224 3.49134 0
M  V30 6171 H 572.162 -2.54529 2.79327 0
M  V30 6172 H 572.475 -4.72583 6.11461 0
M  V30 6173 H 570.82 -4.25557 5.49478 0
M  V30 6174 H 574.011 -3.09003 3.51617 0
M  V30 6175 H 574.184 -4.08455 5.03059 0
M  V30 6176 N 567.59 -1.07411 -1.15328 0
M  V30 6177 C 568.5 -0.706438 -2.23711 0
M  V30 6178 C 569.516 0.282586 -1.7169 0
M  V30 6179 O 570.692 0.129066 -2.00986 0
M  V30 6180 C 567.757 -0.11048 -3.46524 0
M  V30 6181 C 566.818 -1.15282 -4.13532 0
M  V30 6182 C 566.051 -0.585205 -5.30482 0
M  V30 6183 O 566.274 0.598549 -5.67251 0
M  V30 6184 O 565.208 -1.33039 -5.87013 0
M  V30 6185 H 569.034 -1.61031 -2.57493 0
M  V30 6186 H 566.619 -0.847113 -1.23062 0
M  V30 6187 H 568.501 0.21957 -4.20828 0
M  V30 6188 H 567.176 0.766703 -3.14489 0
M  V30 6189 H 566.083 -1.53523 -3.41147 0
M  V30 6190 H 567.416 -2.00192 -4.49649 0
M  V30 6191 N 569.068 1.32177 -0.85831 0
M  V30 6192 C 570.317 1.96392 -0.459689 0
M  V30 6193 C 570.63 1.68659 0.990632 0
M  V30 6194 O 571.836 2.26641 1.49485 0
M  V30 6195 C 570.292 3.51542 -0.7711 0
M  V30 6196 C 569.9 3.8813 -2.2374 0
M  V30 6197 C 571.644 4.2221 -0.44038 0
M  V30 6198 C 569.551 5.36341 -2.49183 0
M  V30 6199 H 568.481 0.735007 -0.168169 0
M  V30 6200 H 571.132 1.50518 -1.0496 0
M  V30 6201 H 569.514 3.95846 -0.11058 0
M  V30 6202 H 570.688 3.54824 -2.94001 0
M  V30 6203 H 569.003 3.30497 -2.533 0
M  V30 6204 H 571.6 5.31234 -0.607855 0
M  V30 6205 H 571.943 4.11683 0.618291 0
M  V30 6206 H 572.476 3.83502 -1.05695 0
M  V30 6207 H 569.215 5.51892 -3.53689 0
M  V30 6208 H 568.735 5.7104 -1.83504 0
M  V30 6209 H 570.414 6.03466 -2.33318 0
M  V30 6210 N 570.547 0.616602 1.45037 0
M  V30 6211 C 571.457 -0.0985401 2.34393 0
M  V30 6212 C 572.473 -0.850971 1.51771 0
M  V30 6213 O 573.649 -0.806521 1.84546 0
M  V30 6214 C 570.714 -1.07748 3.29532 0
M  V30 6215 C 569.775 -0.326022 4.2806 0
M  V30 6216 C 569.008 -1.25833 5.18654 0
M  V30 6217 O 569.231 -2.49652 5.12864 0
M  V30 6218 O 568.165 -0.750512 5.97203 0
M  V30 6219 H 571.991 0.636016 2.96966 0
M  V30 6220 H 569.576 0.376832 1.44569 0
M  V30 6221 H 571.458 -1.64107 3.88133 0
M  V30 6222 H 570.133 -1.79291 2.69512 0
M  V30 6223 H 569.04 0.280253 3.73049 0
M  V30 6224 H 570.373 0.349091 4.9096 0
M  V30 6225 N 572.025 -1.5352 0.356285 0
M  V30 6226 C 573.25 -2.06007 -0.239961 0
M  V30 6227 C 573.675 -1.22872 -1.42422 0
M  V30 6228 O 573.033 -0.245516 -1.7963 0
M  V30 6229 C 573.081 -3.5522 -0.620587 0
M  V30 6230 O 572.185 -3.74864 -1.71902 0
M  V30 6231 H 571.526 -0.662961 -0.0371377 0
M  V30 6232 H 574.056 -1.98033 0.514194 0
M  V30 6233 H 574.066 -3.98081 -0.894197 0
M  V30 6234 H 572.741 -4.15175 0.245407 0
M  V30 6235 H 571.318 -3.43904 -1.44169 0
M  V30 6236 N 573.503 -0.0852151 -1.57369 0
M  V30 6237 C 574.728 0.592872 -1.98746 0
M  V30 6238 C 575.153 1.61538 -0.963689 0
M  V30 6239 O 574.511 1.81168 0.069071 0
M  V30 6240 C 574.559 1.22599 -3.39119 0
M  V30 6241 O 573.663 2.34185 -3.39457 0
M  V30 6242 H 573.004 0.151314 -0.646529 0
M  V30 6243 H 575.534 -0.163703 -2.03944 0
M  V30 6244 H 575.544 1.56965 -3.76598 0
M  V30 6245 H 574.219 0.476831 -4.13158 0
M  V30 6246 H 572.796 2.01512 -3.13763 0
M  V30 6247 N 574.981 1.5647 0.188427 0
M  V30 6248 C 575.891 1.98285 1.2538 0
M  V30 6249 C 576.907 0.891535 1.49424 0
M  V30 6250 O 578.083 1.19782 1.61908 0
M  V30 6251 C 575.148 2.31965 2.57669 0
M  V30 6252 C 574.209 3.54838 2.41638 0
M  V30 6253 C 573.442 3.86901 3.67618 0
M  V30 6254 O 573.665 3.20163 4.72072 0
M  V30 6255 O 572.599 4.80309 3.62749 0
M  V30 6256 H 576.425 2.89145 0.928912 0
M  V30 6257 H 574.01 1.44112 0.393955 0
M  V30 6258 H 575.892 2.54673 3.35737 0
M  V30 6259 H 574.567 1.44271 2.89771 0
M  V30 6260 H 573.474 3.37369 1.61658 0
M  V30 6261 H 574.807 4.43019 2.14465 0
M  V30 6262 N 576.459 -0.456382 1.50847 0
M  V30 6263 C 577.684 -1.2349 1.66628 0
M  V30 6264 C 578.109 -1.84715 0.355254 0
M  V30 6265 O 577.467 -1.67961 -0.682559 0
M  V30 6266 C 577.515 -2.30865 2.77009 0
M  V30 6267 O 576.619 -3.35882 2.39285 0
M  V30 6268 H 575.96 -0.36266 0.556214 0
M  V30 6269 H 578.49 -0.541374 1.97308 0
M  V30 6270 H 578.5 -2.75949 3.00526 0
M  V30 6271 H 577.175 -1.85677 3.72152 0
M  V30 6272 H 575.752 -2.96406 2.26269 0
M  V30 6273 N 577.937 -1.40673 -0.710563 0
M  V30 6274 C 578.847 -1.43663 -1.85467 0
M  V30 6275 C 579.863 -0.328721 -1.70867 0
M  V30 6276 O 581.039 -0.574098 -1.93044 0
M  V30 6277 C 578.104 -1.30226 -3.21313 0
M  V30 6278 C 577.165 -2.51204 -3.48131 0
M  V30 6279 C 576.398 -2.38398 -4.77495 0
M  V30 6280 O 576.621 -1.40048 -5.5294 0
M  V30 6281 O 575.555 -3.2787 -5.04762 0
M  V30 6282 H 579.381 -2.40156 -1.859 0
M  V30 6283 H 576.966 -1.22049 -0.861652 0
M  V30 6284 H 578.848 -1.2496 -4.02446 0
M  V30 6285 H 577.523 -0.368419 -3.21597 0
M  V30 6286 H 576.43 -2.62048 -2.66987 0
M  V30 6287 H 577.763 -3.43366 -3.52648 0
M  V30 6288 N 579.415 0.9433 -1.26252 0
M  V30 6289 C 580.345 2.05902 -1.10122 0
M  V30 6290 C 581.326 1.70099 -0.00700552 0
M  V30 6291 O 582.511 1.93377 -0.178641 0
M  V30 6292 C 579.641 3.39516 -0.731175 0
M  V30 6293 C 578.595 3.89372 -1.77688 0
M  V30 6294 C 577.921 5.19613 -1.26122 0
M  V30 6295 C 579.221 4.14489 -3.17799 0
M  V30 6296 H 580.915 2.19655 -2.03451 0
M  V30 6297 H 578.461 1.05548 -0.979576 0
M  V30 6298 H 580.414 4.17031 -0.605215 0
M  V30 6299 H 579.138 3.25733 0.23782 0
M  V30 6300 H 577.797 3.14036 -1.89148 0
M  V30 6301 H 577.445 5.02208 -0.282128 0
M  V30 6302 H 577.145 5.53939 -1.96023 0
M  V30 6303 H 578.669 5.99713 -1.14789 0
M  V30 6304 H 580.083 4.82625 -3.09428 0
M  V30 6305 H 578.48 4.60094 -3.85271 0
M  V30 6306 H 579.55 3.20347 -3.64014 0
M  V30 6307 N 580.893 1.08022 1.14757 0
M  V30 6308 C 582.304 0.829144 1.67279 0
M  V30 6309 C 582.655 -0.644721 1.85305 0
M  V30 6310 O 581.78 -1.49838 1.56133 0
M  V30 6311 C 582.375 1.49855 3.03857 0
M  V30 6312 C 580.934 1.29482 3.53428 0
M  V30 6313 C 580.081 1.56386 2.28995 0
M  V30 6314 H 583.032 1.24134 0.988762 0
M  V30 6315 H 583.053 0.923572 3.69121 0
M  V30 6316 H 582.565 2.57123 2.90705 0
M  V30 6317 H 580.666 0.242669 3.71809 0
M  V30 6318 H 580.779 2.01974 4.34446 0
M  V30 6319 H 579.143 0.985217 2.34874 0
M  V30 6320 H 579.926 2.64851 2.18423 0
M  V30 6321 N 582.371 -1.3172 0.865308 0
M  V30 6322 C 583.281 -2.32394 0.320935 0
M  V30 6323 C 584.297 -1.64511 -0.566746 0
M  V30 6324 O 585.473 -1.95969 -0.464575 0
M  V30 6325 C 582.538 -3.43462 -0.472701 0
M  V30 6326 C 581.599 -4.27015 0.442385 0
M  V30 6327 C 580.832 -5.32779 -0.313469 0
M  V30 6328 O 581.055 -5.49158 -1.54214 0
M  V30 6329 O 579.989 -6.01015 0.326257 0
M  V30 6330 H 583.815 -2.80868 1.15528 0
M  V30 6331 H 581.4 -1.35535 0.628545 0
M  V30 6332 H 583.282 -4.11172 -0.922781 0
M  V30 6333 H 581.957 -2.97159 -1.28367 0
M  V30 6334 H 580.864 -3.62075 0.940866 0
M  V30 6335 H 582.197 -4.76871 1.21882 0
M  V30 6336 N 583.85 -0.624285 -1.44708 0
M  V30 6337 C 585.099 -0.123539 -2.01321 0
M  V30 6338 C 585.412 1.25966 -1.49639 0
M  V30 6339 O 586.618 1.85405 -1.98336 0
M  V30 6340 C 585.074 -0.170124 -3.59498 0
M  V30 6341 C 584.682 -1.55421 -4.20176 0
M  V30 6342 C 586.426 0.274513 -4.23611 0
M  V30 6343 C 584.332 -1.55628 -5.70556 0
M  V30 6344 H 583.263 -0.0424183 -0.752806 0
M  V30 6345 H 585.913 -0.782076 -1.65999 0
M  V30 6346 H 584.296 0.555385 -3.92086 0
M  V30 6347 H 585.47 -2.30276 -3.99136 0
M  V30 6348 H 583.784 -1.94235 -3.68323 0
M  V30 6349 H 586.382 0.292402 -5.339 0
M  V30 6350 H 586.725 1.3005 -3.95465 0
M  V30 6351 H 587.258 -0.398275 -3.95801 0
M  V30 6352 H 583.997 -2.56041 -6.03426 0
M  V30 6353 H 583.517 -0.850563 -5.93739 0
M  V30 6354 H 585.196 -1.28721 -6.34066 0
M  V30 6355 N 585.328 1.53329 -0.364422 0
M  V30 6356 C 586.576 2.00842 0.225189 0
M  V30 6357 C 586.897 1.25345 1.49378 0
M  V30 6358 O 586.167 0.366396 1.92443 0
M  V30 6359 H 584.747 0.742009 0.0862027 0
M  V30 6360 H 587.409 1.8863 -0.490389 0
M  V30 6361 H 586.505 3.08795 0.452987 0
M  V30 6362 N 586.806 0.0935595 1.57322 0
M  V30 6363 C 588.052 -0.565234 1.95388 0
M  V30 6364 C 588.407 -1.65888 0.974632 0
M  V30 6365 O 587.7 -1.916 0.000376385 0
M  V30 6366 C 587.894 -1.16692 3.37813 0
M  V30 6367 C 587.723 -0.133091 4.49503 0
M  V30 6368 C 586.493 0.289884 5.04468 0
M  V30 6369 C 588.691 0.638141 5.10326 0
M  V30 6370 N 586.673 1.31214 5.99713 0
M  V30 6371 C 588.044 1.51227 6.01274 0
M  V30 6372 C 590.099 0.691827 4.9307 0
M  V30 6373 C 588.802 2.43536 6.76818 0
M  V30 6374 C 590.828 1.60251 5.69274 0
M  V30 6375 C 590.19 2.46427 6.59889 0
M  V30 6376 H 586.289 -0.177212 0.761656 0
M  V30 6377 H 588.873 0.175769 1.93905 0
M  V30 6378 H 587.044 -1.87775 3.39993 0
M  V30 6379 H 588.776 -1.78795 3.63063 0
M  V30 6380 H 585.531 -0.0975541 4.735 0
M  V30 6381 H 585.955 1.82143 6.52038 0
M  V30 6382 H 590.597 0.0397431 4.22781 0
M  V30 6383 H 588.315 3.0977 7.4637 0
M  V30 6384 H 591.901 1.64917 5.57937 0
M  V30 6385 H 590.781 3.15751 7.17824 0
M  V30 6386 N 588.284 -1.56567 -0.180126 0
M  V30 6387 C 589.214 -1.98753 -1.22553 0
M  V30 6388 C 590.195 -0.86175 -1.46656 0
M  V30 6389 O 591.38 -1.12719 -1.58139 0
M  V30 6390 C 588.51 -2.33988 -2.56645 0
M  V30 6391 C 587.464 -3.49445 -2.47128 0
M  V30 6392 C 586.79 -3.70397 -3.8563 0
M  V30 6393 C 588.09 -4.83171 -1.98352 0
M  V30 6394 H 589.784 -2.86332 -0.874896 0
M  V30 6395 H 587.33 -1.37757 -0.419414 0
M  V30 6396 H 589.283 -2.62097 -3.29974 0
M  V30 6397 H 588.007 -1.43309 -2.93479 0
M  V30 6398 H 586.666 -3.2145 -1.76254 0
M  V30 6399 H 586.314 -2.77023 -4.19842 0
M  V30 6400 H 586.014 -4.48077 -3.80132 0
M  V30 6401 H 587.538 -4.00897 -4.60558 0
M  V30 6402 H 588.952 -5.10213 -2.61449 0
M  V30 6403 H 587.349 -5.64425 -2.03823 0
M  V30 6404 H 588.419 -4.75753 -0.937402 0
M  V30 6405 N 589.762 0.448376 -1.51087 0
M  V30 6406 C 590.694 1.56146 -1.67783 0
M  V30 6407 C 591.707 1.52913 -0.55871 0
M  V30 6408 O 592.896 1.57889 -0.83267 0
M  V30 6409 C 589.996 2.95057 -1.66716 0
M  V30 6410 C 589.169 3.22915 -2.95033 0
M  V30 6411 C 588.228 4.41495 -2.86302 0
M  V30 6412 O 587.254 4.40688 -3.60254 0
M  V30 6413 N 588.456 5.44443 -2.014 0
M  V30 6414 H 591.221 1.42232 -2.638 0
M  V30 6415 H 588.782 0.637153 -1.48835 0
M  V30 6416 H 590.774 3.72388 -1.58458 0
M  V30 6417 H 589.344 3.02624 -0.783403 0
M  V30 6418 H 588.564 2.33985 -3.17245 0
M  V30 6419 H 589.852 3.38349 -3.79996 0
M  V30 6420 H 589.25 5.4793 -1.40674 0
M  V30 6421 H 587.807 6.2067 -1.99029 0
M  V30 6422 N 591.24 1.41047 0.703093 0
M  V30 6423 C 592.15 1.44645 1.84703 0
M  V30 6424 C 593.166 0.337778 1.7069 0
M  V30 6425 O 594.342 0.584327 1.92737 0
M  V30 6426 C 591.407 1.31928 3.20618 0
M  V30 6427 C 590.468 2.53047 3.46794 0
M  V30 6428 C 589.701 2.40927 4.76224 0
M  V30 6429 O 589.924 1.42978 5.5219 0
M  V30 6430 O 588.858 3.30543 5.03016 0
M  V30 6431 H 592.684 2.41139 1.84624 0
M  V30 6432 H 590.269 1.22504 0.855167 0
M  V30 6433 H 592.151 1.27092 4.01778 0
M  V30 6434 H 590.826 0.385469 3.21397 0
M  V30 6435 H 589.733 2.6346 2.65593 0
M  V30 6436 H 591.066 3.45231 3.50822 0
M  V30 6437 N 592.718 -0.936591 1.26751 0
M  V30 6438 C 593.648 -2.05315 1.11212 0
M  V30 6439 C 594.629 -1.70092 0.0160262 0
M  V30 6440 O 595.814 -1.93279 0.188894 0
M  V30 6441 C 592.944 -3.39123 0.749171 0
M  V30 6442 C 591.898 -3.88425 1.79751 0
M  V30 6443 C 591.224 -5.18936 1.28876 0
M  V30 6444 C 592.524 -4.12798 3.19992 0
M  V30 6445 H 594.218 -2.18573 2.04613 0
M  V30 6446 H 591.764 -1.05027 0.985159 0
M  V30 6447 H 593.717 -4.16704 0.627323 0
M  V30 6448 H 592.441 -3.25855 -0.220543 0
M  V30 6449 H 591.1 -3.13028 1.90811 0
M  V30 6450 H 590.748 -5.02051 0.308757 0
M  V30 6451 H 590.448 -5.52892 1.98958 0
M  V30 6452 H 591.972 -5.99096 1.17967 0
M  V30 6453 H 593.386 -4.80977 3.11983 0
M  V30 6454 H 591.783 -4.58044 3.87705 0
M  V30 6455 H 592.853 -3.18412 3.65707 0
M  V30 6456 N 594.196 -1.08629 -1.14182 0
M  V30 6457 C 595.159 -0.722027 -2.1753 0
M  V30 6458 C 596.159 0.244305 -1.58933 0
M  V30 6459 O 597.349 0.0235545 -1.74184 0
M  V30 6460 C 594.481 -0.0663966 -3.40835 0
M  V30 6461 H 595.674 -1.63719 -2.51269 0
M  V30 6462 H 593.227 -0.884442 -1.28869 0
M  V30 6463 H 593.962 0.860389 -3.12678 0
M  V30 6464 H 593.747 -0.761598 -3.84632 0
M  V30 6465 H 595.237 0.173346 -4.1724 0
M  V30 6466 N 595.674 1.31259 -0.872281 0
M  V30 6467 C 597.09 1.49283 -0.564521 0
M  V30 6468 C 597.29 1.80243 0.900807 0
M  V30 6469 O 596.346 1.88246 1.68284 0
M  V30 6470 C 597.659 2.62503 -1.46673 0
M  V30 6471 C 599.207 2.76386 -1.46901 0
M  V30 6472 C 599.682 3.92705 -2.35684 0
M  V30 6473 N 601.173 3.99995 -2.33577 0
M  V30 6474 C 601.908 4.89276 -2.98992 0
M  V30 6475 N 601.404 5.83443 -3.73585 0
M  V30 6476 N 603.197 4.82541 -2.88289 0
M  V30 6477 H 595.348 1.09432 -1.82039 0
M  V30 6478 H 597.611 0.540949 -0.77851 0
M  V30 6479 H 597.317 2.46407 -2.50951 0
M  V30 6480 H 597.191 3.58695 -1.16696 0
M  V30 6481 H 599.578 2.91894 -0.433796 0
M  V30 6482 H 599.659 1.80853 -1.80903 0
M  V30 6483 H 599.303 3.77954 -3.39283 0
M  V30 6484 H 599.233 4.87549 -1.99006 0
M  V30 6485 H 601.724 3.32624 -1.7936 0
M  V30 6486 H 602.037 6.48303 -4.20622 0
M  V30 6487 H 600.382 5.83415 -3.77694 0
M  V30 6488 H 603.573 4.07951 -2.2955 0
M  V30 6489 H 603.746 5.51916 -3.39549 0
M  V30 6490 N 597.152 0.631951 1.44375 0
M  V30 6491 C 598.568 0.297642 1.568 0
M  V30 6492 C 598.768 -1.19916 1.61934 0
M  V30 6493 O 597.824 -1.98324 1.56281 0
M  V30 6494 C 599.137 0.990286 2.83926 0
M  V30 6495 C 600.685 0.968507 2.97639 0
M  V30 6496 C 601.16 1.64163 4.27568 0
M  V30 6497 N 602.651 1.60826 4.34384 0
M  V30 6498 C 603.386 2.09802 5.33639 0
M  V30 6499 N 602.882 2.66973 6.39294 0
M  V30 6500 N 604.675 2.00426 5.25153 0
M  V30 6501 H 596.826 1.60353 1.39286 0
M  V30 6502 H 599.089 0.673142 0.667521 0
M  V30 6503 H 598.795 2.04519 2.8612 0
M  V30 6504 H 598.669 0.528563 3.73478 0
M  V30 6505 H 601.056 -0.0779247 2.94997 0
M  V30 6506 H 601.137 1.46873 2.09433 0
M  V30 6507 H 600.781 2.68752 4.3097 0
M  V30 6508 H 600.711 1.11624 5.14634 0
M  V30 6509 H 603.202 1.19087 3.58646 0
M  V30 6510 H 603.515 3.02074 7.11316 0
M  V30 6511 H 601.86 2.71024 6.39977 0
M  V30 6512 H 605.051 1.55483 4.41523 0
M  V30 6513 H 605.224 2.38906 6.02352 0
M  V30 6514 N 598.631 -1.53133 0.372548 0
M  V30 6515 C 599.561 -2.28876 -0.462412 0
M  V30 6516 C 600.542 -1.31583 -1.07796 0
M  V30 6517 O 601.727 -1.60461 -1.09389 0
M  V30 6518 C 598.857 -3.08317 -1.59868 0
M  V30 6519 C 597.811 -4.13355 -1.11003 0
M  V30 6520 C 597.137 -4.8092 -2.33708 0
M  V30 6521 C 598.437 -5.21955 -0.18983 0
M  V30 6522 H 600.131 -2.9892 0.169511 0
M  V30 6523 H 597.677 -1.43761 0.0829658 0
M  V30 6524 H 599.63 -3.60055 -2.18949 0
M  V30 6525 H 598.354 -2.35976 -2.25794 0
M  V30 6526 H 597.013 -3.62573 -0.541869 0
M  V30 6527 H 596.661 -4.05144 -2.98106 0
M  V30 6528 H 596.361 -5.51904 -2.01682 0
M  V30 6529 H 597.885 -5.35455 -2.93462 0
M  V30 6530 H 599.299 -5.69153 -0.688319 0
M  V30 6531 H 597.696 -6.00087 0.0398887 0
M  V30 6532 H 598.766 -4.78811 0.766057 0
M  V30 6533 N 600.109 -0.101901 -1.5727 0
M  V30 6534 C 601.019 0.868647 -2.17926 0
M  V30 6535 C 602.035 1.30527 -1.1506 0
M  V30 6536 O 603.211 1.37178 -1.47459 0
M  V30 6537 C 600.276 2.10727 -2.75309 0
M  V30 6538 C 599.337 1.7242 -3.93154 0
M  V30 6539 C 598.57 2.90377 -4.47791 0
M  V30 6540 O 598.793 4.05305 -4.01353 0
M  V30 6541 O 597.727 2.6845 -5.38719 0
M  V30 6542 H 601.553 0.382544 -3.01281 0
M  V30 6543 H 599.138 0.122812 -1.48894 0
M  V30 6544 H 601.02 2.83303 -3.11958 0
M  V30 6545 H 599.695 2.58376 -1.94996 0
M  V30 6546 H 598.602 0.970039 -3.61305 0
M  V30 6547 H 599.935 1.29528 -4.74851 0
M  V30 6548 N 601.587 1.56661 0.17182 0
M  V30 6549 C 602.815 1.861 0.904115 0
M  V30 6550 C 603.23 0.687227 1.75848 0
M  V30 6551 O 602.587 -0.343671 1.79235 0
M  V30 6552 C 602.638 3.14568 1.78127 0
M  V30 6553 O 602.359 4.27422 0.961366 0
M  V30 6554 C 603.86 3.5735 2.62327 0
M  V30 6555 H 601.08 0.617445 0.262684 0
M  V30 6556 H 603.624 2.03775 0.172068 0
M  V30 6557 H 601.779 2.98721 2.46666 0
M  V30 6558 H 602.193 5.00725 1.56123 0
M  V30 6559 H 603.667 4.50144 3.1949 0
M  V30 6560 H 604.144 2.81445 3.37173 0
M  V30 6561 H 604.75 3.75807 1.99121 0
M  V30 6562 N 603.065 -0.440357 1.51323 0
M  V30 6563 C 604.476 -1.02032 1.56353 0
M  V30 6564 C 604.827 -1.92382 0.385197 0
M  V30 6565 O 603.952 -2.10583 -0.498373 0
M  V30 6566 C 604.547 -1.85723 2.83359 0
M  V30 6567 C 603.106 -2.38774 2.90971 0
M  V30 6568 C 602.253 -1.17908 2.50984 0
M  V30 6569 H 605.204 -0.221744 1.57143 0
M  V30 6570 H 605.225 -2.71141 2.66951 0
M  V30 6571 H 604.737 -1.19939 3.69102 0
M  V30 6572 H 602.838 -3.08021 2.09651 0
M  V30 6573 H 602.951 -2.71778 3.94555 0
M  V30 6574 H 601.315 -1.52347 2.04114 0
M  V30 6575 H 602.098 -0.537393 3.39068 0
M  V30 6576 N 604.543 -1.41418 -0.695603 0
M  V30 6577 C 605.773 -1.43921 -1.48224 0
M  V30 6578 C 606.181 -0.0428855 -1.89151 0
M  V30 6579 O 605.524 0.948138 -1.5734 0
M  V30 6580 C 605.586 -2.28466 -2.77567 0
M  V30 6581 C 605.25 -3.76629 -2.58844 0
M  V30 6582 C 606.247 -4.6879 -2.24793 0
M  V30 6583 C 603.932 -4.2067 -2.74485 0
M  V30 6584 C 605.926 -6.02981 -2.06622 0
M  V30 6585 C 603.613 -5.54926 -2.55931 0
M  V30 6586 C 604.611 -6.45897 -2.2205 0
M  V30 6587 O 604.299 -7.77675 -2.03657 0
M  V30 6588 H 604.031 -0.492252 -0.463318 0
M  V30 6589 H 606.585 -1.86347 -0.863952 0
M  V30 6590 H 604.815 -1.80853 -3.41802 0
M  V30 6591 H 606.504 -2.2267 -3.39371 0
M  V30 6592 H 607.27 -4.36055 -2.12323 0
M  V30 6593 H 603.149 -3.50167 -2.9984 0
M  V30 6594 H 606.693 -6.73951 -1.80099 0
M  V30 6595 H 602.59 -5.8724 -2.67991 0
M  V30 6596 H 603.358 -7.88819 -2.1842 0
M  V30 6597 N 606.021 0.929856 -1.27246 0
M  V30 6598 C 607.251 1.70895 -1.16096 0
M  V30 6599 C 607.659 1.87039 0.285122 0
M  V30 6600 O 607.002 1.38557 1.20614 0
M  V30 6601 C 607.064 3.12919 -1.7698 0
M  V30 6602 C 606.728 3.2012 -3.26148 0
M  V30 6603 C 607.725 3.02533 -4.22812 0
M  V30 6604 C 605.41 3.43148 -3.66817 0
M  V30 6605 C 607.404 3.07861 -5.58122 0
M  V30 6606 C 605.091 3.48109 -5.02258 0
M  V30 6607 C 606.089 3.30483 -5.97721 0
M  V30 6608 O 605.777 3.35175 -7.30694 0
M  V30 6609 H 605.509 0.54152 -0.404639 0
M  V30 6610 H 608.063 1.17342 -1.68582 0
M  V30 6611 H 606.293 3.67945 -1.18969 0
M  V30 6612 H 607.982 3.72787 -1.60576 0
M  V30 6613 H 608.748 2.84586 -3.92728 0
M  V30 6614 H 604.627 3.55918 -2.9299 0
M  V30 6615 H 608.171 2.94021 -6.32612 0
M  V30 6616 H 604.068 3.65579 -5.31998 0
M  V30 6617 H 604.836 3.51644 -7.39114 0
M  V30 6618 N 607.499 1.09233 1.13605 0
M  V30 6619 C 608.429 0.751738 2.21068 0
M  V30 6620 C 609.41 -0.269688 1.67948 0
M  V30 6621 O 610.595 -0.13819 1.93708 0
M  V30 6622 C 607.725 0.16935 3.46887 0
M  V30 6623 C 606.679 1.12007 4.13084 0
M  V30 6624 C 606.005 0.399483 5.33206 0
M  V30 6625 C 607.305 2.46168 4.6065 0
M  V30 6626 H 608.999 1.65024 2.49815 0
M  V30 6627 H 606.545 0.794905 1.20072 0
M  V30 6628 H 608.498 -0.0809824 4.21322 0
M  V30 6629 H 607.222 -0.764335 3.1753 0
M  V30 6630 H 605.881 1.35564 3.40614 0
M  V30 6631 H 605.529 -0.538277 5.00112 0
M  V30 6632 H 605.229 1.03337 5.78442 0
M  V30 6633 H 606.753 0.157403 6.10397 0
M  V30 6634 H 608.167 2.26829 5.26518 0
M  V30 6635 H 606.564 3.05326 5.1662 0
M  V30 6636 H 607.634 3.07076 3.75276 0
M  V30 6637 N 608.977 -1.30795 0.87923 0
M  V30 6638 C 610.223 -1.96653 0.495519 0
M  V30 6639 C 610.556 -1.69282 -0.951703 0
M  V30 6640 O 609.831 -0.994374 -1.6716 0
M  V30 6641 C 610.114 -3.51898 0.764174 0
M  V30 6642 C 609.967 -3.88808 2.2616 0
M  V30 6643 C 611.286 -4.39462 0.236825 0
M  V30 6644 H 608.405 -0.7143 0.181507 0
M  V30 6645 H 611.047 -1.54765 1.10217 0
M  V30 6646 H 609.197 -3.87709 0.247841 0
M  V30 6647 H 610.869 -3.63051 2.8459 0
M  V30 6648 H 609.112 -3.37082 2.73053 0
M  V30 6649 H 609.783 -4.97086 2.4002 0
M  V30 6650 H 612.259 -4.10528 0.678683 0
M  V30 6651 H 611.135 -5.47018 0.454176 0
M  V30 6652 H 611.396 -4.33621 -0.861683 0
M  V30 6653 N 610.455 -0.639598 -1.44038 0
M  V30 6654 C 611.703 -0.147188 -2.01563 0
M  V30 6655 C 612.024 1.2384 -1.50628 0
M  V30 6656 O 611.294 1.82452 -0.713316 0
M  V30 6657 H 609.874 -0.0514231 -0.745228 0
M  V30 6658 H 612.536 -0.828205 -1.76428 0
M  V30 6659 H 611.632 -0.121358 -3.11864 0
M  V30 6660 N 611.933 1.52934 -0.380664 0
M  V30 6661 C 613.349 1.59571 -0.0302429 0
M  V30 6662 C 613.549 1.39509 1.45394 0
M  V30 6663 O 612.605 1.20777 2.21741 0
M  V30 6664 C 613.918 2.96519 -0.499691 0
M  V30 6665 C 615.466 3.09672 -0.455204 0
M  V30 6666 C 615.941 4.49056 -0.900703 0
M  V30 6667 N 617.432 4.55215 -0.856367 0
M  V30 6668 C 618.167 5.61282 -1.17259 0
M  V30 6669 N 617.663 6.75035 -1.55885 0
M  V30 6670 N 619.456 5.51343 -1.0944 0
M  V30 6671 H 611.607 1.64224 -1.347 0
M  V30 6672 H 613.87 0.771033 -0.551554 0
M  V30 6673 H 613.576 3.16388 -1.53595 0
M  V30 6674 H 613.45 3.77052 0.105789 0
M  V30 6675 H 615.837 2.89504 0.571949 0
M  V30 6676 H 615.918 2.31113 -1.09638 0
M  V30 6677 H 615.562 4.69964 -1.92604 0
M  V30 6678 H 615.492 5.26068 -0.236629 0
M  V30 6679 H 617.983 3.73546 -0.572013 0
M  V30 6680 H 618.296 7.51926 -1.784 0
M  V30 6681 H 616.641 6.76388 -1.59764 0
M  V30 6682 H 619.832 4.61356 -0.791713 0
M  V30 6683 H 620.005 6.33905 -1.34417 0
M  V30 6684 N 613.412 0.11024 1.57214 0
M  V30 6685 C 614.828 -0.24638 1.57687 0
M  V30 6686 C 615.028 -1.67344 1.12241 0
M  V30 6687 O 614.084 -2.39298 0.805783 0
M  V30 6688 C 615.397 -0.0210288 3.00693 0
M  V30 6689 C 616.945 -0.0876077 3.12877 0
M  V30 6690 C 617.42 0.10994 4.57868 0
M  V30 6691 N 618.911 0.0556135 4.63167 0
M  V30 6692 C 619.646 0.183495 5.73106 0
M  V30 6693 N 619.142 0.367058 6.91827 0
M  V30 6694 N 620.935 0.123689 5.61964 0
M  V30 6695 H 613.086 1.04246 1.85058 0
M  V30 6696 H 615.349 0.40979 0.854854 0
M  V30 6697 H 615.055 0.965203 3.38196 0
M  V30 6698 H 614.929 -0.756748 3.69531 0
M  V30 6699 H 617.316 -1.06436 2.75237 0
M  V30 6700 H 617.397 0.67985 2.466 0
M  V30 6701 H 617.041 1.08362 4.96206 0
M  V30 6702 H 616.971 -0.677397 5.22225 0
M  V30 6703 H 619.462 -0.0831062 3.77809 0
M  V30 6704 H 619.775 0.455739 7.71455 0
M  V30 6705 H 618.12 0.40292 6.93831 0
M  V30 6706 H 621.311 -0.0186928 4.68096 0
M  V30 6707 H 621.484 0.226797 6.47603 0
M  V30 6708 N 614.89 -1.56749 -0.16351 0
M  V30 6709 C 616.301 -1.72039 -0.725216 0
M  V30 6710 C 616.652 -0.72202 -1.82432 0
M  V30 6711 O 615.777 0.114942 -2.16095 0
M  V30 6712 C 616.372 -3.11932 -1.32227 0
M  V30 6713 C 614.931 -3.28879 -1.83072 0
M  V30 6714 C 614.078 -2.67984 -0.712716 0
M  V30 6715 H 617.029 -1.58579 0.0619772 0
M  V30 6716 H 617.05 -3.11015 -2.19202 0
M  V30 6717 H 616.562 -3.84572 -0.522103 0
M  V30 6718 H 614.663 -2.61209 -2.65708 0
M  V30 6719 H 614.776 -4.36688 -1.97079 0
M  V30 6720 H 613.14 -2.28005 -1.13515 0
M  V30 6721 H 613.923 -3.43216 0.0757361 0
M  V30 6722 N 616.368 0.432326 -1.51554 0
M  V30 6723 C 617.331 1.50765 -1.72634 0
M  V30 6724 C 618.331 1.49334 -0.596314 0
M  V30 6725 O 619.521 1.51268 -0.863925 0
M  V30 6726 C 616.653 2.90284 -1.7874 0
M  V30 6727 H 617.846 1.33377 -2.68609 0
M  V30 6728 H 615.399 0.661329 -1.4162 0
M  V30 6729 H 616.134 3.13071 -0.845977 0
M  V30 6730 H 615.919 2.92727 -2.6087 0
M  V30 6731 H 617.409 3.68282 -1.96871 0
M  V30 6732 N 617.846 1.41785 0.688094 0
M  V30 6733 C 619.094 1.41264 1.4453 0
M  V30 6734 C 619.415 0.0252946 1.94984 0
M  V30 6735 O 618.685 -0.934081 1.72197 0
M  V30 6736 H 617.265 0.519998 0.536294 0
M  V30 6737 H 619.927 1.7709 0.813941 0
M  V30 6738 H 619.023 2.10439 2.30482 0
M  V30 6739 N 619.324 -0.923095 1.27737 0
M  V30 6740 C 620.572 -1.66797 1.14119 0
M  V30 6741 C 620.893 -1.92479 -0.312541 0
M  V30 6742 O 620.163 -1.53432 -1.218 0
M  V30 6743 H 618.743 -0.618196 0.419336 0
M  V30 6744 H 621.405 -1.10815 1.60331 0
M  V30 6745 H 620.501 -2.63424 1.67374 0
M  V30 6746 N 620.802 -1.09834 -1.13024 0
M  V30 6747 C 621.75 -0.736283 -2.20639 0
M  V30 6748 C 622.744 0.264725 -1.67319 0
M  V30 6749 O 623.95 0.125745 -1.7956 0
M  V30 6750 H 620.325 -0.220136 -0.719058 0
M  V30 6751 H 622.296 -1.65295 -2.48436 0
M  V30 6752 C 621.045 -0.177544 -3.47246 0
M  V30 6753 H 620.368 -0.939009 -3.88616 0
M  V30 6754 H 621.808 0.0378007 -4.23983 0
M  V30 6755 C 620.267 1.08824 -3.1884 0
M  V30 6756 O 620.797 2.1708 -3.37993 0
M  V30 6757 N 619.003 1.00442 -2.7269 0
M  V30 6758 H 618.55 0.123383 -2.57304 0
M  V30 6759 H 618.508 1.85206 -2.5406 0
M  V30 6760 N 622.28 1.30327 -0.886154 0
M  V30 6761 C 623.505 2.0079 -0.519425 0
M  V30 6762 C 623.93 1.65979 0.885013 0
M  V30 6763 O 623.288 0.877043 1.58675 0
M  V30 6764 C 623.336 3.53686 -0.702758 0
M  V30 6765 O 622.44 4.11637 0.250828 0
M  V30 6766 H 621.781 0.63171 -0.204544 0
M  V30 6767 H 624.311 1.66145 -1.19402 0
M  V30 6768 H 624.321 4.03531 -0.602207 0
M  V30 6769 H 622.996 3.78361 -1.72673 0
M  V30 6770 H 621.573 3.72755 0.103873 0
M  V30 6771 N 623.758 0.647228 1.43697 0
M  V30 6772 C 624.983 0.164083 2.0675 0
M  V30 6773 C 625.408 -1.15892 1.48158 0
M  V30 6774 O 624.766 -1.71459 0.589194 0
M  V30 6775 C 624.814 0.0800368 3.60511 0
M  V30 6776 O 623.918 -0.959453 4.01084 0
M  V30 6777 H 623.259 0.0921288 0.657578 0
M  V30 6778 H 625.789 0.88846 1.84303 0
M  V30 6779 H 625.799 -0.105263 4.07864 0
M  V30 6780 H 624.474 1.04586 4.02535 0
M  V30 6781 H 623.051 -0.747425 3.65333 0
M  V30 6782 N 625.236 -1.5273 0.388769 0
M  V30 6783 C 626.484 -2.01174 -0.193208 0
M  V30 6784 C 626.805 -1.27705 -1.47365 0
M  V30 6785 O 626.075 -0.396966 -1.91836 0
M  V30 6786 H 624.655 -0.743287 -0.0743871 0
M  V30 6787 H 627.317 -1.87826 0.520336 0
M  V30 6788 H 626.413 -3.09477 -0.403803 0
M  V30 6789 N 626.714 -0.118576 -1.57153 0
M  V30 6790 C 627.646 0.862247 -2.12363 0
M  V30 6791 C 628.659 1.23025 -1.06625 0
M  V30 6792 O 629.848 1.17927 -1.33998 0
M  V30 6793 C 626.948 2.16425 -2.60794 0
M  V30 6794 C 626.121 1.96801 -3.90626 0
M  V30 6795 C 625.18 3.10726 -4.2466 0
M  V30 6796 O 624.206 2.83659 -4.93484 0
M  V30 6797 N 625.408 4.37147 -3.81946 0
M  V30 6798 H 628.173 0.390564 -2.97144 0
M  V30 6799 H 625.734 0.0658591 -1.61766 0
M  V30 6800 H 627.726 2.91633 -2.80593 0
M  V30 6801 H 626.296 2.54943 -1.80895 0
M  V30 6802 H 625.516 1.05787 -3.7974 0
M  V30 6803 H 626.804 1.80993 -4.7552 0
M  V30 6804 H 626.202 4.62014 -3.26435 0
M  V30 6805 H 624.759 5.09229 -4.06853 0
M  V30 6806 N 628.193 1.56834 0.155195 0
M  V30 6807 C 629.418 1.87412 0.888337 0
M  V30 6808 C 629.843 0.70671 1.74319 0
M  V30 6809 O 629.201 -0.343892 1.78009 0
M  V30 6810 C 629.249 3.1652 1.72765 0
M  V30 6811 O 628.353 2.99877 2.83103 0
M  V30 6812 H 627.694 0.615983 0.247914 0
M  V30 6813 H 630.224 2.04061 0.148478 0
M  V30 6814 H 630.234 3.48334 2.12433 0
M  V30 6815 H 628.909 4.01094 1.09985 0
M  V30 6816 H 627.486 2.79453 2.46902 0
M  V30 6817 N 629.671 -0.424282 1.51781 0
M  V30 6818 C 630.948 -1.18464 1.55646 0
M  V30 6819 C 631.328 -2.08529 0.328438 0
M  V30 6820 O 630.676 -2.17969 -0.685693 0
M  V30 6821 C 630.886 -1.97514 2.87731 0
M  V30 6822 C 632.234 -2.54106 3.40169 0
M  V30 6823 O 633.258 -2.07711 2.89369 0
M  V30 6824 O 632.117 -3.38759 4.28841 0
M  V30 6825 H 629.211 -0.540055 0.626314 0
M  V30 6826 H 631.757 -0.432291 1.64102 0
M  V30 6827 H 630.529 -1.31444 3.68562 0
M  V30 6828 H 630.152 -2.79787 2.82498 0
M  V30 6829 N 631.149 -1.42148 -0.680565 0
M  V30 6830 C 632.097 -1.45401 -1.81552 0
M  V30 6831 C 633.091 -0.33036 -1.66147 0
M  V30 6832 O 634.297 -0.503103 -1.72826 0
M  V30 6833 H 630.672 -0.455265 -0.59853 0
M  V30 6834 H 632.643 -2.41024 -1.75926 0
M  V30 6835 C 631.392 -1.36769 -3.19671 0
M  V30 6836 H 630.715 -2.22525 -3.32149 0
M  V30 6837 H 632.155 -1.43106 -3.9912 0
M  V30 6838 C 630.614 -0.0817752 -3.36801 0
M  V30 6839 O 631.144 0.867707 -3.92216 0
M  V30 6840 N 629.35 -0.000799811 -2.906 0
M  V30 6841 H 628.897 -0.774231 -2.4569 0
M  V30 6842 H 628.855 0.858961 -3.02439 0
M  V30 6843 N 632.627 0.916307 -1.28225 0
M  V30 6844 C 633.867 1.67964 -1.16479 0
M  V30 6845 C 634.231 1.8991 0.282494 0
M  V30 6846 O 635.432 2.63671 0.522607 0
M  V30 6847 C 633.703 3.00251 -1.93866 0
M  V30 6848 S 635.262 3.91353 -1.98465 0
M  V30 6849 H 632.08 0.576873 -0.415619 0
M  V30 6850 H 634.682 1.09006 -1.62289 0
M  V30 6851 H 633.386 2.81978 -2.98189 0
M  V30 6852 H 632.917 3.64257 -1.48595 0
M  V30 6853 H 634.932 4.84096 -1.0893 0
M  V30 6854 N 634.105 1.10431 1.1244 0
M  V30 6855 C 635.33 0.869089 1.88313 0
M  V30 6856 C 635.755 -0.574912 1.79099 0
M  V30 6857 O 635.113 -1.40496 1.14589 0
M  V30 6858 C 635.161 1.32208 3.3549 0
M  V30 6859 O 634.265 0.487092 4.09513 0
M  V30 6860 H 633.606 0.313894 0.585121 0
M  V30 6861 H 636.136 1.47111 1.42195 0
M  V30 6862 H 636.146 1.31201 3.86329 0
M  V30 6863 H 634.821 2.37364 3.41513 0
M  V30 6864 H 633.398 0.562372 3.68635 0
M  V30 6865 N 635.583 -1.29855 0.893053 0
M  V30 6866 C 636.808 -2.00512 0.530066 0
M  V30 6867 C 637.233 -1.66446 -0.876199 0
M  V30 6868 O 636.591 -0.885446 -1.58207 0
M  V30 6869 C 636.639 -3.53308 0.721505 0
M  V30 6870 O 635.743 -4.11764 -0.228994 0
M  V30 6871 H 635.084 -0.630617 0.207891 0
M  V30 6872 H 637.614 -1.6551 1.20282 0
M  V30 6873 H 637.624 -4.03206 0.623599 0
M  V30 6874 H 636.299 -3.77439 1.74678 0
M  V30 6875 H 634.876 -3.72805 -0.0841034 0
M  V30 6876 N 637.061 -0.65484 -1.43351 0
M  V30 6877 C 638.286 -0.175046 -2.0666 0
M  V30 6878 C 638.711 1.15104 -1.4877 0
M  V30 6879 O 638.069 1.71144 -0.598279 0
M  V30 6880 C 638.117 -0.0991544 -3.60464 0
M  V30 6881 O 637.221 0.938169 -4.01587 0
M  V30 6882 H 636.562 -0.0956148 -0.65708 0
M  V30 6883 H 639.092 -0.898222 -1.83829 0
M  V30 6884 H 639.102 0.083632 -4.07914 0
M  V30 6885 H 637.777 -1.06719 -4.01975 0
M  V30 6886 H 636.354 0.72804 -3.65724 0
M  V30 6887 N 638.539 1.52521 -0.396863 0
M  V30 6888 C 639.764 2.06571 0.185258 0
M  V30 6889 C 640.189 1.26605 1.39115 0
M  V30 6890 O 639.547 0.293055 1.78916 0
M  V30 6891 C 639.595 3.5674 0.526189 0
M  V30 6892 O 638.699 3.7929 1.61903 0
M  V30 6893 H 638.04 0.663712 0.0195474 0
M  V30 6894 H 640.57 1.966 -0.566519 0
M  V30 6895 H 640.58 4.00311 0.788338 0
M  V30 6896 H 639.255 4.14379 -0.355397 0
M  V30 6897 H 637.832 3.47605 1.35 0
M  V30 6898 N 640.017 0.126909 1.57088 0
M  V30 6899 C 640.927 -0.833867 2.1928 0
M  V30 6900 C 641.943 -1.2868 1.17122 0
M  V30 6901 O 643.119 -1.34815 1.49622 0
M  V30 6902 C 640.184 -2.0632 2.78627 0
M  V30 6903 C 639.245 -1.66143 3.95847 0
M  V30 6904 C 638.478 -2.83217 4.52354 0
M  V30 6905 O 638.701 -3.98868 4.0775 0
M  V30 6906 O 637.635 -2.59846 5.42922 0
M  V30 6907 H 641.461 -0.334564 3.01852 0
M  V30 6908 H 639.046 -0.0991091 1.49071 0
M  V30 6909 H 640.928 -2.78304 3.16425 0
M  V30 6910 H 639.603 -2.55242 1.99082 0
M  V30 6911 H 638.51 -0.912435 3.62802 0
M  V30 6912 H 639.843 -1.21957 4.76852 0
M  V30 6913 N 641.495 -1.56914 -0.146875 0
M  V30 6914 C 642.458 -1.97368 -1.16526 0
M  V30 6915 C 643.458 -0.860223 -1.35856 0
M  V30 6916 O 644.648 -1.12684 -1.32846 0
M  V30 6917 C 641.78 -2.28974 -2.52555 0
M  V30 6918 H 642.973 -2.88523 -0.818209 0
M  V30 6919 H 640.526 -1.5135 -0.390221 0
M  V30 6920 H 641.261 -1.40611 -2.92231 0
M  V30 6921 H 641.046 -3.10157 -2.39886 0
M  V30 6922 H 642.536 -2.61109 -3.25902 0
M  V30 6923 N 642.974 0.416227 -1.52004 0
M  V30 6924 C 643.922 1.5272 -1.7544 0
M  V30 6925 C 644.916 1.57596 -0.621289 0
M  V30 6926 O 646.122 1.61087 -0.803172 0
M  V30 6927 H 642.497 0.507772 -0.554682 0
M  V30 6928 H 644.468 1.30136 -2.68528 0
M  V30 6929 C 643.217 2.90165 -1.91571 0
M  V30 6930 H 642.54 2.87154 -2.78178 0
M  V30 6931 H 643.98 3.67211 -2.11972 0
M  V30 6932 C 642.439 3.29947 -0.680942 0
M  V30 6933 O 642.969 4.01403 0.154527 0
M  V30 6934 N 641.175 2.8593 -0.518894 0
M  V30 6935 H 640.722 2.2795 -1.19986 0
M  V30 6936 H 640.68 3.12907 0.305985 0
M  V30 6937 N 644.452 1.42507 0.673017 0
M  V30 6938 C 645.7 1.42789 1.43023 0
M  V30 6939 C 646.021 0.0459738 1.94946 0
M  V30 6940 O 645.291 -0.915765 1.73178 0
M  V30 6941 H 643.871 0.525657 0.530748 0
M  V30 6942 H 646.533 1.77944 0.795113 0
M  V30 6943 H 645.629 2.12872 2.28237 0
M  V30 6944 N 645.93 -0.909495 1.28709 0
M  V30 6945 C 647.158 -1.69272 1.18973 0
M  V30 6946 C 647.573 -1.87123 -0.251048 0
M  V30 6947 O 646.93 -1.40127 -1.16922 0
M  V30 6948 C 646.981 -3.08257 1.88839 0
M  V30 6949 O 646.702 -2.91228 3.27289 0
M  V30 6950 C 648.203 -4.02642 1.85457 0
M  V30 6951 H 645.423 -0.528999 0.412797 0
M  V30 6952 H 647.967 -1.13803 1.69909 0
M  V30 6953 H 646.122 -3.6053 1.41762 0
M  V30 6954 H 646.536 -3.79223 3.6234 0
M  V30 6955 H 648.01 -4.97613 2.38925 0
M  V30 6956 H 648.487 -4.31327 0.827893 0
M  V30 6957 H 649.093 -3.56298 2.32233 0
M  V30 6958 N 647.408 -1.11026 -1.11852 0
M  V30 6959 C 648.656 -0.854769 -1.83134 0
M  V30 6960 C 648.977 0.621375 -1.84835 0
M  V30 6961 O 648.247 1.45129 -1.31584 0
M  V30 6962 H 646.827 -0.313229 -0.678157 0
M  V30 6963 H 649.489 -1.40178 -1.35411 0
M  V30 6964 H 648.585 -1.22311 -2.87135 0
M  V30 6965 N 648.886 1.2938 -0.899927 0
M  V30 6966 C 649.816 2.30144 -0.39446 0
M  V30 6967 C 650.797 1.61611 0.530639 0
M  V30 6968 O 651.982 1.89119 0.441319 0
M  V30 6969 C 649.112 3.45229 0.37868 0
M  V30 6970 C 648.066 4.25564 -0.456012 0
M  V30 6971 C 647.392 5.32848 0.444637 0
M  V30 6972 C 648.692 4.93651 -1.70605 0
M  V30 6973 H 650.386 2.72673 -1.23653 0
M  V30 6974 H 647.932 1.31086 -0.596034 0
M  V30 6975 H 649.885 4.14797 0.743037 0
M  V30 6976 H 648.609 3.01545 1.25453 0
M  V30 6977 H 647.268 3.57704 -0.802704 0
M  V30 6978 H 646.916 4.85408 1.31863 0
M  V30 6979 H 646.616 5.87497 -0.110154 0
M  V30 6980 H 648.14 6.05268 0.805182 0
M  V30 6981 H 649.554 5.55655 -1.41141 0
M  V30 6982 H 647.951 5.58233 -2.20217 0
M  V30 6983 H 649.021 4.18926 -2.4419 0
M  V30 6984 N 650.364 0.662433 1.43002 0
M  V30 6985 C 651.274 -0.0239199 2.34588 0
M  V30 6986 C 652.29 -0.802255 1.54402 0
M  V30 6987 O 653.466 -0.747401 1.87018 0
M  V30 6988 C 650.531 -0.972098 3.32793 0
M  V30 6989 C 649.592 -0.189673 4.28881 0
M  V30 6990 C 648.825 -1.09269 5.22395 0
M  V30 6991 O 649.048 -2.33209 5.20547 0
M  V30 6992 O 647.982 -0.560136 5.99288 0
M  V30 6993 H 651.808 0.730171 2.94792 0
M  V30 6994 H 649.393 0.422635 1.43297 0
M  V30 6995 H 651.275 -1.51676 3.93157 0
M  V30 6996 H 649.95 -1.70626 2.75079 0
M  V30 6997 H 648.857 0.398794 3.71968 0
M  V30 6998 H 650.19 0.50511 4.89601 0
M  V30 6999 N 651.842 -1.52309 0.404946 0
M  V30 7000 C 652.772 -2.29805 -0.41376 0
M  V30 7001 C 653.753 -1.3384 -1.0498 0
M  V30 7002 O 654.938 -1.62745 -1.05961 0
M  V30 7003 C 652.068 -3.11639 -1.53292 0
M  V30 7004 C 651.022 -4.15616 -1.02211 0
M  V30 7005 C 650.348 -4.8577 -2.23455 0
M  V30 7006 C 651.648 -5.2224 -0.0790725 0
M  V30 7007 H 653.342 -2.98493 0.232878 0
M  V30 7008 H 650.888 -1.43552 0.113441 0
M  V30 7009 H 652.841 -3.64618 -2.11262 0
M  V30 7010 H 651.565 -2.40712 -2.20738 0
M  V30 7011 H 650.224 -3.63641 -0.46484 0
M  V30 7012 H 649.872 -4.11376 -2.89445 0
M  V30 7013 H 649.572 -5.56058 -1.89929 0
M  V30 7014 H 651.096 -5.4156 -2.82038 0
M  V30 7015 H 652.51 -5.70485 -0.567438 0
M  V30 7016 H 650.907 -5.99867 0.167167 0
M  V30 7017 H 651.977 -4.77078 0.867447 0
M  V30 7018 N 653.32 -0.135238 -1.57019 0
M  V30 7019 C 654.25 0.805235 -2.19176 0
M  V30 7020 C 655.231 1.2656 -1.13651 0
M  V30 7021 O 656.416 1.32528 -1.4195 0
M  V30 7022 C 653.546 2.04914 -2.80406 0
M  V30 7023 C 652.5 1.72598 -3.91655 0
M  V30 7024 C 651.826 3.04154 -4.39766 0
M  V30 7025 C 653.126 0.981709 -5.12991 0
M  V30 7026 H 654.82 0.287232 -2.98019 0
M  V30 7027 H 652.366 0.136714 -1.4335 0
M  V30 7028 H 654.319 2.71178 -3.22553 0
M  V30 7029 H 653.043 2.59067 -1.98877 0
M  V30 7030 H 651.702 1.08717 -3.50109 0
M  V30 7031 H 651.35 3.56274 -3.55075 0
M  V30 7032 H 651.05 2.83299 -5.14796 0
M  V30 7033 H 652.574 3.71509 -4.84576 0
M  V30 7034 H 653.988 1.5462 -5.52056 0
M  V30 7035 H 652.385 0.873533 -5.93708 0
M  V30 7036 H 653.455 -0.0286887 -4.84892 0
M  V30 7037 N 654.798 1.5699 0.138552 0
M  V30 7038 C 656.046 1.83446 0.848053 0
M  V30 7039 C 656.367 0.71744 1.81322 0
M  V30 7040 O 655.637 -0.260228 1.94164 0
M  V30 7041 H 654.217 0.676792 0.316166 0
M  V30 7042 H 656.879 1.94462 0.130538 0
M  V30 7043 H 655.975 2.78677 1.40518 0
M  V30 7044 N 656.276 -0.40816 1.52223 0
M  V30 7045 C 657.524 -1.15274 1.66001 0
M  V30 7046 C 657.845 -1.91003 0.392803 0
M  V30 7047 O 657.115 -1.8673 -0.592336 0
M  V30 7048 H 655.695 -0.428526 0.611861 0
M  V30 7049 H 658.357 -0.46512 1.89269 0
M  V30 7050 H 657.453 -1.86628 2.50153 0
M  V30 7051 N 657.755 -1.42862 -0.66545 0
M  V30 7052 C 659.166 -1.3901 -1.24632 0
M  V30 7053 C 659.517 -0.0880285 -1.96002 0
M  V30 7054 O 658.642 0.812947 -2.0055 0
M  V30 7055 C 659.237 -2.51806 -2.2667 0
M  V30 7056 C 657.796 -2.51257 -2.80262 0
M  V30 7057 C 656.943 -2.30124 -1.5472 0
M  V30 7058 H 659.894 -1.5194 -0.458237 0
M  V30 7059 H 659.915 -2.22593 -3.08598 0
M  V30 7060 H 659.427 -3.46558 -1.74697 0
M  V30 7061 H 657.528 -1.60349 -3.36332 0
M  V30 7062 H 657.641 -3.48614 -3.28641 0
M  V30 7063 H 656.005 -1.7856 -1.81627 0
M  V30 7064 H 656.788 -3.26945 -1.04699 0
M  V30 7065 N 659.233 0.902656 -1.29189 0
M  V30 7066 C 660.458 1.69167 -1.19989 0
M  V30 7067 C 660.883 1.86607 0.236495 0
M  V30 7068 O 660.241 1.38425 1.17082 0
M  V30 7069 C 660.289 3.05532 -1.91527 0
M  V30 7070 O 659.393 3.93621 -1.2303 0
M  V30 7071 H 658.734 0.517584 -0.415936 0
M  V30 7072 H 661.264 1.12785 -1.70706 0
M  V30 7073 H 661.274 3.55693 -1.99866 0
M  V30 7074 H 659.949 2.92156 -2.96003 0
M  V30 7075 H 658.526 3.52055 -1.22928 0
M  V30 7076 N 660.711 1.11618 1.11262 0
M  V30 7077 C 661.641 0.79846 2.19424 0
M  V30 7078 C 662.622 -0.234003 1.68483 0
M  V30 7079 O 663.807 -0.0970704 1.93957 0
M  V30 7080 C 660.937 0.242892 3.4645 0
M  V30 7081 C 659.891 1.20744 4.10615 0
M  V30 7082 C 659.217 0.512494 5.32238 0
M  V30 7083 C 660.517 2.55884 4.55325 0
M  V30 7084 H 662.211 1.70286 2.46258 0
M  V30 7085 H 659.757 0.820195 1.18359 0
M  V30 7086 H 661.71 0.00840447 4.21399 0
M  V30 7087 H 660.434 -0.696811 3.1908 0
M  V30 7088 H 659.093 1.42759 3.37662 0
M  V30 7089 H 658.741 -0.432075 5.01141 0
M  V30 7090 H 658.441 1.15583 5.7612 0
M  V30 7091 H 659.965 0.286842 6.09926 0
M  V30 7092 H 661.379 2.37946 5.21588 0
M  V30 7093 H 659.776 3.16216 5.10027 0
M  V30 7094 H 660.846 3.14968 3.68678 0
M  V30 7095 N 662.189 -1.289 0.906776 0
M  V30 7096 C 663.605 -1.47733 0.603902 0
M  V30 7097 C 663.805 -1.82568 -0.852702 0
M  V30 7098 O 662.861 -1.92642 -1.63234 0
M  V30 7099 C 664.174 -2.58522 1.53581 0
M  V30 7100 C 665.722 -2.72394 1.54177 0
M  V30 7101 C 666.197 -3.86318 2.46013 0
M  V30 7102 N 667.688 -3.93661 2.441 0
M  V30 7103 C 668.423 -4.81177 3.11859 0
M  V30 7104 N 667.919 -5.73333 3.88923 0
M  V30 7105 N 669.712 -4.74728 3.00981 0
M  V30 7106 H 661.863 -1.04567 1.84877 0
M  V30 7107 H 664.126 -0.520118 0.792579 0
M  V30 7108 H 663.832 -2.39667 2.57396 0
M  V30 7109 H 663.706 -3.55475 1.26165 0
M  V30 7110 H 666.093 -2.90641 0.511034 0
M  V30 7111 H 666.174 -1.75993 1.85634 0
M  V30 7112 H 665.818 -3.68826 3.49185 0
M  V30 7113 H 665.748 -4.82102 2.11862 0
M  V30 7114 H 668.239 -3.27751 1.88115 0
M  V30 7115 H 668.552 -6.36923 4.37663 0
M  V30 7116 H 666.897 -5.73196 3.93029 0
M  V30 7117 H 670.088 -4.01722 2.40286 0
M  V30 7118 H 670.261 -5.42719 3.54062 0
M  V30 7119 N 663.667 -0.670007 -1.42649 0
M  V30 7120 C 664.892 -0.196955 -2.06463 0
M  V30 7121 C 665.317 1.1352 -1.49983 0
M  V30 7122 O 664.675 1.705 -0.616397 0
M  V30 7123 C 664.723 -0.137381 -3.60338 0
M  V30 7124 O 663.827 0.895523 -4.02559 0
M  V30 7125 H 663.168 -0.102579 -0.656029 0
M  V30 7126 H 665.698 -0.917669 -1.82866 0
M  V30 7127 H 665.708 0.0403625 -4.0798 0
M  V30 7128 H 664.383 -1.10977 -4.0082 0
M  V30 7129 H 662.96 0.689209 -3.66476 0
M  V30 7130 N 665.145 1.52092 -0.413018 0
M  V30 7131 C 666.108 2.25706 0.398687 0
M  V30 7132 C 667.108 1.28221 0.970368 0
M  V30 7133 O 668.298 1.52131 0.848635 0
M  V30 7134 C 665.43 3.03029 1.5616 0
M  V30 7135 H 666.623 2.98888 -0.246131 0
M  V30 7136 H 664.176 1.5542 -0.165622 0
M  V30 7137 H 664.911 2.34205 2.24317 0
M  V30 7138 H 664.696 3.74606 1.15812 0
M  V30 7139 H 666.186 3.58857 2.13569 0
M  V30 7140 N 666.623 0.143563 1.56945 0
M  V30 7141 C 667.853 -0.514699 2.00086 0
M  V30 7142 C 668.261 -1.59184 1.0226 0
M  V30 7143 O 667.604 -1.83697 0.0110514 0
M  V30 7144 C 667.666 -1.17778 3.39659 0
M  V30 7145 C 667.33 -0.245657 4.56339 0
M  V30 7146 C 668.327 0.525343 5.17239 0
M  V30 7147 C 666.012 -0.149564 5.02077 0
M  V30 7148 C 668.006 1.37992 6.22284 0
M  V30 7149 C 665.693 0.708621 6.06978 0
M  V30 7150 C 666.691 1.47197 6.6695 0
M  V30 7151 O 666.379 2.31586 7.6982 0
M  V30 7152 H 666.111 -0.138789 0.661599 0
M  V30 7153 H 668.665 0.234098 2.04062 0
M  V30 7154 H 666.895 -1.97415 3.32512 0
M  V30 7155 H 668.584 -1.73542 3.6693 0
M  V30 7156 H 669.35 0.461118 4.82803 0
M  V30 7157 H 665.229 -0.733457 4.55128 0
M  V30 7158 H 668.773 1.97621 6.69023 0
M  V30 7159 H 664.67 0.77415 6.40841 0
M  V30 7160 H 665.438 2.24796 7.87025 0
M  V30 7161 N 668.101 -1.57061 -0.130224 0
M  V30 7162 C 669.35 -1.83446 -0.838488 0
M  V30 7163 C 669.663 -0.727468 -1.81569 0
M  V30 7164 O 670.869 -0.877394 -2.56932 0
M  V30 7165 C 669.325 -3.25201 -1.54182 0
M  V30 7166 C 668.933 -4.4388 -0.606178 0
M  V30 7167 C 670.677 -3.60844 -2.23588 0
M  V30 7168 C 668.584 -5.76661 -1.31209 0
M  V30 7169 H 667.514 -0.684185 -0.316871 0
M  V30 7170 H 670.165 -1.83273 -0.0912059 0
M  V30 7171 H 668.547 -3.1981 -2.33533 0
M  V30 7172 H 669.721 -4.60545 0.153308 0
M  V30 7173 H 668.036 -4.16395 -0.0196705 0
M  V30 7174 H 670.633 -4.57313 -2.77072 0
M  V30 7175 H 670.976 -2.87724 -3.00867 0
M  V30 7176 H 671.509 -3.67971 -1.51137 0
M  V30 7177 H 668.248 -6.52922 -0.580823 0
M  V30 7178 H 667.768 -5.63902 -2.04387 0
M  V30 7179 H 669.447 -6.20035 -1.8484 0
M  V30 7180 N 669.579 0.400081 -1.52437 0
M  V30 7181 C 670.807 1.16768 -1.70801 0
M  V30 7182 C 671.222 1.84036 -0.421462 0
M  V30 7183 O 670.579 1.72242 0.603228 0
M  V30 7184 C 670.63 2.22403 -2.8499 0
M  V30 7185 O 670.351 1.57879 -4.08663 0
M  V30 7186 C 671.852 3.11974 -3.1494 0
M  V30 7187 H 669.072 0.350533 -0.57216 0
M  V30 7188 H 671.616 0.469534 -1.99037 0
M  V30 7189 H 669.771 2.87871 -2.59247 0
M  V30 7190 H 670.185 2.27982 -4.7236 0
M  V30 7191 H 671.659 3.82148 -3.9833 0
M  V30 7192 H 672.136 3.74858 -2.28863 0
M  V30 7193 H 672.742 2.52165 -3.42481 0
M  V30 7194 N 671.057 1.43213 0.657864 0
M  V30 7195 C 672.282 1.48227 1.45064 0
M  V30 7196 C 672.707 0.0999939 1.87834 0
M  V30 7197 O 672.065 -0.905269 1.57081 0
M  V30 7198 C 672.113 2.42931 2.6649 0
M  V30 7199 O 671.217 1.91237 3.6538 0
M  V30 7200 H 670.558 0.501551 0.435135 0
M  V30 7201 H 673.088 1.8808 0.805431 0
M  V30 7202 H 673.098 2.6008 3.1436 0
M  V30 7203 H 671.773 3.43348 2.34701 0
M  V30 7204 H 670.35 1.83726 3.24498 0
M  V30 7205 N 672.536 -0.895792 1.29666 0
M  V30 7206 C 673.466 -2.01673 1.17688 0
M  V30 7207 C 674.447 -1.69955 0.0701317 0
M  V30 7208 O 675.632 -1.9258 0.250289 0
M  V30 7209 C 672.762 -3.36568 0.856681 0
M  V30 7210 C 671.716 -3.82509 1.92017 0
M  V30 7211 C 671.042 -5.14574 1.4532 0
M  V30 7212 C 672.342 -4.02409 3.32963 0
M  V30 7213 H 674.036 -2.11953 2.11463 0
M  V30 7214 H 671.582 -1.01839 1.01807 0
M  V30 7215 H 673.535 -4.14498 0.759577 0
M  V30 7216 H 672.259 -3.26391 -0.116763 0
M  V30 7217 H 670.918 -3.068 2.00673 0
M  V30 7218 H 670.566 -5.00815 0.468325 0
M  V30 7219 H 670.266 -5.46283 2.16447 0
M  V30 7220 H 671.79 -5.9504 1.36968 0
M  V30 7221 H 673.204 -4.70808 3.27127 0
M  V30 7222 H 671.601 -4.45478 4.02082 0
M  V30 7223 H 672.671 -3.06616 3.75652 0
M  V30 7224 N 674.014 -1.12206 -1.10668 0
M  V30 7225 C 675.244 -0.897332 -1.86095 0
M  V30 7226 C 675.652 0.556778 -1.80822 0
M  V30 7227 O 674.995 1.39658 -1.19337 0
M  V30 7228 C 675.057 -1.29095 -3.35522 0
M  V30 7229 C 674.721 -2.75586 -3.64556 0
M  V30 7230 C 675.718 -3.73785 -3.6136 0
M  V30 7231 C 673.403 -3.12432 -3.93309 0
M  V30 7232 C 675.397 -5.06845 -3.86506 0
M  V30 7233 C 673.084 -4.45675 -4.18111 0
M  V30 7234 C 674.082 -5.42691 -4.147 0
M  V30 7235 O 673.77 -6.73532 -4.38873 0
M  V30 7236 H 673.502 -0.320704 -0.595084 0
M  V30 7237 H 676.056 -1.49517 -1.40833 0
M  V30 7238 H 674.286 -0.636299 -3.81429 0
M  V30 7239 H 675.975 -1.04073 -3.92331 0
M  V30 7240 H 676.741 -3.46664 -3.39189 0
M  V30 7241 H 672.62 -2.3753 -3.95096 0
M  V30 7242 H 676.164 -5.82559 -3.83758 0
M  V30 7243 H 672.061 -4.72526 -4.39761 0
M  V30 7244 H 672.829 -6.79442 -4.564 0
M  V30 7245 N 675.492 1.28418 -0.913599 0
M  V30 7246 C 676.739 1.94981 -0.546674 0
M  V30 7247 C 677.067 1.7192 0.909606 0
M  V30 7248 O 676.322 1.03314 1.66207 0
M  V30 7249 C 676.621 3.48283 -0.802099 0
M  V30 7250 C 676.287 3.91444 -2.2379 0
M  V30 7251 C 674.949 4.02939 -2.63046 0
M  V30 7252 C 677.301 4.13542 -3.17227 0
M  V30 7253 C 674.629 4.3391 -3.94891 0
M  V30 7254 C 676.981 4.45992 -4.48636 0
M  V30 7255 C 675.645 4.55698 -4.87746 0
M  V30 7256 H 674.915 0.713487 -0.200042 0
M  V30 7257 H 677.562 1.52756 -1.15489 0
M  V30 7258 H 675.867 3.91643 -0.111076 0
M  V30 7259 H 677.564 3.97903 -0.497375 0
M  V30 7260 H 674.154 3.83024 -1.9233 0
M  V30 7261 H 678.338 4.04114 -2.88107 0
M  V30 7262 H 673.594 4.39631 -4.24894 0
M  V30 7263 H 677.768 4.62038 -5.21051 0
M  V30 7264 H 675.395 4.79451 -5.89942 0
M  V30 7265 N 676.97 0.677563 1.42291 0
M  V30 7266 C 677.933 0.0101085 2.29198 0
M  V30 7267 C 678.933 -0.726219 1.43467 0
M  V30 7268 O 680.123 -0.563807 1.64824 0
M  V30 7269 C 677.255 -0.996316 3.26016 0
M  V30 7270 H 678.448 0.775071 2.89711 0
M  V30 7271 H 676.001 0.440065 1.49977 0
M  V30 7272 H 676.736 -1.78967 2.70446 0
M  V30 7273 H 676.521 -0.471687 3.89253 0
M  V30 7274 H 678.011 -1.46167 3.91184 0
M  V30 7275 N 678.448 -1.51871 0.421078 0
M  V30 7276 C 679.378 -2.30231 -0.389363 0
M  V30 7277 C 680.359 -1.34946 -1.03555 0
M  V30 7278 O 681.544 -1.63859 -1.04229 0
M  V30 7279 C 678.674 -3.13247 -1.49979 0
M  V30 7280 C 677.628 -4.16677 -0.977966 0
M  V30 7281 C 676.954 -4.88112 -2.1829 0
M  V30 7282 C 678.254 -5.22295 -0.0236775 0
M  V30 7283 H 679.948 -2.98229 0.264524 0
M  V30 7284 H 677.494 -1.43424 0.12866 0
M  V30 7285 H 679.447 -3.66838 -2.07383 0
M  V30 7286 H 678.171 -2.4304 -2.18173 0
M  V30 7287 H 676.83 -3.64114 -0.426245 0
M  V30 7288 H 676.478 -4.14423 -2.85066 0
M  V30 7289 H 676.178 -5.58041 -1.84021 0
M  V30 7290 H 677.702 -5.44521 -2.76278 0
M  V30 7291 H 679.116 -5.71055 -0.506899 0
M  V30 7292 H 677.513 -5.99656 0.230782 0
M  V30 7293 H 678.583 -4.76131 0.917999 0
M  V30 7294 N 679.926 -0.151884 -1.56866 0
M  V30 7295 C 681.151 0.508044 -2.01081 0
M  V30 7296 C 681.576 1.57306 -1.03134 0
M  V30 7297 O 680.934 1.81298 -0.0078309 0
M  V30 7298 C 680.982 1.08106 -3.44014 0
M  V30 7299 O 680.086 2.19577 -3.49084 0
M  V30 7300 H 679.427 0.123757 -0.652365 0
M  V30 7301 H 681.957 -0.250055 -2.03066 0
M  V30 7302 H 681.967 1.40851 -3.82916 0
M  V30 7303 H 680.642 0.301168 -4.14808 0
M  V30 7304 H 679.219 1.88023 -3.22027 0
M  V30 7305 N 681.404 1.57128 0.121893 0
M  V30 7306 C 682.629 1.89254 0.848385 0
M  V30 7307 C 683.054 0.743527 1.72781 0
M  V30 7308 O 682.412 -0.306056 1.78698 0
M  V30 7309 C 682.46 3.20113 1.66012 0
M  V30 7310 O 681.564 3.05815 2.76679 0
M  V30 7311 H 680.905 0.621103 0.234793 0
M  V30 7312 H 683.435 2.0433 0.10516 0
M  V30 7313 H 683.445 3.52761 2.04996 0
M  V30 7314 H 682.12 4.03336 1.01452 0
M  V30 7315 H 680.697 2.84627 2.40918 0
M  V30 7316 N 682.882 -0.391992 1.52647 0
M  V30 7317 C 683.812 -1.48517 1.8018 0
M  V30 7318 C 684.793 -1.57039 0.653667 0
M  V30 7319 O 685.978 -1.72036 0.900962 0
M  V30 7320 C 683.108 -2.86161 1.96797 0
M  V30 7321 C 682.062 -2.92481 3.12472 0
M  V30 7322 C 681.388 -4.32546 3.14338 0
M  V30 7323 C 682.688 -2.624 4.51601 0
M  V30 7324 H 684.382 -1.25726 2.71723 0
M  V30 7325 H 681.928 -0.603387 1.30749 0
M  V30 7326 H 683.881 -3.62639 2.14641 0
M  V30 7327 H 682.605 -3.10283 1.01941 0
M  V30 7328 H 681.264 -2.18451 2.94406 0
M  V30 7329 H 680.912 -4.53703 2.1717 0
M  V30 7330 H 680.612 -4.37695 3.92042 0
M  V30 7331 H 682.136 -5.10934 3.34333 0
M  V30 7332 H 683.55 -3.28596 4.69785 0
M  V30 7333 H 681.947 -2.78903 5.3135 0
M  V30 7334 H 683.017 -1.57754 4.58521 0
M  V30 7335 N 684.36 -1.4356 -0.65026 0
M  V30 7336 C 685.588 -1.48779 -1.43779 0
M  V30 7337 C 686.003 -0.106593 -1.88499 0
M  V30 7338 O 685.36 0.883766 -1.59674 0
M  V30 7339 C 685.411 -2.43618 -2.67081 0
M  V30 7340 O 685.132 -3.76367 -2.24231 0
M  V30 7341 C 686.633 -2.5811 -3.60409 0
M  V30 7342 H 683.853 -0.50521 -0.441593 0
M  V30 7343 H 686.397 -1.88332 -0.796941 0
M  V30 7344 H 684.552 -2.07253 -3.273 0
M  V30 7345 H 684.966 -4.27394 -3.0403 0
M  V30 7346 H 686.44 -3.28539 -4.43583 0
M  V30 7347 H 686.917 -1.627 -4.07953 0
M  V30 7348 H 687.523 -2.95298 -3.0607 0
M  V30 7349 N 685.838 0.888903 -1.30139 0
M  V30 7350 C 687.063 1.67884 -1.21777 0
M  V30 7351 C 687.488 1.86848 0.216689 0
M  V30 7352 O 686.846 1.39659 1.15608 0
M  V30 7353 C 686.894 3.03483 -1.94757 0
M  V30 7354 O 685.998 3.92294 -1.27198 0
M  V30 7355 H 685.339 0.513144 -0.421402 0
M  V30 7356 H 687.869 1.10968 -1.71893 0
M  V30 7357 H 687.879 3.53553 -2.03627 0
M  V30 7358 H 686.554 2.89 -2.99085 0
M  V30 7359 H 685.131 3.50732 -1.26655 0
M  V30 7360 N 687.317 1.12792 1.10072 0
M  V30 7361 C 688.563 0.886857 1.82381 0
M  V30 7362 C 688.896 -0.58576 1.85155 0
M  V30 7363 O 688.171 -1.43317 1.31493 0
M  V30 7364 C 688.454 1.46703 3.28862 0
M  V30 7365 C 688.307 3.00829 3.34398 0
M  V30 7366 C 689.626 1.12971 4.25353 0
M  V30 7367 H 686.745 0.32362 0.662148 0
M  V30 7368 H 689.387 1.39513 1.28982 0
M  V30 7369 H 687.537 1.03476 3.74466 0
M  V30 7370 H 689.209 3.52764 2.97247 0
M  V30 7371 H 687.452 3.36164 2.74183 0
M  V30 7372 H 688.123 3.36519 4.3756 0
M  V30 7373 H 690.599 1.50313 3.88001 0
M  V30 7374 H 689.475 1.56223 5.26199 0
M  V30 7375 H 689.736 0.0424452 4.4208 0
M  V30 7376 N 688.795 -1.27931 0.920396 0
M  V30 7377 C 690.043 -1.94304 0.555906 0
M  V30 7378 C 690.364 -1.72753 -0.904519 0
M  V30 7379 O 689.634 -1.07104 -1.64029 0
M  V30 7380 H 688.214 -0.719001 0.202599 0
M  V30 7381 H 690.876 -1.55785 1.1712 0
M  V30 7382 H 689.972 -3.02806 0.755981 0
M  V30 7383 N 690.273 -0.685099 -1.4193 0
M  V30 7384 C 691.52 -0.211658 -2.01391 0
M  V30 7385 C 691.848 1.18526 -1.54214 0
M  V30 7386 O 691.103 1.81189 -0.739519 0
M  V30 7387 C 691.402 -0.206154 -3.56805 0
M  V30 7388 C 691.068 -1.54915 -4.23453 0
M  V30 7389 C 689.73 -1.91684 -4.41373 0
M  V30 7390 C 692.082 -2.43317 -4.60919 0
M  V30 7391 C 689.41 -3.16461 -4.94034 0
M  V30 7392 C 691.762 -3.67415 -5.14965 0
M  V30 7393 C 690.426 -4.04341 -5.31098 0
M  V30 7394 H 689.696 -0.0774511 -0.736941 0
M  V30 7395 H 692.343 -0.882121 -1.69973 0
M  V30 7396 H 690.648 0.547841 -3.87951 0
M  V30 7397 H 692.345 0.17753 -4.00607 0
M  V30 7398 H 688.935 -1.25314 -4.09871 0
M  V30 7399 H 693.119 -2.16192 -4.46738 0
M  V30 7400 H 688.375 -3.45078 -5.04709 0
M  V30 7401 H 692.549 -4.3611 -5.42938 0
M  V30 7402 H 690.176 -5.01101 -5.71666 0
M  V30 7403 N 691.751 1.51645 -0.429126 0
M  V30 7404 C 692.999 2.01616 0.139802 0
M  V30 7405 C 693.32 1.31568 1.43927 0
M  V30 7406 O 692.59 0.447688 1.90716 0
M  V30 7407 H 691.17 0.744998 0.054654 0
M  V30 7408 H 693.832 1.8638 -0.569952 0
M  V30 7409 H 692.928 3.10439 0.321609 0
M  V30 7410 N 693.229 0.160201 1.56784 0
M  V30 7411 C 694.177 -0.791402 2.18723 0
M  V30 7412 C 695.171 -1.24567 1.14801 0
M  V30 7413 O 696.377 -1.21262 1.33025 0
M  V30 7414 H 692.752 -0.273458 0.700517 0
M  V30 7415 H 694.723 -0.244931 2.97393 0
M  V30 7416 C 693.472 -2.01509 2.83354 0
M  V30 7417 H 692.795 -1.67454 3.63041 0
M  V30 7418 H 694.235 -2.66006 3.30177 0
M  V30 7419 C 692.694 -2.83159 1.82545 0
M  V30 7420 O 693.224 -3.79944 1.30405 0
M  V30 7421 N 691.43 -2.47953 1.51552 0
M  V30 7422 H 690.977 -1.69309 1.94144 0
M  V30 7423 H 690.935 -3.02873 0.843519 0
M  V30 7424 N 694.707 -1.5719 -0.113559 0
M  V30 7425 C 695.953 -1.85412 -0.821597 0
M  V30 7426 C 696.286 -0.746722 -1.7927 0
M  V30 7427 O 695.561 0.246971 -1.92926 0
M  V30 7428 C 695.844 -3.24233 -1.56669 0
M  V30 7429 C 695.697 -4.45578 -0.614823 0
M  V30 7430 C 697.016 -3.60697 -2.52161 0
M  V30 7431 H 694.135 -0.674406 -0.29723 0
M  V30 7432 H 696.777 -1.89807 -0.085694 0
M  V30 7433 H 694.927 -3.20617 -2.19401 0
M  V30 7434 H 696.599 -4.613 0.00407137 0
M  V30 7435 H 694.842 -4.33738 0.0732332 0
M  V30 7436 H 695.513 -5.39395 -1.17292 0
M  V30 7437 H 697.989 -3.65139 -1.99532 0
M  V30 7438 H 696.865 -4.58798 -3.01323 0
M  V30 7439 H 697.126 -2.88403 -3.35076 0
M  V30 7440 N 696.185 0.383891 -1.52853 0
M  V30 7441 C 697.41 1.154 -1.7233 0
M  V30 7442 C 697.835 1.82809 -0.44298 0
M  V30 7443 O 697.193 1.71026 0.601645 0
M  V30 7444 C 697.241 2.17386 -2.87708 0
M  V30 7445 O 696.345 3.24082 -2.55038 0
M  V30 7446 H 695.686 0.335709 -0.572883 0
M  V30 7447 H 698.216 0.44662 -1.99666 0
M  V30 7448 H 698.226 2.61296 -3.1335 0
M  V30 7449 H 696.901 1.6771 -3.80587 0
M  V30 7450 H 695.478 2.85273 -2.40153 0
M  V30 7451 N 697.663 1.43903 0.642637 0
M  V30 7452 C 698.626 1.49538 1.73698 0
M  V30 7453 C 699.626 0.378776 1.56275 0
M  V30 7454 O 700.816 0.64095 1.6198 0
M  V30 7455 C 697.948 1.35821 3.12675 0
M  V30 7456 H 699.141 2.47008 1.70079 0
M  V30 7457 H 696.694 1.30824 0.85526 0
M  V30 7458 H 697.429 0.393994 3.21898 0
M  V30 7459 H 697.214 2.16776 3.26727 0
M  V30 7460 H 698.704 1.4272 3.92455 0
M  V30 7461 N 699.141 -0.881989 1.30609 0
M  V30 7462 C 700.089 -2.00942 1.17155 0
M  V30 7463 C 701.083 -1.69198 0.0827154 0
M  V30 7464 O 702.289 -1.78342 0.243775 0
M  V30 7465 H 698.664 -0.658913 0.362406 0
M  V30 7466 H 700.635 -2.09423 2.12567 0
M  V30 7467 C 699.384 -3.36294 0.883273 0
M  V30 7468 H 698.707 -3.61233 1.7132 0
M  V30 7469 H 700.147 -4.15812 0.829255 0
M  V30 7470 C 698.606 -3.34348 -0.413851 0
M  V30 7471 O 699.136 -3.75216 -1.43444 0
M  V30 7472 N 697.342 -2.87459 -0.426082 0
M  V30 7473 H 696.889 -2.54397 0.40493 0
M  V30 7474 H 696.847 -2.8654 -1.29391 0
M  V30 7475 N 700.619 -1.13374 -1.09472 0
M  V30 7476 C 701.847 -0.918351 -1.85402 0
M  V30 7477 C 702.262 0.53281 -1.81126 0
M  V30 7478 O 701.619 1.36879 -1.20708 0
M  V30 7479 C 701.67 -1.39743 -3.33398 0
M  V30 7480 O 701.391 -2.79172 -3.37631 0
M  V30 7481 C 702.892 -1.22042 -4.2617 0
M  V30 7482 H 700.112 -0.327511 -0.585643 0
M  V30 7483 H 702.656 -1.50617 -1.38328 0
M  V30 7484 H 700.811 -0.852619 -3.77901 0
M  V30 7485 H 701.225 -3.00428 -4.29934 0
M  V30 7486 H 702.699 -1.60438 -5.2817 0
M  V30 7487 H 703.176 -0.162047 -4.38901 0
M  V30 7488 H 703.782 -1.75323 -3.87482 0
M  V30 7489 N 702.098 1.27442 -0.927168 0
M  V30 7490 C 703.375 1.89473 -0.485742 0
M  V30 7491 C 703.755 1.83922 1.03614 0
M  V30 7492 O 703.103 1.28409 1.89007 0
M  V30 7493 C 703.313 3.33417 -1.03123 0
M  V30 7494 C 704.661 4.10333 -1.0914 0
M  V30 7495 O 705.685 3.4243 -0.98082 0
M  V30 7496 O 704.544 5.31737 -1.26165 0
M  V30 7497 H 701.638 0.812124 -0.156154 0
M  V30 7498 H 704.184 1.35713 -1.01882 0
M  V30 7499 H 702.956 3.31747 -2.07508 0
M  V30 7500 H 702.579 3.94695 -0.479767 0
M  V30 7501 N 703.576 0.692616 1.41565 0
M  V30 7502 C 704.804 0.231279 2.05603 0
M  V30 7503 C 705.219 -1.11837 1.52111 0
M  V30 7504 O 704.576 -1.6983 0.66813 0
M  V30 7505 C 704.627 0.177125 3.61066 0
M  V30 7506 O 704.348 1.47346 4.12578 0
M  V30 7507 C 705.849 -0.30556 4.42246 0
M  V30 7508 H 703.069 0.108238 0.662213 0
M  V30 7509 H 705.613 0.944369 1.81389 0
M  V30 7510 H 703.768 -0.486769 3.8433 0
M  V30 7511 H 704.182 1.35861 5.06599 0
M  V30 7512 H 705.656 -0.29233 5.51225 0
M  V30 7513 H 706.133 -1.34393 4.18133 0
M  V30 7514 H 706.739 0.327229 4.24039 0
M  V30 7515 N 705.054 -1.51416 0.437162 0
M  V30 7516 C 705.964 -2.31493 -0.380537 0
M  V30 7517 C 706.98 -1.40399 -1.02782 0
M  V30 7518 O 708.156 -1.73471 -1.02323 0
M  V30 7519 C 705.221 -3.1413 -1.46709 0
M  V30 7520 C 704.282 -4.21003 -0.839953 0
M  V30 7521 C 703.515 -4.9969 -1.87473 0
M  V30 7522 O 703.738 -4.79008 -3.09689 0
M  V30 7523 O 702.672 -5.8379 -1.46536 0
M  V30 7524 H 706.498 -3.02469 0.273183 0
M  V30 7525 H 704.083 -1.48059 0.199706 0
M  V30 7526 H 705.965 -3.65505 -2.09724 0
M  V30 7527 H 704.64 -2.45919 -2.10489 0
M  V30 7528 H 703.547 -3.73706 -0.171752 0
M  V30 7529 H 704.88 -4.91587 -0.245638 0
M  V30 7530 N 706.532 -0.168513 -1.56696 0
M  V30 7531 C 707.479 0.762875 -2.17828 0
M  V30 7532 C 708.449 1.22892 -1.11745 0
M  V30 7533 O 709.634 1.29759 -1.39883 0
M  V30 7534 C 706.774 1.9879 -2.82093 0
M  V30 7535 C 705.887 1.56568 -4.02629 0
M  V30 7536 C 705.022 2.74416 -4.54829 0
M  V30 7537 C 704.061 2.28671 -5.67782 0
M  V30 7538 N 703.198 3.39602 -6.14504 0
M  V30 7539 H 708.038 0.23479 -2.97074 0
M  V30 7540 H 705.575 0.104163 -1.46731 0
M  V30 7541 H 707.533 2.70636 -3.17509 0
M  V30 7542 H 706.163 2.48973 -2.05456 0
M  V30 7543 H 705.215 0.744067 -3.73052 0
M  V30 7544 H 706.527 1.18988 -4.844 0
M  V30 7545 H 705.681 3.54423 -4.92412 0
M  V30 7546 H 704.42 3.15254 -3.7211 0
M  V30 7547 H 703.425 1.4711 -5.29753 0
M  V30 7548 H 704.65 1.88894 -6.52301 0
M  V30 7549 H 702.596 3.80021 -5.34715 0
M  V30 7550 H 702.513 3.06105 -6.91257 0
M  V30 7551 H 703.781 4.19902 -6.56737 0
M  V30 7552 N 708.01 1.57248 0.105221 0
M  V30 7553 C 709.259 1.84756 0.809198 0
M  V30 7554 C 709.572 0.756262 1.80389 0
M  V30 7555 O 710.778 0.918158 2.55504 0
M  V30 7556 C 709.234 3.27613 1.48989 0
M  V30 7557 C 708.842 4.44788 0.535484 0
M  V30 7558 C 710.586 3.64356 2.17819 0
M  V30 7559 C 708.493 5.78676 1.22019 0
M  V30 7560 H 707.423 0.689139 0.305946 0
M  V30 7561 H 710.074 1.83395 0.0620371 0
M  V30 7562 H 708.456 3.23485 2.28415 0
M  V30 7563 H 709.63 4.60243 -0.226557 0
M  V30 7564 H 707.945 4.16374 -0.0465769 0
M  V30 7565 H 710.542 4.61663 2.69761 0
M  V30 7566 H 710.885 2.92474 2.96251 0
M  V30 7567 H 711.418 3.70328 1.45264 0
M  V30 7568 H 708.157 6.53763 0.476875 0
M  V30 7569 H 707.677 5.67083 1.9539 0
M  V30 7570 H 709.356 6.22897 1.74952 0
M  V30 7571 N 709.488 -0.375779 1.53054 0
M  V30 7572 C 710.735 -1.11948 1.68742 0
M  V30 7573 C 711.063 -1.89596 0.434015 0
M  V30 7574 O 710.318 -1.86787 -0.583867 0
M  V30 7575 C 710.617 -2.11356 2.88207 0
M  V30 7576 C 710.283 -1.50266 4.25124 0
M  V30 7577 C 708.945 -1.33333 4.62359 0
M  V30 7578 C 711.297 -1.05976 5.10312 0
M  V30 7579 C 708.625 -0.706765 5.82427 0
M  V30 7580 C 710.977 -0.447241 6.31017 0
M  V30 7581 C 709.641 -0.265314 6.66973 0
M  V30 7582 H 708.911 -0.409648 0.61747 0
M  V30 7583 H 711.558 -0.402492 1.87222 0
M  V30 7584 H 709.863 -2.89322 2.64197 0
M  V30 7585 H 711.56 -2.68833 2.97539 0
M  V30 7586 H 708.15 -1.64437 3.95801 0
M  V30 7587 H 712.334 -1.17855 4.82104 0
M  V30 7588 H 707.59 -0.554132 6.08884 0
M  V30 7589 H 711.764 -0.0958064 6.96334 0
M  V30 7590 H 709.391 0.222267 7.59875 0
M  V30 7591 N 710.966 -1.44241 -0.634997 0
M  V30 7592 C 712.191 -1.50516 -1.42687 0
M  V30 7593 C 712.616 -0.129864 -1.87651 0
M  V30 7594 O 711.974 0.880164 -1.58502 0
M  V30 7595 C 712.022 -2.4714 -2.62591 0
M  V30 7596 O 711.126 -1.97025 -3.62291 0
M  V30 7597 H 710.467 -0.50841 -0.427101 0
M  V30 7598 H 712.997 -1.89337 -0.775408 0
M  V30 7599 H 713.007 -2.65048 -3.10183 0
M  V30 7600 H 711.682 -3.47039 -2.29209 0
M  V30 7601 H 710.259 -1.88866 -3.21534 0
M  V30 7602 N 712.444 0.87505 -1.31075 0
M  V30 7603 C 713.693 1.62245 -1.19831 0
M  V30 7604 C 714.006 1.94078 0.24357 0
M  V30 7605 O 715.212 2.67265 0.477646 0
M  V30 7606 C 713.668 2.92464 -2.09744 0
M  V30 7607 C 713.276 2.68134 -3.58898 0
M  V30 7608 C 715.02 3.70449 -2.07287 0
M  V30 7609 C 712.927 3.9423 -4.40836 0
M  V30 7610 H 711.857 0.608741 -0.444916 0
M  V30 7611 H 714.508 0.967947 -1.55894 0
M  V30 7612 H 712.89 3.59262 -1.66574 0
M  V30 7613 H 714.064 2.09776 -4.10281 0
M  V30 7614 H 712.379 2.03511 -3.6328 0
M  V30 7615 H 714.976 4.63983 -2.65752 0
M  V30 7616 H 715.319 4.02611 -1.05876 0
M  V30 7617 H 715.852 3.10528 -2.48631 0
M  V30 7618 H 712.591 3.67221 -5.42982 0
M  V30 7619 H 712.111 4.52058 -3.94213 0
M  V30 7620 H 713.79 4.62162 -4.52786 0
M  V30 7621 N 713.922 1.13953 1.08869 0
M  V30 7622 C 715.162 0.915128 1.8277 0
M  V30 7623 C 715.526 -0.548647 1.83994 0
M  V30 7624 O 716.727 -0.890817 2.5361 0
M  V30 7625 C 714.998 1.49382 3.24684 0
M  V30 7626 S 716.557 1.4103 4.15519 0
M  V30 7627 H 713.375 0.329716 0.629927 0
M  V30 7628 H 715.977 1.45213 1.30895 0
M  V30 7629 H 714.681 2.55241 3.21372 0
M  V30 7630 H 714.212 0.955008 3.81632 0
M  V30 7631 H 716.227 0.392617 4.94644 0
M  V30 7632 N 715.4 -1.26948 0.933913 0
M  V30 7633 C 716.628 -1.98186 0.59414 0
M  V30 7634 C 717.043 -1.69614 -0.829257 0
M  V30 7635 O 716.4 -0.960213 -1.55197 0
M  V30 7636 C 716.451 -3.52123 0.818026 0
M  V30 7637 O 716.172 -3.79698 2.18543 0
M  V30 7638 C 717.673 -4.40608 0.48781 0
M  V30 7639 H 714.893 -0.632305 0.224569 0
M  V30 7640 H 717.437 -1.61646 1.25263 0
M  V30 7641 H 715.592 -3.86851 0.206246 0
M  V30 7642 H 716.006 -4.7426 2.24005 0
M  V30 7643 H 717.48 -5.47606 0.695126 0
M  V30 7644 H 717.957 -4.35394 -0.576913 0
M  V30 7645 H 718.563 -4.11411 1.078 0
M  V30 7646 N 716.879 -0.700114 -1.41195 0
M  V30 7647 C 717.812 0.0129614 -2.28196 0
M  V30 7648 C 718.79 0.783367 -1.42486 0
M  V30 7649 O 719.974 0.773238 -1.71911 0
M  V30 7650 C 717.101 1.02575 -3.22794 0
M  V30 7651 C 716.147 0.347977 -4.25078 0
M  V30 7652 S 716.98 -0.912938 -5.27661 0
M  V30 7653 C 718.136 0.0981362 -6.25823 0
M  V30 7654 H 718.369 -0.724927 -2.88326 0
M  V30 7655 H 715.902 -0.490554 -1.464 0
M  V30 7656 H 717.86 1.60491 -3.77826 0
M  V30 7657 H 716.521 1.73624 -2.61751 0
M  V30 7658 H 715.714 1.11305 -4.91556 0
M  V30 7659 H 715.316 -0.15823 -3.73665 0
M  V30 7660 H 717.608 0.949965 -6.70807 0
M  V30 7661 H 718.551 -0.532838 -7.06092 0
M  V30 7662 H 718.959 0.454944 -5.62664 0
M  V30 7663 N 718.357 1.51182 -0.445186 0
M  V30 7664 C 719.287 2.30821 0.352686 0
M  V30 7665 C 720.268 1.36576 1.01395 0
M  V30 7666 O 721.453 1.65497 1.01609 0
M  V30 7667 C 718.583 3.15593 1.44976 0
M  V30 7668 C 717.537 4.1818 0.911553 0
M  V30 7669 C 716.863 4.91523 2.10497 0
M  V30 7670 C 718.163 5.22266 -0.059418 0
M  V30 7671 H 719.857 2.97771 -0.311936 0
M  V30 7672 H 717.403 1.43201 -0.151461 0
M  V30 7673 H 719.356 3.70091 2.01521 0
M  V30 7674 H 718.08 2.4648 2.14278 0
M  V30 7675 H 716.739 3.64746 0.368264 0
M  V30 7676 H 716.387 4.18906 2.78437 0
M  V30 7677 H 716.087 5.60898 1.7512 0
M  V30 7678 H 717.611 5.48847 2.6758 0
M  V30 7679 H 719.025 5.71789 0.415985 0
M  V30 7680 H 717.422 5.99213 -0.326152 0
M  V30 7681 H 718.492 4.7461 -0.993631 0
M  V30 7682 N 719.835 0.176821 1.56605 0
M  V30 7683 C 721.084 -0.466833 1.96223 0
M  V30 7684 C 721.397 -1.64015 1.06576 0
M  V30 7685 O 722.603 -2.3504 1.35898 0
M  V30 7686 C 721.059 -0.881921 3.48927 0
M  V30 7687 C 720.667 0.266102 4.47209 0
M  V30 7688 C 722.411 -1.49368 3.97353 0
M  V30 7689 C 720.318 -0.168923 5.91159 0
M  V30 7690 H 719.248 -0.178178 0.732645 0
M  V30 7691 H 721.899 0.265929 1.81563 0
M  V30 7692 H 720.281 -1.67082 3.59026 0
M  V30 7693 H 721.455 1.04349 4.4883 0
M  V30 7694 H 719.77 0.788178 4.08872 0
M  V30 7695 H 722.367 -1.8313 5.02362 0
M  V30 7696 H 722.71 -2.3936 3.40606 0
M  V30 7697 H 723.243 -0.769114 3.90294 0
M  V30 7698 H 719.982 0.696351 6.51791 0
M  V30 7699 H 719.502 -0.911552 5.92833 0
M  V30 7700 H 721.181 -0.610938 6.44109 0
M  V30 7701 N 721.313 -1.57302 -0.09688 0
M  V30 7702 C 722.561 -1.8563 -0.799117 0
M  V30 7703 C 722.882 -0.765263 -1.79356 0
M  V30 7704 O 722.152 0.208657 -1.94786 0
M  V30 7705 H 720.732 -0.684937 -0.298111 0
M  V30 7706 H 723.394 -1.9474 -0.0789341 0
M  V30 7707 H 722.49 -2.82305 -1.3308 0
M  V30 7708 N 722.791 0.367657 -1.53252 0
M  V30 7709 C 723.754 1.43308 -1.78873 0
M  V30 7710 C 724.754 1.46671 -0.659115 0
M  V30 7711 O 725.944 1.47468 -0.927306 0
M  V30 7712 C 723.076 2.82442 -1.90892 0
M  V30 7713 H 724.269 1.21864 -2.74024 0
M  V30 7714 H 721.822 0.600668 -1.44297 0
M  V30 7715 H 722.557 3.09202 -0.978 0
M  V30 7716 H 722.342 2.81399 -2.73051 0
M  V30 7717 H 723.832 3.59601 -2.12314 0
M  V30 7718 N 724.269 1.44576 0.627338 0
M  V30 7719 C 725.199 1.54562 1.75022 0
M  V30 7720 C 726.18 0.398378 1.65369 0
M  V30 7721 O 727.365 0.61899 1.84071 0
M  V30 7722 C 724.495 1.49309 3.13567 0
M  V30 7723 C 723.449 2.62549 3.38012 0
M  V30 7724 C 722.775 2.42348 4.76625 0
M  V30 7725 C 724.075 4.04678 3.30202 0
M  V30 7726 H 725.769 2.4855 1.66922 0
M  V30 7727 H 723.315 1.19624 0.801636 0
M  V30 7728 H 725.268 1.54895 3.919 0
M  V30 7729 H 723.992 0.518392 3.2246 0
M  V30 7730 H 722.651 2.56358 2.62061 0
M  V30 7731 H 722.299 1.43062 4.82226 0
M  V30 7732 H 721.999 3.18273 4.93939 0
M  V30 7733 H 723.523 2.49758 5.57183 0
M  V30 7734 H 724.937 4.12217 3.98435 0
M  V30 7735 H 723.334 4.80836 3.5905 0
M  V30 7736 H 724.404 4.2798 2.27949 0
M  V30 7737 N 725.747 -0.868086 1.31537 0
M  V30 7738 C 726.68 -1.97871 1.13676 0
M  V30 7739 C 727.658 -1.62551 0.0397589 0
M  V30 7740 O 728.842 -1.87473 0.196539 0
M  V30 7741 C 725.969 -3.30577 0.73734 0
M  V30 7742 C 725.015 -3.8488 1.83765 0
M  V30 7743 S 725.848 -4.10106 3.44345 0
M  V30 7744 C 727.004 -5.45806 3.06344 0
M  V30 7745 H 727.237 -2.12719 2.07697 0
M  V30 7746 H 724.77 -1.01849 1.16044 0
M  V30 7747 H 726.728 -4.07274 0.513641 0
M  V30 7748 H 725.389 -3.13562 -0.183787 0
M  V30 7749 H 724.582 -4.80821 1.51085 0
M  V30 7750 H 724.184 -3.14981 2.01651 0
M  V30 7751 H 726.476 -6.27535 2.55354 0
M  V30 7752 H 727.419 -5.83437 4.01257 0
M  V30 7753 H 727.827 -5.0917 2.43734 0
M  V30 7754 N 727.225 -1.14528 -1.08264 0
M  V30 7755 C 728.175 -0.802141 -2.13424 0
M  V30 7756 C 729.159 0.209362 -1.59532 0
M  V30 7757 O 730.351 0.0114859 -1.76996 0
M  V30 7758 C 727.48 -0.282938 -3.42132 0
M  V30 7759 C 726.566 -1.32405 -4.02902 0
M  V30 7760 N 726.957 -2.52861 -4.38058 0
M  V30 7761 C 725.255 -1.17462 -4.30254 0
M  V30 7762 C 725.956 -3.1952 -4.86088 0
M  V30 7763 N 724.932 -2.46921 -4.84284 0
M  V30 7764 H 728.734 -1.71843 -2.38426 0
M  V30 7765 H 726.248 -1.02936 -1.2561 0
M  V30 7766 H 728.245 -0.0188053 -4.16896 0
M  V30 7767 H 726.905 0.627533 -3.18578 0
M  V30 7768 H 727.916 -2.90078 -4.2904 0
M  V30 7769 H 724.593 -0.323283 -4.16246 0
M  V30 7770 H 725.983 -4.2223 -5.22658 0
M  V30 7771 N 728.703 1.26451 -0.940633 0
M  V30 7772 C 729.666 2.24651 -0.454378 0
M  V30 7773 C 730.666 1.54826 0.434222 0
M  V30 7774 O 731.856 1.72628 0.233477 0
M  V30 7775 C 728.988 3.39148 0.345192 0
M  V30 7776 H 730.181 2.69182 -1.32217 0
M  V30 7777 H 727.734 1.38596 -0.722547 0
M  V30 7778 H 728.469 3.00018 1.23125 0
M  V30 7779 H 728.254 3.9101 -0.292107 0
M  V30 7780 H 729.744 4.12103 0.675341 0
M  V30 7781 N 730.181 0.707592 1.40822 0
M  V30 7782 C 731.427 0.244031 2.01326 0
M  V30 7783 C 731.76 -1.15722 1.55955 0
M  V30 7784 O 731.035 -1.78347 0.776044 0
M  V30 7785 C 731.318 0.315128 3.58718 0
M  V30 7786 C 731.171 1.75419 4.14184 0
M  V30 7787 C 732.49 -0.318251 4.38948 0
M  V30 7788 H 729.609 0.0901471 0.731466 0
M  V30 7789 H 732.251 0.898584 1.67408 0
M  V30 7790 H 730.401 -0.242176 3.87744 0
M  V30 7791 H 732.073 2.36626 3.95987 0
M  V30 7792 H 730.316 2.28449 3.68773 0
M  V30 7793 H 730.987 1.75538 5.23345 0
M  V30 7794 H 733.463 0.156514 4.15806 0
M  V30 7795 H 732.339 -0.238019 5.48384 0
M  V30 7796 H 732.6 -1.40067 4.19325 0
M  V30 7797 N 731.66 -1.50943 0.453197 0
M  V30 7798 C 732.906 -2.02512 -0.108082 0
M  V30 7799 C 733.239 -1.33574 -1.40967 0
M  V30 7800 O 732.514 -0.455671 -1.89087 0
M  V30 7801 C 732.797 -3.58759 -0.310453 0
M  V30 7802 C 732.65 -4.38293 1.0109 0
M  V30 7803 C 733.969 -4.26816 -1.07313 0
M  V30 7804 H 731.088 -0.73603 -0.0378064 0
M  V30 7805 H 733.73 -1.80433 0.595295 0
M  V30 7806 H 731.88 -3.77702 -0.909582 0
M  V30 7807 H 733.552 -4.30964 1.64523 0
M  V30 7808 H 731.795 -4.02745 1.61179 0
M  V30 7809 H 732.466 -5.45828 0.82315 0
M  V30 7810 H 734.942 -4.1224 -0.565473 0
M  V30 7811 H 733.818 -5.35989 -1.1835 0
M  V30 7812 H 734.079 -3.88757 -2.10525 0
M  V30 7813 N 733.138 -0.185124 -1.56509 0
M  V30 7814 C 734.385 0.456258 -1.97293 0
M  V30 7815 C 734.713 1.62314 -1.07165 0
M  V30 7816 O 733.968 1.95398 -0.108621 0
M  V30 7817 C 734.267 0.967977 -3.44042 0
M  V30 7818 C 733.933 -0.084476 -4.50821 0
M  V30 7819 C 732.595 -0.373689 -4.79747 0
M  V30 7820 C 734.947 -0.79812 -5.15053 0
M  V30 7821 C 732.275 -1.3817 -5.70198 0
M  V30 7822 C 734.627 -1.79521 -6.06593 0
M  V30 7823 C 733.291 -2.09172 -6.3388 0
M  V30 7824 H 732.561 0.166957 -0.721946 0
M  V30 7825 H 735.208 -0.279992 -1.89442 0
M  V30 7826 H 733.513 1.78231 -3.48914 0
M  V30 7827 H 735.21 1.47347 -3.72948 0
M  V30 7828 H 731.8 0.15111 -4.28334 0
M  V30 7829 H 735.984 -0.587903 -4.92806 0
M  V30 7830 H 731.24 -1.61745 -5.89617 0
M  V30 7831 H 735.414 -2.35347 -6.55427 0
M  V30 7832 H 733.041 -2.87427 -7.03768 0
M  V30 7833 N 734.616 1.57351 0.0885366 0
M  V30 7834 C 735.864 1.86051 0.789262 0
M  V30 7835 C 736.185 0.774763 1.78948 0
M  V30 7836 O 735.455 -0.198324 1.94894 0
M  V30 7837 H 734.035 0.686508 0.294475 0
M  V30 7838 H 736.697 1.94779 0.0686055 0
M  V30 7839 H 735.793 2.83007 1.31581 0
M  V30 7840 N 736.094 -0.359525 1.53444 0
M  V30 7841 C 737.042 -1.46104 1.80987 0
M  V30 7842 C 738.036 -1.55181 0.679351 0
M  V30 7843 O 739.242 -1.57995 0.862405 0
M  V30 7844 H 735.617 -0.486835 0.573145 0
M  V30 7845 H 737.588 -1.2008 2.73173 0
M  V30 7846 C 736.337 -2.82855 2.02208 0
M  V30 7847 H 735.66 -2.76631 2.88644 0
M  V30 7848 H 737.1 -3.59091 2.25455 0
M  V30 7849 C 735.559 -3.27192 0.802931 0
M  V30 7850 O 736.089 -4.017 -0.00544286 0
M  V30 7851 N 734.295 -2.83807 0.624657 0
M  V30 7852 H 733.842 -2.23339 1.28364 0
M  V30 7853 H 733.8 -3.13828 -0.189641 0
M  V30 7854 N 737.572 -1.44907 -0.619662 0
M  V30 7855 C 738.818 -1.48512 -1.38102 0
M  V30 7856 C 739.151 -0.121686 -1.93818 0
M  V30 7857 O 738.426 0.862256 -1.74343 0
M  V30 7858 C 738.709 -2.55469 -2.53787 0
M  V30 7859 C 738.562 -4.01212 -2.03345 0
M  V30 7860 C 739.881 -2.58821 -3.55949 0
M  V30 7861 H 737 -0.540712 -0.500799 0
M  V30 7862 H 739.642 -1.7665 -0.69962 0
M  V30 7863 H 737.792 -2.31606 -3.11915 0
M  V30 7864 H 739.464 -4.36245 -1.49959 0
M  V30 7865 H 737.707 -4.12443 -1.34438 0
M  V30 7866 H 738.378 -4.71717 -2.86683 0
M  V30 7867 H 740.854 -2.80172 -3.07641 0
M  V30 7868 H 739.73 -3.35542 -4.34399 0
M  V30 7869 H 739.991 -1.63451 -4.10775 0
M  V30 7870 N 739.05 0.861098 -1.31996 0
M  V30 7871 C 740.278 1.6474 -1.25173 0
M  V30 7872 C 740.693 1.87926 0.181425 0
M  V30 7873 O 740.05 1.4437 1.1164 0
M  V30 7874 C 740.101 3.01036 -2.0015 0
M  V30 7875 O 739.822 2.7888 -3.37872 0
M  V30 7876 C 741.323 3.95481 -2.00273 0
M  V30 7877 H 738.543 0.513314 -0.432146 0
M  V30 7878 H 741.087 1.07419 -1.74016 0
M  V30 7879 H 739.242 3.55021 -1.55046 0
M  V30 7880 H 739.656 3.65514 -3.76165 0
M  V30 7881 H 741.13 4.88403 -2.57229 0
M  V30 7882 H 741.607 4.27957 -0.987407 0
M  V30 7883 H 742.213 3.47433 -2.45296 0
M  V30 7884 N 740.528 1.15101 1.07655 0
M  V30 7885 C 741.491 0.847625 2.12951 0
M  V30 7886 C 742.491 -0.151227 1.60087 0
M  V30 7887 O 743.681 0.0780399 1.74025 0
M  V30 7888 C 740.813 0.265 3.39868 0
M  V30 7889 H 742.006 1.7809 2.41296 0
M  V30 7890 H 739.559 0.958072 1.23494 0
M  V30 7891 H 740.294 -0.676625 3.17163 0
M  V30 7892 H 740.079 0.984554 3.79538 0
M  V30 7893 H 741.569 0.0702121 4.17541 0
M  V30 7894 N 742.006 -1.2595 0.947325 0
M  V30 7895 C 743.255 -1.92759 0.593887 0
M  V30 7896 C 743.568 -1.75083 -0.872093 0
M  V30 7897 O 744.774 -2.36401 -1.33518 0
M  V30 7898 C 743.23 -3.45395 1.01144 0
M  V30 7899 C 742.838 -3.71795 2.49946 0
M  V30 7900 C 744.582 -4.18173 0.730185 0
M  V30 7901 C 742.489 -5.17901 2.85539 0
M  V30 7902 H 741.419 -0.721676 0.218403 0
M  V30 7903 H 744.07 -1.4293 1.15079 0
M  V30 7904 H 742.452 -3.94143 0.383007 0
M  V30 7905 H 743.626 -3.33728 3.17746 0
M  V30 7906 H 741.941 -3.12263 2.75465 0
M  V30 7907 H 744.538 -5.25784 0.972367 0
M  V30 7908 H 744.881 -4.14964 -0.333223 0
M  V30 7909 H 745.414 -3.75309 1.31862 0
M  V30 7910 H 742.153 -5.26216 3.90867 0
M  V30 7911 H 741.673 -5.57042 2.22406 0
M  V30 7912 H 743.352 -5.8596 2.74336 0
M  V30 7913 N 743.484 -0.715051 -1.40445 0
M  V30 7914 C 744.733 -0.251322 -2.00128 0
M  V30 7915 C 745.046 1.16194 -1.57347 0
M  V30 7916 O 746.252 1.72416 -2.09726 0
M  V30 7917 C 744.708 -0.398407 -3.57688 0
M  V30 7918 C 744.316 -1.81828 -4.09442 0
M  V30 7919 C 746.06 0.00455625 -4.245 0
M  V30 7920 C 743.967 -1.91598 -5.59503 0
M  V30 7921 H 742.897 -0.0902081 -0.748584 0
M  V30 7922 H 745.548 -0.886062 -1.6069 0
M  V30 7923 H 743.93 0.304908 -3.94824 0
M  V30 7924 H 745.104 -2.55193 -3.83684 0
M  V30 7925 H 743.419 -2.17266 -3.55225 0
M  V30 7926 H 746.016 -0.0477303 -5.34679 0
M  V30 7927 H 746.359 1.04636 -4.02935 0
M  V30 7928 H 746.892 -0.649184 -3.92467 0
M  V30 7929 H 743.631 -2.93898 -5.85922 0
M  V30 7930 H 743.151 -1.22644 -5.87127 0
M  V30 7931 H 744.83 -1.68785 -6.24596 0
M  V30 7932 N 744.962 1.50701 -0.461195 0
M  V30 7933 C 745.894 2.26124 0.374244 0
M  V30 7934 C 746.907 1.31064 0.965715 0
M  V30 7935 O 748.096 1.56647 0.855801 0
M  V30 7936 C 745.196 3.01996 1.5379 0
M  V30 7937 C 744.369 4.24336 1.06101 0
M  V30 7938 C 743.428 4.82585 2.09756 0
M  V30 7939 O 742.454 5.43775 1.68219 0
M  V30 7940 N 743.656 4.68712 3.42475 0
M  V30 7941 H 746.421 2.9846 -0.2723 0
M  V30 7942 H 743.982 1.59256 -0.291415 0
M  V30 7943 H 745.974 3.37846 2.22806 0
M  V30 7944 H 744.544 2.32521 2.08933 0
M  V30 7945 H 743.764 3.93707 0.197085 0
M  V30 7946 H 745.052 5.03678 0.720156 0
M  V30 7947 H 744.45 4.20026 3.78938 0
M  V30 7948 H 743.007 5.08858 4.07317 0
M  V30 7949 N 746.441 0.193421 1.56409 0
M  V30 7950 C 747.857 -0.162447 1.58771 0
M  V30 7951 C 748.057 -1.6116 1.20954 0
M  V30 7952 O 747.113 -2.3469 0.931497 0
M  V30 7953 C 748.426 0.138391 3.00381 0
M  V30 7954 C 749.974 0.0783649 3.12902 0
M  V30 7955 C 750.449 0.352491 4.56642 0
M  V30 7956 N 751.94 0.30105 4.62221 0
M  V30 7957 C 752.675 0.487028 5.71328 0
M  V30 7958 N 752.171 0.733265 6.88909 0
M  V30 7959 N 753.964 0.4214 5.60518 0
M  V30 7960 H 746.115 1.13909 1.79272 0
M  V30 7961 H 748.378 0.454528 0.83193 0
M  V30 7962 H 748.084 1.14312 3.32604 0
M  V30 7963 H 747.958 -0.559804 3.73023 0
M  V30 7964 H 750.345 -0.916963 2.80492 0
M  V30 7965 H 750.426 0.809611 2.4265 0
M  V30 7966 H 750.07 1.34513 4.89764 0
M  V30 7967 H 750 -0.399624 5.25081 0
M  V30 7968 H 752.491 0.117279 3.77718 0
M  V30 7969 H 752.804 0.86403 7.67955 0
M  V30 7970 H 751.149 0.770138 6.9072 0
M  V30 7971 H 754.34 0.229461 4.67537 0
M  V30 7972 H 754.513 0.569758 6.4549 0
M  V30 7973 N 747.919 -1.57396 -0.0801906 0
M  V30 7974 C 748.852 -1.98386 -1.12774 0
M  V30 7975 C 749.83 -0.859423 -1.38031 0
M  V30 7976 O 751.014 -1.12101 -1.51544 0
M  V30 7977 C 748.141 -2.3134 -2.47386 0
M  V30 7978 C 747.187 -3.53706 -2.38316 0
M  V30 7979 S 748.02 -5.04862 -1.78534 0
M  V30 7980 C 749.176 -5.41008 -3.1474 0
M  V30 7981 H 749.409 -2.86929 -0.778382 0
M  V30 7982 H 746.942 -1.51682 -0.28842 0
M  V30 7983 H 748.9 -2.51 -3.24822 0
M  V30 7984 H 747.561 -1.4334 -2.79486 0
M  V30 7985 H 746.754 -3.74253 -3.37566 0
M  V30 7986 H 746.356 -3.33632 -1.69014 0
M  V30 7987 H 748.648 -5.38565 -4.1104 0
M  V30 7988 H 749.591 -6.41885 -2.98981 0
M  V30 7989 H 749.999 -4.68467 -3.14958 0
M  V30 7990 N 749.397 0.351382 -1.53633 0
M  V30 7991 C 750.627 1.11113 -1.74176 0
M  V30 7992 C 751.035 1.83084 -0.477154 0
M  V30 7993 O 750.378 1.74941 0.560483 0
M  V30 7994 C 750.44 2.17521 -2.86225 0
M  V30 7995 C 750.104 1.65193 -4.26099 0
M  V30 7996 C 751.101 1.10842 -5.07947 0
M  V30 7997 C 748.786 1.70277 -4.72558 0
M  V30 7998 C 750.78 0.622689 -6.34351 0
M  V30 7999 C 748.467 1.21316 -5.98937 0
M  V30 8000 C 749.465 0.674033 -6.79666 0
M  V30 8001 O 749.153 0.191696 -8.03671 0
M  V30 8002 H 748.885 0.33756 -0.585687 0
M  V30 8003 H 751.439 0.411786 -2.0123 0
M  V30 8004 H 749.669 2.90991 -2.54678 0
M  V30 8005 H 751.358 2.78999 -2.94812 0
M  V30 8006 H 752.124 1.06243 -4.7322 0
M  V30 8007 H 748.003 2.11181 -4.09785 0
M  V30 8008 H 751.547 0.201216 -6.9731 0
M  V30 8009 H 747.444 1.25613 -6.3316 0
M  V30 8010 H 748.212 0.309712 -8.17914 0
M  V30 8011 N 750.875 1.45233 0.611969 0
M  V30 8012 C 751.838 1.53189 1.70487 0
M  V30 8013 C 752.838 0.411839 1.55437 0
M  V30 8014 O 754.028 0.675164 1.60584 0
M  V30 8015 C 751.16 1.42422 3.09723 0
M  V30 8016 H 752.353 2.5056 1.64802 0
M  V30 8017 H 749.906 1.32609 0.827318 0
M  V30 8018 H 750.641 0.462185 3.2099 0
M  V30 8019 H 750.426 2.23658 3.22055 0
M  V30 8020 H 751.916 1.51012 3.89339 0
M  V30 8021 N 752.353 -0.854086 1.3245 0
M  V30 8022 C 753.769 -1.14238 1.11453 0
M  V30 8023 C 753.969 -2.01228 -0.10461 0
M  V30 8024 O 753.025 -2.39845 -0.789339 0
M  V30 8025 C 754.338 -1.81916 2.39431 0
M  V30 8026 C 755.886 -1.94549 2.45193 0
M  V30 8027 C 756.361 -2.65642 3.73093 0
M  V30 8028 N 757.852 -2.73167 3.74078 0
M  V30 8029 C 758.587 -3.28828 4.69744 0
M  V30 8030 N 758.083 -3.85295 5.75778 0
M  V30 8031 N 759.876 -3.26936 4.57241 0
M  V30 8032 H 752.027 -0.274786 2.10615 0
M  V30 8033 H 754.29 -0.184375 0.929898 0
M  V30 8034 H 753.996 -1.25452 3.28565 0
M  V30 8035 H 753.87 -2.82068 2.50434 0
M  V30 8036 H 756.257 -2.50172 1.56518 0
M  V30 8037 H 756.338 -0.933914 2.38142 0
M  V30 8038 H 755.982 -2.10683 4.62142 0
M  V30 8039 H 755.912 -3.6724 3.77415 0
M  V30 8040 H 758.403 -2.33108 2.97438 0
M  V30 8041 H 758.716 -4.25925 6.44832 0
M  V30 8042 H 757.061 -3.83625 5.79531 0
M  V30 8043 H 760.252 -2.8207 3.7357 0
M  V30 8044 H 760.425 -3.70014 5.31971 0
M  V30 8045 N 753.831 -1.1567 -1.07043 0
M  V30 8046 C 755.247 -0.900006 -1.31803 0
M  V30 8047 C 755.447 0.451293 -1.96381 0
M  V30 8048 O 754.503 1.19252 -2.22565 0
M  V30 8049 C 755.816 -2.04334 -2.20609 0
M  V30 8050 C 757.364 -2.07823 -2.34048 0
M  V30 8051 C 757.839 -3.21488 -3.26204 0
M  V30 8052 N 759.33 -3.21156 -3.33786 0
M  V30 8053 C 760.065 -4.05746 -4.05163 0
M  V30 8054 N 759.561 -5.00407 -4.79129 0
M  V30 8055 N 761.354 -3.93759 -4.01136 0
M  V30 8056 H 753.505 -2.02681 -0.635146 0
M  V30 8057 H 755.768 -0.883956 -0.342528 0
M  V30 8058 H 755.474 -3.01895 -1.80423 0
M  V30 8059 H 755.348 -1.97838 -3.21154 0
M  V30 8060 H 757.735 -1.1086 -2.73485 0
M  V30 8061 H 757.816 -2.18386 -1.33197 0
M  V30 8062 H 757.46 -4.18706 -2.87485 0
M  V30 8063 H 757.39 -3.08162 -4.27017 0
M  V30 8064 H 759.881 -2.52606 -2.81067 0
M  V30 8065 H 760.194 -5.61387 -5.31097 0
M  V30 8066 H 758.539 -5.04393 -4.78135 0
M  V30 8067 H 761.73 -3.19115 -3.42466 0
M  V30 8068 H 761.903 -4.59906 -4.56498 0
M  V30 8069 N 755.309 1.25446 -0.953992 0
M  V30 8070 C 756.556 1.93143 -0.608429 0
M  V30 8071 C 756.884 1.74727 0.854451 0
M  V30 8072 O 756.139 1.0855 1.62836 0
M  V30 8073 C 756.438 3.45555 -0.912496 0
M  V30 8074 C 756.104 3.84126 -2.36131 0
M  V30 8075 C 754.766 3.94367 -2.75732 0
M  V30 8076 C 757.118 4.0324 -3.30223 0
M  V30 8077 C 754.446 4.21127 -4.08496 0
M  V30 8078 C 756.798 4.31493 -4.62598 0
M  V30 8079 C 755.462 4.3995 -5.01996 0
M  V30 8080 H 754.732 0.706762 -0.22264 0
M  V30 8081 H 757.379 1.49005 -1.20291 0
M  V30 8082 H 755.684 3.91091 -0.235618 0
M  V30 8083 H 757.381 3.9612 -0.623714 0
M  V30 8084 H 753.971 3.76711 -2.04418 0
M  V30 8085 H 758.155 3.94744 -3.00817 0
M  V30 8086 H 753.411 4.2589 -4.38665 0
M  V30 8087 H 757.585 4.45227 -5.35486 0
M  V30 8088 H 755.212 4.60439 -6.04896 0
M  V30 8089 N 756.787 0.722489 1.40064 0
M  V30 8090 C 757.717 0.0892452 2.33329 0
M  V30 8091 C 758.698 -0.737992 1.53257 0
M  V30 8092 O 759.883 -0.685516 1.81698 0
M  V30 8093 C 757.013 -0.828139 3.37282 0
M  V30 8094 C 755.967 -0.106005 4.27869 0
M  V30 8095 C 755.293 -1.13957 5.22415 0
M  V30 8096 C 756.593 1.04395 5.11761 0
M  V30 8097 H 758.287 0.868269 2.86534 0
M  V30 8098 H 755.833 0.418982 1.3777 0
M  V30 8099 H 757.786 -1.28058 4.01471 0
M  V30 8100 H 756.51 -1.63914 2.82489 0
M  V30 8101 H 755.169 0.326683 3.65142 0
M  V30 8102 H 754.817 -1.9438 4.63924 0
M  V30 8103 H 754.517 -0.661233 5.83868 0
M  V30 8104 H 756.041 -1.59197 5.89482 0
M  V30 8105 H 757.455 0.670541 5.69365 0
M  V30 8106 H 755.852 1.4511 5.82291 0
M  V30 8107 H 756.922 1.87144 4.47331 0
M  V30 8108 N 758.265 -1.50454 0.469181 0
M  V30 8109 C 759.495 -2.06429 -0.0840913 0
M  V30 8110 C 759.903 -1.3334 -1.34227 0
M  V30 8111 O 759.246 -0.395656 -1.79389 0
M  V30 8112 C 759.308 -3.56797 -0.440049 0
M  V30 8113 C 758.972 -4.51359 0.715838 0
M  V30 8114 C 759.969 -4.94754 1.59732 0
M  V30 8115 C 757.654 -4.94069 0.905621 0
M  V30 8116 C 759.648 -5.79564 2.653 0
M  V30 8117 C 757.335 -5.78662 1.96453 0
M  V30 8118 C 758.333 -6.21311 2.83658 0
M  V30 8119 O 758.021 -7.04218 3.87727 0
M  V30 8120 H 757.753 -0.675994 0.00289751 0
M  V30 8121 H 760.307 -1.94629 0.656417 0
M  V30 8122 H 758.537 -3.66492 -1.23372 0
M  V30 8123 H 760.226 -3.95145 -0.928181 0
M  V30 8124 H 760.992 -4.62428 1.46237 0
M  V30 8125 H 756.871 -4.60394 0.236326 0
M  V30 8126 H 760.415 -6.12774 3.33398 0
M  V30 8127 H 756.312 -6.10401 2.09955 0
M  V30 8128 H 757.08 -7.22464 3.84692 0
M  V30 8129 N 759.743 -0.201713 -1.56304 0
M  V30 8130 C 760.693 0.729444 -2.16016 0
M  V30 8131 C 761.677 1.17164 -1.10279 0
M  V30 8132 O 762.869 1.12893 -1.36324 0
M  V30 8133 C 759.998 1.94594 -2.82822 0
M  V30 8134 C 759.084 1.52434 -3.95758 0
M  V30 8135 N 759.475 0.814106 -4.99205 0
M  V30 8136 C 757.773 1.81314 -4.07481 0
M  V30 8137 C 758.474 0.601896 -5.78578 0
M  V30 8138 N 757.45 1.15263 -5.3124 0
M  V30 8139 H 761.252 0.178163 -2.93359 0
M  V30 8140 H 758.766 -0.00218038 -1.624 0
M  V30 8141 H 760.763 2.62357 -3.23998 0
M  V30 8142 H 759.423 2.50188 -2.06969 0
M  V30 8143 H 760.434 0.468872 -5.15773 0
M  V30 8144 H 757.111 2.3837 -3.42762 0
M  V30 8145 H 758.501 0.0380119 -6.71889 0
M  V30 8146 N 761.222 1.57436 0.0718424 0
M  V30 8147 C 762.447 1.91858 0.787745 0
M  V30 8148 C 762.872 0.798119 1.70328 0
M  V30 8149 O 762.23 -0.24905 1.79581 0
M  V30 8150 C 762.278 3.25232 1.55744 0
M  V30 8151 O 761.382 3.14462 2.6681 0
M  V30 8152 H 760.723 0.628258 0.214914 0
M  V30 8153 H 763.253 2.04561 0.0401012 0
M  V30 8154 H 763.263 3.59105 1.9367 0
M  V30 8155 H 761.938 4.0636 0.885691 0
M  V30 8156 H 760.515 2.92148 2.31741 0
M  V30 8157 N 762.7 -0.34323 1.53817 0
M  V30 8158 C 764.116 -0.686355 1.44088 0
M  V30 8159 C 764.316 -1.92426 0.597882 0
M  V30 8160 O 763.372 -2.52343 0.0889918 0
M  V30 8161 C 764.685 -0.878698 2.87575 0
M  V30 8162 C 766.233 -0.977296 2.97352 0
M  V30 8163 C 766.708 -1.20195 4.41947 0
M  V30 8164 N 768.199 -1.26915 4.45474 0
M  V30 8165 C 768.934 -1.46049 5.54488 0
M  V30 8166 N 768.43 -1.62354 6.73508 0
M  V30 8167 N 770.223 -1.48599 5.42102 0
M  V30 8168 H 762.374 0.470679 2.07119 0
M  V30 8169 H 764.637 0.148652 0.936273 0
M  V30 8170 H 764.343 -0.040602 3.51677 0
M  V30 8171 H 764.217 -1.78034 3.32541 0
M  V30 8172 H 766.604 -1.80591 2.3339 0
M  V30 8173 H 766.685 -0.0525498 2.55746 0
M  V30 8174 H 766.329 -0.378262 5.06489 0
M  V30 8175 H 766.259 -2.14027 4.81145 0
M  V30 8176 H 768.75 -1.15837 3.59708 0
M  V30 8177 H 769.063 -1.76591 7.52353 0
M  V30 8178 H 767.408 -1.5949 6.76453 0
M  V30 8179 H 770.599 -1.35443 4.48077 0
M  V30 8180 H 770.772 -1.6317 6.2712 0
M  V30 8181 N 764.178 -1.45556 -0.604258 0
M  V30 8182 C 765.406 -1.53278 -1.38973 0
M  V30 8183 C 765.821 -0.166509 -1.88064 0
M  V30 8184 O 765.178 0.832519 -1.62405 0
M  V30 8185 C 765.229 -2.51992 -2.59195 0
M  V30 8186 O 764.95 -3.8331 -2.12143 0
M  V30 8187 C 766.451 -2.69445 -3.52015 0
M  V30 8188 H 763.671 -0.519003 -0.425297 0
M  V30 8189 H 766.215 -1.90773 -0.736621 0
M  V30 8190 H 764.37 -2.17561 -3.2054 0
M  V30 8191 H 764.784 -4.3685 -2.90279 0
M  V30 8192 H 766.258 -3.42485 -4.32907 0
M  V30 8193 H 766.735 -1.75596 -4.0257 0
M  V30 8194 H 767.341 -3.04886 -2.9652 0
M  V30 8195 N 765.656 0.84705 -1.32902 0
M  V30 8196 C 767.072 1.13645 -1.12058 0
M  V30 8197 C 767.272 2.01281 0.093937 0
M  V30 8198 O 766.328 2.4026 0.776608 0
M  V30 8199 C 767.641 1.80644 -2.40392 0
M  V30 8200 C 769.189 1.93246 -2.46221 0
M  V30 8201 C 769.664 2.6366 -3.74496 0
M  V30 8202 N 771.155 2.71179 -3.75521 0
M  V30 8203 C 771.89 3.26332 -4.71482 0
M  V30 8204 N 771.386 3.82236 -5.77813 0
M  V30 8205 N 773.179 3.24507 -4.58968 0
M  V30 8206 H 765.33 0.263612 -2.10758 0
M  V30 8207 H 767.593 0.17944 -0.930863 0
M  V30 8208 H 767.299 1.23708 -3.29225 0
M  V30 8209 H 767.173 2.80736 -2.51926 0
M  V30 8210 H 769.56 2.49338 -1.57843 0
M  V30 8211 H 769.641 0.921272 -2.38634 0
M  V30 8212 H 769.285 2.08229 -4.63253 0
M  V30 8213 H 769.215 3.65234 -3.79357 0
M  V30 8214 H 771.706 2.31527 -2.9867 0
M  V30 8215 H 772.019 4.22499 -6.47082 0
M  V30 8216 H 770.364 3.80546 -5.81558 0
M  V30 8217 H 773.555 2.80085 -3.7506 0
M  V30 8218 H 773.728 3.67188 -5.33926 0
M  V30 8219 N 767.134 1.16236 1.06428 0
M  V30 8220 C 768.411 0.853294 1.76006 0
M  V30 8221 C 768.791 -0.649162 2.00871 0
M  V30 8222 O 768.139 -1.59653 1.63472 0
M  V30 8223 C 768.349 1.67448 3.06206 0
M  V30 8224 C 769.697 1.8866 3.80385 0
M  V30 8225 O 770.721 1.64303 3.16043 0
M  V30 8226 O 769.58 2.29518 4.95968 0
M  V30 8227 H 766.674 0.314737 0.764767 0
M  V30 8228 H 769.22 1.26865 1.12709 0
M  V30 8229 H 767.992 2.69411 2.83784 0
M  V30 8230 H 767.615 1.25608 3.77238 0
M  V30 8231 N 768.612 -1.24939 0.960631 0
M  V30 8232 C 769.542 -2.28 0.503815 0
M  V30 8233 C 770.523 -1.63959 -0.452928 0
M  V30 8234 O 771.708 -1.91009 -0.350585 0
M  V30 8235 C 768.838 -3.46643 -0.213535 0
M  V30 8236 C 767.792 -4.22903 0.658535 0
M  V30 8237 C 767.118 -5.34363 -0.189902 0
M  V30 8238 C 768.418 -4.84949 1.93963 0
M  V30 8239 H 770.112 -2.66462 1.36521 0
M  V30 8240 H 767.658 -1.28093 0.657897 0
M  V30 8241 H 769.611 -4.1787 -0.544286 0
M  V30 8242 H 768.335 -3.07187 -1.10923 0
M  V30 8243 H 766.994 -3.53467 0.972455 0
M  V30 8244 H 766.642 -4.91147 -1.08553 0
M  V30 8245 H 766.342 -5.86302 0.390331 0
M  V30 8246 H 767.866 -6.0842 -0.515484 0
M  V30 8247 H 769.28 -5.48288 1.67491 0
M  V30 8248 H 767.677 -5.47091 2.46601 0
M  V30 8249 H 768.747 -4.06799 2.639 0
M  V30 8250 N 770.09 -0.729906 -1.39679 0
M  V30 8251 C 771.506 -0.404951 -1.54377 0
M  V30 8252 C 771.706 1.08476 -1.6981 0
M  V30 8253 O 770.762 1.87087 -1.69572 0
M  V30 8254 C 772.075 -1.18352 -2.76429 0
M  V30 8255 C 773.623 -1.17124 -2.9026 0
M  V30 8256 C 774.098 -1.93227 -4.15244 0
M  V30 8257 N 775.589 -1.90368 -4.22273 0
M  V30 8258 C 776.324 -2.46065 -5.17918 0
M  V30 8259 N 775.82 -3.10378 -6.19385 0
M  V30 8260 N 777.613 -2.36127 -5.10099 0
M  V30 8261 H 769.764 -1.69567 -1.27909 0
M  V30 8262 H 772.027 -0.717527 -0.619564 0
M  V30 8263 H 771.733 -2.23743 -2.71352 0
M  V30 8264 H 771.607 -0.784589 -3.6895 0
M  V30 8265 H 773.994 -0.125478 -2.94833 0
M  V30 8266 H 774.075 -1.60951 -1.98817 0
M  V30 8267 H 773.719 -2.97802 -4.11432 0
M  V30 8268 H 773.649 -1.4681 -5.05722 0
M  V30 8269 H 776.14 -1.4351 -3.4959 0
M  V30 8270 H 776.453 -3.50358 -6.88817 0
M  V30 8271 H 774.798 -3.14467 -6.19787 0
M  V30 8272 H 777.989 -1.85529 -4.29763 0
M  V30 8273 H 778.162 -2.79833 -5.84463 0
M  V30 8274 N 771.568 1.50203 -0.477153 0
M  V30 8275 C 772.845 1.95115 0.137609 0
M  V30 8276 C 773.225 1.41778 1.56404 0
M  V30 8277 O 772.573 0.621333 2.1989 0
M  V30 8278 C 772.783 3.4892 0.0747168 0
M  V30 8279 C 774.131 4.238 0.260585 0
M  V30 8280 O 775.155 3.5588 0.151021 0
M  V30 8281 O 774.014 5.44366 0.482534 0
M  V30 8282 H 771.108 0.81987 0.108364 0
M  V30 8283 H 773.654 1.60946 -0.537989 0
M  V30 8284 H 772.426 3.80308 -0.920966 0
M  V30 8285 H 772.049 3.89642 0.791509 0
M  V30 8286 N 773.046 0.209999 1.56195 0
M  V30 8287 C 774.276 -0.429373 2.02089 0
M  V30 8288 C 774.684 -1.54703 1.0892 0
M  V30 8289 O 774.027 -1.83485 0.0889535 0
M  V30 8290 C 774.089 -1.03266 3.44349 0
M  V30 8291 C 773.753 -0.0518873 4.56971 0
M  V30 8292 C 774.75 0.744249 5.14545 0
M  V30 8293 C 772.435 0.0635185 5.0226 0
M  V30 8294 C 774.429 1.64261 6.15871 0
M  V30 8295 C 772.116 0.965423 6.03426 0
M  V30 8296 C 773.114 1.75352 6.60106 0
M  V30 8297 O 772.802 2.64029 7.59305 0
M  V30 8298 H 772.534 -0.110604 0.66689 0
M  V30 8299 H 775.088 0.320436 2.02885 0
M  V30 8300 H 773.318 -1.83134 3.40586 0
M  V30 8301 H 775.007 -1.57823 3.73961 0
M  V30 8302 H 775.773 0.665476 4.80413 0
M  V30 8303 H 771.652 -0.539762 4.57829 0
M  V30 8304 H 775.196 2.25819 6.60039 0
M  V30 8305 H 771.093 1.04526 6.36981 0
M  V30 8306 H 771.861 2.57974 7.76783 0
M  V30 8307 N 774.524 -1.57472 -0.0634922 0
M  V30 8308 C 775.773 -1.86837 -0.759928 0
M  V30 8309 C 776.086 -0.803823 -1.7832 0
M  V30 8310 O 777.292 -0.985578 -2.52979 0
M  V30 8311 C 775.748 -3.31448 -1.4025 0
M  V30 8312 C 775.356 -4.46052 -0.417368 0
M  V30 8313 C 777.1 -3.70003 -2.08082 0
M  V30 8314 C 775.007 -5.81707 -1.06633 0
M  V30 8315 H 773.937 -0.697009 -0.287567 0
M  V30 8316 H 776.588 -1.83495 -0.0133914 0
M  V30 8317 H 774.97 -3.29427 -2.19759 0
M  V30 8318 H 776.144 -4.5948 0.348503 0
M  V30 8319 H 774.459 -4.16104 0.156955 0
M  V30 8320 H 777.056 -4.68653 -2.57426 0
M  V30 8321 H 777.399 -3.00226 -2.88393 0
M  V30 8322 H 777.932 -3.7405 -1.35394 0
M  V30 8323 H 774.671 -6.54798 -0.303374 0
M  V30 8324 H 774.191 -5.72064 -1.80286 0
M  V30 8325 H 775.87 -6.27317 -1.58376 0
M  V30 8326 N 776.003 0.335068 -1.53997 0
M  V30 8327 C 777.419 0.678704 -1.4445 0
M  V30 8328 C 777.619 1.92106 -0.608078 0
M  V30 8329 O 776.675 2.52292 -0.102373 0
M  V30 8330 C 777.988 0.863435 -2.88037 0
M  V30 8331 C 779.536 0.961513 -2.97866 0
M  V30 8332 C 780.011 1.1785 -4.42578 0
M  V30 8333 N 781.502 1.2455 -4.46141 0
M  V30 8334 C 782.237 1.43106 -5.55255 0
M  V30 8335 N 781.733 1.5878 -6.74359 0
M  V30 8336 N 783.526 1.45722 -5.42883 0
M  V30 8337 H 775.677 -0.481656 -2.06867 0
M  V30 8338 H 777.94 -0.153615 -0.935471 0
M  V30 8339 H 777.646 0.0219511 -3.51693 0
M  V30 8340 H 777.52 1.76268 -3.33481 0
M  V30 8341 H 779.907 1.79351 -2.34344 0
M  V30 8342 H 779.988 0.0389862 -2.5577 0
M  V30 8343 H 779.632 0.351397 -5.06683 0
M  V30 8344 H 779.562 2.11472 -4.82273 0
M  V30 8345 H 782.053 1.13928 -3.60318 0
M  V30 8346 H 782.366 1.72599 -7.53279 0
M  V30 8347 H 780.711 1.559 -6.77289 0
M  V30 8348 H 783.902 1.33065 -4.48789 0
M  V30 8349 H 784.075 1.59841 -6.27977 0
M  V30 8350 N 777.481 1.45874 0.596531 0
M  V30 8351 C 778.73 1.49737 1.35135 0
M  V30 8352 C 779.043 0.147755 1.95041 0
M  V30 8353 O 780.249 0.0640984 2.71424 0
M  V30 8354 C 778.705 2.6378 2.44843 0
M  V30 8355 C 778.313 4.05102 1.91301 0
M  V30 8356 C 780.057 2.769 3.21755 0
M  V30 8357 C 777.964 5.10508 2.98557 0
M  V30 8358 H 776.894 0.557219 0.507959 0
M  V30 8359 H 779.545 1.72046 0.638147 0
M  V30 8360 H 777.927 2.34774 3.189 0
M  V30 8361 H 779.101 4.43836 1.2388 0
M  V30 8362 H 777.416 3.96528 1.271 0
M  V30 8363 H 780.013 3.52819 4.01775 0
M  V30 8364 H 780.356 1.83924 3.73467 0
M  V30 8365 H 780.889 3.05485 2.54802 0
M  V30 8366 H 777.628 6.0523 2.51749 0
M  V30 8367 H 777.148 4.76332 3.6451 0
M  V30 8368 H 778.827 5.35745 3.62748 0
M  V30 8369 N 778.959 -0.83999 1.33349 0
M  V30 8370 C 779.909 -1.93817 1.20079 0
M  V30 8371 C 780.893 -1.60564 0.103978 0
M  V30 8372 O 782.085 -1.73859 0.331964 0
M  V30 8373 C 779.214 -3.30151 0.941031 0
M  V30 8374 C 778.3 -3.69577 2.08023 0
M  V30 8375 N 778.691 -3.80707 3.3301 0
M  V30 8376 C 776.989 -3.99309 1.98667 0
M  V30 8377 C 777.69 -4.14899 4.07717 0
M  V30 8378 N 776.666 -4.27208 3.36146 0
M  V30 8379 H 780.468 -2.00576 2.14817 0
M  V30 8380 H 777.982 -1.03264 1.2534 0
M  V30 8381 H 779.979 -4.08617 0.826894 0
M  V30 8382 H 778.639 -3.247 0.00216738 0
M  V30 8383 H 779.65 -3.64644 3.67771 0
M  V30 8384 H 776.327 -4.02076 1.12433 0
M  V30 8385 H 777.717 -4.30857 5.15569 0
M  V30 8386 N 780.437 -1.16799 -1.0581 0
M  V30 8387 C 781.853 -0.913935 -1.30841 0
M  V30 8388 C 782.053 0.430439 -1.96849 0
M  V30 8389 O 781.109 1.16885 -2.23817 0
M  V30 8390 C 782.422 -2.06662 -2.18429 0
M  V30 8391 C 783.97 -2.10294 -2.31831 0
M  V30 8392 C 784.445 -3.2493 -3.22776 0
M  V30 8393 N 785.936 -3.24678 -3.30361 0
M  V30 8394 C 786.671 -4.10021 -4.00837 0
M  V30 8395 N 786.167 -5.05461 -4.73795 0
M  V30 8396 N 787.96 -3.97991 -3.96937 0
M  V30 8397 H 780.111 -2.03343 -0.613613 0
M  V30 8398 H 782.374 -0.88754 -0.333133 0
M  V30 8399 H 782.08 -3.03791 -1.77211 0
M  V30 8400 H 781.954 -2.01233 -3.19038 0
M  V30 8401 H 784.341 -1.13754 -2.72294 0
M  V30 8402 H 784.422 -2.19786 -1.30873 0
M  V30 8403 H 784.066 -4.21731 -2.83028 0
M  V30 8404 H 783.996 -3.12674 -4.23725 0
M  V30 8405 H 786.487 -2.55573 -2.78372 0
M  V30 8406 H 786.8 -5.66989 -5.25113 0
M  V30 8407 H 785.145 -5.09436 -4.72758 0
M  V30 8408 H 788.336 -3.2273 -3.39062 0
M  V30 8409 H 788.509 -4.64722 -4.51594 0
M  V30 8410 N 781.915 1.24427 -0.967243 0
M  V30 8411 C 783.164 1.91789 -0.624478 0
M  V30 8412 C 783.477 1.76448 0.844129 0
M  V30 8413 O 784.683 2.38495 1.2974 0
M  V30 8414 C 783.139 3.43743 -1.06626 0
M  V30 8415 C 782.747 3.67771 -2.55829 0
M  V30 8416 C 784.491 4.16958 -0.79662 0
M  V30 8417 C 782.398 5.13293 -2.93742 0
M  V30 8418 H 781.328 0.71811 -0.229856 0
M  V30 8419 H 783.979 1.41081 -1.17339 0
M  V30 8420 H 782.361 3.93484 -0.445663 0
M  V30 8421 H 783.535 3.28631 -3.23015 0
M  V30 8422 H 781.85 3.07841 -2.80398 0
M  V30 8423 H 784.447 5.24171 -1.05589 0
M  V30 8424 H 784.79 4.15442 0.267163 0
M  V30 8425 H 785.323 3.73164 -1.37816 0
M  V30 8426 H 782.062 5.19931 -3.9919 0
M  V30 8427 H 781.582 5.53433 -2.3124 0
M  V30 8428 H 783.261 5.81521 -2.83623 0
M  V30 8429 N 783.393 0.737304 1.3929 0
M  V30 8430 C 784.804 0.355966 1.83275 0
M  V30 8431 C 785.155 -1.11295 1.6158 0
M  V30 8432 O 784.28 -1.85871 1.10819 0
M  V30 8433 C 784.875 0.63931 3.32713 0
M  V30 8434 C 783.434 0.31144 3.75109 0
M  V30 8435 C 782.581 0.900765 2.62262 0
M  V30 8436 H 785.532 0.934763 1.28249 0
M  V30 8437 H 785.553 -0.0881293 3.80398 0
M  V30 8438 H 785.065 1.70847 3.48472 0
M  V30 8439 H 783.166 -0.751791 3.64937 0
M  V30 8440 H 783.279 0.795611 4.72448 0
M  V30 8441 H 781.643 0.327239 2.52589 0
M  V30 8442 H 782.426 1.97463 2.80826 0
M  V30 8443 N 784.871 -1.49948 0.485112 0
M  V30 8444 C 785.818 -2.28819 -0.301729 0
M  V30 8445 C 786.788 -1.34496 -0.974683 0
M  V30 8446 O 787.973 -1.63444 -0.984418 0
M  V30 8447 C 785.113 -3.16758 -1.36961 0
M  V30 8448 C 784.226 -4.26125 -0.710027 0
M  V30 8449 C 783.361 -5.01302 -1.75699 0
M  V30 8450 C 782.4 -6.02525 -1.07841 0
M  V30 8451 N 781.537 -6.70927 -2.06886 0
M  V30 8452 H 786.377 -2.95604 0.377127 0
M  V30 8453 H 783.914 -1.45764 0.197826 0
M  V30 8454 H 785.872 -3.66106 -2.00056 0
M  V30 8455 H 784.502 -2.51991 -2.01744 0
M  V30 8456 H 783.554 -3.80385 0.0338278 0
M  V30 8457 H 784.866 -4.98493 -0.175079 0
M  V30 8458 H 784.02 -5.54438 -2.46339 0
M  V30 8459 H 782.759 -4.28672 -2.32577 0
M  V30 8460 H 781.764 -5.48635 -0.357706 0
M  V30 8461 H 782.989 -6.77134 -0.516345 0
M  V30 8462 H 780.935 -6.01079 -2.62755 0
M  V30 8463 H 780.852 -7.39216 -1.58414 0
M  V30 8464 H 782.12 -7.28675 -2.76863 0
M  V30 8465 N 786.349 -0.21828 -1.56081 0
M  V30 8466 C 787.76 0.290166 -1.84431 0
M  V30 8467 C 788.111 1.59712 -1.13958 0
M  V30 8468 O 787.236 2.12516 -0.40815 0
M  V30 8469 C 787.831 0.53325 -3.34577 0
M  V30 8470 C 786.39 0.986011 -3.63256 0
M  V30 8471 C 785.537 0.0472798 -2.7726 0
M  V30 8472 H 788.488 -0.441548 -1.52434 0
M  V30 8473 H 788.509 1.37967 -3.54606 0
M  V30 8474 H 788.021 -0.418137 -3.85841 0
M  V30 8475 H 786.122 1.95087 -3.17446 0
M  V30 8476 H 786.235 0.862684 -4.71269 0
M  V30 8477 H 784.599 0.553471 -2.48614 0
M  V30 8478 H 785.382 -0.898966 -3.31321 0
M  V30 8479 N 787.827 1.57504 0.0551401 0
M  V30 8480 C 788.757 2.07864 1.06372 0
M  V30 8481 C 789.738 0.975565 1.39344 0
M  V30 8482 O 790.923 1.24929 1.48682 0
M  V30 8483 C 788.053 2.53643 2.3724 0
M  V30 8484 C 787.007 3.67978 2.18578 0
M  V30 8485 C 786.333 3.9987 3.54976 0
M  V30 8486 C 787.633 4.97405 1.59329 0
M  V30 8487 H 789.327 2.92379 0.644595 0
M  V30 8488 H 786.873 1.40654 0.308619 0
M  V30 8489 H 788.826 2.8749 3.08103 0
M  V30 8490 H 787.55 1.66177 2.81163 0
M  V30 8491 H 786.209 3.3444 1.50152 0
M  V30 8492 H 785.857 3.0951 3.965 0
M  V30 8493 H 785.557 4.76867 3.43324 0
M  V30 8494 H 787.081 4.36228 4.27244 0
M  V30 8495 H 788.495 5.29375 2.20078 0
M  V30 8496 H 786.892 5.78837 1.58327 0
M  V30 8497 H 787.962 4.81697 0.55638 0
M  V30 8498 N 789.305 -0.326896 1.54172 0
M  V30 8499 C 790.252 -1.40216 1.83325 0
M  V30 8500 C 791.222 -1.51538 0.680107 0
M  V30 8501 O 792.407 -1.66811 0.926206 0
M  V30 8502 C 789.547 -2.76626 2.0633 0
M  V30 8503 C 788.66 -2.73963 3.34019 0
M  V30 8504 C 787.795 -4.02198 3.47002 0
M  V30 8505 C 786.834 -3.93828 4.68578 0
M  V30 8506 N 785.971 -5.13787 4.78506 0
M  V30 8507 H 790.811 -1.14656 2.7506 0
M  V30 8508 H 788.348 -0.555089 1.36225 0
M  V30 8509 H 790.306 -3.55922 2.17659 0
M  V30 8510 H 788.936 -3.00503 1.1789 0
M  V30 8511 H 787.988 -1.86677 3.31445 0
M  V30 8512 H 789.3 -2.6366 4.2342 0
M  V30 8513 H 788.454 -4.89923 3.57855 0
M  V30 8514 H 787.193 -4.15302 2.55687 0
M  V30 8515 H 786.198 -3.04487 4.57786 0
M  V30 8516 H 787.423 -3.82292 5.61275 0
M  V30 8517 H 785.369 -5.27403 3.90105 0
M  V30 8518 H 785.286 -5.05807 5.61868 0
M  V30 8519 H 786.554 -6.03236 4.93686 0
M  V30 8520 N 790.784 -1.46188 -0.588786 0
M  V30 8521 C 791.716 -1.52319 -1.71265 0
M  V30 8522 C 792.729 -0.412096 -1.57498 0
M  V30 8523 O 793.918 -0.680146 -1.65034 0
M  V30 8524 C 791.018 -1.38164 -3.09458 0
M  V30 8525 C 790.191 -2.63284 -3.49286 0
M  V30 8526 C 789.25 -2.43415 -4.66514 0
M  V30 8527 O 788.276 -3.17113 -4.72682 0
M  V30 8528 N 789.478 -1.49187 -5.61002 0
M  V30 8529 H 792.243 -2.49219 -1.66463 0
M  V30 8530 H 789.804 -1.42167 -0.774601 0
M  V30 8531 H 791.796 -1.22653 -3.85666 0
M  V30 8532 H 790.366 -0.494678 -3.08661 0
M  V30 8533 H 789.586 -2.93779 -2.62845 0
M  V30 8534 H 790.874 -3.46413 -3.7266 0
M  V30 8535 H 790.272 -0.884027 -5.5875 0
M  V30 8536 H 788.829 -1.39642 -6.36666 0
M  V30 8537 N 792.262 0.832906 -1.33792 0
M  V30 8538 C 793.678 1.1245 -1.13257 0
M  V30 8539 C 793.878 2.01369 0.0725832 0
M  V30 8540 O 792.934 2.41071 0.751082 0
M  V30 8541 C 794.247 1.78084 -2.42294 0
M  V30 8542 C 795.795 1.90624 -2.48257 0
M  V30 8543 C 796.27 2.59673 -3.77271 0
M  V30 8544 N 797.761 2.67181 -3.78376 0
M  V30 8545 C 798.496 3.21313 -4.74916 0
M  V30 8546 N 797.992 3.76086 -5.81835 0
M  V30 8547 N 799.785 3.19621 -4.62384 0
M  V30 8548 H 791.936 0.241244 -2.11026 0
M  V30 8549 H 794.199 0.169557 -0.932713 0
M  V30 8550 H 793.905 1.20209 -3.30519 0
M  V30 8551 H 793.779 2.78049 -2.5489 0
M  V30 8552 H 796.166 2.4765 -1.60478 0
M  V30 8553 H 796.247 0.89591 -2.39598 0
M  V30 8554 H 795.891 2.03304 -4.65435 0
M  V30 8555 H 795.821 3.61189 -3.8321 0
M  V30 8556 H 798.312 2.28346 -3.01108 0
M  V30 8557 H 798.625 4.15612 -6.51526 0
M  V30 8558 H 796.97 3.74357 -5.85561 0
M  V30 8559 H 800.161 2.76091 -3.7801 0
M  V30 8560 H 800.334 3.61504 -5.37791 0
M  V30 8561 N 793.74 1.17359 1.05189 0
M  V30 8562 C 794.673 0.833768 2.12423 0
M  V30 8563 C 795.651 -0.19945 1.61372 0
M  V30 8564 O 796.835 -0.080979 1.88326 0
M  V30 8565 C 793.962 0.243745 3.37822 0
M  V30 8566 C 793.008 1.25235 4.07699 0
M  V30 8567 S 793.841 2.80368 4.56239 0
M  V30 8568 C 794.997 2.22846 5.84885 0
M  V30 8569 H 795.23 1.74197 2.40921 0
M  V30 8570 H 792.763 0.998242 1.1779 0
M  V30 8571 H 794.721 -0.0901915 4.10401 0
M  V30 8572 H 793.382 -0.642396 3.07461 0
M  V30 8573 H 792.575 0.788168 4.97799 0
M  V30 8574 H 792.177 1.53194 3.41185 0
M  V30 8575 H 794.469 1.60403 6.58238 0
M  V30 8576 H 795.412 3.112 6.3605 0
M  V30 8577 H 795.82 1.66296 5.39449 0
M  V30 8578 N 795.218 -1.23913 0.973828 0
M  V30 8579 C 796.148 -2.27453 0.527969 0
M  V30 8580 C 797.129 -1.6443 -0.435513 0
M  V30 8581 O 798.314 -1.9137 -0.330306 0
M  V30 8582 C 795.444 -3.4685 -0.176757 0
M  V30 8583 C 794.398 -4.22181 0.703352 0
M  V30 8584 C 793.724 -5.34534 -0.133215 0
M  V30 8585 C 795.024 -4.82865 1.99096 0
M  V30 8586 H 796.718 -2.65 1.3934 0
M  V30 8587 H 794.264 -1.27388 0.671446 0
M  V30 8588 H 796.217 -4.18424 -0.499934 0
M  V30 8589 H 794.941 -3.08346 -1.07659 0
M  V30 8590 H 793.6 -3.52416 1.00989 0
M  V30 8591 H 793.248 -4.92271 -1.03338 0
M  V30 8592 H 792.948 -5.85855 0.452494 0
M  V30 8593 H 794.472 -6.08933 -0.450924 0
M  V30 8594 H 795.886 -5.46481 1.73297 0
M  V30 8595 H 794.283 -5.44444 2.52389 0
M  V30 8596 H 795.353 -4.03977 2.68199 0
M  V30 8597 N 796.696 -0.74468 -1.38897 0
M  V30 8598 C 797.606 -0.112892 -2.34328 0
M  V30 8599 C 798.622 0.71087 -1.58816 0
M  V30 8600 O 799.798 0.637092 -1.91058 0
M  V30 8601 C 796.863 0.776417 -3.37894 0
M  V30 8602 C 795.924 -0.0606999 -4.29257 0
M  V30 8603 C 795.157 0.786258 -5.27877 0
M  V30 8604 O 795.38 2.02463 -5.33259 0
M  V30 8605 O 794.314 0.209781 -6.01534 0
M  V30 8606 H 798.14 -0.900801 -2.90033 0
M  V30 8607 H 795.725 -0.505462 -1.4059 0
M  V30 8608 H 797.607 1.28496 -4.01331 0
M  V30 8609 H 796.282 1.54297 -2.84559 0
M  V30 8610 H 795.189 -0.614984 -3.69011 0
M  V30 8611 H 796.522 -0.789702 -4.85824 0
M  V30 8612 N 798.174 1.49689 -0.493057 0
M  V30 8613 C 799.404 2.06536 0.0512397 0
M  V30 8614 C 799.812 1.35459 1.32089 0
M  V30 8615 O 799.155 0.424145 1.78736 0
M  V30 8616 C 799.217 3.57452 0.383231 0
M  V30 8617 C 798.881 4.50163 -0.787555 0
M  V30 8618 C 799.878 4.92151 -1.67582 0
M  V30 8619 C 797.563 4.92565 -0.984109 0
M  V30 8620 C 799.557 5.7527 -2.74487 0
M  V30 8621 C 797.244 5.75463 -2.05634 0
M  V30 8622 C 798.242 6.16719 -2.93507 0
M  V30 8623 O 797.93 6.97961 -3.98881 0
M  V30 8624 H 797.662 0.675862 -0.0136516 0
M  V30 8625 H 800.216 1.9356 -0.687298 0
M  V30 8626 H 798.446 3.68408 1.17526 0
M  V30 8627 H 800.135 3.96572 0.8652 0
M  V30 8628 H 800.901 4.60043 -1.53575 0
M  V30 8629 H 796.78 4.5996 -0.309541 0
M  V30 8630 H 800.324 6.07392 -3.43104 0
M  V30 8631 H 796.221 6.06983 -2.19639 0
M  V30 8632 H 796.989 7.16253 -3.96137 0
M  V30 8633 N 799.652 0.226554 1.55963 0
M  V30 8634 C 800.899 -0.403789 1.98433 0
M  V30 8635 C 801.227 -1.59416 1.1143 0
M  V30 8636 O 800.482 -1.95042 0.160389 0
M  V30 8637 C 800.781 -0.87642 3.46488 0
M  V30 8638 C 800.447 0.203973 4.50438 0
M  V30 8639 C 799.109 0.500754 4.78587 0
M  V30 8640 C 801.461 0.934396 5.12756 0
M  V30 8641 C 798.789 1.53239 5.66334 0
M  V30 8642 C 801.141 1.9554 6.0162 0
M  V30 8643 C 799.805 2.25905 6.28111 0
M  V30 8644 H 799.075 -0.147757 0.726119 0
M  V30 8645 H 801.722 0.330121 1.88633 0
M  V30 8646 H 800.027 -1.68918 3.53517 0
M  V30 8647 H 801.724 -1.37407 3.76723 0
M  V30 8648 H 798.314 -0.0374917 4.28584 0
M  V30 8649 H 802.498 0.718355 4.91074 0
M  V30 8650 H 797.754 1.77321 5.85122 0
M  V30 8651 H 801.928 2.52642 6.48957 0
M  V30 8652 H 799.555 3.05985 6.959 0
M  V30 8653 N 801.13 -1.57531 -0.0467866 0
M  V30 8654 C 802.062 -2.02156 -1.08007 0
M  V30 8655 C 803.075 -0.931434 -1.33522 0
M  V30 8656 O 804.264 -1.209 -1.31321 0
M  V30 8657 C 801.364 -2.36675 -2.42566 0
M  V30 8658 C 800.537 -3.67848 -2.36658 0
M  V30 8659 C 799.596 -3.89754 -3.53523 0
M  V30 8660 O 798.622 -4.61036 -3.33818 0
M  V30 8661 N 799.824 -3.34025 -4.74771 0
M  V30 8662 H 802.589 -2.91414 -0.699845 0
M  V30 8663 H 800.15 -1.60185 -0.235041 0
M  V30 8664 H 802.142 -2.48482 -3.19435 0
M  V30 8665 H 800.712 -1.53178 -2.72498 0
M  V30 8666 H 799.932 -3.66561 -1.45005 0
M  V30 8667 H 801.22 -4.53931 -2.29835 0
M  V30 8668 H 800.618 -2.76214 -4.93683 0
M  V30 8669 H 799.175 -3.51241 -5.49066 0
M  V30 8670 N 802.608 0.318715 -1.54344 0
M  V30 8671 C 803.571 1.37545 -1.83342 0
M  V30 8672 C 804.571 1.445 -0.705444 0
M  V30 8673 O 805.761 1.44443 -0.973752 0
M  V30 8674 C 802.893 2.76225 -1.99781 0
M  V30 8675 H 804.086 1.13084 -2.77762 0
M  V30 8676 H 801.639 0.554457 -1.46135 0
M  V30 8677 H 802.374 3.05934 -1.07588 0
M  V30 8678 H 802.159 2.7257 -2.81865 0
M  V30 8679 H 803.649 3.52664 -2.23647 0
M  V30 8680 N 804.086 1.46499 0.581025 0
M  V30 8681 C 805.314 1.5547 1.36517 0
M  V30 8682 C 805.729 0.196407 1.87776 0
M  V30 8683 O 805.086 -0.806577 1.63709 0
M  V30 8684 C 805.137 2.56084 2.55154 0
M  V30 8685 O 804.858 3.86637 2.06018 0
M  V30 8686 C 806.359 2.75011 3.47683 0
M  V30 8687 H 803.579 0.525703 0.416986 0
M  V30 8688 H 806.123 1.9192 0.706177 0
M  V30 8689 H 804.278 2.22633 3.17039 0
M  V30 8690 H 804.692 4.41413 2.83292 0
M  V30 8691 H 806.166 3.49329 4.27403 0
M  V30 8692 H 806.643 1.81978 3.99726 0
M  V30 8693 H 807.249 3.09565 2.91632 0
M  V30 8694 N 805.565 -0.825799 1.34232 0
M  V30 8695 C 806.811 -1.58379 1.27623 0
M  V30 8696 C 807.166 -1.91789 -0.15323 0
M  V30 8697 O 806.459 -1.56965 -1.09875 0
M  V30 8698 C 806.653 -2.89362 2.09772 0
M  V30 8699 C 806.482 -2.68747 3.60562 0
M  V30 8700 C 805.252 -2.6563 4.29848 0
M  V30 8701 C 807.45 -2.40463 4.54623 0
M  V30 8702 N 805.432 -2.3653 5.66504 0
M  V30 8703 C 806.803 -2.21032 5.79262 0
M  V30 8704 C 808.858 -2.26168 4.43568 0
M  V30 8705 C 807.561 -1.88754 6.94093 0
M  V30 8706 C 809.587 -1.95284 5.58228 0
M  V30 8707 C 808.949 -1.76674 6.81884 0
M  V30 8708 H 805.048 -0.582062 0.522234 0
M  V30 8709 H 807.632 -0.968308 1.68914 0
M  V30 8710 H 805.803 -3.48838 1.70783 0
M  V30 8711 H 807.535 -3.54716 1.94831 0
M  V30 8712 H 804.29 -2.79601 3.82257 0
M  V30 8713 H 804.714 -2.24827 6.38578 0
M  V30 8714 H 809.356 -2.39262 3.48588 0
M  V30 8715 H 807.074 -1.74397 7.89057 0
M  V30 8716 H 810.66 -1.84959 5.51617 0
M  V30 8717 H 809.54 -1.53123 7.69105 0
M  V30 8718 N 807.043 -1.17915 -1.04565 0
M  V30 8719 C 808.006 -0.903787 -2.10628 0
M  V30 8720 C 809.006 0.10873 -1.60432 0
M  V30 8721 O 810.196 -0.124152 -1.73757 0
M  V30 8722 C 807.328 -0.355017 -3.39046 0
M  V30 8723 H 808.521 -1.84425 -2.3649 0
M  V30 8724 H 806.074 -0.990477 -1.2091 0
M  V30 8725 H 806.809 0.592297 -3.18845 0
M  V30 8726 H 806.594 -1.08484 -3.76794 0
M  V30 8727 H 808.084 -0.180891 -4.17208 0
M  V30 8728 N 808.521 1.23394 -0.980386 0
M  V30 8729 C 809.767 1.92094 -0.650223 0
M  V30 8730 C 810.1 1.76309 0.814173 0
M  V30 8731 O 809.375 1.12406 1.5873 0
M  V30 8732 C 809.658 3.44713 -1.04139 0
M  V30 8733 C 809.511 3.69606 -2.56342 0
M  V30 8734 C 810.83 4.36191 -0.585296 0
M  V30 8735 H 807.949 0.697618 -0.237695 0
M  V30 8736 H 810.591 1.45517 -1.22167 0
M  V30 8737 H 808.741 3.84513 -0.55515 0
M  V30 8738 H 810.413 3.39288 -3.1254 0
M  V30 8739 H 808.656 3.14318 -2.98976 0
M  V30 8740 H 809.327 4.76441 -2.78762 0
M  V30 8741 H 811.803 4.03836 -1.00276 0
M  V30 8742 H 810.679 5.41679 -0.887428 0
M  V30 8743 H 810.94 4.39097 0.51438 0
M  V30 8744 N 809.999 0.752036 1.385 0
M  V30 8745 C 810.947 0.112634 2.32327 0
M  V30 8746 C 811.941 -0.707037 1.53939 0
M  V30 8747 O 813.147 -0.606309 1.69481 0
M  V30 8748 H 809.522 0.0176275 0.751793 0
M  V30 8749 H 811.493 0.920074 2.83861 0
M  V30 8750 C 810.242 -0.767458 3.39124 0
M  V30 8751 H 809.565 -0.146122 3.99533 0
M  V30 8752 H 811.005 -1.18216 4.07187 0
M  V30 8753 C 809.464 -1.90938 2.77568 0
M  V30 8754 O 809.994 -3.00342 2.66754 0
M  V30 8755 N 808.2 -1.70396 2.35401 0
M  V30 8756 H 807.747 -0.81413 2.44397 0
M  V30 8757 H 807.705 -2.46972 1.94557 0
M  V30 8758 N 811.477 -1.49425 0.500989 0
M  V30 8759 C 812.425 -2.30771 -0.291149 0
M  V30 8760 C 813.419 -1.3938 -0.962787 0
M  V30 8761 O 814.625 -1.56431 -0.890477 0
M  V30 8762 H 811 -0.743499 -0.11275 0
M  V30 8763 H 812.971 -2.95501 0.414917 0
M  V30 8764 C 811.72 -3.20725 -1.34279 0
M  V30 8765 H 811.043 -3.90975 -0.83538 0
M  V30 8766 H 812.483 -3.80583 -1.86903 0
M  V30 8767 C 810.942 -2.40334 -2.36095 0
M  V30 8768 O 811.472 -2.10749 -3.41976 0
M  V30 8769 N 809.678 -2.02359 -2.08565 0
M  V30 8770 H 809.225 -2.26619 -1.22482 0
M  V30 8771 H 809.183 -1.48878 -2.76916 0
M  V30 8772 N 812.955 -0.234822 -1.55841 0
M  V30 8773 C 814.203 0.392483 -1.98252 0
M  V30 8774 C 814.524 1.59344 -1.12404 0
M  V30 8775 O 813.794 1.94834 -0.204055 0
M  V30 8776 H 812.374 0.147999 -0.732192 0
M  V30 8777 H 815.036 -0.330804 -1.92072 0
M  V30 8778 H 814.132 0.709829 -3.03921 0
M  V30 8779 N 814.433 1.57553 0.0384317 0
M  V30 8780 C 815.682 1.88022 0.730108 0
M  V30 8781 C 815.995 0.83209 1.77019 0
M  V30 8782 O 817.201 1.0257 2.51379 0
M  V30 8783 C 815.657 3.33637 1.3496 0
M  V30 8784 C 815.265 4.46659 0.346352 0
M  V30 8785 C 817.009 3.73266 2.02169 0
M  V30 8786 C 814.916 5.8333 0.973652 0
M  V30 8787 H 813.846 0.701496 0.276442 0
M  V30 8788 H 816.497 1.83493 -0.0158028 0
M  V30 8789 H 814.879 3.32882 2.1449 0
M  V30 8790 H 816.053 4.58868 -0.421558 0
M  V30 8791 H 814.368 4.15802 -0.223133 0
M  V30 8792 H 816.965 4.72689 2.49938 0
M  V30 8793 H 817.308 3.04776 2.8358 0
M  V30 8794 H 817.841 3.76156 1.29427 0
M  V30 8795 H 814.58 6.55197 0.199163 0
M  V30 8796 H 814.1 5.7486 1.71162 0
M  V30 8797 H 815.779 6.29757 1.48376 0
M  V30 8798 N 815.911 -0.310526 1.54511 0
M  V30 8799 C 817.188 -1.06593 1.64004 0
M  V30 8800 C 817.568 -2.05519 0.482216 0
M  V30 8801 O 816.916 -2.22455 -0.52212 0
M  V30 8802 C 817.126 -1.75627 3.01589 0
M  V30 8803 C 818.474 -2.28173 3.58081 0
M  V30 8804 O 819.498 -1.85674 3.03979 0
M  V30 8805 O 818.357 -3.06015 4.52788 0
M  V30 8806 H 815.451 -0.492109 0.664649 0
M  V30 8807 H 817.997 -0.309374 1.66856 0
M  V30 8808 H 816.769 -1.03743 3.77297 0
M  V30 8809 H 816.392 -2.58061 3.02473 0
M  V30 8810 N 817.389 -1.46805 -0.573248 0
M  V30 8811 C 818.617 -1.56191 -1.3569 0
M  V30 8812 C 819.032 -0.206362 -1.87669 0
M  V30 8813 O 818.389 0.797883 -1.64134 0
M  V30 8814 C 818.44 -2.57433 -2.53792 0
M  V30 8815 O 818.161 -3.87724 -2.03965 0
M  V30 8816 C 819.662 -2.76851 -3.4622 0
M  V30 8817 H 816.882 -0.527907 -0.414192 0
M  V30 8818 H 819.426 -1.92292 -0.695989 0
M  V30 8819 H 817.581 -2.24311 -3.15854 0
M  V30 8820 H 817.995 -4.42909 -2.80948 0
M  V30 8821 H 819.469 -3.5159 -4.25545 0
M  V30 8822 H 819.946 -1.84095 -3.98755 0
M  V30 8823 H 820.552 -3.11107 -2.89987 0
M  V30 8824 N 818.867 0.818669 -1.34668 0
M  V30 8825 C 820.095 1.60674 -1.30351 0
M  V30 8826 C 820.51 1.88408 0.121546 0
M  V30 8827 O 819.867 1.47849 1.06991 0
M  V30 8828 C 819.918 2.94516 -2.09625 0
M  V30 8829 O 819.639 2.6799 -3.46573 0
M  V30 8830 C 821.14 3.8891 -2.12754 0
M  V30 8831 H 818.36 0.499306 -0.448258 0
M  V30 8832 H 820.904 1.01828 -1.77345 0
M  V30 8833 H 819.059 3.49908 -1.66262 0
M  V30 8834 H 819.473 3.53361 -3.87603 0
M  V30 8835 H 820.947 4.79972 -2.72637 0
M  V30 8836 H 821.424 4.24599 -1.12306 0
M  V30 8837 H 822.03 3.39453 -2.56225 0
M  V30 8838 N 820.346 1.18468 1.03938 0
M  V30 8839 C 821.256 0.927889 2.1547 0
M  V30 8840 C 822.272 -0.108447 1.73662 0
M  V30 8841 O 823.448 0.0737636 2.01265 0
M  V30 8842 C 820.513 0.458494 3.43655 0
M  V30 8843 C 819.574 1.56295 3.99838 0
M  V30 8844 C 818.807 1.11586 5.21904 0
M  V30 8845 O 819.03 -0.0249057 5.70395 0
M  V30 8846 O 817.964 1.91412 5.70653 0
M  V30 8847 H 821.79 1.86116 2.39989 0
M  V30 8848 H 819.375 0.966607 1.13917 0
M  V30 8849 H 821.257 0.204861 4.20902 0
M  V30 8850 H 819.932 -0.446464 3.20606 0
M  V30 8851 H 818.839 1.87061 3.23974 0
M  V30 8852 H 820.172 2.44408 4.2723 0
M  V30 8853 N 821.824 -1.22873 0.986916 0
M  V30 8854 C 822.754 -2.2688 0.552064 0
M  V30 8855 C 823.735 -1.64883 -0.418048 0
M  V30 8856 O 824.92 -1.9171 -0.30999 0
M  V30 8857 C 822.05 -3.47018 -0.139959 0
M  V30 8858 C 821.004 -4.21411 0.748091 0
M  V30 8859 C 820.33 -5.34645 -0.0765132 0
M  V30 8860 C 821.63 -4.80726 2.04206 0
M  V30 8861 H 823.324 -2.63507 1.42143 0
M  V30 8862 H 820.87 -1.26668 0.68492 0
M  V30 8863 H 822.823 -4.18931 -0.455527 0
M  V30 8864 H 821.547 -3.0947 -1.04382 0
M  V30 8865 H 820.206 -3.51325 1.04721 0
M  V30 8866 H 819.854 -4.93339 -0.981109 0
M  V30 8867 H 819.554 -5.85342 0.514606 0
M  V30 8868 H 821.078 -6.09377 -0.386313 0
M  V30 8869 H 822.492 -5.44612 1.79083 0
M  V30 8870 H 820.889 -5.41737 2.5815 0
M  V30 8871 H 821.959 -4.01109 2.72469 0
M  V30 8872 N 823.302 -0.75937 -1.38099 0
M  V30 8873 C 824.232 -0.151077 -2.33011 0
M  V30 8874 C 825.213 0.697099 -1.5516 0
M  V30 8875 O 826.398 0.637101 -1.83452 0
M  V30 8876 C 823.528 0.738423 -3.39359 0
M  V30 8877 C 822.482 -0.0074741 -4.27999 0
M  V30 8878 C 821.808 1.00066 -5.25253 0
M  V30 8879 C 823.108 -1.17926 -5.08813 0
M  V30 8880 H 824.802 -0.943933 -2.84131 0
M  V30 8881 H 822.348 -0.455362 -1.36611 0
M  V30 8882 H 824.301 1.17369 -4.04725 0
M  V30 8883 H 823.025 1.56366 -2.86735 0
M  V30 8884 H 821.684 -0.423379 -3.64147 0
M  V30 8885 H 821.332 1.82012 -4.68914 0
M  V30 8886 H 821.032 0.506199 -5.85416 0
M  V30 8887 H 822.556 1.43512 -5.93495 0
M  V30 8888 H 823.97 -0.821262 -5.67387 0
M  V30 8889 H 822.367 -1.60497 -5.78239 0
M  V30 8890 H 823.437 -1.98938 -4.42212 0
M  V30 8891 N 824.78 1.49157 -0.508906 0
M  V30 8892 C 825.712 2.272 0.302115 0
M  V30 8893 C 826.725 1.3407 0.923529 0
M  V30 8894 O 827.914 1.5929 0.805532 0
M  V30 8895 C 825.014 3.06736 1.44105 0
M  V30 8896 C 824.187 4.27497 0.925477 0
M  V30 8897 C 823.246 4.89014 1.94297 0
M  V30 8898 O 822.272 5.48851 1.50834 0
M  V30 8899 N 823.474 4.7937 3.2739 0
M  V30 8900 H 826.239 2.97443 -0.367115 0
M  V30 8901 H 823.8 1.58248 -0.341933 0
M  V30 8902 H 825.792 3.44763 2.11944 0
M  V30 8903 H 824.362 2.3905 2.0143 0
M  V30 8904 H 823.582 3.94135 0.0717301 0
M  V30 8905 H 824.87 5.05714 0.55955 0
M  V30 8906 H 824.268 4.31869 3.65384 0
M  V30 8907 H 822.825 5.21559 3.90922 0
M  V30 8908 N 826.258 0.243083 1.55714 0
M  V30 8909 C 827.483 -0.389944 2.03701 0
M  V30 8910 C 827.908 -1.51025 1.12129 0
M  V30 8911 O 827.266 -1.80944 0.11352 0
M  V30 8912 C 827.314 -0.878649 3.49731 0
M  V30 8913 O 826.418 -1.98851 3.61292 0
M  V30 8914 H 825.759 -0.0855115 0.658471 0
M  V30 8915 H 828.289 0.368023 2.01263 0
M  V30 8916 H 828.299 -1.18287 3.90477 0
M  V30 8917 H 826.974 -0.0588107 4.15858 0
M  V30 8918 H 825.551 -1.68928 3.32442 0
M  V30 8919 N 827.736 -1.57571 -0.0300757 0
M  V30 8920 C 828.666 -2.0953 -1.03051 0
M  V30 8921 C 829.647 -0.99761 -1.37774 0
M  V30 8922 O 830.832 -1.27279 -1.46676 0
M  V30 8923 C 827.962 -2.57385 -2.33174 0
M  V30 8924 C 826.916 -3.71409 -2.12696 0
M  V30 8925 C 826.242 -4.05467 -3.4857 0
M  V30 8926 C 827.542 -4.99877 -1.51396 0
M  V30 8927 H 829.236 -2.93367 -0.597999 0
M  V30 8928 H 826.782 -1.41127 -0.286203 0
M  V30 8929 H 828.735 -2.92355 -3.03491 0
M  V30 8930 H 827.459 -1.70629 -2.78484 0
M  V30 8931 H 826.118 -3.36786 -1.44813 0
M  V30 8932 H 825.766 -3.15779 -3.91526 0
M  V30 8933 H 825.466 -4.82269 -3.35694 0
M  V30 8934 H 826.99 -4.4297 -4.2025 0
M  V30 8935 H 828.404 -5.3281 -2.11629 0
M  V30 8936 H 826.801 -5.81283 -1.49098 0
M  V30 8937 H 827.871 -4.82522 -0.479676 0
M  V30 8938 N 829.214 0.302327 -1.54673 0
M  V30 8939 C 830.625 0.875409 -1.64904 0
M  V30 8940 C 830.976 1.88132 -0.55684 0
M  V30 8941 O 830.101 2.14215 0.306754 0
M  V30 8942 C 830.696 1.59457 -2.9893 0
M  V30 8943 C 829.255 2.11607 -3.11287 0
M  V30 8944 C 828.402 0.948324 -2.6058 0
M  V30 8945 H 831.353 0.079362 -1.58501 0
M  V30 8946 H 831.374 2.46005 -2.90279 0
M  V30 8947 H 830.886 0.8622 -3.78402 0
M  V30 8948 H 828.987 2.87895 -2.36532 0
M  V30 8949 H 829.1 2.35151 -4.17422 0
M  V30 8950 H 827.464 1.33352 -2.17001 0
M  V30 8951 H 828.247 0.229936 -3.42529 0
M  V30 8952 N 830.692 1.47107 0.565454 0
M  V30 8953 C 831.969 1.43787 1.32607 0
M  V30 8954 C 832.349 0.130428 2.10697 0
M  V30 8955 O 831.697 -0.888086 2.10536 0
M  V30 8956 C 831.907 2.67833 2.23755 0
M  V30 8957 C 833.255 3.14704 2.85037 0
M  V30 8958 O 834.279 2.68503 2.34061 0
M  V30 8959 O 833.138 3.95002 3.77671 0
M  V30 8960 H 830.232 0.572623 0.596684 0
M  V30 8961 H 832.778 1.59296 0.58504 0
M  V30 8962 H 831.55 3.54532 1.65597 0
M  V30 8963 H 831.173 2.54869 3.05168 0
M  V30 8964 N 832.17 -0.811516 1.35101 0
M  V30 8965 C 833.08 -1.95475 1.29718 0
M  V30 8966 C 834.096 -1.72813 0.202909 0
M  V30 8967 O 835.272 -1.96725 0.431414 0
M  V30 8968 C 832.337 -3.29975 1.06385 0
M  V30 8969 C 831.398 -3.65566 2.25077 0
M  V30 8970 C 830.631 -4.93648 2.02848 0
M  V30 8971 O 830.854 -5.617 0.992442 0
M  V30 8972 O 829.788 -5.27384 2.90087 0
M  V30 8973 H 833.614 -2.02961 2.25921 0
M  V30 8974 H 831.199 -0.948583 1.15422 0
M  V30 8975 H 833.081 -4.10506 0.951999 0
M  V30 8976 H 831.756 -3.2343 0.132294 0
M  V30 8977 H 830.663 -2.85432 2.41825 0
M  V30 8978 H 831.996 -3.7681 3.16662 0
M  V30 8979 N 833.648 -1.19017 -1.03309 0
M  V30 8980 C 834.578 -0.94772 -2.13402 0
M  V30 8981 C 835.559 0.117383 -1.69694 0
M  V30 8982 O 836.744 -0.0367733 -1.94165 0
M  V30 8983 C 833.874 -0.480977 -3.43953 0
M  V30 8984 C 832.828 -1.48743 -4.01322 0
M  V30 8985 C 832.154 -0.877924 -5.27443 0
M  V30 8986 C 833.454 -2.86642 -4.36616 0
M  V30 8987 H 835.148 -1.86846 -2.33942 0
M  V30 8988 H 832.694 -0.899781 -1.12427 0
M  V30 8989 H 834.647 -0.298677 -4.2034 0
M  V30 8990 H 833.371 0.475348 -3.23122 0
M  V30 8991 H 832.03 -1.65681 -3.27025 0
M  V30 8992 H 831.678 0.0858232 -5.02927 0
M  V30 8993 H 831.378 -1.54996 -5.66789 0
M  V30 8994 H 832.902 -0.706326 -6.06501 0
M  V30 8995 H 834.316 -2.73312 -5.03958 0
M  V30 8996 H 832.713 -3.50599 -4.87032 0
M  V30 8997 H 833.783 -3.39617 -3.46105 0
M  V30 8998 N 835.127 1.22348 -0.993418 0
M  V30 8999 C 836.543 1.43222 -0.704238 0
M  V30 9000 C 836.743 1.88009 0.724909 0
M  V30 9001 O 835.799 2.03429 1.49575 0
M  V30 9002 C 837.112 2.47328 -1.71025 0
M  V30 9003 C 838.66 2.61126 -1.72576 0
M  V30 9004 C 839.135 3.68453 -2.72041 0
M  V30 9005 N 840.626 3.75911 -2.70639 0
M  V30 9006 C 841.361 4.58551 -3.44266 0
M  V30 9007 N 840.857 5.45179 -4.27495 0
M  V30 9008 N 842.65 4.52866 -3.32969 0
M  V30 9009 H 834.801 0.915832 -1.91641 0
M  V30 9010 H 837.064 0.464283 -0.826526 0
M  V30 9011 H 836.77 2.21366 -2.73295 0
M  V30 9012 H 836.644 3.45939 -1.50353 0
M  V30 9013 H 839.031 2.86431 -0.710037 0
M  V30 9014 H 839.112 1.62787 -1.97317 0
M  V30 9015 H 838.756 3.43895 -3.73763 0
M  V30 9016 H 838.686 4.66362 -2.4457 0
M  V30 9017 H 841.177 3.14014 -2.10247 0
M  V30 9018 H 841.49 6.0526 -4.80499 0
M  V30 9019 H 839.835 5.44759 -4.31582 0
M  V30 9020 H 843.026 3.84215 -2.67389 0
M  V30 9021 H 843.199 5.17039 -3.90608 0
M  V30 9022 N 836.605 0.766683 1.37694 0
M  V30 9023 C 837.568 0.155849 2.2867 0
M  V30 9024 C 838.568 -0.633509 1.47795 0
M  V30 9025 O 839.758 -0.457844 1.68076 0
M  V30 9026 C 836.89 -0.786965 3.31692 0
M  V30 9027 H 838.083 0.957748 2.84196 0
M  V30 9028 H 835.636 0.534554 1.46875 0
M  V30 9029 H 836.371 -1.61406 2.8128 0
M  V30 9030 H 836.156 -0.223182 3.91464 0
M  V30 9031 H 837.646 -1.20994 3.99688 0
M  V30 9032 N 838.083 -1.48885 0.516809 0
M  V30 9033 C 839.36 -1.95412 -0.0858293 0
M  V30 9034 C 839.74 -1.45875 -1.5259 0
M  V30 9035 O 839.088 -0.679415 -2.18166 0
M  V30 9036 C 839.298 -3.48995 0.0178194 0
M  V30 9037 C 840.646 -4.24342 -0.14813 0
M  V30 9038 O 841.67 -3.56155 -0.0566125 0
M  V30 9039 O 840.529 -5.45454 -0.338035 0
M  V30 9040 H 837.623 -0.822455 -0.0865884 0
M  V30 9041 H 840.169 -1.59464 0.580472 0
M  V30 9042 H 838.941 -3.77732 1.02147 0
M  V30 9043 H 838.564 -3.91604 -0.687924 0
M  V30 9044 N 839.561 -0.251338 -1.55583 0
M  V30 9045 C 840.81 0.372681 -1.98227 0
M  V30 9046 C 841.123 1.58743 -1.1428 0
M  V30 9047 O 842.329 2.28289 -1.46957 0
M  V30 9048 C 840.785 0.714439 -3.52738 0
M  V30 9049 C 840.393 -0.479168 -4.4543 0
M  V30 9050 C 842.137 1.3024 -4.04027 0
M  V30 9051 C 840.044 -0.113318 -5.91291 0
M  V30 9052 H 838.974 0.14302 -0.740312 0
M  V30 9053 H 841.625 -0.352253 -1.80087 0
M  V30 9054 H 840.007 1.49762 -3.66589 0
M  V30 9055 H 841.181 -1.25644 -4.4334 0
M  V30 9056 H 839.496 -0.982359 -4.04646 0
M  V30 9057 H 842.093 1.58953 -5.10527 0
M  V30 9058 H 842.436 2.22837 -3.51638 0
M  V30 9059 H 842.969 0.582024 -3.93519 0
M  V30 9060 H 839.708 -1.00654 -6.47726 0
M  V30 9061 H 839.228 0.627666 -5.96507 0
M  V30 9062 H 840.907 0.30293 -6.4629 0
M  V30 9063 N 841.039 1.57585 0.0217189 0
M  V30 9064 C 842.002 2.06004 1.00474 0
M  V30 9065 C 843.002 0.965461 1.2859 0
M  V30 9066 O 844.192 1.22884 1.23471 0
M  V30 9067 C 841.324 2.48319 2.33561 0
M  V30 9068 H 842.517 2.94112 0.586346 0
M  V30 9069 H 840.07 1.53973 0.268716 0
M  V30 9070 H 840.805 1.63389 2.80133 0
M  V30 9071 H 840.59 3.28239 2.1448 0
M  V30 9072 H 842.08 2.86181 3.04122 0
M  V30 9073 N 842.517 -0.29412 1.54831 0
M  V30 9074 C 843.45 -1.38779 1.81151 0
M  V30 9075 C 844.428 -1.48464 0.663124 0
M  V30 9076 O 845.612 -1.65418 0.903835 0
M  V30 9077 C 842.739 -2.76627 1.95436 0
M  V30 9078 C 841.785 -2.84333 3.17895 0
M  V30 9079 S 842.618 -2.45726 4.75793 0
M  V30 9080 C 843.774 -3.85589 4.93023 0
M  V30 9081 H 844.007 -1.16246 2.73631 0
M  V30 9082 H 841.54 -0.492611 1.46331 0
M  V30 9083 H 843.498 -3.56021 2.04351 0
M  V30 9084 H 842.159 -2.96425 1.03881 0
M  V30 9085 H 841.352 -3.85457 3.24713 0
M  V30 9086 H 840.954 -2.1294 3.07461 0
M  V30 9087 H 843.246 -4.80656 4.77468 0
M  V30 9088 H 844.189 -3.83737 5.95107 0
M  V30 9089 H 844.597 -3.75911 4.21131 0
M  V30 9090 N 843.995 -1.47404 -0.557645 0
M  V30 9091 C 844.945 -1.56267 -1.66026 0
M  V30 9092 C 845.929 -0.42161 -1.55278 0
M  V30 9093 O 847.121 -0.671505 -1.63768 0
M  V30 9094 C 844.25 -1.57958 -3.04802 0
M  V30 9095 C 843.336 -2.77447 -3.20755 0
M  V30 9096 N 843.727 -4.02148 -3.06775 0
M  V30 9097 C 842.025 -2.74199 -3.51754 0
M  V30 9098 C 842.726 -4.82168 -3.25406 0
M  V30 9099 N 841.702 -4.14481 -3.5172 0
M  V30 9100 H 845.504 -2.50454 -1.53785 0
M  V30 9101 H 843.018 -1.43392 -0.762388 0
M  V30 9102 H 845.015 -1.62397 -3.8397 0
M  V30 9103 H 843.675 -0.648667 -3.18155 0
M  V30 9104 H 844.686 -4.33014 -2.84111 0
M  V30 9105 H 841.363 -1.90243 -3.71637 0
M  V30 9106 H 842.753 -5.91037 -3.19569 0
M  V30 9107 N 845.473 0.80434 -1.35529 0
M  V30 9108 C 846.403 1.93086 -1.31301 0
M  V30 9109 C 847.384 1.69068 -0.187044 0
M  V30 9110 O 848.569 1.90399 -0.382359 0
M  V30 9111 C 845.699 3.29867 -1.0865 0
M  V30 9112 C 844.653 3.68373 -2.17911 0
M  V30 9113 C 843.979 5.0334 -1.80423 0
M  V30 9114 C 845.279 3.78516 -3.59893 0
M  V30 9115 H 846.973 1.96882 -2.25561 0
M  V30 9116 H 844.519 0.945841 -1.08581 0
M  V30 9117 H 846.472 4.08281 -1.04331 0
M  V30 9118 H 845.196 3.2642 -0.108359 0
M  V30 9119 H 843.855 2.92247 -2.21331 0
M  V30 9120 H 843.503 4.96399 -0.812213 0
M  V30 9121 H 843.203 5.30074 -2.53565 0
M  V30 9122 H 844.727 5.84191 -1.77633 0
M  V30 9123 H 846.141 4.47155 -3.58783 0
M  V30 9124 H 844.538 4.16721 -4.31814 0
M  V30 9125 H 845.608 2.8001 -3.95882 0
M  V30 9126 N 846.951 1.19563 1.02676 0
M  V30 9127 C 847.901 0.903055 2.09354 0
M  V30 9128 C 848.885 -0.133009 1.60349 0
M  V30 9129 O 850.077 0.0729744 1.7685 0
M  V30 9130 C 847.206 0.445852 3.40392 0
M  V30 9131 C 846.292 1.51477 3.96126 0
M  V30 9132 N 846.683 2.73474 4.25495 0
M  V30 9133 C 844.981 1.37856 4.2416 0
M  V30 9134 C 845.682 3.42348 4.7029 0
M  V30 9135 N 844.658 2.69746 4.71952 0
M  V30 9136 H 848.46 1.83023 2.29956 0
M  V30 9137 H 845.974 1.08812 1.20556 0
M  V30 9138 H 847.971 0.21769 4.16331 0
M  V30 9139 H 846.631 -0.47482 3.2121 0
M  V30 9140 H 847.642 3.10217 4.14711 0
M  V30 9141 H 844.319 0.521512 4.1423 0
M  V30 9142 H 845.709 4.46686 5.01917 0
M  V30 9143 N 848.429 -1.21819 0.999893 0
M  V30 9144 C 849.376 -2.24003 0.556005 0
M  V30 9145 C 850.346 -1.60825 -0.415287 0
M  V30 9146 O 851.531 -1.88123 -0.318481 0
M  V30 9147 C 848.671 -3.44904 -0.116289 0
M  V30 9148 C 847.784 -4.22573 0.897574 0
M  V30 9149 C 846.919 -5.30831 0.198073 0
M  V30 9150 C 845.958 -6.00225 1.19983 0
M  V30 9151 N 845.095 -7.00111 0.528157 0
M  V30 9152 H 849.935 -2.61334 1.43208 0
M  V30 9153 H 847.472 -1.28431 0.717205 0
M  V30 9154 H 849.43 -4.13908 -0.523055 0
M  V30 9155 H 848.06 -3.08315 -0.956108 0
M  V30 9156 H 847.112 -3.52797 1.42262 0
M  V30 9157 H 848.424 -4.70363 1.66013 0
M  V30 9158 H 847.578 -6.06121 -0.265065 0
M  V30 9159 H 846.317 -4.84033 -0.596924 0
M  V30 9160 H 845.322 -5.23711 1.67353 0
M  V30 9161 H 846.547 -6.4911 1.99582 0
M  V30 9162 H 844.493 -6.55534 -0.247276 0
M  V30 9163 H 844.41 -7.45943 1.22904 0
M  V30 9164 H 845.678 -7.7945 0.0880543 0
M  V30 9165 N 849.908 -0.773975 -1.37286 0
M  V30 9166 C 850.818 -0.162571 -2.34036 0
M  V30 9167 C 851.834 0.677022 -1.60289 0
M  V30 9168 O 853.01 0.596423 -1.92366 0
M  V30 9169 C 850.075 0.70457 -3.39465 0
M  V30 9170 C 849.136 -0.151738 -4.29032 0
M  V30 9171 C 848.369 0.674111 -5.29426 0
M  V30 9172 O 848.592 1.91107 -5.37433 0
M  V30 9173 O 847.526 0.0821398 -6.01844 0
M  V30 9174 H 851.352 -0.962119 -2.88057 0
M  V30 9175 H 848.937 -0.53517 -1.39486 0
M  V30 9176 H 850.819 1.19954 -4.03967 0
M  V30 9177 H 849.494 1.48227 -2.87768 0
M  V30 9178 H 848.401 -0.693118 -3.67623 0
M  V30 9179 H 849.734 -0.892575 -4.84039 0
M  V30 9180 N 851.386 1.48609 -0.524698 0
M  V30 9181 C 852.632 2.02797 0.0113382 0
M  V30 9182 C 852.965 1.40147 1.34433 0
M  V30 9183 O 852.24 0.545368 1.86698 0
M  V30 9184 C 852.523 3.59832 0.138931 0
M  V30 9185 C 852.376 4.32971 -1.21886 0
M  V30 9186 C 853.695 4.3145 0.868265 0
M  V30 9187 H 850.814 0.736995 0.00264645 0
M  V30 9188 H 853.456 1.77388 -0.680704 0
M  V30 9189 H 851.606 3.81612 0.72834 0
M  V30 9190 H 853.278 4.22624 -1.84897 0
M  V30 9191 H 851.521 3.94597 -1.80211 0
M  V30 9192 H 852.192 5.41279 -1.08263 0
M  V30 9193 H 854.668 4.14468 0.368145 0
M  V30 9194 H 853.544 5.41025 0.926428 0
M  V30 9195 H 853.805 3.98358 1.91737 0
M  V30 9196 N 852.864 0.259585 1.55447 0
M  V30 9197 C 853.794 -0.62852 2.24882 0
M  V30 9198 C 854.775 -1.17128 1.23349 0
M  V30 9199 O 855.96 -1.20829 1.52033 0
M  V30 9200 C 853.09 -1.81983 2.95803 0
M  V30 9201 C 852.044 -1.40929 4.04132 0
M  V30 9202 C 851.37 -2.68246 4.62545 0
M  V30 9203 C 852.67 -0.570956 5.1917 0
M  V30 9204 H 854.364 -0.0495021 2.99359 0
M  V30 9205 H 851.91 -0.0223688 1.43983 0
M  V30 9206 H 853.863 -2.44689 3.43082 0
M  V30 9207 H 852.587 -2.42444 2.18835 0
M  V30 9208 H 851.246 -0.805519 3.57641 0
M  V30 9209 H 850.894 -3.26931 3.82263 0
M  V30 9210 H 850.594 -2.41495 5.35681 0
M  V30 9211 H 852.118 -3.31827 5.12565 0
M  V30 9212 H 853.532 -1.10262 5.62597 0
M  V30 9213 H 851.929 -0.398979 5.98772 0
M  V30 9214 H 852.999 0.413918 4.8313 0
M  V30 9215 N 854.342 -1.57594 -0.0133615 0
M  V30 9216 C 855.274 -2.04402 -1.03695 0
M  V30 9217 C 856.287 -0.959546 -1.31516 0
M  V30 9218 O 857.476 -1.23659 -1.28727 0
M  V30 9219 C 854.576 -2.41766 -2.37491 0
M  V30 9220 C 853.749 -3.72785 -2.28802 0
M  V30 9221 C 852.808 -3.97165 -3.45176 0
M  V30 9222 O 851.834 -4.68013 -3.23963 0
M  V30 9223 N 853.036 -3.44021 -4.67579 0
M  V30 9224 H 855.801 -2.92833 -0.637874 0
M  V30 9225 H 853.362 -1.60647 -0.20101 0
M  V30 9226 H 855.354 -2.55201 -3.14093 0
M  V30 9227 H 853.924 -1.58924 -2.69188 0
M  V30 9228 H 853.144 -3.69555 -1.37197 0
M  V30 9229 H 854.432 -4.58704 -2.20154 0
M  V30 9230 H 853.83 -2.86623 -4.87713 0
M  V30 9231 H 852.387 -3.62808 -5.41492 0
M  V30 9232 N 855.82 0.285905 -1.54985 0
M  V30 9233 C 856.75 1.35752 -1.89983 0
M  V30 9234 C 857.731 1.52163 -0.760295 0
M  V30 9235 O 858.916 1.65421 -1.01733 0
M  V30 9236 C 856.046 2.71925 -2.16042 0
M  V30 9237 C 855 2.70261 -3.31878 0
M  V30 9238 C 854.326 4.09864 -3.43388 0
M  V30 9239 C 855.626 2.30667 -4.68604 0
M  V30 9240 H 857.32 1.06709 -2.79738 0
M  V30 9241 H 854.866 0.511884 -1.34595 0
M  V30 9242 H 856.819 3.46992 -2.39113 0
M  V30 9243 H 855.543 3.02523 -1.23074 0
M  V30 9244 H 854.202 1.97651 -3.08755 0
M  V30 9245 H 853.85 4.37664 -2.47909 0
M  V30 9246 H 853.55 4.09648 -4.21262 0
M  V30 9247 H 855.074 4.86689 -3.68736 0
M  V30 9248 H 856.488 2.95453 -4.91305 0
M  V30 9249 H 854.885 2.41637 -5.49301 0
M  V30 9250 H 855.955 1.25793 -4.68299 0
M  V30 9251 N 857.298 1.47698 0.54982 0
M  V30 9252 C 858.709 1.48474 1.13191 0
M  V30 9253 C 859.06 0.243504 1.94683 0
M  V30 9254 O 858.185 -0.651009 2.06375 0
M  V30 9255 C 858.78 2.69022 2.05944 0
M  V30 9256 C 857.339 2.72733 2.5941 0
M  V30 9257 C 856.486 2.41691 1.35944 0
M  V30 9258 H 859.437 1.55101 0.336048 0
M  V30 9259 H 859.458 2.46412 2.89934 0
M  V30 9260 H 858.97 3.59345 1.46605 0
M  V30 9261 H 857.071 1.86568 3.22526 0
M  V30 9262 H 857.184 3.73628 2.99899 0
M  V30 9263 H 855.548 1.92428 1.66864 0
M  V30 9264 H 856.331 3.34231 0.783869 0
M  V30 9265 N 858.776 -0.797141 1.35954 0
M  V30 9266 C 859.706 -1.92387 1.32323 0
M  V30 9267 C 860.687 -1.68967 0.196007 0
M  V30 9268 O 861.872 -1.90193 0.39245 0
M  V30 9269 C 859.002 -3.29286 1.10398 0
M  V30 9270 C 857.956 -3.67212 2.19862 0
M  V30 9271 C 857.282 -5.02377 1.8309 0
M  V30 9272 C 858.582 -3.76602 3.61896 0
M  V30 9273 H 860.276 -1.95683 2.26602 0
M  V30 9274 H 857.822 -0.94007 1.09081 0
M  V30 9275 H 859.775 -4.07721 1.06495 0
M  V30 9276 H 858.499 -3.26358 0.125668 0
M  V30 9277 H 857.158 -2.91069 2.22878 0
M  V30 9278 H 856.806 -4.95961 0.838527 0
M  V30 9279 H 856.506 -5.28722 2.56372 0
M  V30 9280 H 858.03 -5.8324 1.80729 0
M  V30 9281 H 859.444 -4.45246 3.6115 0
M  V30 9282 H 857.841 -4.14425 4.34018 0
M  V30 9283 H 858.911 -2.77906 3.97361 0
M  V30 9284 N 860.254 -1.20106 -1.0204 0
M  V30 9285 C 861.501 -1.00889 -1.75578 0
M  V30 9286 C 861.829 0.459415 -1.88996 0
M  V30 9287 O 861.084 1.35735 -1.40977 0
M  V30 9288 C 861.383 -1.63308 -3.17908 0
M  V30 9289 C 861.049 -3.13091 -3.24476 0
M  V30 9290 C 859.711 -3.53968 -3.25976 0
M  V30 9291 C 862.063 -4.09093 -3.22944 0
M  V30 9292 C 859.391 -4.89381 -3.2361 0
M  V30 9293 C 861.743 -5.44447 -3.22119 0
M  V30 9294 C 860.407 -5.84742 -3.2192 0
M  V30 9295 H 859.677 -0.36918 -0.642485 0
M  V30 9296 H 862.324 -1.49475 -1.19706 0
M  V30 9297 H 860.629 -1.06974 -3.76914 0
M  V30 9298 H 862.326 -1.45958 -3.73493 0
M  V30 9299 H 858.916 -2.80526 -3.24042 0
M  V30 9300 H 863.1 -3.78549 -3.20958 0
M  V30 9301 H 858.356 -5.1987 -3.21785 0
M  V30 9302 H 862.53 -6.18584 -3.19885 0
M  V30 9303 H 860.157 -6.89642 -3.19841 0
M  V30 9304 N 861.732 1.21287 -1.00634 0
M  V30 9305 C 862.642 2.27388 -0.577226 0
M  V30 9306 C 863.658 1.69791 0.380399 0
M  V30 9307 O 864.834 1.99918 0.2439 0
M  V30 9308 C 861.899 3.46588 0.0880532 0
M  V30 9309 C 860.96 4.19453 -0.914222 0
M  V30 9310 C 860.193 5.32962 -0.280596 0
M  V30 9311 O 860.416 5.62895 0.922265 0
M  V30 9312 O 859.35 5.93666 -0.992196 0
M  V30 9313 H 863.176 2.66289 -1.46028 0
M  V30 9314 H 860.761 1.2771 -0.775283 0
M  V30 9315 H 862.643 4.18881 0.460094 0
M  V30 9316 H 861.318 3.09585 0.945461 0
M  V30 9317 H 860.225 3.49376 -1.33744 0
M  V30 9318 H 861.558 4.6037 -1.74126 0
M  V30 9319 N 863.21 0.781244 1.36873 0
M  V30 9320 C 864.173 0.180094 2.28491 0
M  V30 9321 C 865.173 -0.617798 1.48458 0
M  V30 9322 O 866.363 -0.439991 1.68552 0
M  V30 9323 C 863.495 -0.751741 3.32508 0
M  V30 9324 H 864.688 0.987837 2.83164 0
M  V30 9325 H 862.241 0.550102 1.463 0
M  V30 9326 H 862.976 -1.58413 2.82977 0
M  V30 9327 H 862.761 -0.181649 3.91679 0
M  V30 9328 H 864.251 -1.16748 4.00949 0
M  V30 9329 N 864.689 -1.48329 0.532571 0
M  V30 9330 C 865.652 -2.2816 -0.218069 0
M  V30 9331 C 866.652 -1.35526 -0.865409 0
M  V30 9332 O 867.842 -1.58394 -0.725061 0
M  V30 9333 C 864.974 -3.1448 -1.31586 0
M  V30 9334 H 866.167 -2.95987 0.482865 0
M  V30 9335 H 863.72 -1.53612 0.288603 0
M  V30 9336 H 864.455 -2.5129 -2.04997 0
M  V30 9337 H 864.24 -3.82625 -0.856779 0
M  V30 9338 H 865.73 -3.74693 -1.84377 0
M  V30 9339 N 866.167 -0.267825 -1.55308 0
M  V30 9340 C 867.392 0.357487 -2.04296 0
M  V30 9341 C 867.817 1.49222 -1.14518 0
M  V30 9342 O 867.175 1.80741 -0.142292 0
M  V30 9343 C 867.223 0.822899 -3.51085 0
M  V30 9344 O 866.327 1.93078 -3.6441 0
M  V30 9345 H 865.668 0.075025 -0.659748 0
M  V30 9346 H 868.198 -0.399996 -2.00652 0
M  V30 9347 H 868.208 1.12059 -3.92309 0
M  V30 9348 H 866.883 -0.0073562 -4.15899 0
M  V30 9349 H 865.46 1.63618 -3.35087 0
M  V30 9350 N 867.645 1.57599 0.00500368 0
M  V30 9351 C 869.061 1.55463 0.361015 0
M  V30 9352 C 869.261 0.997051 1.75103 0
M  V30 9353 O 868.317 0.628661 2.44549 0
M  V30 9354 C 869.63 2.99734 0.240828 0
M  V30 9355 C 871.178 3.11399 0.316138 0
M  V30 9356 C 871.653 4.57446 0.22513 0
M  V30 9357 N 873.144 4.62334 0.283186 0
M  V30 9358 C 873.879 5.72914 0.23603 0
M  V30 9359 N 873.375 6.92659 0.139762 0
M  V30 9360 N 875.168 5.61364 0.287529 0
M  V30 9361 H 867.319 1.92185 -0.904359 0
M  V30 9362 H 869.582 0.882529 -0.34619 0
M  V30 9363 H 869.288 3.44348 -0.715343 0
M  V30 9364 H 869.162 3.63009 1.02491 0
M  V30 9365 H 871.549 2.66718 1.26275 0
M  V30 9366 H 871.63 2.50911 -0.497725 0
M  V30 9367 H 871.274 5.02801 -0.717917 0
M  V30 9368 H 871.204 5.15874 1.05742 0
M  V30 9369 H 873.695 3.7619 0.359123 0
M  V30 9370 H 874.008 7.72722 0.10954 0
M  V30 9371 H 872.353 6.9492 0.105462 0
M  V30 9372 H 875.544 4.66707 0.360897 0
M  V30 9373 H 875.717 6.47528 0.247313 0
M  V30 9374 N 869.123 -0.277682 1.55134 0
M  V30 9375 C 870.371 -1.00791 1.75173 0
M  V30 9376 C 870.692 -1.86987 0.553266 0
M  V30 9377 O 869.962 -1.91079 -0.43195 0
M  V30 9378 H 868.542 -0.375129 0.645978 0
M  V30 9379 H 871.204 -0.303041 1.9253 0
M  V30 9380 H 870.3 -1.64756 2.6507 0
M  V30 9381 N 870.601 -1.47988 -0.541979 0
M  V30 9382 C 871.841 -1.56982 -1.30905 0
M  V30 9383 C 872.205 -0.233153 -1.90579 0
M  V30 9384 O 873.406 -0.198018 -2.6807 0
M  V30 9385 C 871.677 -2.66787 -2.37823 0
M  V30 9386 S 873.236 -2.95467 -3.24414 0
M  V30 9387 H 870.054 -0.554165 -0.445446 0
M  V30 9388 H 872.656 -1.85448 -0.618803 0
M  V30 9389 H 871.36 -3.62483 -1.92443 0
M  V30 9390 H 870.891 -2.40184 -3.11569 0
M  V30 9391 H 872.906 -2.33846 -4.37642 0
M  V30 9392 N 872.079 0.78992 -1.36375 0
M  V30 9393 C 873.009 1.91683 -1.33341 0
M  V30 9394 C 873.99 1.68861 -0.204965 0
M  V30 9395 O 875.175 1.89982 -0.402531 0
M  V30 9396 C 872.305 3.28696 -1.12143 0
M  V30 9397 C 871.259 3.66041 -2.21806 0
M  V30 9398 C 870.585 5.01399 -1.85751 0
M  V30 9399 C 871.885 3.74677 -3.63888 0
M  V30 9400 H 873.579 1.94478 -2.27637 0
M  V30 9401 H 871.125 0.934271 -1.09578 0
M  V30 9402 H 873.078 4.07151 -1.08656 0
M  V30 9403 H 871.802 3.26287 -0.142974 0
M  V30 9404 H 870.461 2.89883 -2.24418 0
M  V30 9405 H 870.109 4.9551 -0.864817 0
M  V30 9406 H 869.809 5.27355 -2.59173 0
M  V30 9407 H 871.333 5.82274 -1.83819 0
M  V30 9408 H 872.747 4.43324 -3.63506 0
M  V30 9409 H 871.144 4.12118 -4.3621 0
M  V30 9410 H 872.214 2.75795 -3.9883 0
M  V30 9411 N 873.557 1.20646 1.01402 0
M  V30 9412 C 874.973 0.961866 1.27359 0
M  V30 9413 C 875.173 -0.357083 1.98311 0
M  V30 9414 O 874.229 -1.08498 2.28001 0
M  V30 9415 C 875.542 2.14627 2.10609 0
M  V30 9416 C 877.09 2.18753 2.23866 0
M  V30 9417 C 877.565 3.36686 3.10494 0
M  V30 9418 N 879.056 3.36716 3.18083 0
M  V30 9419 C 879.791 4.24615 3.85343 0
M  V30 9420 N 879.287 5.22697 4.54708 0
M  V30 9421 N 881.08 4.12449 3.81893 0
M  V30 9422 H 873.231 2.05481 0.537721 0
M  V30 9423 H 875.494 0.899292 0.299963 0
M  V30 9424 H 875.2 3.10159 1.65814 0
M  V30 9425 H 875.074 2.12935 3.11349 0
M  V30 9426 H 877.461 1.23782 2.67885 0
M  V30 9427 H 877.542 2.24492 1.22626 0
M  V30 9428 H 877.186 4.31945 2.67181 0
M  V30 9429 H 877.116 3.28185 4.11828 0
M  V30 9430 H 879.607 2.65728 2.68695 0
M  V30 9431 H 879.92 5.86087 5.03708 0
M  V30 9432 H 878.265 5.26631 4.53525 0
M  V30 9433 H 881.456 3.35091 3.26851 0
M  V30 9434 H 881.629 4.81162 4.34035 0
M  V30 9435 N 875.035 -1.20752 1.01276 0
M  V30 9436 C 875.998 -2.2162 0.584583 0
M  V30 9437 C 876.998 -1.57094 -0.343215 0
M  V30 9438 O 878.188 -1.73696 -0.132433 0
M  V30 9439 C 875.32 -3.40583 -0.146872 0
M  V30 9440 H 876.513 -2.61015 1.47686 0
M  V30 9441 H 874.066 -1.34148 0.802123 0
M  V30 9442 H 874.801 -3.06686 -1.05424 0
M  V30 9443 H 874.586 -3.88642 0.51958 0
M  V30 9444 H 876.076 -4.15339 -0.433924 0
M  V30 9445 N 876.513 -0.788492 -1.36457 0
M  V30 9446 C 877.443 -0.200468 -2.32638 0
M  V30 9447 C 878.424 0.664031 -1.56603 0
M  V30 9448 O 879.609 0.598045 -1.84762 0
M  V30 9449 C 876.739 0.666274 -3.40849 0
M  V30 9450 C 875.693 -0.0982574 -4.27887 0
M  V30 9451 C 875.019 0.889018 -5.27258 0
M  V30 9452 C 876.319 -1.28692 -5.06197 0
M  V30 9453 H 878.013 -1.00399 -2.82065 0
M  V30 9454 H 875.559 -0.484237 -1.35614 0
M  V30 9455 H 877.512 1.08757 -4.07124 0
M  V30 9456 H 876.236 1.50249 -2.89987 0
M  V30 9457 H 874.895 -0.500525 -3.63167 0
M  V30 9458 H 874.543 1.72024 -4.7267 0
M  V30 9459 H 874.243 0.381909 -5.86358 0
M  V30 9460 H 875.767 1.30891 -5.96406 0
M  V30 9461 H 877.181 -0.941429 -5.65517 0
M  V30 9462 H 875.578 -1.72726 -5.74705 0
M  V30 9463 H 876.648 -2.08273 -4.37893 0
M  V30 9464 N 877.991 1.48044 -0.54043 0
M  V30 9465 C 879.216 2.07396 -0.0124765 0
M  V30 9466 C 879.641 1.39288 1.26414 0
M  V30 9467 O 878.999 0.462252 1.75308 0
M  V30 9468 C 879.047 3.60131 0.18377 0
M  V30 9469 O 878.151 3.92995 1.25014 0
M  V30 9470 H 877.492 0.662554 -0.0438026 0
M  V30 9471 H 880.022 1.90306 -0.751327 0
M  V30 9472 H 880.032 4.06003 0.403197 0
M  V30 9473 H 878.707 4.09105 -0.74874 0
M  V30 9474 H 877.284 3.5889 1.01254 0
M  V30 9475 N 879.47 0.276058 1.55163 0
M  V30 9476 C 880.4 -0.604633 2.25536 0
M  V30 9477 C 881.381 -1.15813 1.24585 0
M  V30 9478 O 882.566 -1.1921 1.53306 0
M  V30 9479 C 879.696 -1.78836 2.97716 0
M  V30 9480 C 878.65 -1.36635 4.05604 0
M  V30 9481 C 877.976 -2.63325 4.65364 0
M  V30 9482 C 879.276 -0.515858 5.19746 0
M  V30 9483 H 880.97 -0.0177483 2.99395 0
M  V30 9484 H 878.516 -0.00709627 1.43998 0
M  V30 9485 H 880.469 -2.41036 3.45658 0
M  V30 9486 H 879.193 -2.40109 2.21394 0
M  V30 9487 H 877.852 -0.767541 3.58475 0
M  V30 9488 H 877.5 -3.22858 3.85709 0
M  V30 9489 H 877.2 -2.358 5.38212 0
M  V30 9490 H 878.724 -3.26372 5.16056 0
M  V30 9491 H 880.138 -1.04289 5.63735 0
M  V30 9492 H 878.535 -0.335449 5.99162 0
M  V30 9493 H 879.605 0.465137 4.82664 0
M  V30 9494 N 880.948 -1.576 0.00335426 0
M  V30 9495 C 881.911 -2.07576 -0.971838 0
M  V30 9496 C 882.911 -0.985796 -1.27038 0
M  V30 9497 O 884.101 -1.24833 -1.21501 0
M  V30 9498 C 881.233 -2.52003 -2.29581 0
M  V30 9499 H 882.426 -2.95008 -0.539481 0
M  V30 9500 H 879.979 -1.54381 -0.244186 0
M  V30 9501 H 880.714 -1.67825 -2.77498 0
M  V30 9502 H 880.499 -3.31609 -2.09231 0
M  V30 9503 H 881.989 -2.90983 -2.99531 0
M  V30 9504 N 882.426 0.269451 -1.5528 0
M  V30 9505 C 883.356 1.33729 -1.91413 0
M  V30 9506 C 884.337 1.51348 -0.776391 0
M  V30 9507 O 885.522 1.64332 -1.03482 0
M  V30 9508 C 882.652 2.69618 -2.18914 0
M  V30 9509 C 881.606 2.66725 -3.34726 0
M  V30 9510 C 880.932 4.06199 -3.47716 0
M  V30 9511 C 882.232 2.25684 -4.71025 0
M  V30 9512 H 883.926 1.03736 -2.80854 0
M  V30 9513 H 881.472 0.497579 -1.3513 0
M  V30 9514 H 883.425 3.44436 -2.42779 0
M  V30 9515 H 882.149 3.01201 -1.26275 0
M  V30 9516 H 880.808 1.94365 -3.10834 0
M  V30 9517 H 880.456 4.3501 -2.52537 0
M  V30 9518 H 880.156 4.05157 -4.25583 0
M  V30 9519 H 881.68 4.8275 -3.73877 0
M  V30 9520 H 883.094 2.90225 -4.94411 0
M  V30 9521 H 881.491 2.35797 -5.51833 0
M  V30 9522 H 882.561 1.20819 -4.69607 0
M  V30 9523 N 883.904 1.48273 0.534124 0
M  V30 9524 C 885.32 1.34302 0.862272 0
M  V30 9525 C 885.52 0.350902 1.98421 0
M  V30 9526 O 884.576 -0.229364 2.51456 0
M  V30 9527 C 885.889 2.74227 1.23371 0
M  V30 9528 C 887.437 2.82684 1.34383 0
M  V30 9529 C 887.912 4.23301 1.74871 0
M  V30 9530 N 889.403 4.25954 1.81981 0
M  V30 9531 C 890.138 5.31693 2.14686 0
M  V30 9532 N 889.634 6.47714 2.45844 0
M  V30 9533 N 891.427 5.19084 2.15657 0
M  V30 9534 H 883.578 2.11397 -0.206215 0
M  V30 9535 H 885.841 0.947537 -0.0296116 0
M  V30 9536 H 885.547 3.48368 0.482967 0
M  V30 9537 H 885.421 3.07485 2.18478 0
M  V30 9538 H 887.808 2.08801 2.08534 0
M  V30 9539 H 887.889 2.5305 0.374063 0
M  V30 9540 H 887.533 4.97699 1.01282 0
M  V30 9541 H 887.463 4.50376 2.7289 0
M  V30 9542 H 889.954 3.42266 1.60196 0
M  V30 9543 H 890.267 7.2414 2.69892 0
M  V30 9544 H 888.612 6.50995 2.43372 0
M  V30 9545 H 891.803 4.27463 1.9077 0
M  V30 9546 H 891.976 6.01592 2.40813 0
M  V30 9547 N 885.382 -0.782676 1.36792 0
M  V30 9548 C 886.793 -1.35828 1.28092 0
M  V30 9549 C 887.144 -1.96052 -0.076315 0
M  V30 9550 O 886.269 -1.93042 -0.977935 0
M  V30 9551 C 886.864 -2.46949 2.31952 0
M  V30 9552 C 885.423 -3.00307 2.2692 0
M  V30 9553 C 884.57 -1.73436 2.16368 0
M  V30 9554 H 887.521 -0.583788 1.47572 0
M  V30 9555 H 887.542 -3.26144 1.95986 0
M  V30 9556 H 887.054 -2.03087 3.30722 0
M  V30 9557 H 885.155 -3.48571 1.31639 0
M  V30 9558 H 885.268 -3.56663 3.19887 0
M  V30 9559 H 883.632 -1.95934 1.62733 0
M  V30 9560 H 884.415 -1.31693 3.17036 0
M  V30 9561 N 886.86 -1.21182 -1.00761 0
M  V30 9562 C 887.823 -0.970339 -2.07646 0
M  V30 9563 C 888.823 0.0576345 -1.60697 0
M  V30 9564 O 890.013 -0.179369 -1.73274 0
M  V30 9565 C 887.145 -0.462703 -3.37745 0
M  V30 9566 H 888.338 -1.91856 -2.30502 0
M  V30 9567 H 885.891 -1.02844 -1.17698 0
M  V30 9568 H 886.626 0.490559 -3.20568 0
M  V30 9569 H 886.411 -1.20416 -3.73152 0
M  V30 9570 H 887.901 -0.313531 -4.16421 0
M  V30 9571 N 888.338 1.20213 -1.01915 0
M  V30 9572 C 889.585 1.89647 -0.709955 0
M  V30 9573 C 889.913 1.7901 0.760631 0
M  V30 9574 O 889.168 1.17028 1.56853 0
M  V30 9575 C 889.467 3.40232 -1.09438 0
M  V30 9576 C 889.133 3.7107 -2.5616 0
M  V30 9577 C 887.795 3.79196 -2.96249 0
M  V30 9578 C 890.147 3.85169 -3.51133 0
M  V30 9579 C 887.475 3.98882 -4.30244 0
M  V30 9580 C 889.827 4.06365 -4.8482 0
M  V30 9581 C 888.491 4.12722 -5.24611 0
M  V30 9582 H 887.761 0.693967 -0.259791 0
M  V30 9583 H 890.408 1.42419 -1.2802 0
M  V30 9584 H 888.713 3.89292 -0.442596 0
M  V30 9585 H 890.41 3.92257 -0.832811 0
M  V30 9586 H 887 3.65346 -2.24099 0
M  V30 9587 H 891.184 3.78243 -3.21319 0
M  V30 9588 H 886.44 4.02039 -4.60624 0
M  V30 9589 H 890.614 4.16216 -5.58334 0
M  V30 9590 H 888.241 4.27728 -6.28453 0
M  V30 9591 N 889.816 0.795718 1.36037 0
M  V30 9592 C 891.056 0.376514 2.00902 0
M  V30 9593 C 891.42 -1.03405 1.61776 0
M  V30 9594 O 892.621 -1.55468 2.19279 0
M  V30 9595 C 890.892 0.542086 3.53265 0
M  V30 9596 S 892.451 0.211694 4.38289 0
M  V30 9597 H 889.269 0.143527 0.696363 0
M  V30 9598 H 891.871 1.03559 1.65819 0
M  V30 9599 H 890.575 1.56888 3.79229 0
M  V30 9600 H 890.106 -0.132698 3.93176 0
M  V30 9601 H 892.121 -0.98452 4.86335 0
M  V30 9602 N 891.294 -1.47756 0.548274 0
M  V30 9603 C 892.522 -2.06884 0.0254873 0
M  V30 9604 C 892.937 -1.40225 -1.26422 0
M  V30 9605 O 892.294 -0.495776 -1.75637 0
M  V30 9606 C 892.345 -3.61036 -0.183134 0
M  V30 9607 O 892.066 -4.25195 1.05549 0
M  V30 9608 C 893.567 -4.37008 -0.744222 0
M  V30 9609 H 890.787 -0.669697 0.041789 0
M  V30 9610 H 893.331 -1.89888 0.759138 0
M  V30 9611 H 891.486 -3.77576 -0.866886 0
M  V30 9612 H 891.9 -5.17606 0.847629 0
M  V30 9613 H 893.374 -5.45579 -0.839529 0
M  V30 9614 H 893.851 -4.0268 -1.75344 0
M  V30 9615 H 894.457 -4.25191 -0.0964542 0
M  V30 9616 N 892.772 -0.284283 -1.55015 0
M  V30 9617 C 894.183 0.211681 -1.85496 0
M  V30 9618 C 894.534 1.54735 -1.2063 0
M  V30 9619 O 893.659 2.10594 -0.497918 0
M  V30 9620 C 894.254 0.390864 -3.36538 0
M  V30 9621 C 892.813 0.831055 -3.67111 0
M  V30 9622 C 891.96 -0.0703581 -2.77211 0
M  V30 9623 H 894.911 -0.505803 -1.50424 0
M  V30 9624 H 894.932 1.22803 -3.60138 0
M  V30 9625 H 894.444 -0.581409 -3.8372 0
M  V30 9626 H 892.545 1.81447 -3.25434 0
M  V30 9627 H 892.658 0.662026 -4.74504 0
M  V30 9628 H 891.022 0.447528 -2.50737 0
M  V30 9629 H 891.805 -1.03868 -3.2721 0
M  V30 9630 N 894.251 1.57596 -0.0117121 0
M  V30 9631 C 895.499 1.90694 0.669342 0
M  V30 9632 C 895.82 0.886999 1.73659 0
M  V30 9633 O 895.09 -0.0739779 1.9576 0
M  V30 9634 H 893.67 0.703846 0.250219 0
M  V30 9635 H 896.332 1.94821 -0.0554057 0
M  V30 9636 H 895.428 2.90802 1.13316 0
M  V30 9637 N 895.729 -0.261212 1.5542 0
M  V30 9638 C 896.639 -1.34493 1.92221 0
M  V30 9639 C 897.655 -1.53421 0.82086 0
M  V30 9640 O 898.831 -1.6732 1.12099 0
M  V30 9641 C 895.896 -2.68209 2.19692 0
M  V30 9642 C 894.957 -2.57927 3.43179 0
M  V30 9643 C 894.19 -3.85266 3.69331 0
M  V30 9644 O 894.413 -4.86493 2.97793 0
M  V30 9645 O 893.347 -3.8476 4.62865 0
M  V30 9646 H 897.173 -1.06278 2.84497 0
M  V30 9647 H 894.758 -0.460752 1.42118 0
M  V30 9648 H 896.64 -3.47252 2.38734 0
M  V30 9649 H 895.315 -2.96186 1.30597 0
M  V30 9650 H 894.222 -1.77219 3.2946 0
M  V30 9651 H 895.555 -2.34898 4.32532 0
M  V30 9652 N 897.207 -1.48554 -0.526253 0
M  V30 9653 C 898.437 -1.60197 -1.30463 0
M  V30 9654 C 898.845 -0.26278 -1.87366 0
M  V30 9655 O 898.188 0.758537 -1.67308 0
M  V30 9656 C 898.25 -2.59223 -2.49085 0
M  V30 9657 C 897.914 -4.04199 -2.13241 0
M  V30 9658 C 898.911 -4.91771 -1.68694 0
M  V30 9659 C 896.596 -4.49762 -2.2365 0
M  V30 9660 C 898.59 -6.22934 -1.35026 0
M  V30 9661 C 896.277 -5.80945 -1.89594 0
M  V30 9662 C 897.275 -6.67354 -1.45353 0
M  V30 9663 O 896.963 -7.96096 -1.11745 0
M  V30 9664 H 896.695 -0.54284 -0.402866 0
M  V30 9665 H 899.249 -1.95137 -0.641157 0
M  V30 9666 H 897.479 -2.19412 -3.18426 0
M  V30 9667 H 899.168 -2.60661 -3.11144 0
M  V30 9668 H 899.934 -4.57806 -1.6012 0
M  V30 9669 H 895.813 -3.8269 -2.5704 0
M  V30 9670 H 899.357 -6.90334 -1.00422 0
M  V30 9671 H 895.254 -6.14444 -1.9781 0
M  V30 9672 H 896.022 -8.08882 -1.25111 0
M  V30 9673 N 898.685 0.775411 -1.37205 0
M  V30 9674 C 899.615 1.90258 -1.35367 0
M  V30 9675 C 900.596 1.68634 -0.222864 0
M  V30 9676 O 901.781 1.89545 -0.422659 0
M  V30 9677 C 898.911 3.27488 -1.15623 0
M  V30 9678 C 897.865 3.63668 -2.25676 0
M  V30 9679 C 897.191 4.994 -1.91059 0
M  V30 9680 C 898.491 3.70797 -3.67841 0
M  V30 9681 H 900.185 1.92053 -2.29687 0
M  V30 9682 H 897.731 0.922597 -1.10563 0
M  V30 9683 H 899.684 4.05976 -1.12968 0
M  V30 9684 H 898.408 3.26117 -0.177573 0
M  V30 9685 H 897.067 2.87486 -2.2748 0
M  V30 9686 H 896.715 4.94565 -0.917324 0
M  V30 9687 H 896.415 5.24576 -2.64751 0
M  V30 9688 H 897.939 5.80291 -1.89985 0
M  V30 9689 H 899.353 4.39444 -3.68187 0
M  V30 9690 H 897.75 4.07468 -4.40556 0
M  V30 9691 H 898.82 2.71549 -4.01732 0
M  V30 9692 N 900.163 1.21714 1.00117 0
M  V30 9693 C 901.412 1.03087 1.73367 0
M  V30 9694 C 901.725 -0.435532 1.90689 0
M  V30 9695 O 902.931 -0.741291 2.61184 0
M  V30 9696 C 901.387 1.79593 3.11888 0
M  V30 9697 C 900.995 3.30428 3.02525 0
M  V30 9698 C 902.739 1.69386 3.89241 0
M  V30 9699 C 900.646 3.99408 4.3615 0
M  V30 9700 H 899.576 0.382117 0.650002 0
M  V30 9701 H 902.227 1.45486 1.11831 0
M  V30 9702 H 900.609 1.29988 3.74058 0
M  V30 9703 H 901.783 3.87364 2.49571 0
M  V30 9704 H 900.098 3.4122 2.38659 0
M  V30 9705 H 902.695 2.18251 4.8813 0
M  V30 9706 H 903.038 0.652773 4.1115 0
M  V30 9707 H 903.571 2.16489 3.33733 0
M  V30 9708 H 900.31 5.03735 4.19442 0
M  V30 9709 H 899.83 3.47261 4.8905 0
M  V30 9710 H 901.509 4.04537 5.04934 0
M  V30 9711 N 901.641 -1.19671 1.02551 0
M  V30 9712 C 902.591 -2.20655 0.574037 0
M  V30 9713 C 903.575 -1.56459 -0.375412 0
M  V30 9714 O 904.767 -1.75901 -0.196929 0
M  V30 9715 C 901.896 -3.43213 -0.0772031 0
M  V30 9716 C 900.982 -4.1456 0.894485 0
M  V30 9717 N 901.373 -4.62147 2.05557 0
M  V30 9718 C 899.671 -4.40196 0.717205 0
M  V30 9719 C 900.372 -5.16899 2.66814 0
M  V30 9720 N 899.348 -5.07496 1.94804 0
M  V30 9721 H 903.15 -2.55124 1.45908 0
M  V30 9722 H 900.664 -1.35707 0.89204 0
M  V30 9723 H 902.661 -4.14797 -0.41824 0
M  V30 9724 H 901.321 -3.10247 -0.957973 0
M  V30 9725 H 902.332 -4.5708 2.43513 0
M  V30 9726 H 899.009 -4.17342 -0.114758 0
M  V30 9727 H 900.399 -5.64032 3.65126 0
M  V30 9728 N 903.119 -0.802921 -1.35613 0
M  V30 9729 C 904.051 -0.168461 -2.2858 0
M  V30 9730 C 905.064 0.630123 -1.50111 0
M  V30 9731 O 906.253 0.463086 -1.72388 0
M  V30 9732 C 903.353 0.783943 -3.29708 0
M  V30 9733 C 902.526 0.0325165 -4.37388 0
M  V30 9734 C 901.585 0.902859 -5.18396 0
M  V30 9735 O 900.611 0.355144 -5.68091 0
M  V30 9736 N 901.813 2.22542 -5.36149 0
M  V30 9737 H 904.578 -0.96709 -2.83668 0
M  V30 9738 H 902.139 -0.658043 -1.47924 0
M  V30 9739 H 904.131 1.37034 -3.80794 0
M  V30 9740 H 902.701 1.48339 -2.75162 0
M  V30 9741 H 901.921 -0.735057 -3.87286 0
M  V30 9742 H 903.209 -0.485499 -5.06478 0
M  V30 9743 H 902.607 2.69439 -4.97412 0
M  V30 9744 H 901.164 2.76113 -5.90428 0
M  V30 9745 N 904.597 1.47463 -0.556102 0
M  V30 9746 C 905.845 2.02075 -0.0315712 0
M  V30 9747 C 906.166 1.43292 1.32259 0
M  V30 9748 O 905.436 0.60771 1.86236 0
M  V30 9749 H 904.016 0.74695 -0.0086816 0
M  V30 9750 H 906.678 1.80879 -0.725859 0
M  V30 9751 H 905.774 3.12047 0.0573538 0
M  V30 9752 N 906.075 0.2925 1.54862 0
M  V30 9753 C 907.352 -0.371946 1.92031 0
M  V30 9754 C 907.732 -1.72363 1.21878 0
M  V30 9755 O 907.08 -2.25779 0.351573 0
M  V30 9756 C 907.29 -0.495027 3.45471 0
M  V30 9757 C 908.638 -0.769855 4.17562 0
M  V30 9758 O 909.662 -0.579168 3.5146 0
M  V30 9759 O 908.521 -1.13561 5.34571 0
M  V30 9760 H 905.615 -0.206463 0.800813 0
M  V30 9761 H 908.161 0.339933 1.6626 0
M  V30 9762 H 906.933 0.455528 3.88639 0
M  V30 9763 H 906.556 -1.2557 3.7725 0
M  V30 9764 N 907.553 -1.57587 0.0200696 0
M  V30 9765 C 908.516 -2.08595 -0.949767 0
M  V30 9766 C 909.516 -0.999215 -1.25985 0
M  V30 9767 O 910.706 -1.26115 -1.2017 0
M  V30 9768 C 907.838 -2.54424 -2.26895 0
M  V30 9769 H 909.031 -2.95563 -0.508161 0
M  V30 9770 H 906.584 -1.54631 -0.227798 0
M  V30 9771 H 907.319 -1.70758 -2.75703 0
M  V30 9772 H 907.104 -3.3381 -2.05702 0
M  V30 9773 H 908.594 -2.94144 -2.96427 0
M  V30 9774 N 909.032 0.252966 -1.55557 0
M  V30 9775 C 909.962 1.31691 -1.9282 0
M  V30 9776 C 910.943 1.50516 -0.7924 0
M  V30 9777 O 912.128 1.63225 -1.05219 0
M  V30 9778 C 909.258 2.67281 -2.21762 0
M  V30 9779 C 908.212 2.6316 -3.37536 0
M  V30 9780 C 907.538 4.02488 -3.52005 0
M  V30 9781 C 908.838 2.20675 -4.73392 0
M  V30 9782 H 910.532 1.00751 -2.81939 0
M  V30 9783 H 908.078 0.483219 -1.3565 0
M  V30 9784 H 910.031 3.41842 -2.46419 0
M  V30 9785 H 908.755 2.99845 -1.29463 0
M  V30 9786 H 907.414 1.91057 -3.12878 0
M  V30 9787 H 907.062 4.32307 -2.57137 0
M  V30 9788 H 906.762 4.00621 -4.29857 0
M  V30 9789 H 908.286 4.78758 -3.78977 0
M  V30 9790 H 909.7 2.84965 -4.97461 0
M  V30 9791 H 908.097 2.29931 -5.54303 0
M  V30 9792 H 909.167 1.15831 -4.70862 0
M  V30 9793 N 910.51 1.48831 0.518367 0
M  V30 9794 C 911.442 1.60317 1.63802 0
M  V30 9795 C 912.455 0.486771 1.55352 0
M  V30 9796 O 913.644 0.758111 1.61601 0
M  V30 9797 C 910.744 1.52771 3.02513 0
M  V30 9798 C 909.917 2.79649 3.36326 0
M  V30 9799 C 908.976 2.65396 4.54369 0
M  V30 9800 O 908.002 3.39304 4.57013 0
M  V30 9801 N 909.204 1.75784 5.53245 0
M  V30 9802 H 911.969 2.56878 1.54383 0
M  V30 9803 H 909.53 1.45701 0.705889 0
M  V30 9804 H 911.522 1.40914 3.79375 0
M  V30 9805 H 910.092 0.641381 3.05949 0
M  V30 9806 H 909.312 3.05985 2.48529 0
M  V30 9807 H 910.6 3.63799 3.55707 0
M  V30 9808 H 909.998 1.14961 5.53896 0
M  V30 9809 H 908.555 1.69859 6.29278 0
M  V30 9810 N 911.988 -0.768124 1.37614 0
M  V30 9811 C 912.951 -1.86314 1.3349 0
M  V30 9812 C 913.951 -1.59025 0.23823 0
M  V30 9813 O 915.141 -1.6704 0.494288 0
M  V30 9814 C 912.273 -3.23519 1.07462 0
M  V30 9815 H 913.466 -1.91382 2.30896 0
M  V30 9816 H 911.019 -0.968267 1.22696 0
M  V30 9817 H 911.754 -3.24127 0.106028 0
M  V30 9818 H 911.539 -3.44719 1.86846 0
M  V30 9819 H 913.029 -4.03597 1.07236 0
M  V30 9820 N 913.466 -1.22244 -0.994698 0
M  V30 9821 C 914.396 -1.01513 -2.10279 0
M  V30 9822 C 915.377 0.0633365 -1.69982 0
M  V30 9823 O 916.562 -0.0985268 -1.9395 0
M  V30 9824 C 913.692 -0.59016 -3.42249 0
M  V30 9825 C 912.646 -1.61436 -3.96387 0
M  V30 9826 C 911.972 -1.04528 -5.24383 0
M  V30 9827 C 913.272 -3.00388 -4.27276 0
M  V30 9828 H 914.966 -1.94194 -2.2788 0
M  V30 9829 H 912.512 -0.935094 -1.09508 0
M  V30 9830 H 914.465 -0.432254 -4.19177 0
M  V30 9831 H 913.189 0.372308 -3.24471 0
M  V30 9832 H 911.848 -1.76001 -3.21589 0
M  V30 9833 H 911.496 -0.0742225 -5.02945 0
M  V30 9834 H 911.196 -1.72949 -5.61571 0
M  V30 9835 H 912.72 -0.898922 -6.03947 0
M  V30 9836 H 914.134 -2.89207 -4.95007 0
M  V30 9837 H 912.531 -3.65916 -4.75631 0
M  V30 9838 H 913.601 -3.50456 -3.35125 0
M  V30 9839 N 914.944 1.19125 -1.03184 0
M  V30 9840 C 916.174 1.92558 -0.748663 0
M  V30 9841 C 916.582 1.759 0.696837 0
M  V30 9842 O 915.925 1.08019 1.48585 0
M  V30 9843 C 915.987 3.4461 -1.02391 0
M  V30 9844 C 915.651 3.85041 -2.46155 0
M  V30 9845 C 916.648 3.89554 -3.44302 0
M  V30 9846 C 914.333 4.16594 -2.80633 0
M  V30 9847 C 916.327 4.25055 -4.74981 0
M  V30 9848 C 914.014 4.51767 -4.11521 0
M  V30 9849 C 915.012 4.55972 -5.08506 0
M  V30 9850 O 914.7 4.9033 -6.37049 0
M  V30 9851 H 914.432 0.618397 -0.273059 0
M  V30 9852 H 916.986 1.52122 -1.38015 0
M  V30 9853 H 915.216 3.85244 -0.335284 0
M  V30 9854 H 916.905 3.99283 -0.729927 0
M  V30 9855 H 917.671 3.65324 -3.19003 0
M  V30 9856 H 913.55 4.12503 -2.05821 0
M  V30 9857 H 917.094 4.28252 -5.50678 0
M  V30 9858 H 912.991 4.75455 -4.36592 0
M  V30 9859 H 913.759 5.08266 -6.41566 0
M  V30 9860 N 916.422 0.810101 1.35185 0
M  V30 9861 C 917.669 0.392117 1.98667 0
M  V30 9862 C 917.997 -1.0416 1.64259 0
M  V30 9863 O 917.252 -1.73795 0.899647 0
M  V30 9864 C 917.551 0.526561 3.535 0
M  V30 9865 C 917.217 1.92411 4.07785 0
M  V30 9866 C 915.879 2.30644 4.22323 0
M  V30 9867 C 918.231 2.83827 4.37141 0
M  V30 9868 C 915.559 3.59655 4.63536 0
M  V30 9869 C 917.911 4.12287 4.79794 0
M  V30 9870 C 916.575 4.50515 4.92536 0
M  V30 9871 H 915.845 0.143486 0.726975 0
M  V30 9872 H 918.492 1.03157 1.61341 0
M  V30 9873 H 916.797 -0.19633 3.91308 0
M  V30 9874 H 918.494 0.183871 4.00578 0
M  V30 9875 H 915.084 1.61707 3.96924 0
M  V30 9876 H 919.268 2.55536 4.25459 0
M  V30 9877 H 914.524 3.89117 4.71591 0
M  V30 9878 H 918.698 4.83221 5.01468 0
M  V30 9879 H 916.325 5.50535 5.24229 0
M  V30 9880 N 917.9 -1.47166 0.563914 0
M  V30 9881 C 919.146 -2.02756 0.0424338 0
M  V30 9882 C 919.479 -1.43662 -1.3067 0
M  V30 9883 O 918.754 -0.594676 -1.85186 0
M  V30 9884 C 919.037 -3.60074 -0.0434793 0
M  V30 9885 C 918.89 -4.29587 1.33323 0
M  V30 9886 C 920.209 -4.336 -0.753568 0
M  V30 9887 H 917.328 -0.736806 0.0168946 0
M  V30 9888 H 919.97 -1.75521 0.727496 0
M  V30 9889 H 918.12 -3.83409 -0.626906 0
M  V30 9890 H 919.792 -4.17573 1.96037 0
M  V30 9891 H 918.035 -3.8968 1.9061 0
M  V30 9892 H 918.706 -5.38218 1.22576 0
M  V30 9893 H 921.182 -4.15299 -0.258126 0
M  V30 9894 H 920.058 -5.43291 -0.782659 0
M  V30 9895 H 920.319 -4.03302 -1.81108 0
M  V30 9896 N 919.378 -0.300708 -1.54705 0
M  V30 9897 C 920.618 0.30953 -2.02043 0
M  V30 9898 C 920.982 1.51114 -1.18442 0
M  V30 9899 O 922.183 2.19273 -1.55477 0
M  V30 9900 C 920.454 0.657489 -3.513 0
M  V30 9901 S 922.013 1.25063 -4.206 0
M  V30 9902 H 918.831 0.0950019 -0.704624 0
M  V30 9903 H 921.433 -0.428512 -1.90746 0
M  V30 9904 H 920.137 -0.225532 -4.0978 0
M  V30 9905 H 919.668 1.42633 -3.66633 0
M  V30 9906 H 921.683 2.53844 -4.26354 0
M  V30 9907 N 920.856 1.57574 -0.0284266 0
M  V30 9908 C 922.081 1.96479 0.664137 0
M  V30 9909 C 922.506 0.904826 1.64908 0
M  V30 9910 O 921.864 -0.134339 1.80802 0
M  V30 9911 C 921.912 3.34479 1.34745 0
M  V30 9912 O 921.016 3.30794 2.46271 0
M  V30 9913 H 920.357 0.640654 0.174524 0
M  V30 9914 H 922.887 2.04402 -0.0900729 0
M  V30 9915 H 922.897 3.70694 1.7044 0
M  V30 9916 H 921.572 4.1117 0.625468 0
M  V30 9917 H 920.149 3.06294 2.12693 0
M  V30 9918 N 922.334 -0.244713 1.55689 0
M  V30 9919 C 923.582 -0.970525 1.77272 0
M  V30 9920 C 923.903 -1.85771 0.592804 0
M  V30 9921 O 923.173 -1.91952 -0.391323 0
M  V30 9922 H 921.753 -0.361342 0.653789 0
M  V30 9923 H 924.415 -0.262134 1.93129 0
M  V30 9924 H 923.511 -1.59096 2.68505 0
M  V30 9925 N 923.813 -1.49104 -0.510467 0
M  V30 9926 C 925.038 -1.62068 -1.29417 0
M  V30 9927 C 925.463 -0.288432 -1.85875 0
M  V30 9928 O 924.821 0.742667 -1.65391 0
M  V30 9929 C 924.869 -2.68506 -2.40701 0
M  V30 9930 O 923.973 -2.27021 -3.4429 0
M  V30 9931 H 923.314 -0.542778 -0.382476 0
M  V30 9932 H 925.844 -1.95228 -0.612154 0
M  V30 9933 H 925.854 -2.90383 -2.86604 0
M  V30 9934 H 924.529 -3.65216 -1.98973 0
M  V30 9935 H 923.106 -2.15436 -3.04371 0
M  V30 9936 N 925.291 0.760815 -1.38019 0
M  V30 9937 C 926.224 1.88212 -1.2904 0
M  V30 9938 C 927.202 1.61721 -0.168805 0
M  V30 9939 O 928.386 1.85318 -0.344893 0
M  V30 9940 C 925.513 3.23672 -0.997702 0
M  V30 9941 C 924.559 3.6906 -2.13769 0
M  V30 9942 S 925.392 3.81445 -3.75845 0
M  V30 9943 C 926.548 5.19736 -3.48748 0
M  V30 9944 H 926.781 1.95541 -2.23944 0
M  V30 9945 H 924.314 0.923051 -1.2377 0
M  V30 9946 H 926.272 4.01904 -0.835657 0
M  V30 9947 H 924.933 3.14031 -0.065967 0
M  V30 9948 H 924.126 4.67295 -1.88816 0
M  V30 9949 H 923.728 2.97961 -2.26043 0
M  V30 9950 H 926.02 6.05259 -3.04414 0
M  V30 9951 H 926.963 5.49706 -4.46351 0
M  V30 9952 H 927.371 4.88191 -2.83425 0
M  V30 9953 N 926.769 1.22769 0.988202 0
M  V30 9954 C 927.679 1.01844 2.11341 0
M  V30 9955 C 928.695 -0.0346937 1.73965 0
M  V30 9956 O 929.871 0.159061 2.00771 0
M  V30 9957 C 926.936 0.603837 3.41401 0
M  V30 9958 C 925.997 1.73113 3.92849 0
M  V30 9959 C 925.23 1.33621 5.16702 0
M  V30 9960 O 925.453 0.217041 5.69987 0
M  V30 9961 O 924.387 2.15444 5.62021 0
M  V30 9962 H 928.213 1.96127 2.31879 0
M  V30 9963 H 925.798 1.01405 1.09715 0
M  V30 9964 H 927.68 0.383196 4.19654 0
M  V30 9965 H 926.355 -0.310082 3.22211 0
M  V30 9966 H 925.262 2.00634 3.15748 0
M  V30 9967 H 926.595 2.62308 4.1648 0
M  V30 9968 N 928.247 -1.18576 1.03814 0
M  V30 9969 C 929.493 -1.88773 0.741132 0
M  V30 9970 C 929.826 -1.79993 -0.729127 0
M  V30 9971 O 929.101 -1.19851 -1.53186 0
M  V30 9972 C 929.384 -3.39352 1.20468 0
M  V30 9973 C 929.237 -3.56955 2.73684 0
M  V30 9974 C 930.556 -4.32901 0.792741 0
M  V30 9975 H 927.675 -0.685482 0.270708 0
M  V30 9976 H 930.317 -1.39523 1.2897 0
M  V30 9977 H 928.467 -3.81427 0.737974 0
M  V30 9978 H 930.139 -3.2399 3.28372 0
M  V30 9979 H 928.382 -2.99696 3.13632 0
M  V30 9980 H 929.053 -4.62598 3.01176 0
M  V30 9981 H 931.529 -3.98592 1.1943 0
M  V30 9982 H 930.405 -5.36828 1.14486 0
M  V30 9983 H 930.666 -4.41052 -0.304295 0
M  V30 9984 N 929.725 -0.817259 -1.34754 0
M  V30 9985 C 930.655 -0.249769 -2.3216 0
M  V30 9986 C 931.636 0.630663 -1.57977 0
M  V30 9987 O 932.821 0.558719 -1.85989 0
M  V30 9988 C 929.951 0.593825 -3.42186 0
M  V30 9989 C 928.905 -0.188997 -4.27583 0
M  V30 9990 C 928.231 0.776979 -5.29025 0
M  V30 9991 C 929.531 -1.39401 -5.03354 0
M  V30 9992 H 931.225 -1.06359 -2.79872 0
M  V30 9993 H 928.771 -0.512894 -1.34556 0
M  V30 9994 H 930.724 1.00097 -4.09339 0
M  V30 9995 H 929.448 1.44064 -2.93109 0
M  V30 9996 H 928.107 -0.577445 -3.62024 0
M  V30 9997 H 927.755 1.61959 -4.76212 0
M  V30 9998 H 927.455 0.257448 -5.87036 0
M  V30 9999 H 928.979 1.18211 -5.99048 0
M  V30 10000 H 930.393 -1.06117 -5.63393 0
M  V30 10001 H 928.79 -1.84878 -5.70912 0
M  V30 10002 H 929.86 -2.17515 -4.33377 0
M  V30 10003 N 931.203 1.46865 -0.571711 0
M  V30 10004 C 932.15 2.30189 0.167808 0
M  V30 10005 C 933.12 1.3995 0.89461 0
M  V30 10006 O 934.305 1.68905 0.887451 0
M  V30 10007 C 931.445 3.24205 1.1826 0
M  V30 10008 C 930.558 4.2954 0.460376 0
M  V30 10009 C 929.693 5.10693 1.46173 0
M  V30 10010 C 928.732 6.07788 0.725291 0
M  V30 10011 N 927.869 6.81847 1.67417 0
M  V30 10012 H 932.709 2.92902 -0.548831 0
M  V30 10013 H 930.246 1.44362 -0.282474 0
M  V30 10014 H 932.204 3.77147 1.7837 0
M  V30 10015 H 930.834 2.63324 1.86709 0
M  V30 10016 H 929.886 3.79541 -0.255546 0
M  V30 10017 H 931.198 4.98665 -0.115855 0
M  V30 10018 H 930.352 5.67857 2.13595 0
M  V30 10019 H 929.091 4.41502 2.07188 0
M  V30 10020 H 928.096 5.49787 0.037228 0
M  V30 10021 H 929.321 6.78993 0.120678 0
M  V30 10022 H 927.267 6.15376 2.27263 0
M  V30 10023 H 927.184 7.47195 1.15046 0
M  V30 10024 H 928.452 7.43577 2.33908 0
M  V30 10025 N 932.681 0.308908 1.54543 0
M  V30 10026 C 933.929 -0.297447 1.99899 0
M  V30 10027 C 934.25 -1.53799 1.19878 0
M  V30 10028 O 933.52 -1.93639 0.29678 0
M  V30 10029 H 932.1 -0.112897 0.738419 0
M  V30 10030 H 934.762 0.422067 1.90275 0
M  V30 10031 H 933.858 -0.564016 3.06961 0
M  V30 10032 N 934.159 -1.57557 0.0367827 0
M  V30 10033 C 935.407 -1.91735 -0.63892 0
M  V30 10034 C 935.728 -0.914515 -1.72226 0
M  V30 10035 O 934.998 0.0428248 -1.95853 0
M  V30 10036 H 933.578 -0.707738 -0.23899 0
M  V30 10037 H 936.24 -1.94708 0.0863931 0
M  V30 10038 H 935.336 -2.92568 -1.08676 0
M  V30 10039 N 935.637 0.236453 -1.55816 0
M  V30 10040 C 936.865 0.980295 -1.82203 0
M  V30 10041 C 937.28 1.7854 -0.613926 0
M  V30 10042 O 936.637 1.77661 0.417491 0
M  V30 10043 C 936.688 1.90982 -3.06933 0
M  V30 10044 O 936.409 1.13728 -4.23081 0
M  V30 10045 C 937.91 2.76879 -3.46198 0
M  V30 10046 H 935.13 0.28799 -0.606055 0
M  V30 10047 H 937.674 0.256182 -2.02889 0
M  V30 10048 H 935.829 2.58808 -2.88266 0
M  V30 10049 H 936.243 1.76694 -4.93842 0
M  V30 10050 H 937.717 3.37831 -4.36548 0
M  V30 10051 H 938.194 3.48522 -2.67262 0
M  V30 10052 H 938.8 2.1449 -3.67252 0
M  V30 10053 N 937.115 1.49373 0.502552 0
M  V30 10054 C 938.361 1.59016 1.25864 0
M  V30 10055 C 938.694 0.27532 1.92238 0
M  V30 10056 O 937.969 -0.720988 1.80643 0
M  V30 10057 C 938.252 2.74828 2.32683 0
M  V30 10058 C 938.105 4.16102 1.7082 0
M  V30 10059 C 939.424 2.86288 3.34256 0
M  V30 10060 H 936.543 0.578798 0.456248 0
M  V30 10061 H 939.185 1.81651 0.557032 0
M  V30 10062 H 937.335 2.5566 2.92524 0
M  V30 10063 H 939.007 4.46782 1.14818 0
M  V30 10064 H 937.25 4.21822 1.01238 0
M  V30 10065 H 937.921 4.93006 2.48292 0
M  V30 10066 H 940.397 3.03733 2.84404 0
M  V30 10067 H 939.273 3.69001 4.06362 0
M  V30 10068 H 939.534 1.95576 3.96488 0
M  V30 10069 N 938.594 -0.753485 1.38421 0
M  V30 10070 C 939.524 -1.8808 1.38377 0
M  V30 10071 C 940.505 -1.68258 0.249664 0
M  V30 10072 O 941.69 -1.88848 0.45276 0
M  V30 10073 C 938.82 -3.25608 1.20818 0
M  V30 10074 C 937.774 -3.60032 2.31433 0
M  V30 10075 C 937.1 -4.96297 1.9898 0
M  V30 10076 C 938.4 -3.64898 3.73694 0
M  V30 10077 H 940.094 -1.88375 2.32713 0
M  V30 10078 H 937.64 -0.90489 1.12017 0
M  V30 10079 H 939.593 -4.04127 1.19412 0
M  V30 10080 H 938.317 -3.25793 0.229433 0
M  V30 10081 H 936.976 -2.83831 2.32025 0
M  V30 10082 H 936.624 -4.93043 0.995889 0
M  V30 10083 H 936.324 -5.20298 2.73063 0
M  V30 10084 H 937.848 -5.77196 1.99193 0
M  V30 10085 H 939.262 -4.33531 3.75132 0
M  V30 10086 H 937.659 -4.00407 4.46983 0
M  V30 10087 H 938.729 -2.65124 4.06002 0
M  V30 10088 N 940.072 -1.23292 -0.981677 0
M  V30 10089 C 941.035 -1.01417 -2.05542 0
M  V30 10090 C 942.035 0.0235354 -1.60783 0
M  V30 10091 O 943.225 -0.216082 -1.72855 0
M  V30 10092 C 940.357 -0.534239 -3.36688 0
M  V30 10093 H 941.55 -1.96702 -2.26381 0
M  V30 10094 H 939.103 -1.05318 -1.1549 0
M  V30 10095 H 939.838 0.422452 -3.21537 0
M  V30 10096 H 939.623 -1.28304 -3.70514 0
M  V30 10097 H 941.113 -0.40179 -4.15663 0
M  V30 10098 N 941.55 1.18024 -1.04442 0
M  V30 10099 C 942.799 1.8743 -0.745185 0
M  V30 10100 C 943.112 1.81459 0.730206 0
M  V30 10101 O 944.318 2.46263 1.1431 0
M  V30 10102 C 942.774 3.36266 -1.28271 0
M  V30 10103 C 942.382 3.50757 -2.787 0
M  V30 10104 C 944.126 4.11048 -1.06018 0
M  V30 10105 C 942.033 4.93573 -3.25791 0
M  V30 10106 H 940.963 0.702038 -0.27506 0
M  V30 10107 H 943.614 1.33333 -1.26073 0
M  V30 10108 H 941.996 3.89853 -0.695002 0
M  V30 10109 H 943.17 3.07423 -3.43261 0
M  V30 10110 H 941.485 2.89385 -2.99408 0
M  V30 10111 H 944.082 5.16395 -1.38711 0
M  V30 10112 H 944.425 4.163 0.00241716 0
M  V30 10113 H 944.958 3.63644 -1.61269 0
M  V30 10114 H 941.697 4.93491 -4.31447 0
M  V30 10115 H 941.217 5.37607 -2.65968 0
M  V30 10116 H 942.896 5.62307 -3.20031 0
M  V30 10117 N 943.028 0.824394 1.34319 0
M  V30 10118 C 943.958 0.262077 2.32025 0
M  V30 10119 C 944.939 -0.622277 1.58309 0
M  V30 10120 O 946.124 -0.548848 1.86283 0
M  V30 10121 C 943.254 -0.57567 3.42496 0
M  V30 10122 C 942.208 0.21167 4.27476 0
M  V30 10123 C 941.534 -0.748913 5.29429 0
M  V30 10124 C 942.834 1.42068 5.02607 0
M  V30 10125 H 944.528 1.07842 2.79304 0
M  V30 10126 H 942.074 0.520022 1.34282 0
M  V30 10127 H 944.027 -0.979251 4.09864 0
M  V30 10128 H 942.751 -1.42508 2.93869 0
M  V30 10129 H 941.41 0.596636 3.61712 0
M  V30 10130 H 941.058 -1.59432 4.77064 0
M  V30 10131 H 940.758 -0.226313 5.87164 0
M  V30 10132 H 942.282 -1.15032 5.99667 0
M  V30 10133 H 943.696 1.09103 5.62823 0
M  V30 10134 H 942.093 1.87903 5.69923 0
M  V30 10135 H 943.163 2.1981 4.32217 0
M  V30 10136 N 944.506 -1.46559 0.579492 0
M  V30 10137 C 945.754 -2.02 0.0637157 0
M  V30 10138 C 946.075 -1.45378 -1.29962 0
M  V30 10139 O 945.345 -0.637262 -1.85245 0
M  V30 10140 H 943.925 -0.746717 0.0205638 0
M  V30 10141 H 946.587 -1.79702 0.754544 0
M  V30 10142 H 945.683 -3.12099 -0.00770254 0
M  V30 10143 N 945.984 -0.3171 -1.54377 0
M  V30 10144 C 946.931 0.551782 -2.24107 0
M  V30 10145 C 947.901 1.11681 -1.22949 0
M  V30 10146 O 949.086 1.15836 -1.51614 0
M  V30 10147 C 946.226 1.70997 -2.99756 0
M  V30 10148 C 945.339 1.17479 -4.15719 0
M  V30 10149 C 944.474 2.29815 -4.78914 0
M  V30 10150 C 943.513 1.73513 -5.86992 0
M  V30 10151 N 942.65 2.79485 -6.44075 0
M  V30 10152 H 947.49 -0.049431 -2.97959 0
M  V30 10153 H 945.027 -0.0361658 -1.47056 0
M  V30 10154 H 946.985 2.39141 -3.41859 0
M  V30 10155 H 945.615 2.28257 -2.28251 0
M  V30 10156 H 944.667 0.385109 -3.78446 0
M  V30 10157 H 945.979 0.72276 -4.93536 0
M  V30 10158 H 945.133 3.05875 -5.23952 0
M  V30 10159 H 943.872 2.78352 -4.00464 0
M  V30 10160 H 942.877 0.959475 -5.41363 0
M  V30 10161 H 944.102 1.2586 -6.67335 0
M  V30 10162 H 942.048 3.27325 -5.68502 0
M  V30 10163 H 941.965 2.38825 -7.17286 0
M  V30 10164 H 943.233 3.55394 -6.93769 0
M  V30 10165 N 947.462 1.57535 -0.0451378 0
M  V30 10166 C 948.71 1.92071 0.628743 0
M  V30 10167 C 949.031 0.923635 1.71738 0
M  V30 10168 O 948.301 -0.0324376 1.95873 0
M  V30 10169 H 946.881 0.708995 0.235233 0
M  V30 10170 H 949.543 1.9466 -0.0967177 0
M  V30 10171 H 948.639 2.9314 1.07123 0
M  V30 10172 N 948.94 -0.228186 1.55939 0
M  V30 10173 C 950.217 -0.977492 1.69424 0
M  V30 10174 C 950.597 -2.02674 0.590479 0
M  V30 10175 O 949.945 -2.2491 -0.403467 0
M  V30 10176 C 950.155 -1.59394 3.10475 0
M  V30 10177 C 951.503 -2.08871 3.69673 0
M  V30 10178 O 952.527 -1.693 3.13394 0
M  V30 10179 O 951.386 -2.81584 4.68372 0
M  V30 10180 H 948.48 -0.456185 0.6898 0
M  V30 10181 H 951.026 -0.220492 1.68261 0
M  V30 10182 H 949.798 -0.835971 3.82266 0
M  V30 10183 H 949.421 -2.41665 3.15727 0
M  V30 10184 N 950.418 -1.49637 -0.494624 0
M  V30 10185 C 951.348 -1.69692 -1.60396 0
M  V30 10186 C 952.329 -0.545648 -1.61111 0
M  V30 10187 O 953.514 -0.782202 -1.77751 0
M  V30 10188 C 950.644 -1.76934 -2.9885 0
M  V30 10189 C 949.598 -2.91915 -3.13001 0
M  V30 10190 C 948.924 -2.84276 -4.5287 0
M  V30 10191 C 950.224 -4.32764 -2.92426 0
M  V30 10192 H 951.918 -2.6257 -1.43866 0
M  V30 10193 H 949.464 -1.26355 -0.690679 0
M  V30 10194 H 951.417 -1.8955 -3.76362 0
M  V30 10195 H 950.141 -0.806609 -3.16483 0
M  V30 10196 H 948.8 -2.78911 -2.37916 0
M  V30 10197 H 948.448 -1.85897 -4.67388 0
M  V30 10198 H 948.148 -3.61452 -4.63278 0
M  V30 10199 H 949.672 -2.98909 -5.32434 0
M  V30 10200 H 951.086 -4.46415 -3.59703 0
M  V30 10201 H 949.483 -5.1121 -3.143 0
M  V30 10202 H 950.553 -4.46765 -1.88491 0
M  V30 10203 N 951.896 0.746133 -1.38819 0
M  V30 10204 C 953.145 1.50085 -1.34749 0
M  V30 10205 C 953.458 1.95516 0.0574786 0
M  V30 10206 O 954.664 2.70601 0.22073 0
M  V30 10207 C 953.12 2.71141 -2.36665 0
M  V30 10208 C 952.728 2.32706 -3.82821 0
M  V30 10209 C 954.472 3.49005 -2.41652 0
M  V30 10210 C 952.379 3.50418 -4.76405 0
M  V30 10211 H 951.309 0.563563 -0.500912 0
M  V30 10212 H 953.96 0.814951 -1.6441 0
M  V30 10213 H 952.342 3.4175 -2.00058 0
M  V30 10214 H 953.516 1.69715 -4.28408 0
M  V30 10215 H 951.831 1.67959 -3.81023 0
M  V30 10216 H 954.428 4.36541 -3.08766 0
M  V30 10217 H 954.771 3.90687 -1.43769 0
M  V30 10218 H 955.304 2.85416 -2.77097 0
M  V30 10219 H 952.043 3.13795 -5.75511 0
M  V30 10220 H 951.563 4.12426 -4.35505 0
M  V30 10221 H 953.242 4.16901 -4.94775 0
M  V30 10222 N 953.375 1.23811 0.975125 0
M  V30 10223 C 954.623 1.07124 1.71373 0
M  V30 10224 C 954.944 -0.391864 1.91022 0
M  V30 10225 O 954.214 -1.28041 1.48265 0
M  V30 10226 H 952.794 0.393415 0.635007 0
M  V30 10227 H 955.456 1.55612 1.17349 0
M  V30 10228 H 954.552 1.56338 2.7012 0
M  V30 10229 N 954.853 -1.17469 1.05066 0
M  V30 10230 C 956.093 -1.89382 0.769012 0
M  V30 10231 C 956.457 -1.79126 -0.691217 0
M  V30 10232 O 957.658 -2.45845 -1.08692 0
M  V30 10233 C 955.929 -3.35397 1.23465 0
M  V30 10234 S 957.488 -4.25297 1.08018 0
M  V30 10235 H 954.306 -0.653839 0.279312 0
M  V30 10236 H 956.908 -1.41877 1.34503 0
M  V30 10237 H 955.612 -3.40395 2.29258 0
M  V30 10238 H 955.143 -3.87945 0.652853 0
M  V30 10239 H 957.158 -4.962 0.00358573 0
M  V30 10240 N 956.331 -0.831506 -1.3388 0
M  V30 10241 C 957.241 -0.261688 -2.33136 0
M  V30 10242 C 958.257 0.608429 -1.63016 0
M  V30 10243 O 959.433 0.514297 -1.94723 0
M  V30 10244 C 956.498 0.559957 -3.42148 0
M  V30 10245 C 955.559 -0.333569 -4.28002 0
M  V30 10246 C 954.792 0.448956 -5.31808 0
M  V30 10247 O 955.015 1.6814 -5.45055 0
M  V30 10248 O 953.949 -0.173197 -6.01651 0
M  V30 10249 H 957.775 -1.08343 -2.83717 0
M  V30 10250 H 955.36 -0.593849 -1.3709 0
M  V30 10251 H 957.242 1.02712 -4.08691 0
M  V30 10252 H 955.917 1.35888 -2.93796 0
M  V30 10253 H 954.824 -0.848416 -3.64352 0
M  V30 10254 H 956.157 -1.09707 -4.79818 0
M  V30 10255 N 957.809 1.4625 -0.587256 0
M  V30 10256 C 958.739 2.33132 0.131076 0
M  V30 10257 C 959.72 1.45619 0.879158 0
M  V30 10258 O 960.905 1.74428 0.853723 0
M  V30 10259 C 958.035 3.27975 1.14236 0
M  V30 10260 C 956.989 4.24965 0.508819 0
M  V30 10261 C 956.315 5.09349 1.62689 0
M  V30 10262 C 957.615 5.19322 -0.55694 0
M  V30 10263 H 959.309 2.93442 -0.594333 0
M  V30 10264 H 956.855 1.41106 -0.287263 0
M  V30 10265 H 958.808 3.87614 1.65328 0
M  V30 10266 H 957.532 2.65781 1.8981 0
M  V30 10267 H 956.191 3.66595 0.0189337 0
M  V30 10268 H 955.839 4.43537 2.37242 0
M  V30 10269 H 955.539 5.75036 1.20861 0
M  V30 10270 H 957.063 5.71852 2.14049 0
M  V30 10271 H 958.477 5.73151 -0.130903 0
M  V30 10272 H 956.874 5.93376 -0.895801 0
M  V30 10273 H 957.944 4.62979 -1.44148 0
M  V30 10274 N 959.287 0.325282 1.54207 0
M  V30 10275 C 960.698 -0.162426 1.85992 0
M  V30 10276 C 961.049 -1.51482 1.2469 0
M  V30 10277 O 960.174 -2.092 0.553578 0
M  V30 10278 C 960.769 -0.3015 3.37456 0
M  V30 10279 C 959.328 -0.73343 3.69185 0
M  V30 10280 C 958.475 0.143831 2.76927 0
M  V30 10281 H 961.426 0.545508 1.4903 0
M  V30 10282 H 961.447 -1.13212 3.63268 0
M  V30 10283 H 960.959 0.682942 3.82044 0
M  V30 10284 H 959.06 -1.72755 3.30131 0
M  V30 10285 H 959.173 -0.535987 4.76092 0
M  V30 10286 H 957.537 -0.380892 2.51836 0
M  V30 10287 H 958.32 1.12507 3.24341 0
M  V30 10288 N 960.765 -1.57509 0.0534917 0
M  V30 10289 C 962.181 -1.56696 -0.303067 0
M  V30 10290 C 962.381 -1.06135 -1.71282 0
M  V30 10291 O 961.437 -0.71899 -2.42047 0
M  V30 10292 C 962.75 -3.00421 -0.129418 0
M  V30 10293 C 964.298 -3.12358 -0.200346 0
M  V30 10294 C 964.773 -4.57967 -0.0551971 0
M  V30 10295 N 966.264 -4.63066 -0.111398 0
M  V30 10296 C 966.999 -5.73395 -0.0232344 0
M  V30 10297 N 966.495 -6.92701 0.11741 0
M  V30 10298 N 968.288 -5.62045 -0.078984 0
M  V30 10299 H 960.439 -1.88696 0.975064 0
M  V30 10300 H 962.702 -0.869072 0.378706 0
M  V30 10301 H 962.408 -3.41456 0.842653 0
M  V30 10302 H 962.282 -3.66563 -0.889476 0
M  V30 10303 H 964.669 -2.71221 -1.16289 0
M  V30 10304 H 964.75 -2.48891 0.590506 0
M  V30 10305 H 964.394 -4.9979 0.904034 0
M  V30 10306 H 964.324 -5.19443 -0.865223 0
M  V30 10307 H 966.815 -3.77263 -0.219256 0
M  V30 10308 H 967.128 -7.72597 0.177326 0
M  V30 10309 H 965.473 -6.94833 0.152526 0
M  V30 10310 H 968.664 -4.67725 -0.187434 0
M  V30 10311 H 968.837 -6.48 -0.00681731 0
M  V30 10312 N 962.243 0.219913 -1.56058 0
M  V30 10313 C 963.659 0.569685 -1.49086 0
M  V30 10314 C 963.859 1.87066 -0.748903 0
M  V30 10315 O 962.915 2.50838 -0.289235 0
M  V30 10316 C 964.228 0.647397 -2.93648 0
M  V30 10317 C 965.776 0.737914 -3.04177 0
M  V30 10318 C 966.251 0.846957 -4.50101 0
M  V30 10319 N 967.742 0.911136 -4.5415 0
M  V30 10320 C 968.477 1.01525 -5.64341 0
M  V30 10321 N 967.973 1.0832 -6.8428 0
M  V30 10322 N 969.766 1.05051 -5.52196 0
M  V30 10323 H 961.917 -0.633778 -2.02724 0
M  V30 10324 H 964.18 -0.222583 -0.921499 0
M  V30 10325 H 963.886 -0.238987 -3.50887 0
M  V30 10326 H 963.76 1.51046 -3.45637 0
M  V30 10327 H 966.147 1.61474 -2.47002 0
M  V30 10328 H 966.228 -0.150845 -2.55355 0
M  V30 10329 H 965.872 -0.0254166 -5.07894 0
M  V30 10330 H 965.802 1.75116 -4.96631 0
M  V30 10331 H 968.293 0.868869 -3.67776 0
M  V30 10332 H 968.606 1.16247 -7.64007 0
M  V30 10333 H 966.951 1.05231 -6.86987 0
M  V30 10334 H 970.142 0.994086 -4.57423 0
M  V30 10335 H 970.315 1.12819 -6.38103 0
M  V30 10336 N 963.721 1.49897 0.486681 0
M  V30 10337 C 964.631 1.70379 1.6127 0
M  V30 10338 C 965.647 0.58659 1.63814 0
M  V30 10339 O 966.823 0.863044 1.81971 0
M  V30 10340 C 963.888 1.77911 2.97571 0
M  V30 10341 C 962.949 3.01569 3.0554 0
M  V30 10342 C 962.182 3.08732 4.35339 0
M  V30 10343 O 962.405 2.23099 5.2496 0
M  V30 10344 O 961.339 4.01325 4.48578 0
M  V30 10345 H 965.165 2.65799 1.46916 0
M  V30 10346 H 962.75 1.33808 0.664516 0
M  V30 10347 H 964.632 1.85135 3.78554 0
M  V30 10348 H 963.307 0.856722 3.12157 0
M  V30 10349 H 962.214 2.99854 2.23693 0
M  V30 10350 H 963.547 3.93335 2.95886 0
M  V30 10351 N 965.199 -0.738761 1.39212 0
M  V30 10352 C 966.131 -1.86286 1.3353 0
M  V30 10353 C 967.144 -1.6095 0.244755 0
M  V30 10354 O 968.333 -1.71254 0.50343 0
M  V30 10355 C 965.433 -3.22234 1.04969 0
M  V30 10356 C 964.606 -3.74956 2.25226 0
M  V30 10357 C 963.665 -4.89457 1.9318 0
M  V30 10358 O 962.691 -5.03314 2.65826 0
M  V30 10359 N 963.893 -5.73548 0.895679 0
M  V30 10360 H 966.658 -1.91666 2.304 0
M  V30 10361 H 964.219 -0.919338 1.33266 0
M  V30 10362 H 966.211 -3.96397 0.815566 0
M  V30 10363 H 964.781 -3.12146 0.168451 0
M  V30 10364 H 964.001 -2.92188 2.64612 0
M  V30 10365 H 965.289 -4.06914 3.05448 0
M  V30 10366 H 964.687 -5.64938 0.293541 0
M  V30 10367 H 963.244 -6.47795 0.721451 0
M  V30 10368 N 966.677 -1.24326 -0.968545 0
M  V30 10369 C 967.923 -1.08406 -1.71394 0
M  V30 10370 C 968.256 0.376353 -1.90518 0
M  V30 10371 O 967.531 1.27816 -1.46606 0
M  V30 10372 C 967.814 -1.82344 -3.1052 0
M  V30 10373 C 967.667 -3.3613 -2.98893 0
M  V30 10374 C 968.986 -1.59545 -4.10163 0
M  V30 10375 H 966.105 -0.395205 -0.622079 0
M  V30 10376 H 968.747 -1.52983 -1.12677 0
M  V30 10377 H 966.897 -1.44452 -3.60646 0
M  V30 10378 H 968.569 -3.83614 -2.56199 0
M  V30 10379 H 966.812 -3.64553 -2.35124 0
M  V30 10380 H 967.483 -3.83064 -3.97449 0
M  V30 10381 H 969.959 -1.92504 -3.68892 0
M  V30 10382 H 968.835 -2.13736 -5.05577 0
M  V30 10383 H 969.096 -0.533503 -4.38869 0
M  V30 10384 N 968.156 1.1691 -1.05688 0
M  V30 10385 C 969.402 1.8757 -0.771071 0
M  V30 10386 C 969.735 1.8113 0.700399 0
M  V30 10387 O 969.01 1.22273 1.5126 0
M  V30 10388 C 969.293 3.37392 -1.25851 0
M  V30 10389 C 969.146 3.52556 -2.79329 0
M  V30 10390 C 970.465 4.31585 -0.861512 0
M  V30 10391 H 967.584 0.681089 -0.281579 0
M  V30 10392 H 970.226 1.37453 -1.31174 0
M  V30 10393 H 968.376 3.80204 -0.798563 0
M  V30 10394 H 970.048 3.18725 -3.33485 0
M  V30 10395 H 968.291 2.94668 -3.1836 0
M  V30 10396 H 968.962 4.57748 -3.08498 0
M  V30 10397 H 971.438 3.96642 -1.25756 0
M  V30 10398 H 970.314 5.34939 -1.23012 0
M  V30 10399 H 970.575 4.4148 0.234089 0
M  V30 10400 N 969.634 0.838594 1.33437 0
M  V30 10401 C 970.581 0.269609 2.2922 0
M  V30 10402 C 971.551 -0.614429 1.54318 0
M  V30 10403 O 972.736 -0.552756 1.82618 0
M  V30 10404 C 969.876 -0.549527 3.40697 0
M  V30 10405 C 968.989 0.358502 4.3051 0
M  V30 10406 C 968.124 -0.471709 5.29101 0
M  V30 10407 C 967.163 0.434728 6.10554 0
M  V30 10408 N 966.3 -0.357339 7.0119 0
M  V30 10409 H 971.14 1.09172 2.77282 0
M  V30 10410 H 968.677 0.549832 1.36438 0
M  V30 10411 H 970.635 -1.03992 4.04032 0
M  V30 10412 H 969.265 -1.33661 2.93828 0
M  V30 10413 H 968.317 0.967204 3.67899 0
M  V30 10414 H 969.629 1.05483 4.87519 0
M  V30 10415 H 968.783 -1.02594 5.97963 0
M  V30 10416 H 967.522 -1.20147 4.72669 0
M  V30 10417 H 966.527 1.00097 5.40611 0
M  V30 10418 H 967.752 1.16285 6.6907 0
M  V30 10419 H 965.698 -1.07049 6.47207 0
M  V30 10420 H 965.615 0.280277 7.5548 0
M  V30 10421 H 966.883 -0.893814 7.74359 0
M  V30 10422 N 971.112 -1.45937 0.595003 0
M  V30 10423 C 972.075 -2.2888 -0.121102 0
M  V30 10424 C 973.075 -1.39075 -0.807149 0
M  V30 10425 O 974.265 -1.61326 -0.657228 0
M  V30 10426 C 971.397 -3.19778 -1.1813 0
M  V30 10427 H 972.59 -2.93673 0.607968 0
M  V30 10428 H 970.143 -1.5225 0.353495 0
M  V30 10429 H 970.878 -2.59759 -1.94154 0
M  V30 10430 H 970.663 -3.85914 -0.693724 0
M  V30 10431 H 972.153 -3.82176 -1.68319 0
M  V30 10432 N 972.59 -0.333456 -1.54032 0
M  V30 10433 C 973.538 0.543414 -2.26163 0
M  V30 10434 C 974.532 1.11037 -1.27934 0
M  V30 10435 O 975.738 1.05727 -1.45677 0
M  V30 10436 H 972.113 0.19391 -0.726569 0
M  V30 10437 H 974.084 -0.0871052 -2.98273 0
M  V30 10438 C 972.833 1.68769 -3.03994 0
M  V30 10439 H 972.156 1.26069 -3.79403 0
M  V30 10440 H 973.596 2.27662 -3.57695 0
M  V30 10441 C 972.055 2.61117 -2.12884 0
M  V30 10442 O 972.585 3.63097 -1.71823 0
M  V30 10443 N 970.791 2.29573 -1.7817 0
M  V30 10444 H 970.338 1.46684 -2.11759 0
M  V30 10445 H 970.296 2.91622 -1.1749 0
M  V30 10446 N 974.068 1.57479 -0.061844 0
M  V30 10447 C 975.031 2.1104 0.894127 0
M  V30 10448 C 976.031 1.03227 1.23292 0
M  V30 10449 O 977.221 1.29256 1.16784 0
M  V30 10450 C 974.353 2.6035 2.20069 0
M  V30 10451 H 975.546 2.96807 0.429619 0
M  V30 10452 H 973.099 1.55181 0.18672 0
M  V30 10453 H 973.834 1.78008 2.71079 0
M  V30 10454 H 973.619 3.39146 1.9678 0
M  V30 10455 H 975.109 3.019 2.88525 0
M  V30 10456 N 975.546 -0.211634 1.56173 0
M  V30 10457 C 976.823 -0.959467 1.70451 0
M  V30 10458 C 977.203 -2.02036 0.611942 0
M  V30 10459 O 976.551 -2.25325 -0.37959 0
M  V30 10460 C 976.761 -1.56092 3.12148 0
M  V30 10461 C 978.109 -2.04939 3.71867 0
M  V30 10462 O 979.133 -1.65966 3.15172 0
M  V30 10463 O 977.992 -2.766 4.71333 0
M  V30 10464 H 975.086 -0.448844 0.6946 0
M  V30 10465 H 977.632 -0.202633 1.68486 0
M  V30 10466 H 976.404 -0.79538 3.83131 0
M  V30 10467 H 976.027 -2.38303 3.18273 0
M  V30 10468 N 977.024 -1.50153 -0.478725 0
M  V30 10469 C 978.27 -1.60998 -1.23318 0
M  V30 10470 C 978.603 -0.305868 -1.91776 0
M  V30 10471 O 977.878 0.692158 -1.81767 0
M  V30 10472 C 978.161 -2.78495 -2.28282 0
M  V30 10473 C 978.014 -4.18767 -1.64178 0
M  V30 10474 C 979.333 -2.91569 -3.2966 0
M  V30 10475 H 976.452 -0.585983 -0.446982 0
M  V30 10476 H 979.094 -1.82514 -0.528063 0
M  V30 10477 H 977.244 -2.60281 -2.8842 0
M  V30 10478 H 978.916 -4.48552 -1.07696 0
M  V30 10479 H 977.159 -4.23379 -0.94514 0
M  V30 10480 H 977.83 -4.96894 -2.40417 0
M  V30 10481 H 980.306 -3.08219 -2.79536 0
M  V30 10482 H 979.182 -3.75419 -4.0044 0
M  V30 10483 H 979.443 -2.01859 -3.93326 0
M  V30 10484 N 978.502 0.731368 -1.39602 0
M  V30 10485 C 979.449 1.84541 -1.38612 0
M  V30 10486 C 980.419 1.64279 -0.245287 0
M  V30 10487 O 981.604 1.85635 -0.440954 0
M  V30 10488 C 978.744 3.22092 -1.23897 0
M  V30 10489 C 977.857 3.54034 -2.47555 0
M  V30 10490 C 976.992 4.81007 -2.25402 0
M  V30 10491 C 976.031 5.05804 -3.44716 0
M  V30 10492 N 975.168 6.23981 -3.21857 0
M  V30 10493 H 980.008 1.84722 -2.33841 0
M  V30 10494 H 977.545 0.902569 -1.16156 0
M  V30 10495 H 979.503 4.01499 -1.13376 0
M  V30 10496 H 978.133 3.2118 -0.322958 0
M  V30 10497 H 977.185 2.69301 -2.68665 0
M  V30 10498 H 978.497 3.68275 -3.36415 0
M  V30 10499 H 977.651 5.68401 -2.12143 0
M  V30 10500 H 976.39 4.68946 -1.33943 0
M  V30 10501 H 975.395 4.1687 -3.58468 0
M  V30 10502 H 976.62 5.19747 -4.37081 0
M  V30 10503 H 974.566 6.13202 -2.33065 0
M  V30 10504 H 974.483 6.38826 -4.04274 0
M  V30 10505 H 975.751 7.14205 -3.123 0
M  V30 10506 N 979.98 1.24838 0.961938 0
M  V30 10507 C 981.228 1.08936 1.70227 0
M  V30 10508 C 981.549 -0.371582 1.91427 0
M  V30 10509 O 980.819 -1.26461 1.49614 0
M  V30 10510 H 979.399 0.400128 0.630799 0
M  V30 10511 H 982.061 1.56848 1.15692 0
M  V30 10512 H 981.157 1.59195 2.68446 0
M  V30 10513 N 981.458 -1.16348 1.06306 0
M  V30 10514 C 982.388 -2.2291 0.695234 0
M  V30 10515 C 983.369 -1.67208 -0.312343 0
M  V30 10516 O 984.554 -1.93293 -0.187442 0
M  V30 10517 C 981.684 -3.47205 0.0810149 0
M  V30 10518 C 980.638 -4.15801 1.01458 0
M  V30 10519 C 979.964 -5.3405 0.263656 0
M  V30 10520 C 981.264 -4.66766 2.34365 0
M  V30 10521 H 982.958 -2.53934 1.58613 0
M  V30 10522 H 980.504 -1.22056 0.76409 0
M  V30 10523 H 982.457 -4.2098 -0.18818 0
M  V30 10524 H 981.181 -3.15482 -0.844897 0
M  V30 10525 H 979.84 -3.43954 1.26852 0
M  V30 10526 H 979.488 -4.9858 -0.665378 0
M  V30 10527 H 979.188 -5.80885 0.88582 0
M  V30 10528 H 980.712 -6.106 0.00200994 0
M  V30 10529 H 982.126 -5.3212 2.13356 0
M  V30 10530 H 980.523 -5.24223 2.9208 0
M  V30 10531 H 981.593 -3.82969 2.97426 0
M  V30 10532 N 982.937 -0.845659 -1.3299 0
M  V30 10533 C 984.165 -0.45835 -2.01759 0
M  V30 10534 C 984.58 0.94239 -1.63598 0
M  V30 10535 O 983.937 1.61353 -0.852738 0
M  V30 10536 C 983.988 -0.577311 -3.5686 0
M  V30 10537 O 983.709 -1.92287 -3.93646 0
M  V30 10538 C 985.21 -0.187839 -4.42902 0
M  V30 10539 H 982.43 -0.181165 -0.646081 0
M  V30 10540 H 984.974 -1.14011 -1.6977 0
M  V30 10541 H 983.129 0.0566146 -3.87359 0
M  V30 10542 H 983.543 -1.91322 -4.88361 0
M  V30 10543 H 985.017 -0.322105 -5.51059 0
M  V30 10544 H 985.494 0.870896 -4.30479 0
M  V30 10545 H 986.1 -0.796473 -4.17776 0
M  V30 10546 N 984.415 1.45619 -0.602734 0
M  V30 10547 C 985.645 2.06348 -0.102105 0
M  V30 10548 C 986.053 1.44884 1.21677 0
M  V30 10549 O 985.396 0.555559 1.75098 0
M  V30 10550 C 985.458 3.59309 0.117026 0
M  V30 10551 C 985.122 4.43081 -1.11931 0
M  V30 10552 C 986.119 4.78364 -2.03627 0
M  V30 10553 C 983.804 4.83908 -1.34677 0
M  V30 10554 C 985.798 5.53325 -3.16403 0
M  V30 10555 C 983.485 5.58624 -2.47754 0
M  V30 10556 C 984.483 5.93249 -3.38445 0
M  V30 10557 O 984.171 6.6645 -4.49555 0
M  V30 10558 H 983.903 0.672988 -0.0637478 0
M  V30 10559 H 986.457 1.87928 -0.828983 0
M  V30 10560 H 984.687 3.76111 0.898742 0
M  V30 10561 H 986.376 4.01897 0.568649 0
M  V30 10562 H 987.142 4.47384 -1.87277 0
M  V30 10563 H 983.021 4.56396 -0.649875 0
M  V30 10564 H 986.565 5.80268 -3.87214 0
M  V30 10565 H 982.462 5.89019 -2.64059 0
M  V30 10566 H 983.23 6.84895 -4.48175 0
M  V30 10567 N 985.893 0.34162 1.53853 0
M  V30 10568 C 987.133 -0.255853 2.02792 0
M  V30 10569 C 987.497 -1.47921 1.22407 0
M  V30 10570 O 988.698 -2.15073 1.61236 0
M  V30 10571 C 986.969 -0.564117 3.5292 0
M  V30 10572 S 988.528 -1.13868 4.23768 0
M  V30 10573 H 985.346 -0.0762867 0.706896 0
M  V30 10574 H 987.948 0.478934 1.89543 0
M  V30 10575 H 986.652 0.334098 4.09038 0
M  V30 10576 H 986.183 -1.32862 3.70285 0
M  V30 10577 H 988.198 -2.42451 4.32934 0
M  V30 10578 N 987.371 -1.57444 0.0701946 0
M  V30 10579 C 988.617 -1.93716 -0.600178 0
M  V30 10580 C 988.95 -0.950329 -1.69359 0
M  V30 10581 O 988.225 0.0207123 -1.94489 0
M  V30 10582 C 988.508 -3.40266 -1.17861 0
M  V30 10583 C 988.361 -4.49706 -0.0919575 0
M  V30 10584 C 989.68 -3.87599 -2.08459 0
M  V30 10585 H 986.799 -0.704421 -0.216704 0
M  V30 10586 H 989.441 -1.89514 0.135838 0
M  V30 10587 H 987.591 -3.43977 -1.80587 0
M  V30 10588 H 989.263 -4.58116 0.541031 0
M  V30 10589 H 987.506 -4.29937 0.577639 0
M  V30 10590 H 988.177 -5.49381 -0.537048 0
M  V30 10591 H 990.653 -3.85883 -1.5567 0
M  V30 10592 H 989.529 -4.90755 -2.45867 0
M  V30 10593 H 989.79 -3.25448 -2.99226 0
M  V30 10594 N 988.849 0.203349 -1.56283 0
M  V30 10595 C 989.779 1.2549 -1.96912 0
M  V30 10596 C 990.76 1.47919 -0.839884 0
M  V30 10597 O 991.945 1.59795 -1.10359 0
M  V30 10598 C 989.075 2.6009 -2.30153 0
M  V30 10599 C 988.029 2.52289 -3.45738 0
M  V30 10600 C 987.355 3.91086 -3.64632 0
M  V30 10601 C 988.655 2.05503 -4.80173 0
M  V30 10602 H 990.349 0.917306 -2.85002 0
M  V30 10603 H 987.895 0.439818 -1.37119 0
M  V30 10604 H 989.848 3.33829 -2.5717 0
M  V30 10605 H 988.572 2.95574 -1.38937 0
M  V30 10606 H 987.231 1.81006 -3.18798 0
M  V30 10607 H 986.879 4.23908 -2.7076 0
M  V30 10608 H 986.579 3.86742 -4.42385 0
M  V30 10609 H 988.103 4.66459 -3.94016 0
M  V30 10610 H 989.517 2.68995 -5.06275 0
M  V30 10611 H 987.914 2.1218 -5.61337 0
M  V30 10612 H 988.984 1.00793 -4.74309 0
M  V30 10613 N 990.327 1.50405 0.470755 0
M  V30 10614 C 991.259 1.65447 1.58619 0
M  V30 10615 C 992.272 0.535949 1.53725 0
M  V30 10616 O 993.461 0.80914 1.59107 0
M  V30 10617 C 990.561 1.62318 2.975 0
M  V30 10618 C 989.734 2.90207 3.27259 0
M  V30 10619 C 988.793 2.79717 4.45696 0
M  V30 10620 O 987.819 3.53672 4.45987 0
M  V30 10621 N 989.021 1.93296 5.47373 0
M  V30 10622 H 991.786 2.61659 1.46132 0
M  V30 10623 H 989.347 1.47873 0.659178 0
M  V30 10624 H 991.339 1.52912 3.747 0
M  V30 10625 H 989.909 0.738392 3.03754 0
M  V30 10626 H 989.129 3.13737 2.38669 0
M  V30 10627 H 990.417 3.74931 3.43953 0
M  V30 10628 H 989.815 1.32524 5.49958 0
M  V30 10629 H 988.372 1.89793 6.23556 0
M  V30 10630 N 991.805 -0.723954 1.39988 0
M  V30 10631 C 993.045 -1.49624 1.39255 0
M  V30 10632 C 993.409 -1.91998 -0.00860198 0
M  V30 10633 O 994.61 -2.6843 -0.141002 0
M  V30 10634 C 992.881 -2.69514 2.34728 0
M  V30 10635 S 994.44 -3.59027 2.5228 0
M  V30 10636 H 991.258 -0.511661 0.493685 0
M  V30 10637 H 993.86 -0.847322 1.76184 0
M  V30 10638 H 992.564 -2.36541 3.35375 0
M  V30 10639 H 992.095 -3.39325 1.99053 0
M  V30 10640 H 994.11 -4.63597 1.76896 0
M  V30 10641 N 993.283 -1.25346 -0.955304 0
M  V30 10642 C 994.213 -1.08152 -2.06943 0
M  V30 10643 C 995.194 0.00922598 -1.70097 0
M  V30 10644 O 996.379 -0.160181 -1.93538 0
M  V30 10645 C 993.509 -0.698745 -3.40198 0
M  V30 10646 C 992.463 -1.73965 -3.9105 0
M  V30 10647 C 991.789 -1.21158 -5.20792 0
M  V30 10648 C 993.089 -3.13829 -4.17503 0
M  V30 10649 H 994.783 -2.01345 -2.21586 0
M  V30 10650 H 992.329 -0.969459 -1.06478 0
M  V30 10651 H 994.282 -0.565394 -4.1759 0
M  V30 10652 H 993.006 0.268892 -3.25491 0
M  V30 10653 H 991.665 -1.86143 -3.15827 0
M  V30 10654 H 991.313 -0.234193 -5.02455 0
M  V30 10655 H 991.013 -1.90728 -5.55785 0
M  V30 10656 H 992.537 -1.09061 -6.00781 0
M  V30 10657 H 993.951 -3.04809 -4.85556 0
M  V30 10658 H 992.348 -3.80863 -4.63749 0
M  V30 10659 H 993.418 -3.6094 -3.23806 0
M  V30 10660 N 994.761 1.15782 -1.06922 0
M  V30 10661 C 995.693 2.19978 -0.643604 0
M  V30 10662 C 996.706 1.59981 0.301653 0
M  V30 10663 O 997.895 1.78265 0.0916508 0
M  V30 10664 C 994.995 3.38815 0.0757973 0
M  V30 10665 C 994.168 4.28363 -0.884545 0
M  V30 10666 C 993.227 5.25807 -0.203233 0
M  V30 10667 O 992.253 5.62924 -0.842904 0
M  V30 10668 N 993.455 5.70874 1.05279 0
M  V30 10669 H 996.22 2.57112 -1.53992 0
M  V30 10670 H 993.781 1.30855 -0.953344 0
M  V30 10671 H 995.773 4.01052 0.542151 0
M  V30 10672 H 994.343 3.00133 0.874 0
M  V30 10673 H 993.563 3.63292 -1.53012 0
M  V30 10674 H 994.851 4.85067 -1.53581 0
M  V30 10675 H 994.249 5.42822 1.5925 0
M  V30 10676 H 992.806 6.35171 1.46289 0
M  V30 10677 N 996.239 0.8527 1.3254 0
M  V30 10678 C 997.169 0.311234 2.31416 0
M  V30 10679 C 998.15 -0.588557 1.59593 0
M  V30 10680 O 999.335 -0.509211 1.87405 0
M  V30 10681 C 996.465 -0.502892 3.4364 0
M  V30 10682 C 995.419 0.302296 4.26931 0
M  V30 10683 C 994.745 -0.636445 5.30899 0
M  V30 10684 C 996.045 1.52697 4.99481 0
M  V30 10685 H 997.739 1.13742 2.76953 0
M  V30 10686 H 995.285 0.548389 1.33149 0
M  V30 10687 H 997.238 -0.892092 4.11849 0
M  V30 10688 H 995.962 -1.36242 2.96826 0
M  V30 10689 H 994.621 0.673226 3.60365 0
M  V30 10690 H 994.269 -1.49277 4.80339 0
M  V30 10691 H 993.969 -0.101716 5.87512 0
M  V30 10692 H 995.493 -1.02286 6.01972 0
M  V30 10693 H 996.907 1.21017 5.60382 0
M  V30 10694 H 995.304 1.9995 5.65809 0
M  V30 10695 H 996.374 2.28929 4.27457 0
M  V30 10696 N 997.718 -1.45297 0.610449 0
M  V30 10697 C 998.681 -2.28995 -0.0968194 0
M  V30 10698 C 999.681 -1.39923 -0.792353 0
M  V30 10699 O 1000.87 -1.62014 -0.64008 0
M  V30 10700 C 998.003 -3.21013 -1.14731 0
M  V30 10701 H 999.196 -2.93012 0.639082 0
M  V30 10702 H 996.749 -1.51867 0.369624 0
M  V30 10703 H 997.484 -2.61803 -1.91388 0
M  V30 10704 H 997.269 -3.86628 -0.652753 0
M  V30 10705 H 998.759 -3.8394 -1.64256 0
M  V30 10706 N 999.196 -0.349774 -1.5367 0
M  V30 10707 C 1000.44 0.244343 -2.00617 0
M  V30 10708 C 1000.76 1.50567 -1.23914 0
M  V30 10709 O 1000.03 1.92784 -0.348016 0
M  V30 10710 H 998.615 0.0932792 -0.741153 0
M  V30 10711 H 1001.28 -0.472367 -1.89089 0
M  V30 10712 H 1000.37 0.482433 -3.08349 0
M  V30 10713 N 1000.67 1.57404 -0.0785433 0
M  V30 10714 C 1001.6 2.16131 0.883726 0
M  V30 10715 C 1002.58 1.09015 1.30575 0
M  V30 10716 O 1003.77 1.3708 1.37559 0
M  V30 10717 C 1000.9 2.72836 2.1489 0
M  V30 10718 C 999.854 3.85178 1.86605 0
M  V30 10719 C 999.18 4.28516 3.1981 0
M  V30 10720 C 1000.48 5.09118 1.16601 0
M  V30 10721 H 1002.17 2.9679 0.394484 0
M  V30 10722 H 999.72 1.42763 0.188304 0
M  V30 10723 H 1001.67 3.12567 2.8263 0
M  V30 10724 H 1000.4 1.89408 2.66068 0
M  V30 10725 H 999.056 3.45962 1.21268 0
M  V30 10726 H 998.704 3.42 3.68843 0
M  V30 10727 H 998.404 5.04249 3.01674 0
M  V30 10728 H 999.928 4.70868 3.88737 0
M  V30 10729 H 1001.34 5.46123 1.74422 0
M  V30 10730 H 999.739 5.90173 1.087 0
M  V30 10731 H 1000.81 4.8468 0.146138 0
M  V30 10732 N 1002.15 -0.195058 1.56388 0
M  V30 10733 C 1003.1 -1.24584 1.90952 0
M  V30 10734 C 1004.09 -1.40993 0.77522 0
M  V30 10735 O 1005.28 -1.43363 1.03808 0
M  V30 10736 C 1002.41 -2.59064 2.25258 0
M  V30 10737 C 1001.49 -2.46447 3.45145 0
M  V30 10738 N 1001.88 -2.0351 4.63052 0
M  V30 10739 C 1000.18 -2.77339 3.49283 0
M  V30 10740 C 1000.88 -2.02785 5.45209 0
M  V30 10741 N 999.859 -2.4429 4.85616 0
M  V30 10742 H 1003.66 -0.9052 2.79613 0
M  V30 10743 H 1001.17 -0.403493 1.57308 0
M  V30 10744 H 1003.17 -3.34963 2.48205 0
M  V30 10745 H 1001.83 -2.93951 1.37924 0
M  V30 10746 H 1002.84 -1.74219 4.87717 0
M  V30 10747 H 999.52 -3.16423 2.72365 0
M  V30 10748 H 1000.91 -1.71489 6.49647 0
M  V30 10749 N 1003.63 -1.50653 -0.462772 0
M  V30 10750 C 1004.91 -1.5258 -1.22387 0
M  V30 10751 C 1005.29 -0.275263 -2.09298 0
M  V30 10752 O 1004.63 0.740943 -2.16153 0
M  V30 10753 C 1004.84 -2.82611 -2.04773 0
M  V30 10754 C 1006.19 -3.33592 -2.62681 0
M  V30 10755 O 1007.22 -2.83989 -2.15008 0
M  V30 10756 O 1006.08 -4.20081 -3.49563 0
M  V30 10757 H 1003.17 -0.612367 -0.55582 0
M  V30 10758 H 1005.72 -1.62948 -0.473914 0
M  V30 10759 H 1004.49 -3.65098 -1.40781 0
M  V30 10760 H 1004.11 -2.75286 -2.86886 0
M  V30 10761 N 1005.11 0.71652 -1.4037 0
M  V30 10762 C 1006.33 1.51069 -1.42102 0
M  V30 10763 C 1006.76 1.88087 -0.0222387 0
M  V30 10764 O 1006.12 1.53204 0.969448 0
M  V30 10765 C 1006.16 2.76307 -2.31704 0
M  V30 10766 O 1005.27 3.72975 -1.75964 0
M  V30 10767 H 1004.61 0.455502 -0.483129 0
M  V30 10768 H 1007.14 0.882514 -1.84588 0
M  V30 10769 H 1007.15 3.24846 -2.46859 0
M  V30 10770 H 1005.82 2.48698 -3.3335 0
M  V30 10771 H 1004.4 3.31818 -1.70151 0
M  V30 10772 N 1006.59 1.25851 0.948643 0
M  V30 10773 C 1007.52 1.09248 2.06367 0
M  V30 10774 C 1008.5 -0.000205168 1.701 0
M  V30 10775 O 1009.68 0.170442 1.93451 0
M  V30 10776 C 1006.81 0.716777 3.39823 0
M  V30 10777 C 1005.77 1.76036 3.90122 0
M  V30 10778 C 1005.09 1.23918 5.20143 0
M  V30 10779 C 1006.39 3.16039 4.15833 0
M  V30 10780 H 1008.09 2.02518 2.20515 0
M  V30 10781 H 1005.63 0.975093 1.05962 0
M  V30 10782 H 1007.59 0.587531 4.17284 0
M  V30 10783 H 1006.31 -0.251626 3.25629 0
M  V30 10784 H 1004.97 1.87815 3.14835 0
M  V30 10785 H 1004.62 0.260836 5.02323 0
M  V30 10786 H 1004.32 1.93673 5.54765 0
M  V30 10787 H 1005.84 1.12245 6.00194 0
M  V30 10788 H 1007.25 3.0738 4.83933 0
M  V30 10789 H 1005.65 3.83317 4.61723 0
M  V30 10790 H 1006.72 3.62652 3.21887 0
M  V30 10791 N 1008.06 -1.15214 1.07534 0
M  V30 10792 C 1009.03 -2.18209 0.701237 0
M  V30 10793 C 1010.03 -1.58693 -0.25946 0
M  V30 10794 O 1011.22 -1.74154 -0.0401744 0
M  V30 10795 C 1008.35 -3.40883 0.0338703 0
M  V30 10796 H 1009.54 -2.5282 1.61314 0
M  V30 10797 H 1007.1 -1.29707 0.872105 0
M  V30 10798 H 1007.83 -3.11843 -0.890187 0
M  V30 10799 H 1007.62 -3.85342 0.72486 0
M  V30 10800 H 1009.11 -4.17056 -0.213152 0
M  V30 10801 N 1009.54 -0.859717 -1.32086 0
M  V30 10802 C 1010.47 -0.323502 -2.31248 0
M  V30 10803 C 1011.45 0.580085 -1.59903 0
M  V30 10804 O 1012.64 0.499265 -1.87673 0
M  V30 10805 C 1009.77 0.484661 -3.43902 0
M  V30 10806 C 1008.72 -0.324933 -4.26765 0
M  V30 10807 C 1008.05 0.608281 -5.31229 0
M  V30 10808 C 1009.35 -1.55344 -4.98664 0
M  V30 10809 H 1011.04 -1.15209 -2.76346 0
M  V30 10810 H 1008.59 -0.555442 -1.32856 0
M  V30 10811 H 1010.54 0.870238 -4.12316 0
M  V30 10812 H 1009.27 1.34666 -2.97544 0
M  V30 10813 H 1007.92 -0.692328 -3.60003 0
M  V30 10814 H 1007.57 1.46727 -4.81124 0
M  V30 10815 H 1007.27 0.0705571 -5.87558 0
M  V30 10816 H 1008.8 0.990925 -6.02506 0
M  V30 10817 H 1010.21 -1.23987 -5.59732 0
M  V30 10818 H 1008.61 -2.02947 -5.64741 0
M  V30 10819 H 1009.68 -2.31192 -4.26237 0
M  V30 10820 N 1011.02 1.44971 -0.618145 0
M  V30 10821 C 1012.25 2.06228 -0.123985 0
M  V30 10822 C 1012.66 1.46166 1.20134 0
M  V30 10823 O 1012 0.574099 1.74499 0
M  V30 10824 C 1012.06 3.59413 0.0789098 0
M  V30 10825 C 1011.73 4.41869 -1.16624 0
M  V30 10826 C 1012.72 4.76177 -2.0869 0
M  V30 10827 C 1010.41 4.82453 -1.39802 0
M  V30 10828 C 1012.4 5.49938 -3.22254 0
M  V30 10829 C 1010.09 5.55965 -2.53665 0
M  V30 10830 C 1011.09 5.89626 -3.44718 0
M  V30 10831 O 1010.78 6.61644 -4.56598 0
M  V30 10832 H 1010.51 0.672274 -0.0708822 0
M  V30 10833 H 1013.06 1.87038 -0.848868 0
M  V30 10834 H 1011.29 3.77043 0.8588 0
M  V30 10835 H 1012.98 4.02478 0.52599 0
M  V30 10836 H 1013.75 4.45372 -1.92012 0
M  V30 10837 H 1009.63 4.55681 -0.698245 0
M  V30 10838 H 1013.17 5.76129 -3.93347 0
M  V30 10839 H 1009.07 5.86185 -2.70291 0
M  V30 10840 H 1009.84 6.80103 -4.55414 0
M  V30 10841 N 1012.5 0.357919 1.53482 0
M  V30 10842 C 1013.91 -0.122938 1.86295 0
M  V30 10843 C 1014.26 -1.48803 1.27875 0
M  V30 10844 O 1013.39 -2.07978 0.597828 0
M  V30 10845 C 1013.98 -0.229853 3.38019 0
M  V30 10846 C 1012.54 -0.654955 3.70658 0
M  V30 10847 C 1011.69 0.202539 2.76559 0
M  V30 10848 H 1014.64 0.576997 1.47839 0
M  V30 10849 H 1014.66 -1.05481 3.65587 0
M  V30 10850 H 1014.17 0.763825 3.80509 0
M  V30 10851 H 1012.27 -1.65714 3.33721 0
M  V30 10852 H 1012.38 -0.43488 4.77122 0
M  V30 10853 H 1010.75 -0.327388 2.52587 0
M  V30 10854 H 1011.53 1.19361 3.21882 0
M  V30 10855 N 1013.98 -1.5736 0.0868897 0
M  V30 10856 C 1014.89 -2.17087 -0.889402 0
M  V30 10857 C 1015.9 -1.13809 -1.31619 0
M  V30 10858 O 1017.08 -1.46143 -1.38579 0
M  V30 10859 C 1014.14 -2.73286 -2.13344 0
M  V30 10860 C 1013.2 -3.91491 -1.76164 0
M  V30 10861 C 1012.44 -4.45 -2.94637 0
M  V30 10862 O 1012.66 -3.97467 -4.09116 0
M  V30 10863 O 1011.59 -5.36133 -2.73579 0
M  V30 10864 H 1015.42 -3.00902 -0.411275 0
M  V30 10865 H 1013.01 -1.4877 -0.137015 0
M  V30 10866 H 1014.89 -3.0924 -2.86266 0
M  V30 10867 H 1013.56 -1.92521 -2.60225 0
M  V30 10868 H 1012.47 -3.60363 -1.00447 0
M  V30 10869 H 1013.8 -4.73593 -1.34053 0
M  V30 10870 N 1015.45 0.186762 -1.56489 0
M  V30 10871 C 1016.7 0.905852 -1.81109 0
M  V30 10872 C 1017.03 1.82906 -0.661477 0
M  V30 10873 O 1016.28 1.92504 0.35226 0
M  V30 10874 C 1016.58 1.74719 -3.11782 0
M  V30 10875 C 1016.25 0.974238 -4.40249 0
M  V30 10876 C 1014.91 0.760856 -4.75147 0
M  V30 10877 C 1017.26 0.430971 -5.19415 0
M  V30 10878 C 1014.59 -0.00714216 -5.867 0
M  V30 10879 C 1016.94 -0.323859 -6.3177 0
M  V30 10880 C 1015.61 -0.548183 -6.65245 0
M  V30 10881 H 1014.88 0.331475 -0.662726 0
M  V30 10882 H 1017.52 0.171703 -1.90729 0
M  V30 10883 H 1015.83 2.55027 -2.97437 0
M  V30 10884 H 1017.53 2.30634 -3.28038 0
M  V30 10885 H 1014.12 1.15057 -4.12868 0
M  V30 10886 H 1018.3 0.583205 -4.92861 0
M  V30 10887 H 1013.56 -0.190832 -6.11102 0
M  V30 10888 H 1017.73 -0.752155 -6.92326 0
M  V30 10889 H 1015.36 -1.14518 -7.51525 0
M  V30 10890 N 1016.93 1.50896 0.454776 0
M  V30 10891 C 1017.9 1.70377 1.53312 0
M  V30 10892 C 1018.9 0.57408 1.50203 0
M  V30 10893 O 1020.09 0.841374 1.52534 0
M  V30 10894 C 1017.22 1.74411 2.92905 0
M  V30 10895 H 1018.41 2.66599 1.37349 0
M  V30 10896 H 1015.96 1.40622 0.68228 0
M  V30 10897 H 1016.7 0.799408 3.14293 0
M  V30 10898 H 1016.48 2.56496 2.96568 0
M  V30 10899 H 1017.97 1.91382 3.71164 0
M  V30 10900 N 1018.41 -0.709066 1.40748 0
M  V30 10901 C 1019.82 -1.28847 1.35112 0
M  V30 10902 C 1020.17 -1.9618 0.0277149 0
M  V30 10903 O 1019.3 -1.97955 -0.874233 0
M  V30 10904 C 1019.89 -2.34306 2.44716 0
M  V30 10905 C 1018.45 -2.87856 2.4252 0
M  V30 10906 C 1017.6 -1.61723 2.25257 0
M  V30 10907 H 1020.55 -0.504742 1.50459 0
M  V30 10908 H 1020.57 -3.15297 2.12998 0
M  V30 10909 H 1020.08 -1.85271 3.41022 0
M  V30 10910 H 1018.18 -3.41103 1.49931 0
M  V30 10911 H 1018.3 -3.39205 3.38344 0
M  V30 10912 H 1016.66 -1.87032 1.7289 0
M  V30 10913 H 1017.44 -1.14703 3.23571 0
M  V30 10914 N 1019.89 -1.26353 -0.941956 0
M  V30 10915 C 1021.31 -1.03448 -1.21534 0
M  V30 10916 C 1021.51 0.240855 -2.00055 0
M  V30 10917 O 1020.56 0.950199 -2.33939 0
M  V30 10918 C 1021.87 -2.2654 -1.97737 0
M  V30 10919 C 1023.42 -2.31433 -2.10731 0
M  V30 10920 C 1023.9 -3.54216 -2.90336 0
M  V30 10921 N 1025.39 -3.54688 -2.9791 0
M  V30 10922 C 1026.12 -4.4636 -3.59931 0
M  V30 10923 N 1025.62 -5.48319 -4.2346 0
M  V30 10924 N 1027.41 -4.34013 -3.57196 0
M  V30 10925 H 1019.56 -2.08266 -0.417005 0
M  V30 10926 H 1021.83 -0.915251 -0.247021 0
M  V30 10927 H 1021.53 -3.19299 -1.47449 0
M  V30 10928 H 1021.41 -2.30726 -2.98405 0
M  V30 10929 H 1023.79 -1.3919 -2.60212 0
M  V30 10930 H 1023.87 -2.31259 -1.09329 0
M  V30 10931 H 1023.52 -4.46788 -2.41543 0
M  V30 10932 H 1023.45 -3.51637 -3.91993 0
M  V30 10933 H 1025.94 -2.80942 -2.52745 0
M  V30 10934 H 1026.25 -6.14458 -4.6868 0
M  V30 10935 H 1024.6 -5.52177 -4.22049 0
M  V30 10936 H 1027.79 -3.53578 -3.06758 0
M  V30 10937 H 1027.96 -5.0565 -4.05244 0
M  V30 10938 N 1021.37 1.14642 -1.08144 0
M  V30 10939 C 1022.61 1.85617 -0.809484 0
M  V30 10940 C 1022.94 1.8279 0.664672 0
M  V30 10941 O 1022.2 1.25178 1.50429 0
M  V30 10942 C 1022.5 3.33953 -1.2732 0
M  V30 10943 C 1022.16 3.56969 -2.7547 0
M  V30 10944 C 1020.82 3.6296 -3.15933 0
M  V30 10945 C 1023.18 3.66014 -3.71057 0
M  V30 10946 C 1020.5 3.75515 -4.50783 0
M  V30 10947 C 1022.86 3.80094 -5.05679 0
M  V30 10948 C 1021.52 3.84333 -5.45751 0
M  V30 10949 H 1020.79 0.67922 -0.296211 0
M  V30 10950 H 1023.44 1.35433 -1.35389 0
M  V30 10951 H 1021.74 3.86399 -0.648329 0
M  V30 10952 H 1023.44 3.87291 -1.03957 0
M  V30 10953 H 1020.03 3.52953 -2.4315 0
M  V30 10954 H 1024.21 3.60679 -3.40917 0
M  V30 10955 H 1019.47 3.77057 -4.81288 0
M  V30 10956 H 1023.64 3.86035 -5.79612 0
M  V30 10957 H 1021.27 3.93814 -6.50242 0
M  V30 10958 N 1022.85 0.866709 1.31628 0
M  V30 10959 C 1024.07 0.48956 2.01539 0
M  V30 10960 C 1024.5 -0.909556 1.64647 0
M  V30 10961 O 1023.85 -1.59959 0.853391 0
M  V30 10962 C 1023.9 0.650176 3.5469 0
M  V30 10963 O 1023.01 -0.311908 4.11219 0
M  V30 10964 H 1022.35 0.195144 0.634677 0
M  V30 10965 H 1024.88 1.16923 1.679 0
M  V30 10966 H 1024.89 0.542236 4.04381 0
M  V30 10967 H 1023.56 1.67038 3.80882 0
M  V30 10968 H 1022.14 -0.159197 3.7256 0
M  V30 10969 N 1024.32 -1.44642 0.625825 0
M  V30 10970 C 1025.74 -1.56925 0.290992 0
M  V30 10971 C 1025.94 -1.61424 -1.20601 0
M  V30 10972 O 1025 -1.55439 -1.98985 0
M  V30 10973 C 1026.31 -2.84343 0.978242 0
M  V30 10974 C 1027.86 -2.98047 0.955882 0
M  V30 10975 C 1028.33 -4.2826 1.62349 0
M  V30 10976 N 1029.82 -4.35062 1.58983 0
M  V30 10977 C 1030.56 -5.34524 2.07538 0
M  V30 10978 N 1030.05 -6.4042 2.6426 0
M  V30 10979 N 1031.85 -5.25998 1.98198 0
M  V30 10980 H 1024 -1.39965 1.59761 0
M  V30 10981 H 1026.26 -0.670368 0.670306 0
M  V30 10982 H 1025.97 -2.86985 2.03304 0
M  V30 10983 H 1025.84 -3.73699 0.512726 0
M  V30 10984 H 1028.23 -2.94961 -0.0904292 0
M  V30 10985 H 1028.31 -2.10053 1.45984 0
M  V30 10986 H 1027.95 -4.32105 2.66923 0
M  V30 10987 H 1027.88 -5.15102 1.09441 0
M  V30 10988 H 1030.37 -3.59147 1.17565 0
M  V30 10989 H 1030.69 -7.1259 2.99056 0
M  V30 10990 H 1029.03 -6.41121 2.68308 0
M  V30 10991 H 1032.22 -4.42178 1.5361 0
M  V30 10992 H 1032.4 -6.03359 2.3635 0
M  V30 10993 N 1025.8 -0.366053 -1.5329 0
M  V30 10994 C 1027.05 0.223051 -2.00865 0
M  V30 10995 C 1027.37 1.49244 -1.25504 0
M  V30 10996 O 1026.64 1.92404 -0.368444 0
M  V30 10997 H 1025.22 0.085413 -0.742101 0
M  V30 10998 H 1027.88 -0.492396 -1.88578 0
M  V30 10999 H 1026.98 0.449701 -3.08843 0
M  V30 11000 N 1027.28 1.57312 -0.0952337 0
M  V30 11001 C 1028.21 2.17056 0.860753 0
M  V30 11002 C 1029.19 1.10394 1.29411 0
M  V30 11003 O 1030.38 1.38532 1.36098 0
M  V30 11004 C 1027.51 2.751 2.11984 0
M  V30 11005 C 1026.46 3.87136 1.8251 0
M  V30 11006 C 1025.79 4.31883 3.15247 0
M  V30 11007 C 1027.09 5.10326 1.11194 0
M  V30 11008 H 1028.78 2.97192 0.362983 0
M  V30 11009 H 1026.33 1.42955 0.173151 0
M  V30 11010 H 1028.28 3.15547 2.79299 0
M  V30 11011 H 1027 1.92219 2.64044 0
M  V30 11012 H 1025.66 3.47229 1.17592 0
M  V30 11013 H 1025.31 3.45893 3.65195 0
M  V30 11014 H 1025.01 5.0742 2.96309 0
M  V30 11015 H 1026.53 4.74964 3.83721 0
M  V30 11016 H 1027.95 5.47942 1.6862 0
M  V30 11017 H 1026.34 5.91293 1.02435 0
M  V30 11018 H 1027.41 4.84807 0.0947227 0
M  V30 11019 N 1028.76 -0.17846 1.56586 0
M  V30 11020 C 1030.17 -0.529957 1.50544 0
M  V30 11021 C 1030.37 -1.85015 0.798237 0
M  V30 11022 O 1029.43 -2.49983 0.355639 0
M  V30 11023 C 1030.74 -0.569314 2.95261 0
M  V30 11024 C 1032.29 -0.657008 3.06027 0
M  V30 11025 C 1032.77 -0.727323 4.52188 0
M  V30 11026 N 1034.26 -0.790406 4.56406 0
M  V30 11027 C 1034.99 -0.865265 5.66834 0
M  V30 11028 N 1034.49 -0.901398 6.86911 0
M  V30 11029 N 1036.28 -0.903736 5.54787 0
M  V30 11030 H 1028.43 0.687304 2.00972 0
M  V30 11031 H 1030.69 0.246936 0.915274 0
M  V30 11032 H 1030.4 0.331934 3.5013 0
M  V30 11033 H 1030.27 -1.41828 3.4952 0
M  V30 11034 H 1032.66 -1.54868 2.51197 0
M  V30 11035 H 1032.74 0.218495 2.54865 0
M  V30 11036 H 1032.39 0.160067 5.07648 0
M  V30 11037 H 1032.32 -1.61887 5.01099 0
M  V30 11038 H 1034.81 -0.771054 3.6995 0
M  V30 11039 H 1035.12 -0.959494 7.6682 0
M  V30 11040 H 1033.47 -0.869795 6.89536 0
M  V30 11041 H 1036.66 -0.872459 4.59898 0
M  V30 11042 H 1036.83 -0.958615 6.4087 0
M  V30 11043 N 1030.24 -1.51135 -0.446768 0
M  V30 11044 C 1031.48 -1.63013 -1.19461 0
M  V30 11045 C 1031.8 -0.344067 -1.91941 0
M  V30 11046 O 1031.07 0.639666 -1.85162 0
M  V30 11047 H 1029.65 -0.600757 -0.443959 0
M  V30 11048 H 1032.32 -1.88024 -0.513137 0
M  V30 11049 H 1031.41 -2.45322 -1.92933 0
M  V30 11050 N 1031.71 0.701592 -1.41122 0
M  V30 11051 C 1032.62 1.84548 -1.44841 0
M  V30 11052 C 1033.64 1.70654 -0.339594 0
M  V30 11053 O 1034.82 1.92675 -0.586378 0
M  V30 11054 C 1031.88 3.20477 -1.3227 0
M  V30 11055 C 1030.94 3.46524 -2.53415 0
M  V30 11056 C 1030.17 4.75968 -2.41434 0
M  V30 11057 O 1030.4 5.52037 -1.43566 0
M  V30 11058 O 1029.33 5.02664 -3.31078 0
M  V30 11059 H 1033.16 1.84367 -2.41335 0
M  V30 11060 H 1030.74 0.853863 -1.22595 0
M  V30 11061 H 1032.62 4.01642 -1.2752 0
M  V30 11062 H 1031.3 3.21355 -0.388889 0
M  V30 11063 H 1030.21 2.65313 -2.63742 0
M  V30 11064 H 1031.54 3.50455 -3.45604 0
M  V30 11065 N 1033.19 1.2685 0.935242 0
M  V30 11066 C 1034.12 1.1143 2.05196 0
M  V30 11067 C 1035.1 0.0178362 1.70091 0
M  V30 11068 O 1036.29 0.190951 1.93259 0
M  V30 11069 C 1033.42 0.752779 3.39044 0
M  V30 11070 C 1032.37 1.80164 3.88233 0
M  V30 11071 C 1031.7 1.29428 5.18799 0
M  V30 11072 C 1033 3.20431 4.12457 0
M  V30 11073 H 1034.69 2.04845 2.18355 0
M  V30 11074 H 1032.24 0.986276 1.04922 0
M  V30 11075 H 1034.19 0.631757 4.16637 0
M  V30 11076 H 1032.91 -0.217075 3.25878 0
M  V30 11077 H 1031.57 1.91144 3.12825 0
M  V30 11078 H 1031.22 0.3141 5.02018 0
M  V30 11079 H 1030.92 1.99546 5.5268 0
M  V30 11080 H 1032.45 1.18605 5.9897 0
M  V30 11081 H 1033.86 3.12495 4.80645 0
M  V30 11082 H 1032.26 3.88193 4.57631 0
M  V30 11083 H 1033.33 3.66046 3.18023 0
M  V30 11084 N 1034.67 -1.14067 1.0875 0
M  V30 11085 C 1035.9 -1.89582 0.841038 0
M  V30 11086 C 1036.32 -1.78226 -0.601436 0
M  V30 11087 O 1035.68 -1.12491 -1.42181 0
M  V30 11088 C 1035.73 -3.37415 1.27213 0
M  V30 11089 O 1034.83 -4.10191 0.426246 0
M  V30 11090 H 1034.17 -0.589716 0.305173 0
M  V30 11091 H 1036.7 -1.44364 1.44984 0
M  V30 11092 H 1036.71 -3.88234 1.25451 0
M  V30 11093 H 1035.39 -3.44999 2.32268 0
M  V30 11094 H 1033.96 -3.69429 0.507585 0
M  V30 11095 N 1036.15 -0.873678 -1.31166 0
M  V30 11096 C 1037.38 -0.500317 -2.0045 0
M  V30 11097 C 1037.79 0.912716 -1.65729 0
M  V30 11098 O 1037.13 1.61001 -0.884563 0
M  V30 11099 C 1037.19 -0.58197 -3.54758 0
M  V30 11100 C 1036.86 -1.95728 -4.12964 0
M  V30 11101 C 1037.85 -2.92526 -4.29796 0
M  V30 11102 C 1035.54 -2.2596 -4.48606 0
M  V30 11103 C 1037.53 -4.17697 -4.81464 0
M  V30 11104 C 1035.22 -3.5138 -4.99976 0
M  V30 11105 C 1036.22 -4.47064 -5.16356 0
M  V30 11106 O 1035.9 -5.70259 -5.66621 0
M  V30 11107 H 1035.64 -0.193044 -0.64785 0
M  V30 11108 H 1038.19 -1.17768 -1.68285 0
M  V30 11109 H 1036.42 0.152326 -3.864 0
M  V30 11110 H 1038.11 -0.221506 -4.05295 0
M  V30 11111 H 1038.88 -2.70479 -4.02574 0
M  V30 11112 H 1034.75 -1.52258 -4.3513 0
M  V30 11113 H 1038.3 -4.92389 -4.94165 0
M  V30 11114 H 1034.2 -3.73269 -5.26631 0
M  V30 11115 H 1034.96 -5.72483 -5.84983 0
M  V30 11116 N 1037.63 1.44308 -0.633487 0
M  V30 11117 C 1038.57 2.32455 0.0821956 0
M  V30 11118 C 1039.57 1.47482 0.833388 0
M  V30 11119 O 1040.77 1.63812 0.746021 0
M  V30 11120 H 1037.15 0.750631 0.045352 0
M  V30 11121 H 1039.12 2.90566 -0.679282 0
M  V30 11122 C 1037.87 3.31512 1.04858 0
M  V30 11123 H 1037.19 3.96908 0.479979 0
M  V30 11124 H 1038.63 3.95865 1.51879 0
M  V30 11125 C 1037.09 2.60615 2.13498 0
M  V30 11126 O 1037.62 2.40682 3.21613 0
M  V30 11127 N 1035.83 2.20315 1.89499 0
M  V30 11128 H 1035.37 2.36726 1.01581 0
M  V30 11129 H 1035.33 1.73205 2.62388 0
M  V30 11130 N 1039.1 0.374177 1.53094 0
M  V30 11131 C 1040.03 -0.459976 2.28925 0
M  V30 11132 C 1041.02 -1.07656 1.31698 0
M  V30 11133 O 1042.2 -1.09219 1.60577 0
M  V30 11134 C 1039.33 -1.5954 3.08487 0
M  V30 11135 C 1038.28 -1.10563 4.13473 0
M  V30 11136 C 1037.61 -2.33196 4.81169 0
M  V30 11137 C 1038.91 -0.184275 5.21975 0
M  V30 11138 H 1040.6 0.172692 2.98902 0
M  V30 11139 H 1038.15 0.0844956 1.43752 0
M  V30 11140 H 1040.1 -2.18565 3.60288 0
M  V30 11141 H 1038.83 -2.25543 2.36216 0
M  V30 11142 H 1037.49 -0.53801 3.62631 0
M  V30 11143 H 1037.13 -2.97675 4.05461 0
M  V30 11144 H 1036.83 -2.01094 5.52119 0
M  V30 11145 H 1038.36 -2.92892 5.35767 0
M  V30 11146 H 1039.77 -0.682262 5.69226 0
M  V30 11147 H 1038.17 0.0462746 6.00082 0
M  V30 11148 H 1039.24 0.771152 4.78729 0
M  V30 11149 N 1040.58 -1.57259 0.103575 0
M  V30 11150 C 1041.83 -1.94272 -0.557024 0
M  V30 11151 C 1042.15 -0.986739 -1.68192 0
M  V30 11152 O 1041.42 -0.0402818 -1.95859 0
M  V30 11153 H 1040 -0.717237 -0.208757 0
M  V30 11154 H 1042.66 -1.94167 0.168898 0
M  V30 11155 H 1041.76 -2.96914 -0.961691 0
M  V30 11156 N 1042.06 0.170153 -1.56679 0
M  V30 11157 C 1043.02 1.19443 -1.95617 0
M  V30 11158 C 1044.02 1.37118 -0.83996 0
M  V30 11159 O 1045.21 1.34504 -1.10699 0
M  V30 11160 C 1042.35 2.55926 -2.25199 0
M  V30 11161 H 1043.54 0.86095 -2.87276 0
M  V30 11162 H 1041.09 0.412646 -1.50755 0
M  V30 11163 H 1041.83 2.94286 -1.36257 0
M  V30 11164 H 1041.61 2.44464 -3.06562 0
M  V30 11165 H 1043.1 3.29742 -2.56242 0
M  V30 11166 N 1043.54 1.5137 0.438746 0
M  V30 11167 C 1044.79 1.63645 1.18595 0
M  V30 11168 C 1045.11 0.354241 1.91755 0
M  V30 11169 O 1044.38 -0.629838 1.85499 0
M  V30 11170 H 1042.96 0.603103 0.440767 0
M  V30 11171 H 1045.62 1.88293 0.503159 0
M  V30 11172 H 1044.72 2.46342 1.9163 0
M  V30 11173 N 1045.02 -0.694098 1.41492 0
M  V30 11174 C 1046.26 -1.45127 1.4065 0
M  V30 11175 C 1046.59 -1.94993 0.0170289 0
M  V30 11176 O 1045.86 -1.71799 -0.941372 0
M  V30 11177 H 1044.44 -0.538493 0.51772 0
M  V30 11178 H 1047.1 -0.821441 1.76744 0
M  V30 11179 H 1046.19 -2.31372 2.0946 0
M  V30 11180 N 1046.49 -1.27344 -0.928501 0
M  V30 11181 C 1047.74 -1.13411 -1.67279 0
M  V30 11182 C 1048.06 0.320698 -1.92345 0
M  V30 11183 O 1047.33 1.2245 -1.52915 0
M  V30 11184 H 1045.91 -0.416712 -0.619968 0
M  V30 11185 H 1048.58 -1.5986 -1.11493 0
M  V30 11186 H 1047.67 -1.66256 -2.64131 0
M  V30 11187 N 1047.97 1.13488 -1.09353 0
M  V30 11188 C 1049.2 1.89133 -0.85108 0
M  V30 11189 C 1049.62 1.78542 0.591976 0
M  V30 11190 O 1048.98 1.13243 1.41583 0
M  V30 11191 C 1049.03 3.36736 -1.29001 0
M  V30 11192 O 1048.13 4.09959 -0.447993 0
M  V30 11193 H 1047.47 0.58809 -0.308296 0
M  V30 11194 H 1050 1.43593 -1.45747 0
M  V30 11195 H 1050.01 3.87564 -1.27508 0
M  V30 11196 H 1048.69 3.43762 -2.34095 0
M  V30 11197 H 1047.27 3.69155 -0.52717 0
M  V30 11198 N 1049.45 0.880621 1.30701 0
M  V30 11199 C 1050.41 0.349087 2.26526 0
M  V30 11200 C 1051.41 -0.505973 1.52632 0
M  V30 11201 O 1052.6 -0.313751 1.71351 0
M  V30 11202 C 1049.74 -0.503023 3.37168 0
M  V30 11203 H 1050.93 1.19516 2.75056 0
M  V30 11204 H 1048.48 0.657107 1.41816 0
M  V30 11205 H 1049.22 -1.36986 2.93948 0
M  V30 11206 H 1049 0.109389 3.91947 0
M  V30 11207 H 1050.49 -0.866845 4.08504 0
M  V30 11208 N 1050.93 -1.4397 0.641131 0
M  V30 11209 C 1051.84 -2.34526 -0.058742 0
M  V30 11210 C 1052.86 -1.53194 -0.825088 0
M  V30 11211 O 1054.03 -1.85888 -0.775081 0
M  V30 11212 C 1051.1 -3.31313 -1.02139 0
M  V30 11213 C 1050.16 -4.28552 -0.253319 0
M  V30 11214 C 1049.39 -5.20715 -1.17012 0
M  V30 11215 O 1049.61 -5.17028 -2.40911 0
M  V30 11216 O 1048.55 -5.9839 -0.649039 0
M  V30 11217 H 1052.37 -2.95843 0.686329 0
M  V30 11218 H 1049.96 -1.43909 0.401316 0
M  V30 11219 H 1051.84 -3.90862 -1.57496 0
M  V30 11220 H 1050.52 -2.72516 -1.7469 0
M  V30 11221 H 1049.42 -3.72519 0.343531 0
M  V30 11222 H 1050.76 -4.90297 0.432372 0
M  V30 11223 N 1052.41 -0.382291 -1.52893 0
M  V30 11224 C 1053.65 0.202433 -2.01787 0
M  V30 11225 C 1053.99 1.47044 -1.26853 0
M  V30 11226 O 1053.26 1.91007 -0.366969 0
M  V30 11227 C 1053.54 0.477471 -3.5692 0
M  V30 11228 C 1053.4 -0.805339 -4.42532 0
M  V30 11229 C 1054.72 1.27106 -4.21346 0
M  V30 11230 H 1051.84 0.0720998 -0.733465 0
M  V30 11231 H 1054.48 -0.510478 -1.83014 0
M  V30 11232 H 1052.63 1.08478 -3.73048 0
M  V30 11233 H 1054.3 -1.4424 -4.3817 0
M  V30 11234 H 1052.54 -1.42216 -4.09826 0
M  V30 11235 H 1053.21 -0.567635 -5.49074 0
M  V30 11236 H 1055.69 0.757161 -4.09153 0
M  V30 11237 H 1054.57 1.43225 -5.29885 0
M  V30 11238 H 1054.83 2.28431 -3.78513 0
M  V30 11239 N 1053.89 1.57202 -0.111913 0
M  V30 11240 C 1055.16 1.86459 0.590972 0
M  V30 11241 C 1055.54 1.01182 1.85271 0
M  V30 11242 O 1054.89 0.0887891 2.28327 0
M  V30 11243 C 1055.1 3.37455 0.890225 0
M  V30 11244 C 1056.45 4.05895 1.24638 0
M  V30 11245 O 1057.47 3.42433 0.980713 0
M  V30 11246 O 1056.33 5.17903 1.74466 0
M  V30 11247 H 1053.43 0.771652 0.297459 0
M  V30 11248 H 1055.97 1.69072 -0.145882 0
M  V30 11249 H 1054.74 3.913 -0.00419012 0
M  V30 11250 H 1054.37 3.60248 1.68248 0
M  V30 11251 N 1055.36 -0.161842 1.56767 0
M  V30 11252 C 1056.59 -0.892247 1.86672 0
M  V30 11253 C 1057.01 -1.75407 0.69841 0
M  V30 11254 O 1056.36 -1.7945 -0.332251 0
M  V30 11255 C 1056.41 -1.7612 3.15696 0
M  V30 11256 O 1056.14 -0.934131 4.28025 0
M  V30 11257 C 1057.64 -2.60046 3.59014 0
M  V30 11258 H 1054.86 -0.258747 0.619105 0
M  V30 11259 H 1057.4 -0.159089 2.0388 0
M  V30 11260 H 1055.56 -2.44759 3.00286 0
M  V30 11261 H 1055.97 -1.52931 5.01709 0
M  V30 11262 H 1057.44 -3.16618 4.5217 0
M  V30 11263 H 1057.92 -3.35374 2.83586 0
M  V30 11264 H 1058.53 -1.96724 3.77067 0
M  V30 11265 N 1056.84 -1.516 -0.430713 0
M  V30 11266 C 1058.07 -1.687 -1.20644 0
M  V30 11267 C 1058.49 -0.386555 -1.84085 0
M  V30 11268 O 1057.85 0.653952 -1.69095 0
M  V30 11269 C 1057.9 -2.80887 -2.2613 0
M  V30 11270 O 1057 -2.44952 -3.31772 0
M  V30 11271 H 1056.34 -0.562289 -0.353167 0
M  V30 11272 H 1058.87 -1.98198 -0.507807 0
M  V30 11273 H 1058.88 -3.05167 -2.70809 0
M  V30 11274 H 1057.56 -3.75249 -1.79334 0
M  V30 11275 H 1056.13 -2.31267 -2.92523 0
M  V30 11276 N 1058.32 0.686584 -1.41858 0
M  V30 11277 C 1059.54 1.4802 -1.45275 0
M  V30 11278 C 1059.97 1.87997 -0.0621297 0
M  V30 11279 O 1059.33 1.55226 0.936733 0
M  V30 11280 C 1059.38 2.7133 -2.37513 0
M  V30 11281 O 1058.48 3.69159 -1.83836 0
M  V30 11282 H 1057.82 0.445152 -0.492682 0
M  V30 11283 H 1060.35 0.843161 -1.86419 0
M  V30 11284 H 1060.36 3.19537 -2.53693 0
M  V30 11285 H 1059.04 2.41571 -3.3855 0
M  V30 11286 H 1057.61 3.28134 -1.77151 0
M  V30 11287 N 1059.8 1.27835 0.921735 0
M  V30 11288 C 1060.73 1.136 2.04003 0
M  V30 11289 C 1061.71 0.0358756 1.70062 0
M  V30 11290 O 1062.89 0.211438 1.93046 0
M  V30 11291 C 1060.02 0.788697 3.38226 0
M  V30 11292 C 1058.98 1.84272 3.863 0
M  V30 11293 C 1058.3 1.34923 5.17397 0
M  V30 11294 C 1059.6 3.24788 4.09035 0
M  V30 11295 H 1061.3 2.07149 2.1617 0
M  V30 11296 H 1058.84 0.997349 1.0387 0
M  V30 11297 H 1060.8 0.675911 4.15944 0
M  V30 11298 H 1059.52 -0.182499 3.2609 0
M  V30 11299 H 1058.18 1.94451 3.1078 0
M  V30 11300 H 1057.83 0.367328 5.01657 0
M  V30 11301 H 1057.53 2.05397 5.50532 0
M  V30 11302 H 1059.05 1.24951 5.97678 0
M  V30 11303 H 1060.47 3.17575 4.77304 0
M  V30 11304 H 1058.86 3.93025 4.53488 0
M  V30 11305 H 1059.93 3.69398 3.14122 0
M  V30 11306 N 1061.28 -1.12907 1.09954 0
M  V30 11307 C 1062.5 -1.88679 0.861099 0
M  V30 11308 C 1062.93 -1.78853 -0.582499 0
M  V30 11309 O 1062.28 -1.13992 -1.4098 0
M  V30 11310 C 1062.33 -3.36047 1.30785 0
M  V30 11311 O 1061.44 -4.09716 0.469728 0
M  V30 11312 H 1060.78 -0.586447 0.31141 0
M  V30 11313 H 1063.31 -1.42818 1.46507 0
M  V30 11314 H 1063.32 -3.86882 1.29562 0
M  V30 11315 H 1061.99 -3.42516 2.35914 0
M  V30 11316 H 1060.57 -3.6887 0.54674 0
M  V30 11317 N 1062.75 -0.88754 -1.30232 0
M  V30 11318 C 1064 -0.506277 -1.95656 0
M  V30 11319 C 1064.32 0.948191 -1.70395 0
M  V30 11320 O 1063.59 1.66701 -1.02895 0
M  V30 11321 H 1062.17 -0.184235 -0.723924 0
M  V30 11322 H 1064.83 -1.13118 -1.58715 0
M  V30 11323 H 1063.93 -0.678673 -3.04632 0
M  V30 11324 N 1064.23 1.43628 -0.648757 0
M  V30 11325 C 1065.51 1.95391 -0.0904551 0
M  V30 11326 C 1065.89 1.59021 1.38837 0
M  V30 11327 O 1065.24 0.873078 2.11163 0
M  V30 11328 C 1065.45 3.47418 -0.33196 0
M  V30 11329 C 1066.8 4.23952 -0.234521 0
M  V30 11330 O 1067.82 3.55218 -0.264276 0
M  V30 11331 O 1066.68 5.46282 -0.154428 0
M  V30 11332 H 1063.77 0.82691 0.0121884 0
M  V30 11333 H 1066.32 1.5359 -0.721685 0
M  V30 11334 H 1065.09 3.67001 -1.35741 0
M  V30 11335 H 1064.71 3.96207 0.332556 0
M  V30 11336 N 1065.71 0.390394 1.52688 0
M  V30 11337 C 1066.66 -0.4591 2.28024 0
M  V30 11338 C 1067.65 -1.06212 1.31967 0
M  V30 11339 O 1068.86 -1.00247 1.49501 0
M  V30 11340 H 1065.23 -0.16681 0.733266 0
M  V30 11341 H 1067.2 0.197747 2.97744 0
M  V30 11342 C 1065.95 -1.5737 3.10048 0
M  V30 11343 H 1065.28 -1.11901 3.83821 0
M  V30 11344 H 1066.72 -2.1423 3.65898 0
M  V30 11345 C 1065.18 -2.53036 2.22429 0
M  V30 11346 O 1065.71 -3.5647 1.85181 0
M  V30 11347 N 1063.91 -2.22802 1.86567 0
M  V30 11348 H 1063.46 -1.38723 2.17057 0
M  V30 11349 H 1063.42 -2.87061 1.28233 0
M  V30 11350 N 1067.19 -1.57141 0.120249 0
M  V30 11351 C 1068.42 -1.99589 -0.545136 0
M  V30 11352 C 1068.83 -0.999951 -1.60145 0
M  V30 11353 O 1068.19 0.00698897 -1.82499 0
M  V30 11354 C 1068.24 -3.42038 -1.17014 0
M  V30 11355 O 1067.96 -4.37822 -0.156044 0
M  V30 11356 C 1069.46 -3.99625 -1.91872 0
M  V30 11357 H 1066.68 -0.655318 -0.144222 0
M  V30 11358 H 1069.23 -2.0345 0.206955 0
M  V30 11359 H 1067.38 -3.39113 -1.873 0
M  V30 11360 H 1067.79 -5.20937 -0.610317 0
M  V30 11361 H 1069.27 -5.01374 -2.30928 0
M  V30 11362 H 1069.75 -3.38836 -2.7944 0
M  V30 11363 H 1070.35 -4.061 -1.26345 0
M  V30 11364 N 1068.67 0.153526 -1.5685 0
M  V30 11365 C 1069.6 1.19162 -2.00805 0
M  V30 11366 C 1070.58 1.45172 -0.886518 0
M  V30 11367 O 1071.76 1.56203 -1.15387 0
M  V30 11368 C 1068.89 2.52637 -2.38311 0
M  V30 11369 C 1067.85 2.41161 -3.53589 0
M  V30 11370 C 1067.17 3.79287 -3.76889 0
M  V30 11371 C 1068.47 1.90122 -4.86468 0
M  V30 11372 H 1070.17 0.82617 -2.87776 0
M  V30 11373 H 1067.71 0.395972 -1.38449 0
M  V30 11374 H 1069.67 3.25478 -2.6766 0
M  V30 11375 H 1068.39 2.91005 -1.4827 0
M  V30 11376 H 1067.05 1.70772 -3.24395 0
M  V30 11377 H 1066.7 4.15079 -2.84109 0
M  V30 11378 H 1066.4 3.72472 -4.54465 0
M  V30 11379 H 1067.92 4.53687 -4.08657 0
M  V30 11380 H 1069.33 2.52752 -5.14577 0
M  V30 11381 H 1067.73 1.94214 -5.67804 0
M  V30 11382 H 1068.8 0.856517 -4.77275 0
M  V30 11383 N 1070.14 1.51827 0.422667 0
M  V30 11384 C 1071.08 1.68901 1.53453 0
M  V30 11385 C 1072.06 0.536549 1.53492 0
M  V30 11386 O 1073.24 0.762226 1.72402 0
M  V30 11387 C 1070.37 1.71599 2.92013 0
M  V30 11388 C 1069.41 2.92984 3.0994 0
M  V30 11389 S 1070.25 4.53559 2.84683 0
M  V30 11390 C 1071.4 4.59024 4.25498 0
M  V30 11391 H 1071.63 2.62943 1.38739 0
M  V30 11392 H 1069.17 1.41695 0.613347 0
M  V30 11393 H 1071.13 1.73838 3.71874 0
M  V30 11394 H 1069.79 0.787083 3.04079 0
M  V30 11395 H 1068.98 2.91315 4.1128 0
M  V30 11396 H 1068.58 2.88562 2.37924 0
M  V30 11397 H 1070.87 4.35567 5.18929 0
M  V30 11398 H 1071.82 5.60904 4.32195 0
M  V30 11399 H 1072.22 3.88193 4.09837 0
M  V30 11400 N 1071.62 -0.679052 1.4222 0
M  V30 11401 C 1072.85 -1.47248 1.46058 0
M  V30 11402 C 1073.27 -1.87962 0.0720987 0
M  V30 11403 O 1072.63 -1.5572 -0.928488 0
M  V30 11404 C 1072.68 -2.70067 2.38948 0
M  V30 11405 O 1071.78 -3.68178 1.85791 0
M  V30 11406 H 1071.12 -0.442533 0.495036 0
M  V30 11407 H 1073.65 -0.833263 1.86863 0
M  V30 11408 H 1073.66 -3.18187 2.55385 0
M  V30 11409 H 1072.34 -2.39773 3.39826 0
M  V30 11410 H 1070.92 -3.2719 1.78889 0
M  V30 11411 N 1073.1 -1.28322 -0.914942 0
M  V30 11412 C 1074.33 -1.18254 -1.69775 0
M  V30 11413 C 1074.74 0.258978 -1.87015 0
M  V30 11414 O 1074.1 1.17514 -1.3963 0
M  V30 11415 C 1074.15 -1.8753 -3.09054 0
M  V30 11416 O 1073.87 -3.26051 -2.92613 0
M  V30 11417 C 1075.37 -1.83749 -4.03424 0
M  V30 11418 H 1072.59 -0.41055 -0.530744 0
M  V30 11419 H 1075.14 -1.69425 -1.14523 0
M  V30 11420 H 1073.29 -1.40233 -3.61128 0
M  V30 11421 H 1073.71 -3.60729 -3.80756 0
M  V30 11422 H 1075.18 -2.36813 -4.98622 0
M  V30 11423 H 1075.66 -0.809601 -4.31674 0
M  V30 11424 H 1076.26 -2.3072 -3.57279 0
M  V30 11425 N 1074.58 1.12322 -1.10551 0
M  V30 11426 C 1075.51 2.20176 -0.777486 0
M  V30 11427 C 1076.49 1.68252 0.250069 0
M  V30 11428 O 1077.67 1.93856 0.115574 0
M  V30 11429 C 1074.8 3.46666 -0.209822 0
M  V30 11430 C 1073.76 4.11749 -1.1682 0
M  V30 11431 C 1073.08 5.32703 -0.461684 0
M  V30 11432 C 1074.38 4.57746 -2.51527 0
M  V30 11433 H 1076.08 2.47872 -1.67928 0
M  V30 11434 H 1073.62 1.19136 -0.808863 0
M  V30 11435 H 1075.58 4.21388 0.0318068 0
M  V30 11436 H 1074.3 3.18401 0.727226 0
M  V30 11437 H 1072.96 3.39009 -1.3953 0
M  V30 11438 H 1072.61 5.00706 0.479875 0
M  V30 11439 H 1072.31 5.77197 -1.1008 0
M  V30 11440 H 1073.83 6.10172 -0.228629 0
M  V30 11441 H 1075.25 5.23835 -2.32958 0
M  V30 11442 H 1073.64 5.13021 -3.11335 0
M  V30 11443 H 1074.71 3.71667 -3.11435 0
M  V30 11444 N 1076.06 0.894434 1.2976 0
M  V30 11445 C 1076.97 0.372622 2.31622 0
M  V30 11446 C 1077.98 -0.52996 1.65733 0
M  V30 11447 O 1079.16 -0.420807 1.96955 0
M  V30 11448 C 1076.22 -0.396076 3.4443 0
M  V30 11449 C 1075.28 0.537394 4.25923 0
M  V30 11450 C 1074.52 -0.194713 5.33345 0
M  V30 11451 O 1074.74 -1.41943 5.52457 0
M  V30 11452 O 1073.67 0.460055 6.00139 0
M  V30 11453 H 1077.5 1.21756 2.78225 0
M  V30 11454 H 1075.09 0.65858 1.34101 0
M  V30 11455 H 1076.97 -0.830962 4.13126 0
M  V30 11456 H 1075.64 -1.21716 2.99945 0
M  V30 11457 H 1074.55 1.02129 3.5989 0
M  V30 11458 H 1075.88 1.32475 4.74037 0
M  V30 11459 N 1077.53 -1.43282 0.656365 0
M  V30 11460 C 1078.44 -2.34576 -0.033864 0
M  V30 11461 C 1079.46 -1.5406 -0.808793 0
M  V30 11462 O 1080.64 -1.867 -0.755322 0
M  V30 11463 C 1077.7 -3.32378 -0.986197 0
M  V30 11464 C 1076.76 -4.28797 -0.207851 0
M  V30 11465 C 1076 -5.21927 -1.11482 0
M  V30 11466 O 1076.22 -5.19554 -2.35414 0
M  V30 11467 O 1075.15 -5.99045 -0.585536 0
M  V30 11468 H 1078.98 -2.95099 0.717668 0
M  V30 11469 H 1076.56 -1.43475 0.416556 0
M  V30 11470 H 1078.45 -3.9251 -1.53341 0
M  V30 11471 H 1077.12 -2.74354 -1.7179 0
M  V30 11472 H 1076.03 -3.72134 0.383022 0
M  V30 11473 H 1077.36 -4.89811 0.48435 0
M  V30 11474 N 1079.01 -0.398486 -1.52479 0
M  V30 11475 C 1079.96 0.432212 -2.26717 0
M  V30 11476 C 1080.93 1.05007 -1.28696 0
M  V30 11477 O 1082.12 1.07636 -1.57541 0
M  V30 11478 C 1079.26 1.54868 -3.08399 0
M  V30 11479 C 1078.37 0.952779 -4.21362 0
M  V30 11480 C 1077.5 2.04106 -4.90423 0
M  V30 11481 C 1076.54 1.42153 -5.95364 0
M  V30 11482 N 1075.68 2.44951 -6.57984 0
M  V30 11483 H 1080.52 -0.207303 -2.97278 0
M  V30 11484 H 1078.06 -0.114066 -1.46657 0
M  V30 11485 H 1080.01 2.20684 -3.54054 0
M  V30 11486 H 1078.64 2.15837 -2.4003 0
M  V30 11487 H 1077.7 0.183962 -3.79955 0
M  V30 11488 H 1079.01 0.460131 -4.96673 0
M  V30 11489 H 1078.16 2.77672 -5.39429 0
M  V30 11490 H 1076.9 2.56733 -4.14656 0
M  V30 11491 H 1075.91 0.671161 -5.45688 0
M  V30 11492 H 1077.13 0.903093 -6.73068 0
M  V30 11493 H 1075.08 2.9673 -5.85053 0
M  V30 11494 H 1074.99 2.00468 -7.28937 0
M  V30 11495 H 1076.26 3.18119 -7.11632 0
M  V30 11496 N 1080.49 1.57075 -0.12858 0
M  V30 11497 C 1081.4 2.19369 0.831533 0
M  V30 11498 C 1082.42 1.17258 1.28555 0
M  V30 11499 O 1083.59 1.49766 1.34656 0
M  V30 11500 C 1080.66 2.78846 2.06024 0
M  V30 11501 C 1079.72 3.96024 1.65722 0
M  V30 11502 C 1078.95 4.52655 2.82735 0
M  V30 11503 O 1079.18 4.08175 3.98434 0
M  V30 11504 O 1078.11 5.43198 2.59268 0
M  V30 11505 H 1081.94 3.01887 0.331352 0
M  V30 11506 H 1079.52 1.49081 0.0975226 0
M  V30 11507 H 1081.4 3.16721 2.77967 0
M  V30 11508 H 1080.08 1.99353 2.5503 0
M  V30 11509 H 1078.98 3.62899 0.908574 0
M  V30 11510 H 1080.32 4.76981 1.21449 0
M  V30 11511 N 1081.97 -0.145205 1.5693 0
M  V30 11512 C 1083.2 -0.872398 1.87608 0
M  V30 11513 C 1083.61 -1.74657 0.716975 0
M  V30 11514 O 1082.97 -1.79792 -0.3132 0
M  V30 11515 C 1083.02 -1.72762 3.17546 0
M  V30 11516 O 1082.74 -0.888681 4.28992 0
M  V30 11517 C 1084.24 -2.56224 3.61751 0
M  V30 11518 H 1081.46 -0.252166 0.621815 0
M  V30 11519 H 1084.01 -0.137456 2.04038 0
M  V30 11520 H 1082.16 -2.41561 3.02865 0
M  V30 11521 H 1082.58 -1.47601 5.03303 0
M  V30 11522 H 1084.05 -3.11804 4.55502 0
M  V30 11523 H 1084.53 -3.32347 2.87127 0
M  V30 11524 H 1085.13 -1.92714 3.79133 0
M  V30 11525 N 1083.45 -1.52049 -0.414609 0
M  V30 11526 C 1084.72 -1.56397 -1.17471 0
M  V30 11527 C 1085.1 -0.34171 -2.08316 0
M  V30 11528 O 1084.45 0.6718 -2.18401 0
M  V30 11529 C 1084.66 -2.88983 -1.95678 0
M  V30 11530 C 1086.01 -3.41781 -2.51935 0
M  V30 11531 O 1087.03 -2.90686 -2.05865 0
M  V30 11532 O 1085.89 -4.30989 -3.36022 0
M  V30 11533 H 1082.99 -0.62974 -0.536056 0
M  V30 11534 H 1085.53 -1.64374 -0.421834 0
M  V30 11535 H 1084.31 -3.69392 -1.29094 0
M  V30 11536 H 1083.93 -2.84274 -2.77983 0
M  V30 11537 N 1084.93 0.6715 -1.42579 0
M  V30 11538 C 1086.17 1.42871 -1.42941 0
M  V30 11539 C 1086.49 1.94941 -0.0480483 0
M  V30 11540 O 1085.76 1.73275 0.913921 0
M  V30 11541 H 1084.34 0.530189 -0.526221 0
M  V30 11542 H 1087.01 0.793219 -1.78028 0
M  V30 11543 H 1086.1 2.2801 -2.13114 0
M  V30 11544 N 1086.4 1.28806 0.908124 0
M  V30 11545 C 1087.31 1.15079 2.04436 0
M  V30 11546 C 1088.33 0.076012 1.73834 0
M  V30 11547 O 1089.51 0.286421 1.99353 0
M  V30 11548 C 1086.57 0.819733 3.3687 0
M  V30 11549 C 1085.63 1.97746 3.81045 0
M  V30 11550 C 1084.86 1.66211 5.07158 0
M  V30 11551 O 1085.09 0.579092 5.67453 0
M  V30 11552 O 1084.02 2.5075 5.47182 0
M  V30 11553 H 1087.85 2.10477 2.18937 0
M  V30 11554 H 1085.43 1.08177 1.03044 0
M  V30 11555 H 1087.31 0.649304 4.16368 0
M  V30 11556 H 1085.99 -0.10454 3.23531 0
M  V30 11557 H 1084.9 2.20308 3.02349 0
M  V30 11558 H 1086.23 2.88264 3.98955 0
M  V30 11559 N 1087.88 -1.11734 1.11145 0
M  V30 11560 C 1088.81 -2.17438 0.724804 0
M  V30 11561 C 1089.83 -1.6099 -0.242069 0
M  V30 11562 O 1091.02 -1.78482 -0.0254259 0
M  V30 11563 C 1088.12 -3.38863 0.050004 0
M  V30 11564 C 1087.29 -4.24785 1.04292 0
M  V30 11565 C 1086.35 -5.24691 0.398243 0
M  V30 11566 O 1085.37 -5.59408 1.05125 0
M  V30 11567 N 1086.58 -5.74388 -0.840184 0
M  V30 11568 H 1089.34 -2.51219 1.63429 0
M  V30 11569 H 1086.9 -1.27226 1.00125 0
M  V30 11570 H 1088.89 -4.02788 -0.392929 0
M  V30 11571 H 1087.46 -3.0317 -0.762005 0
M  V30 11572 H 1086.68 -3.57363 1.6639 0
M  V30 11573 H 1087.97 -4.79033 1.71478 0
M  V30 11574 H 1087.37 -5.48359 -1.38994 0
M  V30 11575 H 1085.93 -6.40163 -1.22615 0
M  V30 11576 N 1089.36 -0.901303 -1.29284 0
M  V30 11577 C 1090.61 -0.527 -1.95108 0
M  V30 11578 C 1090.93 0.930065 -1.71391 0
M  V30 11579 O 1090.2 1.65601 -1.04658 0
M  V30 11580 H 1088.78 -0.191903 -0.721929 0
M  V30 11581 H 1091.44 -1.14795 -1.57506 0
M  V30 11582 H 1090.54 -0.710945 -3.03895 0
M  V30 11583 N 1090.84 1.42931 -0.663954 0
M  V30 11584 C 1092.25 1.84877 -0.260283 0
M  V30 11585 C 1092.6 1.5558 1.19538 0
M  V30 11586 O 1091.72 1.01015 1.91377 0
M  V30 11587 C 1092.32 3.35585 -0.465618 0
M  V30 11588 C 1090.88 3.76221 -0.116169 0
M  V30 11589 C 1090.03 2.66587 -0.763317 0
M  V30 11590 H 1092.98 1.32932 -0.866882 0
M  V30 11591 H 1093 3.79427 0.285608 0
M  V30 11592 H 1092.51 3.56877 -1.52515 0
M  V30 11593 H 1090.61 3.60539 0.940342 0
M  V30 11594 H 1090.72 4.75943 -0.549123 0
M  V30 11595 H 1089.09 2.53948 -0.19559 0
M  V30 11596 H 1089.87 2.90704 -1.82609 0
M  V30 11597 N 1092.32 0.406567 1.52266 0
M  V30 11598 C 1093.54 -0.169624 2.06204 0
M  V30 11599 C 1093.96 -1.39076 1.27684 0
M  V30 11600 O 1093.32 -1.79528 0.328023 0
M  V30 11601 C 1093.37 -0.522611 3.57702 0
M  V30 11602 O 1093.09 0.650028 4.33251 0
M  V30 11603 C 1094.59 -1.15281 4.28048 0
M  V30 11604 H 1091.81 -0.0215191 0.670655 0
M  V30 11605 H 1094.35 0.576781 1.96198 0
M  V30 11606 H 1092.51 -1.21891 3.67725 0
M  V30 11607 H 1092.92 0.355989 5.23291 0
M  V30 11608 H 1094.4 -1.35002 5.35237 0
M  V30 11609 H 1094.87 -2.12517 3.84361 0
M  V30 11610 H 1095.48 -0.496786 4.22389 0
M  V30 11611 N 1093.79 -1.57004 0.136909 0
M  V30 11612 C 1095.04 -1.96087 -0.517477 0
M  V30 11613 C 1095.37 -1.0213 -1.65176 0
M  V30 11614 O 1094.65 -0.0617958 -1.94402 0
M  V30 11615 C 1094.93 -3.44958 -1.03323 0
M  V30 11616 C 1094.78 -4.49691 0.0988609 0
M  V30 11617 C 1096.1 -3.96091 -1.91832 0
M  V30 11618 H 1093.22 -0.712978 -0.186632 0
M  V30 11619 H 1095.86 -1.88767 0.216095 0
M  V30 11620 H 1094.01 -3.51327 -1.65836 0
M  V30 11621 H 1095.69 -4.55409 0.734847 0
M  V30 11622 H 1093.93 -4.271 0.75947 0
M  V30 11623 H 1094.6 -5.51165 -0.303554 0
M  V30 11624 H 1097.08 -3.92139 -1.39164 0
M  V30 11625 H 1095.95 -5.00742 -2.24831 0
M  V30 11626 H 1096.21 -3.37846 -2.85153 0
M  V30 11627 N 1095.27 0.136881 -1.57004 0
M  V30 11628 C 1096.5 0.866405 -1.88436 0
M  V30 11629 C 1096.92 1.73483 -0.727006 0
M  V30 11630 O 1096.28 1.78398 0.323094 0
M  V30 11631 C 1096.33 1.69059 -3.18514 0
M  V30 11632 O 1095.43 2.79584 -3.03161 0
M  V30 11633 H 1094.77 0.240709 -0.618834 0
M  V30 11634 H 1097.3 0.124653 -2.0422 0
M  V30 11635 H 1097.31 2.08353 -3.50789 0
M  V30 11636 H 1095.99 1.05296 -4.0235 0
M  V30 11637 H 1094.57 2.43623 -2.82315 0
M  V30 11638 N 1096.75 1.52266 0.40654 0
M  V30 11639 C 1098.16 1.58587 0.985241 0
M  V30 11640 C 1098.51 0.427955 1.91476 0
M  V30 11641 O 1097.64 -0.451341 2.11641 0
M  V30 11642 C 1098.23 2.87426 1.79365 0
M  V30 11643 C 1096.79 2.96217 2.32233 0
M  V30 11644 C 1095.94 2.53548 1.12288 0
M  V30 11645 H 1098.89 1.57598 0.186685 0
M  V30 11646 H 1098.91 2.72925 2.65127 0
M  V30 11647 H 1098.42 3.71682 1.11687 0
M  V30 11648 H 1096.52 2.1646 3.03275 0
M  V30 11649 H 1096.64 4.00511 2.62922 0
M  V30 11650 H 1095 2.07457 1.47763 0
M  V30 11651 H 1095.78 3.40181 0.461731 0
M  V30 11652 N 1098.23 -0.663929 1.42933 0
M  V30 11653 C 1099.19 -1.75899 1.46943 0
M  V30 11654 C 1100.19 -1.5682 0.355535 0
M  V30 11655 O 1101.38 -1.62914 0.616833 0
M  V30 11656 C 1098.51 -3.14657 1.31164 0
M  V30 11657 H 1099.71 -1.73727 2.44456 0
M  V30 11658 H 1097.26 -0.874587 1.2954 0
M  V30 11659 H 1097.99 -3.22447 0.346165 0
M  V30 11660 H 1097.78 -3.29909 2.11902 0
M  V30 11661 H 1099.27 -3.9453 1.36878 0
M  V30 11662 N 1099.71 -1.29285 -0.901281 0
M  V30 11663 C 1101.12 -1.15499 -1.46686 0
M  V30 11664 C 1101.47 0.250446 -1.94595 0
M  V30 11665 O 1100.59 1.14581 -1.83576 0
M  V30 11666 C 1101.19 -2.0906 -2.66607 0
M  V30 11667 C 1099.75 -1.99301 -3.19306 0
M  V30 11668 C 1098.89 -2.00079 -1.91999 0
M  V30 11669 H 1101.85 -1.41793 -0.712773 0
M  V30 11670 H 1101.87 -1.6619 -3.42288 0
M  V30 11671 H 1101.38 -3.11341 -2.31707 0
M  V30 11672 H 1099.48 -1.00103 -3.58901 0
M  V30 11673 H 1099.59 -2.86885 -3.8371 0
M  V30 11674 H 1097.96 -1.44655 -2.09636 0
M  V30 11675 H 1098.74 -3.04061 -1.59379 0
M  V30 11676 N 1101.18 1.11143 -1.11736 0
M  V30 11677 C 1102.15 2.15456 -0.78174 0
M  V30 11678 C 1103.15 1.59547 0.200383 0
M  V30 11679 O 1104.34 1.74183 -0.0244893 0
M  V30 11680 C 1101.47 3.40523 -0.160364 0
M  V30 11681 H 1102.66 2.46658 -1.70586 0
M  V30 11682 H 1100.22 1.26381 -0.919644 0
M  V30 11683 H 1100.95 3.14932 0.773835 0
M  V30 11684 H 1100.74 3.82386 -0.867378 0
M  V30 11685 H 1102.23 4.17559 0.0582175 0
M  V30 11686 N 1102.66 0.908147 1.28804 0
M  V30 11687 C 1103.94 0.457561 1.90173 0
M  V30 11688 C 1104.32 -1.06333 1.82364 0
M  V30 11689 O 1103.67 -1.90892 1.25589 0
M  V30 11690 C 1103.88 0.981624 3.34911 0
M  V30 11691 C 1105.23 1.03037 4.11908 0
M  V30 11692 O 1106.25 0.929878 3.43848 0
M  V30 11693 O 1105.11 1.18257 5.33552 0
M  V30 11694 H 1102.2 0.144081 0.814352 0
M  V30 11695 H 1104.75 0.998565 1.37211 0
M  V30 11696 H 1103.52 2.02561 3.34791 0
M  V30 11697 H 1103.14 0.421122 3.95364 0
M  V30 11698 N 1104.14 -1.42577 0.671525 0
M  V30 11699 C 1105.05 -2.34598 -0.00898225 0
M  V30 11700 C 1106.07 -1.54909 -0.792407 0
M  V30 11701 O 1107.24 -1.87491 -0.735477 0
M  V30 11702 C 1104.31 -3.33405 -0.950888 0
M  V30 11703 C 1103.37 -4.28993 -0.16236 0
M  V30 11704 C 1102.6 -5.2308 -1.0594 0
M  V30 11705 O 1102.82 -5.22022 -2.2989 0
M  V30 11706 O 1101.76 -5.99632 -0.521966 0
M  V30 11707 H 1105.58 -2.94321 0.748927 0
M  V30 11708 H 1103.17 -1.43025 0.43175 0
M  V30 11709 H 1105.05 -3.94115 -1.49169 0
M  V30 11710 H 1103.73 -2.7616 -1.68871 0
M  V30 11711 H 1102.63 -3.71707 0.42247 0
M  V30 11712 H 1103.97 -4.8927 0.536274 0
M  V30 11713 N 1105.62 -0.414636 -1.52048 0
M  V30 11714 C 1107.03 0.0537107 -1.86623 0
M  V30 11715 C 1107.38 1.43955 -1.3331 0
M  V30 11716 O 1106.51 2.05616 -0.674606 0
M  V30 11717 C 1107.1 0.104241 -3.3864 0
M  V30 11718 C 1105.66 0.516936 -3.72833 0
M  V30 11719 C 1104.81 -0.305042 -2.75617 0
M  V30 11720 H 1107.76 -0.631469 -1.45596 0
M  V30 11721 H 1107.78 0.918395 -3.6925 0
M  V30 11722 H 1107.29 -0.904523 -3.77412 0
M  V30 11723 H 1105.39 1.53214 -3.39641 0
M  V30 11724 H 1105.5 0.2575 -4.78408 0
M  V30 11725 H 1103.87 0.233416 -2.53628 0
M  V30 11726 H 1104.65 -1.31226 -3.1723 0
M  V30 11727 N 1107.1 1.56929 -0.145233 0
M  V30 11728 C 1108.32 2.00864 0.516564 0
M  V30 11729 C 1108.75 1.02466 1.57741 0
M  V30 11730 O 1108.1 0.000145439 1.813 0
M  V30 11731 C 1108.15 3.43552 1.09563 0
M  V30 11732 O 1107.26 3.4815 2.21055 0
M  V30 11733 H 1106.6 0.651835 0.126521 0
M  V30 11734 H 1109.13 2.0317 -0.241445 0
M  V30 11735 H 1109.14 3.82316 1.42473 0
M  V30 11736 H 1107.81 4.14677 0.318749 0
M  V30 11737 H 1106.39 3.21228 1.89387 0
M  V30 11738 N 1108.58 -0.128553 1.57075 0
M  V30 11739 C 1109.8 -0.8564 1.88893 0
M  V30 11740 C 1110.23 -1.73095 0.736196 0
M  V30 11741 O 1109.58 -1.78567 -0.313629 0
M  V30 11742 C 1109.63 -1.67368 3.19406 0
M  V30 11743 O 1108.74 -2.77973 3.04639 0
M  V30 11744 H 1108.08 -0.237424 0.620102 0
M  V30 11745 H 1110.61 -0.113821 2.04283 0
M  V30 11746 H 1110.62 -2.0649 3.51889 0
M  V30 11747 H 1109.29 -1.03161 4.02903 0
M  V30 11748 H 1107.87 -2.42123 2.83603 0
M  V30 11749 N 1110.05 -1.5248 -0.398459 0
M  V30 11750 C 1111.46 -1.59107 -0.976817 0
M  V30 11751 C 1111.82 -0.438104 -1.91246 0
M  V30 11752 O 1110.94 0.440111 -2.11877 0
M  V30 11753 C 1111.54 -2.88373 -1.77838 0
M  V30 11754 C 1110.09 -2.97445 -2.30659 0
M  V30 11755 C 1109.24 -2.5414 -1.10942 0
M  V30 11756 H 1112.19 -1.57695 -0.178324 0
M  V30 11757 H 1112.21 -2.74327 -2.63676 0
M  V30 11758 H 1111.73 -3.72269 -1.09714 0
M  V30 11759 H 1109.83 -2.18066 -3.02123 0
M  V30 11760 H 1109.94 -4.019 -2.60794 0
M  V30 11761 H 1108.3 -2.08237 -1.46661 0
M  V30 11762 H 1109.09 -3.40421 -0.443684 0
M  V30 11763 N 1111.53 0.65634 -1.43283 0
M  V30 11764 C 1112.46 1.78101 -1.51004 0
M  V30 11765 C 1113.44 1.66138 -0.36498 0
M  V30 11766 O 1114.63 1.85281 -0.581778 0
M  V30 11767 C 1111.76 3.16511 -1.42961 0
M  V30 11768 C 1110.71 3.43233 -2.55685 0
M  V30 11769 C 1110.04 4.81411 -2.32696 0
M  V30 11770 C 1111.34 3.38288 -3.97943 0
M  V30 11771 H 1113.03 1.71896 -2.45137 0
M  V30 11772 H 1110.58 0.825575 -1.17984 0
M  V30 11773 H 1112.53 3.94941 -1.46968 0
M  V30 11774 H 1111.25 3.23439 -0.45332 0
M  V30 11775 H 1109.91 2.67173 -2.51026 0
M  V30 11776 H 1109.56 4.85011 -1.33317 0
M  V30 11777 H 1109.26 5.00251 -3.08257 0
M  V30 11778 H 1110.79 5.62102 -2.38481 0
M  V30 11779 H 1112.2 4.06659 -4.04106 0
M  V30 11780 H 1110.6 3.68664 -4.73505 0
M  V30 11781 H 1111.67 2.36525 -4.23301 0
M  V30 11782 N 1113.01 1.29761 0.894412 0
M  V30 11783 C 1113.94 1.17902 2.01547 0
M  V30 11784 C 1114.92 0.0719402 1.69948 0
M  V30 11785 O 1116.11 0.252338 1.92554 0
M  V30 11786 C 1113.24 0.860262 3.36477 0
M  V30 11787 C 1112.19 1.92424 3.82305 0
M  V30 11788 C 1111.52 1.45868 5.14419 0
M  V30 11789 C 1112.82 3.33391 4.02054 0
M  V30 11790 H 1114.51 2.11688 2.11727 0
M  V30 11791 H 1112.06 1.01916 1.01731 0
M  V30 11792 H 1114.01 0.763987 4.14417 0
M  V30 11793 H 1112.73 -0.113289 3.26403 0
M  V30 11794 H 1111.39 2.00999 3.06586 0
M  V30 11795 H 1111.04 0.473654 5.00765 0
M  V30 11796 H 1110.74 2.17028 5.46052 0
M  V30 11797 H 1112.26 1.37601 5.94894 0
M  V30 11798 H 1113.68 3.27628 4.7046 0
M  V30 11799 H 1112.07 4.02555 4.4505 0
M  V30 11800 H 1113.14 3.75978 3.06216 0
M  V30 11801 N 1114.49 -1.10549 1.12324 0
M  V30 11802 C 1115.71 -1.8681 0.900927 0
M  V30 11803 C 1116.14 -1.80049 -0.54443 0
M  V30 11804 O 1115.5 -1.16957 -1.38531 0
M  V30 11805 C 1115.54 -3.33197 1.37883 0
M  V30 11806 O 1114.65 -4.08628 0.556529 0
M  V30 11807 H 1113.99 -0.579709 0.32378 0
M  V30 11808 H 1116.52 -1.39678 1.49503 0
M  V30 11809 H 1116.53 -3.84047 1.37739 0
M  V30 11810 H 1115.2 -3.37435 2.43127 0
M  V30 11811 H 1113.78 -3.67627 0.62486 0
M  V30 11812 N 1115.97 -0.914965 -1.28321 0
M  V30 11813 C 1117.38 -0.59512 -1.76961 0
M  V30 11814 C 1117.73 0.88958 -1.74874 0
M  V30 11815 O 1116.85 1.6959 -1.34418 0
M  V30 11816 C 1117.45 -1.07353 -3.21342 0
M  V30 11817 C 1116.01 -0.804577 -3.677 0
M  V30 11818 C 1115.15 -1.23955 -2.48053 0
M  V30 11819 H 1118.1 -1.0961 -1.14767 0
M  V30 11820 H 1118.13 -0.415506 -3.78225 0
M  V30 11821 H 1117.64 -2.15413 -3.22829 0
M  V30 11822 H 1115.74 0.26277 -3.71672 0
M  V30 11823 H 1115.85 -1.41317 -4.57784 0
M  V30 11824 H 1114.22 -0.658274 -2.46046 0
M  V30 11825 H 1115 -2.32853 -2.52258 0
M  V30 11826 N 1117.44 1.42219 -0.679077 0
M  V30 11827 C 1118.69 2.01081 -0.202718 0
M  V30 11828 C 1119.01 1.53986 1.19639 0
M  V30 11829 O 1118.28 0.763359 1.80415 0
M  V30 11830 H 1116.86 0.743526 -0.0719547 0
M  V30 11831 H 1119.52 1.74077 -0.876544 0
M  V30 11832 H 1118.62 3.11411 -0.207314 0
M  V30 11833 N 1118.92 0.422693 1.51826 0
M  V30 11834 C 1120.16 -0.147997 2.03864 0
M  V30 11835 C 1120.53 -1.41224 1.30076 0
M  V30 11836 O 1121.73 -2.06224 1.72409 0
M  V30 11837 C 1120 -0.376248 3.55414 0
M  V30 11838 S 1121.56 -0.912444 4.29208 0
M  V30 11839 H 1118.37 -0.0387084 0.709946 0
M  V30 11840 H 1120.98 0.578733 1.86738 0
M  V30 11841 H 1119.68 0.550451 4.06692 0
M  V30 11842 H 1119.21 -1.13047 3.76807 0
M  V30 11843 H 1121.23 -2.19161 4.45177 0
M  V30 11844 N 1120.4 -1.5685 0.153553 0
M  V30 11845 C 1121.63 -2.00701 -0.502678 0
M  V30 11846 C 1122.04 -1.0337 -1.57988 0
M  V30 11847 O 1121.4 -0.0317233 -1.82472 0
M  V30 11848 C 1121.45 -3.44443 -1.09732 0
M  V30 11849 O 1121.17 -4.38054 -0.0631405 0
M  V30 11850 C 1122.67 -4.03605 -1.83352 0
M  V30 11851 H 1119.89 -0.658229 -0.130289 0
M  V30 11852 H 1122.44 -2.02965 0.250063 0
M  V30 11853 H 1120.59 -3.43009 -1.80065 0
M  V30 11854 H 1121.01 -5.22114 -0.499681 0
M  V30 11855 H 1122.48 -5.0616 -2.20241 0
M  V30 11856 H 1122.96 -3.44687 -2.7219 0
M  V30 11857 H 1123.56 -4.08688 -1.17703 0
M  V30 11858 N 1121.88 0.120221 -1.57141 0
M  V30 11859 C 1123.1 0.84637 -1.89344 0
M  V30 11860 C 1123.53 1.72702 -0.745365 0
M  V30 11861 O 1122.89 1.7873 0.304155 0
M  V30 11862 C 1122.93 1.65671 -3.20289 0
M  V30 11863 O 1122.04 2.76353 -3.06109 0
M  V30 11864 H 1121.38 0.234132 -0.621352 0
M  V30 11865 H 1123.91 0.102986 -2.04341 0
M  V30 11866 H 1123.92 2.04621 -3.52979 0
M  V30 11867 H 1122.59 1.01023 -4.03444 0
M  V30 11868 H 1121.17 2.40615 -2.84884 0
M  V30 11869 N 1123.36 1.52689 0.390367 0
M  V30 11870 C 1124.58 1.71839 1.16129 0
M  V30 11871 C 1125.01 0.435226 1.82996 0
M  V30 11872 O 1124.36 -0.60889 1.70769 0
M  V30 11873 C 1124.41 2.86784 2.18603 0
M  V30 11874 O 1123.52 2.53662 3.25161 0
M  V30 11875 H 1122.86 0.571455 0.338135 0
M  V30 11876 H 1125.39 1.99475 0.45508 0
M  V30 11877 H 1125.4 3.12239 2.62622 0
M  V30 11878 H 1124.07 3.79872 1.69322 0
M  V30 11879 H 1122.65 2.38942 2.86289 0
M  V30 11880 N 1124.83 -0.648732 1.43629 0
M  V30 11881 C 1126.06 -1.44117 1.49148 0
M  V30 11882 C 1126.48 -1.87767 0.111952 0
M  V30 11883 O 1125.84 -1.57655 -0.895249 0
M  V30 11884 C 1125.89 -2.64938 2.44623 0
M  V30 11885 O 1124.99 -3.64155 1.93559 0
M  V30 11886 H 1124.34 -0.431933 0.504312 0
M  V30 11887 H 1126.87 -0.793439 1.88589 0
M  V30 11888 H 1126.88 -3.12698 2.62076 0
M  V30 11889 H 1125.55 -2.3251 3.44836 0
M  V30 11890 H 1124.13 -3.23322 1.85789 0
M  V30 11891 N 1126.31 -1.30234 -0.887518 0
M  V30 11892 C 1127.54 -1.21955 -1.67755 0
M  V30 11893 C 1127.96 0.214701 -1.86871 0
M  V30 11894 O 1127.32 1.15459 -1.39782 0
M  V30 11895 C 1127.37 -1.95079 -3.03276 0
M  V30 11896 O 1126.47 -1.27615 -3.92158 0
M  V30 11897 H 1125.81 -0.421948 -0.512695 0
M  V30 11898 H 1128.34 -1.72011 -1.10785 0
M  V30 11899 H 1128.35 -2.04004 -3.53336 0
M  V30 11900 H 1127.03 -2.99392 -2.88682 0
M  V30 11901 H 1125.61 -1.27029 -3.50597 0
M  V30 11902 N 1127.79 1.09952 -1.12909 0
M  V30 11903 C 1128.75 2.14615 -0.804548 0
M  V30 11904 C 1129.75 1.5975 0.18345 0
M  V30 11905 O 1130.94 1.74147 -0.0429623 0
M  V30 11906 C 1128.08 3.40333 -0.196471 0
M  V30 11907 H 1129.27 2.44835 -1.73193 0
M  V30 11908 H 1126.82 1.25399 -0.932997 0
M  V30 11909 H 1127.56 3.15735 0.740388 0
M  V30 11910 H 1127.34 3.81444 -0.907886 0
M  V30 11911 H 1128.83 4.17598 0.0139264 0
M  V30 11912 N 1129.27 0.921757 1.27833 0
M  V30 11913 C 1130.23 0.420978 2.25301 0
M  V30 11914 C 1131.23 -0.457158 1.54165 0
M  V30 11915 O 1132.42 -0.259079 1.72263 0
M  V30 11916 C 1129.55 -0.395501 3.38598 0
M  V30 11917 H 1130.75 1.28206 2.71115 0
M  V30 11918 H 1128.3 0.701893 1.39654 0
M  V30 11919 H 1129.03 -1.27565 2.98157 0
M  V30 11920 H 1128.82 0.234029 3.91401 0
M  V30 11921 H 1130.31 -0.736444 4.11055 0
M  V30 11922 N 1130.75 -1.41857 0.686609 0
M  V30 11923 C 1131.69 -2.30795 0.015643 0
M  V30 11924 C 1132.66 -1.46616 -0.780569 0
M  V30 11925 O 1133.85 -1.75423 -0.750424 0
M  V30 11926 C 1130.99 -3.32577 -0.921229 0
M  V30 11927 C 1130.1 -4.3184 -0.117585 0
M  V30 11928 C 1129.24 -5.20693 -1.05128 0
M  V30 11929 C 1128.28 -6.11629 -0.240018 0
M  V30 11930 N 1127.41 -6.92995 -1.12704 0
M  V30 11931 H 1132.25 -2.87615 0.77985 0
M  V30 11932 H 1129.79 -1.41661 0.396298 0
M  V30 11933 H 1131.75 -3.90129 -1.47836 0
M  V30 11934 H 1130.38 -2.77328 -1.65193 0
M  V30 11935 H 1129.43 -3.7631 0.55634 0
M  V30 11936 H 1130.74 -4.96168 0.511753 0
M  V30 11937 H 1129.9 -5.83035 -1.67795 0
M  V30 11938 H 1128.63 -4.5657 -1.71449 0
M  V30 11939 H 1127.64 -5.48345 0.399779 0
M  V30 11940 H 1128.86 -6.77805 0.419266 0
M  V30 11941 H 1126.81 -6.31489 -1.77644 0
M  V30 11942 H 1126.73 -7.53974 -0.553065 0
M  V30 11943 H 1128 -7.59813 -1.7408 0
M  V30 11944 N 1132.22 -0.430739 -1.51599 0
M  V30 11945 C 1133.15 0.374695 -2.30474 0
M  V30 11946 C 1134.14 1.02694 -1.35602 0
M  V30 11947 O 1135.32 1.03184 -1.6452 0
M  V30 11948 C 1132.45 1.47981 -3.14196 0
M  V30 11949 C 1131.4 0.951415 -4.17291 0
M  V30 11950 C 1130.73 2.15177 -4.89492 0
M  V30 11951 C 1132.03 -0.00957951 -5.22299 0
M  V30 11952 H 1133.72 -0.283508 -2.98055 0
M  V30 11953 H 1131.27 -0.13779 -1.43339 0
M  V30 11954 H 1133.22 2.05043 -3.68151 0
M  V30 11955 H 1131.95 2.16621 -2.44424 0
M  V30 11956 H 1130.61 0.403052 -3.64378 0
M  V30 11957 H 1130.25 2.82421 -4.1623 0
M  V30 11958 H 1129.95 1.80464 -5.59202 0
M  V30 11959 H 1131.48 2.72806 -5.46269 0
M  V30 11960 H 1132.89 0.470527 -5.71366 0
M  V30 11961 H 1131.29 -0.268959 -5.99497 0
M  V30 11962 H 1132.36 -0.948297 -4.75537 0
M  V30 11963 N 1133.7 1.56767 -0.161869 0
M  V30 11964 C 1134.63 2.20511 0.767918 0
M  V30 11965 C 1135.61 1.15783 1.24612 0
M  V30 11966 O 1136.8 1.44179 1.301 0
M  V30 11967 C 1133.93 2.83844 2.00125 0
M  V30 11968 C 1132.88 3.94528 1.65926 0
M  V30 11969 C 1132.21 4.44866 2.96646 0
M  V30 11970 C 1133.51 5.14583 0.894497 0
M  V30 11971 H 1135.2 2.98464 0.236607 0
M  V30 11972 H 1132.75 1.43561 0.112363 0
M  V30 11973 H 1134.7 3.27109 2.65664 0
M  V30 11974 H 1133.43 2.03246 2.55654 0
M  V30 11975 H 1132.08 3.51904 1.02759 0
M  V30 11976 H 1131.73 3.61071 3.50196 0
M  V30 11977 H 1131.43 5.19531 2.74521 0
M  V30 11978 H 1132.96 4.90812 3.6323 0
M  V30 11979 H 1134.37 5.54601 1.45228 0
M  V30 11980 H 1132.77 5.95105 0.772636 0
M  V30 11981 H 1133.84 4.84773 -0.110986 0
M  V30 11982 N 1135.18 -0.111886 1.57202 0
M  V30 11983 C 1136.41 -0.836317 1.89791 0
M  V30 11984 C 1136.83 -1.72304 0.754513 0
M  V30 11985 O 1136.19 -1.78889 -0.294672 0
M  V30 11986 C 1136.24 -1.63971 3.21164 0
M  V30 11987 O 1135.34 -2.74726 3.0757 0
M  V30 11988 H 1134.68 -0.230833 0.622585 0
M  V30 11989 H 1137.21 -0.0921478 2.04392 0
M  V30 11990 H 1137.22 -2.02746 3.54059 0
M  V30 11991 H 1135.9 -0.98882 4.03974 0
M  V30 11992 H 1134.47 -2.39101 2.86156 0
M  V30 11993 N 1136.66 -1.52894 -0.382264 0
M  V30 11994 C 1138.07 -1.60135 -0.959887 0
M  V30 11995 C 1138.42 -0.458363 -1.90771 0
M  V30 11996 O 1137.55 0.417614 -2.12332 0
M  V30 11997 C 1138.14 -2.90243 -1.74769 0
M  V30 11998 C 1136.7 -2.99874 -2.27491 0
M  V30 11999 C 1135.85 -2.55302 -1.0824 0
M  V30 12000 H 1138.8 -1.57875 -0.161589 0
M  V30 12001 H 1138.82 -2.77108 -2.60751 0
M  V30 12002 H 1138.33 -3.73412 -1.0576 0
M  V30 12003 H 1136.43 -2.21258 -2.99793 0
M  V30 12004 H 1136.54 -4.04643 -2.56516 0
M  V30 12005 H 1134.91 -2.09781 -1.44444 0
M  V30 12006 H 1135.69 -3.40872 -0.407553 0
M  V30 12007 N 1138.14 0.641106 -1.43971 0
M  V30 12008 C 1139.55 0.958161 -1.27638 0
M  V30 12009 C 1139.75 2.00456 -0.204885 0
M  V30 12010 O 1138.81 2.49106 0.412606 0
M  V30 12011 C 1140.12 1.43091 -2.64472 0
M  V30 12012 C 1141.67 1.54692 -2.72102 0
M  V30 12013 C 1142.15 2.05353 -4.09382 0
M  V30 12014 N 1143.64 2.12638 -4.11509 0
M  V30 12015 C 1144.37 2.52987 -5.14573 0
M  V30 12016 N 1143.87 2.92544 -6.28005 0
M  V30 12017 N 1145.66 2.53033 -5.01927 0
M  V30 12018 H 1137.81 -0.0510973 -2.12339 0
M  V30 12019 H 1140.07 0.039748 -0.947166 0
M  V30 12020 H 1139.78 0.736389 -3.43904 0
M  V30 12021 H 1139.65 2.40375 -2.90688 0
M  V30 12022 H 1142.04 2.23242 -1.92994 0
M  V30 12023 H 1142.12 0.558083 -2.49638 0
M  V30 12024 H 1141.77 1.37401 -4.88962 0
M  V30 12025 H 1141.7 3.0509 -4.29218 0
M  V30 12026 H 1144.19 1.84792 -3.29636 0
M  V30 12027 H 1144.5 3.22116 -7.02468 0
M  V30 12028 H 1142.85 2.90319 -6.31458 0
M  V30 12029 H 1146.04 2.21514 -4.1237 0
M  V30 12030 H 1146.21 2.84155 -5.82375 0
M  V30 12031 N 1139.62 1.30703 0.880598 0
M  V30 12032 C 1141.03 1.09129 1.1646 0
M  V30 12033 C 1141.23 -0.145131 2.00977 0
M  V30 12034 O 1140.29 -0.837502 2.38206 0
M  V30 12035 C 1141.6 2.35717 1.86703 0
M  V30 12036 C 1143.15 2.41224 1.9945 0
M  V30 12037 C 1143.62 3.67665 2.73105 0
M  V30 12038 N 1145.11 3.68498 2.80648 0
M  V30 12039 C 1145.85 4.63024 3.38225 0
M  V30 12040 N 1145.35 5.67898 3.96817 0
M  V30 12041 N 1147.14 4.50561 3.36082 0
M  V30 12042 H 1139.29 2.10019 0.317164 0
M  V30 12043 H 1141.55 0.925994 0.203072 0
M  V30 12044 H 1141.26 3.2597 1.32046 0
M  V30 12045 H 1141.13 2.447 2.87057 0
M  V30 12046 H 1143.52 1.51446 2.53275 0
M  V30 12047 H 1143.6 2.36212 0.981704 0
M  V30 12048 H 1143.24 4.57803 2.19951 0
M  V30 12049 H 1143.17 3.69939 3.7477 0
M  V30 12050 H 1145.67 2.92681 2.39053 0
M  V30 12051 H 1145.98 6.3612 4.3883 0
M  V30 12052 H 1144.32 5.71685 3.95223 0
M  V30 12053 H 1147.51 3.67811 2.89539 0
M  V30 12054 H 1147.69 5.24408 3.80657 0
M  V30 12055 N 1141.09 -1.09351 1.1349 0
M  V30 12056 C 1142.32 -1.85304 0.920324 0
M  V30 12057 C 1142.74 -1.81182 -0.530883 0
M  V30 12058 O 1142.09 -1.20853 -1.36751 0
M  V30 12059 C 1142.14 -3.33249 1.40098 0
M  V30 12060 O 1141.87 -3.37333 2.79531 0
M  V30 12061 C 1143.37 -4.2604 1.22495 0
M  V30 12062 H 1140.59 -0.585294 0.328134 0
M  V30 12063 H 1143.13 -1.38168 1.50765 0
M  V30 12064 H 1141.29 -3.7781 0.85664 0
M  V30 12065 H 1141.7 -4.29614 3.00885 0
M  V30 12066 H 1143.17 -5.27999 1.61 0
M  V30 12067 H 1143.65 -4.38883 0.166717 0
M  V30 12068 H 1144.26 -3.87295 1.75735 0
M  V30 12069 N 1142.57 -0.928524 -1.27343 0
M  V30 12070 C 1143.53 -0.43292 -2.25074 0
M  V30 12071 C 1144.53 0.448976 -1.54405 0
M  V30 12072 O 1145.72 0.249939 -1.72398 0
M  V30 12073 C 1142.86 0.377539 -3.38803 0
M  V30 12074 H 1144.05 -1.29642 -2.70431 0
M  V30 12075 H 1141.6 -0.709289 -1.3928 0
M  V30 12076 H 1142.34 1.25982 -2.98829 0
M  V30 12077 H 1142.12 -0.254782 -3.91271 0
M  V30 12078 H 1143.61 0.714634 -4.1144 0
M  V30 12079 N 1144.05 1.41491 -0.694123 0
M  V30 12080 C 1145.46 1.84283 -0.299439 0
M  V30 12081 C 1145.81 1.58081 1.16211 0
M  V30 12082 O 1144.94 1.05051 1.89191 0
M  V30 12083 C 1145.53 3.34522 -0.536696 0
M  V30 12084 C 1144.09 3.7589 -0.195944 0
M  V30 12085 C 1143.24 2.64908 -0.819692 0
M  V30 12086 H 1146.19 1.31063 -0.894884 0
M  V30 12087 H 1146.21 3.79947 0.205062 0
M  V30 12088 H 1145.72 3.53561 -1.6005 0
M  V30 12089 H 1143.82 3.62452 0.863655 0
M  V30 12090 H 1143.94 4.74671 -0.649954 0
M  V30 12091 H 1142.3 2.53476 -0.249412 0
M  V30 12092 H 1143.08 2.86765 -1.88734 0
M  V30 12093 N 1145.53 0.438773 1.51369 0
M  V30 12094 C 1146.94 0.0911416 1.5934 0
M  V30 12095 C 1147.14 -1.39962 1.44958 0
M  V30 12096 O 1146.2 -2.16968 1.29155 0
M  V30 12097 C 1147.51 0.612531 2.94395 0
M  V30 12098 C 1149.06 0.573098 3.07709 0
M  V30 12099 C 1149.54 1.07149 4.4529 0
M  V30 12100 N 1151.03 1.02953 4.51614 0
M  V30 12101 C 1151.76 1.38602 5.56397 0
M  V30 12102 N 1151.26 1.81543 6.68591 0
M  V30 12103 N 1153.05 1.30409 5.46763 0
M  V30 12104 H 1145.2 1.40872 1.58962 0
M  V30 12105 H 1147.46 0.580589 0.749414 0
M  V30 12106 H 1147.17 1.65562 3.10294 0
M  V30 12107 H 1147.04 0.0382375 3.77181 0
M  V30 12108 H 1149.43 -0.461006 2.91477 0
M  V30 12109 H 1149.51 1.18381 2.26759 0
M  V30 12110 H 1149.16 2.10406 4.62268 0
M  V30 12111 H 1149.09 0.437297 5.24781 0
M  V30 12112 H 1151.58 0.714208 3.7109 0
M  V30 12113 H 1151.89 2.06977 7.44567 0
M  V30 12114 H 1150.24 1.8547 6.69795 0
M  V30 12115 H 1153.43 0.967272 4.57997 0
M  V30 12116 H 1153.6 1.5852 6.28312 0
M  V30 12117 N 1147.01 -1.56678 0.170181 0
M  V30 12118 C 1148.42 -1.83452 -0.346742 0
M  V30 12119 C 1148.77 -1.08993 -1.63141 0
M  V30 12120 O 1147.89 -0.342607 -2.13671 0
M  V30 12121 C 1148.49 -3.32779 -0.635882 0
M  V30 12122 C 1147.05 -3.60052 -1.09725 0
M  V30 12123 C 1146.19 -2.76983 -0.132516 0
M  V30 12124 H 1149.14 -1.53719 0.394465 0
M  V30 12125 H 1149.17 -3.50195 -1.48806 0
M  V30 12126 H 1148.68 -3.86944 0.299291 0
M  V30 12127 H 1146.78 -3.11297 -2.04756 0
M  V30 12128 H 1146.89 -4.68393 -1.00719 0
M  V30 12129 H 1145.26 -2.46794 -0.62966 0
M  V30 12130 H 1146.04 -3.33929 0.796658 0
M  V30 12131 N 1148.48 0.103547 -1.57259 0
M  V30 12132 C 1149.9 0.457527 -1.52901 0
M  V30 12133 C 1150.1 1.80995 -0.8856 0
M  V30 12134 O 1149.16 2.48001 -0.474504 0
M  V30 12135 C 1150.47 0.427793 -2.97641 0
M  V30 12136 C 1152.02 0.51025 -3.08813 0
M  V30 12137 C 1152.49 0.51075 -4.55143 0
M  V30 12138 N 1153.98 0.571748 -4.59658 0
M  V30 12139 C 1154.72 0.593836 -5.70317 0
M  V30 12140 N 1154.21 0.572638 -6.90429 0
M  V30 12141 N 1156.01 0.638011 -5.58467 0
M  V30 12142 H 1148.16 -0.782408 -1.97464 0
M  V30 12143 H 1150.42 -0.290324 -0.90245 0
M  V30 12144 H 1150.13 -0.498608 -3.48148 0
M  V30 12145 H 1150 1.24991 -3.55889 0
M  V30 12146 H 1152.39 1.42707 -2.583 0
M  V30 12147 H 1152.47 -0.339846 -2.53532 0
M  V30 12148 H 1152.11 -0.40209 -5.06306 0
M  V30 12149 H 1152.04 1.37794 -5.08252 0
M  V30 12150 H 1154.53 0.593668 -3.73208 0
M  V30 12151 H 1154.85 0.592542 -7.70525 0
M  V30 12152 H 1153.19 0.539818 -6.929 0
M  V30 12153 H 1156.38 0.652042 -4.63536 0
M  V30 12154 H 1156.56 0.651756 -6.44714 0
M  V30 12155 N 1149.96 1.53094 0.37415 0
M  V30 12156 C 1150.89 1.81901 1.46404 0
M  V30 12157 C 1151.87 0.671949 1.56265 0
M  V30 12158 O 1153.06 0.920978 1.70973 0
M  V30 12159 C 1150.19 2.00123 2.83845 0
M  V30 12160 C 1149.14 3.15864 2.88814 0
M  V30 12161 C 1148.47 3.19364 4.28848 0
M  V30 12162 C 1149.77 4.54633 2.57112 0
M  V30 12163 H 1151.46 2.73172 1.22546 0
M  V30 12164 H 1149.01 1.31444 0.588087 0
M  V30 12165 H 1150.96 2.18859 3.6011 0
M  V30 12166 H 1149.68 1.05555 3.09072 0
M  V30 12167 H 1148.34 2.96935 2.15 0
M  V30 12168 H 1147.99 2.2245 4.51137 0
M  V30 12169 H 1147.69 3.97123 4.3309 0
M  V30 12170 H 1149.22 3.40273 5.06997 0
M  V30 12171 H 1150.63 4.73587 3.23091 0
M  V30 12172 H 1149.03 5.34569 2.72683 0
M  V30 12173 H 1150.1 4.60331 1.52392 0
M  V30 12174 N 1151.44 -0.633461 1.44309 0
M  V30 12175 C 1152.69 -1.39031 1.46679 0
M  V30 12176 C 1153.01 -1.94745 0.0997165 0
M  V30 12177 O 1152.28 -1.75637 -0.867659 0
M  V30 12178 H 1150.86 -0.516051 0.540093 0
M  V30 12179 H 1153.52 -0.745739 1.80069 0
M  V30 12180 H 1152.62 -2.2228 2.19085 0
M  V30 12181 N 1152.92 -1.31168 -0.873655 0
M  V30 12182 C 1154.17 -1.20404 -1.62319 0
M  V30 12183 C 1154.49 0.238829 -1.93532 0
M  V30 12184 O 1153.76 1.15854 -1.57971 0
M  V30 12185 H 1152.34 -0.442632 -0.601736 0
M  V30 12186 H 1155 -1.64445 -1.04613 0
M  V30 12187 H 1154.1 -1.77309 -2.56842 0
M  V30 12188 N 1154.4 1.08748 -1.14068 0
M  V30 12189 C 1155.81 1.33125 -0.880341 0
M  V30 12190 C 1156.01 1.9569 0.480396 0
M  V30 12191 O 1155.07 2.2077 1.22543 0
M  V30 12192 C 1156.38 2.23618 -2.01036 0
M  V30 12193 C 1157.93 2.37108 -2.04326 0
M  V30 12194 C 1158.4 3.30941 -3.1661 0
M  V30 12195 N 1159.9 3.38517 -3.16166 0
M  V30 12196 C 1160.63 4.11142 -3.99687 0
M  V30 12197 N 1160.13 4.86505 -4.93239 0
M  V30 12198 N 1161.92 4.06938 -3.87761 0
M  V30 12199 H 1154.07 0.665164 -2.01716 0
M  V30 12200 H 1156.33 0.355612 -0.878774 0
M  V30 12201 H 1156.04 1.84885 -2.99183 0
M  V30 12202 H 1155.91 3.24056 -1.93049 0
M  V30 12203 H 1158.3 2.75101 -1.06787 0
M  V30 12204 H 1158.38 1.36424 -2.16384 0
M  V30 12205 H 1158.03 2.93669 -4.14392 0
M  V30 12206 H 1157.96 4.31545 -3.01789 0
M  V30 12207 H 1160.45 2.84786 -2.48405 0
M  V30 12208 H 1160.76 5.39372 -5.53441 0
M  V30 12209 H 1159.1 4.8557 -4.9724 0
M  V30 12210 H 1162.3 3.47166 -3.13996 0
M  V30 12211 H 1162.47 4.63275 -4.53079 0
M  V30 12212 N 1155.87 0.935264 1.26849 0
M  V30 12213 C 1157.12 0.578545 1.93642 0
M  V30 12214 C 1157.44 -0.884296 1.73796 0
M  V30 12215 O 1156.71 -1.62768 1.09011 0
M  V30 12216 H 1155.29 0.210976 0.716588 0
M  V30 12217 H 1157.96 1.1893 1.54407 0
M  V30 12218 H 1157.05 0.791268 3.01903 0
M  V30 12219 N 1157.35 -1.41121 0.701616 0
M  V30 12220 C 1158.77 -1.55162 0.373766 0
M  V30 12221 C 1158.97 -1.6759 -1.11875 0
M  V30 12222 O 1158.02 -1.65768 -1.90465 0
M  V30 12223 C 1159.34 -2.78758 1.12759 0
M  V30 12224 C 1160.89 -2.92561 1.11253 0
M  V30 12225 C 1161.36 -4.19052 1.84822 0
M  V30 12226 N 1162.85 -4.26023 1.81821 0
M  V30 12227 C 1163.59 -5.22771 2.3558 0
M  V30 12228 N 1163.08 -6.25512 2.97836 0
M  V30 12229 N 1164.88 -5.14752 2.25802 0
M  V30 12230 H 1157.03 -1.31299 1.66956 0
M  V30 12231 H 1159.29 -0.633894 0.704898 0
M  V30 12232 H 1159 -2.75804 2.18231 0
M  V30 12233 H 1158.87 -3.70456 0.710095 0
M  V30 12234 H 1161.26 -2.95026 0.0660506 0
M  V30 12235 H 1161.34 -2.0202 1.56913 0
M  V30 12236 H 1160.98 -4.17349 2.89452 0
M  V30 12237 H 1160.91 -5.08577 1.36592 0
M  V30 12238 H 1163.4 -3.52411 1.36438 0
M  V30 12239 H 1163.72 -6.95736 3.36409 0
M  V30 12240 H 1162.06 -6.25997 3.01916 0
M  V30 12241 H 1165.25 -4.33414 1.76833 0
M  V30 12242 H 1165.42 -5.89983 2.68001 0
M  V30 12243 N 1158.83 -0.446794 -1.51134 0
M  V30 12244 C 1160.24 0.0141132 -1.86695 0
M  V30 12245 C 1160.59 1.41095 -1.36333 0
M  V30 12246 O 1159.72 2.04139 -0.718068 0
M  V30 12247 C 1160.31 0.0323866 -3.38785 0
M  V30 12248 C 1158.87 0.437737 -3.73846 0
M  V30 12249 C 1158.02 -0.363436 -2.74908 0
M  V30 12250 H 1160.97 -0.66221 -1.44224 0
M  V30 12251 H 1160.99 0.839865 -3.71115 0
M  V30 12252 H 1160.5 -0.984374 -3.75409 0
M  V30 12253 H 1158.6 1.45975 -3.42815 0
M  V30 12254 H 1158.72 0.155964 -4.78846 0
M  V30 12255 H 1157.08 0.179566 -2.54066 0
M  V30 12256 H 1157.86 -1.37925 -3.14375 0
M  V30 12257 N 1160.31 1.56586 -0.178487 0
M  V30 12258 C 1161.56 1.96709 0.4637 0
M  V30 12259 C 1161.88 1.06586 1.63292 0
M  V30 12260 O 1161.15 0.133683 1.95443 0
M  V30 12261 H 1159.73 0.726381 0.174299 0
M  V30 12262 H 1162.39 1.9314 -0.261345 0
M  V30 12263 H 1161.49 3.01164 0.818934 0
M  V30 12264 N 1161.79 -0.095206 1.57312 0
M  V30 12265 C 1163.2 -0.449411 1.53142 0
M  V30 12266 C 1163.4 -1.80523 0.895187 0
M  V30 12267 O 1162.46 -2.47746 0.487649 0
M  V30 12268 C 1163.77 -0.412002 2.97864 0
M  V30 12269 C 1165.32 -0.493866 3.09079 0
M  V30 12270 C 1165.79 -0.486606 4.55408 0
M  V30 12271 N 1167.29 -0.547363 4.59955 0
M  V30 12272 C 1168.02 -0.563582 5.70624 0
M  V30 12273 N 1167.52 -0.536015 6.90723 0
M  V30 12274 N 1169.31 -0.608385 5.58798 0
M  V30 12275 H 1161.46 0.792869 1.97047 0
M  V30 12276 H 1163.72 0.295106 0.900898 0
M  V30 12277 H 1163.43 0.517064 3.47878 0
M  V30 12278 H 1163.3 -1.23102 3.56547 0
M  V30 12279 H 1165.69 -1.41335 2.59053 0
M  V30 12280 H 1165.77 0.353286 2.53349 0
M  V30 12281 H 1165.42 0.428935 5.06086 0
M  V30 12282 H 1165.35 -1.35097 5.08976 0
M  V30 12283 H 1167.84 -0.573867 3.73517 0
M  V30 12284 H 1168.15 -0.551671 7.70828 0
M  V30 12285 H 1166.49 -0.503064 6.93177 0
M  V30 12286 H 1169.69 -0.627451 4.63876 0
M  V30 12287 H 1169.86 -0.617556 6.45051 0
M  V30 12288 N 1163.26 -1.53291 -0.366026 0
M  V30 12289 C 1164.23 -1.79025 -1.43117 0
M  V30 12290 C 1165.23 -0.660676 -1.46601 0
M  V30 12291 O 1166.42 -0.928875 -1.47369 0
M  V30 12292 C 1163.55 -1.91192 -2.82238 0
M  V30 12293 H 1164.74 -2.74154 -1.21572 0
M  V30 12294 H 1162.3 -1.44361 -0.599132 0
M  V30 12295 H 1163.03 -0.98129 -3.09097 0
M  V30 12296 H 1162.82 -2.7335 -2.81109 0
M  V30 12297 H 1164.31 -2.12696 -3.59375 0
M  V30 12298 N 1164.74 0.6258 -1.44643 0
M  V30 12299 C 1165.99 1.38251 -1.47414 0
M  V30 12300 C 1166.31 1.94689 -0.110043 0
M  V30 12301 O 1165.58 1.76095 0.858333 0
M  V30 12302 H 1164.16 0.513179 -0.542823 0
M  V30 12303 H 1166.82 0.736179 -1.80462 0
M  V30 12304 H 1165.92 2.21115 -2.2026 0
M  V30 12305 N 1166.22 1.31629 0.866686 0
M  V30 12306 C 1167.18 1.1951 1.95576 0
M  V30 12307 C 1168.18 0.121319 1.60342 0
M  V30 12308 O 1169.37 0.370832 1.70207 0
M  V30 12309 C 1166.51 0.835201 3.30511 0
M  V30 12310 H 1167.7 2.16285 2.07752 0
M  V30 12311 H 1165.25 1.15288 1.05539 0
M  V30 12312 H 1165.99 -0.131245 3.24034 0
M  V30 12313 H 1165.77 1.61142 3.57457 0
M  V30 12314 H 1167.26 0.774393 4.10357 0
M  V30 12315 N 1167.7 -1.08142 1.14644 0
M  V30 12316 C 1168.63 -2.17139 0.858667 0
M  V30 12317 C 1169.61 -1.69064 -0.187452 0
M  V30 12318 O 1170.8 -1.94151 -0.0435458 0
M  V30 12319 C 1167.93 -3.45648 0.33834 0
M  V30 12320 C 1166.88 -4.07129 1.32021 0
M  V30 12321 C 1166.21 -5.30623 0.659075 0
M  V30 12322 C 1167.51 -4.48095 2.68343 0
M  V30 12323 H 1169.2 -2.41468 1.77012 0
M  V30 12324 H 1166.75 -1.16052 0.852523 0
M  V30 12325 H 1168.7 -4.21216 0.124611 0
M  V30 12326 H 1167.42 -3.2088 -0.608553 0
M  V30 12327 H 1166.08 -3.33596 1.52016 0
M  V30 12328 H 1165.73 -5.02142 -0.293711 0
M  V30 12329 H 1165.43 -5.72714 1.31427 0
M  V30 12330 H 1166.95 -6.08903 0.454933 0
M  V30 12331 H 1168.37 -5.14828 2.5224 0
M  V30 12332 H 1166.76 -5.01113 3.30161 0
M  V30 12333 H 1167.83 -3.59852 3.25015 0
M  V30 12334 N 1169.18 -0.941978 -1.26351 0
M  V30 12335 C 1170.12 -0.450906 -2.26353 0
M  V30 12336 C 1171.09 0.489857 -1.58712 0
M  V30 12337 O 1172.28 0.40589 -1.86433 0
M  V30 12338 C 1169.42 0.277054 -3.43986 0
M  V30 12339 C 1168.53 -0.699474 -4.263 0
M  V30 12340 C 1167.67 0.0497661 -5.31177 0
M  V30 12341 C 1166.71 -0.918531 -6.05169 0
M  V30 12342 N 1165.84 -0.200993 -7.01812 0
M  V30 12343 H 1170.68 -1.30861 -2.6773 0
M  V30 12344 H 1168.22 -0.656514 -1.31637 0
M  V30 12345 H 1170.18 0.715567 -4.11018 0
M  V30 12346 H 1168.81 1.09889 -3.0352 0
M  V30 12347 H 1167.86 -1.2565 -3.59049 0
M  V30 12348 H 1169.17 -1.4389 -4.77595 0
M  V30 12349 H 1168.33 0.547521 -6.04224 0
M  V30 12350 H 1167.07 0.822068 -4.80722 0
M  V30 12351 H 1166.07 -1.4274 -5.30947 0
M  V30 12352 H 1167.3 -1.69085 -6.57713 0
M  V30 12353 H 1165.24 0.552803 -6.53667 0
M  V30 12354 H 1165.16 -0.879735 -7.50864 0
M  V30 12355 H 1166.43 0.275642 -7.79012 0
M  V30 12356 N 1170.66 1.40747 -0.709091 0
M  V30 12357 C 1171.62 2.29118 -0.0611607 0
M  V30 12358 C 1172.62 1.45049 0.694081 0
M  V30 12359 O 1173.81 1.66039 0.526952 0
M  V30 12360 C 1170.94 3.28154 0.923447 0
M  V30 12361 H 1172.13 2.87913 -0.839413 0
M  V30 12362 H 1169.69 1.4896 -0.473363 0
M  V30 12363 H 1170.42 2.74366 1.72899 0
M  V30 12364 H 1170.21 3.90207 0.384862 0
M  V30 12365 H 1171.7 3.94343 1.37417 0
M  V30 12366 N 1172.13 0.454803 1.50895 0
M  V30 12367 C 1173.04 -0.353495 2.31921 0
M  V30 12368 C 1174.06 -1.01136 1.41589 0
M  V30 12369 O 1175.24 -1.00291 1.74653 0
M  V30 12370 C 1172.3 -1.43032 3.15821 0
M  V30 12371 C 1171.36 -0.790763 4.21954 0
M  V30 12372 C 1170.59 -1.81628 5.01843 0
M  V30 12373 O 1170.82 -3.04078 4.8259 0
M  V30 12374 O 1169.75 -1.39713 5.8546 0
M  V30 12375 H 1173.58 0.308463 3.02129 0
M  V30 12376 H 1171.16 0.216971 1.47816 0
M  V30 12377 H 1173.04 -2.05444 3.67927 0
M  V30 12378 H 1171.72 -2.07605 2.48358 0
M  V30 12379 H 1170.63 -0.128127 3.73881 0
M  V30 12380 H 1171.96 -0.188251 4.9184 0
M  V30 12381 N 1173.61 -1.56489 0.186789 0
M  V30 12382 C 1174.57 -2.17478 -0.723596 0
M  V30 12383 C 1175.57 -1.12698 -1.14699 0
M  V30 12384 O 1176.76 -1.38128 -1.06143 0
M  V30 12385 C 1173.9 -2.77015 -1.98685 0
M  V30 12386 H 1175.09 -2.99282 -0.192403 0
M  V30 12387 H 1172.64 -1.56174 -0.0628153 0
M  V30 12388 H 1173.38 -1.98987 -2.56076 0
M  V30 12389 H 1173.16 -3.53711 -1.69207 0
M  V30 12390 H 1174.65 -3.23872 -2.63622 0
M  V30 12391 N 1175.09 0.086862 -1.5736 0
M  V30 12392 C 1176.34 0.787281 -1.86135 0
M  V30 12393 C 1176.66 1.78866 -0.776667 0
M  V30 12394 O 1175.93 1.94915 0.19625 0
M  V30 12395 H 1174.51 0.293744 -0.686821 0
M  V30 12396 H 1177.17 0.0665326 -1.94786 0
M  V30 12397 H 1176.27 1.3128 -2.83147 0
M  V30 12398 N 1176.57 1.53483 0.357892 0
M  V30 12399 C 1177.98 1.61641 0.934289 0
M  V30 12400 C 1178.33 0.488655 1.90017 0
M  V30 12401 O 1177.45 -0.38378 2.1297 0
M  V30 12402 C 1178.05 2.92987 1.7013 0
M  V30 12403 C 1176.61 3.03456 2.22692 0
M  V30 12404 C 1175.76 2.56992 1.04165 0
M  V30 12405 H 1178.71 1.58112 0.136452 0
M  V30 12406 H 1178.73 2.81221 2.5631 0
M  V30 12407 H 1178.24 3.75047 0.998056 0
M  V30 12408 H 1176.34 2.25999 2.96235 0
M  V30 12409 H 1176.45 4.08673 2.50046 0
M  V30 12410 H 1174.82 2.12052 1.41088 0
M  V30 12411 H 1175.6 3.41477 0.353272 0
M  V30 12412 N 1178.05 -0.61812 1.44973 0
M  V30 12413 C 1179.27 -1.40921 1.52171 0
M  V30 12414 C 1179.7 -1.87487 0.151755 0
M  V30 12415 O 1179.05 -1.59518 -0.861606 0
M  V30 12416 C 1179.1 -2.59689 2.50188 0
M  V30 12417 O 1178.21 -3.59967 2.0124 0
M  V30 12418 H 1177.55 -0.421138 0.51336 0
M  V30 12419 H 1180.08 -0.753258 1.90229 0
M  V30 12420 H 1180.09 -3.07069 2.6865 0
M  V30 12421 H 1178.76 -2.25144 3.4969 0
M  V30 12422 H 1177.34 -3.19308 1.92605 0
M  V30 12423 N 1179.52 -1.32087 -0.859693 0
M  V30 12424 C 1180.49 -1.20546 -1.94939 0
M  V30 12425 C 1181.49 -0.12982 -1.60275 0
M  V30 12426 O 1182.68 -0.379853 -1.70008 0
M  V30 12427 C 1179.81 -0.852717 -3.30063 0
M  V30 12428 H 1181 -2.17384 -2.06602 0
M  V30 12429 H 1178.55 -1.15846 -1.04926 0
M  V30 12430 H 1179.29 0.114059 -3.24099 0
M  V30 12431 H 1179.07 -1.63035 -3.56598 0
M  V30 12432 H 1180.56 -0.796145 -4.09941 0
M  V30 12433 N 1181 1.07532 -1.15215 0
M  V30 12434 C 1182.41 1.61567 -0.935568 0
M  V30 12435 C 1182.76 1.89085 0.523557 0
M  V30 12436 O 1181.89 1.65495 1.39429 0
M  V30 12437 C 1182.48 2.93531 -1.69189 0
M  V30 12438 C 1181.04 3.44316 -1.52063 0
M  V30 12439 C 1180.19 2.18404 -1.70866 0
M  V30 12440 H 1183.14 0.906431 -1.30267 0
M  V30 12441 H 1183.16 3.62377 -1.16031 0
M  V30 12442 H 1182.67 2.73471 -2.75381 0
M  V30 12443 H 1180.77 3.69462 -0.482567 0
M  V30 12444 H 1180.89 4.20478 -2.29642 0
M  V30 12445 H 1179.25 2.28012 -1.13502 0
M  V30 12446 H 1180.03 2.00841 -2.7842 0
M  V30 12447 N 1182.48 0.948665 1.2585 0
M  V30 12448 C 1183.89 0.641829 1.75321 0
M  V30 12449 C 1184.24 -0.842903 1.77171 0
M  V30 12450 O 1183.37 -1.65967 1.38867 0
M  V30 12451 C 1183.96 1.15835 3.18383 0
M  V30 12452 C 1182.52 0.901784 3.65438 0
M  V30 12453 C 1181.67 1.30489 2.44679 0
M  V30 12454 H 1184.62 1.12614 1.1182 0
M  V30 12455 H 1184.64 0.515639 3.7699 0
M  V30 12456 H 1184.15 2.23897 3.17004 0
M  V30 12457 H 1182.25 -0.164135 3.72238 0
M  V30 12458 H 1182.37 1.53405 4.53876 0
M  V30 12459 H 1180.73 0.723278 2.44215 0
M  V30 12460 H 1181.51 2.3946 2.45996 0
M  V30 12461 N 1183.96 -1.40369 0.716545 0
M  V30 12462 C 1185.37 -1.54757 0.390202 0
M  V30 12463 C 1185.57 -1.68767 -1.10091 0
M  V30 12464 O 1184.63 -1.67779 -1.88697 0
M  V30 12465 C 1185.94 -2.77546 1.15709 0
M  V30 12466 C 1187.49 -2.91364 1.14349 0
M  V30 12467 C 1187.97 -4.17068 1.89256 0
M  V30 12468 N 1189.46 -4.2407 1.8633 0
M  V30 12469 C 1190.19 -5.20243 2.41112 0
M  V30 12470 N 1189.69 -6.22318 3.04454 0
M  V30 12471 N 1191.48 -5.12328 2.31249 0
M  V30 12472 H 1183.63 -1.29521 1.68339 0
M  V30 12473 H 1185.9 -0.626382 0.711582 0
M  V30 12474 H 1185.6 -2.73474 2.21144 0
M  V30 12475 H 1185.48 -3.69682 0.749347 0
M  V30 12476 H 1187.86 -2.94939 0.0973383 0
M  V30 12477 H 1187.94 -2.00344 1.59047 0
M  V30 12478 H 1187.59 -4.14255 2.93863 0
M  V30 12479 H 1187.52 -5.07099 1.41978 0
M  V30 12480 H 1190.01 -3.50944 1.40168 0
M  V30 12481 H 1190.32 -6.92129 3.43769 0
M  V30 12482 H 1188.67 -6.22759 3.08538 0
M  V30 12483 H 1191.86 -4.31514 1.8142 0
M  V30 12484 H 1192.03 -5.87107 2.74243 0
M  V30 12485 N 1185.44 -0.462799 -1.50652 0
M  V30 12486 C 1186.4 0.324264 -2.26895 0
M  V30 12487 C 1187.4 0.927687 -1.31342 0
M  V30 12488 O 1188.59 0.798159 -1.54839 0
M  V30 12489 C 1185.72 1.46113 -3.08 0
M  V30 12490 H 1186.91 -0.344266 -2.97917 0
M  V30 12491 H 1184.47 -0.216631 -1.54791 0
M  V30 12492 H 1185.2 2.16496 -2.41454 0
M  V30 12493 H 1184.99 1.03433 -3.78212 0
M  V30 12494 H 1186.48 2.01655 -3.65684 0
M  V30 12495 N 1186.91 1.56388 -0.195085 0
M  V30 12496 C 1187.84 2.22091 0.720971 0
M  V30 12497 C 1188.83 1.184 1.22128 0
M  V30 12498 O 1190.01 1.46907 1.27012 0
M  V30 12499 C 1187.14 2.88025 1.94059 0
M  V30 12500 C 1186.09 3.97959 1.5752 0
M  V30 12501 C 1185.42 4.51058 2.87143 0
M  V30 12502 C 1186.72 5.16365 0.785145 0
M  V30 12503 H 1188.41 2.98898 0.173245 0
M  V30 12504 H 1185.96 1.43767 0.0818868 0
M  V30 12505 H 1187.91 3.32671 2.58666 0
M  V30 12506 H 1186.64 2.08623 2.51285 0
M  V30 12507 H 1185.3 3.54004 0.952715 0
M  V30 12508 H 1184.94 3.68418 3.42458 0
M  V30 12509 H 1184.64 5.25237 2.63439 0
M  V30 12510 H 1186.17 4.98406 3.52738 0
M  V30 12511 H 1187.58 5.57556 1.33431 0
M  V30 12512 H 1185.98 5.9661 0.646231 0
M  V30 12513 H 1187.05 4.84428 -0.213789 0
M  V30 12514 N 1188.39 -0.0785156 1.57404 0
M  V30 12515 C 1189.3 -1.11203 2.0657 0
M  V30 12516 C 1190.32 -1.42822 0.993872 0
M  V30 12517 O 1191.49 -1.53133 1.30814 0
M  V30 12518 C 1188.56 -2.40812 2.4942 0
M  V30 12519 C 1187.62 -2.16225 3.70871 0
M  V30 12520 C 1186.85 -3.39654 4.11668 0
M  V30 12521 O 1187.08 -4.48521 3.524 0
M  V30 12522 O 1186.01 -3.28263 5.04507 0
M  V30 12523 H 1189.84 -0.724381 2.94935 0
M  V30 12524 H 1187.42 -0.292184 1.46515 0
M  V30 12525 H 1189.3 -3.17101 2.77534 0
M  V30 12526 H 1187.98 -2.7897 1.64187 0
M  V30 12527 H 1186.89 -1.37663 3.4785 0
M  V30 12528 H 1188.22 -1.82951 4.56935 0
M  V30 12529 N 1189.87 -1.5367 -0.349747 0
M  V30 12530 C 1191.12 -1.70281 -1.08853 0
M  V30 12531 C 1191.44 -0.465438 -1.89364 0
M  V30 12532 O 1190.71 0.520615 -1.88856 0
M  V30 12533 H 1189.29 -0.627775 -0.404854 0
M  V30 12534 H 1191.95 -1.90906 -0.392523 0
M  V30 12535 H 1191.05 -2.57096 -1.76941 0
M  V30 12536 N 1191.35 0.610423 -1.45298 0
M  V30 12537 C 1192.28 1.73207 -1.56594 0
M  V30 12538 C 1193.26 1.64893 -0.417651 0
M  V30 12539 O 1194.44 1.83336 -0.64043 0
M  V30 12540 C 1191.57 3.11803 -1.52959 0
M  V30 12541 C 1190.53 3.34925 -2.66475 0
M  V30 12542 C 1189.85 4.73764 -2.47894 0
M  V30 12543 C 1191.15 3.25456 -4.08504 0
M  V30 12544 H 1192.85 1.6401 -2.50482 0
M  V30 12545 H 1190.39 0.787621 -1.20551 0
M  V30 12546 H 1192.35 3.90065 -1.59458 0
M  V30 12547 H 1191.07 3.21833 -0.55599 0
M  V30 12548 H 1189.73 2.59051 -2.59399 0
M  V30 12549 H 1189.38 4.80524 -1.4868 0
M  V30 12550 H 1189.08 4.90191 -3.24016 0
M  V30 12551 H 1190.6 5.54231 -2.56243 0
M  V30 12552 H 1192.02 3.93597 -4.16839 0
M  V30 12553 H 1190.41 3.53414 -4.84994 0
M  V30 12554 H 1191.48 2.22939 -4.30612 0
M  V30 12555 N 1192.83 1.32541 0.852676 0
M  V30 12556 C 1194.24 1.11575 1.14119 0
M  V30 12557 C 1194.44 -0.102469 2.01239 0
M  V30 12558 O 1193.5 -0.786786 2.39929 0
M  V30 12559 C 1194.81 2.39624 1.81661 0
M  V30 12560 C 1196.36 2.454 1.94288 0
M  V30 12561 C 1196.83 3.73375 2.65245 0
M  V30 12562 N 1198.33 3.74368 2.72769 0
M  V30 12563 C 1199.06 4.70094 3.28328 0
M  V30 12564 N 1198.56 5.76187 3.84682 0
M  V30 12565 N 1200.35 4.57588 3.26449 0
M  V30 12566 H 1192.5 2.10644 0.272544 0
M  V30 12567 H 1194.76 0.930094 0.183385 0
M  V30 12568 H 1194.47 3.28698 1.25102 0
M  V30 12569 H 1194.34 2.50734 2.81802 0
M  V30 12570 H 1196.73 1.56784 2.50005 0
M  V30 12571 H 1196.81 2.38241 0.931379 0
M  V30 12572 H 1196.46 4.62366 2.10191 0
M  V30 12573 H 1196.39 3.77806 3.66838 0
M  V30 12574 H 1198.88 2.97685 2.32791 0
M  V30 12575 H 1199.19 6.45285 4.25238 0
M  V30 12576 H 1197.53 5.79939 3.83008 0
M  V30 12577 H 1200.73 3.7387 2.81672 0
M  V30 12578 H 1200.9 5.32365 3.69448 0
M  V30 12579 N 1194.3 -1.0692 1.15784 0
M  V30 12580 C 1195.23 -2.16216 0.881649 0
M  V30 12581 C 1196.22 -1.69253 -0.16951 0
M  V30 12582 O 1197.4 -1.94186 -0.0229511 0
M  V30 12583 C 1194.53 -3.4527 0.374982 0
M  V30 12584 C 1193.48 -4.05706 1.36332 0
M  V30 12585 C 1192.81 -5.29894 0.715317 0
M  V30 12586 C 1194.11 -4.45224 2.7308 0
M  V30 12587 H 1195.8 -2.39577 1.79563 0
M  V30 12588 H 1193.35 -1.15141 0.864784 0
M  V30 12589 H 1195.3 -4.2106 0.169279 0
M  V30 12590 H 1194.03 -3.21508 -0.574485 0
M  V30 12591 H 1192.69 -3.31965 1.55546 0
M  V30 12592 H 1192.33 -5.02425 -0.240436 0
M  V30 12593 H 1192.03 -5.71287 1.37494 0
M  V30 12594 H 1193.56 -6.08386 0.519489 0
M  V30 12595 H 1194.97 -5.12124 2.57686 0
M  V30 12596 H 1193.37 -4.97583 3.35457 0
M  V30 12597 H 1194.44 -3.56384 3.28813 0
M  V30 12598 N 1195.78 -0.955326 -1.25345 0
M  V30 12599 C 1197.19 -0.651118 -1.74978 0
M  V30 12600 C 1197.54 0.833495 -1.77616 0
M  V30 12601 O 1196.67 1.65228 -1.39745 0
M  V30 12602 C 1197.26 -1.17521 -3.17764 0
M  V30 12603 C 1195.82 -0.921151 -3.64954 0
M  V30 12604 C 1194.97 -1.31784 -2.43984 0
M  V30 12605 H 1197.92 -1.13205 -1.11222 0
M  V30 12606 H 1197.94 -0.535625 -3.76711 0
M  V30 12607 H 1197.45 -2.25575 -3.15813 0
M  V30 12608 H 1195.56 0.144392 -3.7232 0
M  V30 12609 H 1195.67 -1.5581 -4.53056 0
M  V30 12610 H 1194.03 -0.736219 -2.43828 0
M  V30 12611 H 1194.82 -2.40761 -2.44723 0
M  V30 12612 N 1197.26 1.39987 -0.723979 0
M  V30 12613 C 1198.67 1.83606 -0.338461 0
M  V30 12614 C 1199.02 1.6051 1.12831 0
M  V30 12615 O 1198.15 1.09041 1.8692 0
M  V30 12616 C 1198.74 3.33308 -0.607533 0
M  V30 12617 C 1197.3 3.75389 -0.275632 0
M  V30 12618 C 1196.45 2.6311 -0.875699 0
M  V30 12619 H 1199.4 1.29135 -0.922483 0
M  V30 12620 H 1199.42 3.80297 0.124424 0
M  V30 12621 H 1198.93 3.50087 -1.67514 0
M  V30 12622 H 1197.03 3.64203 0.786579 0
M  V30 12623 H 1197.15 4.73185 -0.750492 0
M  V30 12624 H 1195.51 2.5289 -0.303122 0
M  V30 12625 H 1196.29 2.82698 -1.94774 0
M  V30 12626 N 1198.74 0.470782 1.50404 0
M  V30 12627 C 1199.67 -0.369532 2.25188 0
M  V30 12628 C 1200.65 -0.996478 1.28488 0
M  V30 12629 O 1201.83 -1.03247 1.57709 0
M  V30 12630 C 1198.96 -1.51775 3.02791 0
M  V30 12631 C 1198.01 -1.00821 4.14412 0
M  V30 12632 S 1198.84 0.076844 5.35445 0
M  V30 12633 C 1200 -1.07525 6.16595 0
M  V30 12634 H 1200.23 0.265286 2.96114 0
M  V30 12635 H 1197.76 0.255662 1.52269 0
M  V30 12636 H 1199.72 -2.17582 3.48092 0
M  V30 12637 H 1198.38 -2.12408 2.31391 0
M  V30 12638 H 1197.57 -1.8678 4.68112 0
M  V30 12639 H 1197.18 -0.427851 3.71545 0
M  V30 12640 H 1199.47 -1.98693 6.47709 0
M  V30 12641 H 1200.41 -0.577518 7.05741 0
M  V30 12642 H 1200.82 -1.32894 5.48634 0
M  V30 12643 N 1200.22 -1.56282 0.203376 0
M  V30 12644 C 1201.63 -1.84146 -0.307752 0
M  V30 12645 C 1201.98 -1.12429 -1.60792 0
M  V30 12646 O 1201.1 -0.387852 -2.12896 0
M  V30 12647 C 1201.7 -3.34053 -0.565152 0
M  V30 12648 C 1200.26 -3.62298 -1.02063 0
M  V30 12649 C 1199.41 -2.77202 -0.0737343 0
M  V30 12650 H 1202.36 -1.52848 0.426983 0
M  V30 12651 H 1202.38 -3.53273 -1.41345 0
M  V30 12652 H 1201.89 -3.86222 0.381301 0
M  V30 12653 H 1199.99 -3.1557 -1.98107 0
M  V30 12654 H 1200.1 -4.70424 -0.907614 0
M  V30 12655 H 1198.47 -2.48074 -0.577169 0
M  V30 12656 H 1199.25 -3.32164 0.86731 0
M  V30 12657 N 1201.7 0.070167 -1.57444 0
M  V30 12658 C 1202.94 0.764899 -1.8847 0
M  V30 12659 C 1203.3 1.75104 -0.797264 0
M  V30 12660 O 1202.59 1.9057 0.198411 0
M  V30 12661 C 1202.78 1.5111 -3.23883 0
M  V30 12662 C 1202.61 0.598732 -4.45696 0
M  V30 12663 C 1201.38 0.235066 -5.04753 0
M  V30 12664 C 1203.58 -0.105234 -5.14192 0
M  V30 12665 N 1201.56 -0.682856 -6.1009 0
M  V30 12666 C 1202.93 -0.880286 -6.13719 0
M  V30 12667 C 1204.99 -0.176534 -4.97587 0
M  V30 12668 C 1203.69 -1.72002 -6.98432 0
M  V30 12669 C 1205.72 -1.00324 -5.82828 0
M  V30 12670 C 1205.08 -1.76634 -6.81894 0
M  V30 12671 H 1201.18 0.255278 -0.73916 0
M  V30 12672 H 1203.76 0.0263555 -1.94682 0
M  V30 12673 H 1201.93 2.22036 -3.18676 0
M  V30 12674 H 1203.67 2.15498 -3.42553 0
M  V30 12675 H 1200.42 0.588283 -4.69932 0
M  V30 12676 H 1200.84 -1.13511 -6.67416 0
M  V30 12677 H 1205.49 0.399107 -4.20912 0
M  V30 12678 H 1203.2 -2.30662 -7.74481 0
M  V30 12679 H 1206.79 -1.06141 -5.72036 0
M  V30 12680 H 1205.67 -2.39573 -7.46709 0
M  V30 12681 N 1203.17 1.53854 0.341593 0
M  V30 12682 C 1204.12 1.8268 1.43982 0
M  V30 12683 C 1205.12 0.697415 1.54378 0
M  V30 12684 O 1206.32 0.880785 1.56978 0
M  V30 12685 H 1202.7 0.578788 0.480113 0
M  V30 12686 H 1204.67 2.74556 1.16884 0
M  V30 12687 C 1203.42 2.05496 2.80476 0
M  V30 12688 H 1202.74 2.91852 2.73244 0
M  V30 12689 H 1204.18 2.2963 3.56435 0
M  V30 12690 C 1202.64 0.841061 3.26233 0
M  V30 12691 O 1203.17 0.0414376 4.01679 0
M  V30 12692 N 1201.37 0.657736 2.83059 0
M  V30 12693 H 1200.92 1.30962 2.21826 0
M  V30 12694 H 1200.88 -0.153003 3.14027 0
M  V30 12695 N 1204.65 -0.602709 1.4562 0
M  V30 12696 C 1205.9 -1.36359 1.50113 0
M  V30 12697 C 1206.23 -1.93663 0.144297 0
M  V30 12698 O 1205.51 -1.75337 -0.841851 0
M  V30 12699 C 1205.79 -2.50788 2.58413 0
M  V30 12700 C 1205.64 -1.98649 4.03557 0
M  V30 12701 C 1206.96 -3.52905 2.62957 0
M  V30 12702 H 1204.08 -0.494455 0.54652 0
M  V30 12703 H 1206.72 -0.678957 1.77455 0
M  V30 12704 H 1204.87 -3.09191 2.3523 0
M  V30 12705 H 1206.54 -1.44857 4.37966 0
M  V30 12706 H 1204.79 -1.29615 4.13984 0
M  V30 12707 H 1205.46 -2.81159 4.7503 0
M  V30 12708 H 1207.93 -3.0435 2.83743 0
M  V30 12709 H 1206.81 -4.30454 3.40589 0
M  V30 12710 H 1207.07 -4.0884 1.68233 0
M  V30 12711 N 1206.13 -1.32992 -0.845635 0
M  V30 12712 C 1207.54 -1.21616 -1.41656 0
M  V30 12713 C 1207.89 0.167687 -1.95482 0
M  V30 12714 O 1207.02 1.06692 -1.8827 0
M  V30 12715 C 1207.61 -2.2018 -2.575 0
M  V30 12716 C 1206.17 -2.12664 -3.10565 0
M  V30 12717 C 1205.32 -2.08042 -1.83341 0
M  V30 12718 H 1208.27 -1.44688 -0.651993 0
M  V30 12719 H 1208.29 -1.80558 -3.34931 0
M  V30 12720 H 1207.8 -3.20888 -2.18294 0
M  V30 12721 H 1205.9 -1.15235 -3.54333 0
M  V30 12722 H 1206.02 -3.02902 -3.71197 0
M  V30 12723 H 1204.38 -1.53416 -2.03312 0
M  V30 12724 H 1205.16 -3.10547 -1.46339 0
M  V30 12725 N 1207.61 1.06304 -1.1635 0
M  V30 12726 C 1209.02 1.60566 -0.952652 0
M  V30 12727 C 1209.37 1.8963 0.503473 0
M  V30 12728 O 1208.49 1.66964 1.37666 0
M  V30 12729 C 1209.09 2.9172 -1.72292 0
M  V30 12730 C 1207.65 3.42684 -1.55707 0
M  V30 12731 C 1206.8 2.16579 -1.73172 0
M  V30 12732 H 1209.75 0.892563 -1.31221 0
M  V30 12733 H 1209.77 3.61126 -1.19868 0
M  V30 12734 H 1209.28 2.70535 -2.78267 0
M  V30 12735 H 1207.38 3.68929 -0.521726 0
M  V30 12736 H 1207.49 4.18018 -2.34088 0
M  V30 12737 H 1205.86 2.26795 -1.15914 0
M  V30 12738 H 1206.64 1.97877 -2.80535 0
M  V30 12739 N 1209.09 0.96196 1.24836 0
M  V30 12740 C 1210.36 0.537809 1.88061 0
M  V30 12741 C 1210.74 -0.985023 1.8671 0
M  V30 12742 O 1210.09 -1.85394 1.33572 0
M  V30 12743 C 1210.3 1.12279 3.30446 0
M  V30 12744 C 1211.65 1.20414 4.07168 0
M  V30 12745 O 1212.67 1.07488 3.39595 0
M  V30 12746 O 1211.53 1.4078 5.28056 0
M  V30 12747 H 1208.63 0.178491 0.807509 0
M  V30 12748 H 1211.17 1.05586 1.32852 0
M  V30 12749 H 1209.94 2.16578 3.25898 0
M  V30 12750 H 1209.57 0.58843 3.93222 0
M  V30 12751 N 1210.56 -1.39601 0.731392 0
M  V30 12752 C 1211.49 -2.33268 0.1041 0
M  V30 12753 C 1212.47 -1.53724 -0.728219 0
M  V30 12754 O 1213.66 -1.82131 -0.673933 0
M  V30 12755 C 1210.79 -3.37802 -0.806646 0
M  V30 12756 C 1209.74 -4.27928 -0.0787588 0
M  V30 12757 C 1209.07 -5.23131 -1.10628 0
M  V30 12758 C 1210.37 -5.11086 1.07651 0
M  V30 12759 H 1212.06 -2.85975 0.886496 0
M  V30 12760 H 1209.61 -1.375 0.427746 0
M  V30 12761 H 1211.56 -4.02278 -1.25499 0
M  V30 12762 H 1210.29 -2.83527 -1.62112 0
M  V30 12763 H 1208.95 -3.64926 0.349926 0
M  V30 12764 H 1208.59 -4.65152 -1.91422 0
M  V30 12765 H 1208.29 -5.84277 -0.624043 0
M  V30 12766 H 1209.82 -5.90483 -1.5544 0
M  V30 12767 H 1211.23 -5.68927 0.706781 0
M  V30 12768 H 1209.63 -5.81356 1.48814 0
M  V30 12769 H 1210.7 -4.46131 1.89988 0
M  V30 12770 N 1212.04 -0.478751 -1.50152 0
M  V30 12771 C 1213.27 0.0732929 -2.0727 0
M  V30 12772 C 1213.69 1.32066 -1.33941 0
M  V30 12773 O 1213.05 1.7707 -0.389367 0
M  V30 12774 C 1213.1 0.332528 -3.59064 0
M  V30 12775 O 1212.2 1.41158 -3.8749 0
M  V30 12776 H 1211.54 -0.0163684 -0.663798 0
M  V30 12777 H 1214.07 -0.671993 -1.9325 0
M  V30 12778 H 1214.08 0.570735 -4.03988 0
M  V30 12779 H 1212.76 -0.578934 -4.11851 0
M  V30 12780 H 1211.34 1.16008 -3.54396 0
M  V30 12781 N 1213.52 1.56172 -0.211661 0
M  V30 12782 C 1214.93 1.84307 0.297982 0
M  V30 12783 C 1215.28 1.1328 1.60194 0
M  V30 12784 O 1214.41 0.399137 2.12687 0
M  V30 12785 C 1215 3.34348 0.547428 0
M  V30 12786 C 1213.56 3.62835 1.0014 0
M  V30 12787 C 1212.71 2.77237 0.0590326 0
M  V30 12788 H 1215.66 1.5262 -0.435083 0
M  V30 12789 H 1215.68 3.54018 1.39469 0
M  V30 12790 H 1215.19 3.86015 -0.401778 0
M  V30 12791 H 1213.29 3.16616 1.96431 0
M  V30 12792 H 1213.41 4.70899 0.882653 0
M  V30 12793 H 1211.77 2.48377 0.564005 0
M  V30 12794 H 1212.55 3.31699 -0.884913 0
M  V30 12795 N 1215 -0.0618163 1.57479 0
M  V30 12796 C 1216.41 -0.416827 1.54061 0
M  V30 12797 C 1216.61 -1.78584 0.933277 0
M  V30 12798 O 1215.67 -2.46656 0.54009 0
M  V30 12799 C 1216.98 -0.348728 2.98671 0
M  V30 12800 C 1218.53 -0.428194 3.10057 0
M  V30 12801 C 1219.01 -0.389898 4.56337 0
M  V30 12802 N 1220.5 -0.449677 4.61012 0
M  V30 12803 C 1221.23 -0.442418 5.71691 0
M  V30 12804 N 1220.73 -0.389381 6.91705 0
M  V30 12805 N 1222.52 -0.489719 5.59963 0
M  V30 12806 H 1214.67 0.834487 1.9532 0
M  V30 12807 H 1216.94 0.314149 0.894435 0
M  V30 12808 H 1216.64 0.590738 3.46703 0
M  V30 12809 H 1216.52 -1.15511 3.59078 0
M  V30 12810 H 1218.9 -1.35808 2.61992 0
M  V30 12811 H 1218.98 0.406946 2.52542 0
M  V30 12812 H 1218.63 0.536186 5.05062 0
M  V30 12813 H 1218.56 -1.24271 5.11727 0
M  V30 12814 H 1221.05 -0.49451 3.74651 0
M  V30 12815 H 1221.36 -0.388042 7.71825 0
M  V30 12816 H 1219.71 -0.355918 6.94088 0
M  V30 12817 H 1222.9 -0.528915 4.65102 0
M  V30 12818 H 1223.07 -0.480592 6.46215 0
M  V30 12819 N 1216.48 -1.54033 -0.333429 0
M  V30 12820 C 1217.72 -1.72019 -1.07411 0
M  V30 12821 C 1218.06 -0.487265 -1.87988 0
M  V30 12822 O 1217.33 0.515757 -1.87537 0
M  V30 12823 C 1217.61 -2.98986 -2.00698 0
M  V30 12824 C 1217.47 -4.32509 -1.23517 0
M  V30 12825 C 1218.79 -3.21663 -3.00368 0
M  V30 12826 H 1215.9 -0.625919 -0.389094 0
M  V30 12827 H 1218.55 -1.86717 -0.351697 0
M  V30 12828 H 1216.7 -2.86586 -2.62298 0
M  V30 12829 H 1218.37 -4.56775 -0.644522 0
M  V30 12830 H 1216.61 -4.3046 -0.537298 0
M  V30 12831 H 1217.28 -5.17547 -1.91962 0
M  V30 12832 H 1219.76 -3.33459 -2.48886 0
M  V30 12833 H 1218.63 -4.11877 -3.62834 0
M  V30 12834 H 1218.9 -2.3843 -3.72295 0
M  V30 12835 N 1217.95 0.594978 -1.45938 0
M  V30 12836 C 1219.2 1.35561 -1.50834 0
M  V30 12837 C 1219.53 1.93584 -0.154566 0
M  V30 12838 O 1218.81 1.75781 0.832541 0
M  V30 12839 C 1219.09 2.49414 -2.5974 0
M  V30 12840 C 1218.94 1.96506 -4.04605 0
M  V30 12841 C 1220.26 3.51505 -2.64825 0
M  V30 12842 H 1217.38 0.491549 -0.549134 0
M  V30 12843 H 1220.02 0.669536 -1.77812 0
M  V30 12844 H 1218.17 3.07939 -2.36866 0
M  V30 12845 H 1219.85 1.42533 -4.38728 0
M  V30 12846 H 1218.09 1.27418 -4.14665 0
M  V30 12847 H 1218.76 2.78636 -4.76515 0
M  V30 12848 H 1221.24 3.02841 -2.85353 0
M  V30 12849 H 1220.11 4.28641 -3.42867 0
M  V30 12850 H 1220.37 4.07942 -1.70399 0
M  V30 12851 N 1219.43 1.33438 0.838571 0
M  V30 12852 C 1220.71 1.1551 1.5785 0
M  V30 12853 C 1221.09 -0.278405 2.09256 0
M  V30 12854 O 1220.44 -1.27748 1.89453 0
M  V30 12855 C 1220.65 2.19647 2.71212 0
M  V30 12856 C 1222 2.53818 3.40384 0
M  V30 12857 O 1223.02 2.18317 2.81454 0
M  V30 12858 O 1221.88 3.14741 4.46766 0
M  V30 12859 H 1218.97 0.446785 0.695925 0
M  V30 12860 H 1221.52 1.45021 0.8813 0
M  V30 12861 H 1220.29 3.15936 2.30869 0
M  V30 12862 H 1219.91 1.91224 3.48596 0
M  V30 12863 N 1220.91 -1.05686 1.16912 0
M  V30 12864 C 1222.16 -1.78244 0.95254 0
M  V30 12865 C 1222.48 -1.87924 -0.520525 0
M  V30 12866 O 1221.75 -1.39239 -1.37802 0
M  V30 12867 H 1220.33 -0.660228 0.349439 0
M  V30 12868 H 1222.99 -1.27634 1.47294 0
M  V30 12869 H 1222.09 -2.80102 1.37657 0
M  V30 12870 N 1222.39 -0.968567 -1.24324 0
M  V30 12871 C 1223.64 -0.626519 -1.91723 0
M  V30 12872 C 1223.95 0.84225 -1.76538 0
M  V30 12873 O 1225.16 1.29486 -2.38633 0
M  V30 12874 C 1223.61 -1.06992 -3.43629 0
M  V30 12875 C 1223.22 -2.5622 -3.67499 0
M  V30 12876 C 1224.96 -0.801057 -4.16873 0
M  V30 12877 C 1222.87 -2.94288 -5.1298 0
M  V30 12878 H 1221.8 -0.23062 -0.717865 0
M  V30 12879 H 1224.45 -1.17489 -1.40956 0
M  V30 12880 H 1222.83 -0.44985 -3.93437 0
M  V30 12881 H 1224.01 -3.23364 -3.28287 0
M  V30 12882 H 1222.32 -2.80726 -3.07542 0
M  V30 12883 H 1224.92 -1.06147 -5.24058 0
M  V30 12884 H 1225.26 0.262742 -4.1547 0
M  V30 12885 H 1225.8 -1.38213 -3.73017 0
M  V30 12886 H 1222.54 -3.99743 -5.19506 0
M  V30 12887 H 1222.06 -2.31829 -5.53187 0
M  V30 12888 H 1223.73 -2.84242 -5.81219 0
M  V30 12889 N 1223.87 1.39211 -0.738786 0
M  V30 12890 C 1224.78 2.34374 -0.102958 0
M  V30 12891 C 1225.79 1.58514 0.717596 0
M  V30 12892 O 1226.97 1.90786 0.645186 0
M  V30 12893 C 1224.03 3.37562 0.790733 0
M  V30 12894 C 1223.09 4.29279 -0.0425028 0
M  V30 12895 C 1222.33 5.27539 0.808628 0
M  V30 12896 O 1222.55 5.32396 2.04722 0
M  V30 12897 O 1221.48 6.0144 0.235279 0
M  V30 12898 H 1225.31 2.90412 -0.888498 0
M  V30 12899 H 1222.9 1.40803 -0.499498 0
M  V30 12900 H 1224.78 4.00783 1.30196 0
M  V30 12901 H 1223.45 2.83903 1.55502 0
M  V30 12902 H 1222.36 3.69268 -0.599335 0
M  V30 12903 H 1223.69 4.86154 -0.7691 0
M  V30 12904 N 1225.34 0.486708 1.49896 0
M  V30 12905 C 1226.62 -0.125183 1.95199 0
M  V30 12906 C 1227 -1.55498 1.42771 0
M  V30 12907 O 1226.35 -2.1949 0.635322 0
M  V30 12908 C 1226.56 -0.0524982 3.48961 0
M  V30 12909 C 1227.91 -0.233595 4.23957 0
M  V30 12910 O 1228.93 -0.128357 3.55969 0
M  V30 12911 O 1227.79 -0.447862 5.44662 0
M  V30 12912 H 1224.88 -0.103141 0.820543 0
M  V30 12913 H 1227.43 0.548226 1.60601 0
M  V30 12914 H 1226.2 0.945163 3.79714 0
M  V30 12915 H 1225.83 -0.766683 3.90138 0
M  V30 12916 N 1226.82 -1.56058 0.219941 0
M  V30 12917 C 1228.07 -1.97869 -0.411383 0
M  V30 12918 C 1228.39 -1.10878 -1.60409 0
M  V30 12919 O 1227.66 -0.185454 -1.9502 0
M  V30 12920 H 1226.24 -0.730747 -0.154979 0
M  V30 12921 H 1228.9 -1.92379 0.312461 0
M  V30 12922 H 1228 -3.0323 -0.738798 0
M  V30 12923 N 1228.3 0.053464 -1.57509 0
M  V30 12924 C 1229.54 0.754231 -1.89976 0
M  V30 12925 C 1229.91 1.73805 -0.815833 0
M  V30 12926 O 1231.11 2.48527 -1.0241 0
M  V30 12927 C 1229.38 1.42768 -3.27646 0
M  V30 12928 S 1230.94 2.16098 -3.81899 0
M  V30 12929 H 1227.75 0.250421 -0.66544 0
M  V30 12930 H 1230.36 0.00963883 -1.95498 0
M  V30 12931 H 1229.06 0.698087 -4.04419 0
M  V30 12932 H 1228.59 2.21133 -3.25367 0
M  V30 12933 H 1230.61 3.42895 -3.5866 0
M  V30 12934 N 1229.78 1.54207 0.325255 0
M  V30 12935 C 1231.03 1.71991 1.0613 0
M  V30 12936 C 1231.35 0.495505 1.88599 0
M  V30 12937 O 1230.62 -0.490504 1.8966 0
M  V30 12938 H 1229.2 0.634137 0.394816 0
M  V30 12939 H 1231.86 1.91507 0.362101 0
M  V30 12940 H 1230.96 2.59878 1.72829 0
M  V30 12941 N 1231.26 -0.58723 1.46251 0
M  V30 12942 C 1232.48 -1.37661 1.55126 0
M  V30 12943 C 1232.91 -1.87123 0.191489 0
M  V30 12944 O 1232.27 -1.6131 -0.827576 0
M  V30 12945 C 1232.31 -2.54324 2.5564 0
M  V30 12946 O 1231.42 -3.55617 2.0883 0
M  V30 12947 H 1230.76 -0.410154 0.522178 0
M  V30 12948 H 1233.29 -0.712738 1.91784 0
M  V30 12949 H 1233.3 -3.01301 2.75103 0
M  V30 12950 H 1231.97 -2.17675 3.54387 0
M  V30 12951 H 1230.55 -3.15151 1.99335 0
M  V30 12952 N 1232.74 -1.33881 -0.831482 0
M  V30 12953 C 1234.01 -1.16346 -1.57236 0
M  V30 12954 C 1234.39 0.267304 -2.09401 0
M  V30 12955 O 1233.74 1.26742 -1.90128 0
M  V30 12956 C 1233.95 -2.21082 -2.70044 0
M  V30 12957 C 1235.3 -2.5562 -3.39033 0
M  V30 12958 O 1236.32 -2.19806 -2.80292 0
M  V30 12959 O 1235.18 -3.17106 -4.45091 0
M  V30 12960 H 1232.28 -0.450469 -0.693546 0
M  V30 12961 H 1234.82 -1.45487 -0.873597 0
M  V30 12962 H 1233.59 -3.17155 -2.2919 0
M  V30 12963 H 1233.22 -1.9307 -3.47577 0
M  V30 12964 N 1234.21 1.05064 -1.1747 0
M  V30 12965 C 1235.15 2.12842 -0.850344 0
M  V30 12966 C 1236.16 1.62128 0.147796 0
M  V30 12967 O 1237.35 1.78327 -0.0786774 0
M  V30 12968 C 1234.45 3.37995 -0.247486 0
M  V30 12969 C 1233.62 4.17981 -1.28881 0
M  V30 12970 C 1232.68 5.21476 -0.703476 0
M  V30 12971 O 1231.71 5.52327 -1.37561 0
M  V30 12972 N 1232.91 5.78309 0.50387 0
M  V30 12973 H 1235.67 2.41264 -1.77797 0
M  V30 12974 H 1233.23 1.21172 -1.07373 0
M  V30 12975 H 1235.23 4.04394 0.157424 0
M  V30 12976 H 1233.8 3.07097 0.583952 0
M  V30 12977 H 1233.02 3.47054 -1.86942 0
M  V30 12978 H 1234.3 4.6822 -1.99116 0
M  V30 12979 H 1233.7 5.5553 1.06787 0
M  V30 12980 H 1232.26 6.46223 0.850828 0
M  V30 12981 N 1235.69 0.975146 1.23809 0
M  V30 12982 C 1237.1 0.678873 1.7392 0
M  V30 12983 C 1237.45 -0.805133 1.78919 0
M  V30 12984 O 1236.58 -1.62984 1.42356 0
M  V30 12985 C 1237.17 1.22562 3.15854 0
M  V30 12986 C 1235.73 0.979096 3.63443 0
M  V30 12987 C 1234.88 1.35649 2.41857 0
M  V30 12988 H 1237.83 1.14961 1.09406 0
M  V30 12989 H 1237.85 0.595489 3.75811 0
M  V30 12990 H 1237.36 2.30571 3.12184 0
M  V30 12991 H 1235.46 -0.0851407 3.72503 0
M  V30 12992 H 1235.58 1.62998 4.5052 0
M  V30 12993 H 1233.94 0.774916 2.42626 0
M  V30 12994 H 1234.72 2.44624 2.40861 0
M  V30 12995 N 1237.17 -1.38817 0.746158 0
M  V30 12996 C 1238.12 -2.30521 0.113517 0
M  V30 12997 C 1239.09 -1.49795 -0.717682 0
M  V30 12998 O 1240.27 -1.78448 -0.675345 0
M  V30 12999 C 1237.41 -3.36185 -0.779343 0
M  V30 13000 C 1236.52 -4.3195 0.0656784 0
M  V30 13001 C 1235.66 -5.24684 -0.829492 0
M  V30 13002 C 1234.7 -6.12097 0.0196112 0
M  V30 13003 N 1233.84 -6.97152 -0.832107 0
M  V30 13004 H 1238.68 -2.84048 0.901136 0
M  V30 13005 H 1236.21 -1.39853 0.456025 0
M  V30 13006 H 1238.17 -3.96048 -1.31156 0
M  V30 13007 H 1236.8 -2.84085 -1.53282 0
M  V30 13008 H 1235.85 -3.73611 0.715445 0
M  V30 13009 H 1237.16 -4.93551 0.721735 0
M  V30 13010 H 1236.32 -5.89627 -1.42915 0
M  V30 13011 H 1235.06 -4.63431 -1.5193 0
M  V30 13012 H 1234.06 -5.46156 0.631991 0
M  V30 13013 H 1235.29 -6.75416 0.706369 0
M  V30 13014 H 1233.23 -6.38456 -1.507 0
M  V30 13015 H 1233.15 -7.55642 -0.232782 0
M  V30 13016 H 1234.42 -7.66513 -1.41697 0
M  V30 13017 N 1238.65 -0.49465 -1.49636 0
M  V30 13018 C 1239.89 0.0521172 -2.02433 0
M  V30 13019 C 1240.22 1.37579 -1.37485 0
M  V30 13020 O 1239.48 1.8927 -0.497538 0
M  V30 13021 C 1239.78 0.259743 -3.56455 0
M  V30 13022 C 1239.44 -0.985143 -4.40007 0
M  V30 13023 C 1238.1 -1.3264 -4.62558 0
M  V30 13024 C 1240.46 -1.81291 -4.88654 0
M  V30 13025 C 1237.78 -2.49506 -5.31003 0
M  V30 13026 C 1240.14 -2.97305 -5.58384 0
M  V30 13027 C 1238.8 -3.31818 -5.79183 0
M  V30 13028 H 1238.07 0.0190711 -0.740755 0
M  V30 13029 H 1240.72 -0.653519 -1.80004 0
M  V30 13030 H 1239.02 1.04785 -3.77528 0
M  V30 13031 H 1240.72 0.697146 -3.94893 0
M  V30 13032 H 1237.31 -0.709313 -4.2269 0
M  V30 13033 H 1241.49 -1.56242 -4.71065 0
M  V30 13034 H 1236.75 -2.76491 -5.4531 0
M  V30 13035 H 1240.92 -3.61777 -5.95055 0
M  V30 13036 H 1238.55 -4.22478 -6.31994 0
M  V30 13037 N 1240.13 1.55939 -0.228214 0
M  V30 13038 C 1241.35 2.0332 0.409364 0
M  V30 13039 C 1241.78 1.10683 1.52088 0
M  V30 13040 O 1241.13 0.0962484 1.81044 0
M  V30 13041 C 1241.18 3.48877 0.911981 0
M  V30 13042 O 1240.29 3.59378 2.02289 0
M  V30 13043 H 1239.63 0.657625 0.0917909 0
M  V30 13044 H 1242.16 2.01605 -0.348802 0
M  V30 13045 H 1242.17 3.89331 1.22007 0
M  V30 13046 H 1240.84 4.15783 0.0984902 0
M  V30 13047 H 1239.42 3.30815 1.72093 0
M  V30 13048 N 1241.6 -0.0451101 1.57535 0
M  V30 13049 C 1242.85 -0.739114 1.88529 0
M  V30 13050 C 1243.18 -1.76208 0.823468 0
M  V30 13051 O 1242.43 -1.94893 -0.177512 0
M  V30 13052 C 1242.73 -1.45938 3.26247 0
M  V30 13053 C 1242.4 -0.57391 4.47233 0
M  V30 13054 C 1241.06 -0.329974 4.80067 0
M  V30 13055 C 1243.41 0.0384272 5.21186 0
M  V30 13056 C 1240.74 0.535339 5.84253 0
M  V30 13057 C 1243.09 0.891349 6.26289 0
M  V30 13058 C 1241.76 1.1449 6.57608 0
M  V30 13059 H 1241.03 -0.270461 0.689878 0
M  V30 13060 H 1243.67 0.000714103 1.915 0
M  V30 13061 H 1241.98 -2.27212 3.1919 0
M  V30 13062 H 1243.68 -2.00162 3.47471 0
M  V30 13063 H 1240.27 -0.774181 4.2155 0
M  V30 13064 H 1244.45 -0.137096 4.96111 0
M  V30 13065 H 1239.71 0.740253 6.06902 0
M  V30 13066 H 1243.88 1.37243 6.82743 0
M  V30 13067 H 1241.51 1.81715 7.38162 0
M  V30 13068 N 1243.08 -1.54377 -0.317073 0
M  V30 13069 C 1244.5 -1.45232 -0.6618 0
M  V30 13070 C 1244.7 -0.630457 -1.91383 0
M  V30 13071 O 1243.75 -0.13181 -2.52156 0
M  V30 13072 C 1245.07 -2.89025 -0.829761 0
M  V30 13073 C 1246.62 -2.98967 -0.926685 0
M  V30 13074 C 1247.09 -4.43923 -1.12677 0
M  V30 13075 N 1248.58 -4.47564 -1.19335 0
M  V30 13076 C 1249.32 -5.56887 -1.36617 0
M  V30 13077 N 1248.81 -6.76167 -1.50899 0
M  V30 13078 N 1250.61 -5.44546 -1.39377 0
M  V30 13079 H 1242.76 -2.0629 0.505766 0
M  V30 13080 H 1245.02 -0.933615 0.164522 0
M  V30 13081 H 1244.73 -3.51695 0.0190945 0
M  V30 13082 H 1244.6 -3.35515 -1.72364 0
M  V30 13083 H 1246.99 -2.36421 -1.76604 0
M  V30 13084 H 1247.07 -2.55798 -0.00913402 0
M  V30 13085 H 1246.71 -5.07059 -0.29224 0
M  V30 13086 H 1246.64 -4.84708 -2.05829 0
M  V30 13087 H 1249.13 -3.61623 -1.09715 0
M  V30 13088 H 1249.45 -7.55242 -1.63796 0
M  V30 13089 H 1247.79 -6.79062 -1.47985 0
M  V30 13090 H 1250.98 -4.50311 -1.27819 0
M  V30 13091 H 1251.15 -6.29799 -1.52502 0
M  V30 13092 N 1244.56 0.579466 -1.4656 0
M  V30 13093 C 1245.81 1.33954 -1.52264 0
M  V30 13094 C 1246.14 1.93409 -0.175089 0
M  V30 13095 O 1245.41 1.76654 0.81385 0
M  V30 13096 C 1245.7 2.46645 -2.6237 0
M  V30 13097 C 1245.55 1.92204 -4.06667 0
M  V30 13098 C 1246.87 3.48676 -2.68538 0
M  V30 13099 H 1243.99 0.485697 -0.554317 0
M  V30 13100 H 1246.63 0.650639 -1.78512 0
M  V30 13101 H 1244.78 3.0541 -2.40119 0
M  V30 13102 H 1246.45 1.37871 -4.40215 0
M  V30 13103 H 1244.7 1.23012 -4.15993 0
M  V30 13104 H 1245.37 2.73566 -4.79443 0
M  V30 13105 H 1247.84 2.99798 -2.88549 0
M  V30 13106 H 1246.72 4.24981 -3.47394 0
M  V30 13107 H 1246.98 4.06112 -1.74716 0
M  V30 13108 N 1246.04 1.3432 0.824371 0
M  V30 13109 C 1247.29 1.26345 1.57738 0
M  V30 13110 C 1247.61 -0.166836 1.94285 0
M  V30 13111 O 1246.88 -1.09911 1.62162 0
M  V30 13112 H 1245.46 0.46466 0.584893 0
M  V30 13113 H 1248.12 1.68214 0.984373 0
M  V30 13114 H 1247.22 1.8672 2.50084 0
M  V30 13115 N 1247.52 -1.0444 1.18026 0
M  V30 13116 C 1248.45 -2.12388 0.86162 0
M  V30 13117 C 1249.46 -1.62204 -0.139196 0
M  V30 13118 O 1250.65 -1.78282 0.0881334 0
M  V30 13119 C 1247.75 -3.37859 0.265407 0
M  V30 13120 C 1246.92 -4.17292 1.31096 0
M  V30 13121 C 1245.98 -5.21096 0.731121 0
M  V30 13122 O 1245.01 -5.5159 1.40488 0
M  V30 13123 N 1246.21 -5.78568 -0.473194 0
M  V30 13124 H 1248.98 -2.40317 1.79074 0
M  V30 13125 H 1246.54 -1.20601 1.08014 0
M  V30 13126 H 1248.53 -4.04472 -0.135976 0
M  V30 13127 H 1247.1 -3.07403 -0.567658 0
M  V30 13128 H 1246.32 -3.46057 1.8878 0
M  V30 13129 H 1247.61 -4.67158 2.01596 0
M  V30 13130 H 1247 -5.56088 -1.03839 0
M  V30 13131 H 1245.56 -6.46665 -0.816545 0
M  V30 13132 N 1248.99 -0.981699 -1.2329 0
M  V30 13133 C 1250.22 -0.669025 -1.96313 0
M  V30 13134 C 1250.64 0.757624 -1.72168 0
M  V30 13135 O 1250 1.51626 -0.993942 0
M  V30 13136 C 1250.05 -0.966875 -3.47396 0
M  V30 13137 O 1249.15 -0.0595933 -4.12357 0
M  V30 13138 H 1248.5 -0.251493 -0.61453 0
M  V30 13139 H 1251.03 -1.31564 -1.56691 0
M  V30 13140 H 1251.04 -0.904112 -3.97857 0
M  V30 13141 H 1249.71 -2.00651 -3.64296 0
M  V30 13142 H 1248.29 -0.176878 -3.7248 0
M  V30 13143 N 1250.47 1.3842 -0.753509 0
M  V30 13144 C 1251.72 1.99723 -0.309021 0
M  V30 13145 C 1252.04 1.60111 1.11308 0
M  V30 13146 O 1251.31 0.85792 1.76115 0
M  V30 13147 H 1249.89 0.738667 -0.111266 0
M  V30 13148 H 1252.55 1.69186 -0.967586 0
M  V30 13149 H 1251.65 3.09874 -0.372095 0
M  V30 13150 N 1251.95 0.502579 1.49372 0
M  V30 13151 C 1253.36 0.055187 1.86618 0
M  V30 13152 C 1253.71 -1.35938 1.41476 0
M  V30 13153 O 1252.84 -2.01333 0.793338 0
M  V30 13154 C 1253.43 0.0933734 3.38671 0
M  V30 13155 C 1251.99 -0.298685 3.75213 0
M  V30 13156 C 1251.14 0.465216 2.7337 0
M  V30 13157 H 1254.09 0.715281 1.41667 0
M  V30 13158 H 1254.11 -0.701549 3.73977 0
M  V30 13159 H 1253.62 1.12303 3.71497 0
M  V30 13160 H 1251.72 -1.33151 3.47996 0
M  V30 13161 H 1251.84 0.0218637 4.79095 0
M  V30 13162 H 1250.2 -0.0851469 2.54558 0
M  V30 13163 H 1250.98 1.49498 3.09039 0
M  V30 13164 N 1253.43 -1.55816 0.23648 0
M  V30 13165 C 1254.34 -2.24576 -0.678439 0
M  V30 13166 C 1255.35 -1.25836 -1.20172 0
M  V30 13167 O 1256.53 -1.58686 -1.24019 0
M  V30 13168 C 1253.6 -2.92376 -1.86325 0
M  V30 13169 C 1252.66 -4.06499 -1.38047 0
M  V30 13170 C 1251.89 -4.71057 -2.50881 0
M  V30 13171 O 1252.11 -4.34652 -3.69369 0
M  V30 13172 O 1251.05 -5.59768 -2.21232 0
M  V30 13173 H 1254.87 -3.03452 -0.122601 0
M  V30 13174 H 1252.46 -1.49399 0.00540803 0
M  V30 13175 H 1254.34 -3.35117 -2.55488 0
M  V30 13176 H 1253.01 -2.16448 -2.40691 0
M  V30 13177 H 1251.92 -3.68296 -0.656422 0
M  V30 13178 H 1253.25 -4.84214 -0.883024 0
M  V30 13179 N 1254.91 0.036755 -1.57557 0
M  V30 13180 C 1256.15 0.734039 -1.90765 0
M  V30 13181 C 1256.51 1.7293 -0.834222 0
M  V30 13182 O 1257.71 2.47427 -1.0504 0
M  V30 13183 C 1255.98 1.39285 -3.29142 0
M  V30 13184 S 1257.54 2.12035 -3.8417 0
M  V30 13185 H 1254.36 0.243349 -0.668059 0
M  V30 13186 H 1256.96 -0.0110968 -1.95497 0
M  V30 13187 H 1255.67 0.655154 -4.05137 0
M  V30 13188 H 1255.2 2.17669 -3.27694 0
M  V30 13189 H 1257.21 3.39072 -3.62277 0
M  V30 13190 N 1256.39 1.54543 0.308881 0
M  V30 13191 C 1257.61 1.77753 1.06857 0
M  V30 13192 C 1258.04 0.531616 1.80431 0
M  V30 13193 O 1257.39 -0.517513 1.73757 0
M  V30 13194 C 1257.44 2.97968 2.03094 0
M  V30 13195 O 1256.55 2.70541 3.11257 0
M  V30 13196 H 1255.89 0.588576 0.307368 0
M  V30 13197 H 1258.42 2.01607 0.348703 0
M  V30 13198 H 1258.43 3.25722 2.45702 0
M  V30 13199 H 1257.1 3.88314 1.48948 0
M  V30 13200 H 1255.68 2.53781 2.7322 0
M  V30 13201 N 1257.86 -0.571685 1.46866 0
M  V30 13202 C 1259.09 -1.36008 1.56578 0
M  V30 13203 C 1259.51 -1.86909 0.211326 0
M  V30 13204 O 1258.87 -1.62179 -0.810421 0
M  V30 13205 C 1258.92 -2.51598 2.58323 0
M  V30 13206 O 1258.02 -3.53383 2.1259 0
M  V30 13207 H 1257.36 -0.404593 0.526498 0
M  V30 13208 H 1259.89 -0.692357 1.92529 0
M  V30 13209 H 1259.9 -2.98366 2.78283 0
M  V30 13210 H 1258.58 -2.13904 3.56676 0
M  V30 13211 H 1257.16 -3.13019 2.02666 0
M  V30 13212 N 1259.34 -1.34755 -0.817236 0
M  V30 13213 C 1260.57 -1.30676 -1.61054 0
M  V30 13214 C 1260.99 0.115343 -1.87746 0
M  V30 13215 O 1260.35 1.07887 -1.45705 0
M  V30 13216 C 1260.4 -2.10881 -2.92509 0
M  V30 13217 O 1259.5 -1.48223 -3.84842 0
M  V30 13218 H 1258.84 -0.448531 -0.489608 0
M  V30 13219 H 1261.37 -1.77642 -1.01512 0
M  V30 13220 H 1261.38 -2.22446 -3.42026 0
M  V30 13221 H 1260.06 -3.14274 -2.72406 0
M  V30 13222 H 1258.63 -1.45434 -3.4337 0
M  V30 13223 N 1260.82 1.03812 -1.18578 0
M  V30 13224 C 1262.23 1.58509 -0.986496 0
M  V30 13225 C 1262.58 1.90655 0.463136 0
M  V30 13226 O 1261.71 1.69847 1.34093 0
M  V30 13227 C 1262.3 2.88 -1.78441 0
M  V30 13228 C 1260.86 3.39304 -1.6294 0
M  V30 13229 C 1260.01 2.12857 -1.77727 0
M  V30 13230 H 1262.96 0.864528 -1.33085 0
M  V30 13231 H 1262.98 3.58502 -1.27501 0
M  V30 13232 H 1262.49 2.64572 -2.83942 0
M  V30 13233 H 1260.59 3.6774 -0.599864 0
M  V30 13234 H 1260.71 4.12959 -2.42902 0
M  V30 13235 H 1259.07 2.24285 -1.20699 0
M  V30 13236 H 1259.85 1.91882 -2.84669 0
M  V30 13237 N 1262.3 0.988223 1.22768 0
M  V30 13238 C 1263.52 0.679426 1.95955 0
M  V30 13239 C 1263.95 -0.748483 1.72567 0
M  V30 13240 O 1263.31 -1.51097 1.00197 0
M  V30 13241 C 1263.35 0.985284 3.46878 0
M  V30 13242 O 1262.46 0.0814607 4.1232 0
M  V30 13243 H 1261.8 0.254749 0.613188 0
M  V30 13244 H 1264.33 1.32393 1.55991 0
M  V30 13245 H 1264.34 0.925198 3.97371 0
M  V30 13246 H 1263.01 2.02581 3.63227 0
M  V30 13247 H 1261.59 0.196629 3.72381 0
M  V30 13248 N 1263.78 -1.38018 0.760839 0
M  V30 13249 C 1265.19 -1.82645 0.387022 0
M  V30 13250 C 1265.54 -1.63445 -1.08536 0
M  V30 13251 O 1264.66 -1.13958 -1.83963 0
M  V30 13252 C 1265.26 -3.3158 0.69569 0
M  V30 13253 C 1263.82 -3.74527 0.375063 0
M  V30 13254 C 1262.96 -2.60696 0.94515 0
M  V30 13255 H 1265.91 -1.26644 0.956396 0
M  V30 13256 H 1265.94 -3.80493 -0.0235511 0
M  V30 13257 H 1265.45 -3.45522 1.76737 0
M  V30 13258 H 1263.55 -3.6616 -0.689741 0
M  V30 13259 H 1263.66 -4.71029 0.875685 0
M  V30 13260 H 1262.03 -2.51997 0.370065 0
M  V30 13261 H 1262.81 -2.77434 2.02201 0
M  V30 13262 N 1265.25 -0.510493 -1.49103 0
M  V30 13263 C 1266.5 0.0305831 -2.02077 0
M  V30 13264 C 1266.82 1.36602 -1.39157 0
M  V30 13265 O 1266.09 1.88016 -0.550154 0
M  V30 13266 H 1264.67 0.0142916 -0.746863 0
M  V30 13267 H 1267.33 -0.669895 -1.83026 0
M  V30 13268 H 1266.43 0.153283 -3.11723 0
M  V30 13269 N 1266.73 1.55688 -0.24474 0
M  V30 13270 C 1268.14 1.84897 0.25882 0
M  V30 13271 C 1268.49 1.16653 1.57755 0
M  V30 13272 O 1267.62 0.444162 2.11793 0
M  V30 13273 C 1268.21 3.35434 0.476385 0
M  V30 13274 C 1266.77 3.64877 0.924213 0
M  V30 13275 C 1265.92 2.773 0.00021322 0
M  V30 13276 H 1268.87 1.51662 -0.467358 0
M  V30 13277 H 1268.89 3.56896 1.31929 0
M  V30 13278 H 1268.4 3.85076 -0.483567 0
M  V30 13279 H 1266.5 3.20711 1.89671 0
M  V30 13280 H 1266.62 4.72665 0.78257 0
M  V30 13281 H 1264.98 2.49517 0.511194 0
M  V30 13282 H 1265.76 3.29747 -0.955072 0
M  V30 13283 N 1268.21 -0.0283989 1.57574 0
M  V30 13284 C 1269.12 -1.04575 2.10003 0
M  V30 13285 C 1270.14 -1.39588 1.03881 0
M  V30 13286 O 1271.31 -1.48894 1.35619 0
M  V30 13287 C 1268.38 -2.32755 2.56955 0
M  V30 13288 C 1267.44 -2.04317 3.77562 0
M  V30 13289 C 1266.67 -3.26385 4.22266 0
M  V30 13290 O 1266.89 -4.37082 3.66491 0
M  V30 13291 O 1265.83 -3.12046 5.14695 0
M  V30 13292 H 1269.65 -0.630183 2.9709 0
M  V30 13293 H 1267.24 -0.245423 1.4737 0
M  V30 13294 H 1269.12 -3.08111 2.87482 0
M  V30 13295 H 1267.8 -2.73605 1.72979 0
M  V30 13296 H 1266.7 -1.26527 3.52054 0
M  V30 13297 H 1268.04 -1.68321 4.62524 0
M  V30 13298 N 1269.69 -1.54705 -0.300681 0
M  V30 13299 C 1270.91 -1.78318 -1.05913 0
M  V30 13300 C 1271.34 -0.541177 -1.80147 0
M  V30 13301 O 1270.7 0.508291 -1.74029 0
M  V30 13302 C 1270.74 -2.99041 -2.01511 0
M  V30 13303 O 1269.85 -2.72188 -3.09818 0
M  V30 13304 H 1269.19 -0.590197 -0.304242 0
M  V30 13305 H 1271.72 -2.01789 -0.338006 0
M  V30 13306 H 1271.73 -3.2702 -2.43971 0
M  V30 13307 H 1270.4 -3.89098 -1.46886 0
M  V30 13308 H 1268.98 -2.55227 -2.71871 0
M  V30 13309 N 1271.17 0.563888 -1.47167 0
M  V30 13310 C 1272.41 1.31875 -1.53145 0
M  V30 13311 C 1272.74 1.94047 -0.192518 0
M  V30 13312 O 1272.01 1.79577 0.782872 0
M  V30 13313 H 1270.59 0.489694 -0.5641 0
M  V30 13314 H 1273.25 0.658976 -1.83422 0
M  V30 13315 H 1272.34 2.11574 -2.2944 0
M  V30 13316 N 1272.64 1.35187 0.810078 0
M  V30 13317 C 1273.57 1.30481 1.93641 0
M  V30 13318 C 1274.56 0.179875 1.69146 0
M  V30 13319 O 1275.74 0.374284 1.90559 0
M  V30 13320 C 1272.87 1.07251 3.30325 0
M  V30 13321 C 1271.82 2.16348 3.69293 0
M  V30 13322 C 1271.15 1.78288 5.04101 0
M  V30 13323 C 1272.45 3.58285 3.80038 0
M  V30 13324 H 1274.14 2.24725 1.97836 0
M  V30 13325 H 1271.69 1.08179 0.950436 0
M  V30 13326 H 1273.64 1.02599 4.08719 0
M  V30 13327 H 1272.37 0.0945203 3.26463 0
M  V30 13328 H 1271.03 2.2009 2.93182 0
M  V30 13329 H 1270.67 0.791163 4.96739 0
M  V30 13330 H 1270.37 2.51315 5.31144 0
M  V30 13331 H 1271.9 1.75155 5.84938 0
M  V30 13332 H 1273.31 3.56884 4.48672 0
M  V30 13333 H 1271.71 4.30044 4.18548 0
M  V30 13334 H 1272.78 3.94691 2.81685 0
M  V30 13335 N 1274.12 -1.03182 1.19127 0
M  V30 13336 C 1275.05 -2.13301 0.94999 0
M  V30 13337 C 1276.03 -1.69707 -0.115577 0
M  V30 13338 O 1277.22 -1.94161 0.0388395 0
M  V30 13339 C 1274.35 -3.43902 0.484637 0
M  V30 13340 C 1273.3 -4.01164 1.4917 0
M  V30 13341 C 1272.63 -5.2735 0.883537 0
M  V30 13342 C 1273.93 -4.36311 2.87107 0
M  V30 13343 H 1275.62 -2.33743 1.87095 0
M  V30 13344 H 1273.17 -1.12332 0.900977 0
M  V30 13345 H 1275.12 -4.20308 0.30315 0
M  V30 13346 H 1273.85 -3.23173 -0.471909 0
M  V30 13347 H 1272.5 -3.26849 1.66028 0
M  V30 13348 H 1272.15 -5.02936 -0.0804712 0
M  V30 13349 H 1271.85 -5.66624 1.55599 0
M  V30 13350 H 1273.38 -6.06425 0.71278 0
M  V30 13351 H 1274.79 -5.03666 2.73848 0
M  V30 13352 H 1273.19 -4.86659 3.51117 0
M  V30 13353 H 1274.26 -3.45743 3.39985 0
M  V30 13354 N 1275.6 -0.99472 -1.22242 0
M  V30 13355 C 1276.83 -0.690097 -1.95052 0
M  V30 13356 C 1277.24 0.745543 -1.73456 0
M  V30 13357 O 1276.6 1.50329 -1.03477 0
M  V30 13358 C 1276.65 -0.988798 -3.47714 0
M  V30 13359 O 1276.37 -2.36803 -3.68587 0
M  V30 13360 C 1277.87 -0.702132 -4.37704 0
M  V30 13361 H 1275.09 -0.255142 -0.620599 0
M  V30 13362 H 1277.64 -1.32998 -1.55344 0
M  V30 13363 H 1275.79 -0.394684 -3.85384 0
M  V30 13364 H 1276.21 -2.4687 -4.62769 0
M  V30 13365 H 1277.68 -0.961389 -5.43564 0
M  V30 13366 H 1278.16 0.363866 -4.3769 0
M  V30 13367 H 1278.76 -1.27738 -4.05664 0
M  V30 13368 N 1277.08 1.37613 -0.768148 0
M  V30 13369 C 1278.32 2.00075 -0.331331 0
M  V30 13370 C 1278.66 1.60839 1.08833 0
M  V30 13371 O 1277.93 0.852849 1.74805 0
M  V30 13372 C 1278.22 3.57009 -0.470789 0
M  V30 13373 C 1278.07 4.06166 -1.9326 0
M  V30 13374 C 1279.39 4.39916 0.127111 0
M  V30 13375 H 1276.51 0.726855 -0.121864 0
M  V30 13376 H 1279.15 1.63343 -0.970518 0
M  V30 13377 H 1277.3 3.88431 0.0733688 0
M  V30 13378 H 1278.97 3.85325 -2.53618 0
M  V30 13379 H 1277.21 3.58492 -2.44266 0
M  V30 13380 H 1277.88 5.15219 -1.98125 0
M  V30 13381 H 1280.36 4.14732 -0.337144 0
M  V30 13382 H 1279.24 5.489 -0.000624226 0
M  V30 13383 H 1279.5 4.25018 1.21704 0
M  V30 13384 N 1278.56 0.518393 1.4883 0
M  V30 13385 C 1279.97 0.0749773 1.86549 0
M  V30 13386 C 1280.32 -1.34429 1.4291 0
M  V30 13387 O 1279.44 -2.00481 0.814648 0
M  V30 13388 C 1280.04 0.129289 3.38553 0
M  V30 13389 C 1278.6 -0.258871 3.75509 0
M  V30 13390 C 1277.74 0.494185 2.72861 0
M  V30 13391 H 1280.7 0.730266 1.409 0
M  V30 13392 H 1280.72 -0.661844 3.747 0
M  V30 13393 H 1280.23 1.16237 3.70285 0
M  V30 13394 H 1278.33 -1.29453 3.49389 0
M  V30 13395 H 1278.44 0.0726769 4.79045 0
M  V30 13396 H 1276.81 -0.0581428 2.54634 0
M  V30 13397 H 1277.59 1.52767 3.07436 0
M  V30 13398 N 1280.03 -1.55556 0.252993 0
M  V30 13399 C 1280.98 -2.18298 -0.658028 0
M  V30 13400 C 1281.97 -1.14072 -1.13474 0
M  V30 13401 O 1283.16 -1.39962 -1.0835 0
M  V30 13402 C 1280.29 -2.89067 -1.8519 0
M  V30 13403 C 1279.38 -4.00556 -1.3934 0
M  V30 13404 N 1279.77 -5.01612 -0.649538 0
M  V30 13405 C 1278.06 -4.13222 -1.67819 0
M  V30 13406 C 1278.77 -5.80244 -0.411347 0
M  V30 13407 N 1277.74 -5.34742 -0.977342 0
M  V30 13408 H 1281.54 -2.93787 -0.0816162 0
M  V30 13409 H 1279.06 -1.62305 0.0555728 0
M  V30 13410 H 1281.05 -3.32448 -2.51563 0
M  V30 13411 H 1279.71 -2.15082 -2.43248 0
M  V30 13412 H 1280.73 -5.17036 -0.299043 0
M  V30 13413 H 1277.4 -3.50414 -2.26972 0
M  V30 13414 H 1278.79 -6.71651 0.182911 0
M  V30 13415 N 1281.51 0.0200419 -1.57587 0
M  V30 13416 C 1282.76 0.707627 -1.89307 0
M  V30 13417 C 1283.08 1.7541 -0.851831 0
M  V30 13418 O 1282.35 1.95571 0.113404 0
M  V30 13419 H 1280.93 0.264349 -0.698662 0
M  V30 13420 H 1283.59 -0.0161428 -1.94893 0
M  V30 13421 H 1282.69 1.19152 -2.8846 0
M  V30 13422 N 1282.99 1.54862 0.292472 0
M  V30 13423 C 1284.4 1.65459 0.864891 0
M  V30 13424 C 1284.75 0.568808 1.87774 0
M  V30 13425 O 1283.88 -0.293107 2.14406 0
M  V30 13426 C 1284.47 2.99939 1.5755 0
M  V30 13427 C 1283.03 3.12628 2.09621 0
M  V30 13428 C 1282.18 2.61179 0.931713 0
M  V30 13429 H 1285.13 1.58549 0.0692679 0
M  V30 13430 H 1285.15 2.91839 2.44152 0
M  V30 13431 H 1284.66 3.78943 0.838088 0
M  V30 13432 H 1282.76 2.3836 2.86383 0
M  V30 13433 H 1282.88 4.18911 2.32488 0
M  V30 13434 H 1281.24 2.17846 1.31967 0
M  V30 13435 H 1282.02 3.42669 0.208121 0
M  V30 13436 N 1284.47 -0.556076 1.47464 0
M  V30 13437 C 1285.69 -1.3434 1.58011 0
M  V30 13438 C 1286.12 -1.86674 0.231138 0
M  V30 13439 O 1285.48 -1.63029 -0.793174 0
M  V30 13440 C 1285.52 -2.48844 2.60977 0
M  V30 13441 O 1284.63 -3.51108 2.16326 0
M  V30 13442 H 1283.97 -0.398986 0.53076 0
M  V30 13443 H 1286.5 -0.671898 1.93253 0
M  V30 13444 H 1286.51 -2.95398 2.81432 0
M  V30 13445 H 1285.18 -2.10109 3.58925 0
M  V30 13446 H 1283.76 -3.10852 2.05975 0
M  V30 13447 N 1285.95 -1.35615 -0.802897 0
M  V30 13448 C 1286.86 -1.3096 -1.94645 0
M  V30 13449 C 1287.87 -0.213909 -1.7268 0
M  V30 13450 O 1289.05 -0.443932 -1.96446 0
M  V30 13451 C 1286.11 -1.08483 -3.2929 0
M  V30 13452 C 1285.18 -2.27401 -3.64126 0
M  V30 13453 C 1284.41 -2.05987 -4.92347 0
M  V30 13454 O 1284.63 -1.02819 -5.61057 0
M  V30 13455 O 1283.57 -2.93439 -5.25526 0
M  V30 13456 H 1287.39 -2.27209 -2.01519 0
M  V30 13457 H 1284.98 -1.16024 -0.941214 0
M  V30 13458 H 1286.86 -0.978118 -4.09891 0
M  V30 13459 H 1285.53 -0.152885 -3.23339 0
M  V30 13460 H 1284.44 -2.43638 -2.83886 0
M  V30 13461 H 1285.77 -3.19055 -3.74786 0
M  V30 13462 N 1287.43 1.02549 -1.19673 0
M  V30 13463 C 1288.39 2.09064 -0.939407 0
M  V30 13464 C 1289.39 1.60593 0.0814837 0
M  V30 13465 O 1290.58 1.73521 -0.153626 0
M  V30 13466 C 1287.71 3.38395 -0.412513 0
M  V30 13467 H 1288.9 2.33325 -1.88413 0
M  V30 13468 H 1286.46 1.19211 -1.01086 0
M  V30 13469 H 1287.19 3.19805 0.538094 0
M  V30 13470 H 1286.98 3.74898 -1.14863 0
M  V30 13471 H 1288.47 4.16841 -0.251678 0
M  V30 13472 N 1288.9 1.00119 1.21713 0
M  V30 13473 C 1290.32 0.713343 1.42771 0
M  V30 13474 C 1290.52 -0.712923 1.88467 0
M  V30 13475 O 1289.58 -1.48277 2.04378 0
M  V30 13476 C 1290.89 1.72596 2.46234 0
M  V30 13477 C 1292.44 1.74235 2.60022 0
M  V30 13478 C 1292.91 2.74382 3.66713 0
M  V30 13479 N 1294.4 2.73027 3.7418 0
M  V30 13480 C 1295.14 3.47178 4.56349 0
M  V30 13481 N 1294.63 4.30958 5.42446 0
M  V30 13482 N 1296.43 3.35846 4.50737 0
M  V30 13483 H 1288.58 1.9222 0.903611 0
M  V30 13484 H 1290.84 0.829466 0.459011 0
M  V30 13485 H 1290.55 2.74699 2.19621 0
M  V30 13486 H 1290.42 1.52553 3.44975 0
M  V30 13487 H 1292.81 0.728261 2.85973 0
M  V30 13488 H 1292.89 1.98349 1.61528 0
M  V30 13489 H 1292.53 3.75945 3.41508 0
M  V30 13490 H 1292.46 2.47534 4.64795 0
M  V30 13491 H 1294.95 2.12242 3.12669 0
M  V30 13492 H 1295.27 4.84344 6.02189 0
M  V30 13493 H 1293.61 4.35042 5.42 0
M  V30 13494 H 1296.8 2.6983 3.82504 0
M  V30 13495 H 1296.98 3.93892 5.14541 0
M  V30 13496 N 1290.38 -1.37203 0.775435 0
M  V30 13497 C 1291.33 -2.32102 0.152051 0
M  V30 13498 C 1292.32 -1.55117 -0.680806 0
M  V30 13499 O 1293.53 -1.70486 -0.577455 0
M  V30 13500 H 1289.9 -0.751386 0.0303853 0
M  V30 13501 H 1291.88 -2.82259 0.968121 0
M  V30 13502 C 1290.62 -3.40378 -0.709788 0
M  V30 13503 H 1289.95 -3.99723 -0.0782879 0
M  V30 13504 H 1291.39 -4.09134 -1.11288 0
M  V30 13505 C 1289.85 -2.80769 -1.862 0
M  V30 13506 O 1290.38 -2.71813 -2.95771 0
M  V30 13507 N 1288.58 -2.38259 -1.66376 0
M  V30 13508 H 1288.13 -2.45743 -0.772531 0
M  V30 13509 H 1288.09 -1.98721 -2.43634 0
M  V30 13510 N 1291.86 -0.526279 -1.48553 0
M  V30 13511 C 1293.09 0.0052277 -2.06899 0
M  V30 13512 C 1293.5 1.2849 -1.38332 0
M  V30 13513 O 1292.86 1.76354 -0.469648 0
M  V30 13514 C 1292.91 0.236709 -3.60724 0
M  V30 13515 O 1292.63 -0.992256 -4.26715 0
M  V30 13516 C 1294.13 0.809014 -4.35855 0
M  V30 13517 H 1291.35 -0.0318426 -0.670244 0
M  V30 13518 H 1293.9 -0.730865 -1.90994 0
M  V30 13519 H 1292.05 0.922842 -3.76248 0
M  V30 13520 H 1292.47 -0.770697 -5.18807 0
M  V30 13521 H 1293.94 0.920428 -5.44272 0
M  V30 13522 H 1294.42 1.81302 -4.00033 0
M  V30 13523 H 1295.02 0.159564 -4.25001 0
M  V30 13524 N 1293.34 1.5542 -0.261239 0
M  V30 13525 C 1294.61 1.91243 0.41056 0
M  V30 13526 C 1294.99 1.1838 1.74784 0
M  V30 13527 O 1294.34 0.306013 2.26442 0
M  V30 13528 C 1294.55 3.44404 0.56453 0
M  V30 13529 C 1295.9 4.15927 0.853827 0
M  V30 13530 O 1296.92 3.50222 0.649861 0
M  V30 13531 O 1295.78 5.32175 1.24308 0
M  V30 13532 H 1292.88 0.796491 0.222555 0
M  V30 13533 H 1295.42 1.66912 -0.306367 0
M  V30 13534 H 1294.2 3.89478 -0.377134 0
M  V30 13535 H 1293.82 3.74644 1.33145 0
M  V30 13536 N 1294.82 -0.0116844 1.57596 0
M  V30 13537 C 1296.04 -0.71026 1.94327 0
M  V30 13538 C 1296.46 -1.67952 0.862418 0
M  V30 13539 O 1295.82 -1.818 -0.159698 0
M  V30 13540 C 1295.87 -1.45228 3.31045 0
M  V30 13541 O 1295.59 -0.52191 4.3498 0
M  V30 13542 C 1297.09 -2.24644 3.82165 0
M  V30 13543 H 1294.31 -0.198559 0.640949 0
M  V30 13544 H 1296.85 0.0359615 2.04468 0
M  V30 13545 H 1295.01 -2.15023 3.22248 0
M  V30 13546 H 1295.42 -1.04415 5.14002 0
M  V30 13547 H 1296.9 -2.72078 4.80289 0
M  V30 13548 H 1297.37 -3.06817 3.14261 0
M  V30 13549 H 1297.98 -1.59888 3.94101 0
M  V30 13550 N 1296.29 -1.55015 -0.284256 0
M  V30 13551 C 1297.22 -1.90128 -1.3555 0
M  V30 13552 C 1298.2 -0.761914 -1.52082 0
M  V30 13553 O 1299.39 -1.01909 -1.65312 0
M  V30 13554 C 1296.52 -2.16332 -2.71695 0
M  V30 13555 C 1295.47 -3.32166 -2.69907 0
M  V30 13556 C 1294.8 -3.43824 -4.09498 0
M  V30 13557 C 1296.1 -4.6885 -2.30168 0
M  V30 13558 H 1297.79 -2.79852 -1.06411 0
M  V30 13559 H 1295.34 -1.34649 -0.510451 0
M  V30 13560 H 1297.29 -2.39482 -3.46737 0
M  V30 13561 H 1296.02 -1.23395 -3.02392 0
M  V30 13562 H 1294.68 -3.08965 -1.97322 0
M  V30 13563 H 1294.32 -2.48375 -4.374 0
M  V30 13564 H 1294.02 -4.21698 -4.092 0
M  V30 13565 H 1295.55 -3.69254 -4.86296 0
M  V30 13566 H 1296.96 -4.91619 -2.9493 0
M  V30 13567 H 1295.36 -5.49558 -2.41052 0
M  V30 13568 H 1296.43 -4.68433 -1.25294 0
M  V30 13569 N 1297.77 0.548248 -1.47757 0
M  V30 13570 C 1299.05 1.3092 -1.45325 0
M  V30 13571 C 1299.43 2.1053 -0.155008 0
M  V30 13572 O 1298.78 2.11558 0.863455 0
M  V30 13573 C 1298.99 2.20614 -2.70426 0
M  V30 13574 C 1300.33 2.81345 -3.18009 0
M  V30 13575 O 1301.36 2.30911 -2.71216 0
M  V30 13576 O 1300.22 3.73036 -3.99383 0
M  V30 13577 H 1297.31 0.58996 -0.579548 0
M  V30 13578 H 1299.86 0.56641 -1.59968 0
M  V30 13579 H 1298.63 1.61449 -3.56441 0
M  V30 13580 H 1298.25 3.02173 -2.58413 0
M  V30 13581 N 1299.25 1.36039 0.795694 0
M  V30 13582 C 1300.2 1.29853 1.90806 0
M  V30 13583 C 1301.17 0.168387 1.65244 0
M  V30 13584 O 1302.35 0.353879 1.8749 0
M  V30 13585 C 1299.49 1.08737 3.27521 0
M  V30 13586 C 1298.6 2.30771 3.65197 0
M  V30 13587 C 1297.74 2.02718 4.90998 0
M  V30 13588 C 1296.78 3.20746 5.21333 0
M  V30 13589 N 1295.92 2.92399 6.38316 0
M  V30 13590 H 1300.76 2.2497 1.95429 0
M  V30 13591 H 1298.29 1.11819 0.955771 0
M  V30 13592 H 1300.25 0.945236 4.06351 0
M  V30 13593 H 1298.88 0.172781 3.22337 0
M  V30 13594 H 1297.93 2.5581 2.81541 0
M  V30 13595 H 1299.24 3.18869 3.83568 0
M  V30 13596 H 1298.4 1.85398 5.77679 0
M  V30 13597 H 1297.14 1.11921 4.74684 0
M  V30 13598 H 1296.14 3.38632 4.33138 0
M  V30 13599 H 1297.37 4.1236 5.3957 0
M  V30 13600 H 1295.31 2.04207 6.23406 0
M  V30 13601 H 1295.23 3.74034 6.56989 0
M  V30 13602 H 1296.5 2.78643 7.27996 0
M  V30 13603 N 1300.73 -1.01913 1.20215 0
M  V30 13604 C 1301.66 -2.12282 0.97256 0
M  V30 13605 C 1302.64 -1.6982 -0.0975709 0
M  V30 13606 O 1303.82 -1.94109 0.0594307 0
M  V30 13607 C 1300.95 -3.43369 0.521085 0
M  V30 13608 C 1299.91 -3.99559 1.53417 0
M  V30 13609 C 1299.23 -5.26383 0.93942 0
M  V30 13610 C 1300.53 -4.33241 2.91718 0
M  V30 13611 H 1302.23 -2.31746 1.89563 0
M  V30 13612 H 1299.77 -1.1137 0.912841 0
M  V30 13613 H 1301.73 -4.19963 0.347713 0
M  V30 13614 H 1300.45 -3.23655 -0.437605 0
M  V30 13615 H 1299.11 -3.25069 1.69486 0
M  V30 13616 H 1298.76 -5.02993 -0.0271236 0
M  V30 13617 H 1298.46 -5.64942 1.616 0
M  V30 13618 H 1299.98 -6.05635 0.777059 0
M  V30 13619 H 1301.4 -5.00734 2.79175 0
M  V30 13620 H 1299.79 -4.82907 3.56259 0
M  V30 13621 H 1300.86 -3.42118 3.43633 0
M  V30 13622 N 1302.21 -1.00763 -1.2118 0
M  V30 13623 C 1303.62 -0.720905 -1.42391 0
M  V30 13624 C 1303.82 0.702918 -1.88842 0
M  V30 13625 O 1302.88 1.47191 -2.05161 0
M  V30 13626 C 1304.19 -1.739 -2.45315 0
M  V30 13627 C 1305.74 -1.75611 -2.59094 0
M  V30 13628 C 1306.21 -2.76323 -3.65253 0
M  V30 13629 N 1307.71 -2.75007 -3.72727 0
M  V30 13630 C 1308.44 -3.49594 -4.54502 0
M  V30 13631 N 1307.94 -4.33828 -5.40153 0
M  V30 13632 N 1309.73 -3.38232 -4.4895 0
M  V30 13633 H 1301.88 -1.92697 -0.893404 0
M  V30 13634 H 1304.14 -0.831888 -0.454606 0
M  V30 13635 H 1303.85 -2.75859 -2.18162 0
M  V30 13636 H 1303.72 -1.5438 -3.44161 0
M  V30 13637 H 1306.11 -0.743416 -2.85582 0
M  V30 13638 H 1306.19 -1.99203 -1.60474 0
M  V30 13639 H 1305.84 -3.77751 -3.39509 0
M  V30 13640 H 1305.77 -2.49996 -4.63476 0
M  V30 13641 H 1308.26 -2.13897 -3.11539 0
M  V30 13642 H 1308.57 -4.8753 -5.99612 0
M  V30 13643 H 1306.91 -4.3791 -5.39685 0
M  V30 13644 H 1310.11 -2.71855 -3.81068 0
M  V30 13645 H 1310.28 -3.96615 -5.12445 0
M  V30 13646 N 1303.68 1.3679 -0.7827 0
M  V30 13647 C 1304.62 2.28805 -0.13451 0
M  V30 13648 C 1305.63 1.49159 0.652338 0
M  V30 13649 O 1306.82 1.71682 0.488626 0
M  V30 13650 C 1303.92 3.28508 0.832802 0
M  V30 13651 C 1303.09 4.37291 0.0974435 0
M  V30 13652 C 1302.15 5.16999 0.979715 0
M  V30 13653 O 1301.18 5.67501 0.439439 0
M  V30 13654 N 1302.38 5.32786 2.30477 0
M  V30 13655 H 1305.14 2.85072 -0.924873 0
M  V30 13656 H 1302.7 1.48884 -0.636012 0
M  V30 13657 H 1304.7 3.78718 1.42671 0
M  V30 13658 H 1303.27 2.7293 1.52408 0
M  V30 13659 H 1302.49 3.88335 -0.677483 0
M  V30 13660 H 1303.77 5.07143 -0.410259 0
M  V30 13661 H 1303.17 4.93358 2.76793 0
M  V30 13662 H 1301.73 5.86264 2.84848 0
M  V30 13663 N 1305.16 0.53415 1.48272 0
M  V30 13664 C 1306.13 -0.215641 2.28183 0
M  V30 13665 C 1307.13 -0.863966 1.35618 0
M  V30 13666 O 1308.32 -0.723375 1.58471 0
M  V30 13667 C 1305.45 -1.31251 3.1462 0
M  V30 13668 H 1306.64 0.486014 2.95936 0
M  V30 13669 H 1304.19 0.290237 1.53582 0
M  V30 13670 H 1304.93 -2.04729 2.51508 0
M  V30 13671 H 1304.71 -0.852706 3.82716 0
M  V30 13672 H 1306.2 -1.83978 3.74889 0
M  V30 13673 N 1306.64 -1.55279 0.269478 0
M  V30 13674 C 1307.89 -1.99767 -0.34943 0
M  V30 13675 C 1308.22 -1.15762 -1.55926 0
M  V30 13676 O 1307.49 -0.22633 -1.93179 0
M  V30 13677 C 1307.78 -3.52474 -0.73716 0
M  V30 13678 C 1307.63 -4.47236 0.479621 0
M  V30 13679 C 1308.95 -4.10924 -1.57573 0
M  V30 13680 H 1306.07 -0.72623 -0.125535 0
M  V30 13681 H 1308.71 -1.86257 0.375298 0
M  V30 13682 H 1306.86 -3.64118 -1.35464 0
M  V30 13683 H 1308.53 -4.47543 1.11816 0
M  V30 13684 H 1306.78 -4.19127 1.11871 0
M  V30 13685 H 1307.45 -5.51754 0.164653 0
M  V30 13686 H 1309.92 -4.02522 -1.05429 0
M  V30 13687 H 1308.8 -5.17995 -1.81584 0
M  V30 13688 H 1309.06 -3.60798 -2.55495 0
M  V30 13689 N 1308.12 0.00332656 -1.576 0
M  V30 13690 C 1309.35 0.699945 -1.94701 0
M  V30 13691 C 1309.76 1.67492 -0.871312 0
M  V30 13692 O 1309.12 1.81882 0.150054 0
M  V30 13693 C 1309.17 1.43471 -3.31811 0
M  V30 13694 O 1308.89 0.498835 -4.35251 0
M  V30 13695 C 1310.39 2.22614 -3.83351 0
M  V30 13696 H 1307.61 0.195158 -0.641993 0
M  V30 13697 H 1310.16 -0.0468044 -2.04446 0
M  V30 13698 H 1308.31 2.13311 -3.23384 0
M  V30 13699 H 1308.72 1.01688 -5.14548 0
M  V30 13700 H 1310.2 2.69527 -4.81725 0
M  V30 13701 H 1310.68 3.05146 -3.15883 0
M  V30 13702 H 1311.28 1.57796 -3.94944 0
M  V30 13703 N 1309.6 1.55164 0.276031 0
M  V30 13704 C 1310.51 1.90928 1.36321 0
M  V30 13705 C 1311.52 0.806183 1.54197 0
M  V30 13706 O 1312.7 1.10497 1.68382 0
M  V30 13707 C 1309.76 2.17123 2.70293 0
M  V30 13708 C 1308.82 3.40703 2.6119 0
M  V30 13709 C 1308.06 3.65638 3.88773 0
M  V30 13710 O 1308.28 2.93137 4.89313 0
M  V30 13711 O 1307.21 4.59172 3.89159 0
M  V30 13712 H 1311.04 2.8347 1.08988 0
M  V30 13713 H 1308.63 1.41672 0.474292 0
M  V30 13714 H 1310.51 2.3541 3.49514 0
M  V30 13715 H 1309.18 1.27765 2.97419 0
M  V30 13716 H 1308.09 3.27754 1.80355 0
M  V30 13717 H 1309.42 4.30271 2.39014 0
M  V30 13718 N 1311.07 -0.540404 1.48045 0
M  V30 13719 C 1312 -1.65538 1.6468 0
M  V30 13720 C 1312.99 -1.62713 0.495847 0
M  V30 13721 O 1314.17 -1.80072 0.727172 0
M  V30 13722 C 1311.3 -3.0415 1.67661 0
M  V30 13723 C 1310.25 -3.2183 2.82152 0
M  V30 13724 C 1309.58 -4.61397 2.70216 0
M  V30 13725 C 1310.88 -3.05596 4.23567 0
M  V30 13726 H 1312.57 -1.51873 2.58021 0
M  V30 13727 H 1310.12 -0.729208 1.24171 0
M  V30 13728 H 1312.07 -3.82013 1.77887 0
M  V30 13729 H 1310.8 -3.18814 0.708907 0
M  V30 13730 H 1309.46 -2.4638 2.71463 0
M  V30 13731 H 1309.1 -4.72883 1.71437 0
M  V30 13732 H 1308.8 -4.74174 3.47035 0
M  V30 13733 H 1310.33 -5.41374 2.82395 0
M  V30 13734 H 1311.74 -3.73261 4.35143 0
M  V30 13735 H 1310.14 -3.29871 5.01303 0
M  V30 13736 H 1311.21 -2.0214 4.40758 0
M  V30 13737 N 1312.55 -1.36459 -0.788468 0
M  V30 13738 C 1313.78 -1.34063 -1.58246 0
M  V30 13739 C 1314.2 0.0754933 -1.87948 0
M  V30 13740 O 1313.56 1.04772 -1.47961 0
M  V30 13741 C 1313.61 -2.17038 -2.8797 0
M  V30 13742 O 1312.71 -1.56353 -3.81612 0
M  V30 13743 H 1312.05 -0.458816 -0.479983 0
M  V30 13744 H 1314.58 -1.79755 -0.977207 0
M  V30 13745 H 1314.59 -2.29651 -3.3723 0
M  V30 13746 H 1313.27 -3.19981 -2.65678 0
M  V30 13747 H 1311.85 -1.52685 -3.40208 0
M  V30 13748 N 1314.03 1.01274 -1.20754 0
M  V30 13749 C 1314.94 2.1335 -0.975656 0
M  V30 13750 C 1315.96 1.7386 0.0697364 0
M  V30 13751 O 1317.13 2.01051 -0.118578 0
M  V30 13752 C 1314.2 3.42548 -0.534931 0
M  V30 13753 C 1313.26 3.96257 -1.65163 0
M  V30 13754 C 1312.49 5.19289 -1.23184 0
M  V30 13755 O 1312.71 5.70309 -0.102158 0
M  V30 13756 O 1311.65 5.66248 -2.04076 0
M  V30 13757 H 1315.47 2.35783 -1.91415 0
M  V30 13758 H 1313.06 1.11736 -0.991743 0
M  V30 13759 H 1314.94 4.20341 -0.298568 0
M  V30 13760 H 1313.62 3.21521 0.374937 0
M  V30 13761 H 1312.52 3.19726 -1.94232 0
M  V30 13762 H 1313.86 4.2168 -2.53864 0
M  V30 13763 N 1315.51 1.01404 1.20644 0
M  V30 13764 C 1316.44 0.540288 2.22741 0
M  V30 13765 C 1317.45 -0.375953 1.584 0
M  V30 13766 O 1318.64 -0.174708 1.77643 0
M  V30 13767 C 1315.74 -0.233766 3.38093 0
M  V30 13768 C 1314.92 0.683759 4.32023 0
M  V30 13769 C 1313.98 -0.0422681 5.26183 0
M  V30 13770 O 1313 0.579392 5.66243 0
M  V30 13771 N 1314.2 -1.31794 5.65341 0
M  V30 13772 H 1316.97 1.41831 2.64015 0
M  V30 13773 H 1314.53 0.891265 1.35159 0
M  V30 13774 H 1316.52 -0.728645 3.98087 0
M  V30 13775 H 1315.09 -1.01306 2.9573 0
M  V30 13776 H 1314.31 1.35899 3.70034 0
M  V30 13777 H 1315.6 1.30786 4.91704 0
M  V30 13778 H 1315 -1.84399 5.34802 0
M  V30 13779 H 1313.55 -1.7576 6.27656 0
M  V30 13780 N 1316.99 -1.36373 0.789944 0
M  V30 13781 C 1318.23 -1.99523 0.363119 0
M  V30 13782 C 1318.57 -1.6255 -1.0626 0
M  V30 13783 O 1317.84 -0.880551 -1.73426 0
M  V30 13784 C 1318.12 -3.56215 0.527526 0
M  V30 13785 C 1317.98 -4.0304 1.99697 0
M  V30 13786 C 1319.3 -4.40063 -0.0571079 0
M  V30 13787 H 1316.42 -0.724824 0.133412 0
M  V30 13788 H 1319.06 -1.61778 0.996381 0
M  V30 13789 H 1317.21 -3.88498 -0.0115636 0
M  V30 13790 H 1318.88 -3.81241 2.59717 0
M  V30 13791 H 1317.12 -3.54561 2.49939 0
M  V30 13792 H 1317.79 -5.12001 2.06297 0
M  V30 13793 H 1320.27 -4.14143 0.403082 0
M  V30 13794 H 1319.15 -5.4883 0.0879494 0
M  V30 13795 H 1319.41 -4.26901 -1.14926 0
M  V30 13796 N 1318.47 -0.542005 -1.47987 0
M  V30 13797 C 1319.4 0.202703 -2.32618 0
M  V30 13798 C 1320.38 0.923521 -1.42846 0
M  V30 13799 O 1321.56 0.906957 -1.7172 0
M  V30 13800 C 1318.69 1.24267 -3.24307 0
M  V30 13801 C 1317.65 0.639257 -4.23199 0
M  V30 13802 C 1316.97 1.78275 -5.04105 0
M  V30 13803 C 1318.27 -0.396982 -5.20789 0
M  V30 13804 H 1319.97 -0.503817 -2.95131 0
M  V30 13805 H 1317.51 -0.243736 -1.41922 0
M  V30 13806 H 1319.46 1.7717 -3.82347 0
M  V30 13807 H 1318.19 1.97893 -2.59819 0
M  V30 13808 H 1316.85 0.131655 -3.66364 0
M  V30 13809 H 1316.5 2.50768 -4.36032 0
M  V30 13810 H 1316.2 1.38487 -5.71047 0
M  V30 13811 H 1317.72 2.31533 -5.65 0
M  V30 13812 H 1319.13 0.0454057 -5.73282 0
M  V30 13813 H 1317.53 -0.712911 -5.9585 0
M  V30 13814 H 1318.6 -1.29843 -4.67193 0
M  V30 13815 N 1319.94 1.55134 -0.277709 0
M  V30 13816 C 1320.88 2.20028 0.641913 0
M  V30 13817 C 1321.89 1.18578 1.11549 0
M  V30 13818 O 1323.08 1.45291 1.03695 0
M  V30 13819 C 1320.18 2.81443 1.88794 0
M  V30 13820 C 1319.35 4.08607 1.56074 0
M  V30 13821 C 1318.41 4.54045 2.6595 0
M  V30 13822 O 1317.44 5.19762 2.32026 0
M  V30 13823 N 1318.64 4.24403 3.96058 0
M  V30 13824 H 1321.4 2.99575 0.0864929 0
M  V30 13825 H 1318.96 1.61598 -0.0989178 0
M  V30 13826 H 1320.96 3.08784 2.616 0
M  V30 13827 H 1319.53 2.05873 2.35234 0
M  V30 13828 H 1318.75 3.88527 0.666388 0
M  V30 13829 H 1320.03 4.91455 1.31719 0
M  V30 13830 H 1319.43 3.71708 4.26439 0
M  V30 13831 H 1317.99 4.56509 4.65234 0
M  V30 13832 N 1321.42 0.00503138 1.57599 0
M  V30 13833 C 1322.35 -1.01883 2.04194 0
M  V30 13834 C 1323.33 -1.33183 0.9328 0
M  V30 13835 O 1324.52 -1.45261 1.20131 0
M  V30 13836 C 1321.64 -2.34515 2.44377 0
M  V30 13837 C 1320.69 -2.18843 3.66074 0
M  V30 13838 S 1321.52 -1.50975 5.13777 0
M  V30 13839 C 1322.68 -2.85027 5.57235 0
M  V30 13840 H 1322.91 -0.622099 2.90718 0
M  V30 13841 H 1320.44 -0.205983 1.5302 0
M  V30 13842 H 1322.4 -3.10775 2.68196 0
M  V30 13843 H 1321.06 -2.71327 1.58243 0
M  V30 13844 H 1320.26 -3.16836 3.91958 0
M  V30 13845 H 1319.86 -1.50727 3.42283 0
M  V30 13846 H 1322.15 -3.81318 5.60002 0
M  V30 13847 H 1323.09 -2.63837 6.57112 0
M  V30 13848 H 1323.5 -2.89168 4.84812 0
M  V30 13849 N 1322.9 -1.55308 -0.267798 0
M  V30 13850 C 1324.32 -1.47264 -0.61526 0
M  V30 13851 C 1324.52 -0.691025 -1.8928 0
M  V30 13852 O 1323.57 -0.211964 -2.51609 0
M  V30 13853 C 1324.88 -2.91519 -0.73739 0
M  V30 13854 C 1326.43 -3.01764 -0.831102 0
M  V30 13855 C 1326.91 -4.47283 -0.984965 0
M  V30 13856 N 1328.4 -4.51134 -1.05036 0
M  V30 13857 C 1329.13 -5.60952 -1.1883 0
M  V30 13858 N 1328.63 -6.80625 -1.29311 0
M  V30 13859 N 1330.42 -5.48705 -1.21982 0
M  V30 13860 H 1322.57 -2.04577 0.57114 0
M  V30 13861 H 1324.84 -0.927908 0.194141 0
M  V30 13862 H 1324.54 -3.51456 0.130974 0
M  V30 13863 H 1324.42 -3.40829 -1.61603 0
M  V30 13864 H 1326.8 -2.4192 -1.68993 0
M  V30 13865 H 1326.88 -2.55698 0.0722509 0
M  V30 13866 H 1326.53 -5.07732 -0.130776 0
M  V30 13867 H 1326.46 -4.91011 -1.90305 0
M  V30 13868 H 1328.95 -3.6493 -0.981551 0
M  V30 13869 H 1329.26 -7.60071 -1.39685 0
M  V30 13870 H 1327.61 -6.83426 -1.26306 0
M  V30 13871 H 1330.8 -4.5415 -1.13428 0
M  V30 13872 H 1330.97 -6.34332 -1.32388 0
M  V30 13873 N 1324.38 0.532545 -1.4833 0
M  V30 13874 C 1325.29 1.66433 -1.65339 0
M  V30 13875 C 1326.3 1.65541 -0.535939 0
M  V30 13876 O 1327.48 1.84539 -0.806679 0
M  V30 13877 C 1324.54 3.02901 -1.68676 0
M  V30 13878 C 1323.61 3.14669 -2.92031 0
M  V30 13879 C 1322.84 4.44627 -2.95199 0
M  V30 13880 O 1323.06 5.31572 -2.06851 0
M  V30 13881 O 1322 4.60707 -3.87341 0
M  V30 13882 H 1325.82 1.5502 -2.61156 0
M  V30 13883 H 1323.41 0.705348 -1.31701 0
M  V30 13884 H 1325.29 3.84068 -1.73407 0
M  V30 13885 H 1323.96 3.14644 -0.760327 0
M  V30 13886 H 1322.87 2.32807 -2.92834 0
M  V30 13887 H 1324.2 3.07841 -3.8405 0
M  V30 13888 N 1325.86 1.36875 0.78122 0
M  V30 13889 C 1327.1 1.31299 1.53639 0
M  V30 13890 C 1327.42 -0.104942 1.94717 0
M  V30 13891 O 1326.69 -1.04696 1.65576 0
M  V30 13892 H 1325.27 0.483032 0.569815 0
M  V30 13893 H 1327.94 1.71261 0.930359 0
M  V30 13894 H 1327.03 1.94581 2.44018 0
M  V30 13895 N 1327.33 -1.00632 1.21289 0
M  V30 13896 C 1328.26 -2.11238 0.995021 0
M  V30 13897 C 1329.24 -1.69914 -0.0795537 0
M  V30 13898 O 1330.43 -1.94035 0.0800152 0
M  V30 13899 C 1327.56 -3.42797 0.557475 0
M  V30 13900 C 1326.51 -3.97909 1.57646 0
M  V30 13901 C 1325.84 -5.25357 0.995197 0
M  V30 13902 C 1327.14 -4.30123 2.96297 0
M  V30 13903 H 1328.83 -2.29722 1.9201 0
M  V30 13904 H 1326.38 -1.10395 0.924602 0
M  V30 13905 H 1328.33 -4.19571 0.392236 0
M  V30 13906 H 1327.06 -3.24101 -0.403253 0
M  V30 13907 H 1325.72 -3.23254 1.72924 0
M  V30 13908 H 1325.36 -5.02993 0.026227 0
M  V30 13909 H 1325.06 -5.63196 1.67583 0
M  V30 13910 H 1326.59 -6.04777 0.841251 0
M  V30 13911 H 1328 -4.97744 2.8447 0
M  V30 13912 H 1326.4 -4.79101 3.61361 0
M  V30 13913 H 1327.47 -3.38454 3.47242 0
M  V30 13914 N 1328.81 -1.02043 -1.20104 0
M  V30 13915 C 1329.74 -0.552093 -2.22451 0
M  V30 13916 C 1330.76 0.367547 -1.58597 0
M  V30 13917 O 1331.95 0.165285 -1.77733 0
M  V30 13918 C 1329.05 0.215833 -3.38212 0
M  V30 13919 C 1328.22 -0.70666 -4.31654 0
M  V30 13920 C 1327.28 0.0143628 -5.26198 0
M  V30 13921 O 1326.3 -0.609413 -5.65928 0
M  V30 13922 N 1327.51 1.28794 -5.66032 0
M  V30 13923 H 1330.27 -1.43229 -2.6326 0
M  V30 13924 H 1327.83 -0.89842 -1.34685 0
M  V30 13925 H 1329.82 0.707523 -3.98467 0
M  V30 13926 H 1328.39 0.997358 -2.96263 0
M  V30 13927 H 1327.61 -1.37859 -3.69308 0
M  V30 13928 H 1328.9 -1.33392 -4.91003 0
M  V30 13929 H 1328.3 1.8156 -5.35773 0
M  V30 13930 H 1326.86 1.72429 -6.28579 0
M  V30 13931 N 1330.29 1.35952 -0.797165 0
M  V30 13932 C 1331.52 2.0381 -0.38421 0
M  V30 13933 C 1331.94 1.597 0.993854 0
M  V30 13934 O 1331.3 0.769148 1.64176 0
M  V30 13935 C 1331.35 3.57589 -0.465054 0
M  V30 13936 O 1330.45 4.09043 0.525095 0
M  V30 13937 H 1329.79 0.643957 -0.161912 0
M  V30 13938 H 1332.32 1.73746 -1.08043 0
M  V30 13939 H 1332.33 4.06651 -0.331448 0
M  V30 13940 H 1331.01 3.89045 -1.47027 0
M  V30 13941 H 1329.58 3.7123 0.352509 0
M  V30 13942 N 1331.77 0.549846 1.47697 0
M  V30 13943 C 1332.7 -0.190364 2.32723 0
M  V30 13944 C 1333.68 -0.915933 1.43334 0
M  V30 13945 O 1334.86 -0.897838 1.72199 0
M  V30 13946 C 1331.99 -1.22545 3.24961 0
M  V30 13947 C 1330.95 -0.616805 4.23532 0
M  V30 13948 C 1330.27 -1.75599 5.05044 0
M  V30 13949 C 1331.57 0.424595 5.20571 0
M  V30 13950 H 1333.27 0.519461 2.94859 0
M  V30 13951 H 1330.81 0.251259 1.41791 0
M  V30 13952 H 1332.77 -1.75139 3.83281 0
M  V30 13953 H 1331.49 -1.96512 2.60865 0
M  V30 13954 H 1330.15 -0.112224 3.66428 0
M  V30 13955 H 1329.8 -2.48453 4.37356 0
M  V30 13956 H 1329.5 -1.35456 5.71774 0
M  V30 13957 H 1331.02 -2.28533 5.6622 0
M  V30 13958 H 1332.44 -0.0150025 5.73298 0
M  V30 13959 H 1330.83 0.7445 5.95464 0
M  V30 13960 H 1331.9 1.32318 4.66497 0
M  V30 13961 N 1333.25 -1.54984 0.285932 0
M  V30 13962 C 1334.66 -1.59455 -0.0679061 0
M  V30 13963 C 1334.86 -1.30308 -1.53695 0
M  V30 13964 O 1333.92 -1.06918 -2.28746 0
M  V30 13965 C 1335.23 -2.9903 0.316469 0
M  V30 13966 C 1336.78 -3.11885 0.263982 0
M  V30 13967 C 1337.25 -4.53744 0.622956 0
M  V30 13968 N 1338.75 -4.59618 0.574917 0
M  V30 13969 C 1339.48 -5.67429 0.825339 0
M  V30 13970 N 1338.98 -6.83341 1.14094 0
M  V30 13971 N 1340.77 -5.57028 0.75341 0
M  V30 13972 H 1332.92 -1.72194 1.2435 0
M  V30 13973 H 1335.18 -0.80348 0.503114 0
M  V30 13974 H 1334.89 -3.25232 1.33855 0
M  V30 13975 H 1334.76 -3.75688 -0.337371 0
M  V30 13976 H 1337.15 -2.85441 -0.748832 0
M  V30 13977 H 1337.23 -2.37416 0.952233 0
M  V30 13978 H 1336.88 -4.80915 1.63351 0
M  V30 13979 H 1336.81 -5.26528 -0.0872039 0
M  V30 13980 H 1339.3 -3.76356 0.341305 0
M  V30 13981 H 1339.61 -7.61471 1.3184 0
M  V30 13982 H 1337.95 -6.8493 1.17883 0
M  V30 13983 H 1341.15 -4.6535 0.506611 0
M  V30 13984 H 1341.32 -6.4097 0.95195 0
M  V30 13985 N 1334.72 -0.0133892 -1.57594 0
M  V30 13986 C 1335.66 1.00211 -2.06132 0
M  V30 13987 C 1336.67 1.29869 -0.98173 0
M  V30 13988 O 1337.86 1.2661 -1.25826 0
M  V30 13989 C 1334.96 2.33354 -2.45763 0
M  V30 13990 C 1334.13 2.22441 -3.76615 0
M  V30 13991 C 1333.19 3.38385 -4.02967 0
M  V30 13992 O 1332.22 3.15973 -4.73445 0
M  V30 13993 N 1333.42 4.61672 -3.51908 0
M  V30 13994 H 1336.18 0.588079 -2.93874 0
M  V30 13995 H 1333.74 0.173714 -1.60965 0
M  V30 13996 H 1335.74 3.09716 -2.60496 0
M  V30 13997 H 1334.31 2.66451 -1.6347 0
M  V30 13998 H 1333.53 1.30905 -3.7183 0
M  V30 13999 H 1334.81 2.12337 -4.62375 0
M  V30 14000 H 1334.21 4.82777 -2.9486 0
M  V30 14001 H 1332.77 5.35256 -3.71947 0
M  V30 14002 N 1336.2 1.55448 0.259558 0
M  V30 14003 C 1337.17 1.88459 1.30445 0
M  V30 14004 C 1338.17 0.760096 1.41701 0
M  V30 14005 O 1339.36 1.02819 1.4062 0
M  V30 14006 C 1336.49 2.10181 2.68397 0
M  V30 14007 H 1337.68 2.81877 1.02398 0
M  V30 14008 H 1335.23 1.48145 0.498262 0
M  V30 14009 H 1335.97 1.19189 3.01603 0
M  V30 14010 H 1335.75 2.92066 2.6161 0
M  V30 14011 H 1337.24 2.36947 3.43869 0
M  V30 14012 N 1337.68 -0.524672 1.4861 0
M  V30 14013 C 1338.93 -1.28211 1.5713 0
M  V30 14014 C 1339.26 -1.92626 0.246751 0
M  V30 14015 O 1338.53 -1.79553 -0.747725 0
M  V30 14016 C 1338.82 -2.36737 2.71344 0
M  V30 14017 C 1338.67 -1.76978 4.1352 0
M  V30 14018 C 1339.99 -3.3847 2.81294 0
M  V30 14019 H 1337.11 -0.46479 0.571961 0
M  V30 14020 H 1339.75 -0.583937 1.80804 0
M  V30 14021 H 1337.9 -2.96287 2.51289 0
M  V30 14022 H 1339.57 -1.21438 4.45029 0
M  V30 14023 H 1337.82 -1.07488 4.20272 0
M  V30 14024 H 1338.49 -2.55583 4.89266 0
M  V30 14025 H 1340.96 -2.88882 2.99477 0
M  V30 14026 H 1339.84 -4.11795 3.62928 0
M  V30 14027 H 1340.1 -3.99347 1.89669 0
M  V30 14028 N 1339.16 -1.37287 -0.77395 0
M  V30 14029 C 1340.09 -1.28746 -1.89624 0
M  V30 14030 C 1341.1 -0.203715 -1.6152 0
M  V30 14031 O 1342.29 -0.459684 -1.72479 0
M  V30 14032 C 1339.39 -0.967342 -3.24801 0
M  V30 14033 C 1338.57 -2.1561 -3.80567 0
M  V30 14034 C 1337.62 -1.80661 -4.94215 0
M  V30 14035 O 1336.65 -2.5293 -5.09917 0
M  V30 14036 N 1337.85 -0.749424 -5.75642 0
M  V30 14037 H 1340.62 -2.25447 -1.97468 0
M  V30 14038 H 1338.18 -1.30883 -0.952956 0
M  V30 14039 H 1340.17 -0.714421 -3.98344 0
M  V30 14040 H 1338.74 -0.0889573 -3.12473 0
M  V30 14041 H 1337.96 -2.57091 -2.98828 0
M  V30 14042 H 1339.25 -2.94993 -4.14556 0
M  V30 14043 H 1338.65 -0.149673 -5.65502 0
M  V30 14044 H 1337.2 -0.556358 -6.49421 0
M  V30 14045 N 1340.64 0.999871 -1.21821 0
M  V30 14046 C 1341.57 2.10708 -1.00621 0
M  V30 14047 C 1342.55 1.69954 0.0705417 0
M  V30 14048 O 1343.73 1.9399 -0.0903042 0
M  V30 14049 C 1340.86 3.42496 -0.575646 0
M  V30 14050 C 1339.82 3.97068 -1.59754 0
M  V30 14051 C 1339.14 5.24822 -1.02304 0
M  V30 14052 C 1340.44 4.28545 -2.98574 0
M  V30 14053 H 1342.14 2.28701 -1.93226 0
M  V30 14054 H 1339.68 1.09903 -0.930443 0
M  V30 14055 H 1341.64 4.19357 -0.414481 0
M  V30 14056 H 1340.36 3.2431 0.386059 0
M  V30 14057 H 1339.02 3.22332 -1.74636 0
M  V30 14058 H 1338.67 5.02972 -0.0529016 0
M  V30 14059 H 1338.37 5.62299 -1.70567 0
M  V30 14060 H 1339.89 6.04322 -0.873312 0
M  V30 14061 H 1341.3 4.96229 -2.87106 0
M  V30 14062 H 1339.7 4.77178 -3.63897 0
M  V30 14063 H 1340.77 3.36607 -3.49032 0
M  V30 14064 N 1342.11 1.02678 1.19562 0
M  V30 14065 C 1343.36 0.723086 1.89471 0
M  V30 14066 C 1343.69 -0.746269 1.79289 0
M  V30 14067 O 1342.97 -1.54322 1.18384 0
M  V30 14068 C 1343.25 1.17224 3.40486 0
M  V30 14069 C 1343.1 2.70266 3.5955 0
M  V30 14070 C 1344.42 0.751397 4.33638 0
M  V30 14071 H 1341.54 0.264155 0.688034 0
M  V30 14072 H 1344.18 1.27633 1.40747 0
M  V30 14073 H 1342.33 0.701544 3.82113 0
M  V30 14074 H 1344.01 3.25266 3.27108 0
M  V30 14075 H 1342.25 3.10758 3.02675 0
M  V30 14076 H 1342.92 2.96748 4.65451 0
M  V30 14077 H 1345.4 1.15621 3.99714 0
M  V30 14078 H 1344.27 1.09358 5.37896 0
M  V30 14079 H 1344.53 -0.346367 4.40741 0
M  V30 14080 N 1343.59 -1.35528 0.804364 0
M  V30 14081 C 1344.52 -2.32388 0.227604 0
M  V30 14082 C 1345.5 -1.57368 -0.645709 0
M  V30 14083 O 1346.69 -1.85448 -0.576441 0
M  V30 14084 C 1343.82 -3.41603 -0.62645 0
M  V30 14085 C 1342.77 -4.27743 0.148187 0
M  V30 14086 C 1342.1 -5.28259 -0.827425 0
M  V30 14087 C 1343.4 -5.04661 1.34591 0
M  V30 14088 H 1345.09 -2.80874 1.03684 0
M  V30 14089 H 1342.64 -1.3504 0.500031 0
M  V30 14090 H 1344.59 -4.08365 -1.03999 0
M  V30 14091 H 1343.32 -2.91721 -1.46855 0
M  V30 14092 H 1341.97 -3.62558 0.542874 0
M  V30 14093 H 1341.62 -4.74645 -1.66496 0
M  V30 14094 H 1341.32 -5.86763 -0.313453 0
M  V30 14095 H 1342.85 -5.97893 -1.23921 0
M  V30 14096 H 1344.26 -5.6438 1.00736 0
M  V30 14097 H 1342.66 -5.7265 1.79422 0
M  V30 14098 H 1343.73 -4.35432 2.1337 0
M  V30 14099 N 1345.07 -0.557671 -1.47404 0
M  V30 14100 C 1346.03 0.179311 -2.28498 0
M  V30 14101 C 1347.03 0.842281 -1.36975 0
M  V30 14102 O 1348.22 0.698072 -1.59601 0
M  V30 14103 C 1345.36 1.26229 -3.16668 0
M  V30 14104 H 1346.55 -0.533033 -2.95125 0
M  V30 14105 H 1344.1 -0.314634 -1.531 0
M  V30 14106 H 1344.84 2.00702 -2.54733 0
M  V30 14107 H 1344.62 0.791712 -3.84024 0
M  V30 14108 H 1346.11 1.77991 -3.77768 0
M  V30 14109 N 1346.55 1.54831 -0.294147 0
M  V30 14110 C 1347.96 1.85627 0.199866 0
M  V30 14111 C 1348.31 1.21613 1.53964 0
M  V30 14112 O 1347.44 0.511317 2.10272 0
M  V30 14113 C 1348.03 3.3678 0.369428 0
M  V30 14114 C 1346.59 3.67633 0.807663 0
M  V30 14115 C 1345.74 2.7716 -0.0880078 0
M  V30 14116 H 1348.69 1.50099 -0.515371 0
M  V30 14117 H 1348.71 3.60913 1.20508 0
M  V30 14118 H 1348.22 3.83342 -0.605831 0
M  V30 14119 H 1346.32 3.26583 1.79372 0
M  V30 14120 H 1346.44 4.74916 0.631799 0
M  V30 14121 H 1344.8 2.51017 0.431553 0
M  V30 14122 H 1345.58 3.26542 -1.0595 0
M  V30 14123 N 1348.03 0.0217466 1.57585 0
M  V30 14124 C 1348.98 -0.971557 2.06264 0
M  V30 14125 C 1349.96 -1.29 0.961656 0
M  V30 14126 O 1351.15 -1.27734 1.22527 0
M  V30 14127 C 1348.28 -2.25643 2.58728 0
M  V30 14128 C 1347.37 -1.96668 3.75743 0
M  V30 14129 N 1347.76 -1.37933 4.86629 0
M  V30 14130 C 1346.06 -2.26698 3.84088 0
M  V30 14131 C 1346.76 -1.25923 5.67907 0
M  V30 14132 N 1345.73 -1.75224 5.14585 0
M  V30 14133 H 1349.54 -0.512285 2.89401 0
M  V30 14134 H 1347.05 -0.183446 1.61361 0
M  V30 14135 H 1349.05 -2.97668 2.91889 0
M  V30 14136 H 1347.71 -2.72204 1.77018 0
M  V30 14137 H 1348.72 -1.05529 5.07034 0
M  V30 14138 H 1345.4 -2.75983 3.13272 0
M  V30 14139 H 1346.79 -0.805687 6.67052 0
M  V30 14140 N 1349.51 -1.55583 -0.251311 0
M  V30 14141 C 1350.92 -1.47908 -0.599606 0
M  V30 14142 C 1351.12 -0.711061 -1.88537 0
M  V30 14143 O 1350.18 -0.238639 -2.5137 0
M  V30 14144 C 1351.49 -2.92284 -0.706429 0
M  V30 14145 C 1353.04 -3.02629 -0.799049 0
M  V30 14146 C 1353.51 -4.48303 -0.93747 0
M  V30 14147 N 1355 -4.52222 -1.00245 0
M  V30 14148 C 1355.74 -5.62181 -1.12874 0
M  V30 14149 N 1355.24 -6.81958 -1.22085 0
M  V30 14150 N 1357.03 -5.49968 -1.16155 0
M  V30 14151 H 1349.18 -2.0396 0.592806 0
M  V30 14152 H 1351.44 -0.925797 0.203971 0
M  V30 14153 H 1351.15 -3.51297 0.168243 0
M  V30 14154 H 1351.02 -3.42524 -1.57979 0
M  V30 14155 H 1353.41 -2.43699 -1.66418 0
M  V30 14156 H 1353.49 -2.55607 0.099367 0
M  V30 14157 H 1353.13 -5.07842 -0.0769166 0
M  V30 14158 H 1353.06 -4.93002 -1.85086 0
M  V30 14159 H 1355.56 -3.65951 -0.94279 0
M  V30 14160 H 1355.87 -7.6151 -1.31616 0
M  V30 14161 H 1354.21 -6.84728 -1.1905 0
M  V30 14162 H 1357.4 -4.55327 -1.08604 0
M  V30 14163 H 1357.58 -6.35701 -1.25653 0
M  V30 14164 N 1350.98 0.516783 -1.48886 0
M  V30 14165 C 1351.89 1.6467 -1.67095 0
M  V30 14166 C 1352.91 1.64963 -0.553466 0
M  V30 14167 O 1354.09 1.83673 -0.826206 0
M  V30 14168 C 1351.15 3.01095 -1.71879 0
M  V30 14169 C 1350.21 3.11554 -2.95352 0
M  V30 14170 C 1349.44 4.41471 -2.99898 0
M  V30 14171 O 1349.67 5.29348 -2.12477 0
M  V30 14172 O 1348.6 4.56573 -3.92205 0
M  V30 14173 H 1352.43 1.52242 -2.62785 0
M  V30 14174 H 1350.01 0.69134 -1.32442 0
M  V30 14175 H 1351.89 3.82207 -1.77471 0
M  V30 14176 H 1350.57 3.1382 -0.793656 0
M  V30 14177 H 1349.48 2.29689 -2.95286 0
M  V30 14178 H 1350.81 3.03751 -3.87294 0
M  V30 14179 N 1352.46 1.37696 0.766659 0
M  V30 14180 C 1353.71 1.32922 1.52237 0
M  V30 14181 C 1354.03 -0.0842833 1.94818 0
M  V30 14182 O 1353.3 -1.02934 1.66677 0
M  V30 14183 H 1351.88 0.489049 0.564659 0
M  V30 14184 H 1354.54 1.72238 0.912142 0
M  V30 14185 H 1353.64 1.97158 2.4194 0
M  V30 14186 N 1353.94 -0.993397 1.22349 0
M  V30 14187 C 1355.35 -1.54739 1.04465 0
M  V30 14188 C 1355.7 -1.92243 -0.392057 0
M  V30 14189 O 1354.83 -1.74707 -1.27697 0
M  V30 14190 C 1355.42 -2.81179 1.89007 0
M  V30 14191 C 1353.98 -3.33023 1.75421 0
M  V30 14192 C 1353.13 -2.06114 1.85505 0
M  V30 14193 H 1356.08 -0.814539 1.36202 0
M  V30 14194 H 1356.1 -3.53523 1.40718 0
M  V30 14195 H 1355.61 -2.53851 2.93566 0
M  V30 14196 H 1353.71 -3.6526 0.735935 0
M  V30 14197 H 1353.83 -4.03659 2.58062 0
M  V30 14198 H 1352.19 -2.19651 1.2894 0
M  V30 14199 H 1352.97 -1.81184 2.91594 0
M  V30 14200 N 1355.42 -1.03311 -1.19015 0
M  V30 14201 C 1356.66 -0.740813 -1.90503 0
M  V30 14202 C 1357.02 0.717732 -1.7808 0
M  V30 14203 O 1358.22 1.12329 -2.44204 0
M  V30 14204 C 1356.49 -1.18473 -3.37193 0
M  V30 14205 S 1358.05 -1.01692 -4.26854 0
M  V30 14206 H 1354.87 -0.269575 -0.657913 0
M  V30 14207 H 1357.47 -1.32382 -1.43858 0
M  V30 14208 H 1356.18 -2.2418 -3.43761 0
M  V30 14209 H 1355.71 -0.59519 -3.88872 0
M  V30 14210 H 1357.72 0.070076 -4.96151 0
M  V30 14211 N 1356.9 1.35099 -0.81154 0
M  V30 14212 C 1358.31 1.81082 -0.454543 0
M  V30 14213 C 1358.66 1.67361 1.02395 0
M  V30 14214 O 1357.78 1.20707 1.79607 0
M  V30 14215 C 1358.38 3.2877 -0.818274 0
M  V30 14216 C 1356.94 3.72877 -0.513808 0
M  V30 14217 C 1356.08 2.57008 -1.04125 0
M  V30 14218 H 1359.03 1.23007 -1.00274 0
M  V30 14219 H 1359.06 3.80318 -0.117683 0
M  V30 14220 H 1358.57 3.38725 -1.89439 0
M  V30 14221 H 1356.67 3.68468 0.553368 0
M  V30 14222 H 1356.78 4.67455 -1.0499 0
M  V30 14223 H 1355.15 2.5045 -0.463337 0
M  V30 14224 H 1355.93 2.69738 -2.12358 0
M  V30 14225 N 1358.37 0.56548 1.47106 0
M  V30 14226 C 1359.79 0.225855 1.57994 0
M  V30 14227 C 1359.99 -1.27173 1.56299 0
M  V30 14228 O 1359.05 -2.05242 1.47078 0
M  V30 14229 C 1360.36 0.859829 2.88145 0
M  V30 14230 C 1361.91 0.831821 3.01744 0
M  V30 14231 C 1362.38 1.44502 4.34607 0
M  V30 14232 N 1363.87 1.40857 4.41263 0
M  V30 14233 C 1364.61 1.85258 5.42648 0
M  V30 14234 N 1364.1 2.37553 6.508 0
M  V30 14235 N 1365.9 1.76279 5.33744 0
M  V30 14236 H 1358.05 1.53837 1.46451 0
M  V30 14237 H 1360.31 0.642013 0.697512 0
M  V30 14238 H 1360.02 1.91264 2.95146 0
M  V30 14239 H 1359.89 0.357762 3.755 0
M  V30 14240 H 1362.28 -0.212319 2.94335 0
M  V30 14241 H 1362.36 1.37173 2.1591 0
M  V30 14242 H 1362 2.48827 4.42773 0
M  V30 14243 H 1361.93 0.880479 5.19187 0
M  V30 14244 H 1364.42 1.02614 3.63702 0
M  V30 14245 H 1364.74 2.69335 7.24347 0
M  V30 14246 H 1363.08 2.41569 6.51667 0
M  V30 14247 H 1366.27 1.35195 4.48152 0
M  V30 14248 H 1366.45 2.11199 6.12616 0
M  V30 14249 N 1359.85 -1.54672 0.302354 0
M  V30 14250 C 1360.82 -2.22246 -0.560283 0
M  V30 14251 C 1361.82 -1.20895 -1.06023 0
M  V30 14252 O 1363.01 -1.45621 -0.956047 0
M  V30 14253 C 1360.14 -2.9099 -1.77589 0
M  V30 14254 H 1361.33 -2.99885 0.0301274 0
M  V30 14255 H 1358.88 -1.56209 0.0532036 0
M  V30 14256 H 1359.62 -2.17433 -2.4061 0
M  V30 14257 H 1359.4 -3.65288 -1.42503 0
M  V30 14258 H 1360.89 -3.42535 -2.38871 0
M  V30 14259 N 1361.33 -0.0301034 -1.57571 0
M  V30 14260 C 1362.56 0.662045 -1.9655 0
M  V30 14261 C 1362.98 1.64811 -0.906581 0
M  V30 14262 O 1362.34 1.80816 0.132415 0
M  V30 14263 C 1362.39 1.34389 -3.34622 0
M  V30 14264 O 1361.49 2.45919 -3.31056 0
M  V30 14265 H 1360.83 0.173842 -0.640839 0
M  V30 14266 H 1363.36 -0.092248 -2.04392 0
M  V30 14267 H 1363.37 1.70045 -3.70875 0
M  V30 14268 H 1362.05 0.621092 -4.11236 0
M  V30 14269 H 1360.62 2.12367 -3.06521 0
M  V30 14270 N 1362.81 1.55714 0.243056 0
M  V30 14271 C 1364.06 1.77375 0.968638 0
M  V30 14272 C 1364.38 0.594781 1.85708 0
M  V30 14273 O 1363.65 -0.38928 1.91993 0
M  V30 14274 H 1362.23 0.654174 0.360646 0
M  V30 14275 H 1364.89 1.93157 0.260079 0
M  V30 14276 H 1363.99 2.68674 1.5881 0
M  V30 14277 N 1364.29 -0.50888 1.49158 0
M  V30 14278 C 1365.2 -1.63782 1.67966 0
M  V30 14279 C 1366.21 -1.64667 0.562207 0
M  V30 14280 O 1367.39 -1.83232 0.835935 0
M  V30 14281 C 1364.45 -3.00179 1.73474 0
M  V30 14282 C 1363.51 -3.09983 2.97 0
M  V30 14283 C 1362.75 -4.39875 3.02235 0
M  V30 14284 O 1362.97 -5.28214 2.15282 0
M  V30 14285 O 1361.9 -4.54486 3.94621 0
M  V30 14286 H 1365.73 -1.50846 2.63589 0
M  V30 14287 H 1363.32 -0.684306 1.32807 0
M  V30 14288 H 1365.2 -3.8126 1.79495 0
M  V30 14289 H 1363.87 -3.13394 0.810287 0
M  V30 14290 H 1362.78 -2.28119 2.965 0
M  V30 14291 H 1364.11 -3.01693 3.88899 0
M  V30 14292 N 1365.76 -1.381 -0.759346 0
M  V30 14293 C 1367.01 -1.33727 -1.5153 0
M  V30 14294 C 1367.33 0.0739504 -1.9486 0
M  V30 14295 O 1366.6 1.02049 -1.67221 0
M  V30 14296 H 1365.18 -0.492037 -0.562058 0
M  V30 14297 H 1367.85 -1.72719 -0.902995 0
M  V30 14298 H 1366.94 -1.98439 -2.40891 0
M  V30 14299 N 1367.24 0.986894 -1.22875 0
M  V30 14300 C 1368.65 1.54182 -1.05284 0
M  V30 14301 C 1369 1.92448 0.381856 0
M  V30 14302 O 1368.13 1.75381 1.26769 0
M  V30 14303 C 1368.72 2.80173 -1.90496 0
M  V30 14304 C 1367.28 3.32088 -1.77185 0
M  V30 14305 C 1366.43 2.05128 -1.86596 0
M  V30 14306 H 1369.38 0.807304 -1.36632 0
M  V30 14307 H 1369.4 3.52772 -1.42591 0
M  V30 14308 H 1368.91 2.52291 -2.94908 0
M  V30 14309 H 1367.02 3.64864 -0.755295 0
M  V30 14310 H 1367.13 4.02285 -2.60199 0
M  V30 14311 H 1365.49 2.18964 -1.30103 0
M  V30 14312 H 1366.28 1.79635 -2.92551 0
M  V30 14313 N 1368.72 1.0394 1.18466 0
M  V30 14314 C 1369.96 0.750905 1.90107 0
M  V30 14315 C 1370.32 -0.708278 1.78458 0
M  V30 14316 O 1371.53 -1.11033 2.44796 0
M  V30 14317 C 1369.8 1.20259 3.3656 0
M  V30 14318 S 1371.36 1.03954 4.26308 0
M  V30 14319 H 1368.17 0.273061 0.656475 0
M  V30 14320 H 1370.78 1.33143 1.43154 0
M  V30 14321 H 1369.48 2.26 3.42567 0
M  V30 14322 H 1369.01 0.615804 3.8855 0
M  V30 14323 H 1371.03 -0.0437629 4.96181 0
M  V30 14324 N 1370.2 -1.34667 0.818693 0
M  V30 14325 C 1371.61 -1.80839 0.46414 0
M  V30 14326 C 1371.96 -1.67902 -1.01506 0
M  V30 14327 O 1371.09 -1.21658 -1.78964 0
M  V30 14328 C 1371.68 -3.28331 0.835698 0
M  V30 14329 C 1370.24 -3.72599 0.533575 0
M  V30 14330 C 1369.39 -2.56452 1.05487 0
M  V30 14331 H 1372.34 -1.22474 1.00925 0
M  V30 14332 H 1372.36 -3.8025 0.13785 0
M  V30 14333 H 1371.87 -3.37715 1.91233 0
M  V30 14334 H 1369.97 -3.68756 -0.533819 0
M  V30 14335 H 1370.08 -4.66891 1.07468 0
M  V30 14336 H 1368.45 -2.50201 0.476612 0
M  V30 14337 H 1369.23 -2.68608 2.13786 0
M  V30 14338 N 1371.68 -0.573274 -1.46804 0
M  V30 14339 C 1372.64 0.155066 -2.28675 0
M  V30 14340 C 1373.64 0.827706 -1.37861 0
M  V30 14341 O 1374.83 0.681105 -1.60333 0
M  V30 14342 C 1371.96 1.22864 -3.1799 0
M  V30 14343 H 1373.15 -0.564305 -2.94543 0
M  V30 14344 H 1370.71 -0.330855 -1.52758 0
M  V30 14345 H 1371.44 1.97989 -2.56848 0
M  V30 14346 H 1371.23 0.750936 -3.84842 0
M  V30 14347 H 1372.72 1.73974 -3.79635 0
M  V30 14348 N 1373.15 1.5451 -0.310553 0
M  V30 14349 C 1374.38 2.05204 0.301013 0
M  V30 14350 C 1374.8 1.1859 1.46007 0
M  V30 14351 O 1374.16 0.192081 1.8028 0
M  V30 14352 C 1374.21 3.53221 0.725767 0
M  V30 14353 O 1373.31 3.69596 1.82955 0
M  V30 14354 H 1372.66 0.661566 0.0568026 0
M  V30 14355 H 1375.19 1.99473 -0.455178 0
M  V30 14356 H 1375.2 3.9525 1.01198 0
M  V30 14357 H 1373.87 4.15721 -0.122046 0
M  V30 14358 H 1372.45 3.39472 1.54315 0
M  V30 14359 N 1374.63 0.0384594 1.57553 0
M  V30 14360 C 1375.86 -0.648077 1.96488 0
M  V30 14361 C 1376.28 -1.65123 0.915414 0
M  V30 14362 O 1375.63 -1.82216 -0.101779 0
M  V30 14363 C 1375.68 -1.34623 3.35498 0
M  V30 14364 O 1375.41 -0.383261 4.3642 0
M  V30 14365 C 1376.91 -2.12372 3.89119 0
M  V30 14366 H 1374.13 -0.178068 0.646941 0
M  V30 14367 H 1376.67 0.100993 2.0425 0
M  V30 14368 H 1374.83 -2.04663 3.28926 0
M  V30 14369 H 1375.24 -0.880095 5.17063 0
M  V30 14370 H 1376.71 -2.5666 4.88702 0
M  V30 14371 H 1377.19 -2.96664 3.23863 0
M  V30 14372 H 1377.8 -1.4727 3.98988 0
M  V30 14373 N 1376.11 -1.55841 -0.234795 0
M  V30 14374 C 1377.34 -1.82649 -0.982547 0
M  V30 14375 C 1377.76 -0.617097 -1.77689 0
M  V30 14376 O 1377.12 0.434022 -1.76028 0
M  V30 14377 C 1377.17 -3.07319 -1.88646 0
M  V30 14378 O 1376.27 -2.85084 -2.97995 0
M  V30 14379 H 1375.61 -0.60257 -0.278936 0
M  V30 14380 H 1378.14 -2.03041 -0.252117 0
M  V30 14381 H 1378.15 -3.37073 -2.29882 0
M  V30 14382 H 1376.83 -3.94978 -1.30251 0
M  V30 14383 H 1375.4 -2.66528 -2.60801 0
M  V30 14384 N 1377.59 0.500963 -1.49426 0
M  V30 14385 C 1378.84 1.25261 -1.58601 0
M  V30 14386 C 1379.16 1.93056 -0.274647 0
M  V30 14387 O 1378.43 1.82736 0.706003 0
M  V30 14388 H 1377.01 0.465328 -0.584362 0
M  V30 14389 H 1379.67 0.580588 -1.86052 0
M  V30 14390 H 1378.77 2.01652 -2.38208 0
M  V30 14391 N 1379.07 1.38501 0.752011 0
M  V30 14392 C 1380 1.38577 1.87933 0
M  V30 14393 C 1380.98 0.251454 1.68231 0
M  V30 14394 O 1382.16 0.45477 1.888 0
M  V30 14395 C 1379.29 1.21164 3.25479 0
M  V30 14396 C 1378.25 2.31816 3.59785 0
M  V30 14397 C 1377.57 1.99508 4.96085 0
M  V30 14398 C 1378.87 3.74082 3.645 0
M  V30 14399 H 1380.57 2.32913 1.88127 0
M  V30 14400 H 1378.11 1.12113 0.903698 0
M  V30 14401 H 1380.07 1.19842 4.04 0
M  V30 14402 H 1378.79 0.232899 3.25769 0
M  V30 14403 H 1377.45 2.32327 2.83584 0
M  V30 14404 H 1377.1 1.00114 4.92936 0
M  V30 14405 H 1376.8 2.73617 5.20007 0
M  V30 14406 H 1378.32 1.99807 5.76983 0
M  V30 14407 H 1379.74 3.75593 4.33131 0
M  V30 14408 H 1378.13 4.47409 3.99931 0
M  V30 14409 H 1379.2 4.06284 2.64692 0
M  V30 14410 N 1380.55 -0.980364 1.23396 0
M  V30 14411 C 1381.48 -2.0908 1.0396 0
M  V30 14412 C 1382.46 -1.70044 -0.0434946 0
M  V30 14413 O 1383.64 -1.93822 0.121155 0
M  V30 14414 C 1380.77 -3.41537 0.630061 0
M  V30 14415 C 1379.73 -3.94476 1.66051 0
M  V30 14416 C 1379.05 -5.23128 1.10641 0
M  V30 14417 C 1380.35 -4.23741 3.05354 0
M  V30 14418 H 1382.05 -2.25598 1.9684 0
M  V30 14419 H 1379.59 -1.08409 0.94781 0
M  V30 14420 H 1381.54 -4.18644 0.481145 0
M  V30 14421 H 1380.27 -3.24883 -0.334416 0
M  V30 14422 H 1378.93 -3.19513 1.79742 0
M  V30 14423 H 1378.58 -5.02824 0.132913 0
M  V30 14424 H 1378.28 -5.59515 1.79492 0
M  V30 14425 H 1379.8 -6.02857 0.969344 0
M  V30 14426 H 1381.21 -4.91598 2.94964 0
M  V30 14427 H 1379.61 -4.71329 3.71442 0
M  V30 14428 H 1380.68 -3.31012 3.54343 0
M  V30 14429 N 1382.02 -1.04567 -1.17913 0
M  V30 14430 C 1382.96 -0.599154 -2.2123 0
M  V30 14431 C 1383.97 0.333824 -1.59341 0
M  V30 14432 O 1385.16 0.127548 -1.78044 0
M  V30 14433 C 1382.26 0.144045 -3.38594 0
M  V30 14434 C 1381.43 -0.798061 -4.30058 0
M  V30 14435 C 1380.49 -0.0972548 -5.2611 0
M  V30 14436 O 1379.52 -0.729318 -5.64508 0
M  V30 14437 N 1380.72 1.16759 -5.68637 0
M  V30 14438 H 1383.48 -1.48781 -2.60162 0
M  V30 14439 H 1381.04 -0.926787 -1.32749 0
M  V30 14440 H 1383.04 0.622843 -3.99878 0
M  V30 14441 H 1381.61 0.934292 -2.98311 0
M  V30 14442 H 1380.83 -1.45662 -3.66301 0
M  V30 14443 H 1382.11 -1.43777 -4.88063 0
M  V30 14444 H 1381.51 1.70155 -5.39503 0
M  V30 14445 H 1380.07 1.59057 -6.32095 0
M  V30 14446 N 1383.5 1.34231 -0.825823 0
M  V30 14447 C 1384.91 1.8059 -0.473724 0
M  V30 14448 C 1385.26 1.68438 1.00614 0
M  V30 14449 O 1384.39 1.22606 1.78317 0
M  V30 14450 C 1384.98 3.27884 -0.853099 0
M  V30 14451 C 1383.54 3.72311 -0.553327 0
M  V30 14452 C 1382.69 2.55889 -1.06845 0
M  V30 14453 H 1385.64 1.21937 -1.01573 0
M  V30 14454 H 1385.66 3.80172 -0.158014 0
M  V30 14455 H 1385.17 3.36696 -1.93021 0
M  V30 14456 H 1383.27 3.69034 0.514256 0
M  V30 14457 H 1383.39 4.66315 -1.09942 0
M  V30 14458 H 1381.75 2.49945 -0.489874 0
M  V30 14459 H 1382.53 2.67471 -2.15207 0
M  V30 14460 N 1384.98 0.581051 1.46498 0
M  V30 14461 C 1385.91 -0.140957 2.33074 0
M  V30 14462 C 1386.89 -0.885323 1.45245 0
M  V30 14463 O 1388.08 -0.86111 1.74065 0
M  V30 14464 C 1385.21 -1.15625 3.27488 0
M  V30 14465 C 1384.16 -0.526829 4.24745 0
M  V30 14466 C 1383.49 -1.64847 5.08655 0
M  V30 14467 C 1384.79 0.53492 5.19554 0
M  V30 14468 H 1386.48 0.581888 2.93691 0
M  V30 14469 H 1384.03 0.281278 1.41226 0
M  V30 14470 H 1385.98 -1.6697 3.8691 0
M  V30 14471 H 1384.7 -1.90935 2.64974 0
M  V30 14472 H 1383.36 -0.0344738 3.66584 0
M  V30 14473 H 1383.01 -2.3912 4.42528 0
M  V30 14474 H 1382.71 -1.23298 5.74518 0
M  V30 14475 H 1384.23 -2.16472 5.7094 0
M  V30 14476 H 1385.65 0.106606 5.73201 0
M  V30 14477 H 1384.04 0.870639 5.93751 0
M  V30 14478 H 1385.11 1.42184 4.63586 0
M  V30 14479 N 1386.46 -1.54343 0.318742 0
M  V30 14480 C 1387.7 -2.0239 -0.285929 0
M  V30 14481 C 1388.06 -1.20197 -1.49722 0
M  V30 14482 O 1389.26 -1.58025 -2.17443 0
M  V30 14483 C 1387.53 -3.52044 -0.616446 0
M  V30 14484 S 1389.09 -4.22031 -1.20146 0
M  V30 14485 H 1385.91 -0.705685 -0.0867722 0
M  V30 14486 H 1388.51 -1.90233 0.450744 0
M  V30 14487 H 1387.22 -4.09489 0.273339 0
M  V30 14488 H 1386.75 -3.68272 -1.38344 0
M  V30 14489 H 1388.76 -4.29287 -2.48851 0
M  V30 14490 N 1387.94 -0.0468143 -1.5753 0
M  V30 14491 C 1389.18 0.628869 -1.92803 0
M  V30 14492 C 1389.51 1.70751 -0.925083 0
M  V30 14493 O 1388.79 1.94437 0.0495821 0
M  V30 14494 C 1389.07 1.22899 -3.38479 0
M  V30 14495 C 1388.93 0.158707 -4.4952 0
M  V30 14496 C 1390.24 2.1419 -3.84461 0
M  V30 14497 H 1387.36 0.227137 -0.701126 0
M  V30 14498 H 1390.01 -0.107689 -1.89695 0
M  V30 14499 H 1388.16 1.85674 -3.41259 0
M  V30 14500 H 1389.83 -0.472963 -4.58869 0
M  V30 14501 H 1388.07 -0.51375 -4.30747 0
M  V30 14502 H 1388.74 0.618545 -5.48523 0
M  V30 14503 H 1391.22 1.61382 -3.8353 0
M  V30 14504 H 1390.09 2.53125 -4.87051 0
M  V30 14505 H 1390.35 3.04024 -3.2097 0
M  V30 14506 N 1389.41 1.55964 0.226527 0
M  V30 14507 C 1390.69 1.69528 0.975689 0
M  V30 14508 C 1391.07 0.592635 2.02611 0
M  V30 14509 O 1390.42 -0.401073 2.24953 0
M  V30 14510 C 1390.63 3.10644 1.59063 0
M  V30 14511 C 1391.98 3.69895 2.08478 0
M  V30 14512 O 1393 3.13574 1.68966 0
M  V30 14513 O 1391.86 4.68672 2.81085 0
M  V30 14514 H 1388.95 0.690285 0.455451 0
M  V30 14515 H 1391.5 1.68285 0.218702 0
M  V30 14516 H 1390.27 3.82355 0.831903 0
M  V30 14517 H 1389.9 3.15984 2.41329 0
M  V30 14518 N 1390.89 -0.493031 1.4969 0
M  V30 14519 C 1392.12 -1.27046 1.633 0
M  V30 14520 C 1392.54 -1.86278 0.307534 0
M  V30 14521 O 1391.89 -1.68208 -0.707968 0
M  V30 14522 C 1391.94 -2.39501 2.70779 0
M  V30 14523 O 1391.66 -1.82702 3.98185 0
M  V30 14524 C 1393.17 -3.30744 2.95166 0
M  V30 14525 H 1390.39 -0.385042 0.54953 0
M  V30 14526 H 1392.93 -0.590998 1.95774 0
M  V30 14527 H 1391.08 -3.03263 2.41061 0
M  V30 14528 H 1391.5 -2.56588 4.57452 0
M  V30 14529 H 1392.97 -4.05912 3.74085 0
M  V30 14530 H 1393.45 -3.88217 2.05387 0
M  V30 14531 H 1394.06 -2.72741 3.26332 0
M  V30 14532 N 1392.37 -1.38898 -0.744656 0
M  V30 14533 C 1393.62 -1.35327 -1.50104 0
M  V30 14534 C 1393.94 0.0532788 -1.94927 0
M  V30 14535 O 1393.21 1.0027 -1.68294 0
M  V30 14536 H 1391.79 -0.49797 -0.556808 0
M  V30 14537 H 1394.45 -1.73667 -0.884625 0
M  V30 14538 H 1393.55 -2.00983 -2.38773 0
M  V30 14539 N 1393.85 0.973806 -1.23914 0
M  V30 14540 C 1394.81 2.04892 -1.02723 0
M  V30 14541 C 1395.81 1.60795 0.0132972 0
M  V30 14542 O 1397 1.72714 -0.227084 0
M  V30 14543 C 1394.13 3.36341 -0.555667 0
M  V30 14544 H 1395.33 2.25124 -1.98139 0
M  V30 14545 H 1392.88 1.14817 -1.06051 0
M  V30 14546 H 1393.61 3.21799 0.40197 0
M  V30 14547 H 1393.4 3.69689 -1.30661 0
M  V30 14548 H 1394.89 4.15398 -0.428248 0
M  V30 14549 N 1395.33 1.05191 1.17357 0
M  V30 14550 C 1396.55 0.782343 1.92079 0
M  V30 14551 C 1396.98 -0.655957 1.76292 0
M  V30 14552 O 1396.33 -1.45573 1.08065 0
M  V30 14553 C 1396.38 1.16777 3.41168 0
M  V30 14554 O 1395.49 0.299908 4.11308 0
M  V30 14555 H 1394.83 0.286894 0.598822 0
M  V30 14556 H 1397.36 1.40476 1.48754 0
M  V30 14557 H 1397.37 1.13454 3.91909 0
M  V30 14558 H 1396.04 2.2155 3.51978 0
M  V30 14559 H 1394.62 0.393744 3.70815 0
M  V30 14560 N 1396.8 -1.33791 0.83293 0
M  V30 14561 C 1398.03 -2.0272 0.438111 0
M  V30 14562 C 1398.45 -1.62279 -0.951163 0
M  V30 14563 O 1397.81 -0.812406 -1.62079 0
M  V30 14564 C 1397.86 -3.5623 0.559698 0
M  V30 14565 O 1396.96 -4.10292 -0.41646 0
M  V30 14566 H 1396.31 -0.639438 0.178928 0
M  V30 14567 H 1398.84 -1.70821 1.12612 0
M  V30 14568 H 1398.85 -4.0563 0.439148 0
M  V30 14569 H 1397.52 -3.8501 1.5729 0
M  V30 14570 H 1396.1 -3.72034 -0.25396 0
M  V30 14571 N 1398.28 -0.588812 -1.46187 0
M  V30 14572 C 1399.51 -0.0824104 -2.06436 0
M  V30 14573 C 1399.92 1.23054 -1.43716 0
M  V30 14574 O 1399.26 1.7562 -0.538825 0
M  V30 14575 C 1399.33 0.151307 -3.59181 0
M  V30 14576 C 1398.99 -1.07697 -4.44129 0
M  V30 14577 C 1399.99 -1.99053 -4.80285 0
M  V30 14578 C 1397.67 -1.30053 -4.85172 0
M  V30 14579 C 1399.67 -3.11108 -5.56319 0
M  V30 14580 C 1397.35 -2.42412 -5.60963 0
M  V30 14581 C 1398.35 -3.32769 -5.96451 0
M  V30 14582 O 1398.04 -4.43175 -6.70709 0
M  V30 14583 H 1397.77 -0.0573231 -0.673565 0
M  V30 14584 H 1400.32 -0.811012 -1.88711 0
M  V30 14585 H 1398.55 0.934591 -3.75236 0
M  V30 14586 H 1400.24 0.606973 -4.01336 0
M  V30 14587 H 1401.01 -1.83 -4.4915 0
M  V30 14588 H 1396.89 -0.606295 -4.56996 0
M  V30 14589 H 1400.43 -3.81659 -5.83937 0
M  V30 14590 H 1396.33 -2.58426 -5.91512 0
M  V30 14591 H 1397.1 -4.4162 -6.8914 0
M  V30 14592 N 1399.76 1.54172 -0.326923 0
M  V30 14593 C 1401 2.02539 0.275192 0
M  V30 14594 C 1401.36 1.2099 1.49082 0
M  V30 14595 O 1402.57 1.59176 2.16602 0
M  V30 14596 C 1400.84 3.52366 0.597767 0
M  V30 14597 S 1402.4 4.22663 1.17906 0
M  V30 14598 H 1399.21 0.706135 0.0830286 0
M  V30 14599 H 1401.82 1.89991 -0.460826 0
M  V30 14600 H 1400.52 4.09338 -0.295052 0
M  V30 14601 H 1400.05 3.69001 1.36389 0
M  V30 14602 H 1402.07 4.30601 2.46571 0
M  V30 14603 N 1401.24 0.0551678 1.57503 0
M  V30 14604 C 1402.17 -0.915714 2.14795 0
M  V30 14605 C 1403.15 -1.32179 1.07065 0
M  V30 14606 O 1404.33 -1.39579 1.35023 0
M  V30 14607 C 1401.46 -2.18916 2.69616 0
M  V30 14608 C 1400.42 -1.92303 3.82366 0
M  V30 14609 C 1399.74 -3.26136 4.23721 0
M  V30 14610 C 1401.04 -1.24146 5.07331 0
M  V30 14611 H 1402.74 -0.438499 2.96171 0
M  V30 14612 H 1400.28 -0.209477 1.42468 0
M  V30 14613 H 1402.24 -2.87239 3.08337 0
M  V30 14614 H 1400.96 -2.6885 1.85437 0
M  V30 14615 H 1399.62 -1.26391 3.44123 0
M  V30 14616 H 1399.27 -3.73879 3.36487 0
M  V30 14617 H 1398.97 -3.09126 4.99715 0
M  V30 14618 H 1400.49 -3.95684 4.65045 0
M  V30 14619 H 1401.91 -1.8251 5.43473 0
M  V30 14620 H 1400.3 -1.17449 5.88494 0
M  V30 14621 H 1401.37 -0.218073 4.84409 0
M  V30 14622 N 1402.72 -1.56081 -0.218252 0
M  V30 14623 C 1403.65 -1.89176 -1.29403 0
M  V30 14624 C 1404.66 -0.780312 -1.42881 0
M  V30 14625 O 1405.85 -1.05863 -1.4372 0
M  V30 14626 C 1402.95 -2.08818 -2.66923 0
M  V30 14627 C 1402.12 -3.39854 -2.75351 0
M  V30 14628 C 1401.18 -3.48889 -3.93908 0
M  V30 14629 O 1400.21 -4.21894 -3.82091 0
M  V30 14630 N 1401.41 -2.80273 -5.08357 0
M  V30 14631 H 1404.18 -2.82047 -1.01338 0
M  V30 14632 H 1401.74 -1.56667 -0.408278 0
M  V30 14633 H 1403.73 -2.12175 -3.44622 0
M  V30 14634 H 1402.3 -1.22557 -2.87574 0
M  V30 14635 H 1401.52 -3.48568 -1.84104 0
M  V30 14636 H 1402.81 -4.26168 -2.77954 0
M  V30 14637 H 1402.2 -2.20744 -5.20854 0
M  V30 14638 H 1400.76 -2.89286 -5.84086 0
M  V30 14639 N 1404.2 0.485086 -1.49949 0
M  V30 14640 C 1405.61 1.06629 -1.53255 0
M  V30 14641 C 1405.96 1.9344 -0.327915 0
M  V30 14642 O 1405.08 2.09011 0.560669 0
M  V30 14643 C 1405.68 1.94053 -2.77721 0
M  V30 14644 C 1404.24 2.47307 -2.83754 0
M  V30 14645 C 1403.38 1.25307 -2.47373 0
M  V30 14646 H 1406.33 0.268297 -1.56416 0
M  V30 14647 H 1406.36 2.78946 -2.58784 0
M  V30 14648 H 1405.87 1.30843 -3.65379 0
M  V30 14649 H 1403.97 3.1411 -2.00414 0
M  V30 14650 H 1404.08 2.83371 -3.86313 0
M  V30 14651 H 1402.45 1.5834 -1.99501 0
M  V30 14652 H 1403.23 0.637815 -3.37323 0
M  V30 14653 N 1405.67 1.39291 0.737279 0
M  V30 14654 C 1407.08 1.32489 1.31543 0
M  V30 14655 C 1407.44 -0.0118162 1.96196 0
M  V30 14656 O 1406.56 -0.913938 1.96153 0
M  V30 14657 C 1407.16 2.39946 2.39189 0
M  V30 14658 C 1405.71 2.36671 2.92684 0
M  V30 14659 C 1404.86 2.21953 1.66229 0
M  V30 14660 H 1407.81 1.49412 0.534954 0
M  V30 14661 H 1407.83 2.06603 3.19524 0
M  V30 14662 H 1407.35 3.3722 1.92104 0
M  V30 14663 H 1405.45 1.43028 3.44055 0
M  V30 14664 H 1405.56 3.31441 3.45953 0
M  V30 14665 H 1403.92 1.69087 1.90478 0
M  V30 14666 H 1404.71 3.21194 1.21199 0
M  V30 14667 N 1407.15 -0.967221 1.24429 0
M  V30 14668 C 1408.11 -2.04344 1.03808 0
M  V30 14669 C 1409.11 -1.60799 -0.00476972 0
M  V30 14670 O 1410.3 -1.72591 0.236241 0
M  V30 14671 C 1407.44 -3.36041 0.573496 0
M  V30 14672 H 1408.63 -2.2407 1.9933 0
M  V30 14673 H 1406.18 -1.14253 1.06658 0
M  V30 14674 H 1406.92 -3.22008 -0.384898 0
M  V30 14675 H 1406.7 -3.68991 1.32619 0
M  V30 14676 H 1408.19 -4.15165 0.450272 0
M  V30 14677 N 1408.63 -1.05812 -1.16797 0
M  V30 14678 C 1409.88 -0.770398 -1.8684 0
M  V30 14679 C 1410.2 0.704986 -1.8181 0
M  V30 14680 O 1409.47 1.50977 -1.24832 0
M  V30 14681 H 1408.05 -0.281989 -0.691731 0
M  V30 14682 H 1410.71 -1.33859 -1.41661 0
M  V30 14683 H 1409.81 -1.09094 -2.92412 0
M  V30 14684 N 1410.11 1.33347 -0.840014 0
M  V30 14685 C 1411.33 2.02485 -0.448856 0
M  V30 14686 C 1411.76 1.62781 0.942543 0
M  V30 14687 O 1411.12 0.82099 1.61646 0
M  V30 14688 C 1411.16 3.55928 -0.578582 0
M  V30 14689 O 1410.27 4.10507 0.394695 0
M  V30 14690 H 1409.61 0.63848 -0.182317 0
M  V30 14691 H 1412.14 1.70221 -1.13516 0
M  V30 14692 H 1412.15 4.05391 -0.460653 0
M  V30 14693 H 1410.82 3.8417 -1.5933 0
M  V30 14694 H 1409.4 3.72164 0.234227 0
M  V30 14695 N 1411.59 0.596556 1.45873 0
M  V30 14696 C 1412.83 0.0875879 2.02611 0
M  V30 14697 C 1413.16 -1.27438 1.46538 0
M  V30 14698 O 1412.44 -1.83815 0.635779 0
M  V30 14699 C 1412.72 0.0367394 3.60081 0
M  V30 14700 C 1412.58 1.42859 4.26511 0
M  V30 14701 C 1413.89 -0.656795 4.35171 0
M  V30 14702 H 1411.01 0.0333031 0.736247 0
M  V30 14703 H 1413.66 0.766413 1.73857 0
M  V30 14704 H 1411.81 -0.541345 3.8471 0
M  V30 14705 H 1413.48 2.0529 4.13102 0
M  V30 14706 H 1411.72 1.99243 3.85337 0
M  V30 14707 H 1412.39 1.34535 5.35354 0
M  V30 14708 H 1414.87 -0.165553 4.15771 0
M  V30 14709 H 1413.74 -0.661445 5.449 0
M  V30 14710 H 1414 -1.72079 4.07236 0
M  V30 14711 N 1413.06 -1.53996 0.335095 0
M  V30 14712 C 1413.99 -2.2768 -0.518087 0
M  V30 14713 C 1414.97 -1.28915 -1.10972 0
M  V30 14714 O 1416.16 -1.57745 -1.1327 0
M  V30 14715 C 1413.29 -3.04327 -1.67339 0
M  V30 14716 C 1412.24 -4.10525 -1.2105 0
M  V30 14717 C 1411.57 -4.75078 -2.45366 0
M  V30 14718 C 1412.87 -5.21337 -0.317055 0
M  V30 14719 H 1414.56 -2.99244 0.0965669 0
M  V30 14720 H 1412.11 -1.4392 0.0478842 0
M  V30 14721 H 1414.06 -3.54608 -2.27664 0
M  V30 14722 H 1412.79 -2.30399 -2.31481 0
M  V30 14723 H 1411.45 -3.61144 -0.630124 0
M  V30 14724 H 1411.09 -3.97754 -3.07897 0
M  V30 14725 H 1410.79 -5.46822 -2.1508 0
M  V30 14726 H 1412.32 -5.2814 -3.06432 0
M  V30 14727 H 1413.73 -5.67305 -0.826905 0
M  V30 14728 H 1412.13 -6.00006 -0.106458 0
M  V30 14729 H 1413.2 -4.80536 0.649068 0
M  V30 14730 N 1414.54 -0.0635198 -1.57472 0
M  V30 14731 C 1415.77 0.620205 -1.9791 0
M  V30 14732 C 1416.19 1.62851 -0.941335 0
M  V30 14733 O 1415.55 1.81056 0.0940313 0
M  V30 14734 C 1415.6 1.27261 -3.37397 0
M  V30 14735 O 1414.7 2.38841 -3.36197 0
M  V30 14736 H 1414.04 0.16021 -0.644382 0
M  V30 14737 H 1416.57 -0.135582 -2.0415 0
M  V30 14738 H 1416.58 1.6214 -3.74399 0
M  V30 14739 H 1415.26 0.533723 -4.12461 0
M  V30 14740 H 1413.83 2.05817 -3.10956 0
M  V30 14741 N 1416.02 1.56195 0.209972 0
M  V30 14742 C 1417.27 1.7939 0.930796 0
M  V30 14743 C 1417.59 0.634038 1.84404 0
M  V30 14744 O 1416.86 -0.348467 1.92776 0
M  V30 14745 H 1415.44 0.661676 0.346689 0
M  V30 14746 H 1418.1 1.93665 0.219049 0
M  V30 14747 H 1417.2 2.71982 1.53075 0
M  V30 14748 N 1417.5 -0.477127 1.50204 0
M  V30 14749 C 1418.73 -1.25307 1.64638 0
M  V30 14750 C 1419.14 -1.85942 0.327274 0
M  V30 14751 O 1418.5 -1.6895 -0.690088 0
M  V30 14752 C 1418.55 -2.36616 2.73304 0
M  V30 14753 O 1418.27 -1.78469 4.00101 0
M  V30 14754 C 1419.77 -3.27595 2.98658 0
M  V30 14755 H 1416.99 -0.379192 0.553583 0
M  V30 14756 H 1419.53 -0.5702 1.9639 0
M  V30 14757 H 1417.69 -3.00689 2.44264 0
M  V30 14758 H 1418.1 -2.51722 4.60148 0
M  V30 14759 H 1419.58 -4.01921 3.7837 0
M  V30 14760 H 1420.05 -3.86017 2.09493 0
M  V30 14761 H 1420.66 -2.69264 3.29206 0
M  V30 14762 N 1418.98 -1.3968 -0.729882 0
M  V30 14763 C 1420.22 -1.38389 -1.49064 0
M  V30 14764 C 1420.58 0.0186997 -1.92391 0
M  V30 14765 O 1419.87 0.986266 -1.64266 0
M  V30 14766 C 1420.06 -2.29499 -2.7398 0
M  V30 14767 C 1419.89 -3.78478 -2.42868 0
M  V30 14768 C 1418.66 -4.47375 -2.34911 0
M  V30 14769 C 1420.86 -4.70329 -2.08074 0
M  V30 14770 N 1418.84 -5.81662 -1.96324 0
M  V30 14771 C 1420.21 -5.93305 -1.79971 0
M  V30 14772 C 1422.27 -4.58302 -1.94586 0
M  V30 14773 C 1420.97 -7.05596 -1.3974 0
M  V30 14774 C 1423 -5.7052 -1.55758 0
M  V30 14775 C 1422.36 -6.92572 -1.28544 0
M  V30 14776 H 1418.46 -0.56167 -0.544106 0
M  V30 14777 H 1421.04 -1.75273 -0.847782 0
M  V30 14778 H 1419.21 -1.94765 -3.36037 0
M  V30 14779 H 1420.95 -2.19166 -3.40218 0
M  V30 14780 H 1417.7 -4.00878 -2.52178 0
M  V30 14781 H 1418.13 -6.5274 -1.79608 0
M  V30 14782 H 1422.77 -3.6447 -2.14292 0
M  V30 14783 H 1420.49 -7.99323 -1.18776 0
M  V30 14784 H 1424.07 -5.63204 -1.45921 0
M  V30 14785 H 1422.95 -7.77932 -0.989491 0
M  V30 14786 N 1420.45 0.960609 -1.2494 0
M  V30 14787 C 1421.87 1.51915 -1.0853 0
M  V30 14788 C 1422.22 1.93215 0.340949 0
M  V30 14789 O 1421.34 1.78031 1.2302 0
M  V30 14790 C 1421.94 2.76069 -1.96396 0
M  V30 14791 C 1420.5 3.28255 -1.84189 0
M  V30 14792 C 1419.64 2.01124 -1.90905 0
M  V30 14793 H 1422.59 0.778141 -1.38314 0
M  V30 14794 H 1422.61 3.49668 -1.50042 0
M  V30 14795 H 1422.13 2.45979 -3.00193 0
M  V30 14796 H 1420.23 3.6318 -0.832518 0
M  V30 14797 H 1420.34 3.96675 -2.68673 0
M  V30 14798 H 1418.7 2.16155 -1.34718 0
M  V30 14799 H 1419.49 1.73389 -2.96295 0
M  V30 14800 N 1421.93 1.0643 1.16234 0
M  V30 14801 C 1422.88 0.646274 2.18649 0
M  V30 14802 C 1423.87 -0.323768 1.57609 0
M  V30 14803 O 1425.06 -0.138991 1.76453 0
M  V30 14804 C 1422.19 0.0356797 3.43281 0
M  V30 14805 C 1421.27 1.0303 4.11395 0
M  V30 14806 N 1421.66 2.2064 4.55139 0
M  V30 14807 C 1419.96 0.861544 4.376 0
M  V30 14808 C 1420.66 2.83665 5.07848 0
M  V30 14809 N 1419.64 2.11384 5.00817 0
M  V30 14810 H 1423.44 1.54217 2.50189 0
M  V30 14811 H 1420.96 0.936176 1.32701 0
M  V30 14812 H 1422.95 -0.281637 4.15948 0
M  V30 14813 H 1421.61 -0.855453 3.13228 0
M  V30 14814 H 1422.62 2.58409 4.48826 0
M  V30 14815 H 1419.3 0.0225171 4.17494 0
M  V30 14816 H 1420.69 3.83473 5.51723 0
M  V30 14817 N 1423.41 -1.329 0.847073 0
M  V30 14818 C 1424.82 -1.79813 0.502394 0
M  V30 14819 C 1425.17 -1.70017 -0.979218 0
M  V30 14820 O 1424.3 -1.25427 -1.76344 0
M  V30 14821 C 1424.89 -3.26485 0.905154 0
M  V30 14822 C 1423.45 -3.71383 0.612489 0
M  V30 14823 C 1422.6 -2.54157 1.10903 0
M  V30 14824 H 1425.55 -1.20306 1.035 0
M  V30 14825 H 1425.57 -3.79872 0.218476 0
M  V30 14826 H 1425.08 -3.33583 1.98353 0
M  V30 14827 H 1423.18 -3.69806 -0.45548 0
M  V30 14828 H 1423.3 -4.64507 1.17347 0
M  V30 14829 H 1421.66 -2.49134 0.529576 0
M  V30 14830 H 1422.44 -2.64013 2.19435 0
M  V30 14831 N 1424.89 -0.604284 -1.45555 0
M  V30 14832 C 1426.3 -0.267665 -1.57339 0
M  V30 14833 C 1426.5 1.22984 -1.59616 0
M  V30 14834 O 1425.56 2.0127 -1.52468 0
M  V30 14835 C 1426.87 -0.935923 -2.85764 0
M  V30 14836 C 1428.42 -0.911531 -2.99433 0
M  V30 14837 C 1428.9 -1.55974 -4.30623 0
M  V30 14838 N 1430.39 -1.52507 -4.37374 0
M  V30 14839 C 1431.12 -1.9958 -5.37546 0
M  V30 14840 N 1430.62 -2.54724 -6.44273 0
M  V30 14841 N 1432.41 -1.90368 -5.28882 0
M  V30 14842 H 1424.56 -1.57666 -1.42321 0
M  V30 14843 H 1426.83 -0.66028 -0.680245 0
M  V30 14844 H 1426.53 -1.99022 -2.89971 0
M  V30 14845 H 1426.41 -0.457194 -3.74419 0
M  V30 14846 H 1428.79 0.134206 -2.94795 0
M  V30 14847 H 1428.87 -1.42849 -2.12197 0
M  V30 14848 H 1428.52 -2.60479 -4.3602 0
M  V30 14849 H 1428.45 -1.01782 -5.1667 0
M  V30 14850 H 1430.94 -1.12221 -3.60853 0
M  V30 14851 H 1431.25 -2.88445 -7.16951 0
M  V30 14852 H 1429.6 -2.58761 -6.45033 0
M  V30 14853 H 1432.79 -1.47029 -4.4441 0
M  V30 14854 H 1432.96 -2.27367 -6.06802 0
M  V30 14855 N 1426.37 1.53816 -0.343257 0
M  V30 14856 C 1427.78 1.86169 0.140709 0
M  V30 14857 C 1428.13 1.26449 1.50017 0
M  V30 14858 O 1427.25 0.577955 2.08539 0
M  V30 14859 C 1427.85 3.37785 0.262097 0
M  V30 14860 C 1426.41 3.70016 0.690294 0
M  V30 14861 C 1425.55 2.7674 -0.17614 0
M  V30 14862 H 1428.51 1.48383 -0.562863 0
M  V30 14863 H 1428.53 3.64564 1.08964 0
M  V30 14864 H 1428.04 3.81221 -0.727481 0
M  V30 14865 H 1426.14 3.32124 1.68891 0
M  V30 14866 H 1426.25 4.76686 0.480388 0
M  V30 14867 H 1424.62 2.52263 0.351476 0
M  V30 14868 H 1425.4 3.23006 -1.16285 0
M  V30 14869 N 1427.84 0.0718701 1.57436 0
M  V30 14870 C 1429.09 -0.596052 1.9311 0
M  V30 14871 C 1429.41 -1.70146 0.952652 0
M  V30 14872 O 1428.68 -1.959 0.000812941 0
M  V30 14873 H 1427.26 -0.223165 0.712886 0
M  V30 14874 H 1429.93 0.129744 1.94468 0
M  V30 14875 H 1429.02 -1.02132 2.94916 0
M  V30 14876 N 1429.32 -1.56304 -0.201686 0
M  V30 14877 C 1430.73 -1.7022 -0.766953 0
M  V30 14878 C 1431.08 -0.677318 -1.84138 0
M  V30 14879 O 1430.21 0.167604 -2.1575 0
M  V30 14880 C 1430.8 -3.08615 -1.39795 0
M  V30 14881 C 1429.36 -3.24317 -1.91037 0
M  V30 14882 C 1428.51 -2.66167 -0.777853 0
M  V30 14883 H 1431.46 -1.58683 0.0232884 0
M  V30 14884 H 1431.48 -3.05578 -2.26721 0
M  V30 14885 H 1430.99 -3.83185 -0.615728 0
M  V30 14886 H 1429.1 -2.54652 -2.71999 0
M  V30 14887 H 1429.21 -4.31753 -2.07669 0
M  V30 14888 H 1427.57 -2.25169 -1.19042 0
M  V30 14889 H 1428.36 -3.43299 -0.00798179 0
M  V30 14890 N 1430.8 0.469154 -1.50455 0
M  V30 14891 C 1432.21 1.04997 -1.54378 0
M  V30 14892 C 1432.56 1.93082 -0.348414 0
M  V30 14893 O 1431.69 2.09594 0.538469 0
M  V30 14894 C 1432.28 1.91096 -2.79764 0
M  V30 14895 C 1430.84 2.44283 -2.86361 0
M  V30 14896 C 1429.99 1.22676 -2.48688 0
M  V30 14897 H 1432.94 0.251692 -1.56691 0
M  V30 14898 H 1432.96 2.76186 -2.61728 0
M  V30 14899 H 1432.47 1.26961 -3.66746 0
M  V30 14900 H 1430.57 3.11966 -2.03735 0
M  V30 14901 H 1430.69 2.79258 -3.89297 0
M  V30 14902 H 1429.05 1.56215 -2.01169 0
M  V30 14903 H 1429.83 0.602002 -3.37981 0
M  V30 14904 N 1432.28 1.40065 0.722464 0
M  V30 14905 C 1433.69 1.33876 1.30131 0
M  V30 14906 C 1434.04 0.00899369 1.96198 0
M  V30 14907 O 1433.17 -0.893082 1.97112 0
M  V30 14908 C 1433.76 2.42469 2.36631 0
M  V30 14909 C 1432.32 2.39762 2.90157 0
M  V30 14910 C 1431.47 2.23704 1.63865 0
M  V30 14911 H 1434.42 1.49971 0.519077 0
M  V30 14912 H 1434.44 2.0998 3.17315 0
M  V30 14913 H 1433.95 3.39239 1.88517 0
M  V30 14914 H 1432.05 1.46669 3.42519 0
M  V30 14915 H 1432.16 3.35092 3.42419 0
M  V30 14916 H 1430.53 1.71098 1.88674 0
M  V30 14917 H 1431.31 3.22462 1.17785 0
M  V30 14918 N 1433.76 -0.95397 1.25448 0
M  V30 14919 C 1434.69 -2.06828 1.08372 0
M  V30 14920 C 1435.67 -1.70098 -0.00741585 0
M  V30 14921 O 1436.85 -1.93521 0.16224 0
M  V30 14922 C 1433.98 -3.40124 0.702365 0
M  V30 14923 C 1432.94 -3.90865 1.74381 0
M  V30 14924 C 1432.26 -5.20663 1.21712 0
M  V30 14925 C 1433.56 -4.17169 3.14273 0
M  V30 14926 H 1435.26 -2.21372 2.01581 0
M  V30 14927 H 1432.8 -1.06374 0.970592 0
M  V30 14928 H 1434.76 -4.17529 0.569837 0
M  V30 14929 H 1433.48 -3.2552 -0.265428 0
M  V30 14930 H 1432.14 -3.15628 1.86479 0
M  V30 14931 H 1431.79 -5.02429 0.23954 0
M  V30 14932 H 1431.49 -5.55581 1.91319 0
M  V30 14933 H 1433.01 -6.00665 1.097 0
M  V30 14934 H 1434.43 -4.85231 3.05325 0
M  V30 14935 H 1432.82 -4.63344 3.81356 0
M  V30 14936 H 1433.89 -3.23421 3.61285 0
M  V30 14937 N 1435.24 -1.07045 -1.15668 0
M  V30 14938 C 1436.17 -0.632171 -2.19269 0
M  V30 14939 C 1437.15 0.348973 -1.58811 0
M  V30 14940 O 1438.33 0.256137 -1.86752 0
M  V30 14941 C 1435.46 0.0721491 -3.38623 0
M  V30 14942 C 1434.5 -0.866947 -4.17596 0
M  V30 14943 S 1435.34 -2.36628 -4.80382 0
M  V30 14944 C 1436.49 -1.67367 -6.03108 0
M  V30 14945 H 1436.73 -1.50986 -2.56106 0
M  V30 14946 H 1434.26 -0.884123 -1.2658 0
M  V30 14947 H 1436.22 0.472272 -4.07774 0
M  V30 14948 H 1434.88 0.926138 -3.00136 0
M  V30 14949 H 1434.07 -0.320814 -5.02978 0
M  V30 14950 H 1433.67 -1.20731 -3.53977 0
M  V30 14951 H 1435.96 -0.983606 -6.70322 0
M  V30 14952 H 1436.91 -2.50569 -6.62284 0
M  V30 14953 H 1437.32 -1.15299 -5.526 0
M  V30 14954 N 1436.71 1.32449 -0.85411 0
M  V30 14955 C 1437.68 2.27183 -0.303377 0
M  V30 14956 C 1438.68 1.51582 0.536622 0
M  V30 14957 O 1439.87 1.70684 0.348211 0
M  V30 14958 C 1437 3.36086 0.570852 0
M  V30 14959 H 1438.19 2.77408 -1.1395 0
M  V30 14960 H 1435.74 1.43111 -0.628402 0
M  V30 14961 H 1436.48 2.91128 1.42881 0
M  V30 14962 H 1436.26 3.92088 -0.030399 0
M  V30 14963 H 1437.75 4.06675 0.948972 0
M  V30 14964 N 1438.19 0.611994 1.45232 0
M  V30 14965 C 1439.6 0.193464 1.85695 0
M  V30 14966 C 1439.95 -1.25069 1.5117 0
M  V30 14967 O 1439.08 -1.94894 0.940497 0
M  V30 14968 C 1439.67 0.344334 3.37046 0
M  V30 14969 C 1438.23 -0.0195378 3.76395 0
M  V30 14970 C 1437.38 0.666714 2.69166 0
M  V30 14971 H 1440.33 0.818395 1.35971 0
M  V30 14972 H 1440.35 -0.422209 3.7815 0
M  V30 14973 H 1439.86 1.3955 3.62143 0
M  V30 14974 H 1437.96 -1.06971 3.56915 0
M  V30 14975 H 1438.08 0.377184 4.77613 0
M  V30 14976 H 1436.44 0.103912 2.54488 0
M  V30 14977 H 1437.22 1.7201 2.97099 0
M  V30 14978 N 1439.67 -1.53632 0.351409 0
M  V30 14979 C 1440.92 -2.0203 -0.235687 0
M  V30 14980 C 1441.27 -1.23456 -1.47569 0
M  V30 14981 O 1440.56 -0.315958 -1.88977 0
M  V30 14982 C 1440.76 -3.5242 -0.594561 0
M  V30 14983 C 1440.59 -4.45556 0.60911 0
M  V30 14984 C 1439.36 -4.92803 1.11684 0
M  V30 14985 C 1441.55 -4.92845 1.46999 0
M  V30 14986 N 1439.54 -5.6991 2.28201 0
M  V30 14987 C 1440.91 -5.68153 2.48198 0
M  V30 14988 C 1442.96 -4.7494 1.49452 0
M  V30 14989 C 1441.67 -6.27461 3.51689 0
M  V30 14990 C 1443.69 -5.35104 2.51829 0
M  V30 14991 C 1443.05 -6.10286 3.51753 0
M  V30 14992 H 1439.15 -0.780442 -0.0493383 0
M  V30 14993 H 1441.74 -1.88361 0.492752 0
M  V30 14994 H 1439.91 -3.66278 -1.29209 0
M  V30 14995 H 1441.64 -3.87553 -1.16552 0
M  V30 14996 H 1438.39 -4.68639 0.683686 0
M  V30 14997 H 1438.82 -6.13131 2.87053 0
M  V30 14998 H 1443.46 -4.16352 0.73557 0
M  V30 14999 H 1441.18 -6.85153 4.28475 0
M  V30 15000 H 1444.76 -5.23153 2.54563 0
M  V30 15001 H 1443.64 -6.56012 4.29672 0
M  V30 15002 N 1441.15 -0.0802183 -1.57396 0
M  V30 15003 C 1442.56 0.451183 -1.81166 0
M  V30 15004 C 1442.91 1.69112 -0.994764 0
M  V30 15005 O 1442.03 2.15281 -0.219739 0
M  V30 15006 C 1442.63 0.825324 -3.28594 0
M  V30 15007 C 1441.19 1.30154 -3.53181 0
M  V30 15008 C 1440.34 0.290846 -2.75771 0
M  V30 15009 H 1443.29 -0.305829 -1.55725 0
M  V30 15010 H 1443.31 1.68608 -3.41104 0
M  V30 15011 H 1442.82 -0.0773119 -3.88023 0
M  V30 15012 H 1440.92 2.22239 -2.99066 0
M  V30 15013 H 1441.03 1.27365 -4.6186 0
M  V30 15014 H 1439.4 0.769894 -2.42785 0
M  V30 15015 H 1440.18 -0.604209 -3.37941 0
M  V30 15016 N 1442.63 1.56409 0.193394 0
M  V30 15017 C 1443.87 1.81892 0.910313 0
M  V30 15018 C 1444.23 0.65752 1.80816 0
M  V30 15019 O 1443.52 -0.347215 1.88428 0
M  V30 15020 C 1443.71 3.11039 1.76039 0
M  V30 15021 C 1443.54 4.3963 0.946334 0
M  V30 15022 C 1442.31 5.01356 0.63009 0
M  V30 15023 C 1444.51 5.13435 0.298238 0
M  V30 15024 N 1442.49 6.13566 -0.202417 0
M  V30 15025 C 1443.86 6.18732 -0.396395 0
M  V30 15026 C 1445.92 4.97439 0.214139 0
M  V30 15027 C 1444.62 7.09768 -1.16712 0
M  V30 15028 C 1446.65 5.889 -0.543193 0
M  V30 15029 C 1446.01 6.93644 -1.22627 0
M  V30 15030 H 1442.11 0.71687 0.312445 0
M  V30 15031 H 1444.69 1.93876 0.178914 0
M  V30 15032 H 1442.86 3.00287 2.46338 0
M  V30 15033 H 1444.6 3.24603 2.41692 0
M  V30 15034 H 1441.35 4.63873 0.954919 0
M  V30 15035 H 1441.77 6.74261 -0.608331 0
M  V30 15036 H 1446.42 4.16487 0.727891 0
M  V30 15037 H 1444.13 7.90182 -1.6923 0
M  V30 15038 H 1447.72 5.78597 -0.609642 0
M  V30 15039 H 1446.6 7.63194 -1.8029 0
M  V30 15040 N 1444.1 -0.461169 1.50702 0
M  V30 15041 C 1445.35 -1.21012 1.61866 0
M  V30 15042 C 1445.67 -1.9226 0.325736 0
M  V30 15043 O 1444.94 -1.84543 -0.657306 0
M  V30 15044 H 1443.52 -0.449671 0.596494 0
M  V30 15045 H 1446.18 -0.531056 1.87525 0
M  V30 15046 H 1445.28 -1.95266 2.4347 0
M  V30 15047 N 1445.58 -1.40446 -0.715026 0
M  V30 15048 C 1446.99 -1.34564 -1.29419 0
M  V30 15049 C 1447.34 -0.0193984 -1.9619 0
M  V30 15050 O 1446.47 0.882616 -1.97582 0
M  V30 15051 C 1447.06 -2.43721 -2.35342 0
M  V30 15052 C 1445.62 -2.41297 -2.88881 0
M  V30 15053 C 1444.77 -2.2457 -1.62676 0
M  V30 15054 H 1447.72 -1.50244 -0.511116 0
M  V30 15055 H 1447.74 -2.1166 -3.16197 0
M  V30 15056 H 1447.25 -3.40234 -1.86715 0
M  V30 15057 H 1445.35 -1.48483 -3.41736 0
M  V30 15058 H 1445.47 -3.36903 -3.40637 0
M  V30 15059 H 1443.83 -1.72096 -1.87763 0
M  V30 15060 H 1444.61 -3.23082 -1.16074 0
M  V30 15061 N 1447.06 0.947303 -1.25952 0
M  V30 15062 C 1448.47 1.50755 -1.10136 0
M  V30 15063 C 1448.82 1.93566 0.320437 0
M  V30 15064 O 1447.95 1.79326 1.21125 0
M  V30 15065 C 1448.54 2.7397 -1.99313 0
M  V30 15066 C 1447.1 3.26283 -1.8766 0
M  V30 15067 C 1446.25 1.99088 -1.93027 0
M  V30 15068 H 1449.2 0.763427 -1.39131 0
M  V30 15069 H 1449.22 3.48057 -1.53742 0
M  V30 15070 H 1448.73 2.42781 -3.02785 0
M  V30 15071 H 1446.83 3.62277 -0.870992 0
M  V30 15072 H 1446.95 3.93803 -2.72866 0
M  V30 15073 H 1445.31 2.14714 -1.37003 0
M  V30 15074 H 1446.09 1.70237 -2.98118 0
M  V30 15075 N 1448.54 1.07657 1.15099 0
M  V30 15076 C 1449.5 0.703558 2.18135 0
M  V30 15077 C 1450.5 -0.257771 1.5872 0
M  V30 15078 O 1451.69 -0.0383211 1.74158 0
M  V30 15079 C 1448.82 0.0374978 3.40879 0
M  V30 15080 H 1450.02 1.61583 2.52648 0
M  V30 15081 H 1447.57 0.873484 1.29615 0
M  V30 15082 H 1448.3 -0.886868 3.11938 0
M  V30 15083 H 1448.09 0.728961 3.85264 0
M  V30 15084 H 1449.58 -0.208714 4.17078 0
M  V30 15085 N 1450.02 -1.31994 0.861122 0
M  V30 15086 C 1451.24 -2.01745 0.481013 0
M  V30 15087 C 1451.67 -1.6426 -0.916527 0
M  V30 15088 O 1451.02 -0.846603 -1.60319 0
M  V30 15089 C 1451.07 -3.54963 0.635134 0
M  V30 15090 O 1450.18 -4.11083 -0.329337 0
M  V30 15091 H 1449.52 -0.635499 0.192452 0
M  V30 15092 H 1452.05 -1.68394 1.1621 0
M  V30 15093 H 1452.06 -4.04607 0.525089 0
M  V30 15094 H 1450.73 -3.81587 1.65422 0
M  V30 15095 H 1449.31 -3.72489 -0.174989 0
M  V30 15096 N 1451.49 -0.619688 -1.44906 0
M  V30 15097 C 1452.43 0.130316 -2.28829 0
M  V30 15098 C 1453.44 0.820039 -1.40639 0
M  V30 15099 O 1454.63 0.683401 -1.649 0
M  V30 15100 C 1451.73 1.20618 -3.16709 0
M  V30 15101 C 1450.9 0.60121 -4.33248 0
M  V30 15102 C 1449.96 1.56954 -5.02247 0
M  V30 15103 O 1448.99 1.09112 -5.58644 0
M  V30 15104 N 1450.19 2.90395 -5.02644 0
M  V30 15105 H 1452.95 -0.589867 -2.93838 0
M  V30 15106 H 1450.51 -0.460028 -1.55227 0
M  V30 15107 H 1452.51 1.85404 -3.59732 0
M  V30 15108 H 1451.08 1.82873 -2.53528 0
M  V30 15109 H 1450.3 -0.225015 -3.93557 0
M  V30 15110 H 1451.58 0.177471 -5.0849 0
M  V30 15111 H 1450.98 3.31855 -4.58136 0
M  V30 15112 H 1449.54 3.50572 -5.49493 0
M  V30 15113 N 1452.97 1.53444 -0.359552 0
M  V30 15114 C 1454.2 2.06058 0.235576 0
M  V30 15115 C 1454.62 1.23175 1.42161 0
M  V30 15116 O 1453.98 0.249338 1.79577 0
M  V30 15117 C 1454.03 3.55351 0.613025 0
M  V30 15118 O 1453.13 3.75229 1.71104 0
M  V30 15119 H 1452.47 0.663038 0.0357266 0
M  V30 15120 H 1455 1.97923 -0.518408 0
M  V30 15121 H 1455.01 3.9827 0.885722 0
M  V30 15122 H 1453.69 4.15122 -0.254243 0
M  V30 15123 H 1452.27 3.4421 1.43437 0
M  V30 15124 N 1454.45 0.0885642 1.57351 0
M  V30 15125 C 1455.68 -0.588641 1.98871 0
M  V30 15126 C 1456.1 -1.61333 0.967125 0
M  V30 15127 O 1455.46 -1.81183 -0.0652149 0
M  V30 15128 C 1455.51 -1.21877 3.39379 0
M  V30 15129 O 1454.61 -2.33462 3.39955 0
M  V30 15130 H 1453.95 -0.149938 0.64685 0
M  V30 15131 H 1456.48 0.168043 2.03909 0
M  V30 15132 H 1456.49 -1.56163 3.76931 0
M  V30 15133 H 1455.17 -0.468037 4.13258 0
M  V30 15134 H 1453.74 -2.00844 3.14191 0
M  V30 15135 N 1455.93 -1.56509 -0.185096 0
M  V30 15136 C 1457.34 -1.71024 -0.748856 0
M  V30 15137 C 1457.69 -0.69681 -1.83409 0
M  V30 15138 O 1456.82 0.144711 -2.15916 0
M  V30 15139 C 1457.41 -3.1008 -1.36513 0
M  V30 15140 C 1455.97 -3.26325 -1.87587 0
M  V30 15141 C 1455.12 -2.66977 -0.749579 0
M  V30 15142 H 1458.07 -1.58649 0.0401175 0
M  V30 15143 H 1458.09 -3.07965 -2.23468 0
M  V30 15144 H 1457.6 -3.83816 -0.575051 0
M  V30 15145 H 1455.7 -2.57522 -2.69283 0
M  V30 15146 H 1455.81 -4.33931 -2.03078 0
M  V30 15147 H 1454.18 -2.26419 -1.16647 0
M  V30 15148 H 1454.96 -3.43288 0.0284301 0
M  V30 15149 N 1457.41 0.45317 -1.50944 0
M  V30 15150 C 1458.65 1.20269 -1.64033 0
M  V30 15151 C 1459.01 1.89287 -0.344707 0
M  V30 15152 O 1458.3 1.79927 0.65855 0
M  V30 15153 C 1458.49 2.25747 -2.7708 0
M  V30 15154 C 1458.32 1.67079 -4.1751 0
M  V30 15155 C 1457.09 1.46264 -4.83668 0
M  V30 15156 C 1459.29 1.15577 -5.01145 0
M  V30 15157 N 1457.27 0.830278 -6.08259 0
M  V30 15158 C 1458.64 0.647721 -6.16607 0
M  V30 15159 C 1460.7 1.04601 -4.86788 0
M  V30 15160 C 1459.4 0.0407277 -7.19288 0
M  V30 15161 C 1461.43 0.452936 -5.89663 0
M  V30 15162 C 1460.79 -0.0446434 -7.04386 0
M  V30 15163 H 1456.89 0.428334 -0.654259 0
M  V30 15164 H 1459.47 0.501782 -1.88123 0
M  V30 15165 H 1457.64 2.93244 -2.54681 0
M  V30 15166 H 1459.38 2.92745 -2.79432 0
M  V30 15167 H 1456.13 1.71995 -4.41265 0
M  V30 15168 H 1456.56 0.531994 -6.74907 0
M  V30 15169 H 1461.2 1.41661 -3.98362 0
M  V30 15170 H 1458.92 -0.34203 -8.07376 0
M  V30 15171 H 1462.5 0.370136 -5.80621 0
M  V30 15172 H 1461.38 -0.496363 -7.82628 0
M  V30 15173 N 1458.88 1.40823 0.707568 0
M  V30 15174 C 1460.3 1.35249 1.28704 0
M  V30 15175 C 1460.65 0.0298026 1.96177 0
M  V30 15176 O 1459.77 -0.872126 1.98048 0
M  V30 15177 C 1460.37 2.44965 2.34046 0
M  V30 15178 C 1458.93 2.42826 2.87598 0
M  V30 15179 C 1458.07 2.25429 1.61483 0
M  V30 15180 H 1461.02 1.50513 0.503141 0
M  V30 15181 H 1461.04 2.13334 3.1507 0
M  V30 15182 H 1460.56 3.41219 1.84908 0
M  V30 15183 H 1458.66 1.50294 3.40944 0
M  V30 15184 H 1458.77 3.38704 3.38845 0
M  V30 15185 H 1457.13 1.73089 1.86848 0
M  V30 15186 H 1457.92 3.23693 1.14359 0
M  V30 15187 N 1460.36 -0.94061 1.26453 0
M  V30 15188 C 1461.78 -1.21424 1.03578 0
M  V30 15189 C 1461.98 -2.00081 -0.238726 0
M  V30 15190 O 1461.03 -2.3404 -0.947709 0
M  V30 15191 C 1462.35 -1.97496 2.26751 0
M  V30 15192 C 1463.9 -2.10485 2.31657 0
M  V30 15193 C 1464.37 -2.89959 3.54525 0
M  V30 15194 N 1465.86 -2.97533 3.55005 0
M  V30 15195 C 1466.6 -3.59456 4.46742 0
M  V30 15196 N 1466.09 -4.22876 5.48769 0
M  V30 15197 N 1467.89 -3.56734 4.34393 0
M  V30 15198 H 1460.04 -0.414788 2.08311 0
M  V30 15199 H 1462.3 -0.246047 0.915513 0
M  V30 15200 H 1462.01 -1.47109 3.19456 0
M  V30 15201 H 1461.88 -2.98159 2.31043 0
M  V30 15202 H 1464.27 -2.60064 1.39466 0
M  V30 15203 H 1464.35 -1.09082 2.31376 0
M  V30 15204 H 1463.99 -2.41067 4.47045 0
M  V30 15205 H 1463.92 -3.91619 3.52054 0
M  V30 15206 H 1466.41 -2.52446 2.81211 0
M  V30 15207 H 1466.73 -4.68026 6.14956 0
M  V30 15208 H 1465.07 -4.21461 5.52626 0
M  V30 15209 H 1468.26 -3.06381 3.53904 0
M  V30 15210 H 1468.43 -4.04706 5.0608 0
M  V30 15211 N 1461.84 -1.08266 -1.14527 0
M  V30 15212 C 1462.8 -0.715117 -2.17758 0
M  V30 15213 C 1463.8 0.24935 -1.58855 0
M  V30 15214 O 1464.99 0.0290846 -1.74176 0
M  V30 15215 C 1462.13 -0.055575 -3.40855 0
M  V30 15216 H 1463.32 -1.62921 -2.51787 0
M  V30 15217 H 1460.87 -0.880346 -1.2915 0
M  V30 15218 H 1461.61 0.870312 -3.12404 0
M  V30 15219 H 1461.39 -0.749382 -3.84872 0
M  V30 15220 H 1462.88 0.186592 -4.17183 0
M  V30 15221 N 1463.32 1.31536 -0.86811 0
M  V30 15222 C 1464.55 2.00952 -0.492529 0
M  V30 15223 C 1464.96 1.65174 0.914487 0
M  V30 15224 O 1464.32 0.880002 1.59882 0
M  V30 15225 C 1464.37 3.55829 -0.637798 0
M  V30 15226 O 1464.09 3.90326 -1.9894 0
M  V30 15227 C 1465.59 4.42519 -0.262986 0
M  V30 15228 H 1462.81 0.642913 -0.192105 0
M  V30 15229 H 1465.36 1.6781 -1.16876 0
M  V30 15230 H 1463.51 3.87399 -0.0091406 0
M  V30 15231 H 1463.93 4.85043 -1.99583 0
M  V30 15232 H 1465.4 5.50433 -0.415591 0
M  V30 15233 H 1465.88 4.31895 0.797705 0
M  V30 15234 H 1466.48 4.16363 -0.867268 0
M  V30 15235 N 1464.8 0.627364 1.44575 0
M  V30 15236 C 1465.76 -0.0700881 2.29093 0
M  V30 15237 C 1466.76 -0.775969 1.40838 0
M  V30 15238 O 1467.95 -0.621129 1.6275 0
M  V30 15239 C 1465.08 -1.10977 3.2233 0
M  V30 15240 H 1466.28 0.673234 2.92246 0
M  V30 15241 H 1463.83 0.387322 1.51425 0
M  V30 15242 H 1464.56 -1.8832 2.64019 0
M  V30 15243 H 1464.35 -0.607587 3.87364 0
M  V30 15244 H 1465.84 -1.59764 3.8583 0
M  V30 15245 N 1466.28 -1.53251 0.367684 0
M  V30 15246 C 1467.52 -2.01287 -0.221351 0
M  V30 15247 C 1467.85 -1.25489 -1.48603 0
M  V30 15248 O 1467.11 -0.337392 -1.9277 0
M  V30 15249 C 1467.4 -3.53031 -0.557149 0
M  V30 15250 C 1467.07 -4.46708 0.613444 0
M  V30 15251 C 1465.73 -4.72036 0.934633 0
M  V30 15252 C 1468.08 -5.02112 1.3976 0
M  V30 15253 C 1465.41 -5.50021 2.04191 0
M  V30 15254 C 1467.76 -5.81306 2.49531 0
M  V30 15255 C 1466.43 -6.04921 2.82182 0
M  V30 15256 H 1465.7 -0.73656 -0.080998 0
M  V30 15257 H 1468.35 -1.84842 0.500581 0
M  V30 15258 H 1466.65 -3.67434 -1.36012 0
M  V30 15259 H 1468.35 -3.87674 -1.02519 0
M  V30 15260 H 1464.94 -4.27143 0.353075 0
M  V30 15261 H 1469.12 -4.82488 1.1627 0
M  V30 15262 H 1464.38 -5.66536 2.29884 0
M  V30 15263 H 1468.55 -6.23245 3.10707 0
M  V30 15264 H 1466.18 -6.65134 3.68104 0
M  V30 15265 N 1467.75 -0.0969077 -1.57302 0
M  V30 15266 C 1469 0.561074 -1.95508 0
M  V30 15267 C 1469.35 1.6568 -0.97816 0
M  V30 15268 O 1468.65 1.91599 -0.00445428 0
M  V30 15269 C 1468.84 1.15972 -3.38061 0
M  V30 15270 C 1468.67 0.123524 -4.4953 0
M  V30 15271 C 1467.44 -0.30062 -5.04405 0
M  V30 15272 C 1469.64 -0.649001 -5.10189 0
M  V30 15273 N 1467.62 -1.3249 -5.99433 0
M  V30 15274 C 1468.99 -1.52506 -6.00951 0
M  V30 15275 C 1471.05 -0.70232 -4.92922 0
M  V30 15276 C 1469.75 -2.44976 -6.76298 0
M  V30 15277 C 1471.78 -1.61463 -5.68932 0
M  V30 15278 C 1471.14 -2.47831 -6.59363 0
M  V30 15279 H 1467.24 0.175591 -0.762031 0
M  V30 15280 H 1469.82 -0.179896 -1.93867 0
M  V30 15281 H 1467.99 1.87051 -3.40392 0
M  V30 15282 H 1469.72 1.78022 -3.63442 0
M  V30 15283 H 1466.48 0.0874763 -4.73519 0
M  V30 15284 H 1466.9 -1.8353 -6.51648 0
M  V30 15285 H 1471.54 -0.0487412 -4.22772 0
M  V30 15286 H 1469.26 -3.11358 -7.45709 0
M  V30 15287 H 1472.85 -1.66104 -5.57585 0
M  V30 15288 H 1471.73 -3.17278 -7.1715 0
M  V30 15289 N 1469.23 1.56605 0.176793 0
M  V30 15290 C 1470.46 1.85812 0.910019 0
M  V30 15291 C 1470.87 0.68164 1.76066 0
M  V30 15292 O 1470.23 -0.34936 1.79125 0
M  V30 15293 C 1470.28 3.14001 1.79125 0
M  V30 15294 O 1470 4.27114 0.974931 0
M  V30 15295 C 1471.5 3.56516 2.6346 0
M  V30 15296 H 1468.72 0.616608 0.264643 0
M  V30 15297 H 1471.27 2.03719 0.178537 0
M  V30 15298 H 1469.42 2.97937 2.47613 0
M  V30 15299 H 1469.84 5.00227 1.57711 0
M  V30 15300 H 1471.31 4.49128 3.20918 0
M  V30 15301 H 1471.79 2.80373 3.38065 0
M  V30 15302 H 1472.39 3.75173 2.00313 0
M  V30 15303 N 1470.71 -0.445159 1.51182 0
M  V30 15304 C 1471.93 -1.22249 1.67541 0
M  V30 15305 C 1472.36 -1.84446 0.368972 0
M  V30 15306 O 1471.72 -1.68463 -0.670058 0
M  V30 15307 C 1471.77 -2.288 2.78717 0
M  V30 15308 O 1470.87 -3.34094 2.41775 0
M  V30 15309 H 1470.21 -0.358516 0.558894 0
M  V30 15310 H 1472.74 -0.526696 1.97704 0
M  V30 15311 H 1472.75 -2.73708 3.02569 0
M  V30 15312 H 1471.43 -1.82906 3.73521 0
M  V30 15313 H 1470 -2.94717 2.28466 0
M  V30 15314 N 1472.19 -1.41197 -0.700089 0
M  V30 15315 C 1473.42 -1.43658 -1.48896 0
M  V30 15316 C 1473.83 -0.0405771 -1.88756 0
M  V30 15317 O 1473.19 0.93909 -1.56484 0
M  V30 15318 C 1473.24 -2.34125 -2.75441 0
M  V30 15319 O 1472.96 -3.68291 -2.37261 0
M  V30 15320 C 1474.46 -2.45342 -3.69218 0
M  V30 15321 H 1471.68 -0.48945 -0.458999 0
M  V30 15322 H 1474.22 -1.85429 -0.862345 0
M  V30 15323 H 1472.38 -1.95674 -3.34351 0
M  V30 15324 H 1472.79 -4.16495 -3.18798 0
M  V30 15325 H 1474.27 -3.12818 -4.54807 0
M  V30 15326 H 1474.74 -1.48327 -4.13395 0
M  V30 15327 H 1475.35 -2.84409 -3.16214 0
M  V30 15328 N 1473.67 0.933891 -1.2695 0
M  V30 15329 C 1474.89 1.72042 -1.15828 0
M  V30 15330 C 1475.32 1.85975 0.28193 0
M  V30 15331 O 1474.67 1.35528 1.20423 0
M  V30 15332 C 1474.72 3.10112 -1.84019 0
M  V30 15333 O 1473.83 3.96504 -1.13394 0
M  V30 15334 H 1473.17 0.527573 -0.40319 0
M  V30 15335 H 1475.7 1.16914 -1.67905 0
M  V30 15336 H 1475.71 3.60461 -1.91133 0
M  V30 15337 H 1474.38 2.99287 -2.8879 0
M  V30 15338 H 1472.96 3.54948 -1.14307 0
M  V30 15339 N 1475.14 1.08871 1.13951 0
M  V30 15340 C 1476.42 0.73388 1.81311 0
M  V30 15341 C 1476.8 -0.781824 1.96089 0
M  V30 15342 O 1476.15 -1.70211 1.52448 0
M  V30 15343 C 1476.36 1.46631 3.16702 0
M  V30 15344 C 1477.71 1.62843 3.92132 0
M  V30 15345 O 1478.73 1.42836 3.26307 0
M  V30 15346 O 1477.59 1.95893 5.10185 0
M  V30 15347 H 1474.68 0.262976 0.784074 0
M  V30 15348 H 1477.23 1.19057 1.20927 0
M  V30 15349 H 1476 2.49863 3.01138 0
M  V30 15350 H 1475.62 1.00141 3.84782 0
M  V30 15351 N 1476.62 -1.31073 0.875073 0
M  V30 15352 C 1477.85 -2.01223 0.502383 0
M  V30 15353 C 1478.27 -1.65223 -0.899053 0
M  V30 15354 O 1477.63 -0.863559 -1.59412 0
M  V30 15355 C 1477.68 -3.54269 0.672747 0
M  V30 15356 O 1476.78 -4.11409 -0.285718 0
M  V30 15357 H 1476.12 -0.633422 0.199181 0
M  V30 15358 H 1478.65 -1.67152 1.17989 0
M  V30 15359 H 1478.66 -4.04027 0.567973 0
M  V30 15360 H 1477.34 -3.79811 1.69459 0
M  V30 15361 H 1475.91 -3.72654 -0.135472 0
M  V30 15362 N 1478.1 -0.635022 -1.4424 0
M  V30 15363 C 1479.01 0.0686832 -2.34499 0
M  V30 15364 C 1480.03 0.831574 -1.52843 0
M  V30 15365 O 1481.2 0.782954 -1.85558 0
M  V30 15366 C 1478.27 1.03543 -3.30877 0
M  V30 15367 C 1477.33 0.271484 -4.28441 0
M  V30 15368 C 1476.56 1.19218 -5.20214 0
M  V30 15369 O 1476.78 2.43101 -5.16002 0
M  V30 15370 O 1475.72 0.6744 -5.9811 0
M  V30 15371 H 1479.54 -0.673781 -2.96132 0
M  V30 15372 H 1477.13 -0.395211 -1.44078 0
M  V30 15373 H 1479.01 1.59151 -3.90191 0
M  V30 15374 H 1477.69 1.75844 -2.71773 0
M  V30 15375 H 1476.59 -0.327736 -3.72662 0
M  V30 15376 H 1477.93 -0.411584 -4.90476 0
M  V30 15377 N 1479.58 1.53054 -0.375806 0
M  V30 15378 C 1480.99 1.86426 0.101188 0
M  V30 15379 C 1481.34 1.29603 1.47301 0
M  V30 15380 O 1480.47 0.622059 2.07266 0
M  V30 15381 C 1481.06 3.38265 0.190389 0
M  V30 15382 C 1479.62 3.71397 0.611653 0
M  V30 15383 C 1478.77 2.76304 -0.234801 0
M  V30 15384 H 1481.72 1.47156 -0.594211 0
M  V30 15385 H 1481.74 3.66793 1.01207 0
M  V30 15386 H 1481.25 3.79592 -0.80818 0
M  V30 15387 H 1479.35 3.35632 1.61808 0
M  V30 15388 H 1479.46 4.77597 0.379168 0
M  V30 15389 H 1477.83 2.52952 0.297888 0
M  V30 15390 H 1478.61 3.20467 -1.2311 0
M  V30 15391 N 1481.06 0.105248 1.57248 0
M  V30 15392 C 1482.47 -0.422304 1.81861 0
M  V30 15393 C 1482.82 -1.67508 1.02154 0
M  V30 15394 O 1481.94 -2.14905 0.253961 0
M  V30 15395 C 1482.54 -0.772943 3.29865 0
M  V30 15396 C 1481.1 -1.24519 3.55207 0
M  V30 15397 C 1480.24 -0.246936 2.76198 0
M  V30 15398 H 1483.2 0.330565 1.55219 0
M  V30 15399 H 1483.22 -1.6316 3.43743 0
M  V30 15400 H 1482.73 0.139033 3.87851 0
M  V30 15401 H 1480.83 -2.17453 3.02564 0
M  V30 15402 H 1480.94 -1.20001 4.63828 0
M  V30 15403 H 1479.31 -0.731171 2.43979 0
M  V30 15404 H 1480.09 0.657896 3.36937 0
M  V30 15405 N 1482.53 -1.56697 -0.168486 0
M  V30 15406 C 1483.5 -1.95744 -1.19235 0
M  V30 15407 C 1484.5 -0.841419 -1.37028 0
M  V30 15408 O 1485.69 -1.10842 -1.34386 0
M  V30 15409 C 1482.82 -2.25471 -2.55686 0
M  V30 15410 H 1484.01 -2.87368 -0.857892 0
M  V30 15411 H 1481.57 -1.50798 -0.411041 0
M  V30 15412 H 1482.3 -1.36571 -2.94141 0
M  V30 15413 H 1482.09 -3.06822 -2.44137 0
M  V30 15414 H 1483.58 -2.56593 -3.29469 0
M  V30 15415 N 1484.01 0.437135 -1.51416 0
M  V30 15416 C 1485.24 1.21359 -1.68187 0
M  V30 15417 C 1485.66 1.84247 -0.378748 0
M  V30 15418 O 1485.02 1.68816 0.661115 0
M  V30 15419 C 1485.07 2.27319 -2.79926 0
M  V30 15420 O 1484.17 3.32807 -2.43543 0
M  V30 15421 H 1483.51 0.355547 -0.560787 0
M  V30 15422 H 1486.04 0.516204 -1.97981 0
M  V30 15423 H 1486.05 2.721 -3.04016 0
M  V30 15424 H 1484.73 1.80923 -3.74486 0
M  V30 15425 H 1483.31 2.93501 -2.30025 0
M  V30 15426 N 1485.49 1.41566 0.692592 0
M  V30 15427 C 1486.74 1.40805 1.44978 0
M  V30 15428 C 1487.06 0.0191039 1.94991 0
M  V30 15429 O 1486.33 -0.939544 1.71899 0
M  V30 15430 H 1484.91 0.518293 0.537942 0
M  V30 15431 H 1487.57 1.76831 0.81956 0
M  V30 15432 H 1486.67 2.09706 2.31149 0
M  V30 15433 N 1486.97 -0.927146 1.27443 0
M  V30 15434 C 1488.25 -1.65322 1.04538 0
M  V30 15435 C 1488.63 -2.06886 -0.419694 0
M  V30 15436 O 1487.97 -1.80352 -1.40304 0
M  V30 15437 C 1488.18 -2.85486 2.00746 0
M  V30 15438 C 1489.53 -3.56816 2.30147 0
M  V30 15439 O 1490.56 -2.95613 1.98724 0
M  V30 15440 O 1489.41 -4.67085 2.83714 0
M  V30 15441 H 1486.51 -0.724627 0.398554 0
M  V30 15442 H 1489.05 -0.977633 1.3871 0
M  V30 15443 H 1487.83 -2.51766 2.99549 0
M  V30 15444 H 1487.45 -3.60763 1.67139 0
M  V30 15445 N 1488.45 -1.09474 -1.13372 0
M  V30 15446 C 1489.38 -0.756441 -2.20908 0
M  V30 15447 C 1490.36 0.266113 -1.68006 0
M  V30 15448 O 1491.54 0.134067 -1.93737 0
M  V30 15449 C 1488.67 -0.176733 -3.4685 0
M  V30 15450 C 1487.63 -1.12886 -4.12845 0
M  V30 15451 C 1486.95 -0.410831 -5.33119 0
M  V30 15452 C 1488.25 -2.47148 -4.60125 0
M  V30 15453 H 1489.95 -1.65555 -2.49463 0
M  V30 15454 H 1487.49 -0.797458 -1.19902 0
M  V30 15455 H 1489.45 0.0720151 -4.21338 0
M  V30 15456 H 1488.17 0.757576 -3.17692 0
M  V30 15457 H 1486.83 -1.36289 -3.40325 0
M  V30 15458 H 1486.48 0.527632 -5.00225 0
M  V30 15459 H 1486.18 -1.04567 -5.78221 0
M  V30 15460 H 1487.7 -0.170394 -6.10362 0
M  V30 15461 H 1489.11 -2.27949 -5.26034 0
M  V30 15462 H 1487.51 -3.06425 -5.15969 0
M  V30 15463 H 1488.58 -3.07874 -3.74622 0
M  V30 15464 N 1489.92 1.30607 -0.882012 0
M  V30 15465 C 1491.16 1.98047 -0.505626 0
M  V30 15466 C 1491.53 1.68123 0.927287 0
M  V30 15467 O 1492.73 2.28872 1.40964 0
M  V30 15468 C 1491 3.49021 -0.769367 0
M  V30 15469 S 1492.56 4.36003 -0.494641 0
M  V30 15470 H 1489.38 0.685625 -0.188252 0
M  V30 15471 H 1491.98 1.58776 -1.14064 0
M  V30 15472 H 1490.68 3.68291 -1.8108 0
M  V30 15473 H 1490.21 3.93211 -0.121801 0
M  V30 15474 H 1492.23 4.91683 0.668004 0
M  V30 15475 N 1491.4 0.642663 1.43901 0
M  V30 15476 C 1492.63 0.157518 2.06801 0
M  V30 15477 C 1493.05 -1.16361 1.47789 0
M  V30 15478 O 1492.41 -1.71645 0.583747 0
M  V30 15479 C 1492.46 0.0685904 3.60535 0
M  V30 15480 O 1491.56 -0.972183 4.00777 0
M  V30 15481 H 1490.9 0.0900406 0.657867 0
M  V30 15482 H 1493.43 0.882604 1.84584 0
M  V30 15483 H 1493.44 -0.118212 4.07829 0
M  V30 15484 H 1492.12 1.03307 4.02865 0
M  V30 15485 H 1490.7 -0.75902 3.65094 0
M  V30 15486 N 1492.88 -1.52852 0.383918 0
M  V30 15487 C 1493.79 -2.3002 -0.461298 0
M  V30 15488 C 1494.81 -1.36717 -1.07631 0
M  V30 15489 O 1495.98 -1.69784 -1.08329 0
M  V30 15490 C 1493.05 -3.08804 -1.57609 0
M  V30 15491 C 1492.11 -4.17806 -0.986737 0
M  V30 15492 C 1491.34 -4.92825 -2.04841 0
M  V30 15493 O 1491.57 -4.67879 -3.26259 0
M  V30 15494 O 1490.5 -5.78306 -1.66871 0
M  V30 15495 H 1494.33 -3.03239 0.167189 0
M  V30 15496 H 1491.91 -1.48667 0.147781 0
M  V30 15497 H 1493.79 -3.57943 -2.22384 0
M  V30 15498 H 1492.47 -2.38404 -2.18964 0
M  V30 15499 H 1491.37 -3.72876 -0.302396 0
M  V30 15500 H 1492.71 -4.90426 -0.417481 0
M  V30 15501 N 1494.36 -0.113586 -1.5719 0
M  V30 15502 C 1495.77 0.412653 -1.82083 0
M  V30 15503 C 1496.12 1.66964 -1.03041 0
M  V30 15504 O 1495.25 2.14767 -0.265354 0
M  V30 15505 C 1495.84 0.755439 -3.3027 0
M  V30 15506 C 1494.4 1.22634 -3.55862 0
M  V30 15507 C 1493.55 0.232285 -2.76325 0
M  V30 15508 H 1496.5 -0.338792 -1.55042 0
M  V30 15509 H 1496.52 1.61335 -3.44603 0
M  V30 15510 H 1496.03 -0.1596 -3.87772 0
M  V30 15511 H 1494.13 2.15846 -3.03713 0
M  V30 15512 H 1494.25 1.1754 -4.64458 0
M  V30 15513 H 1492.61 0.718222 -2.44364 0
M  V30 15514 H 1493.39 -0.675756 -3.36583 0
M  V30 15515 N 1495.84 1.56784 0.160173 0
M  V30 15516 C 1497.06 1.87129 0.894283 0
M  V30 15517 C 1497.49 0.701172 1.74543 0
M  V30 15518 O 1496.85 -0.349542 1.77899 0
M  V30 15519 C 1496.89 3.15969 1.73769 0
M  V30 15520 O 1496 2.98977 2.84054 0
M  V30 15521 H 1495.34 0.615192 0.249869 0
M  V30 15522 H 1497.87 2.04012 0.154956 0
M  V30 15523 H 1497.88 3.47657 2.13538 0
M  V30 15524 H 1496.55 4.00742 1.11258 0
M  V30 15525 H 1495.13 2.78668 2.47788 0
M  V30 15526 N 1497.32 -0.429099 1.51646 0
M  V30 15527 C 1498.54 -1.20006 1.68541 0
M  V30 15528 C 1498.96 -1.84806 0.386264 0
M  V30 15529 O 1498.32 -1.7106 -0.635988 0
M  V30 15530 C 1498.37 -2.27801 2.80694 0
M  V30 15531 O 1498.09 -1.65649 4.05576 0
M  V30 15532 C 1499.59 -3.17927 3.08929 0
M  V30 15533 H 1496.81 -0.361388 0.565367 0
M  V30 15534 H 1499.35 -0.507432 1.98104 0
M  V30 15535 H 1497.51 -2.92766 2.53706 0
M  V30 15536 H 1497.92 -2.36955 4.67924 0
M  V30 15537 H 1499.4 -3.8968 3.90965 0
M  V30 15538 H 1499.87 -3.79157 2.21668 0
M  V30 15539 H 1500.48 -2.58654 3.37606 0
M  V30 15540 N 1498.79 -1.41931 -0.685074 0
M  V30 15541 C 1500.2 -1.37279 -1.26536 0
M  V30 15542 C 1500.56 -0.0610089 -1.96105 0
M  V30 15543 O 1499.68 0.840508 -1.9941 0
M  V30 15544 C 1500.28 -2.48658 -2.30119 0
M  V30 15545 C 1498.83 -2.47371 -2.83698 0
M  V30 15546 C 1497.98 -2.2797 -1.57876 0
M  V30 15547 H 1500.93 -1.51294 -0.479132 0
M  V30 15548 H 1500.95 -2.18319 -3.11636 0
M  V30 15549 H 1500.47 -3.44118 -1.79456 0
M  V30 15550 H 1498.57 -1.55699 -3.3851 0
M  V30 15551 H 1498.68 -3.44052 -3.33414 0
M  V30 15552 H 1497.04 -1.7604 -1.84071 0
M  V30 15553 H 1497.83 -3.25471 -1.09194 0
M  V30 15554 N 1500.27 0.920374 -1.27933 0
M  V30 15555 C 1501.23 2.0035 -1.11321 0
M  V30 15556 C 1502.23 1.60706 -0.0549132 0
M  V30 15557 O 1503.42 1.71595 -0.300134 0
M  V30 15558 C 1500.56 3.33681 -0.69782 0
M  V30 15559 H 1501.75 2.16518 -2.07509 0
M  V30 15560 H 1499.3 1.10216 -1.10825 0
M  V30 15561 H 1500.04 3.23214 0.265122 0
M  V30 15562 H 1499.82 3.63815 -1.46223 0
M  V30 15563 H 1501.31 4.13208 -0.604048 0
M  V30 15564 N 1501.75 1.10074 1.1279 0
M  V30 15565 C 1502.97 0.863106 1.88587 0
M  V30 15566 C 1503.4 -0.580595 1.78915 0
M  V30 15567 O 1502.76 -1.40859 1.14142 0
M  V30 15568 C 1502.81 1.31142 3.35908 0
M  V30 15569 O 1501.91 0.474088 4.09666 0
M  V30 15570 H 1501.25 0.312034 0.586115 0
M  V30 15571 H 1503.78 1.46659 1.42662 0
M  V30 15572 H 1503.79 1.29974 3.86744 0
M  V30 15573 H 1502.47 2.36279 3.42265 0
M  V30 15574 H 1501.04 0.550665 3.68812 0
M  V30 15575 N 1503.23 -1.30138 0.888926 0
M  V30 15576 C 1504.64 -1.78124 0.559346 0
M  V30 15577 C 1504.99 -1.73046 -0.924633 0
M  V30 15578 O 1504.11 -1.30974 -1.72264 0
M  V30 15579 C 1504.71 -3.2344 1.00856 0
M  V30 15580 C 1503.27 -3.69247 0.730332 0
M  V30 15581 C 1502.42 -2.505 1.18933 0
M  V30 15582 H 1505.37 -1.16952 1.07275 0
M  V30 15583 H 1505.39 -3.78985 0.339219 0
M  V30 15584 H 1504.9 -3.27104 2.08865 0
M  V30 15585 H 1503 -3.71067 -0.337599 0
M  V30 15586 H 1503.11 -4.60538 1.32066 0
M  V30 15587 H 1501.48 -2.47323 0.608568 0
M  V30 15588 H 1502.26 -2.56899 2.27724 0
M  V30 15589 N 1504.71 -0.650285 -1.43559 0
M  V30 15590 C 1506.12 -0.24263 -1.85117 0
M  V30 15591 C 1506.47 1.21017 -1.54432 0
M  V30 15592 O 1505.59 1.92332 -0.991839 0
M  V30 15593 C 1506.19 -0.433575 -3.36014 0
M  V30 15594 C 1504.75 -0.0802635 -3.76314 0
M  V30 15595 C 1503.89 -0.737844 -2.67303 0
M  V30 15596 H 1506.84 -0.854158 -1.33753 0
M  V30 15597 H 1506.87 0.321801 -3.79137 0
M  V30 15598 H 1506.38 -1.49102 -3.58316 0
M  V30 15599 H 1504.48 0.974703 -3.59625 0
M  V30 15600 H 1504.59 -0.503683 -4.76445 0
M  V30 15601 H 1502.96 -0.171349 -2.54123 0
M  V30 15602 H 1503.74 -1.79826 -2.92434 0
M  V30 15603 N 1506.18 1.52647 -0.392018 0
M  V30 15604 C 1507.59 1.86522 0.0814091 0
M  V30 15605 C 1507.95 1.31158 1.45918 0
M  V30 15606 O 1507.07 0.644007 2.06595 0
M  V30 15607 C 1507.67 3.38448 0.1545 0
M  V30 15608 C 1506.22 3.72025 0.572227 0
M  V30 15609 C 1505.37 2.7604 -0.264093 0
M  V30 15610 H 1508.32 1.46517 -0.609785 0
M  V30 15611 H 1508.34 3.67846 0.973109 0
M  V30 15612 H 1507.86 3.78713 -0.848396 0
M  V30 15613 H 1505.96 3.37329 1.58239 0
M  V30 15614 H 1506.07 4.77973 0.328491 0
M  V30 15615 H 1504.43 2.53254 0.271042 0
M  V30 15616 H 1505.22 3.19143 -1.26502 0
M  V30 15617 N 1507.66 0.121921 1.57128 0
M  V30 15618 C 1508.89 -0.546325 2.00075 0
M  V30 15619 C 1509.31 -1.59245 1.00113 0
M  V30 15620 O 1508.67 -1.8128 -0.0267687 0
M  V30 15621 C 1508.72 -1.14651 3.41888 0
M  V30 15622 O 1507.82 -2.26199 3.4483 0
M  V30 15623 H 1507.16 -0.136184 0.649885 0
M  V30 15624 H 1509.69 0.211257 2.03506 0
M  V30 15625 H 1509.7 -1.48133 3.80159 0
M  V30 15626 H 1508.38 -0.380273 4.14158 0
M  V30 15627 H 1506.96 -1.94134 3.18381 0
M  V30 15628 N 1509.14 -1.56867 -0.151857 0
M  V30 15629 C 1510.05 -2.01157 -1.20718 0
M  V30 15630 C 1511.07 -0.926166 -1.47303 0
M  V30 15631 O 1512.24 -1.23528 -1.59069 0
M  V30 15632 C 1509.31 -2.37915 -2.52185 0
M  V30 15633 C 1508.37 -3.60381 -2.3329 0
M  V30 15634 C 1507.6 -3.95376 -3.58488 0
M  V30 15635 O 1507.82 -3.31093 -4.64471 0
M  V30 15636 O 1506.76 -4.88645 -3.5144 0
M  V30 15637 H 1510.58 -2.91234 -0.861175 0
M  V30 15638 H 1508.17 -1.44993 -0.360213 0
M  V30 15639 H 1510.05 -2.6244 -3.29702 0
M  V30 15640 H 1508.73 -1.50995 -2.86325 0
M  V30 15641 H 1507.63 -3.4105 -1.5374 0
M  V30 15642 H 1508.97 -4.47903 -2.04067 0
M  V30 15643 N 1510.62 0.421051 -1.51871 0
M  V30 15644 C 1511.53 1.5371 -1.7723 0
M  V30 15645 C 1512.54 1.61109 -0.657256 0
M  V30 15646 O 1513.72 1.78047 -0.941343 0
M  V30 15647 C 1510.79 2.89555 -1.9068 0
M  V30 15648 C 1509.85 2.9214 -3.14567 0
M  V30 15649 C 1509.08 4.21505 -3.27367 0
M  V30 15650 O 1509.3 5.14764 -2.45712 0
M  V30 15651 O 1508.24 4.30706 -4.20448 0
M  V30 15652 H 1512.06 1.35221 -2.71935 0
M  V30 15653 H 1509.65 0.605712 -1.3657 0
M  V30 15654 H 1511.53 3.70147 -2.01418 0
M  V30 15655 H 1510.2 3.08137 -0.991627 0
M  V30 15656 H 1509.11 2.10444 -3.09296 0
M  V30 15657 H 1510.44 2.78505 -4.05827 0
M  V30 15658 N 1512.1 1.42293 0.677538 0
M  V30 15659 C 1513.34 1.42334 1.43476 0
M  V30 15660 C 1513.67 0.0397842 1.94959 0
M  V30 15661 O 1512.94 -0.921258 1.72886 0
M  V30 15662 H 1511.52 0.523969 0.532415 0
M  V30 15663 H 1514.18 1.7769 0.800758 0
M  V30 15664 H 1513.27 2.12146 2.28912 0
M  V30 15665 N 1513.57 -0.913576 1.28419 0
M  V30 15666 C 1514.54 -1.99757 1.12382 0
M  V30 15667 C 1515.54 -1.60675 0.063435 0
M  V30 15668 O 1516.73 -1.71433 0.30923 0
M  V30 15669 C 1513.86 -3.33307 0.715506 0
M  V30 15670 H 1515.05 -2.15414 2.08655 0
M  V30 15671 H 1512.61 -1.09626 1.11408 0
M  V30 15672 H 1513.34 -3.23351 -0.247977 0
M  V30 15673 H 1513.13 -3.63034 1.4815 0
M  V30 15674 H 1514.62 -4.12882 0.625953 0
M  V30 15675 N 1515.05 -1.1067 -1.12204 0
M  V30 15676 C 1516.47 -0.838988 -1.35769 0
M  V30 15677 C 1516.67 0.540345 -1.9412 0
M  V30 15678 O 1515.72 1.29274 -2.16897 0
M  V30 15679 C 1517.04 -1.94065 -2.29694 0
M  V30 15680 C 1518.59 -1.96938 -2.43279 0
M  V30 15681 C 1519.06 -3.06284 -3.4052 0
M  V30 15682 N 1520.55 -3.05607 -3.48079 0
M  V30 15683 C 1521.29 -3.86855 -4.23238 0
M  V30 15684 N 1520.78 -4.78046 -5.01442 0
M  V30 15685 N 1522.58 -3.75064 -4.18669 0
M  V30 15686 H 1514.73 -1.99575 -0.726878 0
M  V30 15687 H 1516.99 -0.867423 -0.382467 0
M  V30 15688 H 1516.7 -2.93356 -1.93997 0
M  V30 15689 H 1516.57 -1.82992 -3.29839 0
M  V30 15690 H 1518.96 -0.982774 -2.78254 0
M  V30 15691 H 1519.04 -2.12087 -1.43014 0
M  V30 15692 H 1518.68 -4.05165 -3.06273 0
M  V30 15693 H 1518.61 -2.88376 -4.40621 0
M  V30 15694 H 1521.1 -2.39531 -2.9229 0
M  V30 15695 H 1521.42 -5.36594 -5.56136 0
M  V30 15696 H 1519.76 -4.82073 -5.0063 0
M  V30 15697 H 1522.95 -3.03172 -3.56657 0
M  V30 15698 H 1523.12 -4.38618 -4.76988 0
M  V30 15699 N 1516.53 1.29665 -0.895815 0
M  V30 15700 C 1517.76 1.99862 -0.535043 0
M  V30 15701 C 1518.17 1.67077 0.879245 0
M  V30 15702 O 1517.53 0.913717 1.57979 0
M  V30 15703 C 1517.58 3.54396 -0.713132 0
M  V30 15704 O 1517.3 3.86018 -2.07175 0
M  V30 15705 C 1518.8 4.41862 -0.356792 0
M  V30 15706 H 1516.02 0.638693 -0.205699 0
M  V30 15707 H 1518.57 1.65293 -1.20409 0
M  V30 15708 H 1516.72 3.87292 -0.0913116 0
M  V30 15709 H 1517.14 4.80701 -2.09827 0
M  V30 15710 H 1518.61 5.49428 -0.532252 0
M  V30 15711 H 1519.09 4.3349 0.705914 0
M  V30 15712 H 1519.69 4.1443 -0.95539 0
M  V30 15713 N 1518.01 0.657889 1.43212 0
M  V30 15714 C 1519.26 0.172845 2.0136 0
M  V30 15715 C 1519.58 -1.21911 1.52193 0
M  V30 15716 O 1518.85 -1.81529 0.736492 0
M  V30 15717 H 1517.43 0.0609091 0.744513 0
M  V30 15718 H 1520.09 0.850605 1.75359 0
M  V30 15719 H 1519.19 0.161062 3.11684 0
M  V30 15720 N 1519.49 -1.52437 0.400108 0
M  V30 15721 C 1520.9 -1.86563 -0.0715162 0
M  V30 15722 C 1521.25 -1.3193 -1.4522 0
M  V30 15723 O 1520.37 -0.654955 -2.06251 0
M  V30 15724 C 1520.97 -3.38525 -0.13655 0
M  V30 15725 C 1519.53 -3.72323 -0.55249 0
M  V30 15726 C 1518.67 -2.75896 0.278729 0
M  V30 15727 H 1521.63 -1.46192 0.617547 0
M  V30 15728 H 1521.65 -3.68357 -0.953588 0
M  V30 15729 H 1521.16 -3.78258 0.868468 0
M  V30 15730 H 1519.26 -3.38164 -1.56448 0
M  V30 15731 H 1519.37 -4.7814 -0.303139 0
M  V30 15732 H 1517.74 -2.53394 -0.257608 0
M  V30 15733 H 1518.52 -3.18467 1.28193 0
M  V30 15734 N 1520.96 -0.130252 -1.57061 0
M  V30 15735 C 1521.93 0.801529 -2.14728 0
M  V30 15736 C 1522.93 1.18687 -1.08489 0
M  V30 15737 O 1524.12 1.11054 -1.34211 0
M  V30 15738 C 1521.25 2.08542 -2.69672 0
M  V30 15739 H 1522.44 0.300172 -2.98394 0
M  V30 15740 H 1520 0.119077 -1.55846 0
M  V30 15741 H 1520.73 2.63083 -1.89625 0
M  V30 15742 H 1520.52 1.81849 -3.47381 0
M  V30 15743 H 1522.01 2.75126 -3.14158 0
M  V30 15744 N 1522.44 1.56945 0.143535 0
M  V30 15745 C 1523.35 2.01795 1.1965 0
M  V30 15746 C 1524.37 0.933965 1.4681 0
M  V30 15747 O 1525.55 1.2437 1.58411 0
M  V30 15748 C 1522.61 2.39249 2.5092 0
M  V30 15749 C 1521.67 3.61613 2.31376 0
M  V30 15750 C 1520.9 3.97271 3.56386 0
M  V30 15751 O 1521.13 3.33552 4.62709 0
M  V30 15752 O 1520.06 4.90501 3.48844 0
M  V30 15753 H 1523.89 2.91687 0.845718 0
M  V30 15754 H 1521.47 1.45182 0.352518 0
M  V30 15755 H 1523.35 2.64184 3.28306 0
M  V30 15756 H 1522.03 1.52511 2.85521 0
M  V30 15757 H 1520.94 3.4186 1.51929 0
M  V30 15758 H 1522.27 4.48979 2.01689 0
M  V30 15759 N 1523.92 -0.412991 1.52093 0
M  V30 15760 C 1525.33 -0.991955 1.58168 0
M  V30 15761 C 1525.68 -1.91655 0.419834 0
M  V30 15762 O 1524.81 -2.11448 -0.460308 0
M  V30 15763 C 1525.4 -1.80581 2.86663 0
M  V30 15764 C 1523.96 -2.33487 2.9523 0
M  V30 15765 C 1523.11 -1.13362 2.5307 0
M  V30 15766 H 1526.06 -0.193364 1.57518 0
M  V30 15767 H 1526.08 -2.66282 2.71798 0
M  V30 15768 H 1525.59 -1.13262 3.71205 0
M  V30 15769 H 1523.69 -3.0419 2.15173 0
M  V30 15770 H 1523.81 -2.64617 3.99393 0
M  V30 15771 H 1522.17 -1.48641 2.06828 0
M  V30 15772 H 1522.95 -0.476148 3.39982 0
M  V30 15773 N 1525.4 -1.4265 -0.669982 0
M  V30 15774 C 1526.65 -1.43589 -1.43213 0
M  V30 15775 C 1526.98 -0.0537998 -1.94125 0
M  V30 15776 O 1526.25 0.922727 -1.71219 0
M  V30 15777 C 1526.54 -2.46433 -2.62569 0
M  V30 15778 C 1526.39 -3.93851 -2.17258 0
M  V30 15779 C 1527.71 -2.46208 -3.64787 0
M  V30 15780 H 1524.83 -0.522859 -0.519411 0
M  V30 15781 H 1527.47 -1.74094 -0.760997 0
M  V30 15782 H 1525.62 -2.20551 -3.19828 0
M  V30 15783 H 1527.29 -4.30732 -1.6513 0
M  V30 15784 H 1525.53 -4.07487 -1.48786 0
M  V30 15785 H 1526.21 -4.61398 -3.03012 0
M  V30 15786 H 1528.68 -2.69237 -3.17255 0
M  V30 15787 H 1527.56 -3.20138 -4.45873 0
M  V30 15788 H 1527.82 -1.48979 -4.16242 0
M  V30 15789 N 1526.88 0.906753 -1.28902 0
M  V30 15790 C 1528.1 1.69547 -1.19452 0
M  V30 15791 C 1528.53 1.86531 0.242418 0
M  V30 15792 O 1527.89 1.38052 1.17521 0
M  V30 15793 C 1527.93 3.06139 -1.90556 0
M  V30 15794 O 1527.04 3.9401 -1.21779 0
M  V30 15795 H 1526.38 0.518902 -0.41429 0
M  V30 15796 H 1528.91 1.13327 -1.70347 0
M  V30 15797 H 1528.92 3.56326 -1.98736 0
M  V30 15798 H 1527.59 2.93094 -2.95074 0
M  V30 15799 H 1526.17 3.52444 -1.2181 0
M  V30 15800 N 1528.36 1.11264 1.11616 0
M  V30 15801 C 1529.29 0.727118 2.17361 0
M  V30 15802 C 1530.3 -0.240356 1.61016 0
M  V30 15803 O 1531.49 -0.0235265 1.78484 0
M  V30 15804 C 1528.59 0.05361 3.38858 0
M  V30 15805 C 1527.76 1.04744 4.24673 0
M  V30 15806 C 1526.82 0.403827 5.24648 0
M  V30 15807 O 1525.85 1.0572 5.59296 0
M  V30 15808 N 1527.05 -0.834071 5.74477 0
M  V30 15809 H 1529.81 1.63696 2.51045 0
M  V30 15810 H 1527.38 1.00261 1.2712 0
M  V30 15811 H 1529.37 -0.388643 4.0283 0
M  V30 15812 H 1527.94 -0.758778 3.03251 0
M  V30 15813 H 1527.16 1.6677 3.57185 0
M  V30 15814 H 1528.45 1.71988 4.7885 0
M  V30 15815 H 1527.84 -1.3841 5.48506 0
M  V30 15816 H 1526.4 -1.21933 6.40293 0
M  V30 15817 N 1529.83 -1.29188 0.902679 0
M  V30 15818 C 1530.8 -2.25901 0.387485 0
M  V30 15819 C 1531.8 -1.53469 -0.479993 0
M  V30 15820 O 1532.99 -1.71859 -0.284623 0
M  V30 15821 C 1530.12 -3.37974 -0.445723 0
M  V30 15822 H 1531.31 -2.72988 1.24167 0
M  V30 15823 H 1528.86 -1.4068 0.681083 0
M  V30 15824 H 1529.6 -2.9623 -1.31977 0
M  V30 15825 H 1529.38 -3.91705 0.175899 0
M  V30 15826 H 1530.87 -4.09917 -0.797384 0
M  V30 15827 N 1531.31 -0.665475 -1.42861 0
M  V30 15828 C 1532.22 0.018927 -2.34592 0
M  V30 15829 C 1533.24 0.798967 -1.54572 0
M  V30 15830 O 1534.41 0.743419 -1.87177 0
M  V30 15831 C 1531.48 0.965013 -3.32999 0
M  V30 15832 C 1530.54 0.180544 -4.2892 0
M  V30 15833 C 1529.77 1.08157 -5.22626 0
M  V30 15834 O 1530 2.32101 -5.21043 0
M  V30 15835 O 1528.93 0.54738 -5.99406 0
M  V30 15836 H 1532.76 -0.736444 -2.94636 0
M  V30 15837 H 1530.34 -0.425684 -1.43207 0
M  V30 15838 H 1532.22 1.50839 -3.93479 0
M  V30 15839 H 1530.9 1.7004 -2.75442 0
M  V30 15840 H 1529.8 -0.40671 -3.71883 0
M  V30 15841 H 1531.14 -0.515529 -4.89493 0
M  V30 15842 N 1532.79 1.52222 -0.408187 0
M  V30 15843 C 1533.75 2.25578 0.405851 0
M  V30 15844 C 1534.75 1.27912 0.974434 0
M  V30 15845 O 1535.94 1.51861 0.853461 0
M  V30 15846 C 1533.07 3.02532 1.57122 0
M  V30 15847 H 1534.27 2.98965 -0.23664 0
M  V30 15848 H 1531.82 1.55472 -0.160687 0
M  V30 15849 H 1532.56 2.33492 2.2506 0
M  V30 15850 H 1532.34 3.74237 1.17001 0
M  V30 15851 H 1533.83 3.58177 2.14707 0
M  V30 15852 N 1534.27 0.138579 1.5699 0
M  V30 15853 C 1535.5 -0.521806 2.00212 0
M  V30 15854 C 1535.91 -1.58967 1.01857 0
M  V30 15855 O 1535.27 -1.82494 0.0143099 0
M  V30 15856 C 1535.32 -1.13014 3.4338 0
M  V30 15857 O 1535.04 -0.104938 4.37974 0
M  V30 15858 C 1536.54 -1.87195 4.01837 0
M  V30 15859 H 1533.76 -0.136564 0.656956 0
M  V30 15860 H 1536.3 0.230685 2.03195 0
M  V30 15861 H 1534.46 -1.8333 3.41275 0
M  V30 15862 H 1534.87 -0.54948 5.21614 0
M  V30 15863 H 1536.35 -2.25061 5.04035 0
M  V30 15864 H 1536.82 -2.75467 3.42074 0
M  V30 15865 H 1537.43 -1.21597 4.07547 0
M  V30 15866 N 1535.75 -1.57019 -0.13521 0
M  V30 15867 C 1536.97 -1.88528 -0.864399 0
M  V30 15868 C 1537.4 -0.728852 -1.73405 0
M  V30 15869 O 1536.75 0.321196 -1.78432 0
M  V30 15870 C 1536.8 -3.18694 -1.6872 0
M  V30 15871 O 1535.91 -3.03458 -2.79262 0
M  V30 15872 H 1535.25 -0.61909 -0.24005 0
M  V30 15873 H 1537.78 -2.04233 -0.12248 0
M  V30 15874 H 1537.79 -3.51011 -2.0798 0
M  V30 15875 H 1536.46 -4.02462 -1.04868 0
M  V30 15876 H 1535.04 -2.82575 -2.43323 0
M  V30 15877 N 1537.22 0.404919 -1.52309 0
M  V30 15878 C 1538.45 1.17309 -1.70429 0
M  V30 15879 C 1538.87 1.84169 -0.415617 0
M  V30 15880 O 1538.22 1.7205 0.608693 0
M  V30 15881 C 1538.28 2.23306 -2.84282 0
M  V30 15882 O 1538 1.59176 -4.0816 0
M  V30 15883 C 1539.5 3.12972 -3.13948 0
M  V30 15884 H 1536.72 0.352348 -0.571045 0
M  V30 15885 H 1539.26 0.475851 -1.98887 0
M  V30 15886 H 1537.42 2.88693 -2.58332 0
M  V30 15887 H 1537.83 2.29481 -4.71634 0
M  V30 15888 H 1539.3 3.83411 -3.97115 0
M  V30 15889 H 1539.78 3.75582 -2.27672 0
M  V30 15890 H 1540.39 2.53251 -3.41678 0
M  V30 15891 N 1538.7 1.43003 0.662408 0
M  V30 15892 C 1539.95 1.43848 1.41958 0
M  V30 15893 C 1540.27 0.06046 1.94906 0
M  V30 15894 O 1539.54 -0.90287 1.73854 0
M  V30 15895 H 1538.12 0.529587 0.526827 0
M  V30 15896 H 1540.78 1.7853 0.781867 0
M  V30 15897 H 1539.88 2.14562 2.26649 0
M  V30 15898 N 1540.18 -0.899904 1.29381 0
M  V30 15899 C 1541.09 -2.03699 1.16378 0
M  V30 15900 C 1542.11 -1.73782 0.0870792 0
M  V30 15901 O 1543.28 -1.99167 0.299109 0
M  V30 15902 C 1540.35 -3.36341 0.841166 0
M  V30 15903 C 1539.41 -3.79778 2.00168 0
M  V30 15904 C 1538.64 -5.0609 1.69437 0
M  V30 15905 O 1538.86 -5.67073 0.615212 0
M  V30 15906 O 1537.8 -5.45574 2.54229 0
M  V30 15907 H 1541.62 -2.17592 2.11866 0
M  V30 15908 H 1539.21 -1.02353 1.08831 0
M  V30 15909 H 1541.09 -4.15946 0.675803 0
M  V30 15910 H 1539.77 -3.23591 -0.0839376 0
M  V30 15911 H 1538.67 -3.00941 2.22229 0
M  V30 15912 H 1540.01 -3.97111 2.90798 0
M  V30 15913 N 1541.66 -1.11854 -1.11024 0
M  V30 15914 C 1543.07 -0.885443 -1.64368 0
M  V30 15915 C 1543.42 0.581455 -1.87386 0
M  V30 15916 O 1542.55 1.44452 -1.61129 0
M  V30 15917 C 1543.14 -1.60082 -2.98595 0
M  V30 15918 C 1541.7 -1.41403 -3.4883 0
M  V30 15919 C 1540.85 -1.64069 -2.23555 0
M  V30 15920 H 1543.8 -1.27418 -0.94606 0
M  V30 15921 H 1543.82 -1.04832 -3.65774 0
M  V30 15922 H 1543.33 -2.66842 -2.8181 0
M  V30 15923 H 1541.43 -0.368727 -3.70771 0
M  V30 15924 H 1541.54 -2.16603 -4.27341 0
M  V30 15925 H 1539.91 -1.06437 -2.31394 0
M  V30 15926 H 1540.69 -2.72112 -2.09308 0
M  V30 15927 N 1543.14 1.28707 -0.909517 0
M  V30 15928 C 1544.55 1.77212 -0.587613 0
M  V30 15929 C 1544.9 1.74495 0.896986 0
M  V30 15930 O 1544.02 1.33698 1.70158 0
M  V30 15931 C 1544.62 3.21794 -1.05989 0
M  V30 15932 C 1543.18 3.68038 -0.788983 0
M  V30 15933 C 1542.32 2.48576 -1.22903 0
M  V30 15934 H 1545.28 1.1523 -1.09122 0
M  V30 15935 H 1545.3 3.78397 -0.399469 0
M  V30 15936 H 1544.81 3.23739 -2.14043 0
M  V30 15937 H 1542.91 3.71558 0.278523 0
M  V30 15938 H 1543.02 4.58379 -1.39376 0
M  V30 15939 H 1541.39 2.46323 -0.647838 0
M  V30 15940 H 1542.17 2.53243 -2.31782 0
M  V30 15941 N 1544.61 0.673042 1.42506 0
M  V30 15942 C 1546.03 0.272049 1.84707 0
M  V30 15943 C 1546.38 -1.18545 1.56338 0
M  V30 15944 O 1545.5 -1.9073 1.02231 0
M  V30 15945 C 1546.1 0.486977 3.35282 0
M  V30 15946 C 1544.66 0.140122 3.76139 0
M  V30 15947 C 1543.8 0.780276 2.66096 0
M  V30 15948 H 1546.75 0.875329 1.32377 0
M  V30 15949 H 1546.77 -0.261443 3.79601 0
M  V30 15950 H 1546.29 1.54784 3.55898 0
M  V30 15951 H 1544.39 -0.917366 3.6113 0
M  V30 15952 H 1544.5 0.579417 4.75583 0
M  V30 15953 H 1542.86 0.211756 2.53818 0
M  V30 15954 H 1543.65 1.84456 2.89536 0
M  V30 15955 N 1546.09 -1.52004 0.416254 0
M  V30 15956 C 1547.34 -2.0149 -0.15689 0
M  V30 15957 C 1547.66 -1.30343 -1.45037 0
M  V30 15958 O 1546.93 -0.431503 -1.91089 0
M  V30 15959 H 1545.51 -0.744508 -0.0609682 0
M  V30 15960 H 1548.17 -1.86857 0.55413 0
M  V30 15961 H 1547.27 -3.10155 -0.347917 0
M  V30 15962 N 1547.57 -0.146903 -1.56914 0
M  V30 15963 C 1548.8 0.514426 -2.00919 0
M  V30 15964 C 1549.22 1.57632 -1.02634 0
M  V30 15965 O 1548.58 1.813 -0.00207478 0
M  V30 15966 C 1548.63 1.09197 -3.43669 0
M  V30 15967 O 1547.73 2.20684 -3.48385 0
M  V30 15968 H 1547.07 0.125827 -0.651969 0
M  V30 15969 H 1549.6 -0.243607 -2.03145 0
M  V30 15970 H 1549.61 1.42066 -3.82467 0
M  V30 15971 H 1548.29 0.314336 -4.1471 0
M  V30 15972 H 1546.86 1.89045 -3.21429 0
M  V30 15973 N 1549.05 1.57088 0.126881 0
M  V30 15974 C 1550.3 1.84071 0.834397 0
M  V30 15975 C 1550.62 0.730896 1.80784 0
M  V30 15976 O 1549.89 -0.245791 1.94352 0
M  V30 15977 H 1548.47 0.679123 0.311128 0
M  V30 15978 H 1551.13 1.94554 0.116083 0
M  V30 15979 H 1550.23 2.79714 1.38443 0
M  V30 15980 N 1550.53 -0.396836 1.52522 0
M  V30 15981 C 1551.77 -1.14037 1.66853 0
M  V30 15982 C 1552.1 -1.90706 0.406987 0
M  V30 15983 O 1551.37 -1.87165 -0.578443 0
M  V30 15984 H 1549.95 -0.423967 0.615029 0
M  V30 15985 H 1552.61 -0.451042 1.89609 0
M  V30 15986 H 1551.7 -1.84763 2.51533 0
M  V30 15987 N 1552.01 -1.43353 -0.654814 0
M  V30 15988 C 1552.94 -1.51194 -1.7794 0
M  V30 15989 C 1553.92 -0.366747 -1.66099 0
M  V30 15990 O 1555.1 -0.58375 -1.85219 0
M  V30 15991 C 1552.23 -1.43298 -3.16359 0
M  V30 15992 C 1551.19 -2.5605 -3.42961 0
M  V30 15993 C 1550.51 -2.33208 -4.81163 0
M  V30 15994 C 1551.81 -3.98303 -3.37864 0
M  V30 15995 H 1553.51 -2.4532 -1.71635 0
M  V30 15996 H 1551.05 -1.18072 -0.824319 0
M  V30 15997 H 1553 -1.47388 -3.94784 0
M  V30 15998 H 1551.73 -0.456761 -3.2339 0
M  V30 15999 H 1550.39 -2.5131 -2.66906 0
M  V30 16000 H 1550.04 -1.33833 -4.84869 0
M  V30 16001 H 1549.74 -3.08789 -4.99923 0
M  V30 16002 H 1551.26 -2.39079 -5.61848 0
M  V30 16003 H 1552.67 -4.04538 -4.06229 0
M  V30 16004 H 1551.07 -4.73897 -3.6816 0
M  V30 16005 H 1552.14 -4.23552 -2.36075 0
M  V30 16006 N 1553.48 0.89303 -1.29857 0
M  V30 16007 C 1554.45 1.97944 -1.15546 0
M  V30 16008 C 1555.45 1.60554 -0.088989 0
M  V30 16009 O 1556.64 1.7092 -0.336464 0
M  V30 16010 C 1553.77 3.32126 -0.768442 0
M  V30 16011 H 1554.96 2.12067 -2.12055 0
M  V30 16012 H 1552.51 1.0784 -1.13138 0
M  V30 16013 H 1553.25 3.23704 0.196504 0
M  V30 16014 H 1553.03 3.60631 -1.53907 0
M  V30 16015 H 1554.52 4.11834 -0.691559 0
M  V30 16016 N 1554.96 1.12442 1.10429 0
M  V30 16017 C 1555.89 0.814745 2.18824 0
M  V30 16018 C 1556.87 -0.221476 1.68652 0
M  V30 16019 O 1558.06 -0.0826537 1.94024 0
M  V30 16020 C 1555.19 0.268632 3.4626 0
M  V30 16021 C 1554.14 1.23792 4.09707 0
M  V30 16022 C 1553.47 0.552034 5.31843 0
M  V30 16023 C 1554.77 2.5926 4.53411 0
M  V30 16024 H 1556.46 1.72111 2.44986 0
M  V30 16025 H 1554.01 0.828968 1.17746 0
M  V30 16026 H 1555.96 0.0397207 4.21381 0
M  V30 16027 H 1554.68 -0.673079 3.19589 0
M  V30 16028 H 1553.34 1.45264 3.36592 0
M  V30 16029 H 1552.99 -0.394821 5.01448 0
M  V30 16030 H 1552.69 1.19861 5.75245 0
M  V30 16031 H 1554.22 0.332161 6.09696 0
M  V30 16032 H 1555.63 2.41816 5.19806 0
M  V30 16033 H 1554.03 3.19997 5.07663 0
M  V30 16034 H 1555.1 3.17699 3.66327 0
M  V30 16035 N 1556.44 -1.28223 0.91633 0
M  V30 16036 C 1557.85 -1.76898 0.597003 0
M  V30 16037 C 1558.2 -1.74969 -0.887719 0
M  V30 16038 O 1557.33 -1.34598 -1.69447 0
M  V30 16039 C 1557.92 -3.21228 1.07694 0
M  V30 16040 C 1556.48 -3.67614 0.80849 0
M  V30 16041 C 1555.63 -2.47921 1.24219 0
M  V30 16042 H 1558.58 -1.1465 1.09732 0
M  V30 16043 H 1558.6 -3.7818 0.419531 0
M  V30 16044 H 1558.11 -3.226 2.15757 0
M  V30 16045 H 1556.21 -3.717 -0.258814 0
M  V30 16046 H 1556.33 -4.57633 1.41804 0
M  V30 16047 H 1554.69 -2.45976 0.660892 0
M  V30 16048 H 1555.47 -2.5201 2.33122 0
M  V30 16049 N 1557.92 -0.68059 -1.42147 0
M  V30 16050 C 1559.16 -0.214267 -2.02268 0
M  V30 16051 C 1559.52 1.16815 -1.52879 0
M  V30 16052 O 1558.81 1.77406 -0.723716 0
M  V30 16053 C 1559.01 -0.194825 -3.56869 0
M  V30 16054 C 1558.83 -1.57381 -4.21261 0
M  V30 16055 C 1557.6 -2.173 -4.56189 0
M  V30 16056 C 1559.8 -2.5176 -4.48466 0
M  V30 16057 N 1557.78 -3.47919 -5.05792 0
M  V30 16058 C 1559.16 -3.6704 -4.99681 0
M  V30 16059 C 1561.21 -2.50217 -4.3046 0
M  V30 16060 C 1559.91 -4.81039 -5.34784 0
M  V30 16061 C 1561.94 -3.63316 -4.66643 0
M  V30 16062 C 1561.3 -4.77324 -5.18016 0
M  V30 16063 H 1557.4 -0.123459 -0.772193 0
M  V30 16064 H 1559.98 -0.894831 -1.72919 0
M  V30 16065 H 1558.16 0.455171 -3.85724 0
M  V30 16066 H 1559.89 0.284921 -4.03696 0
M  V30 16067 H 1556.64 -1.69732 -4.4214 0
M  V30 16068 H 1557.07 -4.14833 -5.35016 0
M  V30 16069 H 1561.71 -1.63297 -3.89992 0
M  V30 16070 H 1559.43 -5.68629 -5.74183 0
M  V30 16071 H 1563.01 -3.63356 -4.54383 0
M  V30 16072 H 1561.89 -5.63391 -5.45491 0
M  V30 16073 N 1559.4 1.51781 -0.424309 0
M  V30 16074 C 1560.67 1.94514 0.205791 0
M  V30 16075 C 1561.05 1.36219 1.61269 0
M  V30 16076 O 1560.4 0.544019 2.21929 0
M  V30 16077 C 1560.61 3.48445 0.196749 0
M  V30 16078 C 1561.96 4.22628 0.408702 0
M  V30 16079 O 1562.98 3.55133 0.275441 0
M  V30 16080 O 1561.84 5.42344 0.672698 0
M  V30 16081 H 1558.94 0.815576 0.136983 0
M  V30 16082 H 1561.48 1.6273 -0.481349 0
M  V30 16083 H 1560.25 3.83297 -0.787342 0
M  V30 16084 H 1559.88 3.86634 0.92735 0
M  V30 16085 N 1560.87 0.155222 1.56834 0
M  V30 16086 C 1562.28 -0.364232 1.83113 0
M  V30 16087 C 1562.64 -1.64173 1.07432 0
M  V30 16088 O 1561.76 -2.13988 0.322202 0
M  V30 16089 C 1562.36 -0.667608 3.32157 0
M  V30 16090 C 1560.91 -1.13156 3.58989 0
M  V30 16091 C 1560.06 -0.158941 2.76844 0
M  V30 16092 H 1563.01 0.379779 1.54089 0
M  V30 16093 H 1563.03 -1.52141 3.4876 0
M  V30 16094 H 1562.55 0.262355 3.87212 0
M  V30 16095 H 1560.65 -2.07717 3.09329 0
M  V30 16096 H 1560.76 -1.05184 4.67411 0
M  V30 16097 H 1559.12 -0.653181 2.46182 0
M  V30 16098 H 1559.91 0.764757 3.34674 0
M  V30 16099 N 1562.35 -1.57153 -0.118549 0
M  V30 16100 C 1563.3 -1.96802 -1.15122 0
M  V30 16101 C 1564.29 -0.843066 -1.37045 0
M  V30 16102 O 1565.48 -1.10676 -1.38129 0
M  V30 16103 C 1562.61 -2.37625 -2.47768 0
M  V30 16104 C 1561.69 -3.56754 -2.29319 0
M  V30 16105 N 1562.08 -4.72427 -1.80683 0
M  V30 16106 C 1560.38 -3.62395 -2.59973 0
M  V30 16107 C 1561.08 -5.54451 -1.75952 0
M  V30 16108 N 1560.06 -4.96954 -2.20314 0
M  V30 16109 H 1563.86 -2.83695 -0.767744 0
M  V30 16110 H 1561.37 -1.59088 -0.326287 0
M  V30 16111 H 1563.37 -2.64247 -3.22458 0
M  V30 16112 H 1562.03 -1.52097 -2.86874 0
M  V30 16113 H 1563.04 -4.95634 -1.50223 0
M  V30 16114 H 1559.72 -2.87475 -3.02762 0
M  V30 16115 H 1561.11 -6.57238 -1.39599 0
M  V30 16116 N 1563.83 0.388742 -1.5273 0
M  V30 16117 C 1565.05 1.15946 -1.71963 0
M  V30 16118 C 1565.48 1.82949 -0.437173 0
M  V30 16119 O 1564.84 1.70834 0.607072 0
M  V30 16120 C 1564.89 2.18298 -2.87016 0
M  V30 16121 O 1563.99 3.24891 -2.54008 0
M  V30 16122 H 1563.33 0.337526 -0.571815 0
M  V30 16123 H 1565.86 0.452957 -1.99523 0
M  V30 16124 H 1565.87 2.6229 -3.12519 0
M  V30 16125 H 1564.55 1.68917 -3.80052 0
M  V30 16126 H 1563.12 2.86034 -2.39246 0
M  V30 16127 N 1565.31 1.43698 0.647203 0
M  V30 16128 C 1566.24 1.52135 1.77136 0
M  V30 16129 C 1567.22 0.375551 1.65902 0
M  V30 16130 O 1568.4 0.593564 1.84907 0
M  V30 16131 C 1565.53 1.44974 3.15594 0
M  V30 16132 C 1564.49 2.57866 3.41598 0
M  V30 16133 C 1563.81 2.35757 4.7992 0
M  V30 16134 C 1565.11 4.00089 3.35747 0
M  V30 16135 H 1566.81 2.46227 1.70332 0
M  V30 16136 H 1564.35 1.18507 0.818046 0
M  V30 16137 H 1566.31 1.4948 3.93997 0
M  V30 16138 H 1565.03 0.473905 3.23143 0
M  V30 16139 H 1563.69 2.52722 2.65569 0
M  V30 16140 H 1563.34 1.36403 4.84152 0
M  V30 16141 H 1563.04 3.11436 4.98278 0
M  V30 16142 H 1564.56 2.42055 5.60572 0
M  V30 16143 H 1565.98 4.06687 4.04078 0
M  V30 16144 H 1564.37 4.75842 3.65642 0
M  V30 16145 H 1565.44 4.24798 2.33825 0
M  V30 16146 N 1566.79 -0.886131 1.30328 0
M  V30 16147 C 1567.7 -2.02453 1.18532 0
M  V30 16148 C 1568.71 -1.7368 0.105506 0
M  V30 16149 O 1569.89 -1.98838 0.320217 0
M  V30 16150 C 1566.95 -3.3543 0.876792 0
M  V30 16151 C 1566.01 -3.77633 2.04185 0
M  V30 16152 C 1565.25 -5.04264 1.74795 0
M  V30 16153 O 1565.47 -5.66388 0.675323 0
M  V30 16154 O 1564.4 -5.42847 2.60001 0
M  V30 16155 H 1568.23 -2.15333 2.14162 0
M  V30 16156 H 1565.82 -1.01193 1.09911 0
M  V30 16157 H 1567.7 -4.15206 0.719882 0
M  V30 16158 H 1566.37 -3.23662 -0.0496117 0
M  V30 16159 H 1565.28 -2.98567 2.25408 0
M  V30 16160 H 1566.61 -3.94004 2.94994 0
M  V30 16161 N 1568.26 -1.13026 -1.09832 0
M  V30 16162 C 1569.2 -0.747512 -2.1561 0
M  V30 16163 C 1570.18 0.2643 -1.60438 0
M  V30 16164 O 1571.36 0.156784 -1.87847 0
M  V30 16165 C 1568.49 -0.107449 -3.3853 0
M  V30 16166 C 1567.53 -1.08709 -4.12413 0
M  V30 16167 S 1568.37 -2.6176 -4.67164 0
M  V30 16168 C 1569.52 -1.99102 -5.93388 0
M  V30 16169 H 1569.75 -1.6435 -2.47743 0
M  V30 16170 H 1567.29 -0.949978 -1.21716 0
M  V30 16171 H 1569.25 0.255456 -4.09704 0
M  V30 16172 H 1567.91 0.765741 -3.04623 0
M  V30 16173 H 1567.1 -0.58698 -5.0057 0
M  V30 16174 H 1566.7 -1.39325 -3.4708 0
M  V30 16175 H 1568.99 -1.33755 -6.64166 0
M  V30 16176 H 1569.94 -2.85323 -6.48071 0
M  V30 16177 H 1570.34 -1.44429 -5.45711 0
M  V30 16178 N 1569.74 1.27735 -0.923117 0
M  V30 16179 C 1570.99 1.94858 -0.56198 0
M  V30 16180 C 1571.32 1.72414 0.893698 0
M  V30 16181 O 1570.6 1.05054 1.63689 0
M  V30 16182 C 1570.88 3.49102 -0.883173 0
M  V30 16183 C 1570.73 3.80908 -2.39227 0
M  V30 16184 C 1572.05 4.38405 -0.385848 0
M  V30 16185 H 1569.17 0.707728 -0.205646 0
M  V30 16186 H 1571.81 1.50935 -1.15406 0
M  V30 16187 H 1569.96 3.86644 -0.379292 0
M  V30 16188 H 1571.63 3.53182 -2.96749 0
M  V30 16189 H 1569.88 3.2762 -2.84337 0
M  V30 16190 H 1570.55 4.88653 -2.56754 0
M  V30 16191 H 1573.02 4.07988 -0.817631 0
M  V30 16192 H 1571.9 5.45161 -0.63958 0
M  V30 16193 H 1572.16 4.36296 0.714009 0
M  V30 16194 N 1571.22 0.688118 1.41784 0
M  V30 16195 C 1572.15 0.0323199 2.33478 0
M  V30 16196 C 1573.13 -0.775145 1.51412 0
M  V30 16197 O 1574.32 -0.72962 1.79973 0
M  V30 16198 C 1571.45 -0.910141 3.35162 0
M  V30 16199 C 1570.4 -0.210312 4.27483 0
M  V30 16200 C 1569.73 -1.26662 5.19481 0
M  V30 16201 C 1571.03 0.918839 5.14154 0
M  V30 16202 H 1572.72 0.798138 2.88566 0
M  V30 16203 H 1570.27 0.385262 1.38751 0
M  V30 16204 H 1572.22 -1.3781 3.98229 0
M  V30 16205 H 1570.94 -1.70754 2.78408 0
M  V30 16206 H 1569.6 0.237544 3.6583 0
M  V30 16207 H 1569.25 -2.05635 4.59046 0
M  V30 16208 H 1568.95 -0.803416 5.82082 0
M  V30 16209 H 1570.47 -1.73524 5.85424 0
M  V30 16210 H 1571.89 0.531499 5.70831 0
M  V30 16211 H 1570.29 1.30867 5.85657 0
M  V30 16212 H 1571.36 1.7618 4.51762 0
M  V30 16213 N 1572.7 -1.51554 0.432352 0
M  V30 16214 C 1573.95 -2.01232 -0.137255 0
M  V30 16215 C 1574.26 -1.32135 -1.44221 0
M  V30 16216 O 1575.47 -1.72756 -2.09446 0
M  V30 16217 C 1573.92 -3.58688 -0.295152 0
M  V30 16218 C 1573.53 -4.36718 0.999072 0
M  V30 16219 C 1575.27 -4.16528 -0.818798 0
M  V30 16220 C 1573.18 -5.85867 0.80709 0
M  V30 16221 H 1572.11 -0.751986 -0.0550696 0
M  V30 16222 H 1574.76 -1.74703 0.561352 0
M  V30 16223 H 1573.14 -3.81643 -1.05664 0
M  V30 16224 H 1574.32 -4.25512 1.76851 0
M  V30 16225 H 1572.63 -3.90306 1.45087 0
M  V30 16226 H 1575.23 -5.25664 -0.978841 0
M  V30 16227 H 1575.57 -3.75379 -1.79989 0
M  V30 16228 H 1576.11 -3.97632 -0.11575 0
M  V30 16229 H 1572.85 -6.31419 1.76041 0
M  V30 16230 H 1572.37 -5.9975 0.0773617 0
M  V30 16231 H 1574.04 -6.45375 0.458328 0
M  V30 16232 N 1574.18 -0.163538 -1.56749 0
M  V30 16233 C 1575.42 0.482449 -1.96257 0
M  V30 16234 C 1575.75 1.64302 -1.05023 0
M  V30 16235 O 1575.02 1.95562 -0.115027 0
M  V30 16236 H 1573.6 0.181222 -0.724684 0
M  V30 16237 H 1576.26 -0.242903 -1.9338 0
M  V30 16238 H 1575.35 0.847634 -3.00369 0
M  V30 16239 N 1575.65 1.57214 0.110213 0
M  V30 16240 C 1576.89 1.87133 0.822229 0
M  V30 16241 C 1577.26 0.752645 1.76633 0
M  V30 16242 O 1578.46 0.933837 2.52057 0
M  V30 16243 C 1576.73 3.22286 1.54487 0
M  V30 16244 S 1578.29 3.73861 2.29725 0
M  V30 16245 H 1575.11 0.65598 0.274248 0
M  V30 16246 H 1577.71 1.95336 0.0801112 0
M  V30 16247 H 1576.41 4.0164 0.84343 0
M  V30 16248 H 1575.94 3.17184 2.32719 0
M  V30 16249 H 1577.96 3.46066 3.55602 0
M  V30 16250 N 1577.13 -0.380637 1.52934 0
M  V30 16251 C 1578.08 -1.46521 1.74687 0
M  V30 16252 C 1579.07 -1.49251 0.601087 0
M  V30 16253 O 1580.26 -1.54746 0.859224 0
M  V30 16254 C 1577.39 -2.84137 1.92668 0
M  V30 16255 C 1576.47 -2.85944 3.13204 0
M  V30 16256 N 1576.86 -2.57413 4.35399 0
M  V30 16257 C 1575.16 -3.1711 3.13619 0
M  V30 16258 C 1575.86 -2.66516 5.17053 0
M  V30 16259 N 1574.84 -3.00598 4.52926 0
M  V30 16260 H 1578.64 -1.23301 2.66785 0
M  V30 16261 H 1576.16 -0.588675 1.51355 0
M  V30 16262 H 1578.15 -3.62236 2.06376 0
M  V30 16263 H 1576.81 -3.08333 1.01789 0
M  V30 16264 H 1577.82 -2.31281 4.63389 0
M  V30 16265 H 1574.5 -3.46717 2.3258 0
M  V30 16266 H 1575.89 -2.47931 6.24484 0
M  V30 16267 N 1578.61 -1.44039 -0.639573 0
M  V30 16268 C 1579.86 -1.46088 -1.39652 0
M  V30 16269 C 1580.18 -0.0914602 -1.94785 0
M  V30 16270 O 1579.45 0.875097 -1.75268 0
M  V30 16271 H 1578.03 -0.537901 -0.518335 0
M  V30 16272 H 1580.69 -1.79751 -0.753365 0
M  V30 16273 H 1579.79 -2.1814 -2.23207 0
M  V30 16274 N 1580.09 0.879207 -1.30796 0
M  V30 16275 C 1581.31 1.66975 -1.23021 0
M  V30 16276 C 1581.74 1.87004 0.202798 0
M  V30 16277 O 1581.1 1.40514 1.14566 0
M  V30 16278 C 1581.14 3.02028 -1.97007 0
M  V30 16279 O 1580.25 3.91338 -1.30109 0
M  V30 16280 H 1579.59 0.509998 -0.425204 0
M  V30 16281 H 1582.12 1.09688 -1.72713 0
M  V30 16282 H 1582.13 3.5203 -2.06249 0
M  V30 16283 H 1580.8 2.8677 -3.01224 0
M  V30 16284 H 1579.38 3.49781 -1.29258 0
M  V30 16285 N 1581.57 1.13606 1.09231 0
M  V30 16286 C 1582.82 0.897278 1.81089 0
M  V30 16287 C 1583.14 -0.578066 1.86235 0
M  V30 16288 O 1582.41 -1.42018 1.34935 0
M  V30 16289 H 1580.99 0.328971 0.670662 0
M  V30 16290 H 1583.65 1.433 1.32103 0
M  V30 16291 H 1582.74 1.28979 2.84202 0
M  V30 16292 N 1583.05 -1.27244 0.929878 0
M  V30 16293 C 1584.27 -1.98373 0.587845 0
M  V30 16294 C 1584.69 -1.69349 -0.834638 0
M  V30 16295 O 1584.05 -0.955281 -1.55501 0
M  V30 16296 C 1584.1 -3.52381 0.806843 0
M  V30 16297 O 1583.82 -3.8039 2.17337 0
M  V30 16298 C 1585.32 -4.40761 0.473818 0
M  V30 16299 H 1582.54 -0.633015 0.22256 0
M  V30 16300 H 1585.08 -1.62043 1.2475 0
M  V30 16301 H 1583.24 -3.86914 0.193963 0
M  V30 16302 H 1583.65 -4.74968 2.22498 0
M  V30 16303 H 1585.13 -5.47824 0.677736 0
M  V30 16304 H 1585.6 -4.35209 -0.590734 0
M  V30 16305 H 1586.21 -4.11751 1.06493 0
M  V30 16306 N 1584.52 -0.695628 -1.41417 0
M  V30 16307 C 1585.77 -0.226954 -2.01526 0
M  V30 16308 C 1586.1 1.1704 -1.54968 0
M  V30 16309 O 1585.38 1.78999 -0.760895 0
M  V30 16310 C 1585.66 -0.284704 -3.58973 0
M  V30 16311 C 1585.51 -1.71901 -4.15656 0
M  V30 16312 C 1586.83 0.355454 -4.38662 0
M  V30 16313 H 1583.95 -0.0839425 -0.732204 0
M  V30 16314 H 1586.59 -0.884359 -1.68164 0
M  V30 16315 H 1584.74 0.275041 -3.87525 0
M  V30 16316 H 1586.42 -2.3326 -3.97979 0
M  V30 16317 H 1584.66 -2.25314 -3.70696 0
M  V30 16318 H 1585.33 -1.71095 -5.24815 0
M  V30 16319 H 1587.81 -0.121256 -4.15923 0
M  V30 16320 H 1586.68 0.284503 -5.48162 0
M  V30 16321 H 1586.94 1.43617 -4.18123 0
M  V30 16322 N 1586 1.51322 -0.440383 0
M  V30 16323 C 1586.93 2.25587 0.40537 0
M  V30 16324 C 1587.95 1.29721 0.983686 0
M  V30 16325 O 1589.14 1.55453 0.877308 0
M  V30 16326 C 1586.24 2.99848 1.57938 0
M  V30 16327 C 1585.41 4.22834 1.11939 0
M  V30 16328 C 1584.47 4.79649 2.16387 0
M  V30 16329 O 1583.49 5.41405 1.75697 0
M  V30 16330 N 1584.7 4.63948 3.48902 0
M  V30 16331 H 1587.46 2.98807 -0.231143 0
M  V30 16332 H 1585.02 1.59642 -0.26944 0
M  V30 16333 H 1587.01 3.34743 2.2744 0
M  V30 16334 H 1585.58 2.29619 2.12117 0
M  V30 16335 H 1584.8 3.93398 0.251323 0
M  V30 16336 H 1586.09 5.02637 0.7895 0
M  V30 16337 H 1585.49 4.14764 3.84691 0
M  V30 16338 H 1584.05 5.03196 4.14291 0
M  V30 16339 N 1587.48 0.171848 1.5666 0
M  V30 16340 C 1588.73 -0.467156 1.97963 0
M  V30 16341 C 1589.08 -1.60824 1.05609 0
M  V30 16342 O 1588.37 -1.9136 0.0958638 0
M  V30 16343 C 1588.57 -0.99711 3.43209 0
M  V30 16344 C 1588.4 0.0910934 4.49608 0
M  V30 16345 C 1587.17 0.540935 5.02396 0
M  V30 16346 C 1589.36 0.891679 5.06511 0
M  V30 16347 N 1587.35 1.60939 5.92429 0
M  V30 16348 C 1588.72 1.81005 5.9299 0
M  V30 16349 C 1590.77 0.9367 4.8901 0
M  V30 16350 C 1589.48 2.76964 6.6384 0
M  V30 16351 C 1591.5 1.88423 5.60581 0
M  V30 16352 C 1590.86 2.79008 6.46787 0
M  V30 16353 H 1586.96 -0.139033 0.769541 0
M  V30 16354 H 1589.55 0.272188 1.92788 0
M  V30 16355 H 1587.72 -1.70597 3.48929 0
M  V30 16356 H 1589.45 -1.60479 3.71522 0
M  V30 16357 H 1586.2 0.138545 4.73397 0
M  V30 16358 H 1586.63 2.14412 6.4215 0
M  V30 16359 H 1591.27 0.250396 4.22058 0
M  V30 16360 H 1588.99 3.46582 7.30005 0
M  V30 16361 H 1592.57 1.92518 5.49025 0
M  V30 16362 H 1591.45 3.51133 7.01196 0
M  V30 16363 N 1588.96 -1.5727 -0.101874 0
M  V30 16364 C 1590.19 -1.89943 -0.820329 0
M  V30 16365 C 1590.6 -0.764867 -1.72613 0
M  V30 16366 O 1589.96 0.263499 -1.80588 0
M  V30 16367 C 1590.01 -3.2219 -1.63939 0
M  V30 16368 O 1589.73 -4.31279 -0.770039 0
M  V30 16369 C 1591.23 -3.6868 -2.46151 0
M  V30 16370 H 1588.45 -0.628532 -0.234922 0
M  V30 16371 H 1590.99 -2.04339 -0.0811362 0
M  V30 16372 H 1589.15 -3.09411 -2.33117 0
M  V30 16373 H 1589.56 -5.07182 -1.33665 0
M  V30 16374 H 1591.04 -4.63928 -2.99124 0
M  V30 16375 H 1591.51 -2.96183 -3.24303 0
M  V30 16376 H 1592.12 -3.84303 -1.82185 0
M  V30 16377 N 1590.44 0.372521 -1.53134 0
M  V30 16378 C 1591.37 1.4759 -1.75357 0
M  V30 16379 C 1592.38 1.49938 -0.634223 0
M  V30 16380 O 1593.57 1.53543 -0.910322 0
M  V30 16381 C 1590.67 2.86382 -1.81214 0
M  V30 16382 C 1589.84 3.0781 -3.1076 0
M  V30 16383 C 1588.9 4.26677 -3.07949 0
M  V30 16384 O 1587.93 4.22186 -3.81769 0
M  V30 16385 N 1589.13 5.33729 -2.28283 0
M  V30 16386 H 1591.89 1.28908 -2.7056 0
M  V30 16387 H 1589.46 0.562186 -1.51826 0
M  V30 16388 H 1591.45 3.64029 -1.7682 0
M  V30 16389 H 1590.02 2.98344 -0.933249 0
M  V30 16390 H 1589.24 2.17884 -3.28512 0
M  V30 16391 H 1590.53 3.18991 -3.96386 0
M  V30 16392 H 1589.92 5.40238 -1.67806 0
M  V30 16393 H 1588.48 6.09979 -2.29714 0
M  V30 16394 N 1591.91 1.44376 0.631925 0
M  V30 16395 C 1592.82 1.5367 1.77264 0
M  V30 16396 C 1593.84 0.422425 1.68794 0
M  V30 16397 O 1595.02 0.679656 1.89585 0
M  V30 16398 C 1592.08 1.47743 3.13644 0
M  V30 16399 C 1591.14 2.70015 3.33752 0
M  V30 16400 C 1590.37 2.64362 4.63626 0
M  V30 16401 O 1590.6 1.7032 5.44378 0
M  V30 16402 O 1589.53 3.55201 4.85918 0
M  V30 16403 H 1593.36 2.5004 1.72376 0
M  V30 16404 H 1590.94 1.26614 0.793052 0
M  V30 16405 H 1592.82 1.46958 3.94945 0
M  V30 16406 H 1591.5 0.545165 3.19076 0
M  V30 16407 H 1590.41 2.76369 2.52133 0
M  V30 16408 H 1591.74 3.62286 3.33181 0
M  V30 16409 N 1593.39 -0.872258 1.31261 0
M  V30 16410 C 1594.3 -2.01185 1.20673 0
M  V30 16411 C 1595.32 -1.73558 0.123921 0
M  V30 16412 O 1596.49 -1.98487 0.341288 0
M  V30 16413 C 1593.56 -3.34481 0.91232 0
M  V30 16414 C 1592.62 -3.75446 2.08179 0
M  V30 16415 C 1591.85 -5.02382 1.80134 0
M  V30 16416 O 1592.08 -5.6564 0.735358 0
M  V30 16417 O 1591.01 -5.40059 2.65744 0
M  V30 16418 H 1594.84 -2.13049 2.16434 0
M  V30 16419 H 1592.42 -1.00021 1.10978 0
M  V30 16420 H 1594.3 -4.14419 0.763879 0
M  V30 16421 H 1592.98 -3.23696 -0.0152802 0
M  V30 16422 H 1591.88 -2.96159 2.28562 0
M  V30 16423 H 1593.22 -3.90853 2.99156 0
M  V30 16424 N 1594.87 -1.14184 -1.08627 0
M  V30 16425 C 1596.12 -0.906869 -1.80611 0
M  V30 16426 C 1596.44 0.568182 -1.86539 0
M  V30 16427 O 1595.71 1.41301 -1.35687 0
M  V30 16428 H 1594.29 -0.332523 -0.668908 0
M  V30 16429 H 1596.95 -1.43998 -1.31341 0
M  V30 16430 H 1596.05 -1.30484 -2.83514 0
M  V30 16431 N 1596.35 1.26749 -0.936613 0
M  V30 16432 C 1597.58 1.98059 -0.598357 0
M  V30 16433 C 1597.99 1.6979 0.825646 0
M  V30 16434 O 1597.35 0.963514 1.54992 0
M  V30 16435 C 1597.4 3.51948 -0.825519 0
M  V30 16436 O 1597.12 3.79232 -2.19351 0
M  V30 16437 C 1598.62 4.40503 -0.497186 0
M  V30 16438 H 1595.84 0.631826 -0.225914 0
M  V30 16439 H 1598.39 1.61379 -1.25607 0
M  V30 16440 H 1596.54 3.86806 -0.214479 0
M  V30 16441 H 1596.95 4.73782 -2.25014 0
M  V30 16442 H 1598.43 5.47457 -0.706779 0
M  V30 16443 H 1598.91 4.35516 0.567645 0
M  V30 16444 H 1599.51 4.11181 -1.08675 0
M  V30 16445 N 1597.83 0.703118 1.41046 0
M  V30 16446 C 1599.07 0.236818 2.00708 0
M  V30 16447 C 1599.4 -1.17008 1.55994 0
M  V30 16448 O 1598.67 -1.79094 0.793871 0
M  V30 16449 H 1597.25 0.0845643 0.742198 0
M  V30 16450 H 1599.91 0.905964 1.72564 0
M  V30 16451 H 1599 0.260141 3.11014 0
M  V30 16452 N 1599.3 -1.51086 0.448402 0
M  V30 16453 C 1600.55 -2.02476 -0.114511 0
M  V30 16454 C 1600.88 -1.33126 -1.4139 0
M  V30 16455 O 1600.16 -0.449665 -1.89231 0
M  V30 16456 C 1600.44 -3.58659 -0.321842 0
M  V30 16457 C 1600.29 -4.38612 0.996975 0
M  V30 16458 C 1601.61 -4.26473 -1.08667 0
M  V30 16459 H 1598.73 -0.735906 -0.0401431 0
M  V30 16460 H 1601.37 -1.80622 0.589563 0
M  V30 16461 H 1599.52 -3.77411 -0.92157 0
M  V30 16462 H 1601.2 -4.31484 1.63154 0
M  V30 16463 H 1599.44 -4.03255 1.599 0
M  V30 16464 H 1600.11 -5.46087 0.805817 0
M  V30 16465 H 1602.59 -4.12058 -0.578559 0
M  V30 16466 H 1601.46 -5.35611 -1.20051 0
M  V30 16467 H 1601.72 -3.88086 -2.11758 0
M  V30 16468 O 1600.82 -0.321328 -1.58271 0
M  V30 16469 H 1601.51 0.238994 -1.9222 0
M  V30 END ATOM
M  V30 BEGIN BOND
M  V30 END BOND
M  V30 END CTAB
M  END
$$$$
