drugbank_target|Q9UM01 Y+L amino acid transporter 1 (DB13146)
 OpenBabel12092120583D

  0  0  0     0  0            999 V3000
M  V30 BEGIN CTAB
M  V30 COUNTS 7975 8076 0 0 0
M  V30 BEGIN ATOM
M  V30 1 H -0.908 1.98254 -0.117106 0
M  V30 2 N 0 1.576 0 0
M  V30 3 C 0.933 2.03868 1.02534 0
M  V30 4 C 1.911 0.928543 1.3348 0
M  V30 5 O 3.095 1.19667 1.45644 0
M  V30 6 C 0.222 2.43627 2.35294 0
M  V30 7 C -0.732 3.65373 2.2001 0
M  V30 8 S 0.101 5.13292 1.52614 0
M  V30 9 C 1.257 5.56322 2.86805 0
M  V30 10 H 1.49 2.90518 0.631377 0
M  V30 11 H -0.977 1.52953 0.210867 0
M  V30 12 H 0.981 2.67203 3.11629 0
M  V30 13 H -0.358 1.57376 2.7183 0
M  V30 14 H -1.165 3.90944 3.18086 0
M  V30 15 H -1.563 3.418 1.51819 0
M  V30 16 H 0.729 5.58782 3.83104 0
M  V30 17 H 1.672 6.56266 2.65933 0
M  V30 18 H 2.08 4.83886 2.90714 0
M  V30 19 N 1.4781 -0.272755 1.55222 0
M  V30 20 C 2.7241 -1.00581 1.761 0
M  V30 21 C 3.0571 -1.85932 0.560625 0
M  V30 22 O 2.3321 -1.89416 -0.441801 0
M  V30 23 C 2.6151 -1.88816 3.06628 0
M  V30 24 C 2.4681 -1.06457 4.37021 0
M  V30 25 C 3.7871 -2.8752 3.33197 0
M  V30 26 H 0.9061 -0.364244 0.640699 0
M  V30 27 H 3.5481 -0.278189 1.87952 0
M  V30 28 H 1.6981 -2.50856 2.96654 0
M  V30 29 H 3.3701 -0.464863 4.58952 0
M  V30 30 H 1.6131 -0.368043 4.32236 0
M  V30 31 H 2.2841 -1.71514 5.24678 0
M  V30 32 H 4.7601 -2.35615 3.42965 0
M  V30 33 H 3.6361 -3.46399 4.25792 0
M  V30 34 H 3.8971 -3.62657 2.52849 0
M  V30 35 N 2.9562 -1.48159 -0.537278 0
M  V30 36 C 4.2332 -1.46291 -1.29839 0
M  V30 37 C 4.6132 -0.170613 -2.10409 0
M  V30 38 O 3.9612 0.847746 -2.12192 0
M  V30 39 C 4.1712 -2.72055 -2.18603 0
M  V30 40 C 5.5192 -3.20087 -2.7898 0
M  V30 41 O 6.5432 -2.72921 -2.28894 0
M  V30 42 O 5.4022 -4.02138 -3.70064 0
M  V30 43 H 2.4962 -0.583906 -0.585647 0
M  V30 44 H 5.0422 -1.60384 -0.554534 0
M  V30 45 H 3.8142 -3.57628 -1.58801 0
M  V30 46 H 3.4372 -2.60646 -3.00249 0
M  V30 47 N 4.4343 0.785586 -1.36625 0
M  V30 48 C 5.6593 1.57963 -1.34397 0
M  V30 49 C 6.0843 1.87964 0.071526 0
M  V30 50 O 5.4423 1.48182 1.0446 0
M  V30 51 C 5.4903 2.87511 -2.17646 0
M  V30 52 O 4.5943 3.81281 -1.57158 0
M  V30 53 H 3.9353 0.479014 -0.459828 0
M  V30 54 H 6.4653 0.973411 -1.79961 0
M  V30 55 H 6.4753 3.36745 -2.30362 0
M  V30 56 H 5.1503 2.65002 -3.20541 0
M  V30 57 H 3.7273 3.39885 -1.53403 0
M  V30 58 N 5.9124 1.20967 1.01018 0
M  V30 59 C 7.1404 1.04956 1.78303 0
M  V30 60 C 7.5554 -0.400915 1.84494 0
M  V30 61 O 6.9124 -1.27826 1.30257 0
M  V30 62 C 6.9634 1.63403 3.22462 0
M  V30 63 O 6.6844 3.02775 3.16637 0
M  V30 64 C 8.1854 1.52432 4.16268 0
M  V30 65 H 5.4054 0.368858 0.560522 0
M  V30 66 H 7.9494 1.60193 1.27116 0
M  V30 67 H 6.1044 1.1227 3.70775 0
M  V30 68 H 6.5184 3.30626 4.07169 0
M  V30 69 H 7.9924 1.98078 5.15237 0
M  V30 70 H 8.4694 0.477875 4.36592 0
M  V30 71 H 9.0754 2.02787 3.73841 0
M  V30 72 N 7.3905 -1.2043 1.01659 0
M  V30 73 C 8.3005 -2.2689 0.596484 0
M  V30 74 C 9.3165 -1.70107 -0.36599 0
M  V30 75 O 10.4925 -2.00117 -0.226942 0
M  V30 76 C 7.5575 -3.4665 -0.0586659 0
M  V30 77 C 6.6185 -4.18662 0.949751 0
M  V30 78 C 5.8515 -5.32705 0.32577 0
M  V30 79 O 6.0745 -5.63656 -0.874509 0
M  V30 80 O 5.0085 -5.92803 1.04249 0
M  V30 81 H 8.8345 -2.65041 1.4828 0
M  V30 82 H 6.4195 -1.27048 0.786082 0
M  V30 83 H 8.3015 -4.19256 -0.424564 0
M  V30 84 H 6.9765 -3.10375 -0.91918 0
M  V30 85 H 5.8835 -3.48229 1.36702 0
M  V30 86 H 7.2165 -4.58878 1.78023 0
M  V30 87 N 8.8686 -0.792821 -1.36206 0
M  V30 88 C 10.0986 -0.378275 -2.03107 0
M  V30 89 C 10.5066 1.01119 -1.59911 0
M  V30 90 O 9.8496 1.66052 -0.785658 0
M  V30 91 C 9.9116 -0.366535 -3.57627 0
M  V30 92 C 9.5756 -1.70416 -4.24037 0
M  V30 93 C 10.5726 -2.6602 -4.46687 0
M  V30 94 C 8.2576 -1.98439 -4.6144 0
M  V30 95 C 10.2516 -3.8784 -5.05825 0
M  V30 96 C 7.9386 -3.20525 -5.20295 0
M  V30 97 C 8.9366 -4.15044 -5.42427 0
M  V30 98 O 8.6246 -5.34978 -6.00045 0
M  V30 99 H 8.3566 -0.153543 -0.658332 0
M  V30 100 H 10.9106 -1.07383 -1.75094 0
M  V30 101 H 9.1406 0.385539 -3.84773 0
M  V30 102 H 10.8296 0.0238088 -4.05893 0
M  V30 103 H 11.5956 -2.45658 -4.18183 0
M  V30 104 H 7.4746 -1.25686 -4.43536 0
M  V30 105 H 11.0186 -4.61628 -5.23015 0
M  V30 106 H 6.9156 -3.40764 -5.48225 0
M  V30 107 H 7.6836 -5.36088 -6.18508 0
M  V30 108 N 10.3467 1.47872 -0.545128 0
M  V30 109 C 11.2567 2.33633 0.212746 0
M  V30 110 C 12.2727 1.4744 0.923983 0
M  V30 111 O 13.4487 1.80393 0.895572 0
M  V30 112 C 10.5137 3.23884 1.23693 0
M  V30 113 C 9.5747 4.25961 0.534417 0
M  V30 114 C 8.8077 5.11899 1.5098 0
M  V30 115 O 9.0307 5.00077 2.7437 0
M  V30 116 O 7.9647 5.92831 1.0409 0
M  V30 117 H 11.7907 2.99714 -0.490416 0
M  V30 118 H 9.3757 1.46235 -0.305871 0
M  V30 119 H 11.2577 3.79666 1.82843 0
M  V30 120 H 9.9327 2.60446 1.92222 0
M  V30 121 H 8.8397 3.73972 -0.0979679 0
M  V30 122 H 10.1727 4.92079 -0.109213 0
M  V30 123 N 11.8248 0.280983 1.55075 0
M  V30 124 C 13.0708 -0.33461 2.00021 0
M  V30 125 C 13.4038 -1.55063 1.16915 0
M  V30 126 O 12.6788 -1.93006 0.240646 0
M  V30 127 C 12.9618 -0.711007 3.53011 0
M  V30 128 C 12.8148 0.512766 4.46868 0
M  V30 129 C 14.1338 -1.54522 4.12081 0
M  V30 130 H 11.2528 -0.120147 0.727141 0
M  V30 131 H 13.8948 0.389097 1.85973 0
M  V30 132 H 12.0448 -1.32761 3.65112 0
M  V30 133 H 13.7168 1.15131 4.46702 0
M  V30 134 H 11.9598 1.14975 4.18286 0
M  V30 135 H 12.6308 0.205556 5.51617 0
M  V30 136 H 15.1068 -1.02442 4.03293 0
M  V30 137 H 13.9828 -1.77739 5.19327 0
M  V30 138 H 14.2438 -2.52813 3.62682 0
M  V30 139 N 13.3029 -1.57598 0.00835791 0
M  V30 140 C 14.2659 -2.07884 -0.965242 0
M  V30 141 C 15.2659 -0.989825 -1.26725 0
M  V30 142 O 16.4559 -1.25218 -1.21104 0
M  V30 143 C 13.5879 -2.52731 -2.28779 0
M  V30 144 H 14.7809 -2.95178 -0.530112 0
M  V30 145 H 12.3339 -1.54458 -0.239283 0
M  V30 146 H 13.0689 -1.68705 -2.76964 0
M  V30 147 H 12.8539 -3.32272 -2.08177 0
M  V30 148 H 14.3439 -2.91933 -2.98605 0
M  V30 149 N 14.781 0.264519 -1.55364 0
M  V30 150 C 16.006 1.01726 -1.80739 0
M  V30 151 C 16.431 1.78836 -0.583044 0
M  V30 152 O 15.789 1.75167 0.467566 0
M  V30 153 C 15.837 1.94482 -3.03659 0
M  V30 154 O 14.941 3.03386 -2.7934 0
M  V30 155 H 14.282 0.290395 -0.597132 0
M  V30 156 H 16.812 0.290854 -2.02522 0
M  V30 157 H 16.822 2.36278 -3.32621 0
M  V30 158 H 15.497 1.37772 -3.92418 0
M  V30 159 H 14.074 2.65844 -2.61498 0
M  V30 160 N 16.2591 1.48442 0.529413 0
M  V30 161 C 17.1911 1.59095 1.64989 0
M  V30 162 C 18.2041 0.475212 1.5571 0
M  V30 163 O 19.3931 0.746081 1.6216 0
M  V30 164 C 16.4931 1.50518 3.0364 0
M  V30 165 C 15.6661 2.77142 3.38395 0
M  V30 166 C 14.7251 2.62012 4.56329 0
M  V30 167 O 13.7511 3.35898 4.59522 0
M  V30 168 N 14.9531 1.71667 5.54536 0
M  V30 169 H 17.7181 2.55723 1.56287 0
M  V30 170 H 15.2791 1.45173 0.716697 0
M  V30 171 H 17.2711 1.38091 3.80412 0
M  V30 172 H 15.8411 0.618627 3.06418 0
M  V30 173 H 15.0611 3.0413 2.50796 0
M  V30 174 H 16.3491 3.61146 3.58401 0
M  V30 175 H 15.7471 1.10841 5.54735 0
M  V30 176 H 14.3041 1.65178 6.30523 0
M  V30 177 N 17.7372 -0.778329 1.37039 0
M  V30 178 C 19.1482 -1.35421 1.28523 0
M  V30 179 C 19.4992 -1.96075 -0.0700901 0
M  V30 180 O 18.6242 -1.93352 -0.971801 0
M  V30 181 C 19.2192 -2.46211 2.32735 0
M  V30 182 C 17.7782 -2.99585 2.27873 0
M  V30 183 C 16.9252 -1.72748 2.16918 0
M  V30 184 H 19.8762 -0.5791 1.47757 0
M  V30 185 H 19.8972 -3.2552 1.9702 0
M  V30 186 H 19.4092 -2.02036 3.31365 0
M  V30 187 H 17.5102 -3.48152 1.32745 0
M  V30 188 H 17.6232 -3.55646 3.21018 0
M  V30 189 H 15.9872 -1.95416 1.63354 0
M  V30 190 H 16.7702 -1.30686 3.17452 0
M  V30 191 N 19.2153 -1.21501 -1.00376 0
M  V30 192 C 20.1253 -0.991447 -2.12621 0
M  V30 193 C 21.1413 0.0568446 -1.73907 0
M  V30 194 O 22.3173 -0.13348 -2.00957 0
M  V30 195 C 19.3823 -0.560312 -3.42142 0
M  V30 196 C 18.4433 -1.68096 -3.95022 0
M  V30 197 C 17.6763 -1.2703 -5.18362 0
M  V30 198 O 17.8993 -0.144438 -5.70217 0
M  V30 199 O 16.8333 -2.08269 -5.64719 0
M  V30 200 H 20.6593 -1.93158 -2.34358 0
M  V30 201 H 18.2443 -0.999999 -1.10997 0
M  V30 202 H 20.1263 -0.329724 -4.20108 0
M  V30 203 H 18.8013 0.351089 -3.2179 0
M  V30 204 H 17.7083 -1.96597 -3.18278 0
M  V30 205 H 19.0413 -2.56983 -4.19786 0
M  V30 206 N 20.6934 1.19889 -1.02296 0
M  V30 207 C 21.9394 1.89701 -0.717033 0
M  V30 208 C 22.2724 1.7905 0.751989 0
M  V30 209 O 21.5474 1.17891 1.547 0
M  V30 210 C 21.8304 3.40858 -1.16136 0
M  V30 211 C 21.6834 3.60411 -2.69117 0
M  V30 212 C 23.0024 4.33876 -0.737549 0
M  V30 213 H 20.1214 0.688874 -0.261957 0
M  V30 214 H 22.7634 1.41154 -1.27183 0
M  V30 215 H 20.9134 3.82335 -0.689342 0
M  V30 216 H 22.5854 3.28145 -3.2422 0
M  V30 217 H 20.8284 3.03665 -3.0979 0
M  V30 218 H 21.4994 4.66396 -2.95261 0
M  V30 219 H 23.9754 4.00081 -1.14344 0
M  V30 220 H 22.8514 5.38242 -1.0764 0
M  V30 221 H 23.1124 4.40628 0.360436 0
M  V30 222 N 22.1715 0.800033 1.35784 0
M  V30 223 C 23.0815 0.207204 2.33683 0
M  V30 224 C 24.0975 -0.64631 1.61551 0
M  V30 225 O 25.2735 -0.559604 1.93469 0
M  V30 226 C 22.3385 -0.639659 3.40748 0
M  V30 227 C 21.3995 0.233585 4.28664 0
M  V30 228 C 20.6325 -0.572954 5.30616 0
M  V30 229 O 20.8555 -1.80816 5.40982 0
M  V30 230 O 19.7895 0.0327285 6.01891 0
M  V30 231 H 23.6155 1.01692 2.86169 0
M  V30 232 H 21.2005 0.561691 1.38439 0
M  V30 233 H 23.0825 -1.12223 4.06182 0
M  V30 234 H 21.7575 -1.42708 2.90544 0
M  V30 235 H 20.6645 0.763147 3.66233 0
M  V30 236 H 21.9975 0.984784 4.82248 0
M  V30 237 N 23.6496 -1.47581 0.552962 0
M  V30 238 C 24.8776 -2.06875 0.0320556 0
M  V30 239 C 25.2926 -1.40625 -1.25976 0
M  V30 240 O 24.6496 -0.501349 -1.75479 0
M  V30 241 C 24.7006 -3.61092 -0.17167 0
M  V30 242 O 24.4216 -4.24858 1.06899 0
M  V30 243 C 25.9226 -4.37242 -0.730344 0
M  V30 244 H 23.1426 -0.669561 0.043915 0
M  V30 245 H 25.6866 -1.89646 0.765163 0
M  V30 246 H 23.8416 -3.7785 -0.854894 0
M  V30 247 H 24.2556 -5.17334 0.864059 0
M  V30 248 H 25.7296 -5.45842 -0.822203 0
M  V30 249 H 26.2066 -4.03235 -1.74064 0
M  V30 250 H 26.8126 -4.25219 -0.0829543 0
M  V30 251 N 25.1277 -0.289203 -1.54924 0
M  V30 252 C 26.3527 0.329299 -2.04769 0
M  V30 253 C 26.7777 1.4763 -1.16564 0
M  V30 254 O 26.1357 1.80527 -0.167186 0
M  V30 255 C 26.1837 0.774438 -3.52186 0
M  V30 256 O 25.2877 1.88038 -3.67036 0
M  V30 257 H 24.6287 0.0659259 -0.660719 0
M  V30 258 H 27.1587 -0.42761 -2.00082 0
M  V30 259 H 27.1687 1.06642 -3.93816 0
M  V30 260 H 25.8437 -0.0646707 -4.1585 0
M  V30 261 H 24.4207 1.58985 -3.3731 0
M  V30 262 N 26.6058 1.57591 -0.0167156 0
M  V30 263 C 28.0168 1.79201 0.523834 0
M  V30 264 C 28.3678 0.925796 1.72984 0
M  V30 265 O 27.4928 0.132792 2.15992 0
M  V30 266 C 28.0878 3.25 0.957091 0
M  V30 267 C 26.6468 3.47648 1.44283 0
M  V30 268 C 25.7938 2.74374 0.401757 0
M  V30 269 H 28.7448 1.56831 -0.242816 0
M  V30 270 H 28.7658 3.34031 1.82219 0
M  V30 271 H 28.2778 3.88019 0.0791415 0
M  V30 272 H 26.3788 2.89866 2.34113 0
M  V30 273 H 26.4918 4.56352 1.45877 0
M  V30 274 H 24.8558 2.39485 0.867121 0
M  V30 275 H 25.6388 3.40102 -0.467513 0
M  V30 276 N 28.0839 -0.256276 1.55502 0
M  V30 277 C 29.0139 -1.32102 1.92539 0
M  V30 278 C 29.9949 -1.50684 0.789194 0
M  V30 279 O 31.1799 -1.63449 1.04872 0
M  V30 280 C 28.3099 -2.67752 2.21192 0
M  V30 281 C 27.2639 -2.63878 3.36975 0
M  V30 282 C 26.5899 -4.03236 3.51147 0
M  V30 283 C 27.8899 -2.21682 4.72921 0
M  V30 284 H 29.5839 -1.01351 2.81724 0
M  V30 285 H 27.1299 -0.486105 1.35547 0
M  V30 286 H 29.0829 -3.42365 2.45691 0
M  V30 287 H 27.8069 -3.0012 1.28824 0
M  V30 288 H 26.4659 -1.91722 3.12471 0
M  V30 289 H 26.1139 -4.32854 2.56216 0
M  V30 290 H 25.8139 -4.01535 4.29003 0
M  V30 291 H 27.3379 -4.79563 3.77957 0
M  V30 292 H 28.7519 -2.86023 4.96854 0
M  V30 293 H 27.1489 -2.3111 5.53812 0
M  V30 294 H 28.2189 -1.16833 4.70615 0
M  V30 295 N 29.562 -1.4872 -0.521534 0
M  V30 296 C 30.81 -1.56857 -1.27437 0
M  V30 297 C 31.131 -0.247982 -1.93417 0
M  V30 298 O 30.401 0.731151 -1.81744 0
M  V30 299 H 28.981 -0.577885 -0.473347 0
M  V30 300 H 31.643 -1.85233 -0.606205 0
M  V30 301 H 30.739 -2.35402 -2.0492 0
M  V30 302 N 31.0401 0.771051 -1.3745 0
M  V30 303 C 32.3171 1.519 -1.23231 0
M  V30 304 C 32.6971 2.10383 0.173809 0
M  V30 305 O 32.0451 1.95583 1.18151 0
M  V30 306 C 32.2551 2.59933 -2.32886 0
M  V30 307 C 33.6031 3.27316 -2.70461 0
M  V30 308 O 34.6271 2.70228 -2.32068 0
M  V30 309 O 33.4861 4.30531 -3.36608 0
M  V30 310 H 30.5801 0.672803 -0.480901 0
M  V30 311 H 33.1261 0.807957 -1.49232 0
M  V30 312 H 31.8981 2.14842 -3.27045 0
M  V30 313 H 31.5211 3.38637 -2.08353 0
M  V30 314 N 32.5182 1.22032 0.997298 0
M  V30 315 C 33.7662 1.04016 1.73278 0
M  V30 316 C 34.0872 -0.426255 1.90284 0
M  V30 317 O 33.3572 -1.30694 1.45931 0
M  V30 318 H 31.9372 0.381897 0.642 0
M  V30 319 H 34.5992 1.5347 1.20137 0
M  V30 320 H 33.6952 1.51441 2.72896 0
M  V30 321 N 33.9963 -1.19345 1.0293 0
M  V30 322 C 34.9593 -2.20793 0.615069 0
M  V30 323 C 35.9593 -1.57553 -0.321533 0
M  V30 324 O 37.1493 -1.73862 -0.108483 0
M  V30 325 C 34.2813 -3.40754 -0.0999222 0
M  V30 326 H 35.4743 -2.58955 1.51269 0
M  V30 327 H 33.0273 -1.3303 0.820534 0
M  V30 328 H 33.7623 -3.0811 -1.01187 0
M  V30 329 H 33.5473 -3.87889 0.57309 0
M  V30 330 H 35.0373 -4.15898 -0.376645 0
M  V30 331 N 35.4744 -0.807222 -1.35358 0
M  V30 332 C 36.6994 -0.399309 -2.0352 0
M  V30 333 C 37.1244 0.981986 -1.60433 0
M  V30 334 O 36.4824 1.63601 -0.781299 0
M  V30 335 C 36.5304 -0.491552 -3.57234 0
M  V30 336 O 35.6344 0.494754 -4.09421 0
M  V30 337 H 34.9754 -0.166682 -0.642739 0
M  V30 338 H 37.5054 -1.09328 -1.72941 0
M  V30 339 H 37.5154 -0.361588 -4.06395 0
M  V30 340 H 36.1904 -1.49907 -3.87944 0
M  V30 341 H 34.7674 0.324977 -3.71481 0
M  V30 342 N 36.9525 1.47285 -0.560781 0
M  V30 343 C 38.3635 1.86258 -0.128343 0
M  V30 344 C 38.7145 1.46699 1.30284 0
M  V30 345 O 37.8395 0.871698 1.98067 0
M  V30 346 C 38.4345 3.38044 -0.22614 0
M  V30 347 C 36.9935 3.76096 0.151283 0
M  V30 348 C 36.1405 2.71335 -0.572084 0
M  V30 349 H 39.0915 1.38752 -0.770297 0
M  V30 350 H 39.1125 3.76441 0.554322 0
M  V30 351 H 38.6245 3.66806 -1.26788 0
M  V30 352 H 36.7255 3.52951 1.19399 0
M  V30 353 H 36.8385 4.78641 -0.209765 0
M  V30 354 H 35.2025 2.54696 -0.0147653 0
M  V30 355 H 35.9855 3.02938 -1.61504 0
M  V30 356 N 38.4306 0.297415 1.54768 0
M  V30 357 C 39.6786 -0.312295 1.99673 0
M  V30 358 C 39.9996 -1.54686 1.18732 0
M  V30 359 O 39.2696 -1.93854 0.282382 0
M  V30 360 H 37.8496 -0.118381 0.73756 0
M  V30 361 H 40.5116 0.407915 1.90583 0
M  V30 362 H 39.6076 -0.586813 3.06534 0
M  V30 363 N 39.9087 -1.5758 0.0250728 0
M  V30 364 C 41.3197 -1.79476 -0.514323 0
M  V30 365 C 41.6707 -0.934956 -1.72491 0
M  V30 366 O 40.7957 -0.144245 -2.15919 0
M  V30 367 C 41.3907 -3.25503 -0.939842 0
M  V30 368 C 39.9497 -3.48408 -1.42438 0
M  V30 369 C 39.0967 -2.74583 -0.387201 0
M  V30 370 H 42.0477 -1.567 0.25113 0
M  V30 371 H 42.0687 -3.34992 -1.80445 0
M  V30 372 H 41.5807 -3.88056 -0.0585628 0
M  V30 373 H 39.6817 -2.91103 -2.32572 0
M  V30 374 H 39.7947 -4.57119 -1.43455 0
M  V30 375 H 38.1587 -2.39942 -0.854409 0
M  V30 376 H 38.9417 -3.39849 0.485543 0
M  V30 377 N 41.3868 0.248026 -1.55636 0
M  V30 378 C 42.2968 1.32859 -1.93354 0
M  V30 379 C 43.3128 1.52719 -0.833838 0
M  V30 380 O 44.4888 1.66363 -1.13513 0
M  V30 381 C 41.5538 2.66337 -2.21958 0
M  V30 382 C 40.6148 2.55008 -3.45354 0
M  V30 383 C 39.8478 3.82121 -3.72584 0
M  V30 384 O 40.0708 4.83951 -3.01907 0
M  V30 385 O 39.0048 3.80822 -4.6611 0
M  V30 386 H 42.8308 1.03862 -2.85388 0
M  V30 387 H 40.4158 0.448686 -1.42503 0
M  V30 388 H 42.2978 3.45216 -2.4167 0
M  V30 389 H 40.9728 2.95068 -1.33103 0
M  V30 390 H 39.8798 1.7442 -3.30951 0
M  V30 391 H 41.2128 2.31222 -4.34508 0
M  V30 392 N 42.8649 1.48995 0.513639 0
M  V30 393 C 43.7969 1.60836 1.63293 0
M  V30 394 C 44.8099 0.491701 1.55197 0
M  V30 395 O 45.9989 0.763238 1.6136 0
M  V30 396 C 43.0989 1.53731 3.02027 0
M  V30 397 C 42.2719 2.80715 3.35437 0
M  V30 398 C 41.3309 2.66837 4.53525 0
M  V30 399 O 40.3569 3.40753 4.55934 0
M  V30 400 N 41.5589 1.77539 5.52684 0
M  V30 401 H 44.3239 2.57366 1.53566 0
M  V30 402 H 41.8849 1.45925 0.701259 0
M  V30 403 H 43.8769 1.42118 3.78926 0
M  V30 404 H 42.4469 0.651092 3.05744 0
M  V30 405 H 41.6669 3.06772 2.47557 0
M  V30 406 H 42.9549 3.64927 3.54551 0
M  V30 407 H 42.3529 1.16719 5.53528 0
M  V30 408 H 40.9099 1.71856 6.28736 0
M  V30 409 N 44.343 -0.763751 1.37857 0
M  V30 410 C 45.589 -1.52483 1.33704 0
M  V30 411 C 45.922 -1.94051 -0.0759612 0
M  V30 412 O 45.197 -1.64675 -1.03501 0
M  V30 413 C 45.48 -2.78441 2.28348 0
M  V30 414 C 45.333 -2.43075 3.78463 0
M  V30 415 C 46.652 -3.80415 2.21298 0
M  V30 416 H 43.771 -0.553169 0.487005 0
M  V30 417 H 46.413 -0.875562 1.68624 0
M  V30 418 H 44.563 -3.33842 1.987 0
M  V30 419 H 46.235 -1.93527 4.18742 0
M  V30 420 H 44.478 -1.75666 3.96641 0
M  V30 421 H 45.149 -3.33149 4.40132 0
M  V30 422 H 47.625 -3.34527 2.47449 0
M  V30 423 H 46.501 -4.66257 2.89647 0
M  V30 424 H 46.762 -4.25262 1.20849 0
M  V30 425 N 45.8211 -1.22559 -0.990812 0
M  V30 426 C 46.7681 -0.997519 -2.0813 0
M  V30 427 C 47.7381 0.0814702 -1.659 0
M  V30 428 O 48.9231 -0.0685424 -1.90677 0
M  V30 429 C 46.0631 -0.583615 -3.40129 0
M  V30 430 C 45.1761 -1.7336 -3.9569 0
M  V30 431 C 44.3111 -1.26748 -5.15857 0
M  V30 432 C 43.3501 -2.38888 -5.63559 0
M  V30 433 N 42.4871 -1.93308 -6.74964 0
M  V30 434 H 47.3271 -1.93099 -2.26973 0
M  V30 435 H 44.8641 -0.962114 -1.11273 0
M  V30 436 H 46.8221 -0.324801 -4.15934 0
M  V30 437 H 45.4521 0.312845 -3.2128 0
M  V30 438 H 44.5041 -2.10669 -3.16738 0
M  V30 439 H 45.8161 -2.57704 -4.27071 0
M  V30 440 H 44.9701 -0.966173 -5.98957 0
M  V30 441 H 43.7091 -0.394272 -4.86104 0
M  V30 442 H 42.7141 -2.69805 -4.79046 0
M  V30 443 H 43.9391 -3.26728 -5.95336 0
M  V30 444 H 41.8851 -1.08352 -6.4699 0
M  V30 445 H 41.8021 -2.71217 -7.05675 0
M  V30 446 H 43.0701 -1.66252 -7.61564 0
M  V30 447 N 47.2992 1.18797 -1.03562 0
M  V30 448 C 48.2292 2.24472 -0.643019 0
M  V30 449 C 49.2102 1.66433 0.351283 0
M  V30 450 O 50.3952 1.92803 0.232505 0
M  V30 451 C 47.5252 3.473 4.24935e-05 0
M  V30 452 C 46.4792 4.18055 -0.917257 0
M  V30 453 C 45.8052 5.34519 -0.138941 0
M  V30 454 C 47.1052 4.72109 -2.23407 0
M  V30 455 H 48.7992 2.57566 -1.52643 0
M  V30 456 H 46.3452 1.23806 -0.735394 0
M  V30 457 H 48.2982 4.20426 0.286383 0
M  V30 458 H 47.0222 3.13424 0.918299 0
M  V30 459 H 45.6812 3.46821 -1.1879 0
M  V30 460 H 45.3292 4.96891 0.781562 0
M  V30 461 H 45.0292 5.82794 -0.750005 0
M  V30 462 H 46.5532 6.10438 0.1405 0
M  V30 463 H 47.9672 5.36955 -2.00879 0
M  V30 464 H 46.3642 5.30897 -2.79765 0
M  V30 465 H 47.4342 3.89807 -2.88407 0
M  V30 466 N 48.7773 0.814389 1.34928 0
M  V30 467 C 49.7243 0.22822 2.29669 0
M  V30 468 C 50.6943 -0.642164 1.53184 0
M  V30 469 O 51.8793 -0.585605 1.81591 0
M  V30 470 C 49.0193 -0.61089 3.3965 0
M  V30 471 C 48.1323 0.280792 4.31086 0
M  V30 472 C 47.2673 -0.567067 5.28165 0
M  V30 473 C 46.3063 0.324531 6.11239 0
M  V30 474 N 45.4433 -0.483756 7.00431 0
M  V30 475 H 50.2833 1.04153 2.79206 0
M  V30 476 H 47.8203 0.525133 1.37407 0
M  V30 477 H 49.7783 -1.11263 4.0209 0
M  V30 478 H 48.4083 -1.38939 2.91369 0
M  V30 479 H 47.4603 0.900688 3.69583 0
M  V30 480 H 48.7723 0.966723 4.89342 0
M  V30 481 H 47.9263 -1.13363 5.96015 0
M  V30 482 H 46.6653 -1.28654 4.70425 0
M  V30 483 H 45.6703 0.903298 5.42329 0
M  V30 484 H 46.8953 1.04198 6.71059 0
M  V30 485 H 44.8413 -1.18706 6.45171 0
M  V30 486 H 44.7583 0.143965 7.55863 0
M  V30 487 H 46.0263 -1.03334 7.7262 0
M  V30 488 N 50.2554 -1.46986 0.568584 0
M  V30 489 C 51.2024 -2.30153 -0.172707 0
M  V30 490 C 52.1724 -1.39759 -0.897586 0
M  V30 491 O 53.3574 -1.68716 -0.891044 0
M  V30 492 C 50.4974 -3.23952 -1.1895 0
M  V30 493 C 49.6104 -4.29441 -0.469517 0
M  V30 494 C 48.7454 -5.1038 -1.47259 0
M  V30 495 C 47.7844 -6.07632 -0.738225 0
M  V30 496 N 46.9214 -6.8149 -1.68868 0
M  V30 497 H 51.7614 -2.93019 0.542596 0
M  V30 498 H 49.2984 -1.44422 0.279401 0
M  V30 499 H 51.2564 -3.76767 -1.79173 0
M  V30 500 H 49.8864 -2.62926 -1.87269 0
M  V30 501 H 48.9384 -3.79594 0.247467 0
M  V30 502 H 50.2504 -4.98689 0.105241 0
M  V30 503 H 49.4044 -5.67402 -2.14803 0
M  V30 504 H 48.1434 -4.4106 -2.08128 0
M  V30 505 H 47.1484 -5.49778 -0.0489293 0
M  V30 506 H 48.3734 -6.78966 -0.135129 0
M  V30 507 H 46.3194 -6.14891 -2.28573 0
M  V30 508 H 46.2364 -7.46948 -1.16636 0
M  V30 509 H 47.5044 -7.43078 -2.3549 0
M  V30 510 N 51.7335 -0.305618 -1.54608 0
M  V30 511 C 52.6435 0.57778 -2.27374 0
M  V30 512 C 53.6595 1.14451 -1.31061 0
M  V30 513 O 54.8355 1.16831 -1.6405 0
M  V30 514 C 51.9005 1.73123 -3.00382 0
M  V30 515 C 50.9615 1.19812 -4.12242 0
M  V30 516 C 50.1945 2.2966 -4.81759 0
M  V30 517 O 50.4175 3.49651 -4.50666 0
M  V30 518 O 49.3515 1.96091 -5.69062 0
M  V30 519 H 53.1775 -0.012624 -3.03697 0
M  V30 520 H 50.7625 -0.0719184 -1.49227 0
M  V30 521 H 52.6445 2.40315 -3.4616 0
M  V30 522 H 51.3195 2.30815 -2.26949 0
M  V30 523 H 50.2265 0.491798 -3.70853 0
M  V30 524 H 51.5595 0.666566 -4.87666 0
M  V30 525 N 53.2116 1.57565 -0.0334293 0
M  V30 526 C 54.4606 1.91155 0.643639 0
M  V30 527 C 54.7736 0.91192 1.73042 0
M  V30 528 O 55.9796 1.13923 2.46442 0
M  V30 529 C 54.4356 3.39443 1.1961 0
M  V30 530 C 54.0436 4.47774 0.142381 0
M  V30 531 C 55.7876 3.82094 1.84944 0
M  V30 532 C 53.6946 5.87162 0.706727 0
M  V30 533 H 52.6246 0.713368 0.244176 0
M  V30 534 H 55.2756 1.8323 -0.0994323 0
M  V30 535 H 53.6576 3.42313 1.99092 0
M  V30 536 H 54.8316 4.56469 -0.630296 0
M  V30 537 H 53.1466 4.14352 -0.412446 0
M  V30 538 H 55.7436 4.83591 2.2813 0
M  V30 539 H 56.0866 3.17386 2.69392 0
M  V30 540 H 56.6196 3.81665 1.12145 0
M  V30 541 H 53.3586 6.55424 -0.0997178 0
M  V30 542 H 52.8786 5.82064 1.44779 0
M  V30 543 H 54.5576 6.35866 1.19514 0
M  V30 544 N 54.6897 -0.239769 1.55765 0
M  V30 545 C 55.9147 -0.988373 1.82335 0
M  V30 546 C 56.3397 -1.77886 0.611421 0
M  V30 547 O 55.6977 -1.75889 -0.439639 0
M  V30 548 C 55.7457 -1.89627 3.06715 0
M  V30 549 O 54.8497 -2.98904 2.84131 0
M  V30 550 H 54.1907 -0.280858 0.601677 0
M  V30 551 H 56.7207 -0.258597 2.02959 0
M  V30 552 H 56.7307 -2.30957 3.36338 0
M  V30 553 H 55.4057 -1.31511 3.9456 0
M  V30 554 H 53.9827 -2.61651 2.65694 0
M  V30 555 N 56.1678 -1.49265 -0.50573 0
M  V30 556 C 57.0978 -1.68495 -1.61653 0
M  V30 557 C 58.0788 -0.53366 -1.61512 0
M  V30 558 O 59.2638 -0.76897 -1.78327 0
M  V30 559 C 56.3938 -1.74709 -3.00157 0
M  V30 560 C 55.3478 -2.89581 -3.15162 0
M  V30 561 C 54.6738 -2.80903 -4.5497 0
M  V30 562 C 55.9738 -4.30578 -2.95634 0
M  V30 563 H 57.6678 -2.61493 -1.45814 0
M  V30 564 H 55.2138 -1.25838 -0.70005 0
M  V30 565 H 57.1668 -1.86748 -3.77761 0
M  V30 566 H 55.8908 -0.783067 -3.17074 0
M  V30 567 H 54.5498 -2.77136 -2.39982 0
M  V30 568 H 54.1978 -1.82419 -4.68756 0
M  V30 569 H 53.8978 -3.57999 -4.65951 0
M  V30 570 H 55.4218 -2.94944 -5.34641 0
M  V30 571 H 56.8358 -4.4373 -3.63011 0
M  V30 572 H 55.2328 -5.0886 -3.18091 0
M  V30 573 H 56.3028 -4.45352 -1.91806 0
M  V30 574 N 57.6459 0.756429 -1.3826 0
M  V30 575 C 58.5759 1.88374 -1.37976 0
M  V30 576 C 59.5569 1.68311 -0.246082 0
M  V30 577 O 60.7419 1.88944 -0.44874 0
M  V30 578 C 57.8719 3.25864 -1.20125 0
M  V30 579 C 56.8259 3.60523 -2.30666 0
M  V30 580 C 56.1519 4.9672 -1.97923 0
M  V30 581 C 57.4519 3.65692 -3.72916 0
M  V30 582 H 59.1459 1.88869 -2.32312 0
M  V30 583 H 56.6919 0.907272 -1.11824 0
M  V30 584 H 58.6449 4.0438 -1.18552 0
M  V30 585 H 57.3689 3.25841 -0.222498 0
M  V30 586 H 56.0279 2.84324 -2.3142 0
M  V30 587 H 55.6759 4.93253 -0.985393 0
M  V30 588 H 55.3759 5.20878 -2.71955 0
M  V30 589 H 56.8999 5.77618 -1.97964 0
M  V30 590 H 58.3139 4.34328 -3.74208 0
M  V30 591 H 56.7109 4.01358 -4.4613 0
M  V30 592 H 57.7809 2.65987 -4.05436 0
M  V30 593 N 59.124 1.23083 0.984299 0
M  V30 594 C 60.072 1.00593 2.09723 0
M  V30 595 C 61.066 -0.0538014 1.69315 0
M  V30 596 O 62.272 0.0993719 1.79725 0
M  V30 597 H 58.647 0.30817 0.685956 0
M  V30 598 H 60.618 1.95012 2.2586 0
M  V30 599 C 59.367 0.609601 3.42314 0
M  V30 600 H 58.69 1.41675 3.73856 0
M  V30 601 H 60.13 0.491726 4.21139 0
M  V30 602 C 58.589 -0.681745 3.2993 0
M  V30 603 O 59.119 -1.73192 3.62446 0
M  V30 604 N 57.325 -0.656178 2.83095 0
M  V30 605 H 56.872 0.198759 2.56832 0
M  V30 606 H 56.83 -1.52044 2.75191 0
M  V30 607 N 60.6021 -1.18246 1.0419 0
M  V30 608 C 61.8501 -1.87886 0.744543 0
M  V30 609 C 62.1711 -1.8082 -0.730006 0
M  V30 610 O 61.4411 -1.22736 -1.52685 0
M  V30 611 H 60.0211 -0.695556 0.272417 0
M  V30 612 H 62.6831 -1.43494 1.31892 0
M  V30 613 H 61.7791 -2.9389 1.05049 0
M  V30 614 N 62.0802 -0.821533 -1.34494 0
M  V30 615 C 63.3262 -0.409552 -1.98622 0
M  V30 616 C 63.6592 1.0244 -1.64984 0
M  V30 617 O 62.9342 1.71325 -0.920758 0
M  V30 618 C 63.2172 -0.610458 -3.54888 0
M  V30 619 C 63.0702 -2.09043 -3.98273 0
M  V30 620 C 64.3892 -0.0455379 -4.40076 0
M  V30 621 H 61.5082 -0.15028 -0.721516 0
M  V30 622 H 64.1502 -1.03384 -1.59411 0
M  V30 623 H 62.3002 -0.079044 -3.8842 0
M  V30 624 H 63.9722 -2.68537 -3.75081 0
M  V30 625 H 62.2152 -2.58139 -3.48635 0
M  V30 626 H 62.8862 -2.18182 -5.07051 0
M  V30 627 H 65.3622 -0.499557 -4.1309 0
M  V30 628 H 64.2382 -0.215922 -5.48475 0
M  V30 629 H 64.4992 1.04939 -4.29465 0
M  V30 630 N 63.5583 1.46682 -0.576371 0
M  V30 631 C 64.7983 2.04306 -0.0621356 0
M  V30 632 C 65.1623 1.4389 1.2712 0
M  V30 633 O 66.3633 1.92675 1.87429 0
M  V30 634 C 64.6343 3.57399 0.00927922 0
M  V30 635 S 66.1933 4.36309 0.466859 0
M  V30 636 H 63.0113 0.710167 -0.0344016 0
M  V30 637 H 65.6133 1.79807 -0.767437 0
M  V30 638 H 64.3173 3.98889 -0.965178 0
M  V30 639 H 63.8483 3.86424 0.737547 0
M  V30 640 H 65.8633 4.6533 1.72287 0
M  V30 641 N 65.0364 0.313813 1.54444 0
M  V30 642 C 65.9664 -0.549454 2.26943 0
M  V30 643 C 66.9474 -1.12741 1.27372 0
M  V30 644 O 68.1324 -1.15436 1.56167 0
M  V30 645 C 65.2624 -1.71523 3.01989 0
M  V30 646 C 64.2164 -1.26703 4.08816 0
M  V30 647 C 63.5424 -2.51898 4.71647 0
M  V30 648 C 64.8424 -0.388962 5.2085 0
M  V30 649 H 66.5364 0.0552661 2.99349 0
M  V30 650 H 64.0824 0.0280207 1.43973 0
M  V30 651 H 66.0354 -2.32535 3.51433 0
M  V30 652 H 64.7594 -2.34639 2.27183 0
M  V30 653 H 63.4184 -0.679896 3.6024 0
M  V30 654 H 63.0664 -3.13356 3.93468 0
M  V30 655 H 62.7664 -2.22605 5.43802 0
M  V30 656 H 64.2904 -3.1369 5.23861 0
M  V30 657 H 65.7044 -0.905107 5.6611 0
M  V30 658 H 64.1014 -0.18924 5.99802 0
M  V30 659 H 65.1714 0.582699 4.81386 0
M  V30 660 N 66.5145 -1.57545 0.0417849 0
M  V30 661 C 67.7635 -1.91494 -0.633492 0
M  V30 662 C 68.0765 -0.921084 -1.72556 0
M  V30 663 O 69.2825 -1.15228 -2.45835 0
M  V30 664 C 67.7385 -3.40072 -1.17808 0
M  V30 665 C 67.3465 -4.47843 -0.118633 0
M  V30 666 C 69.0905 -3.8307 -1.82915 0
M  V30 667 C 66.9975 -5.87529 -0.675578 0
M  V30 668 H 65.9275 -0.714653 -0.24039 0
M  V30 669 H 68.5785 -1.83175 0.109148 0
M  V30 670 H 66.9605 -3.43364 -1.97274 0
M  V30 671 H 68.1345 -4.56128 0.654494 0
M  V30 672 H 66.4495 -4.14128 0.434414 0
M  V30 673 H 69.0465 -4.84794 -2.25563 0
M  V30 674 H 69.3895 -3.1881 -2.67705 0
M  V30 675 H 69.9225 -3.82255 -1.10119 0
M  V30 676 H 66.6615 -6.55362 0.134475 0
M  V30 677 H 66.1815 -5.82824 -1.4169 0
M  V30 678 H 67.8605 -6.36491 -1.1614 0
M  V30 679 N 67.9926 0.231505 -1.5589 0
M  V30 680 C 69.2386 0.95877 -1.78705 0
M  V30 681 C 69.5716 1.8438 -0.609725 0
M  V30 682 O 68.8466 1.90521 0.391426 0
M  V30 683 C 69.1296 1.8062 -3.11526 0
M  V30 684 C 68.9826 0.948328 -4.39689 0
M  V30 685 C 70.3016 2.78585 -3.40703 0
M  V30 686 H 67.4206 0.347129 -0.650131 0
M  V30 687 H 70.0626 0.228259 -1.88624 0
M  V30 688 H 68.2126 2.42902 -3.03201 0
M  V30 689 H 69.8846 0.343016 -4.60023 0
M  V30 690 H 68.1276 0.253314 -4.3306 0
M  V30 691 H 68.7986 1.57543 -5.29041 0
M  V30 692 H 71.2746 2.26439 -3.49091 0
M  V30 693 H 70.1506 3.34988 -4.34826 0
M  V30 694 H 70.4116 3.55825 -2.62375 0
M  V30 695 N 69.4707 1.49531 0.497807 0
M  V30 696 C 70.7187 1.58865 1.24926 0
M  V30 697 C 71.0397 0.278721 1.92998 0
M  V30 698 O 70.3097 -0.702144 1.82885 0
M  V30 699 H 68.8897 0.585343 0.464094 0
M  V30 700 H 71.5517 1.86174 0.57666 0
M  V30 701 H 70.6477 2.38633 2.01149 0
M  V30 702 N 70.9488 -0.749086 1.3866 0
M  V30 703 C 71.8968 -1.88428 1.36373 0
M  V30 704 C 72.8908 -1.67561 0.248929 0
M  V30 705 O 74.0968 -1.75074 0.41821 0
M  V30 706 H 70.4718 -0.620023 0.42553 0
M  V30 707 H 72.4428 -1.87473 2.32156 0
M  V30 708 C 71.1918 -3.25961 1.21014 0
M  V30 709 H 70.5148 -3.42607 2.06059 0
M  V30 710 H 71.9548 -4.05625 1.23469 0
M  V30 711 C 70.4138 -3.36799 -0.0825941 0
M  V30 712 O 70.9438 -3.87517 -1.05797 0
M  V30 713 N 69.1498 -2.90258 -0.140939 0
M  V30 714 H 68.6968 -2.49174 0.653477 0
M  V30 715 H 68.6548 -2.97889 -1.00545 0
M  V30 716 N 72.4269 -1.23603 -0.977757 0
M  V30 717 C 73.3599 -0.962772 -2.06896 0
M  V30 718 C 74.3379 0.0998743 -1.62293 0
M  V30 719 O 75.5219 -0.0349421 -1.88468 0
M  V30 720 C 72.6489 -0.45095 -3.35685 0
M  V30 721 C 71.6949 -1.50061 -3.99229 0
M  V30 722 S 72.5279 -3.07884 -4.38142 0
M  V30 723 C 73.6839 -2.58378 -5.7008 0
M  V30 724 H 73.9169 -1.88677 -2.29757 0
M  V30 725 H 71.4499 -1.06876 -1.11431 0
M  V30 726 H 73.4079 -0.162261 -4.10179 0
M  V30 727 H 72.0689 0.452179 -3.10828 0
M  V30 728 H 71.2619 -1.09269 -4.92013 0
M  V30 729 H 70.8639 -1.73878 -3.31123 0
M  V30 730 H 73.1559 -2.00563 -6.47133 0
M  V30 731 H 74.0989 -3.49711 -6.15717 0
M  V30 732 H 74.5069 -1.99143 -5.28207 0
M  V30 733 N 73.905 1.17692 -1.04816 0
M  V30 734 C 75.154 1.87192 -0.751132 0
M  V30 735 C 75.467 1.8169 0.724441 0
M  V30 736 O 76.673 2.46625 1.13527 0
M  V30 737 C 75.129 3.35857 -1.29338 0
M  V30 738 C 74.737 3.4987 -2.79812 0
M  V30 739 C 76.481 4.10709 -1.07322 0
M  V30 740 C 74.388 4.92536 -3.27356 0
M  V30 741 H 73.318 0.701162 -0.277288 0
M  V30 742 H 75.969 1.32932 -1.26496 0
M  V30 743 H 74.351 3.89631 -0.707376 0
M  V30 744 H 75.525 3.06332 -3.44235 0
M  V30 745 H 73.84 2.88433 -3.00325 0
M  V30 746 H 76.437 5.15952 -1.4035 0
M  V30 747 H 76.78 4.16299 -0.0108001 0
M  V30 748 H 77.313 3.6313 -1.62423 0
M  V30 749 H 74.052 4.92119 -4.33012 0
M  V30 750 H 73.572 5.3676 -2.67673 0
M  V30 751 H 75.251 5.61288 -3.21815 0
M  V30 752 N 75.3831 0.828654 1.34056 0
M  V30 753 C 76.6311 0.41863 1.97717 0
M  V30 754 C 76.9521 -1.02314 1.66002 0
M  V30 755 O 76.2221 -1.71119 0.953683 0
M  V30 756 H 74.8021 0.151809 0.731412 0
M  V30 757 H 77.4641 1.05936 1.63596 0
M  V30 758 H 76.5601 0.542318 3.07352 0
M  V30 759 N 76.8612 -1.46375 0.584142 0
M  V30 760 C 78.0862 -2.07268 0.0740405 0
M  V30 761 C 78.5112 -1.42979 -1.22223 0
M  V30 762 O 77.8692 -0.514092 -1.73859 0
M  V30 763 C 77.9172 -3.60518 -0.0767769 0
M  V30 764 O 77.0212 -3.96533 -1.13292 0
M  V30 765 H 76.3622 -0.660961 0.0634524 0
M  V30 766 H 78.8922 -1.87991 0.807492 0
M  V30 767 H 78.9022 -4.07021 -0.282489 0
M  V30 768 H 77.5772 -4.06702 0.86986 0
M  V30 769 H 76.1542 -3.61738 -0.905553 0
M  V30 770 N 78.3393 -0.321999 -1.54275 0
M  V30 771 C 79.5873 0.280489 -2.00144 0
M  V30 772 C 79.9083 1.52777 -1.21178 0
M  V30 773 O 79.1783 1.9338 -0.313187 0
M  V30 774 H 77.7583 0.106632 -0.73935 0
M  V30 775 H 80.4203 -0.438184 -1.8991 0
M  V30 776 H 79.5163 0.537972 -3.07428 0
M  V30 777 N 79.8174 1.5752 -0.0501392 0
M  V30 778 C 81.0664 1.91827 0.623328 0
M  V30 779 C 81.3794 0.930222 1.72065 0
M  V30 780 O 82.5854 1.1653 2.4522 0
M  V30 781 C 81.0414 3.40692 1.16003 0
M  V30 782 C 80.6494 4.479 0.0948811 0
M  V30 783 C 82.3934 3.84034 1.80881 0
M  V30 784 C 80.3004 5.87879 0.644411 0
M  V30 785 H 79.2304 0.715918 0.236596 0
M  V30 786 H 81.8814 1.83115 -0.118861 0
M  V30 787 H 80.2634 3.44405 1.9545 0
M  V30 788 H 81.4374 4.55775 -0.678675 0
M  V30 789 H 79.7524 4.13892 -0.45637 0
M  V30 790 H 82.3494 4.85984 2.22988 0
M  V30 791 H 82.6924 3.20225 2.6601 0
M  V30 792 H 83.2254 3.82833 1.0809 0
M  V30 793 H 79.9644 6.55282 -0.169229 0
M  V30 794 H 79.4844 5.83567 1.38598 0
M  V30 795 H 81.1634 6.37098 1.12763 0
M  V30 796 N 81.2955 -0.223234 1.56011 0
M  V30 797 C 82.5425 -0.947875 1.78946 0
M  V30 798 C 82.8705 -1.844 0.618608 0
M  V30 799 O 82.1255 -1.91629 -0.397093 0
M  V30 800 C 82.4245 -1.81948 3.0762 0
M  V30 801 C 82.0905 -1.07672 4.37856 0
M  V30 802 C 80.7525 -0.871544 4.73242 0
M  V30 803 C 83.1045 -0.552081 5.18268 0
M  V30 804 C 80.4325 -0.129791 5.86556 0
M  V30 805 C 82.7845 0.17632 6.32354 0
M  V30 806 C 81.4485 0.39277 6.66343 0
M  V30 807 H 80.7185 -0.346852 0.654809 0
M  V30 808 H 83.3655 -0.216171 1.90276 0
M  V30 809 H 81.6705 -2.61899 2.91404 0
M  V30 810 H 83.3675 -2.38227 3.22566 0
M  V30 811 H 79.9575 -1.24662 4.1007 0
M  V30 812 H 84.1415 -0.698076 4.91366 0
M  V30 813 H 79.3975 0.048153 6.11381 0
M  V30 814 H 83.5715 0.590367 6.93893 0
M  V30 815 H 81.1985 0.969466 7.53993 0
M  V30 816 N 82.7736 -1.49793 -0.48987 0
M  V30 817 C 84.0196 -1.60078 -1.24511 0
M  V30 818 C 84.3526 -0.291608 -1.91998 0
M  V30 819 O 83.6276 0.705647 -1.81248 0
M  V30 820 C 83.9106 -2.76791 -2.30345 0
M  V30 821 C 83.7636 -4.17535 -1.67286 0
M  V30 822 C 85.0826 -2.89111 -3.31817 0
M  V30 823 H 82.2016 -0.582645 -0.451324 0
M  V30 824 H 84.8436 -1.82117 -0.541612 0
M  V30 825 H 82.9936 -2.5813 -2.90346 0
M  V30 826 H 84.6656 -4.4774 -1.11026 0
M  V30 827 H 82.9086 -4.22665 -0.976577 0
M  V30 828 H 83.5796 -4.95094 -2.44103 0
M  V30 829 H 86.0556 -3.06133 -2.81819 0
M  V30 830 H 84.9316 -3.72433 -4.03219 0
M  V30 831 H 85.1926 -1.9893 -3.94815 0
M  V30 832 N 84.2517 0.741722 -1.39055 0
M  V30 833 C 85.4767 1.53607 -1.39354 0
M  V30 834 C 85.9017 1.88096 0.0116905 0
M  V30 835 O 85.2597 1.5143 0.996924 0
M  V30 836 C 85.3077 2.80441 -2.26682 0
M  V30 837 O 84.4117 3.76088 -1.69208 0
M  V30 838 H 83.7527 0.464142 -0.474835 0
M  V30 839 H 86.2827 0.915665 -1.82967 0
M  V30 840 H 86.2927 3.29246 -2.40959 0
M  V30 841 H 84.9677 2.5467 -3.2881 0
M  V30 842 H 83.5447 3.34833 -1.64138 0
M  V30 843 N 85.7298 1.2412 0.971189 0
M  V30 844 C 87.1408 1.07236 1.52831 0
M  V30 845 C 87.4918 -0.357352 1.92918 0
M  V30 846 O 86.6168 -1.24528 1.76979 0
M  V30 847 C 87.2118 1.94043 2.77728 0
M  V30 848 C 85.7708 1.81394 3.29808 0
M  V30 849 C 84.9178 1.89189 2.02738 0
M  V30 850 H 87.8688 1.37648 0.789864 0
M  V30 851 H 87.8898 1.47066 3.5093 0
M  V30 852 H 87.4018 2.98093 2.4852 0
M  V30 853 H 85.5028 0.801634 3.63874 0
M  V30 854 H 85.6158 2.65294 3.98944 0
M  V30 855 H 83.9798 1.32877 2.17292 0
M  V30 856 H 84.7628 2.94812 1.759 0
M  V30 857 N 87.2079 -1.17134 1.05439 0
M  V30 858 C 88.1549 -2.21235 0.657539 0
M  V30 859 C 89.1249 -1.62551 -0.341543 0
M  V30 860 O 90.3099 -1.89379 -0.232393 0
M  V30 861 C 87.4499 -3.45076 0.0410575 0
M  V30 862 C 86.5629 -4.18042 1.08927 0
M  V30 863 C 85.6979 -5.29376 0.439848 0
M  V30 864 C 84.7369 -5.94132 1.4722 0
M  V30 865 N 83.8739 -6.96975 0.846756 0
M  V30 866 H 88.7139 -2.54534 1.54972 0
M  V30 867 H 86.2509 -1.25028 0.775006 0
M  V30 868 H 88.2089 -4.15862 -0.33383 0
M  V30 869 H 86.8389 -3.12353 -0.814568 0
M  V30 870 H 85.8909 -3.45945 1.58196 0
M  V30 871 H 87.2029 -4.62306 1.87282 0
M  V30 872 H 86.3569 -6.06699 0.0115125 0
M  V30 873 H 85.0959 -4.86251 -0.375656 0
M  V30 874 H 84.1009 -5.15538 1.91052 0
M  V30 875 H 85.3259 -6.39337 2.28965 0
M  V30 876 H 83.2719 -6.5598 0.0518075 0
M  V30 877 H 83.1889 -7.39565 1.5678 0
M  V30 878 H 84.4569 -7.78239 0.443277 0
M  V30 879 N 88.686 -0.835752 -1.33615 0
M  V30 880 C 89.934 -0.429109 -1.97492 0
M  V30 881 C 90.255 1.01433 -1.66543 0
M  V30 882 O 89.525 1.70611 -0.962744 0
M  V30 883 H 88.105 -0.155686 -0.730596 0
M  V30 884 H 90.767 -1.06802 -1.63031 0
M  V30 885 H 89.863 -0.55861 -3.0706 0
M  V30 886 N 90.1641 1.46063 -0.591896 0
M  V30 887 C 91.4101 2.02638 -0.0811191 0
M  V30 888 C 91.7431 1.4613 1.27905 0
M  V30 889 O 91.0181 0.629908 1.84017 0
M  V30 890 C 91.3011 3.60091 -0.0252436 0
M  V30 891 C 91.1541 4.26965 -1.41496 0
M  V30 892 C 92.4731 4.3496 0.670685 0
M  V30 893 H 89.5921 0.73635 -0.0309524 0
M  V30 894 H 92.2341 1.741 -0.760859 0
M  V30 895 H 90.3841 3.84535 0.553624 0
M  V30 896 H 92.0561 4.13756 -2.0397 0
M  V30 897 H 90.2991 3.85971 -1.98011 0
M  V30 898 H 90.9701 5.35781 -1.32825 0
M  V30 899 H 93.4461 4.15716 0.178825 0
M  V30 900 H 92.3221 5.44686 0.678837 0
M  V30 901 H 92.5831 4.06685 1.73379 0
M  V30 902 N 91.6422 0.330177 1.54103 0
M  V30 903 C 92.5722 -0.525353 2.27513 0
M  V30 904 C 93.5532 -1.11383 1.2856 0
M  V30 905 O 94.7382 -1.13773 1.57383 0
M  V30 906 C 91.8682 -1.6831 3.03791 0
M  V30 907 C 90.8222 -1.2236 4.10137 0
M  V30 908 C 90.1482 -2.46882 4.74293 0
M  V30 909 C 91.4482 -0.333697 5.21233 0
M  V30 910 H 93.1422 0.087013 2.99274 0
M  V30 911 H 90.6882 0.0432893 1.43935 0
M  V30 912 H 92.6412 -2.28795 3.5388 0
M  V30 913 H 91.3652 -2.32216 2.29659 0
M  V30 914 H 90.0242 -0.64165 3.60941 0
M  V30 915 H 89.6722 -3.09165 3.96769 0
M  V30 916 H 89.3722 -2.16825 5.46133 0
M  V30 917 H 90.8962 -3.08117 5.27159 0
M  V30 918 H 92.3102 -0.845013 5.67038 0
M  V30 919 H 90.7072 -0.125612 5.99969 0
M  V30 920 H 91.7772 0.633724 4.80741 0
M  V30 921 N 93.1203 -1.57491 0.0584922 0
M  V30 922 C 94.3693 -1.92155 -0.613146 0
M  V30 923 C 94.6823 -0.939334 -1.71569 0
M  V30 924 O 95.8883 -1.17829 -2.44599 0
M  V30 925 C 94.3443 -3.41303 -1.14195 0
M  V30 926 C 93.9523 -4.47944 -0.0711265 0
M  V30 927 C 95.6963 -3.84988 -1.78841 0
M  V30 928 C 93.6033 -5.88212 -0.613225 0
M  V30 929 H 92.5333 -0.717162 -0.232796 0
M  V30 930 H 95.1843 -1.83049 0.12857 0
M  V30 931 H 93.5663 -3.45437 -1.93621 0
M  V30 932 H 94.7403 -4.55408 0.702836 0
M  V30 933 H 93.0553 -4.13644 0.478313 0
M  V30 934 H 95.6523 -4.87159 -2.20408 0
M  V30 935 H 95.9953 -3.21632 -2.64308 0
M  V30 936 H 96.5283 -3.83401 -1.06059 0
M  V30 937 H 93.2673 -6.55183 0.203978 0
M  V30 938 H 92.7873 -5.84294 -1.35501 0
M  V30 939 H 94.4663 -6.37687 -1.09383 0
M  V30 940 N 94.5984 0.214957 -1.56127 0
M  V30 941 C 95.8284 0.953707 -1.8327 0
M  V30 942 C 96.2364 1.78181 -0.636262 0
M  V30 943 O 95.5794 1.79191 0.404516 0
M  V30 944 C 95.6414 1.91516 -3.0424 0
M  V30 945 C 95.3054 1.27094 -4.38972 0
M  V30 946 C 96.3024 0.657575 -5.15725 0
M  V30 947 C 93.9874 1.28073 -4.85698 0
M  V30 948 C 95.9814 0.0625968 -6.37369 0
M  V30 949 C 93.6684 0.681914 -6.07283 0
M  V30 950 C 94.6664 0.0739046 -6.8296 0
M  V30 951 O 94.3544 -0.515582 -8.02245 0
M  V30 952 H 94.0864 0.284764 -0.613095 0
M  V30 953 H 96.6404 0.233283 -2.04071 0
M  V30 954 H 94.8704 2.67475 -2.79274 0
M  V30 955 H 96.5594 2.52001 -3.18198 0
M  V30 956 H 97.3254 0.642288 -4.80728 0
M  V30 957 H 93.2044 1.74337 -4.26764 0
M  V30 958 H 96.7484 -0.412593 -6.96379 0
M  V30 959 H 92.6454 0.694636 -6.41752 0
M  V30 960 H 93.4134 -0.410544 -8.1747 0
M  V30 961 N 96.0765 1.50051 0.48192 0
M  V30 962 C 97.3015 1.64508 1.26301 0
M  V30 963 C 97.7265 0.323851 1.85291 0
M  V30 964 O 97.0845 -0.710969 1.66778 0
M  V30 965 C 97.1325 2.7305 2.35533 0
M  V30 966 O 96.2365 2.3355 3.39895 0
M  V30 967 H 95.5775 0.549978 0.372048 0
M  V30 968 H 98.1075 1.9636 0.574786 0
M  V30 969 H 98.1175 2.95799 2.8101 0
M  V30 970 H 96.7925 3.68946 1.91967 0
M  V30 971 H 95.3695 2.21205 3.00204 0
M  V30 972 N 97.5546 -0.734337 1.39446 0
M  V30 973 C 98.5176 -1.83004 1.37994 0
M  V30 974 C 99.5176 -1.58397 0.276938 0
M  V30 975 O 100.708 -1.65785 0.534875 0
M  V30 976 C 97.8396 -3.20802 1.1532 0
M  V30 977 H 99.0326 -1.85694 2.35494 0
M  V30 978 H 96.5856 -0.938059 1.25021 0
M  V30 979 H 97.3206 -3.23772 0.185036 0
M  V30 980 H 97.1056 -3.4006 1.95197 0
M  V30 981 H 98.5956 -4.00862 1.17046 0
M  V30 982 N 99.0327 -1.24633 -0.964593 0
M  V30 983 C 100.258 -1.11596 -1.74818 0
M  V30 984 C 100.683 0.32723 -1.85232 0
M  V30 985 O 100.041 1.23695 -1.32549 0
M  V30 986 C 100.089 -1.76397 -3.1451 0
M  V30 987 O 99.1927 -1.03685 -3.99153 0
M  V30 988 H 98.5337 -0.390196 -0.537255 0
M  V30 989 H 101.064 -1.65002 -1.20977 0
M  V30 990 H 101.074 -1.8228 -3.65018 0
M  V30 991 H 99.7487 -2.81401 -3.06246 0
M  V30 992 H 98.3257 -1.05611 -3.57632 0
M  V30 993 N 100.511 1.16574 -1.06058 0
M  V30 994 C 101.758 1.87047 -0.775873 0
M  V30 995 C 102.086 1.81562 0.697534 0
M  V30 996 O 101.341 1.22445 1.52662 0
M  V30 997 C 101.64 3.36195 -1.21275 0
M  V30 998 C 101.306 3.6188 -2.68986 0
M  V30 999 C 99.9678 3.68599 -3.09335 0
M  V30 1000 C 102.32 3.72648 -3.64394 0
M  V30 1001 C 99.6478 3.83584 -4.43937 0
M  V30 1002 C 102 3.89154 -4.98741 0
M  V30 1003 C 100.664 3.94114 -5.3873 0
M  V30 1004 H 99.9338 0.684452 -0.283912 0
M  V30 1005 H 102.581 1.37853 -1.32925 0
M  V30 1006 H 100.886 3.87505 -0.578528 0
M  V30 1007 H 102.583 3.89103 -0.969542 0
M  V30 1008 H 99.1728 3.57281 -2.36744 0
M  V30 1009 H 103.357 3.66769 -3.34356 0
M  V30 1010 H 98.6128 3.85677 -4.74409 0
M  V30 1011 H 102.787 3.96427 -5.72554 0
M  V30 1012 H 100.414 4.05478 -6.43033 0
M  V30 1013 N 101.989 0.842826 1.3317 0
M  V30 1014 C 103.237 0.439577 1.97262 0
M  V30 1015 C 103.558 -1.00548 1.67078 0
M  V30 1016 O 102.828 -1.70098 0.971779 0
M  V30 1017 H 101.408 0.159558 0.72976 0
M  V30 1018 H 104.07 1.07665 1.62463 0
M  V30 1019 H 103.166 0.574886 3.0676 0
M  V30 1020 N 103.467 -1.45747 0.599634 0
M  V30 1021 C 104.397 -2.33235 -0.111306 0
M  V30 1022 C 105.378 -1.46359 -0.866781 0
M  V30 1023 O 106.563 -1.75146 -0.838904 0
M  V30 1024 C 103.693 -3.28932 -1.11451 0
M  V30 1025 C 102.647 -4.25381 -0.472772 0
M  V30 1026 C 101.973 -5.1071 -1.58365 0
M  V30 1027 C 103.273 -5.18831 0.600948 0
M  V30 1028 H 104.967 -2.92927 0.61919 0
M  V30 1029 H 102.513 -1.40857 0.299215 0
M  V30 1030 H 104.466 -3.89002 -1.62036 0
M  V30 1031 H 103.19 -2.67381 -1.8755 0
M  V30 1032 H 101.849 -3.66598 0.0121472 0
M  V30 1033 H 101.497 -4.45533 -2.33473 0
M  V30 1034 H 101.197 -5.7604 -1.15982 0
M  V30 1035 H 102.721 -5.73647 -2.09194 0
M  V30 1036 H 104.135 -5.73019 0.179491 0
M  V30 1037 H 102.532 -5.92595 0.946076 0
M  V30 1038 H 103.602 -4.6174 1.48068 0
M  V30 1039 N 104.945 -0.338344 -1.53925 0
M  V30 1040 C 106.17 0.263987 -2.05713 0
M  V30 1041 C 106.595 1.43847 -1.21201 0
M  V30 1042 O 105.953 1.79904 -0.224535 0
M  V30 1043 C 106.001 0.662 -3.54471 0
M  V30 1044 O 105.105 1.76265 -3.72833 0
M  V30 1045 H 104.446 0.0448722 -0.662482 0
M  V30 1046 H 106.976 -0.491048 -1.9862 0
M  V30 1047 H 106.986 0.940594 -3.9701 0
M  V30 1048 H 105.661 -0.196937 -4.15433 0
M  V30 1049 H 104.238 1.48173 -3.42198 0
M  V30 1050 N 106.423 1.57458 -0.0668435 0
M  V30 1051 C 107.353 2.15468 0.899764 0
M  V30 1052 C 108.334 1.08042 1.31381 0
M  V30 1053 O 109.519 1.36054 1.38574 0
M  V30 1054 C 106.649 2.71232 2.16911 0
M  V30 1055 C 105.603 3.83781 1.89463 0
M  V30 1056 C 104.929 4.26127 3.22986 0
M  V30 1057 C 106.229 5.08238 1.20381 0
M  V30 1058 H 107.923 2.96488 0.416529 0
M  V30 1059 H 105.469 1.4262 0.198908 0
M  V30 1060 H 107.422 3.10458 2.84945 0
M  V30 1061 H 106.146 1.87426 2.67468 0
M  V30 1062 H 104.805 3.45051 1.23836 0
M  V30 1063 H 104.453 3.39249 3.71374 0
M  V30 1064 H 104.153 5.01993 3.05413 0
M  V30 1065 H 105.677 4.67966 3.92225 0
M  V30 1066 H 107.091 5.44811 1.78475 0
M  V30 1067 H 105.488 5.89349 1.13083 0
M  V30 1068 H 106.558 4.84558 0.182153 0
M  V30 1069 N 107.901 -0.206675 1.56239 0
M  V30 1070 C 109.147 -0.930218 1.80208 0
M  V30 1071 C 109.48 -1.83387 0.638981 0
M  V30 1072 O 108.755 -1.91119 -0.361066 0
M  V30 1073 C 109.038 -1.75641 3.1436 0
M  V30 1074 C 108.891 -0.878257 4.41142 0
M  V30 1075 C 110.21 -2.73129 3.45092 0
M  V30 1076 H 107.329 -0.336742 0.655571 0
M  V30 1077 H 109.971 -0.198222 1.88963 0
M  V30 1078 H 108.121 -2.38048 3.07027 0
M  V30 1079 H 109.793 -0.269787 4.6051 0
M  V30 1080 H 108.036 -0.184385 4.33408 0
M  V30 1081 H 108.707 -1.49106 5.3148 0
M  V30 1082 H 111.183 -2.20856 3.52649 0
M  V30 1083 H 110.059 -3.28028 4.40101 0
M  V30 1084 H 110.32 -3.51606 2.68003 0
M  V30 1085 N 109.379 -1.50304 -0.473955 0
M  V30 1086 C 110.628 -1.60392 -1.22301 0
M  V30 1087 C 110.941 -0.308411 -1.93153 0
M  V30 1088 O 112.147 -0.288156 -2.69966 0
M  V30 1089 C 110.603 -2.83109 -2.2221 0
M  V30 1090 C 110.211 -4.19524 -1.57173 0
M  V30 1091 C 111.955 -3.0254 -2.97775 0
M  V30 1092 C 109.862 -5.33431 -2.55353 0
M  V30 1093 H 108.792 -0.597286 -0.460179 0
M  V30 1094 H 111.443 -1.76731 -0.493803 0
M  V30 1095 H 109.825 -2.60322 -2.9841 0
M  V30 1096 H 110.999 -4.52554 -0.867824 0
M  V30 1097 H 109.314 -4.05674 -0.939002 0
M  V30 1098 H 111.911 -3.84811 -3.71248 0
M  V30 1099 H 112.254 -2.14154 -3.56992 0
M  V30 1100 H 112.787 -3.25494 -2.28688 0
M  V30 1101 H 109.526 -6.23962 -2.00878 0
M  V30 1102 H 109.046 -5.04823 -3.23904 0
M  V30 1103 H 110.725 -5.63887 -3.17239 0
M  V30 1104 N 110.857 0.726932 -1.39834 0
M  V30 1105 C 112.103 1.48771 -1.38704 0
M  V30 1106 C 112.458 1.92394 0.0146387 0
M  V30 1107 O 111.751 1.64474 0.982797 0
M  V30 1108 C 111.945 2.73495 -2.30077 0
M  V30 1109 C 111.774 2.42068 -3.78989 0
M  V30 1110 C 110.544 2.33966 -4.4787 0
M  V30 1111 C 112.742 2.0708 -4.70768 0
M  V30 1112 N 110.724 1.95095 -5.82075 0
M  V30 1113 C 112.095 1.78719 -5.93683 0
M  V30 1114 C 114.15 1.93618 -4.58712 0
M  V30 1115 C 112.853 1.3825 -7.05889 0
M  V30 1116 C 114.879 1.54553 -5.70848 0
M  V30 1117 C 114.241 1.27082 -6.92842 0
M  V30 1118 H 110.34 0.542919 -0.562817 0
M  V30 1119 H 112.924 0.84408 -1.75452 0
M  V30 1120 H 111.095 3.35625 -1.95474 0
M  V30 1121 H 112.827 3.39755 -2.19883 0
M  V30 1122 H 109.582 2.51331 -4.0141 0
M  V30 1123 H 110.006 1.7823 -6.53118 0
M  V30 1124 H 114.648 2.13522 -3.64922 0
M  V30 1125 H 112.366 1.17088 -7.99572 0
M  V30 1126 H 115.952 1.44731 -5.6351 0
M  V30 1127 H 114.832 0.973069 -7.78139 0
M  V30 1128 N 112.336 1.25143 0.95797 0
M  V30 1129 C 113.299 1.05321 2.03569 0
M  V30 1130 C 114.299 0.007152 1.60798 0
M  V30 1131 O 115.489 0.24903 1.72411 0
M  V30 1132 C 112.621 0.598394 3.35607 0
M  V30 1133 H 113.814 2.00986 2.22586 0
M  V30 1134 H 111.367 1.07502 1.13459 0
M  V30 1135 H 112.102 -0.361014 3.22284 0
M  V30 1136 H 111.887 1.35351 3.67998 0
M  V30 1137 H 113.377 0.48104 4.1482 0
M  V30 1138 N 113.814 -1.1601 1.06675 0
M  V30 1139 C 115.06 -1.86909 0.786945 0
M  V30 1140 C 115.393 -1.81717 -0.685018 0
M  V30 1141 O 114.668 -1.23551 -1.50218 0
M  V30 1142 C 114.951 -3.36313 1.28707 0
M  V30 1143 C 114.804 -3.50175 2.82308 0
M  V30 1144 C 116.123 -4.3084 0.898071 0
M  V30 1145 H 113.242 -0.678677 0.287343 0
M  V30 1146 H 115.884 -1.36336 1.32334 0
M  V30 1147 H 114.034 -3.79513 0.830768 0
M  V30 1148 H 115.706 -3.15886 3.36175 0
M  V30 1149 H 113.949 -2.91959 3.20847 0
M  V30 1150 H 114.62 -4.55116 3.12368 0
M  V30 1151 H 117.096 -3.95561 1.29114 0
M  V30 1152 H 115.972 -5.33876 1.27543 0
M  V30 1153 H 116.233 -4.41662 -0.196651 0
M  V30 1154 N 115.292 -0.849877 -1.32721 0
M  V30 1155 C 116.54 -0.450032 -1.97026 0
M  V30 1156 C 116.861 0.996604 -1.67609 0
M  V30 1157 O 116.131 1.6958 -0.980786 0
M  V30 1158 H 114.711 -0.163426 -0.728904 0
M  V30 1159 H 117.373 -1.08526 -1.6189 0
M  V30 1160 H 116.469 -0.591146 -3.0645 0
M  V30 1161 N 116.77 1.45427 -0.607355 0
M  V30 1162 C 118.018 2.01841 -0.102253 0
M  V30 1163 C 118.339 1.47832 1.27164 0
M  V30 1164 O 117.609 0.672497 1.83995 0
M  V30 1165 H 116.189 0.746188 -0.0348101 0
M  V30 1166 H 118.851 1.78229 -0.7887 0
M  V30 1167 H 117.947 3.12057 -0.0518585 0
M  V30 1168 N 118.248 0.346503 1.53744 0
M  V30 1169 C 119.178 -0.501193 2.28058 0
M  V30 1170 C 120.159 -1.10014 1.29734 0
M  V30 1171 O 121.344 -1.12097 1.58581 0
M  V30 1172 C 118.474 -1.65078 3.05559 0
M  V30 1173 C 117.428 -1.18003 4.11411 0
M  V30 1174 C 116.754 -2.41837 4.76884 0
M  V30 1175 C 118.054 -0.278394 5.21558 0
M  V30 1176 H 119.748 0.11875 2.99164 0
M  V30 1177 H 117.294 0.0585531 1.43881 0
M  V30 1178 H 119.247 -2.25028 3.56287 0
M  V30 1179 H 117.971 -2.29767 2.32109 0
M  V30 1180 H 116.63 -0.603331 3.61601 0
M  V30 1181 H 116.278 -3.0494 4.00026 0
M  V30 1182 H 115.978 -2.1102 5.48402 0
M  V30 1183 H 117.502 -3.02508 5.30397 0
M  V30 1184 H 118.916 -0.784823 5.67903 0
M  V30 1185 H 117.313 -0.0619707 6.00068 0
M  V30 1186 H 118.383 0.684677 4.80042 0
M  V30 1187 N 119.726 -1.57421 0.075193 0
M  V30 1188 C 120.973 -1.93618 -0.593146 0
M  V30 1189 C 121.301 -0.955484 -1.69413 0
M  V30 1190 O 120.556 0.0283251 -1.9568 0
M  V30 1191 C 120.855 -3.36428 -1.20626 0
M  V30 1192 C 120.521 -4.50307 -0.231078 0
M  V30 1193 C 119.183 -4.81186 0.0371936 0
M  V30 1194 C 121.535 -5.19374 0.435888 0
M  V30 1195 C 118.863 -5.78466 0.979461 0
M  V30 1196 C 121.215 -6.17665 1.3665 0
M  V30 1197 C 119.879 -6.46958 1.6432 0
M  V30 1198 H 119.149 -0.708499 -0.217047 0
M  V30 1199 H 121.796 -1.90937 0.146793 0
M  V30 1200 H 120.101 -3.35592 -2.02201 0
M  V30 1201 H 121.798 -3.61727 -1.73073 0
M  V30 1202 H 118.388 -4.26227 -0.450357 0
M  V30 1203 H 122.572 -4.95711 0.241748 0
M  V30 1204 H 117.828 -5.99487 1.20106 0
M  V30 1205 H 122.002 -6.70284 1.88924 0
M  V30 1206 H 119.629 -7.2215 2.37494 0
M  V30 1207 N 121.204 0.198386 -1.56346 0
M  V30 1208 C 122.429 0.939682 -1.84891 0
M  V30 1209 C 122.854 1.76202 -0.658369 0
M  V30 1210 O 122.212 1.76993 0.392851 0
M  V30 1211 C 122.26 1.81428 -3.11635 0
M  V30 1212 O 121.364 2.91265 -2.91956 0
M  V30 1213 H 120.705 0.264807 -0.608912 0
M  V30 1214 H 123.235 0.204695 -2.03573 0
M  V30 1215 H 123.245 2.21958 -3.42343 0
M  V30 1216 H 121.92 1.21004 -3.97908 0
M  V30 1217 H 120.497 2.54514 -2.72538 0
M  V30 1218 N 122.682 1.50554 0.465978 0
M  V30 1219 C 123.928 1.62038 1.21949 0
M  V30 1220 C 124.261 0.322116 1.9151 0
M  V30 1221 O 123.536 -0.676723 1.82348 0
M  V30 1222 C 123.819 2.80421 2.25912 0
M  V30 1223 C 123.672 4.20144 1.60622 0
M  V30 1224 C 124.991 2.94354 3.27176 0
M  V30 1225 H 122.11 0.589752 0.441998 0
M  V30 1226 H 124.752 1.82956 0.51257 0
M  V30 1227 H 122.902 2.62717 2.86203 0
M  V30 1228 H 124.574 4.49449 1.03889 0
M  V30 1229 H 122.817 4.24165 0.909211 0
M  V30 1230 H 123.488 4.98914 2.36196 0
M  V30 1231 H 125.964 3.10578 2.76913 0
M  V30 1232 H 124.84 3.788 3.97242 0
M  V30 1233 H 125.101 2.05186 3.916 0
M  V30 1234 N 124.16 -0.719506 1.40217 0
M  V30 1235 C 125.407 -1.47933 1.38283 0
M  V30 1236 C 125.735 -1.94493 -0.0161536 0
M  V30 1237 O 124.99 -1.68224 -0.999956 0
M  V30 1238 C 125.289 -2.72271 2.31524 0
M  V30 1239 C 124.955 -2.44496 3.78857 0
M  V30 1240 C 123.617 -2.36631 4.18998 0
M  V30 1241 C 125.969 -2.21104 4.71977 0
M  V30 1242 C 123.297 -2.03437 5.503 0
M  V30 1243 C 125.649 -1.89423 6.03574 0
M  V30 1244 C 124.313 -1.80038 6.42762 0
M  V30 1245 H 123.583 -0.541325 0.506012 0
M  V30 1246 H 126.23 -0.824502 1.72842 0
M  V30 1247 H 124.535 -3.42572 1.90137 0
M  V30 1248 H 126.232 -3.30348 2.27313 0
M  V30 1249 H 122.822 -2.51503 3.47051 0
M  V30 1250 H 127.006 -2.26139 4.41786 0
M  V30 1251 H 122.262 -1.94705 5.79569 0
M  V30 1252 H 126.436 -1.70336 6.75247 0
M  V30 1253 H 124.063 -1.54083 7.44421 0
M  V30 1254 N 125.638 -1.25649 -0.95132 0
M  V30 1255 C 126.886 -1.10375 -1.69298 0
M  V30 1256 C 127.207 0.355339 -1.91735 0
M  V30 1257 O 126.477 1.25188 -1.50681 0
M  V30 1258 H 125.057 -0.405461 -0.627384 0
M  V30 1259 H 127.719 -1.57823 -1.14358 0
M  V30 1260 H 126.815 -1.61465 -2.67087 0
M  V30 1261 N 127.117 1.15442 -1.07289 0
M  V30 1262 C 128.08 2.18358 -0.696591 0
M  V30 1263 C 129.08 1.58637 0.262837 0
M  V30 1264 O 130.27 1.74145 0.0438809 0
M  V30 1265 C 127.402 3.4089 -0.0266151 0
M  V30 1266 H 128.595 2.53162 -1.60776 0
M  V30 1267 H 126.148 1.29893 -0.869342 0
M  V30 1268 H 126.883 3.11653 0.896822 0
M  V30 1269 H 126.668 3.85495 -0.716657 0
M  V30 1270 H 128.158 4.17009 0.222028 0
M  V30 1271 N 128.595 0.856903 1.32268 0
M  V30 1272 C 129.525 0.31858 2.31316 0
M  V30 1273 C 130.506 -0.583487 1.59779 0
M  V30 1274 O 131.691 -0.503259 1.87566 0
M  V30 1275 C 128.821 -0.491979 3.43798 0
M  V30 1276 C 127.775 0.315849 4.26833 0
M  V30 1277 C 127.101 -0.619586 5.31098 0
M  V30 1278 C 128.401 1.54282 4.98993 0
M  V30 1279 H 130.095 1.14621 2.76591 0
M  V30 1280 H 127.641 0.552613 1.32974 0
M  V30 1281 H 129.594 -0.879012 4.1213 0
M  V30 1282 H 128.318 -1.35299 2.97257 0
M  V30 1283 H 126.977 0.684664 3.6015 0
M  V30 1284 H 126.625 -1.47751 4.8081 0
M  V30 1285 H 126.325 -0.0830621 5.87541 0
M  V30 1286 H 127.849 -1.00375 6.02293 0
M  V30 1287 H 129.263 1.22796 5.59995 0
M  V30 1288 H 127.66 2.01745 5.65172 0
M  V30 1289 H 128.73 2.30285 4.26728 0
M  V30 1290 N 130.073 -1.45103 0.615059 0
M  V30 1291 C 131.313 -2.04069 0.116282 0
M  V30 1292 C 131.677 -1.4721 -1.2326 0
M  V30 1293 O 132.878 -1.97577 -1.82255 0
M  V30 1294 C 131.149 -3.57298 0.085482 0
M  V30 1295 S 132.708 -4.37394 -0.351015 0
M  V30 1296 H 129.526 -0.709006 0.0532183 0
M  V30 1297 H 132.128 -1.77709 0.81484 0
M  V30 1298 H 130.832 -3.9619 1.0706 0
M  V30 1299 H 130.363 -3.88244 -0.634835 0
M  V30 1300 H 132.378 -4.69734 -1.59889 0
M  V30 1301 N 131.551 -0.354651 -1.53558 0
M  V30 1302 C 132.781 0.239167 -2.05211 0
M  V30 1303 C 133.189 1.43879 -1.22863 0
M  V30 1304 O 132.532 1.81857 -0.259565 0
M  V30 1305 C 132.594 0.707251 -3.52474 0
M  V30 1306 C 132.258 -0.374212 -4.55465 0
M  V30 1307 C 133.255 -1.22054 -5.0537 0
M  V30 1308 C 130.94 -0.531323 -4.99482 0
M  V30 1309 C 132.934 -2.20942 -5.97882 0
M  V30 1310 C 130.621 -1.52358 -5.91802 0
M  V30 1311 C 131.619 -2.36108 -6.40892 0
M  V30 1312 O 131.307 -3.33643 -7.31394 0
M  V30 1313 H 131.039 0.0479716 -0.674296 0
M  V30 1314 H 133.593 -0.508121 -1.99016 0
M  V30 1315 H 131.823 1.50596 -3.56171 0
M  V30 1316 H 133.512 1.22285 -3.87042 0
M  V30 1317 H 134.278 -1.1103 -4.7212 0
M  V30 1318 H 130.157 0.110738 -4.60867 0
M  V30 1319 H 133.701 -2.86348 -6.36121 0
M  V30 1320 H 129.598 -1.63434 -6.24467 0
M  V30 1321 H 130.366 -3.29244 -7.4936 0
M  V30 1322 N 133.029 1.57378 -0.0835403 0
M  V30 1323 C 133.992 2.12252 0.864959 0
M  V30 1324 C 134.992 1.04916 1.21858 0
M  V30 1325 O 136.182 1.30853 1.14991 0
M  V30 1326 C 133.314 2.63358 2.16461 0
M  V30 1327 H 134.507 2.97371 0.388676 0
M  V30 1328 H 132.06 1.55423 0.165317 0
M  V30 1329 H 132.795 1.81727 2.686 0
M  V30 1330 H 132.58 3.41826 1.92087 0
M  V30 1331 H 134.07 3.05847 2.84337 0
M  V30 1332 N 134.507 -0.190092 1.56449 0
M  V30 1333 C 135.417 -1.25591 1.98152 0
M  V30 1334 C 136.433 -1.49519 0.889944 0
M  V30 1335 O 137.609 -1.62036 1.19609 0
M  V30 1336 C 134.674 -2.57916 2.3169 0
M  V30 1337 C 133.735 -2.42015 3.5458 0
M  V30 1338 C 132.968 -3.6803 3.8651 0
M  V30 1339 O 133.191 -4.72413 3.1966 0
M  V30 1340 O 132.125 -3.6326 4.79923 0
M  V30 1341 H 135.951 -0.931988 2.89046 0
M  V30 1342 H 133.536 -0.395488 1.4407 0
M  V30 1343 H 135.418 -3.36008 2.54316 0
M  V30 1344 H 134.093 -2.89925 1.43963 0
M  V30 1345 H 133 -1.62017 3.37196 0
M  V30 1346 H 134.333 -2.14937 4.4279 0
M  V30 1347 N 135.985 -1.50799 -0.457987 0
M  V30 1348 C 136.915 -1.73553 -1.5621 0
M  V30 1349 C 137.896 -0.584774 -1.59732 0
M  V30 1350 O 139.081 -0.825314 -1.7579 0
M  V30 1351 C 136.211 -1.84169 -2.94447 0
M  V30 1352 C 135.165 -2.99461 -3.0579 0
M  V30 1353 C 134.491 -2.95235 -4.45803 0
M  V30 1354 C 135.791 -4.39766 -2.81786 0
M  V30 1355 H 137.485 -2.66 -1.37421 0
M  V30 1356 H 135.031 -1.28002 -0.659662 0
M  V30 1357 H 136.984 -1.98672 -3.71628 0
M  V30 1358 H 135.708 -0.883545 -3.14422 0
M  V30 1359 H 134.367 -2.8463 -2.31044 0
M  V30 1360 H 134.015 -1.97239 -4.62715 0
M  V30 1361 H 133.715 -3.72642 -4.54326 0
M  V30 1362 H 135.239 -3.11803 -5.24987 0
M  V30 1363 H 136.653 -4.55054 -3.4871 0
M  V30 1364 H 135.05 -5.18722 -3.0174 0
M  V30 1365 H 136.12 -4.51229 -1.7754 0
M  V30 1366 N 137.463 0.71206 -1.40597 0
M  V30 1367 C 138.711 1.46907 -1.38791 0
M  V30 1368 C 139.032 1.94998 0.00780391 0
M  V30 1369 O 138.302 1.70587 0.963174 0
M  V30 1370 H 136.882 0.545043 -0.51082 0
M  V30 1371 H 139.544 0.843882 -1.75683 0
M  V30 1372 H 138.64 2.34021 -2.06496 0
M  V30 1373 N 138.941 1.26152 0.944643 0
M  V30 1374 C 140.169 1.14259 1.72489 0
M  V30 1375 C 140.584 -0.302555 1.8636 0
M  V30 1376 O 139.941 -1.20741 1.36849 0
M  V30 1377 C 139.992 1.80266 3.13347 0
M  V30 1378 O 139.713 3.19133 3.00143 0
M  V30 1379 C 141.214 1.74283 4.07603 0
M  V30 1380 H 138.434 0.398051 0.540181 0
M  V30 1381 H 140.978 1.66706 1.18446 0
M  V30 1382 H 139.133 1.31766 3.64303 0
M  V30 1383 H 139.547 3.51744 3.89071 0
M  V30 1384 H 141.021 2.25111 5.04013 0
M  V30 1385 H 141.498 0.708631 4.33446 0
M  V30 1386 H 142.104 2.22319 3.62567 0
M  V30 1387 N 140.419 -1.14872 1.07899 0
M  V30 1388 C 141.647 -1.89661 0.82683 0
M  V30 1389 C 142.062 -1.78312 -0.620519 0
M  V30 1390 O 141.419 -1.13888 -1.42604 0
M  V30 1391 C 141.47 -3.39817 1.23316 0
M  V30 1392 O 141.191 -3.50845 2.62372 0
M  V30 1393 C 142.692 -4.31615 1.0111 0
M  V30 1394 H 139.912 -0.60092 0.298557 0
M  V30 1395 H 142.456 -1.4551 1.43691 0
M  V30 1396 H 140.611 -3.8161 0.667286 0
M  V30 1397 H 141.025 -4.44076 2.79101 0
M  V30 1398 H 142.499 -5.35367 1.34486 0
M  V30 1399 H 142.976 -4.39169 -0.0522168 0
M  V30 1400 H 143.582 -3.95572 1.56215 0
M  V30 1401 N 141.898 -0.863906 -1.31812 0
M  V30 1402 C 143.147 -0.46801 -1.96195 0
M  V30 1403 C 143.46 0.983474 -1.69077 0
M  V30 1404 O 144.666 1.48523 -2.27273 0
M  V30 1405 C 143.122 -0.785995 -3.51212 0
M  V30 1406 C 142.73 -2.25383 -3.87178 0
M  V30 1407 C 144.474 -0.458274 -4.22019 0
M  V30 1408 C 142.381 -2.51455 -5.3528 0
M  V30 1409 H 141.311 -0.171283 -0.734287 0
M  V30 1410 H 143.962 -1.05597 -1.50072 0
M  V30 1411 H 142.344 -0.127359 -3.95795 0
M  V30 1412 H 143.518 -2.95502 -3.53575 0
M  V30 1413 H 141.833 -2.54698 -3.2942 0
M  V30 1414 H 144.43 -0.630369 -5.30971 0
M  V30 1415 H 144.773 0.600834 -4.11941 0
M  V30 1416 H 145.306 -1.07319 -3.8305 0
M  V30 1417 H 142.045 -3.56025 -5.50387 0
M  V30 1418 H 141.565 -1.85923 -5.70257 0
M  V30 1419 H 143.244 -2.35874 -6.02472 0
M  V30 1420 N 143.376 1.44774 -0.622745 0
M  V30 1421 C 144.323 2.30635 0.0871679 0
M  V30 1422 C 145.293 1.42994 0.845097 0
M  V30 1423 O 146.478 1.71907 0.827812 0
M  V30 1424 C 143.618 3.28144 1.06844 0
M  V30 1425 C 142.731 4.30888 0.309809 0
M  V30 1426 C 141.866 5.15494 1.28215 0
M  V30 1427 C 140.905 6.09953 0.512198 0
M  V30 1428 N 140.042 6.87287 1.43458 0
M  V30 1429 H 144.882 2.90803 -0.650974 0
M  V30 1430 H 142.419 1.43286 -0.33281 0
M  V30 1431 H 144.377 3.83157 1.65066 0
M  V30 1432 H 143.007 2.69695 1.77382 0
M  V30 1433 H 142.059 3.78414 -0.388181 0
M  V30 1434 H 143.371 4.97955 -0.290254 0
M  V30 1435 H 142.525 5.74983 1.93596 0
M  V30 1436 H 141.264 4.48481 1.91614 0
M  V30 1437 H 140.269 5.49581 -0.155151 0
M  V30 1438 H 141.494 6.78999 -0.116958 0
M  V30 1439 H 139.44 6.2295 2.05594 0
M  V30 1440 H 139.357 7.50763 0.888335 0
M  V30 1441 H 140.625 7.51306 2.07749 0
M  V30 1442 N 144.854 0.36279 1.53368 0
M  V30 1443 C 145.801 -0.485008 2.25646 0
M  V30 1444 C 146.771 -1.07982 1.2621 0
M  V30 1445 O 147.956 -1.11284 1.54986 0
M  V30 1446 C 145.096 -1.62023 3.04701 0
M  V30 1447 C 144.209 -1.05086 4.19024 0
M  V30 1448 C 143.344 -2.15496 4.85525 0
M  V30 1449 C 142.383 -1.5601 5.91884 0
M  V30 1450 N 141.52 -2.60241 6.52088 0
M  V30 1451 H 146.36 0.137864 2.97681 0
M  V30 1452 H 143.897 0.0798061 1.46883 0
M  V30 1453 H 145.855 -2.28887 3.48807 0
M  V30 1454 H 144.485 -2.2138 2.34927 0
M  V30 1455 H 143.537 -0.27259 3.79422 0
M  V30 1456 H 144.849 -0.575926 4.95464 0
M  V30 1457 H 144.003 -2.90186 5.32801 0
M  V30 1458 H 142.742 -2.66341 4.08551 0
M  V30 1459 H 141.747 -0.798338 5.43973 0
M  V30 1460 H 142.972 -1.05994 6.70777 0
M  V30 1461 H 140.918 -3.10304 5.77968 0
M  V30 1462 H 140.835 -2.17426 7.24059 0
M  V30 1463 H 142.103 -3.34641 7.04014 0
M  V30 1464 N 146.332 -1.57332 0.0918853 0
M  V30 1465 C 147.557 -1.98995 -0.584442 0
M  V30 1466 C 147.982 -0.970528 -1.61128 0
M  V30 1467 O 147.34 0.0613904 -1.81196 0
M  V30 1468 C 147.388 -3.39636 -1.21161 0
M  V30 1469 O 146.492 -3.40447 -2.32744 0
M  V30 1470 H 145.833 -0.647165 -0.148572 0
M  V30 1471 H 148.363 -2.03873 0.172347 0
M  V30 1472 H 148.373 -3.7726 -1.55367 0
M  V30 1473 H 147.048 -4.13356 -0.459313 0
M  V30 1474 H 145.625 -3.14614 -2.0018 0
M  V30 1475 N 147.81 0.181792 -1.56548 0
M  V30 1476 C 149.058 0.89832 -1.81038 0
M  V30 1477 C 149.379 1.83232 -0.667164 0
M  V30 1478 O 148.649 1.93372 0.313673 0
M  V30 1479 H 147.229 0.33471 -0.667816 0
M  V30 1480 H 149.891 0.184116 -1.94028 0
M  V30 1481 H 148.987 1.4815 -2.74696 0
M  V30 1482 N 149.288 1.51039 0.449983 0
M  V30 1483 C 150.251 1.70863 1.5277 0
M  V30 1484 C 151.251 0.578846 1.5002 0
M  V30 1485 O 152.441 0.846213 1.52266 0
M  V30 1486 C 149.573 1.75341 2.9235 0
M  V30 1487 H 150.766 2.67034 1.36502 0
M  V30 1488 H 148.319 1.40838 0.677812 0
M  V30 1489 H 149.054 0.809383 3.14037 0
M  V30 1490 H 148.839 2.57436 2.95752 0
M  V30 1491 H 150.329 1.92559 3.70555 0
M  V30 1492 N 150.766 -0.704594 1.40972 0
M  V30 1493 C 151.991 -1.49858 1.43378 0
M  V30 1494 C 152.416 -1.88061 0.038184 0
M  V30 1495 O 151.774 -1.5402 -0.956425 0
M  V30 1496 C 151.822 -2.74333 2.34038 0
M  V30 1497 O 150.926 -3.7147 1.7912 0
M  V30 1498 H 150.267 -0.45139 0.486974 0
M  V30 1499 H 152.797 -0.866832 1.8533 0
M  V30 1500 H 152.807 -3.22741 2.49604 0
M  V30 1501 H 151.482 -2.45863 3.35446 0
M  V30 1502 H 150.059 -3.30363 1.72958 0
M  V30 1503 N 152.244 -1.26651 -0.937939 0
M  V30 1504 C 153.474 -1.15006 -1.71631 0
M  V30 1505 C 153.882 0.297026 -1.86854 0
M  V30 1506 O 153.225 1.21493 -1.37786 0
M  V30 1507 C 153.287 -1.74984 -3.14039 0
M  V30 1508 C 152.951 -3.24103 -3.2219 0
M  V30 1509 C 153.948 -4.20877 -3.05219 0
M  V30 1510 C 151.633 -3.64625 -3.45476 0
M  V30 1511 C 153.627 -5.56151 -3.11408 0
M  V30 1512 C 151.314 -5.00032 -3.513 0
M  V30 1513 C 152.312 -5.95604 -3.34282 0
M  V30 1514 O 152 -7.28545 -3.3982 0
M  V30 1515 H 151.732 -0.401183 -0.544085 0
M  V30 1516 H 154.286 -1.67832 -1.18413 0
M  V30 1517 H 152.516 -1.16624 -3.68695 0
M  V30 1518 H 154.205 -1.58199 -3.73802 0
M  V30 1519 H 154.971 -3.90908 -2.87081 0
M  V30 1520 H 150.85 -2.90718 -3.57777 0
M  V30 1521 H 154.394 -6.30727 -2.98043 0
M  V30 1522 H 150.291 -5.29659 -3.68959 0
M  V30 1523 H 151.059 -7.3686 -3.56343 0
M  V30 1524 N 153.722 1.14298 -1.08507 0
M  V30 1525 C 154.685 2.17607 -0.719711 0
M  V30 1526 C 155.685 1.58907 0.245997 0
M  V30 1527 O 156.875 1.74181 0.0254081 0
M  V30 1528 C 154.007 3.40842 -0.0627695 0
M  V30 1529 H 155.2 2.51443 -1.63452 0
M  V30 1530 H 152.753 1.28963 -0.88307 0
M  V30 1531 H 153.488 3.12587 0.863716 0
M  V30 1532 H 153.273 3.84713 -0.757504 0
M  V30 1533 H 154.763 4.17221 0.177786 0
M  V30 1534 N 155.201 0.870884 1.31352 0
M  V30 1535 C 156.431 0.496049 2.00557 0
M  V30 1536 C 156.839 -0.916241 1.65534 0
M  V30 1537 O 156.182 -1.61188 0.881134 0
M  V30 1538 C 156.244 0.574418 3.54881 0
M  V30 1539 C 155.908 1.94849 4.1338 0
M  V30 1540 C 156.905 2.91611 4.30417 0
M  V30 1541 C 154.59 2.25005 4.49086 0
M  V30 1542 C 156.584 4.16672 4.82352 0
M  V30 1543 C 154.271 3.50315 5.00722 0
M  V30 1544 C 155.269 4.45964 5.17306 0
M  V30 1545 O 154.957 5.69052 5.67833 0
M  V30 1546 H 154.689 0.191664 0.64826 0
M  V30 1547 H 157.243 1.17409 1.68536 0
M  V30 1548 H 155.473 -0.160549 3.86367 0
M  V30 1549 H 157.162 0.212879 4.05341 0
M  V30 1550 H 157.928 2.69622 4.03149 0
M  V30 1551 H 153.807 1.51332 4.35453 0
M  V30 1552 H 157.351 4.91336 4.95211 0
M  V30 1553 H 153.248 3.72147 5.27424 0
M  V30 1554 H 154.016 5.71236 5.86201 0
M  V30 1555 N 156.679 -1.44442 0.630414 0
M  V30 1556 C 157.928 -2.01267 0.132073 0
M  V30 1557 C 158.241 -1.50172 -1.25331 0
M  V30 1558 O 159.447 -1.9912 -1.84562 0
M  V30 1559 C 157.903 -3.59422 0.185362 0
M  V30 1560 C 157.511 -4.19514 1.57201 0
M  V30 1561 C 159.255 -4.23724 -0.256553 0
M  V30 1562 C 157.162 -5.69891 1.58045 0
M  V30 1563 H 156.092 -0.752619 0.0456092 0
M  V30 1564 H 158.743 -1.65666 0.789106 0
M  V30 1565 H 157.125 -3.92318 -0.538759 0
M  V30 1566 H 158.299 -3.98156 2.31966 0
M  V30 1567 H 156.614 -3.67496 1.95795 0
M  V30 1568 H 159.211 -5.34019 -0.269767 0
M  V30 1569 H 159.554 -3.96013 -1.28372 0
M  V30 1570 H 160.087 -3.95629 0.41505 0
M  V30 1571 H 156.826 -6.02336 2.58597 0
M  V30 1572 H 156.346 -5.93373 0.875725 0
M  V30 1573 H 158.025 -6.33515 1.31408 0
M  V30 1574 N 158.157 -0.370918 -1.53173 0
M  V30 1575 C 159.087 0.464847 -2.28826 0
M  V30 1576 C 160.068 1.07936 -1.31468 0
M  V30 1577 O 161.253 1.0956 -1.60344 0
M  V30 1578 C 158.383 1.60196 -3.08147 0
M  V30 1579 C 157.337 1.11443 -4.13237 0
M  V30 1580 C 156.663 2.3422 -4.80672 0
M  V30 1581 C 157.963 0.195384 -5.21934 0
M  V30 1582 H 159.657 -0.166329 -2.98938 0
M  V30 1583 H 157.203 -0.0814359 -1.4377 0
M  V30 1584 H 159.156 2.19332 -3.59822 0
M  V30 1585 H 157.88 2.26045 -2.35735 0
M  V30 1586 H 156.539 0.545727 -3.62515 0
M  V30 1587 H 156.187 2.98537 -4.04827 0
M  V30 1588 H 155.887 2.02269 -5.51689 0
M  V30 1589 H 157.411 2.94032 -5.35143 0
M  V30 1590 H 158.825 0.694375 -5.69079 0
M  V30 1591 H 157.222 -0.0335027 -6.00091 0
M  V30 1592 H 158.292 -0.760961 -4.78892 0
M  V30 1593 N 159.635 1.57281 -0.100228 0
M  V30 1594 C 160.545 2.17833 0.870965 0
M  V30 1595 C 161.561 1.14921 1.30649 0
M  V30 1596 O 162.737 1.47313 1.37335 0
M  V30 1597 C 159.802 2.75085 2.1102 0
M  V30 1598 C 158.863 3.9297 1.72838 0
M  V30 1599 C 158.096 4.47482 2.90854 0
M  V30 1600 O 158.319 4.00922 4.05731 0
M  V30 1601 O 157.253 5.38433 2.69023 0
M  V30 1602 H 161.079 3.0124 0.38575 0
M  V30 1603 H 158.664 1.48881 0.124397 0
M  V30 1604 H 160.546 3.11656 2.83634 0
M  V30 1605 H 159.221 1.94721 2.58584 0
M  V30 1606 H 158.128 3.61201 0.973883 0
M  V30 1607 H 159.461 4.74713 1.30033 0
M  V30 1608 N 161.113 -0.173488 1.56642 0
M  V30 1609 C 162.076 -1.19859 1.95362 0
M  V30 1610 C 163.076 -1.37296 0.83704 0
M  V30 1611 O 164.266 -1.34739 1.10413 0
M  V30 1612 C 161.398 -2.56405 2.24654 0
M  V30 1613 H 162.591 -0.867062 2.87092 0
M  V30 1614 H 160.144 -0.415853 1.50666 0
M  V30 1615 H 160.879 -2.94576 1.35631 0
M  V30 1616 H 160.664 -2.45115 3.06041 0
M  V30 1617 H 162.154 -3.30287 2.5554 0
M  V30 1618 N 162.591 -1.51276 -0.441967 0
M  V30 1619 C 163.838 -1.63715 -1.19179 0
M  V30 1620 C 164.166 -0.351175 -1.91303 0
M  V30 1621 O 163.421 0.664524 -1.84072 0
M  V30 1622 C 163.72 -2.78746 -2.23686 0
M  V30 1623 C 163.386 -4.18189 -1.68607 0
M  V30 1624 C 162.048 -4.56125 -1.53308 0
M  V30 1625 C 164.4 -5.05222 -1.28062 0
M  V30 1626 C 161.728 -5.78804 -0.959317 0
M  V30 1627 C 164.08 -6.28476 -0.721162 0
M  V30 1628 C 162.744 -6.65188 -0.55504 0
M  V30 1629 H 162.014 -0.599076 -0.436106 0
M  V30 1630 H 164.661 -1.85296 -0.48351 0
M  V30 1631 H 162.966 -2.51369 -3.00535 0
M  V30 1632 H 164.663 -2.8557 -2.81515 0
M  V30 1633 H 161.253 -3.88277 -1.8149 0
M  V30 1634 H 165.437 -4.76524 -1.38704 0
M  V30 1635 H 160.693 -6.05899 -0.81833 0
M  V30 1636 H 164.867 -6.95259 -0.398458 0
M  V30 1637 H 162.494 -7.60123 -0.108311 0
M  V30 1638 N 164.069 0.697108 -1.41344 0
M  V30 1639 C 165.317 1.45426 -1.40341 0
M  V30 1640 C 165.638 1.94996 -0.0128787 0
M  V30 1641 O 164.908 1.71599 0.945027 0
M  V30 1642 H 163.488 0.539594 -0.516573 0
M  V30 1643 H 166.15 0.825201 -1.76569 0
M  V30 1644 H 165.246 2.31817 -2.08967 0
M  V30 1645 N 165.547 1.27147 0.931209 0
M  V30 1646 C 166.795 1.13055 1.6752 0
M  V30 1647 C 167.116 -0.324791 1.92276 0
M  V30 1648 O 166.386 -1.22775 1.52654 0
M  V30 1649 H 164.966 0.415391 0.620854 0
M  V30 1650 H 167.628 1.59623 1.11833 0
M  V30 1651 H 166.724 1.65694 2.64485 0
M  V30 1652 N 167.025 -1.13721 1.09112 0
M  V30 1653 C 168.272 -1.84924 0.825192 0
M  V30 1654 C 168.6 -1.83347 -0.649151 0
M  V30 1655 O 167.855 -1.26449 -1.49362 0
M  V30 1656 C 168.154 -3.32861 1.30146 0
M  V30 1657 C 167.82 -3.54621 2.78486 0
M  V30 1658 C 166.482 -3.60268 3.18999 0
M  V30 1659 C 168.834 -3.62855 3.74146 0
M  V30 1660 C 166.162 -3.71679 4.53951 0
M  V30 1661 C 168.514 -3.75793 5.08883 0
M  V30 1662 C 167.178 -3.79692 5.4899 0
M  V30 1663 H 166.448 -0.676684 0.301959 0
M  V30 1664 H 169.095 -1.3428 1.36533 0
M  V30 1665 H 167.4 -3.85835 0.681064 0
M  V30 1666 H 169.097 -3.86395 1.07236 0
M  V30 1667 H 165.687 -3.50879 2.46134 0
M  V30 1668 H 169.871 -3.57775 3.43963 0
M  V30 1669 H 165.127 -3.72963 4.84467 0
M  V30 1670 H 169.301 -3.81107 5.82864 0
M  V30 1671 H 166.928 -3.88287 6.53558 0
M  V30 1672 N 168.503 -0.877838 -1.30888 0
M  V30 1673 C 169.433 -0.35534 -2.3078 0
M  V30 1674 C 170.414 0.557994 -1.60687 0
M  V30 1675 O 171.599 0.473355 -1.88343 0
M  V30 1676 C 168.729 0.437221 -3.44537 0
M  V30 1677 C 167.683 -0.383715 -4.26276 0
M  V30 1678 C 167.009 0.535014 -5.32017 0
M  V30 1679 C 168.309 -1.62201 -4.96476 0
M  V30 1680 H 170.003 -1.19007 -2.74732 0
M  V30 1681 H 167.549 -0.573698 -1.32078 0
M  V30 1682 H 169.502 0.813334 -4.13477 0
M  V30 1683 H 168.226 1.30553 -2.99372 0
M  V30 1684 H 166.885 -0.741874 -3.59015 0
M  V30 1685 H 166.533 1.40083 -4.831 0
M  V30 1686 H 166.233 -0.0104211 -5.87599 0
M  V30 1687 H 167.757 0.907799 -6.03814 0
M  V30 1688 H 169.171 -1.31689 -5.5797 0
M  V30 1689 H 167.568 -2.10711 -5.61891 0
M  V30 1690 H 168.638 -2.37044 -4.23011 0
M  V30 1691 N 169.982 1.44106 -0.638065 0
M  V30 1692 C 170.945 2.29138 0.0531013 0
M  V30 1693 C 171.945 1.41409 0.765506 0
M  V30 1694 O 173.135 1.63206 0.609046 0
M  V30 1695 C 170.267 3.23144 1.08584 0
M  V30 1696 H 171.46 2.91739 -0.694883 0
M  V30 1697 H 169.013 1.51134 -0.398538 0
M  V30 1698 H 169.748 2.65408 1.86357 0
M  V30 1699 H 169.533 3.87804 0.578852 0
M  V30 1700 H 171.023 3.87004 1.56899 0
M  V30 1701 N 171.46 0.379036 1.52974 0
M  V30 1702 C 172.707 -0.206421 2.01445 0
M  V30 1703 C 173.035 -1.47668 1.26587 0
M  V30 1704 O 172.29 -1.92514 0.351675 0
M  V30 1705 C 172.589 -0.53096 3.53434 0
M  V30 1706 C 172.255 0.646546 4.46241 0
M  V30 1707 C 170.917 0.969604 4.7133 0
M  V30 1708 C 173.269 1.43479 5.01062 0
M  V30 1709 C 170.597 2.08263 5.48492 0
M  V30 1710 C 172.949 2.53834 5.7944 0
M  V30 1711 C 171.613 2.86659 6.02812 0
M  V30 1712 H 170.883 -0.0755349 0.73714 0
M  V30 1713 H 173.53 0.514271 1.84465 0
M  V30 1714 H 171.835 -1.33285 3.68432 0
M  V30 1715 H 173.532 -0.996417 3.88423 0
M  V30 1716 H 170.122 0.384734 4.2687 0
M  V30 1717 H 174.306 1.19844 4.81613 0
M  V30 1718 H 169.562 2.34078 5.64816 0
M  V30 1719 H 173.736 3.15319 6.20924 0
M  V30 1720 H 171.363 3.73026 6.62387 0
M  V30 1721 N 172.938 -1.57226 0.108567 0
M  V30 1722 C 174.187 -1.94008 -0.551703 0
M  V30 1723 C 174.5 -0.993442 -1.68494 0
M  V30 1724 O 175.706 -1.25551 -2.40726 0
M  V30 1725 C 174.162 -3.44763 -1.03279 0
M  V30 1726 C 173.77 -4.47943 0.0714193 0
M  V30 1727 C 175.514 -3.90483 -1.66503 0
M  V30 1728 C 173.421 -5.89865 -0.425779 0
M  V30 1729 H 172.351 -0.724206 -0.209863 0
M  V30 1730 H 175.002 -1.82547 0.186741 0
M  V30 1731 H 173.384 -3.51422 -1.82533 0
M  V30 1732 H 174.558 -4.52942 0.847365 0
M  V30 1733 H 172.873 -4.11913 0.609669 0
M  V30 1734 H 175.47 -4.93925 -2.04798 0
M  V30 1735 H 175.813 -3.29877 -2.53942 0
M  V30 1736 H 176.346 -3.86581 -0.938074 0
M  V30 1737 H 173.085 -6.54202 0.412316 0
M  V30 1738 H 172.605 -5.88309 -1.16843 0
M  V30 1739 H 174.284 -6.40844 -0.890397 0
M  V30 1740 N 174.416 0.165178 -1.56732 0
M  V30 1741 C 175.832 0.517174 -1.50988 0
M  V30 1742 C 176.032 1.84331 -0.813894 0
M  V30 1743 O 175.088 2.49672 -0.37682 0
M  V30 1744 C 176.401 0.544261 -2.95733 0
M  V30 1745 C 177.949 0.631039 -3.06573 0
M  V30 1746 C 178.424 0.68896 -4.52788 0
M  V30 1747 N 179.915 0.751683 -4.5706 0
M  V30 1748 C 180.65 0.817177 -5.67547 0
M  V30 1749 N 180.146 0.843129 -6.8765 0
M  V30 1750 N 181.939 0.856668 -5.55534 0
M  V30 1751 H 174.09 -0.704318 -2.00382 0
M  V30 1752 H 176.353 -0.254687 -0.913148 0
M  V30 1753 H 176.059 -0.361607 -3.49836 0
M  V30 1754 H 175.933 1.3886 -3.5071 0
M  V30 1755 H 178.32 1.52733 -2.52501 0
M  V30 1756 H 178.401 -0.240095 -2.54671 0
M  V30 1757 H 178.045 -0.2031 -5.07494 0
M  V30 1758 H 177.975 1.57633 -5.02454 0
M  V30 1759 H 180.466 0.739661 -3.70591 0
M  V30 1760 H 180.779 0.894448 -7.67606 0
M  V30 1761 H 179.124 0.811304 -6.90248 0
M  V30 1762 H 182.315 0.833437 -4.60621 0
M  V30 1763 H 182.488 0.904247 -6.4166 0
M  V30 1764 N 175.894 1.51508 0.433938 0
M  V30 1765 C 176.824 1.76016 1.53429 0
M  V30 1766 C 177.805 0.610112 1.58782 0
M  V30 1767 O 178.99 0.853177 1.74455 0
M  V30 1768 C 176.12 1.88831 2.9148 0
M  V30 1769 C 175.074 3.04288 3.00987 0
M  V30 1770 C 174.4 3.0229 4.4105 0
M  V30 1771 C 175.7 4.44193 2.74754 0
M  V30 1772 H 177.394 2.68152 1.33171 0
M  V30 1773 H 174.94 1.29035 0.639214 0
M  V30 1774 H 176.893 2.04559 3.6842 0
M  V30 1775 H 175.617 0.933455 3.12976 0
M  V30 1776 H 174.276 2.8827 2.26486 0
M  V30 1777 H 173.924 2.04576 4.59519 0
M  V30 1778 H 173.624 3.79822 4.4834 0
M  V30 1779 H 175.148 3.20116 5.1996 0
M  V30 1780 H 176.562 4.60544 3.41426 0
M  V30 1781 H 174.959 5.23457 2.9345 0
M  V30 1782 H 176.029 4.53996 1.70339 0
M  V30 1783 N 177.372 -0.689602 1.41712 0
M  V30 1784 C 178.618 -1.45041 1.42599 0
M  V30 1785 C 178.973 -1.92366 0.0363764 0
M  V30 1786 O 178.266 -1.67022 -0.938844 0
M  V30 1787 C 178.46 -2.67298 2.37247 0
M  V30 1788 C 178.289 -2.31935 3.85274 0
M  V30 1789 C 177.059 -2.2201 4.53916 0
M  V30 1790 C 179.257 -1.94526 4.76093 0
M  V30 1791 N 177.239 -1.79594 5.87043 0
M  V30 1792 C 178.61 -1.62915 5.98213 0
M  V30 1793 C 180.665 -1.81388 4.63684 0
M  V30 1794 C 179.368 -1.19486 7.09306 0
M  V30 1795 C 181.394 -1.39364 5.74745 0
M  V30 1796 C 180.756 -1.08668 6.95967 0
M  V30 1797 H 176.855 -0.527806 0.577014 0
M  V30 1798 H 179.439 -0.797266 1.77628 0
M  V30 1799 H 177.61 -3.30325 2.04304 0
M  V30 1800 H 179.342 -3.33806 2.28814 0
M  V30 1801 H 176.097 -2.406 4.07932 0
M  V30 1802 H 176.521 -1.60851 6.57614 0
M  V30 1803 H 181.163 -2.03772 3.70455 0
M  V30 1804 H 178.881 -0.958477 8.02396 0
M  V30 1805 H 182.467 -1.2974 5.6715 0
M  V30 1806 H 181.347 -0.766417 7.80446 0
M  V30 1807 N 178.85 -1.27639 -0.924453 0
M  V30 1808 C 180.078 -1.16989 -1.70649 0
M  V30 1809 C 180.493 0.272869 -1.86818 0
M  V30 1810 O 179.85 1.18549 -1.38753 0
M  V30 1811 C 179.901 -1.85229 -3.10439 0
M  V30 1812 O 179.622 -3.23868 -2.95028 0
M  V30 1813 C 181.123 -1.80746 -4.04779 0
M  V30 1814 H 178.343 -0.406595 -0.53378 0
M  V30 1815 H 180.887 -1.68569 -1.15778 0
M  V30 1816 H 179.042 -1.37545 -3.6216 0
M  V30 1817 H 179.456 -3.57889 -3.83426 0
M  V30 1818 H 180.93 -2.33101 -5.00368 0
M  V30 1819 H 181.407 -0.777499 -4.32263 0
M  V30 1820 H 182.013 -2.28059 -3.58984 0
M  V30 1821 N 180.328 1.1314 -1.09713 0
M  V30 1822 C 181.553 1.88862 -0.857081 0
M  V30 1823 C 181.978 1.78729 0.586304 0
M  V30 1824 O 181.336 1.13692 1.41222 0
M  V30 1825 C 181.384 3.36325 -1.30069 0
M  V30 1826 O 180.488 4.09815 -0.461007 0
M  V30 1827 H 179.829 0.587108 -0.310162 0
M  V30 1828 H 182.359 1.43129 -1.46203 0
M  V30 1829 H 182.369 3.87157 -1.28738 0
M  V30 1830 H 181.044 3.43017 -2.35185 0
M  V30 1831 H 179.621 3.68986 -0.538888 0
M  V30 1832 N 181.806 0.884767 1.30421 0
M  V30 1833 C 182.736 0.367574 2.30589 0
M  V30 1834 C 183.717 -0.549464 1.60981 0
M  V30 1835 O 184.902 -0.46336 1.88591 0
M  V30 1836 C 182.032 -0.418944 3.44764 0
M  V30 1837 C 180.986 0.406316 4.26067 0
M  V30 1838 C 180.312 -0.506793 5.32293 0
M  V30 1839 C 181.612 1.64832 4.95608 0
M  V30 1840 H 183.306 1.20462 2.74097 0
M  V30 1841 H 180.852 0.580695 1.31772 0
M  V30 1842 H 182.805 -0.791395 4.13902 0
M  V30 1843 H 181.529 -1.28964 3.0006 0
M  V30 1844 H 180.188 0.760903 3.58617 0
M  V30 1845 H 179.836 -1.37519 4.83836 0
M  V30 1846 H 179.536 0.0415828 5.87585 0
M  V30 1847 H 181.06 -0.875764 6.04287 0
M  V30 1848 H 182.474 1.34646 5.57264 0
M  V30 1849 H 180.871 2.13688 5.60765 0
M  V30 1850 H 181.941 2.39284 4.21748 0
M  V30 1851 N 183.284 -1.43765 0.645699 0
M  V30 1852 C 184.214 -2.33471 -0.0370477 0
M  V30 1853 C 185.195 -1.49042 -0.819779 0
M  V30 1854 O 186.38 -1.77726 -0.782758 0
M  V30 1855 C 183.51 -3.32311 -1.0093 0
M  V30 1856 C 182.464 -4.2667 -0.337201 0
M  V30 1857 C 181.79 -5.1549 -1.42037 0
M  V30 1858 C 183.09 -5.16657 0.765706 0
M  V30 1859 H 184.784 -2.90809 0.712069 0
M  V30 1860 H 182.33 -1.39834 0.343876 0
M  V30 1861 H 184.283 -3.9396 -1.49578 0
M  V30 1862 H 183.007 -2.73213 -1.78948 0
M  V30 1863 H 181.666 -3.66374 0.128771 0
M  V30 1864 H 181.314 -4.52735 -2.1918 0
M  V30 1865 H 181.014 -5.79438 -0.975966 0
M  V30 1866 H 182.538 -5.80012 -1.90838 0
M  V30 1867 H 183.952 -5.72158 0.361702 0
M  V30 1868 H 182.349 -5.89286 1.13413 0
M  V30 1869 H 183.419 -4.56796 1.62683 0
M  V30 1870 N 184.763 -0.387143 -1.52771 0
M  V30 1871 C 186.012 0.19697 -2.00736 0
M  V30 1872 C 186.325 1.48082 -1.27793 0
M  V30 1873 O 187.531 2.14485 -1.66458 0
M  V30 1874 C 185.987 0.401568 -3.57653 0
M  V30 1875 C 185.595 -0.868907 -4.39493 0
M  V30 1876 C 187.339 0.942164 -4.13912 0
M  V30 1877 C 185.246 -0.632705 -5.88006 0
M  V30 1878 H 184.176 0.0773827 -0.750019 0
M  V30 1879 H 186.827 -0.50921 -1.76293 0
M  V30 1880 H 185.209 1.16954 -3.78335 0
M  V30 1881 H 186.383 -1.64133 -4.30577 0
M  V30 1882 H 184.698 -1.33429 -3.94443 0
M  V30 1883 H 187.295 1.13455 -5.22525 0
M  V30 1884 H 187.638 1.9106 -3.69867 0
M  V30 1885 H 188.171 0.233814 -3.97112 0
M  V30 1886 H 184.91 -1.57208 -6.36369 0
M  V30 1887 H 184.43 0.100825 -5.99715 0
M  V30 1888 H 186.109 -0.26642 -6.46451 0
M  V30 1889 N 186.241 1.57166 -0.116904 0
M  V30 1890 C 187.49 1.94298 0.541407 0
M  V30 1891 C 187.803 1.00236 1.67964 0
M  V30 1892 O 189.009 1.26826 2.40057 0
M  V30 1893 C 187.465 3.45306 1.01449 0
M  V30 1894 C 187.073 4.47899 -0.0951738 0
M  V30 1895 C 188.817 3.91361 1.6443 0
M  V30 1896 C 186.724 5.90083 0.394491 0
M  V30 1897 H 185.654 0.725308 0.206019 0
M  V30 1898 H 188.305 1.82446 -0.196419 0
M  V30 1899 H 186.687 3.52385 1.80667 0
M  V30 1900 H 187.861 4.52486 -0.871374 0
M  V30 1901 H 186.176 4.11583 -0.631505 0
M  V30 1902 H 188.773 4.95004 2.02176 0
M  V30 1903 H 189.116 3.3122 2.52189 0
M  V30 1904 H 189.649 3.87073 0.917559 0
M  V30 1905 H 186.388 6.53974 -0.447004 0
M  V30 1906 H 185.908 5.88921 1.13722 0
M  V30 1907 H 187.587 6.41307 0.856399 0
M  V30 1908 N 187.719 -0.156864 1.56817 0
M  V30 1909 C 188.629 -1.2136 2.00771 0
M  V30 1910 C 189.645 -1.47598 0.921459 0
M  V30 1911 O 190.821 -1.59462 1.2302 0
M  V30 1912 C 187.886 -2.52943 2.37109 0
M  V30 1913 C 186.947 -2.34439 3.59634 0
M  V30 1914 C 186.18 -3.59748 3.94229 0
M  V30 1915 O 186.403 -4.65526 3.29609 0
M  V30 1916 O 185.337 -3.52998 4.8752 0
M  V30 1917 H 189.163 -0.870468 2.90958 0
M  V30 1918 H 186.748 -0.36484 1.44877 0
M  V30 1919 H 188.63 -3.30538 2.61386 0
M  V30 1920 H 187.305 -2.86806 1.5008 0
M  V30 1921 H 186.212 -1.54828 3.40557 0
M  V30 1922 H 187.545 -2.05496 4.4725 0
M  V30 1923 N 189.197 -1.51736 -0.425897 0
M  V30 1924 C 190.608 -1.5732 -1.00536 0
M  V30 1925 C 190.959 -0.403537 -1.92005 0
M  V30 1926 O 190.084 0.478256 -2.11049 0
M  V30 1927 C 190.679 -2.85119 -1.8301 0
M  V30 1928 C 189.238 -2.93236 -2.35987 0
M  V30 1929 C 188.385 -2.52098 -1.15508 0
M  V30 1930 H 191.336 -1.57348 -0.206739 0
M  V30 1931 H 191.357 -2.69526 -2.68581 0
M  V30 1932 H 190.869 -3.7023 -1.16411 0
M  V30 1933 H 188.97 -2.12581 -3.06007 0
M  V30 1934 H 189.083 -3.9713 -2.68001 0
M  V30 1935 H 187.447 -2.05558 -1.50393 0
M  V30 1936 H 188.23 -3.39565 -0.505014 0
M  V30 1937 N 190.675 0.682077 -1.42076 0
M  V30 1938 C 191.903 1.47057 -1.4554 0
M  V30 1939 C 192.318 1.8869 -0.0645779 0
M  V30 1940 O 191.675 1.57666 0.919115 0
M  V30 1941 C 191.726 2.72442 -2.37609 0
M  V30 1942 O 191.447 2.32559 -3.71279 0
M  V30 1943 C 192.948 3.66069 -2.50017 0
M  V30 1944 H 190.168 0.452737 -0.495248 0
M  V30 1945 H 192.712 0.838695 -1.8651 0
M  V30 1946 H 190.867 3.31835 -1.9991 0
M  V30 1947 H 191.281 3.13475 -4.20516 0
M  V30 1948 H 192.755 4.50792 -3.18576 0
M  V30 1949 H 193.232 4.11476 -1.53572 0
M  V30 1950 H 193.838 3.12572 -2.88407 0
M  V30 1951 N 192.153 1.28127 0.917671 0
M  V30 1952 C 193.378 1.18007 1.70555 0
M  V30 1953 C 193.803 -0.258257 1.86319 0
M  V30 1954 O 193.161 -1.1869 1.37049 0
M  V30 1955 C 193.209 1.87948 3.07746 0
M  V30 1956 O 192.313 1.18427 3.9503 0
M  V30 1957 H 191.654 0.409867 0.522403 0
M  V30 1958 H 194.184 1.69379 1.1477 0
M  V30 1959 H 194.194 1.95701 3.58001 0
M  V30 1960 H 192.869 2.92573 2.95591 0
M  V30 1961 H 191.446 1.18811 3.53466 0
M  V30 1962 N 193.631 -1.12557 1.10312 0
M  V30 1963 C 194.563 -2.17971 0.708625 0
M  V30 1964 C 195.576 -1.60806 -0.254027 0
M  V30 1965 O 196.765 -1.78458 -0.0386891 0
M  V30 1966 C 193.865 -3.38891 0.0248198 0
M  V30 1967 C 193.038 -4.25548 1.01132 0
M  V30 1968 C 192.097 -5.24972 0.35924 0
M  V30 1969 O 191.123 -5.60174 1.00965 0
M  V30 1970 N 192.325 -5.73747 -0.882847 0
M  V30 1971 H 195.09 -2.52427 1.61557 0
M  V30 1972 H 192.651 -1.27967 0.991771 0
M  V30 1973 H 194.643 -4.02485 -0.422852 0
M  V30 1974 H 193.213 -3.02596 -0.784514 0
M  V30 1975 H 192.433 -3.58589 1.6373 0
M  V30 1976 H 193.721 -4.80294 1.67914 0
M  V30 1977 H 193.119 -5.4731 -1.43065 0
M  V30 1978 H 191.676 -6.39234 -1.27369 0
M  V30 1979 N 195.109 -0.891671 -1.2995 0
M  V30 1980 C 196.072 -0.36828 -2.26222 0
M  V30 1981 C 197.072 0.493014 -1.53056 0
M  V30 1982 O 198.262 0.299213 -1.71611 0
M  V30 1983 C 195.394 0.47442 -3.37583 0
M  V30 1984 H 196.587 -1.21844 -2.74033 0
M  V30 1985 H 194.14 -0.669107 -1.41254 0
M  V30 1986 H 194.875 1.34489 -2.95099 0
M  V30 1987 H 194.66 -0.142615 -3.91841 0
M  V30 1988 H 196.15 0.83218 -4.09224 0
M  V30 1989 N 196.587 1.43421 -0.653314 0
M  V30 1990 C 197.836 2.01032 -0.164076 0
M  V30 1991 C 198.149 1.52147 1.22926 0
M  V30 1992 O 199.355 2.02031 1.81371 0
M  V30 1993 C 197.811 3.59082 -0.24252 0
M  V30 1994 C 197.419 4.1696 -1.63855 0
M  V30 1995 C 199.163 4.24079 0.18911 0
M  V30 1996 C 197.07 5.67304 -1.67092 0
M  V30 1997 H 196 0.751798 -0.0575769 0
M  V30 1998 H 198.651 1.6439 -0.815362 0
M  V30 1999 H 197.033 3.93125 0.476276 0
M  V30 2000 H 198.207 3.94416 -2.38271 0
M  V30 2001 H 196.522 3.64335 -2.01616 0
M  V30 2002 H 199.119 5.34381 0.184775 0
M  V30 2003 H 199.462 3.98005 1.22056 0
M  V30 2004 H 199.995 3.94918 -0.477938 0
M  V30 2005 H 196.734 5.98145 -2.68146 0
M  V30 2006 H 196.254 5.91904 -0.970014 0
M  V30 2007 H 197.933 6.31344 -1.4147 0
M  V30 2008 N 198.065 0.39524 1.52563 0
M  V30 2009 C 199.314 -0.186321 2.00838 0
M  V30 2010 C 199.627 -1.47402 1.28577 0
M  V30 2011 O 200.833 -2.13599 1.67593 0
M  V30 2012 C 199.289 -0.382595 3.57861 0
M  V30 2013 C 198.897 0.892202 4.39026 0
M  V30 2014 C 200.641 -0.9202 4.14406 0
M  V30 2015 C 198.548 0.66388 5.87662 0
M  V30 2016 H 197.478 -0.0734041 0.750418 0
M  V30 2017 H 200.129 0.518552 1.76021 0
M  V30 2018 H 198.511 -1.14946 3.7895 0
M  V30 2019 H 199.685 1.66414 4.29701 0
M  V30 2020 H 198 1.35519 3.9373 0
M  V30 2021 H 200.597 -1.10683 5.23119 0
M  V30 2022 H 200.94 -1.89096 3.70875 0
M  V30 2023 H 201.473 -0.212751 3.97231 0
M  V30 2024 H 198.212 1.6058 6.35527 0
M  V30 2025 H 197.732 -0.0690193 5.9976 0
M  V30 2026 H 199.411 0.300699 6.46301 0
M  V30 2027 N 199.544 -1.57102 0.125237 0
M  V30 2028 C 200.507 -2.14471 -0.80838 0
M  V30 2029 C 201.507 -1.0811 -1.19033 0
M  V30 2030 O 202.697 -1.33856 -1.11482 0
M  V30 2031 C 199.829 -2.69005 -2.09402 0
M  V30 2032 H 201.022 -2.98297 -0.309696 0
M  V30 2033 H 198.575 -1.55807 -0.124051 0
M  V30 2034 H 199.31 -1.88785 -2.63687 0
M  V30 2035 H 199.095 -3.46799 -1.82957 0
M  V30 2036 H 200.585 -3.13278 -2.76128 0
M  V30 2037 N 201.022 0.148545 -1.56898 0
M  V30 2038 C 202.271 0.85984 -1.82454 0
M  V30 2039 C 202.584 1.82406 -0.706229 0
M  V30 2040 O 203.79 2.57938 -0.847349 0
M  V30 2041 C 202.246 1.57967 -3.2338 0
M  V30 2042 C 201.854 0.65794 -4.43142 0
M  V30 2043 C 203.598 2.27784 -3.58211 0
M  V30 2044 C 201.505 1.3793 -5.75091 0
M  V30 2045 H 200.435 0.324834 -0.68044 0
M  V30 2046 H 203.086 0.112588 -1.83154 0
M  V30 2047 H 201.468 2.37249 -3.17063 0
M  V30 2048 H 202.642 -0.0995497 -4.60692 0
M  V30 2049 H 200.957 0.0682643 -4.16344 0
M  V30 2050 H 203.554 2.8239 -4.54048 0
M  V30 2051 H 203.897 3.04204 -2.84193 0
M  V30 2052 H 204.43 1.55421 -3.66182 0
M  V30 2053 H 201.169 0.656982 -6.52199 0
M  V30 2054 H 200.689 2.10954 -5.61479 0
M  V30 2055 H 202.368 1.92063 -6.17835 0
M  V30 2056 N 202.5 1.5196 0.417844 0
M  V30 2057 C 203.728 1.69426 1.18753 0
M  V30 2058 C 204.143 0.399955 1.84515 0
M  V30 2059 O 203.5 -0.623288 1.71527 0
M  V30 2060 C 203.551 2.82375 2.25714 0
M  V30 2061 O 203.272 4.06793 1.62638 0
M  V30 2062 C 204.773 3.11277 3.15628 0
M  V30 2063 H 201.993 0.568031 0.357186 0
M  V30 2064 H 204.537 1.98475 0.49273 0
M  V30 2065 H 202.692 2.5587 2.90877 0
M  V30 2066 H 203.106 4.69667 2.3348 0
M  V30 2067 H 204.58 3.93843 3.86771 0
M  V30 2068 H 205.057 2.24473 3.77503 0
M  V30 2069 H 205.663 3.39515 2.56144 0
M  V30 2070 N 203.978 -0.674533 1.42435 0
M  V30 2071 C 205.225 -1.43459 1.42919 0
M  V30 2072 C 205.553 -1.94446 0.0457312 0
M  V30 2073 O 204.808 -1.7132 -0.94593 0
M  V30 2074 C 205.107 -2.64767 2.40069 0
M  V30 2075 C 204.773 -2.3232 3.86443 0
M  V30 2076 C 203.435 -2.23182 4.26314 0
M  V30 2077 C 205.787 -2.05977 4.78773 0
M  V30 2078 C 203.115 -1.85827 5.56494 0
M  V30 2079 C 205.467 -1.70125 6.09295 0
M  V30 2080 C 204.131 -1.59498 6.48164 0
M  V30 2081 H 203.401 -0.524952 0.522978 0
M  V30 2082 H 206.048 -0.769097 1.75377 0
M  V30 2083 H 204.353 -3.36349 2.00939 0
M  V30 2084 H 206.05 -3.22949 2.37707 0
M  V30 2085 H 202.64 -2.40334 3.54877 0
M  V30 2086 H 206.824 -2.11969 4.48757 0
M  V30 2087 H 202.08 -1.76168 5.8547 0
M  V30 2088 H 206.254 -1.48767 6.80324 0
M  V30 2089 H 203.881 -1.30322 7.48946 0
M  V30 2090 N 205.456 -1.28612 -0.910864 0
M  V30 2091 C 206.419 -1.12803 -1.9952 0
M  V30 2092 C 207.419 -0.0668264 -1.60661 0
M  V30 2093 O 208.609 -0.312847 -1.71368 0
M  V30 2094 C 205.741 -0.72254 -3.33155 0
M  V30 2095 H 206.934 -2.09109 -2.14973 0
M  V30 2096 H 204.487 -1.11639 -1.09391 0
M  V30 2097 H 205.222 0.241152 -3.23402 0
M  V30 2098 H 205.007 -1.48916 -3.62721 0
M  V30 2099 H 206.497 -0.634666 -4.12749 0
M  V30 2100 N 206.934 1.1197 -1.10907 0
M  V30 2101 C 207.882 2.19927 -0.757303 0
M  V30 2102 C 208.876 1.67564 0.248747 0
M  V30 2103 O 210.082 1.79672 0.108605 0
M  V30 2104 H 206.457 0.716925 -0.226987 0
M  V30 2105 H 208.428 2.46847 -1.67658 0
M  V30 2106 C 207.177 3.47061 -0.210671 0
M  V30 2107 H 206.5 3.87703 -0.976049 0
M  V30 2108 H 207.94 4.24 -0.0026584 0
M  V30 2109 C 206.399 3.19864 1.05777 0
M  V30 2110 O 206.929 3.40049 2.13845 0
M  V30 2111 N 205.135 2.73636 0.978349 0
M  V30 2112 H 204.682 2.5741 0.0988246 0
M  V30 2113 H 204.64 2.55815 1.82773 0
M  V30 2114 N 208.412 0.89855 1.29475 0
M  V30 2115 C 209.642 0.538479 1.99459 0
M  V30 2116 C 210.05 -0.880922 1.67441 0
M  V30 2117 O 209.393 -1.59283 0.915127 0
M  V30 2118 C 209.455 0.649564 3.53583 0
M  V30 2119 C 209.119 2.03573 4.09154 0
M  V30 2120 C 210.116 3.00675 4.24135 0
M  V30 2121 C 207.801 2.3448 4.44212 0
M  V30 2122 C 209.795 4.26809 4.73405 0
M  V30 2123 C 207.482 3.60857 4.93179 0
M  V30 2124 C 208.48 4.56836 5.0773 0
M  V30 2125 O 208.168 5.80969 5.55635 0
M  V30 2126 H 207.9 0.205372 0.644048 0
M  V30 2127 H 210.454 1.20958 1.66007 0
M  V30 2128 H 208.684 -0.0785592 3.8662 0
M  V30 2129 H 210.373 0.29881 4.04799 0
M  V30 2130 H 211.139 2.78112 3.97339 0
M  V30 2131 H 207.018 1.60534 4.32145 0
M  V30 2132 H 210.562 5.0173 4.84678 0
M  V30 2133 H 206.459 3.83251 5.19412 0
M  V30 2134 H 207.227 5.83542 5.73952 0
M  V30 2135 N 209.89 -1.43072 0.660911 0
M  V30 2136 C 210.823 -2.28074 -0.0758862 0
M  V30 2137 C 211.801 -1.40271 -0.822362 0
M  V30 2138 O 212.985 -1.69713 -0.820352 0
M  V30 2139 C 210.112 -3.19843 -1.11437 0
M  V30 2140 C 209.158 -4.23957 -0.465069 0
M  V30 2141 S 209.991 -5.29978 0.767078 0
M  V30 2142 C 211.147 -6.25314 -0.270682 0
M  V30 2143 H 211.38 -2.90216 0.645139 0
M  V30 2144 H 208.913 -1.47697 0.449995 0
M  V30 2145 H 210.871 -3.73257 -1.70849 0
M  V30 2146 H 209.532 -2.56863 -1.80776 0
M  V30 2147 H 208.725 -4.88299 -1.24819 0
M  V30 2148 H 208.327 -3.73959 0.0551242 0
M  V30 2149 H 210.619 -6.67932 -1.13459 0
M  V30 2150 H 211.562 -7.07293 0.337916 0
M  V30 2151 H 211.97 -5.61195 -0.609937 0
M  V30 2152 N 211.368 -0.403325 -1.52352 0
M  V30 2153 C 212.614 0.174605 -2.02047 0
M  V30 2154 C 212.947 1.45282 -1.28867 0
M  V30 2155 O 212.222 1.90483 -0.393257 0
M  V30 2156 C 212.505 0.428238 -3.57545 0
M  V30 2157 C 212.358 -0.866248 -4.4138 0
M  V30 2158 C 213.677 1.21287 -4.23057 0
M  V30 2159 H 210.796 0.0619851 -0.734389 0
M  V30 2160 H 213.438 -0.53565 -1.82293 0
M  V30 2161 H 211.588 1.03327 -3.74507 0
M  V30 2162 H 213.26 -1.50265 -4.3614 0
M  V30 2163 H 211.503 -1.47851 -4.07827 0
M  V30 2164 H 212.174 -0.643249 -5.48239 0
M  V30 2165 H 214.65 0.700703 -4.10158 0
M  V30 2166 H 213.526 1.35909 -5.31808 0
M  V30 2167 H 213.787 2.23193 -3.81625 0
M  V30 2168 N 212.846 1.57033 -0.133567 0
M  V30 2169 C 213.778 2.13176 0.841944 0
M  V30 2170 C 214.791 1.07794 1.22001 0
M  V30 2171 O 215.98 1.35117 1.16643 0
M  V30 2172 C 213.08 2.62847 2.13926 0
M  V30 2173 C 212.253 3.92486 1.93064 0
M  V30 2174 C 211.312 4.27605 3.0666 0
M  V30 2175 O 210.338 4.96168 2.78937 0
M  V30 2176 N 211.54 3.861 4.33483 0
M  V30 2177 H 214.305 2.97503 0.362192 0
M  V30 2178 H 211.866 1.61821 0.05042 0
M  V30 2179 H 213.858 2.83363 2.88942 0
M  V30 2180 H 212.428 1.83319 2.53205 0
M  V30 2181 H 211.648 3.80732 1.02159 0
M  V30 2182 H 212.936 4.77225 1.76447 0
M  V30 2183 H 212.334 3.30828 4.58878 0
M  V30 2184 H 210.891 4.11694 5.05323 0
M  V30 2185 N 214.325 -0.140222 1.56975 0
M  V30 2186 C 215.736 -0.699596 1.73097 0
M  V30 2187 C 216.087 -1.8134 0.749022 0
M  V30 2188 O 215.212 -2.16241 -0.0828503 0
M  V30 2189 C 215.807 -1.27582 3.1386 0
M  V30 2190 C 214.366 -1.78169 3.31561 0
M  V30 2191 C 213.513 -0.672855 2.69013 0
M  V30 2192 H 216.464 0.0855115 1.58469 0
M  V30 2193 H 216.485 -2.14561 3.14235 0
M  V30 2194 H 215.997 -0.464955 3.85305 0
M  V30 2195 H 214.098 -2.61801 2.65124 0
M  V30 2196 H 214.211 -1.90574 4.39566 0
M  V30 2197 H 212.575 -1.10118 2.29665 0
M  V30 2198 H 213.358 0.126679 3.43066 0
M  V30 2199 N 215.803 -1.52179 -0.40978 0
M  V30 2200 C 216.733 -1.78435 -1.5061 0
M  V30 2201 C 217.714 -0.635295 -1.57791 0
M  V30 2202 O 218.899 -0.880823 -1.73076 0
M  V30 2203 C 216.029 -1.93444 -2.88439 0
M  V30 2204 C 214.983 -3.09038 -2.96108 0
M  V30 2205 C 214.309 -3.09268 -4.36185 0
M  V30 2206 C 215.609 -4.48508 -2.67652 0
M  V30 2207 H 217.303 -2.70237 -1.28889 0
M  V30 2208 H 214.849 -1.30036 -0.618605 0
M  V30 2209 H 216.802 -2.10394 -3.65119 0
M  V30 2210 H 215.526 -0.983129 -3.11452 0
M  V30 2211 H 214.185 -2.91837 -2.21872 0
M  V30 2212 H 213.833 -2.11861 -4.56206 0
M  V30 2213 H 213.533 -3.86907 -4.42241 0
M  V30 2214 H 215.057 -3.28348 -5.14801 0
M  V30 2215 H 216.471 -4.65918 -3.34056 0
M  V30 2216 H 214.868 -5.28059 -2.85085 0
M  V30 2217 H 215.938 -4.56649 -1.63095 0
M  V30 2218 N 217.281 0.66697 -1.42791 0
M  V30 2219 C 218.528 1.42699 -1.43678 0
M  V30 2220 C 218.856 1.94419 -0.0560425 0
M  V30 2221 O 218.111 1.7182 0.936831 0
M  V30 2222 C 218.41 2.6349 -2.4147 0
M  V30 2223 C 218.076 2.30267 -3.8767 0
M  V30 2224 C 216.738 2.20918 -4.27491 0
M  V30 2225 C 219.09 2.03435 -4.79858 0
M  V30 2226 C 216.418 1.82873 -5.57471 0
M  V30 2227 C 218.77 1.66892 -6.10188 0
M  V30 2228 C 217.434 1.56058 -6.49001 0
M  V30 2229 H 216.704 0.522171 -0.525755 0
M  V30 2230 H 219.351 0.759785 -1.75783 0
M  V30 2231 H 217.656 3.35279 -2.0272 0
M  V30 2232 H 219.353 3.21684 -2.39417 0
M  V30 2233 H 215.943 2.38449 -3.56146 0
M  V30 2234 H 220.127 2.09586 -4.49875 0
M  V30 2235 H 215.383 1.7306 -5.86396 0
M  V30 2236 H 219.557 1.45157 -6.81104 0
M  V30 2237 H 217.184 1.26348 -7.49627 0
M  V30 2238 N 218.759 1.29093 0.90403 0
M  V30 2239 C 220.17 1.15186 1.46932 0
M  V30 2240 C 220.521 -0.254587 1.94541 0
M  V30 2241 O 219.646 -1.14972 1.83332 0
M  V30 2242 C 220.241 2.08492 2.67051 0
M  V30 2243 C 218.8 1.98621 3.19729 0
M  V30 2244 C 217.947 1.9967 1.92425 0
M  V30 2245 H 220.898 1.41641 0.715789 0
M  V30 2246 H 220.919 1.65461 3.42641 0
M  V30 2247 H 220.431 3.10847 2.3237 0
M  V30 2248 H 218.532 0.993389 3.59114 0
M  V30 2249 H 218.645 2.86068 3.8432 0
M  V30 2250 H 217.009 1.44208 2.09943 0
M  V30 2251 H 217.792 3.03721 1.60026 0
M  V30 2252 N 220.237 -1.11381 1.11499 0
M  V30 2253 C 221.462 -1.87475 0.887019 0
M  V30 2254 C 221.887 -1.79639 -0.557796 0
M  V30 2255 O 221.245 -1.15924 -1.39396 0
M  V30 2256 C 221.293 -3.34213 1.35403 0
M  V30 2257 O 220.397 -4.0903 0.526146 0
M  V30 2258 H 219.738 -0.582099 0.319463 0
M  V30 2259 H 222.268 -1.40785 1.48461 0
M  V30 2260 H 222.278 -3.8506 1.34881 0
M  V30 2261 H 220.953 -3.39232 2.40612 0
M  V30 2262 H 219.53 -3.68082 0.597522 0
M  V30 2263 N 221.715 -0.905404 -1.28997 0
M  V30 2264 C 222.955 -0.541232 -1.97104 0
M  V30 2265 C 223.319 0.896841 -1.69767 0
M  V30 2266 O 224.52 1.36817 -2.31375 0
M  V30 2267 C 222.791 -0.832134 -3.47578 0
M  V30 2268 S 224.35 -0.573127 -4.35041 0
M  V30 2269 H 221.168 -0.200576 -0.682122 0
M  V30 2270 H 223.77 -1.16906 -1.56694 0
M  V30 2271 H 222.474 -1.87687 -3.64968 0
M  V30 2272 H 222.005 -0.192636 -3.92928 0
M  V30 2273 H 224.02 0.579297 -4.92807 0
M  V30 2274 N 223.193 1.4272 -0.668489 0
M  V30 2275 C 224.44 2.01624 -0.18814 0
M  V30 2276 C 224.768 1.5282 1.20317 0
M  V30 2277 O 224.023 0.718323 1.8204 0
M  V30 2278 C 224.322 3.57021 -0.164499 0
M  V30 2279 C 223.988 4.25232 -1.49962 0
M  V30 2280 C 222.65 4.4358 -1.8652 0
M  V30 2281 C 225.002 4.63727 -2.37921 0
M  V30 2282 C 222.33 4.97694 -3.10674 0
M  V30 2283 C 224.682 5.19218 -3.6138 0
M  V30 2284 C 223.346 5.3578 -3.98115 0
M  V30 2285 H 222.616 0.737795 -0.0688454 0
M  V30 2286 H 225.263 1.70991 -0.862225 0
M  V30 2287 H 223.568 3.87285 0.593079 0
M  V30 2288 H 225.265 4.00372 0.224271 0
M  V30 2289 H 221.855 4.11306 -1.20522 0
M  V30 2290 H 226.039 4.4923 -2.10964 0
M  V30 2291 H 221.295 5.08702 -3.39164 0
M  V30 2292 H 225.469 5.4799 -4.29743 0
M  V30 2293 H 223.096 5.77475 -4.94395 0
M  V30 2294 N 224.671 0.411399 1.52136 0
M  V30 2295 C 225.634 -0.401089 2.25663 0
M  V30 2296 C 226.634 -0.971732 1.28117 0
M  V30 2297 O 227.824 -0.850254 1.52041 0
M  V30 2298 C 224.956 -1.56483 3.02863 0
M  V30 2299 H 226.149 0.24295 2.98914 0
M  V30 2300 H 223.702 0.163968 1.55438 0
M  V30 2301 H 224.437 -2.24567 2.33967 0
M  V30 2302 H 224.222 -1.16211 3.74483 0
M  V30 2303 H 225.712 -2.13951 3.58629 0
M  V30 2304 N 226.149 -1.5696 0.141893 0
M  V30 2305 C 227.56 -1.82797 -0.379776 0
M  V30 2306 C 227.911 -1.06033 -1.6508 0
M  V30 2307 O 227.036 -0.304011 -2.14254 0
M  V30 2308 C 227.631 -3.31578 -0.695802 0
M  V30 2309 C 226.19 -3.58014 -1.16201 0
M  V30 2310 C 225.337 -2.76699 -0.182455 0
M  V30 2311 H 228.288 -1.54406 0.366675 0
M  V30 2312 H 228.309 -3.47454 -1.55099 0
M  V30 2313 H 227.821 -3.87421 0.229449 0
M  V30 2314 H 225.922 -3.07553 -2.10338 0
M  V30 2315 H 226.035 -4.66501 -1.09151 0
M  V30 2316 H 224.399 -2.45618 -0.674072 0
M  V30 2317 H 225.182 -3.35311 0.736297 0
M  V30 2318 N 227.627 0.131896 -1.57047 0
M  V30 2319 C 228.857 0.855219 -1.88068 0
M  V30 2320 C 229.265 1.74557 -0.729817 0
M  V30 2321 O 228.608 1.81083 0.308962 0
M  V30 2322 C 228.67 1.75119 -3.13964 0
M  V30 2323 C 228.334 1.03646 -4.45091 0
M  V30 2324 C 229.331 0.383276 -5.18485 0
M  V30 2325 C 227.016 1.02148 -4.91804 0
M  V30 2326 C 229.01 -0.275347 -6.36805 0
M  V30 2327 C 226.697 0.359047 -6.10044 0
M  V30 2328 C 227.695 -0.288222 -6.82392 0
M  V30 2329 O 227.383 -0.94011 -7.98384 0
M  V30 2330 H 227.115 0.251864 -0.627328 0
M  V30 2331 H 229.669 0.124782 -2.05021 0
M  V30 2332 H 227.899 2.52295 -2.9306 0
M  V30 2333 H 229.588 2.3478 -3.31109 0
M  V30 2334 H 230.354 0.386562 -4.83457 0
M  V30 2335 H 226.233 1.5147 -4.35405 0
M  V30 2336 H 229.777 -0.781148 -6.93213 0
M  V30 2337 H 225.674 0.35348 -6.44531 0
M  V30 2338 H 226.442 -0.84329 -8.14144 0
M  V30 2339 N 229.106 1.52395 0.401703 0
M  V30 2340 C 230.069 1.75636 1.47257 0
M  V30 2341 C 231.069 0.62628 1.48103 0
M  V30 2342 O 232.259 0.894227 1.49497 0
M  V30 2343 C 229.391 1.84553 2.86624 0
M  V30 2344 H 230.584 2.71241 1.27938 0
M  V30 2345 H 228.137 1.42923 0.632662 0
M  V30 2346 H 228.872 0.908882 3.11303 0
M  V30 2347 H 228.657 2.66715 2.87412 0
M  V30 2348 H 230.147 2.04251 3.64241 0
M  V30 2349 N 230.584 -0.659388 1.43143 0
M  V30 2350 C 231.547 -1.75432 1.47501 0
M  V30 2351 C 232.547 -1.56707 0.360512 0
M  V30 2352 O 233.737 -1.62717 0.622002 0
M  V30 2353 C 230.869 -3.14239 1.32162 0
M  V30 2354 H 232.062 -1.7295 2.45006 0
M  V30 2355 H 229.615 -0.870469 1.29817 0
M  V30 2356 H 230.35 -3.22336 0.356401 0
M  V30 2357 H 230.135 -3.29235 2.12948 0
M  V30 2358 H 231.625 -3.94094 1.3813 0
M  V30 2359 N 232.062 -1.29571 -0.897171 0
M  V30 2360 C 233.287 -1.20705 -1.68656 0
M  V30 2361 C 233.712 0.228582 -1.86706 0
M  V30 2362 O 233.07 1.16494 -1.3892 0
M  V30 2363 C 233.118 -1.9282 -3.04717 0
M  V30 2364 O 232.222 -1.24697 -3.93096 0
M  V30 2365 H 231.563 -0.418126 -0.515816 0
M  V30 2366 H 234.093 -1.71183 -1.12061 0
M  V30 2367 H 234.103 -2.01372 -3.54843 0
M  V30 2368 H 232.778 -2.97239 -2.90899 0
M  V30 2369 H 231.355 -1.2442 -3.51531 0
M  V30 2370 N 233.54 1.10788 -1.12088 0
M  V30 2371 C 234.956 1.34691 -0.856186 0
M  V30 2372 C 235.156 1.94791 0.515615 0
M  V30 2373 O 234.212 2.18524 1.26505 0
M  V30 2374 C 235.525 2.27208 -1.9697 0
M  V30 2375 C 237.073 2.40755 -2.00016 0
M  V30 2376 C 237.548 3.36598 -3.1059 0
M  V30 2377 N 239.039 3.44164 -3.10008 0
M  V30 2378 C 239.774 4.18284 -3.92206 0
M  V30 2379 N 239.27 4.95322 -4.84384 0
M  V30 2380 N 241.063 4.13865 -3.80357 0
M  V30 2381 H 233.214 0.70144 -2.00483 0
M  V30 2382 H 235.477 0.371405 -0.872217 0
M  V30 2383 H 235.183 1.90251 -2.958 0
M  V30 2384 H 235.057 3.27485 -1.87172 0
M  V30 2385 H 237.444 2.76982 -1.01808 0
M  V30 2386 H 237.525 1.40305 -2.13888 0
M  V30 2387 H 237.169 3.01096 -4.09028 0
M  V30 2388 H 237.099 4.36918 -2.93956 0
M  V30 2389 H 239.59 2.8922 -2.43228 0
M  V30 2390 H 239.903 5.49267 -5.43623 0
M  V30 2391 H 238.248 4.94459 -4.884 0
M  V30 2392 H 241.439 3.52773 -3.07683 0
M  V30 2393 H 241.612 4.71372 -4.44649 0
M  V30 2394 N 235.018 0.912232 1.28515 0
M  V30 2395 C 235.948 0.416403 2.29757 0
M  V30 2396 C 236.929 -0.515194 1.6211 0
M  V30 2397 O 238.114 -0.423253 1.89532 0
M  V30 2398 C 235.244 -0.34572 3.45575 0
M  V30 2399 C 234.198 0.496599 4.25109 0
M  V30 2400 C 233.524 -0.393771 5.33248 0
M  V30 2401 C 234.824 1.75307 4.92001 0
M  V30 2402 H 236.518 1.26249 2.7148 0
M  V30 2403 H 234.064 0.608515 1.30511 0
M  V30 2404 H 236.017 -0.703422 4.15488 0
M  V30 2405 H 234.741 -1.2257 3.02728 0
M  V30 2406 H 233.4 0.8368 3.56922 0
M  V30 2407 H 233.048 -1.27225 4.86644 0
M  V30 2408 H 232.748 0.166209 5.87365 0
M  V30 2409 H 234.272 -0.747389 6.06009 0
M  V30 2410 H 235.686 1.46437 5.54283 0
M  V30 2411 H 234.083 2.25534 5.56106 0
M  V30 2412 H 235.153 2.48176 4.16577 0
M  V30 2413 N 236.496 -1.42363 0.676048 0
M  V30 2414 C 237.426 -2.33497 0.0124832 0
M  V30 2415 C 238.407 -1.50748 -0.787981 0
M  V30 2416 O 239.592 -1.79346 -0.744884 0
M  V30 2417 C 236.722 -3.34377 -0.938582 0
M  V30 2418 C 235.676 -4.27289 -0.246622 0
M  V30 2419 C 235.002 -5.18386 -1.31071 0
M  V30 2420 C 236.302 -5.14916 0.875125 0
M  V30 2421 H 237.996 -2.89233 0.773593 0
M  V30 2422 H 235.542 -1.39073 0.37346 0
M  V30 2423 H 237.495 -3.97044 -1.41188 0
M  V30 2424 H 236.219 -2.76947 -1.73113 0
M  V30 2425 H 234.878 -3.66018 0.206456 0
M  V30 2426 H 234.526 -4.57282 -2.09528 0
M  V30 2427 H 234.226 -5.81378 -0.852839 0
M  V30 2428 H 235.75 -5.83929 -1.78492 0
M  V30 2429 H 237.164 -5.71262 0.482983 0
M  V30 2430 H 235.561 -5.86747 1.25887 0
M  V30 2431 H 236.631 -4.53242 1.72335 0
M  V30 2432 N 237.974 -0.419461 -1.51915 0
M  V30 2433 C 238.937 0.389116 -2.25873 0
M  V30 2434 C 239.937 0.964924 -1.28631 0
M  V30 2435 O 241.127 0.842179 -1.52489 0
M  V30 2436 C 238.259 1.54874 -3.03689 0
M  V30 2437 H 239.452 -0.258799 -2.98781 0
M  V30 2438 H 237.005 -0.172209 -1.55348 0
M  V30 2439 H 237.74 2.23323 -2.35154 0
M  V30 2440 H 237.525 1.14223 -3.75094 0
M  V30 2441 H 239.015 2.12046 -3.59759 0
M  V30 2442 N 239.452 1.56882 -0.150215 0
M  V30 2443 C 240.415 2.1573 0.774157 0
M  V30 2444 C 241.415 1.0999 1.17298 0
M  V30 2445 O 242.605 1.35613 1.09338 0
M  V30 2446 C 239.737 2.72302 2.05096 0
M  V30 2447 H 240.93 2.98752 0.262201 0
M  V30 2448 H 238.483 1.55985 0.099248 0
M  V30 2449 H 239.218 1.92956 2.6065 0
M  V30 2450 H 239.003 3.49665 1.77416 0
M  V30 2451 H 240.493 3.17632 2.71109 0
M  V30 2452 N 240.93 -0.123565 1.57115 0
M  V30 2453 C 241.893 -1.13583 1.99076 0
M  V30 2454 C 242.893 -1.34564 0.880296 0
M  V30 2455 O 244.083 -1.31158 1.14644 0
M  V30 2456 C 241.215 -2.49128 2.32698 0
M  V30 2457 H 242.408 -0.775287 2.89706 0
M  V30 2458 H 239.961 -0.36771 1.51913 0
M  V30 2459 H 240.696 -2.90111 1.44934 0
M  V30 2460 H 240.481 -2.35255 3.13684 0
M  V30 2461 H 241.971 -3.2199 2.65918 0
M  V30 2462 N 242.408 -1.52605 -0.393616 0
M  V30 2463 C 243.648 -1.6911 -1.1481 0
M  V30 2464 C 244.012 -0.41969 -1.87357 0
M  V30 2465 O 245.213 -0.461034 -2.64817 0
M  V30 2466 C 243.484 -2.88909 -2.10395 0
M  V30 2467 S 245.043 -3.25977 -2.93742 0
M  V30 2468 H 241.861 -0.595337 -0.38871 0
M  V30 2469 H 244.463 -1.90641 -0.433178 0
M  V30 2470 H 243.167 -3.79672 -1.55812 0
M  V30 2471 H 242.698 -2.69698 -2.86403 0
M  V30 2472 H 244.713 -2.75806 -4.12487 0
M  V30 2473 N 243.887 0.651787 -1.4349 0
M  V30 2474 C 245.136 1.40754 -1.44469 0
M  V30 2475 C 245.449 1.95463 -0.0731845 0
M  V30 2476 O 246.655 2.71471 0.0395721 0
M  V30 2477 C 245.111 2.54735 -2.5424 0
M  V30 2478 C 244.719 2.06628 -3.97504 0
M  V30 2479 C 246.463 3.32092 -2.64414 0
M  V30 2480 C 244.37 3.17829 -4.98737 0
M  V30 2481 H 243.3 0.528862 -0.53742 0
M  V30 2482 H 245.951 0.703365 -1.69485 0
M  V30 2483 H 244.333 3.2763 -2.22428 0
M  V30 2484 H 245.507 1.40734 -4.38783 0
M  V30 2485 H 243.822 1.42146 -3.91387 0
M  V30 2486 H 246.419 4.14952 -3.37223 0
M  V30 2487 H 246.762 3.80217 -1.69532 0
M  V30 2488 H 247.295 2.66279 -2.95534 0
M  V30 2489 H 244.034 2.74671 -5.95177 0
M  V30 2490 H 243.554 3.82429 -4.62069 0
M  V30 2491 H 245.233 3.82937 -5.21505 0
M  V30 2492 N 245.365 1.30045 0.890287 0
M  V30 2493 C 246.605 1.19839 1.65584 0
M  V30 2494 C 246.969 -0.244175 1.90441 0
M  V30 2495 O 248.17 -0.469378 2.6467 0
M  V30 2496 C 246.441 1.99876 2.96284 0
M  V30 2497 S 248 2.06309 3.87275 0
M  V30 2498 H 244.818 0.427157 0.568382 0
M  V30 2499 H 247.42 1.64453 1.05715 0
M  V30 2500 H 246.124 3.03809 2.75913 0
M  V30 2501 H 245.655 1.55903 3.61189 0
M  V30 2502 H 247.67 1.18661 4.81803 0
M  V30 2503 N 246.843 -1.10192 1.12674 0
M  V30 2504 C 247.773 -2.18652 0.819362 0
M  V30 2505 C 248.754 -1.68698 -0.217915 0
M  V30 2506 O 249.939 -1.94041 -0.0785581 0
M  V30 2507 C 247.069 -3.46202 0.27594 0
M  V30 2508 C 246.023 -4.09444 1.24656 0
M  V30 2509 C 245.349 -5.31725 0.563258 0
M  V30 2510 C 246.649 -4.52863 2.60217 0
M  V30 2511 H 248.343 -2.44622 1.72628 0
M  V30 2512 H 245.889 -1.17571 0.831451 0
M  V30 2513 H 247.842 -4.21372 0.0486149 0
M  V30 2514 H 246.566 -3.1973 -0.666331 0
M  V30 2515 H 245.225 -3.36284 1.45974 0
M  V30 2516 H 244.873 -5.0153 -0.384235 0
M  V30 2517 H 244.573 -5.74991 1.21075 0
M  V30 2518 H 246.097 -6.09624 0.34503 0
M  V30 2519 H 247.511 -5.19294 2.42913 0
M  V30 2520 H 245.908 -5.06986 3.21068 0
M  V30 2521 H 246.978 -3.65656 3.18471 0
M  V30 2522 N 248.321 -0.919034 -1.28029 0
M  V30 2523 C 249.251 -0.428581 -2.29533 0
M  V30 2524 C 250.232 0.50659 -1.62381 0
M  V30 2525 O 251.417 0.413195 -1.89753 0
M  V30 2526 C 248.547 0.327388 -3.45753 0
M  V30 2527 C 247.501 -0.519137 -4.2484 0
M  V30 2528 C 246.827 0.365486 -5.33449 0
M  V30 2529 C 248.127 -1.77914 -4.91064 0
M  V30 2530 H 249.821 -1.27687 -2.70807 0
M  V30 2531 H 247.367 -0.615428 -1.30186 0
M  V30 2532 H 249.32 0.681378 -4.15855 0
M  V30 2533 H 248.044 1.20963 -3.03374 0
M  V30 2534 H 246.703 -0.855717 -3.56473 0
M  V30 2535 H 246.351 1.24642 -4.87312 0
M  V30 2536 H 246.051 -0.197356 -5.87268 0
M  V30 2537 H 247.575 0.715241 -6.06396 0
M  V30 2538 H 248.989 -1.49374 -5.53498 0
M  V30 2539 H 247.386 -2.2848 -5.54903 0
M  V30 2540 H 248.456 -2.50382 -4.15255 0
M  V30 2541 N 249.799 1.42003 -0.683588 0
M  V30 2542 C 251.027 2.05746 -0.218182 0
M  V30 2543 C 251.442 1.51396 1.12804 0
M  V30 2544 O 250.799 0.657303 1.70252 0
M  V30 2545 C 250.85 3.61171 -0.154131 0
M  V30 2546 O 250.571 4.13508 -1.44716 0
M  V30 2547 C 252.072 4.42042 0.333713 0
M  V30 2548 H 249.292 0.662888 -0.10402 0
M  V30 2549 H 251.836 1.81987 -0.9328 0
M  V30 2550 H 249.991 3.84012 0.511231 0
M  V30 2551 H 250.405 5.07453 -1.32632 0
M  V30 2552 H 251.879 5.51028 0.327423 0
M  V30 2553 H 252.356 4.17269 1.37053 0
M  V30 2554 H 252.962 4.24239 -0.300222 0
M  V30 2555 N 251.277 0.427512 1.51691 0
M  V30 2556 C 252.524 -0.142229 2.02 0
M  V30 2557 C 252.852 -1.43566 1.31221 0
M  V30 2558 O 252.107 -1.91298 0.412744 0
M  V30 2559 C 252.406 -0.418249 3.54944 0
M  V30 2560 C 252.072 0.788187 4.43958 0
M  V30 2561 C 250.734 1.11906 4.68007 0
M  V30 2562 C 253.086 1.59347 4.96244 0
M  V30 2563 C 250.414 2.25608 5.41588 0
M  V30 2564 C 252.766 2.7214 5.71072 0
M  V30 2565 C 251.43 3.05692 5.93387 0
M  V30 2566 H 250.7 -0.0520451 0.73917 0
M  V30 2567 H 253.347 0.572697 1.82736 0
M  V30 2568 H 251.652 -1.21496 3.72486 0
M  V30 2569 H 253.349 -0.872339 3.91397 0
M  V30 2570 H 249.939 0.520344 4.2543 0
M  V30 2571 H 254.123 1.35106 4.77556 0
M  V30 2572 H 249.379 2.51929 5.57083 0
M  V30 2573 H 253.553 3.34914 6.10578 0
M  V30 2574 H 251.18 3.9391 6.50184 0
M  V30 2575 N 252.755 -1.56801 0.158532 0
M  V30 2576 C 254.004 -1.95665 -0.489702 0
M  V30 2577 C 254.317 -1.04654 -1.65248 0
M  V30 2578 O 255.523 -1.33146 -2.3661 0
M  V30 2579 C 253.979 -3.47874 -0.922582 0
M  V30 2580 C 253.587 -4.47489 0.213893 0
M  V30 2581 C 255.331 -3.95583 -1.53996 0
M  V30 2582 C 253.238 -5.90921 -0.237903 0
M  V30 2583 H 252.168 -0.730516 -0.186716 0
M  V30 2584 H 254.819 -1.81861 0.244722 0
M  V30 2585 H 253.201 -3.57051 -1.71261 0
M  V30 2586 H 254.375 -4.50017 0.991036 0
M  V30 2587 H 252.69 -4.09764 0.740407 0
M  V30 2588 H 255.287 -5.0019 -1.8898 0
M  V30 2589 H 255.63 -3.37789 -2.43319 0
M  V30 2590 H 256.163 -3.8937 -0.814611 0
M  V30 2591 H 252.902 -6.52559 0.620236 0
M  V30 2592 H 252.422 -5.91729 -0.980676 0
M  V30 2593 H 254.101 -6.43352 -0.686067 0
M  V30 2594 N 254.233 0.115231 -1.57178 0
M  V30 2595 C 255.181 1.16014 -2.01602 0
M  V30 2596 C 256.175 1.42653 -0.913587 0
M  V30 2597 O 257.381 1.42571 -1.09879 0
M  V30 2598 H 253.756 0.391252 -0.642204 0
M  V30 2599 H 255.727 0.758998 -2.88586 0
M  V30 2600 C 254.476 2.47767 -2.4394 0
M  V30 2601 H 253.799 2.28108 -3.28339 0
M  V30 2602 H 255.239 3.19432 -2.78818 0
M  V30 2603 C 253.698 3.10617 -1.30455 0
M  V30 2604 O 254.228 3.96846 -0.622585 0
M  V30 2605 N 252.434 2.70553 -1.06064 0
M  V30 2606 H 251.981 2.00527 -1.61699 0
M  V30 2607 H 251.939 3.12934 -0.303284 0
M  V30 2608 N 255.711 1.52812 0.385517 0
M  V30 2609 C 256.951 1.69716 1.13911 0
M  V30 2610 C 257.315 0.42962 1.87132 0
M  V30 2611 O 258.516 0.475071 2.64569 0
M  V30 2612 C 256.787 2.90021 2.0886 0
M  V30 2613 S 258.346 3.27531 2.92009 0
M  V30 2614 H 255.164 0.59739 0.385547 0
M  V30 2615 H 257.766 1.90868 0.423061 0
M  V30 2616 H 256.47 3.80493 1.53797 0
M  V30 2617 H 256.001 2.71213 2.84969 0
M  V30 2618 H 258.016 2.77989 4.11019 0
M  V30 2619 N 257.189 -0.644168 1.43834 0
M  V30 2620 C 258.152 -1.73857 1.49353 0
M  V30 2621 C 259.152 -1.56315 0.377112 0
M  V30 2622 O 260.342 -1.62048 0.639226 0
M  V30 2623 C 257.474 -3.12819 1.35488 0
M  V30 2624 H 258.667 -1.70342 2.46827 0
M  V30 2625 H 256.22 -0.856652 1.30733 0
M  V30 2626 H 256.955 -3.2194 0.390569 0
M  V30 2627 H 256.74 -3.26958 2.16428 0
M  V30 2628 H 258.23 -3.92606 1.42302 0
M  V30 2629 N 258.668 -1.30515 -0.883378 0
M  V30 2630 C 259.898 -1.22182 -1.66599 0
M  V30 2631 C 260.306 0.217507 -1.87946 0
M  V30 2632 O 259.649 1.1554 -1.42815 0
M  V30 2633 C 259.711 -1.88146 -3.06335 0
M  V30 2634 C 259.375 -3.37476 -3.08154 0
M  V30 2635 C 260.372 -4.33443 -2.87094 0
M  V30 2636 C 258.057 -3.7895 -3.29701 0
M  V30 2637 C 260.051 -5.68858 -2.8754 0
M  V30 2638 C 257.738 -5.14482 -3.29776 0
M  V30 2639 C 258.736 -6.09246 -3.0872 0
M  V30 2640 O 258.424 -7.42302 -3.08615 0
M  V30 2641 H 258.156 -0.423898 -0.52658 0
M  V30 2642 H 260.71 -1.72703 -1.11188 0
M  V30 2643 H 258.94 -1.32157 -3.63416 0
M  V30 2644 H 260.629 -1.7391 -3.66756 0
M  V30 2645 H 261.395 -4.02733 -2.70243 0
M  V30 2646 H 257.274 -3.05631 -3.45124 0
M  V30 2647 H 260.818 -6.428 -2.71024 0
M  V30 2648 H 256.715 -5.44832 -3.46163 0
M  V30 2649 H 257.483 -7.5131 -3.24769 0
M  V30 2650 N 260.146 1.09593 -1.13257 0
M  V30 2651 C 261.392 1.82003 -0.89458 0
M  V30 2652 C 261.725 1.85402 0.577906 0
M  V30 2653 O 261 1.32099 1.42759 0
M  V30 2654 C 261.283 3.28237 -1.48096 0
M  V30 2655 C 261.136 3.3312 -3.02244 0
M  V30 2656 C 262.455 4.24871 -1.14774 0
M  V30 2657 H 259.574 0.66077 -0.326424 0
M  V30 2658 H 262.216 1.28389 -1.40058 0
M  V30 2659 H 260.366 3.74024 -1.05062 0
M  V30 2660 H 262.038 2.95748 -3.54021 0
M  V30 2661 H 260.281 2.72756 -3.37323 0
M  V30 2662 H 260.952 4.3613 -3.38371 0
M  V30 2663 H 263.428 3.87361 -1.51957 0
M  V30 2664 H 262.304 5.25532 -1.58452 0
M  V30 2665 H 262.565 4.42058 -0.0611849 0
M  V30 2666 N 261.624 0.925811 1.2754 0
M  V30 2667 C 262.571 0.422045 2.26908 0
M  V30 2668 C 263.541 -0.510029 1.58076 0
M  V30 2669 O 264.726 -0.429599 1.85901 0
M  V30 2670 C 261.866 -0.320837 3.43605 0
M  V30 2671 C 260.979 0.64513 4.27156 0
M  V30 2672 C 260.114 -0.117405 5.3107 0
M  V30 2673 C 259.153 0.841391 6.0629 0
M  V30 2674 N 258.29 0.111604 7.02011 0
M  V30 2675 H 263.13 1.27441 2.69375 0
M  V30 2676 H 260.667 0.639697 1.32462 0
M  V30 2677 H 262.625 -0.76785 4.10073 0
M  V30 2678 H 261.255 -1.13745 3.02096 0
M  V30 2679 H 260.307 1.21067 3.6062 0
M  V30 2680 H 261.619 1.37797 4.79389 0
M  V30 2681 H 260.773 -0.624422 6.03478 0
M  V30 2682 H 259.512 -0.883219 4.79636 0
M  V30 2683 H 258.517 1.35967 5.32722 0
M  V30 2684 H 259.742 1.60696 6.59813 0
M  V30 2685 H 257.688 -0.635999 6.5291 0
M  V30 2686 H 257.605 0.784044 7.51923 0
M  V30 2687 H 258.873 -0.374823 7.78598 0
M  V30 2688 N 263.102 -1.41638 0.69111 0
M  V30 2689 C 264.348 -2.02104 0.229258 0
M  V30 2690 C 264.703 -1.53741 -1.15678 0
M  V30 2691 O 263.996 -0.736849 -1.76865 0
M  V30 2692 C 264.19 -3.56714 0.221277 0
M  V30 2693 C 264.019 -4.20083 1.605 0
M  V30 2694 C 262.789 -4.54566 2.20676 0
M  V30 2695 C 264.987 -4.46587 2.55078 0
M  V30 2696 N 262.969 -5.03199 3.5166 0
M  V30 2697 C 264.34 -4.96946 3.70735 0
M  V30 2698 C 266.395 -4.28593 2.53401 0
M  V30 2699 C 265.098 -5.31203 4.8499 0
M  V30 2700 C 267.124 -4.63936 3.66765 0
M  V30 2701 C 266.486 -5.14463 4.81152 0
M  V30 2702 H 262.585 -0.771256 0.12918 0
M  V30 2703 H 265.169 -1.72251 0.907626 0
M  V30 2704 H 263.34 -3.86051 -0.426562 0
M  V30 2705 H 265.072 -4.03896 -0.254983 0
M  V30 2706 H 261.827 -4.4087 1.73005 0
M  V30 2707 H 262.251 -5.31926 4.18789 0
M  V30 2708 H 266.893 -3.88771 1.66184 0
M  V30 2709 H 264.611 -5.69951 5.72871 0
M  V30 2710 H 268.197 -4.51677 3.66714 0
M  V30 2711 H 267.077 -5.41299 5.67419 0
M  V30 2712 N 264.58 -0.43555 -1.51462 0
M  V30 2713 C 265.828 0.131254 -2.01673 0
M  V30 2714 C 266.149 1.43368 -1.32177 0
M  V30 2715 O 265.419 1.90524 -0.455769 0
M  V30 2716 H 263.999 0.0514954 -0.745223 0
M  V30 2717 H 266.661 -0.577847 -1.86137 0
M  V30 2718 H 265.757 0.308446 -3.10572 0
M  V30 2719 N 266.058 1.56714 -0.166846 0
M  V30 2720 C 267.286 2.0112 0.485644 0
M  V30 2721 C 267.701 1.04705 1.57106 0
M  V30 2722 O 267.058 0.0471923 1.82439 0
M  V30 2723 C 267.109 3.45361 1.06808 0
M  V30 2724 O 266.83 4.38092 0.0259995 0
M  V30 2725 C 268.331 4.05145 1.79924 0
M  V30 2726 H 265.551 0.65931 0.124704 0
M  V30 2727 H 268.095 2.02746 -0.267262 0
M  V30 2728 H 266.25 3.44524 1.7715 0
M  V30 2729 H 266.664 5.22519 0.455398 0
M  V30 2730 H 268.138 5.08009 2.15942 0
M  V30 2731 H 268.615 3.46982 2.69258 0
M  V30 2732 H 269.221 4.09672 1.14234 0
M  V30 2733 N 267.536 -0.106894 1.57237 0
M  V30 2734 C 268.466 -1.13148 2.04254 0
M  V30 2735 C 269.447 -1.42476 0.929224 0
M  V30 2736 O 270.632 -1.52709 1.19973 0
M  V30 2737 C 267.762 -2.4545 2.45706 0
M  V30 2738 C 266.716 -2.30558 3.60592 0
M  V30 2739 C 266.042 -3.67931 3.87983 0
M  V30 2740 C 267.342 -1.75597 4.91897 0
M  V30 2741 H 269.036 -0.740374 2.90101 0
M  V30 2742 H 266.582 -0.354696 1.39563 0
M  V30 2743 H 268.535 -3.17389 2.77205 0
M  V30 2744 H 267.259 -2.86475 1.56843 0
M  V30 2745 H 265.918 -1.61067 3.29322 0
M  V30 2746 H 265.566 -4.06462 2.96306 0
M  V30 2747 H 265.266 -3.58817 4.65322 0
M  V30 2748 H 266.79 -4.41356 4.21945 0
M  V30 2749 H 268.204 -2.37364 5.21854 0
M  V30 2750 H 266.601 -1.77272 5.73319 0
M  V30 2751 H 267.671 -0.714451 4.79608 0
M  V30 2752 N 269.014 -1.53014 -0.377408 0
M  V30 2753 C 270.26 -1.68872 -1.12294 0
M  V30 2754 C 270.593 -0.433224 -1.89306 0
M  V30 2755 O 269.868 0.569258 -1.85983 0
M  V30 2756 C 270.151 -2.93115 -2.09179 0
M  V30 2757 C 270.004 -4.28794 -1.35853 0
M  V30 2758 C 271.323 -3.12928 -3.09458 0
M  V30 2759 H 268.442 -0.614518 -0.406862 0
M  V30 2760 H 271.084 -1.85633 -0.40503 0
M  V30 2761 H 269.234 -2.78956 -2.70399 0
M  V30 2762 H 270.906 -4.54742 -0.775082 0
M  V30 2763 H 269.149 -4.28744 -0.660364 0
M  V30 2764 H 269.82 -5.11837 -2.06706 0
M  V30 2765 H 272.296 -3.26194 -2.58334 0
M  V30 2766 H 271.172 -4.01316 -3.74482 0
M  V30 2767 H 271.433 -2.27669 -3.78971 0
M  V30 2768 N 270.492 0.636531 -1.44174 0
M  V30 2769 C 271.424 1.7618 -1.46606 0
M  V30 2770 C 272.437 1.58768 -0.360091 0
M  V30 2771 O 273.626 1.67181 -0.625518 0
M  V30 2772 C 270.726 3.13833 -1.27915 0
M  V30 2773 C 269.899 3.57753 -2.51658 0
M  V30 2774 C 268.958 4.74265 -2.27945 0
M  V30 2775 O 267.984 4.82852 -3.01401 0
M  V30 2776 N 269.186 5.65604 -1.30662 0
M  V30 2777 H 271.951 1.74567 -2.43612 0
M  V30 2778 H 269.512 0.820924 -1.39544 0
M  V30 2779 H 271.504 3.8949 -1.09907 0
M  V30 2780 H 270.074 3.10121 -0.39293 0
M  V30 2781 H 269.294 2.72362 -2.84978 0
M  V30 2782 H 270.582 3.83847 -3.33974 0
M  V30 2783 H 269.98 5.61354 -0.699844 0
M  V30 2784 H 268.537 6.40913 -1.18634 0
M  V30 2785 N 271.97 1.30982 0.876444 0
M  V30 2786 C 273.247 1.10942 1.61094 0
M  V30 2787 C 273.627 -0.338223 2.08373 0
M  V30 2788 O 272.975 -1.33122 1.85717 0
M  V30 2789 C 273.185 2.11789 2.77392 0
M  V30 2790 C 274.533 2.43965 3.47514 0
M  V30 2791 O 275.557 2.10166 2.87591 0
M  V30 2792 O 274.416 3.01817 4.55597 0
M  V30 2793 H 271.51 0.42667 0.708436 0
M  V30 2794 H 274.056 1.42438 0.922474 0
M  V30 2795 H 272.828 3.09194 2.39823 0
M  V30 2796 H 272.451 1.81161 3.5393 0
M  V30 2797 N 273.449 -1.08991 1.13837 0
M  V30 2798 C 274.698 -1.80631 0.897509 0
M  V30 2799 C 275.011 -1.86872 -0.57777 0
M  V30 2800 O 276.217 -2.54866 -0.935701 0
M  V30 2801 C 274.673 -3.24517 1.55618 0
M  V30 2802 C 274.281 -3.26529 3.0673 0
M  V30 2803 C 276.025 -4.00882 1.3962 0
M  V30 2804 C 273.932 -4.64965 3.65461 0
M  V30 2805 H 272.862 -0.67691 0.332129 0
M  V30 2806 H 275.513 -1.2246 1.3666 0
M  V30 2807 H 273.895 -3.82778 1.01476 0
M  V30 2808 H 275.069 -2.78008 3.67489 0
M  V30 2809 H 273.384 -2.63656 3.22296 0
M  V30 2810 H 275.981 -5.03167 1.80906 0
M  V30 2811 H 276.324 -4.14896 0.341578 0
M  V30 2812 H 276.857 -3.49075 1.90766 0
M  V30 2813 H 273.596 -4.56153 4.70749 0
M  V30 2814 H 273.116 -5.13792 3.09481 0
M  V30 2815 H 274.795 -5.3394 3.654 0
M  V30 2816 N 274.927 -0.932562 -1.27047 0
M  V30 2817 C 276.174 -0.575559 -1.94148 0
M  V30 2818 C 276.502 0.883984 -1.73251 0
M  V30 2819 O 275.757 1.64655 -1.0577 0
M  V30 2820 C 276.056 -0.853713 -3.47054 0
M  V30 2821 C 275.722 -2.29577 -3.88079 0
M  V30 2822 C 274.384 -2.68999 -3.9899 0
M  V30 2823 C 276.736 -3.23331 -4.08787 0
M  V30 2824 C 274.064 -4.01289 -4.28 0
M  V30 2825 C 276.416 -4.55207 -4.39282 0
M  V30 2826 C 275.08 -4.94457 -4.48407 0
M  V30 2827 H 274.35 -0.210612 -0.710439 0
M  V30 2828 H 276.997 -1.17744 -1.51025 0
M  V30 2829 H 275.302 -0.169204 -3.91434 0
M  V30 2830 H 276.999 -0.55639 -3.97121 0
M  V30 2831 H 273.589 -1.97994 -3.80127 0
M  V30 2832 H 277.773 -2.94074 -3.99793 0
M  V30 2833 H 273.029 -4.31374 -4.33275 0
M  V30 2834 H 277.203 -5.27852 -4.54252 0
M  V30 2835 H 274.83 -5.96994 -4.7064 0
M  V30 2836 N 276.405 1.4127 -0.698611 0
M  V30 2837 C 277.633 2.05503 -0.239992 0
M  V30 2838 C 278.048 1.52584 1.11191 0
M  V30 2839 O 277.405 0.675323 1.69545 0
M  V30 2840 C 277.456 3.60987 -0.192429 0
M  V30 2841 O 277.177 4.1195 -1.49094 0
M  V30 2842 C 278.678 4.42371 0.28681 0
M  V30 2843 H 275.898 0.661748 -0.111045 0
M  V30 2844 H 278.442 1.80987 -0.95205 0
M  V30 2845 H 276.597 3.84533 0.470472 0
M  V30 2846 H 277.011 5.06018 -1.38007 0
M  V30 2847 H 278.485 5.51344 0.26896 0
M  V30 2848 H 278.962 4.18699 1.32619 0
M  V30 2849 H 279.568 4.23897 -0.345201 0
M  V30 2850 N 277.883 0.443576 1.51229 0
M  V30 2851 C 279.113 -0.119117 2.06256 0
M  V30 2852 C 279.521 -1.36471 1.31043 0
M  V30 2853 O 278.864 -1.80034 0.365151 0
M  V30 2854 C 278.926 -0.500546 3.55998 0
M  V30 2855 C 278.59 0.639125 4.52509 0
M  V30 2856 C 279.587 1.51311 4.97394 0
M  V30 2857 C 277.272 0.821632 4.95535 0
M  V30 2858 C 279.266 2.55425 5.83984 0
M  V30 2859 C 276.953 1.86603 5.81913 0
M  V30 2860 C 277.951 2.73072 6.26036 0
M  V30 2861 O 277.639 3.75718 7.10698 0
M  V30 2862 H 277.371 -0.00857665 0.675946 0
M  V30 2863 H 279.925 0.623288 1.95715 0
M  V30 2864 H 278.155 -1.29575 3.64345 0
M  V30 2865 H 279.844 -0.995116 3.93513 0
M  V30 2866 H 280.61 1.38367 4.64844 0
M  V30 2867 H 276.489 0.158149 4.60729 0
M  V30 2868 H 280.033 3.22949 6.18344 0
M  V30 2869 H 275.93 1.99564 6.13876 0
M  V30 2870 H 276.698 3.72374 7.2889 0
M  V30 2871 N 279.361 -1.56624 0.175154 0
M  V30 2872 C 280.324 -2.16934 -0.739738 0
M  V30 2873 C 281.324 -1.11842 -1.15533 0
M  V30 2874 O 282.514 -1.37335 -1.07167 0
M  V30 2875 C 279.646 -2.75531 -2.00738 0
M  V30 2876 H 280.839 -2.99131 -0.214639 0
M  V30 2877 H 278.392 -1.56123 -0.0744197 0
M  V30 2878 H 279.127 -1.97078 -2.57548 0
M  V30 2879 H 278.912 -3.52444 -1.71831 0
M  V30 2880 H 280.402 -3.21904 -2.66021 0
M  V30 2881 N 280.839 0.0985539 -1.57292 0
M  V30 2882 C 281.786 1.11981 -2.01814 0
M  V30 2883 C 282.756 1.39999 -0.89384 0
M  V30 2884 O 283.941 1.5152 -1.15958 0
M  V30 2885 C 281.081 2.43577 -2.44467 0
M  V30 2886 C 280.194 2.2232 -3.70402 0
M  V30 2887 C 279.329 3.4729 -4.01949 0
M  V30 2888 C 278.368 3.2128 -5.21005 0
M  V30 2889 N 277.505 4.38507 -5.48321 0
M  V30 2890 H 282.345 0.733149 -2.88841 0
M  V30 2891 H 279.882 0.350482 -1.42864 0
M  V30 2892 H 281.84 3.20373 -2.6724 0
M  V30 2893 H 280.47 2.80097 -1.60455 0
M  V30 2894 H 279.522 1.36343 -3.55126 0
M  V30 2895 H 280.834 1.99089 -4.57345 0
M  V30 2896 H 279.988 4.32495 -4.25479 0
M  V30 2897 H 278.727 3.73572 -3.13521 0
M  V30 2898 H 277.732 2.34468 -4.97298 0
M  V30 2899 H 278.957 2.96348 -6.11028 0
M  V30 2900 H 276.903 4.64871 -4.62851 0
M  V30 2901 H 276.82 4.18455 -6.29628 0
M  V30 2902 H 278.088 5.24787 -5.76385 0
M  V30 2903 N 282.317 1.53212 0.369288 0
M  V30 2904 C 283.563 1.69466 1.11397 0
M  V30 2905 C 283.896 0.443257 1.89074 0
M  V30 2906 O 283.171 -0.559386 1.86282 0
M  V30 2907 C 283.454 2.9422 2.07621 0
M  V30 2908 C 283.307 4.29508 1.33577 0
M  V30 2909 C 284.626 3.14565 3.07794 0
M  V30 2910 H 281.745 0.616667 0.403597 0
M  V30 2911 H 284.387 1.85845 0.395179 0
M  V30 2912 H 282.537 2.80387 2.68916 0
M  V30 2913 H 284.209 4.55147 0.750955 0
M  V30 2914 H 282.452 4.29088 0.637618 0
M  V30 2915 H 283.123 5.12926 2.03989 0
M  V30 2916 H 285.599 3.2756 2.56601 0
M  V30 2917 H 284.475 4.03297 3.72348 0
M  V30 2918 H 284.736 2.29675 3.77759 0
M  V30 2919 N 283.795 -0.628877 1.44509 0
M  V30 2920 C 284.725 -1.75187 1.54376 0
M  V30 2921 C 285.706 -1.65411 0.396618 0
M  V30 2922 O 286.891 -1.84137 0.617031 0
M  V30 2923 C 284.021 -3.13725 1.48976 0
M  V30 2924 C 282.975 -3.38291 2.62189 0
M  V30 2925 C 282.301 -4.76883 2.41841 0
M  V30 2926 C 283.601 -3.30632 4.04326 0
M  V30 2927 H 285.295 -1.67187 2.48373 0
M  V30 2928 H 282.841 -0.802909 1.19538 0
M  V30 2929 H 284.794 -3.92064 1.54478 0
M  V30 2930 H 283.518 -3.22515 0.514961 0
M  V30 2931 H 282.177 -2.62334 2.56079 0
M  V30 2932 H 281.825 -4.82378 1.42548 0
M  V30 2933 H 281.525 -4.94278 3.17747 0
M  V30 2934 H 283.049 -5.57449 2.49165 0
M  V30 2935 H 284.463 -3.98873 4.11793 0
M  V30 2936 H 282.86 -3.59561 4.80454 0
M  V30 2937 H 283.93 -2.28404 4.27738 0
M  V30 2938 N 285.273 -1.31445 -0.869486 0
M  V30 2939 C 286.236 -1.19094 -1.9583 0
M  V30 2940 C 287.236 -0.117906 -1.60367 0
M  V30 2941 O 288.426 -0.367208 -1.70286 0
M  V30 2942 C 285.558 -0.828165 -3.30688 0
M  V30 2943 H 286.751 -2.15842 -2.08212 0
M  V30 2944 H 284.304 -1.15063 -1.05784 0
M  V30 2945 H 285.039 0.138142 -3.24006 0
M  V30 2946 H 284.824 -1.6038 -3.578 0
M  V30 2947 H 286.314 -0.765658 -4.10521 0
M  V30 2948 N 286.751 1.08385 -1.14413 0
M  V30 2949 C 287.681 2.17321 -0.854044 0
M  V30 2950 C 288.662 1.69024 0.191049 0
M  V30 2951 O 289.847 1.94141 0.0476779 0
M  V30 2952 C 286.977 3.45719 -0.330983 0
M  V30 2953 C 285.931 4.07409 -1.31155 0
M  V30 2954 C 285.257 5.30762 -0.64778 0
M  V30 2955 C 286.557 4.48665 -2.67388 0
M  V30 2956 H 288.251 2.41845 -1.76498 0
M  V30 2957 H 285.797 1.16233 -0.850051 0
M  V30 2958 H 287.75 4.21241 -0.115645 0
M  V30 2959 H 286.474 3.2075 0.615381 0
M  V30 2960 H 285.133 3.33919 -1.51306 0
M  V30 2961 H 284.781 5.02078 0.304398 0
M  V30 2962 H 284.481 5.72992 -1.30207 0
M  V30 2963 H 286.005 6.08998 -0.441972 0
M  V30 2964 H 287.419 5.15364 -2.51143 0
M  V30 2965 H 285.816 5.01814 -3.29093 0
M  V30 2966 H 286.886 3.60543 -3.24248 0
M  V30 2967 N 288.23 0.939286 1.26551 0
M  V30 2968 C 289.479 0.581601 1.93133 0
M  V30 2969 C 289.792 -0.883224 1.74524 0
M  V30 2970 O 290.998 -1.3502 2.35546 0
M  V30 2971 C 289.454 0.989425 3.46032 0
M  V30 2972 C 289.062 2.47573 3.73379 0
M  V30 2973 C 290.806 0.703544 4.18629 0
M  V30 2974 C 288.713 2.82235 5.19709 0
M  V30 2975 H 287.643 0.213803 0.723052 0
M  V30 2976 H 290.294 1.14167 1.4366 0
M  V30 2977 H 288.676 0.357902 3.94379 0
M  V30 2978 H 289.85 3.15614 3.35744 0
M  V30 2979 H 288.165 2.73471 3.1401 0
M  V30 2980 H 290.762 0.938869 5.26393 0
M  V30 2981 H 291.105 -0.359639 4.14744 0
M  V30 2982 H 291.638 1.2947 3.76141 0
M  V30 2983 H 288.377 3.87509 5.28694 0
M  V30 2984 H 287.897 2.18854 5.58447 0
M  V30 2985 H 289.576 2.70599 5.87695 0
M  V30 2986 N 289.708 -1.40897 0.706093 0
M  V30 2987 C 290.671 -2.29131 0.0562841 0
M  V30 2988 C 291.671 -1.44901 -0.697166 0
M  V30 2989 O 292.861 -1.65926 -0.530484 0
M  V30 2990 C 289.993 -3.27957 -0.93043 0
M  V30 2991 H 291.186 -2.88091 0.833284 0
M  V30 2992 H 288.739 -1.4906 0.470192 0
M  V30 2993 H 289.474 -2.73997 -1.73482 0
M  V30 2994 H 289.259 -3.90124 -0.393166 0
M  V30 2995 H 290.749 -3.94049 -1.38256 0
M  V30 2996 N 291.186 -0.45159 -1.50991 0
M  V30 2997 C 292.432 0.110237 -2.025 0
M  V30 2998 C 292.765 1.41109 -1.33424 0
M  V30 2999 O 292.04 1.89135 -0.453659 0
M  V30 3000 C 292.323 0.314271 -3.58726 0
M  V30 3001 C 292.176 -1.00623 -4.38401 0
M  V30 3002 C 293.495 1.07767 -4.26702 0
M  V30 3003 H 290.614 0.0385897 -0.735989 0
M  V30 3004 H 293.256 -0.593374 -1.80497 0
M  V30 3005 H 291.406 0.913601 -3.77605 0
M  V30 3006 H 293.078 -1.64064 -4.31139 0
M  V30 3007 H 291.321 -1.6075 -4.02917 0
M  V30 3008 H 291.992 -0.817341 -5.45915 0
M  V30 3009 H 294.468 0.56986 -4.12179 0
M  V30 3010 H 293.344 1.18921 -5.35863 0
M  V30 3011 H 293.605 2.10939 -3.88532 0
M  V30 3012 N 292.664 1.56529 -0.183458 0
M  V30 3013 C 293.913 1.96419 0.458511 0
M  V30 3014 C 294.226 1.0727 1.63562 0
M  V30 3015 O 295.432 1.36893 2.34462 0
M  V30 3016 C 293.888 3.49298 0.867122 0
M  V30 3017 C 293.496 4.47092 -0.285057 0
M  V30 3018 C 295.24 3.97983 1.47683 0
M  V30 3019 C 293.147 5.91225 0.143862 0
M  V30 3020 H 292.077 0.733394 0.175071 0
M  V30 3021 H 294.728 1.81448 -0.273624 0
M  V30 3022 H 293.11 3.59731 1.65559 0
M  V30 3023 H 294.284 4.48383 -1.0625 0
M  V30 3024 H 292.599 4.08535 -0.805503 0
M  V30 3025 H 295.196 5.03134 1.80999 0
M  V30 3026 H 295.539 3.41618 2.37914 0
M  V30 3027 H 296.072 3.90617 0.752562 0
M  V30 3028 H 292.811 6.5149 -0.723974 0
M  V30 3029 H 292.331 5.93214 0.886413 0
M  V30 3030 H 294.01 6.44362 0.583628 0
M  V30 3031 N 294.142 -0.090211 1.57342 0
M  V30 3032 C 295.388 -0.793982 1.86611 0
M  V30 3033 C 295.721 -1.78142 0.773252 0
M  V30 3034 O 294.996 -1.93271 -0.218304 0
M  V30 3035 C 295.279 -1.51839 3.26523 0
M  V30 3036 C 295.132 -0.548609 4.46442 0
M  V30 3037 C 296.451 -2.46779 3.64401 0
M  V30 3038 H 293.57 -0.287186 0.678744 0
M  V30 3039 H 296.212 -0.0575076 1.89913 0
M  V30 3040 H 294.362 -2.14617 3.23839 0
M  V30 3041 H 296.034 0.0725513 4.61243 0
M  V30 3042 H 294.277 0.137614 4.33582 0
M  V30 3043 H 294.948 -1.09271 5.41076 0
M  V30 3044 H 297.424 -1.94089 3.68061 0
M  V30 3045 H 296.3 -2.94479 4.63221 0
M  V30 3046 H 296.561 -3.30758 2.93346 0
M  V30 3047 N 295.62 -1.53406 -0.361157 0
M  V30 3048 C 296.583 -1.79479 -1.42548 0
M  V30 3049 C 297.583 -0.665327 -1.4639 0
M  V30 3050 O 298.773 -0.933549 -1.47073 0
M  V30 3051 C 295.905 -1.92087 -2.8163 0
M  V30 3052 H 297.098 -2.74538 -1.20701 0
M  V30 3053 H 294.651 -1.4455 -0.594546 0
M  V30 3054 H 295.386 -0.991099 -3.08784 0
M  V30 3055 H 295.171 -2.74241 -2.80239 0
M  V30 3056 H 296.661 -2.13836 -3.58697 0
M  V30 3057 N 297.098 0.621204 -1.44841 0
M  V30 3058 C 298.346 1.37783 -1.47852 0
M  V30 3059 C 298.667 1.94653 -0.116224 0
M  V30 3060 O 297.937 1.76367 0.852737 0
M  V30 3061 H 296.517 0.511453 -0.544449 0
M  V30 3062 H 299.179 0.730446 -1.80694 0
M  V30 3063 H 298.275 2.20414 -2.20961 0
M  V30 3064 N 298.576 1.31904 0.862503 0
M  V30 3065 C 299.825 1.21373 1.61094 0
M  V30 3066 C 300.138 -0.22504 1.94301 0
M  V30 3067 O 301.344 -0.452121 2.67709 0
M  V30 3068 C 299.8 2.12525 2.9045 0
M  V30 3069 C 299.408 3.61441 2.64697 0
M  V30 3070 C 301.152 2.10813 3.68454 0
M  V30 3071 C 299.059 4.44578 3.90006 0
M  V30 3072 H 297.989 0.450705 0.604468 0
M  V30 3073 H 300.64 1.56811 0.953027 0
M  V30 3074 H 299.022 1.69994 3.57656 0
M  V30 3075 H 300.196 4.12264 2.05851 0
M  V30 3076 H 298.511 3.65205 2.00036 0
M  V30 3077 H 301.108 2.70167 4.61426 0
M  V30 3078 H 301.451 1.09713 4.01583 0
M  V30 3079 H 301.984 2.51583 3.08141 0
M  V30 3080 H 298.723 5.46461 3.62023 0
M  V30 3081 H 298.243 3.98508 4.48276 0
M  V30 3082 H 299.922 4.57176 4.5782 0
M  V30 3083 N 300.054 -1.07777 1.14986 0
M  V30 3084 C 301.3 -1.80557 0.923422 0
M  V30 3085 C 301.633 -1.86298 -0.548337 0
M  V30 3086 O 300.908 -1.34354 -1.40639 0
M  V30 3087 C 301.191 -3.25839 1.53299 0
M  V30 3088 C 301.044 -3.28269 3.07505 0
M  V30 3089 C 302.363 -4.22991 1.21518 0
M  V30 3090 H 299.482 -0.655493 0.336894 0
M  V30 3091 H 302.124 -1.26144 1.42083 0
M  V30 3092 H 300.274 -3.72306 1.10999 0
M  V30 3093 H 301.946 -2.90079 3.58681 0
M  V30 3094 H 300.189 -2.67355 3.4162 0
M  V30 3095 H 300.86 -4.30691 3.45266 0
M  V30 3096 H 303.336 -3.84894 1.581 0
M  V30 3097 H 302.212 -5.22945 1.66793 0
M  V30 3098 H 302.473 -4.41904 0.131505 0
M  V30 3099 N 301.532 -0.945985 -1.26051 0
M  V30 3100 C 302.948 -0.649045 -1.45807 0
M  V30 3101 C 303.148 0.796158 -1.85104 0
M  V30 3102 O 302.204 1.57233 -1.97571 0
M  V30 3103 C 303.517 -1.61458 -2.53677 0
M  V30 3104 C 305.065 -1.62481 -2.67524 0
M  V30 3105 C 305.54 -2.57776 -3.7857 0
M  V30 3106 N 307.031 -2.5609 -3.85969 0
M  V30 3107 C 307.766 -3.26508 -4.7136 0
M  V30 3108 N 307.262 -4.0637 -5.61102 0
M  V30 3109 N 309.055 -3.15437 -4.65248 0
M  V30 3110 H 301.206 -1.88005 -0.988328 0
M  V30 3111 H 303.469 -0.808198 -0.4955 0
M  V30 3112 H 303.175 -2.64644 -2.31638 0
M  V30 3113 H 303.049 -1.37036 -3.51427 0
M  V30 3114 H 305.436 -0.600167 -2.88933 0
M  V30 3115 H 305.517 -1.90958 -1.70202 0
M  V30 3116 H 305.161 -3.60361 -3.57913 0
M  V30 3117 H 305.091 -2.26587 -4.75359 0
M  V30 3118 H 307.582 -1.98105 -3.21812 0
M  V30 3119 H 307.895 -4.57042 -6.23164 0
M  V30 3120 H 306.24 -4.10469 -5.60839 0
M  V30 3121 H 309.431 -2.52525 -3.94143 0
M  V30 3122 H 309.604 -3.70584 -5.31575 0
M  V30 3123 N 303.011 1.40521 -0.713556 0
M  V30 3124 C 303.941 2.33381 -0.0743864 0
M  V30 3125 C 304.922 1.52784 0.747735 0
M  V30 3126 O 306.107 1.81258 0.697071 0
M  V30 3127 C 303.237 3.36748 0.849598 0
M  V30 3128 C 302.191 4.27793 0.133247 0
M  V30 3129 C 301.517 5.21679 1.17281 0
M  V30 3130 C 302.817 5.12415 -1.01134 0
M  V30 3131 H 304.511 2.87081 -0.850007 0
M  V30 3132 H 302.057 1.38034 -0.410201 0
M  V30 3133 H 304.01 4.00648 1.30612 0
M  V30 3134 H 302.734 2.81439 1.65709 0
M  V30 3135 H 301.393 3.65342 -0.303426 0
M  V30 3136 H 301.041 4.62677 1.9733 0
M  V30 3137 H 300.741 5.83435 0.698397 0
M  V30 3138 H 302.265 5.88456 1.62947 0
M  V30 3139 H 303.679 5.69781 -0.634274 0
M  V30 3140 H 302.076 5.83203 -1.41399 0
M  V30 3141 H 303.146 4.48514 -1.84292 0
M  V30 3142 N 304.489 0.459591 1.5075 0
M  V30 3143 C 305.737 -0.0991532 2.01857 0
M  V30 3144 C 306.058 -1.41247 1.34441 0
M  V30 3145 O 305.328 -1.89775 0.486022 0
M  V30 3146 H 303.908 -0.039633 0.745948 0
M  V30 3147 H 306.57 0.607387 1.85194 0
M  V30 3148 H 305.666 -0.258998 3.11023 0
M  V30 3149 N 305.967 -1.56429 0.191757 0
M  V30 3150 C 306.899 -2.16154 -0.762245 0
M  V30 3151 C 307.912 -1.12247 -1.17917 0
M  V30 3152 O 309.101 -1.39353 -1.11548 0
M  V30 3153 C 306.201 -2.70606 -2.04024 0
M  V30 3154 C 305.374 -3.99381 -1.78364 0
M  V30 3155 C 304.433 -4.38692 -2.90578 0
M  V30 3156 O 303.459 -5.06179 -2.6033 0
M  V30 3157 N 304.661 -4.01922 -4.18854 0
M  V30 3158 H 307.426 -2.98643 -0.251526 0
M  V30 3159 H 304.987 -1.61897 0.00967373 0
M  V30 3160 H 306.979 -2.93891 -2.78227 0
M  V30 3161 H 305.549 -1.9259 -2.46227 0
M  V30 3162 H 304.769 -3.84262 -0.879581 0
M  V30 3163 H 306.057 -4.83445 -1.58614 0
M  V30 3164 H 305.455 -3.47631 -4.46283 0
M  V30 3165 H 304.012 -4.30165 -4.89695 0
M  V30 3166 N 307.445 0.0818655 -1.57387 0
M  V30 3167 C 308.693 0.781368 -1.86384 0
M  V30 3168 C 309.014 1.78618 -0.782342 0
M  V30 3169 O 308.284 1.94976 0.190061 0
M  V30 3170 H 306.864 0.291562 -0.687751 0
M  V30 3171 H 309.526 0.060348 -1.94807 0
M  V30 3172 H 308.622 1.3038 -2.83562 0
M  V30 3173 N 308.923 1.53595 0.353017 0
M  V30 3174 C 309.886 1.80232 1.41594 0
M  V30 3175 C 310.886 0.673081 1.46035 0
M  V30 3176 O 312.076 0.941335 1.46576 0
M  V30 3177 C 309.208 1.93578 2.80607 0
M  V30 3178 H 310.401 2.75174 1.19244 0
M  V30 3179 H 307.954 1.44864 0.586872 0
M  V30 3180 H 308.689 1.00746 3.08254 0
M  V30 3181 H 308.474 2.75724 2.78781 0
M  V30 3182 H 309.964 2.15735 3.57558 0
M  V30 3183 N 310.401 -0.613514 1.45168 0
M  V30 3184 C 311.626 -1.40437 1.52618 0
M  V30 3185 C 312.051 -1.87438 0.157707 0
M  V30 3186 O 311.409 -1.59791 -0.856537 0
M  V30 3187 C 311.457 -2.58894 2.51011 0
M  V30 3188 O 310.561 -3.59326 2.02382 0
M  V30 3189 H 309.902 -0.419506 0.514695 0
M  V30 3190 H 312.432 -0.747215 1.90467 0
M  V30 3191 H 312.442 -3.06214 2.69624 0
M  V30 3192 H 311.117 -2.24032 3.50403 0
M  V30 3193 H 309.694 -3.18695 1.93618 0
M  V30 3194 N 311.879 -1.3236 -0.855495 0
M  V30 3195 C 313.107 -1.2587 -1.64208 0
M  V30 3196 C 313.522 0.173457 -1.88002 0
M  V30 3197 O 312.879 1.11027 -1.44842 0
M  V30 3198 C 312.93 -2.01424 -3.00184 0
M  V30 3199 O 312.651 -3.39051 -2.77445 0
M  V30 3200 C 314.152 -2.01948 -3.94629 0
M  V30 3201 H 311.372 -0.434318 -0.511477 0
M  V30 3202 H 313.916 -1.74469 -1.0668 0
M  V30 3203 H 312.071 -1.56549 -3.5436 0
M  V30 3204 H 312.485 -3.77711 -3.63916 0
M  V30 3205 H 313.959 -2.59297 -4.87308 0
M  V30 3206 H 314.436 -1.00554 -4.27534 0
M  V30 3207 H 315.042 -2.46767 -3.4639 0
M  V30 3208 N 313.357 1.07166 -1.15556 0
M  V30 3209 C 314.307 2.12649 -0.82247 0
M  V30 3210 C 315.291 1.59725 0.194129 0
M  V30 3211 O 316.483 1.76999 -0.00540402 0
M  V30 3212 C 313.612 3.41847 -0.315572 0
M  V30 3213 C 312.698 4.0162 -1.36244 0
M  V30 3214 N 313.089 4.35625 -2.5703 0
M  V30 3215 C 311.387 4.29114 -1.21562 0
M  V30 3216 C 312.088 4.83017 -3.24144 0
M  V30 3217 N 311.064 4.81906 -2.51531 0
M  V30 3218 H 314.866 2.36776 -1.74111 0
M  V30 3219 H 312.38 1.24622 -1.0413 0
M  V30 3220 H 314.377 4.16859 -0.0585855 0
M  V30 3221 H 313.037 3.19163 0.597105 0
M  V30 3222 H 314.048 4.26253 -2.94158 0
M  V30 3223 H 310.725 4.15919 -0.362988 0
M  V30 3224 H 312.115 5.18605 -4.27198 0
M  V30 3225 N 314.835 0.952656 1.25548 0
M  V30 3226 C 316.082 0.606373 1.93208 0
M  V30 3227 C 316.41 -0.85631 1.74636 0
M  V30 3228 O 315.665 -1.62951 1.08376 0
M  V30 3229 C 315.964 0.908818 3.45652 0
M  V30 3230 C 315.63 2.35722 3.84378 0
M  V30 3231 C 314.292 2.75312 3.9466 0
M  V30 3232 C 316.644 3.29793 4.03591 0
M  V30 3233 C 313.972 4.08047 4.21562 0
M  V30 3234 C 316.324 4.62138 4.31985 0
M  V30 3235 C 314.988 5.01528 4.40484 0
M  V30 3236 H 314.258 0.221888 0.706998 0
M  V30 3237 H 316.905 1.20132 1.49133 0
M  V30 3238 H 315.21 0.231456 3.91116 0
M  V30 3239 H 316.907 0.619498 3.96186 0
M  V30 3240 H 313.497 2.04017 3.76928 0
M  V30 3241 H 317.681 3.00397 3.95064 0
M  V30 3242 H 312.937 4.38212 4.26357 0
M  V30 3243 H 317.111 5.35012 4.45797 0
M  V30 3244 H 314.738 6.04406 4.61083 0
M  V30 3245 N 316.313 -1.40141 0.720998 0
M  V30 3246 C 317.223 -2.34486 0.0731031 0
M  V30 3247 C 318.239 -1.57587 -0.737723 0
M  V30 3248 O 319.415 -1.89949 -0.669429 0
M  V30 3249 C 316.48 -3.36528 -0.833656 0
M  V30 3250 C 315.541 -4.29298 -0.0121673 0
M  V30 3251 C 314.774 -5.26466 -0.875742 0
M  V30 3252 O 314.997 -5.29745 -2.11485 0
M  V30 3253 O 313.931 -6.01092 -0.31185 0
M  V30 3254 H 317.757 -2.9152 0.851444 0
M  V30 3255 H 315.342 -1.41427 0.481527 0
M  V30 3256 H 317.224 -3.99093 -1.35289 0
M  V30 3257 H 315.899 -2.81899 -1.59105 0
M  V30 3258 H 314.806 -3.70001 0.552262 0
M  V30 3259 H 316.139 -4.87094 0.707129 0
M  V30 3260 N 317.792 -0.46758 -1.50504 0
M  V30 3261 C 318.74 0.342482 -2.30065 0
M  V30 3262 C 319.734 0.993596 -1.37201 0
M  V30 3263 O 320.94 0.925102 -1.54408 0
M  V30 3264 H 317.315 0.129283 -0.740803 0
M  V30 3265 H 319.286 -0.34899 -2.96352 0
M  V30 3266 C 318.035 1.4139 -3.17654 0
M  V30 3267 H 317.358 0.922264 -3.89017 0
M  V30 3268 H 318.798 1.95335 -3.76325 0
M  V30 3269 C 317.257 2.4139 -2.35016 0
M  V30 3270 O 317.787 3.46586 -2.03079 0
M  V30 3271 N 315.993 2.13021 -1.97662 0
M  V30 3272 H 315.54 1.27499 -2.23834 0
M  V30 3273 H 315.498 2.80164 -1.42673 0
M  V30 3274 N 319.27 1.56325 -0.20005 0
M  V30 3275 C 320.495 2.02548 0.44597 0
M  V30 3276 C 320.92 1.07922 1.5406 0
M  V30 3277 O 320.278 0.0635775 1.81188 0
M  V30 3278 C 320.326 3.47175 0.974761 0
M  V30 3279 O 319.43 3.55671 2.08739 0
M  V30 3280 H 318.771 0.655862 0.103638 0
M  V30 3281 H 321.301 2.02201 -0.312381 0
M  V30 3282 H 321.311 3.87067 1.2901 0
M  V30 3283 H 319.986 4.15538 0.17347 0
M  V30 3284 H 318.563 3.27657 1.78032 0
M  V30 3285 N 320.748 -0.0735177 1.57428 0
M  V30 3286 C 321.995 -0.772999 1.87166 0
M  V30 3287 C 322.323 -1.77665 0.791551 0
M  V30 3288 O 321.578 -1.94541 -0.212636 0
M  V30 3289 C 321.877 -1.51799 3.23561 0
M  V30 3290 C 321.543 -0.654484 4.46125 0
M  V30 3291 C 320.205 -0.416511 4.79394 0
M  V30 3292 C 322.557 -0.0555862 5.2117 0
M  V30 3293 C 319.885 0.429869 5.85123 0
M  V30 3294 C 322.237 0.778239 6.27795 0
M  V30 3295 C 320.901 1.0261 6.59566 0
M  V30 3296 H 320.171 -0.282861 0.684888 0
M  V30 3297 H 322.818 -0.0338272 1.9147 0
M  V30 3298 H 321.123 -2.32932 3.1504 0
M  V30 3299 H 322.82 -2.06397 3.43804 0
M  V30 3300 H 319.41 -0.850091 4.20085 0
M  V30 3301 H 323.594 -0.226558 4.95783 0
M  V30 3302 H 318.85 0.630665 6.08139 0
M  V30 3303 H 323.024 1.24906 6.85107 0
M  V30 3304 H 320.651 1.68371 7.4132 0
M  V30 3305 N 322.226 -1.5378 -0.344866 0
M  V30 3306 C 323.136 -1.84667 -1.4469 0
M  V30 3307 C 324.152 -0.736704 -1.57635 0
M  V30 3308 O 325.328 -1.02888 -1.73136 0
M  V30 3309 C 322.393 -2.04869 -2.79696 0
M  V30 3310 C 321.454 -3.28731 -2.76106 0
M  V30 3311 C 320.687 -3.4796 -4.04673 0
M  V30 3312 O 320.91 -2.71052 -5.01883 0
M  V30 3313 O 319.844 -4.41383 -4.09224 0
M  V30 3314 H 323.67 -2.78334 -1.21506 0
M  V30 3315 H 321.255 -1.39418 -0.536921 0
M  V30 3316 H 323.137 -2.19609 -3.59652 0
M  V30 3317 H 321.812 -1.14391 -3.02814 0
M  V30 3318 H 320.719 -3.19396 -1.94774 0
M  V30 3319 H 322.052 -4.19198 -2.57941 0
M  V30 3320 N 323.704 0.605807 -1.45491 0
M  V30 3321 C 324.952 1.36207 -1.49305 0
M  V30 3322 C 325.273 1.94519 -0.136863 0
M  V30 3323 O 324.543 1.77261 0.833983 0
M  V30 3324 H 323.123 0.50565 -0.549843 0
M  V30 3325 H 325.785 0.711239 -1.81459 0
M  V30 3326 H 324.881 2.18058 -2.23287 0
M  V30 3327 N 325.182 1.32811 0.848464 0
M  V30 3328 C 326.407 1.26882 1.6406 0
M  V30 3329 C 326.832 -0.15913 1.87426 0
M  V30 3330 O 326.19 -1.11258 1.43148 0
M  V30 3331 C 326.238 2.03997 2.97351 0
M  V30 3332 O 325.342 1.39201 3.88197 0
M  V30 3333 H 324.683 0.436982 0.499943 0
M  V30 3334 H 327.213 1.75224 1.0563 0
M  V30 3335 H 327.223 2.14403 3.47124 0
M  V30 3336 H 325.898 3.0783 2.79666 0
M  V30 3337 H 324.475 1.37381 3.46671 0
M  V30 3338 N 326.66 -1.06551 1.16123 0
M  V30 3339 C 327.885 -1.83544 0.965735 0
M  V30 3340 C 328.31 -1.81843 -0.481102 0
M  V30 3341 O 327.668 -1.21732 -1.34354 0
M  V30 3342 C 327.716 -3.28169 1.49457 0
M  V30 3343 O 326.82 -4.0643 0.699157 0
M  V30 3344 H 326.161 -0.568026 0.343864 0
M  V30 3345 H 328.691 -1.34362 1.54299 0
M  V30 3346 H 328.701 -3.78992 1.51092 0
M  V30 3347 H 327.376 -3.28722 2.54784 0
M  V30 3348 H 325.953 -3.65216 0.7531 0
M  V30 3349 N 328.138 -0.959301 -1.25041 0
M  V30 3350 C 329.385 -0.616611 -1.92884 0
M  V30 3351 C 329.713 0.847036 -1.75087 0
M  V30 3352 O 328.968 1.62374 -1.09239 0
M  V30 3353 C 329.267 -0.927136 -3.45165 0
M  V30 3354 C 328.933 -2.37757 -3.83122 0
M  V30 3355 C 327.595 -2.77402 -3.93194 0
M  V30 3356 C 329.947 -3.31929 -4.01836 0
M  V30 3357 C 327.275 -4.10277 -4.19392 0
M  V30 3358 C 329.627 -4.64423 -4.29528 0
M  V30 3359 C 328.291 -5.03857 -4.37818 0
M  V30 3360 H 327.561 -0.225634 -0.705812 0
M  V30 3361 H 330.208 -1.20921 -1.48493 0
M  V30 3362 H 328.513 -0.252195 -3.90987 0
M  V30 3363 H 330.21 -0.6405 -3.95852 0
M  V30 3364 H 326.8 -2.06013 -3.75841 0
M  V30 3365 H 330.984 -3.02488 -3.93465 0
M  V30 3366 H 326.24 -4.40467 -4.24027 0
M  V30 3367 H 330.414 -5.37369 -4.42953 0
M  V30 3368 H 328.041 -6.06843 -4.57871 0
M  V30 3369 N 329.616 1.39756 -0.72842 0
M  V30 3370 C 330.579 2.29012 -0.0927297 0
M  V30 3371 C 331.579 1.45992 0.674025 0
M  V30 3372 O 332.769 1.66749 0.50402 0
M  V30 3373 C 329.901 3.29396 0.878137 0
M  V30 3374 H 331.094 2.86729 -0.879011 0
M  V30 3375 H 328.647 1.48293 -0.493847 0
M  V30 3376 H 329.382 2.76722 1.69101 0
M  V30 3377 H 329.167 3.907 0.331051 0
M  V30 3378 H 330.657 3.96199 1.3197 0
M  V30 3379 N 331.094 0.475555 1.50254 0
M  V30 3380 C 332.34 -0.0780073 2.0265 0
M  V30 3381 C 332.673 -1.38968 1.35652 0
M  V30 3382 O 331.948 -1.8839 0.483691 0
M  V30 3383 C 332.231 -0.257161 3.59181 0
M  V30 3384 C 332.084 1.07585 4.36744 0
M  V30 3385 C 333.403 -1.00965 4.28362 0
M  V30 3386 H 330.522 -0.0268758 0.73651 0
M  V30 3387 H 333.164 0.622015 1.7953 0
M  V30 3388 H 331.314 -0.853412 3.79011 0
M  V30 3389 H 332.986 1.70902 4.28474 0
M  V30 3390 H 331.229 1.6714 4.00308 0
M  V30 3391 H 331.9 0.904088 5.44546 0
M  V30 3392 H 334.376 -0.504214 4.13034 0
M  V30 3393 H 333.252 -1.10381 5.37687 0
M  V30 3394 H 333.513 -2.04731 3.91839 0
M  V30 3395 N 332.573 -1.56217 0.208337 0
M  V30 3396 C 333.821 -1.97558 -0.426076 0
M  V30 3397 C 334.142 -1.09683 -1.61229 0
M  V30 3398 O 333.412 -0.170956 -1.95153 0
M  V30 3399 H 331.992 -0.729575 -0.160405 0
M  V30 3400 H 334.654 -1.92606 0.298155 0
M  V30 3401 H 333.75 -3.02672 -0.761312 0
M  V30 3402 N 334.051 0.0651679 -1.57465 0
M  V30 3403 C 335.328 0.79644 -1.78651 0
M  V30 3404 C 335.708 1.95454 -0.797566 0
M  V30 3405 O 335.056 2.27882 0.167946 0
M  V30 3406 C 335.266 1.26322 -3.25337 0
M  V30 3407 C 336.614 1.6939 -3.89348 0
M  V30 3408 O 337.638 1.35872 -3.29268 0
M  V30 3409 O 336.497 2.31471 -4.95059 0
M  V30 3410 H 333.591 0.382157 -0.733407 0
M  V30 3411 H 336.137 0.0447311 -1.69641 0
M  V30 3412 H 334.909 0.434859 -3.88876 0
M  V30 3413 H 334.532 2.07604 -3.39096 0
M  V30 3414 N 335.529 1.53961 0.336706 0
M  V30 3415 C 336.778 1.70751 1.07363 0
M  V30 3416 C 337.091 0.481061 1.89592 0
M  V30 3417 O 338.297 0.530046 2.66276 0
M  V30 3418 C 336.753 3.01965 1.95818 0
M  V30 3419 C 336.361 4.31971 1.18764 0
M  V30 3420 C 338.105 3.28121 2.69327 0
M  V30 3421 C 336.012 5.54255 2.06289 0
M  V30 3422 H 334.942 0.636292 0.404535 0
M  V30 3423 H 337.593 1.80459 0.332681 0
M  V30 3424 H 335.975 2.86132 2.7376 0
M  V30 3425 H 337.149 4.5853 0.456849 0
M  V30 3426 H 335.464 4.12481 0.569946 0
M  V30 3427 H 338.061 4.16673 3.35094 0
M  V30 3428 H 338.404 2.45426 3.36261 0
M  V30 3429 H 338.937 3.44762 1.98454 0
M  V30 3430 H 335.676 6.39513 1.43885 0
M  V30 3431 H 335.196 5.31935 2.77138 0
M  V30 3432 H 336.875 5.90159 2.65182 0
M  V30 3433 N 337.007 -0.598083 1.45811 0
M  V30 3434 C 337.97 -1.69018 1.54808 0
M  V30 3435 C 338.97 -1.55037 0.426652 0
M  V30 3436 O 340.16 -1.59932 0.690456 0
M  V30 3437 C 337.292 -3.0835 1.45371 0
M  V30 3438 H 338.485 -1.62403 2.52121 0
M  V30 3439 H 336.038 -0.814626 1.33392 0
M  V30 3440 H 336.773 -3.20534 0.492793 0
M  V30 3441 H 336.558 -3.19907 2.26721 0
M  V30 3442 H 338.048 -3.8788 1.54721 0
M  V30 3443 N 338.485 -1.33259 -0.841409 0
M  V30 3444 C 339.415 -1.25926 -1.96634 0
M  V30 3445 C 340.396 -0.140349 -1.6952 0
M  V30 3446 O 341.581 -0.329707 -1.91381 0
M  V30 3447 C 338.711 -0.99512 -3.32738 0
M  V30 3448 C 337.665 -2.0767 -3.74242 0
M  V30 3449 C 336.991 -1.66474 -5.08125 0
M  V30 3450 C 338.291 -3.49318 -3.88297 0
M  V30 3451 H 339.985 -2.20046 -2.03027 0
M  V30 3452 H 337.531 -1.05931 -0.975425 0
M  V30 3453 H 339.484 -0.930323 -4.11002 0
M  V30 3454 H 338.208 -0.0183004 -3.26595 0
M  V30 3455 H 336.867 -2.13187 -2.98239 0
M  V30 3456 H 336.515 -0.675012 -4.9845 0
M  V30 3457 H 336.215 -2.3885 -5.36865 0
M  V30 3458 H 337.739 -1.61455 -5.88867 0
M  V30 3459 H 339.153 -3.46316 -4.56879 0
M  V30 3460 H 337.55 -4.20158 -4.28471 0
M  V30 3461 H 338.62 -3.8801 -2.9082 0
M  V30 3462 N 339.963 1.05934 -1.16686 0
M  V30 3463 C 340.926 2.11669 -0.879144 0
M  V30 3464 C 341.926 1.60294 0.127445 0
M  V30 3465 O 343.116 1.7389 -0.103865 0
M  V30 3466 C 340.248 3.39438 -0.315425 0
M  V30 3467 H 341.441 2.38626 -1.81653 0
M  V30 3468 H 338.994 1.22058 -0.976299 0
M  V30 3469 H 339.729 3.18132 0.629468 0
M  V30 3470 H 339.514 3.78034 -1.04079 0
M  V30 3471 H 341.004 4.17391 -0.132189 0
M  V30 3472 N 341.441 0.965919 1.2453 0
M  V30 3473 C 342.371 0.513476 2.27784 0
M  V30 3474 C 343.352 -0.445974 1.6415 0
M  V30 3475 O 344.537 -0.342485 1.91156 0
M  V30 3476 C 341.667 -0.198839 3.4673 0
M  V30 3477 C 340.621 0.676456 4.2262 0
M  V30 3478 C 339.947 -0.167248 5.34438 0
M  V30 3479 C 341.247 1.96017 4.84123 0
M  V30 3480 H 342.941 1.3765 2.65881 0
M  V30 3481 H 340.487 0.663321 1.27813 0
M  V30 3482 H 342.44 -0.526567 4.18097 0
M  V30 3483 H 341.164 -1.0962 3.07654 0
M  V30 3484 H 339.823 0.98743 3.53052 0
M  V30 3485 H 339.471 -1.0647 4.91603 0
M  V30 3486 H 339.171 0.415181 5.86131 0
M  V30 3487 H 340.695 -0.489688 6.08633 0
M  V30 3488 H 342.109 1.69814 5.47573 0
M  V30 3489 H 340.506 2.48918 5.4604 0
M  V30 3490 H 341.576 2.65622 4.05676 0
M  V30 3491 N 342.919 -1.39368 0.735821 0
M  V30 3492 C 344.149 -2.04498 0.293967 0
M  V30 3493 C 344.557 -1.55593 -1.07645 0
M  V30 3494 O 343.9 -0.716324 -1.69158 0
M  V30 3495 C 343.962 -3.58836 0.218342 0
M  V30 3496 C 343.626 -4.30721 1.52736 0
M  V30 3497 C 344.623 -4.57305 2.47322 0
M  V30 3498 C 342.308 -4.69251 1.79189 0
M  V30 3499 C 344.302 -5.21429 3.66593 0
M  V30 3500 C 341.989 -5.33104 2.98737 0
M  V30 3501 C 342.987 -5.59125 3.9226 0
M  V30 3502 O 342.675 -6.21653 5.09708 0
M  V30 3503 H 342.407 -0.664118 0.126189 0
M  V30 3504 H 344.961 -1.79385 1.00051 0
M  V30 3505 H 343.191 -3.8285 -0.544314 0
M  V30 3506 H 344.88 -4.05447 -0.191626 0
M  V30 3507 H 345.646 -4.27983 2.28156 0
M  V30 3508 H 341.525 -4.48354 1.07239 0
M  V30 3509 H 345.069 -5.41656 4.39607 0
M  V30 3510 H 340.966 -5.61846 3.17803 0
M  V30 3511 H 341.734 -6.40146 5.10054 0
M  V30 3512 N 344.397 -0.483516 -1.5 0
M  V30 3513 C 345.622 0.0667119 -2.07293 0
M  V30 3514 C 346.047 1.3164 -1.3436 0
M  V30 3515 O 345.405 1.76945 -0.394987 0
M  V30 3516 C 345.453 0.321126 -3.59167 0
M  V30 3517 O 344.557 1.39927 -3.87936 0
M  V30 3518 H 343.898 -0.0184758 -0.663743 0
M  V30 3519 H 346.428 -0.678125 -1.93035 0
M  V30 3520 H 346.438 0.557906 -4.04168 0
M  V30 3521 H 345.113 -0.592007 -4.11665 0
M  V30 3522 H 343.69 1.14882 -3.54763 0
M  V30 3523 N 345.875 1.56104 -0.216619 0
M  V30 3524 C 346.838 2.18819 0.681962 0
M  V30 3525 C 347.838 1.14866 1.12528 0
M  V30 3526 O 349.028 1.40128 1.03488 0
M  V30 3527 C 346.16 2.80756 1.93362 0
M  V30 3528 H 347.353 2.99595 0.135254 0
M  V30 3529 H 344.906 1.56265 0.0330003 0
M  V30 3530 H 345.641 2.03837 2.52232 0
M  V30 3531 H 345.426 3.56876 1.62426 0
M  V30 3532 H 346.916 3.28844 2.57393 0
M  V30 3533 N 347.353 -0.0568162 1.57498 0
M  V30 3534 C 348.283 -1.06593 2.0775 0
M  V30 3535 C 349.264 -1.39448 0.974082 0
M  V30 3536 O 350.449 -1.48815 1.24771 0
M  V30 3537 C 347.579 -2.37509 2.5339 0
M  V30 3538 C 346.533 -2.1897 3.67745 0
M  V30 3539 C 345.859 -3.55402 3.99492 0
M  V30 3540 C 347.159 -1.59859 4.97235 0
M  V30 3541 H 348.853 -0.647706 2.9231 0
M  V30 3542 H 346.399 -0.310116 1.40621 0
M  V30 3543 H 348.352 -3.08409 2.87162 0
M  V30 3544 H 347.076 -2.8134 1.65878 0
M  V30 3545 H 345.735 -1.50508 3.3428 0
M  V30 3546 H 345.383 -3.9683 3.09088 0
M  V30 3547 H 345.083 -3.43831 4.76502 0
M  V30 3548 H 346.607 -4.27708 4.35773 0
M  V30 3549 H 348.021 -2.20642 5.29141 0
M  V30 3550 H 346.418 -1.58942 5.78669 0
M  V30 3551 H 347.488 -0.561506 4.81638 0
M  V30 3552 N 348.832 -1.54138 -0.328536 0
M  V30 3553 C 350.079 -1.72105 -1.06706 0
M  V30 3554 C 350.407 -0.492111 -1.88171 0
M  V30 3555 O 349.662 0.526153 -1.88494 0
M  V30 3556 C 349.961 -2.9457 -2.02393 0
M  V30 3557 C 349.627 -4.29544 -1.37122 0
M  V30 3558 C 348.289 -4.6624 -1.19052 0
M  V30 3559 C 350.641 -5.1333 -0.902331 0
M  V30 3560 C 347.969 -5.84325 -0.527331 0
M  V30 3561 C 350.321 -6.32094 -0.252988 0
M  V30 3562 C 348.985 -6.67473 -0.0600901 0
M  V30 3563 H 348.255 -0.629775 -0.390466 0
M  V30 3564 H 350.902 -1.88372 -0.34473 0
M  V30 3565 H 349.207 -2.72969 -2.81061 0
M  V30 3566 H 350.904 -3.05665 -2.59557 0
M  V30 3567 H 347.494 -4.0067 -1.52188 0
M  V30 3568 H 351.678 -4.855 -1.02974 0
M  V30 3569 H 346.934 -6.103 -0.366634 0
M  V30 3570 H 351.108 -6.96299 0.118366 0
M  V30 3571 H 348.735 -7.58832 0.455828 0
M  V30 3572 N 350.31 0.590341 -1.46126 0
M  V30 3573 C 351.535 1.37991 -1.54833 0
M  V30 3574 C 351.96 1.87163 -0.187506 0
M  V30 3575 O 351.318 1.61133 0.831008 0
M  V30 3576 C 351.366 2.54867 -2.55098 0
M  V30 3577 O 350.47 3.56061 -2.08073 0
M  V30 3578 H 349.811 0.411265 -0.521303 0
M  V30 3579 H 352.341 0.716819 -1.91632 0
M  V30 3580 H 352.351 3.01886 -2.74461 0
M  V30 3581 H 351.026 2.18429 -3.53923 0
M  V30 3582 H 349.603 3.15574 -1.98664 0
M  V30 3583 N 351.788 1.33704 0.83433 0
M  V30 3584 C 353.018 1.28281 1.6195 0
M  V30 3585 C 353.426 -0.147603 1.88623 0
M  V30 3586 O 352.769 -1.1016 1.47005 0
M  V30 3587 C 352.831 1.99386 2.99141 0
M  V30 3588 C 352.495 3.48681 2.95416 0
M  V30 3589 C 353.492 4.438 2.70809 0
M  V30 3590 C 351.177 3.90925 3.15409 0
M  V30 3591 C 353.171 5.79138 2.66229 0
M  V30 3592 C 350.858 5.26366 3.10454 0
M  V30 3593 C 351.856 6.20284 2.85895 0
M  V30 3594 O 351.544 7.53245 2.80852 0
M  V30 3595 H 351.276 0.44315 0.510484 0
M  V30 3596 H 353.83 1.76711 1.04702 0
M  V30 3597 H 352.06 1.45554 3.58261 0
M  V30 3598 H 353.749 1.87403 3.60049 0
M  V30 3599 H 354.515 4.12485 2.5511 0
M  V30 3600 H 350.394 3.18229 3.33543 0
M  V30 3601 H 353.938 6.52416 2.4698 0
M  V30 3602 H 349.835 5.57304 3.25703 0
M  V30 3603 H 350.603 7.62846 2.96661 0
M  V30 3604 N 353.266 -1.05314 1.17247 0
M  V30 3605 C 354.491 -1.82509 0.985148 0
M  V30 3606 C 354.916 -1.82343 -0.461788 0
M  V30 3607 O 354.274 -1.23151 -1.33055 0
M  V30 3608 C 354.322 -3.26566 1.52929 0
M  V30 3609 O 353.426 -4.05666 0.742225 0
M  V30 3610 H 352.767 -0.564347 0.349869 0
M  V30 3611 H 355.297 -1.32718 1.55715 0
M  V30 3612 H 355.307 -3.77369 1.55103 0
M  V30 3613 H 353.982 -3.26001 2.58256 0
M  V30 3614 H 352.559 -3.64397 0.791794 0
M  V30 3615 N 354.744 -0.972509 -1.24016 0
M  V30 3616 C 355.992 -0.635776 -1.91839 0
M  V30 3617 C 356.313 0.832312 -1.76345 0
M  V30 3618 O 355.583 1.5946 -1.13795 0
M  V30 3619 H 354.163 -0.232157 -0.710009 0
M  V30 3620 H 356.825 -1.23462 -1.50809 0
M  V30 3621 H 355.921 -0.880545 -2.99421 0
M  V30 3622 N 356.222 1.38976 -0.743202 0
M  V30 3623 C 357.468 2.01114 -0.304109 0
M  V30 3624 C 357.823 1.57929 1.09892 0
M  V30 3625 O 357.116 0.801983 1.74008 0
M  V30 3626 C 357.31 3.55647 -0.353517 0
M  V30 3627 C 357.139 4.13837 -1.75981 0
M  V30 3628 C 355.909 4.46062 -2.37395 0
M  V30 3629 C 358.107 4.36812 -2.71477 0
M  V30 3630 N 356.089 4.898 -3.70093 0
M  V30 3631 C 357.46 4.82844 -3.88923 0
M  V30 3632 C 359.515 4.18893 -2.69134 0
M  V30 3633 C 358.218 5.12837 -5.04371 0
M  V30 3634 C 360.244 4.50005 -3.83731 0
M  V30 3635 C 359.606 4.96251 -4.99914 0
M  V30 3636 H 355.705 0.765931 -0.157716 0
M  V30 3637 H 358.289 1.68763 -0.970931 0
M  V30 3638 H 356.46 3.87368 0.282987 0
M  V30 3639 H 358.192 4.04564 0.104904 0
M  V30 3640 H 354.947 4.34145 -1.89248 0
M  V30 3641 H 355.371 5.16016 -4.38242 0
M  V30 3642 H 360.013 3.82335 -1.80499 0
M  V30 3643 H 357.731 5.48297 -5.9363 0
M  V30 3644 H 361.317 4.37755 -3.83225 0
M  V30 3645 H 360.197 5.19867 -5.87118 0
M  V30 3646 N 357.7 0.491464 1.49741 0
M  V30 3647 C 358.977 -0.118984 1.95238 0
M  V30 3648 C 359.357 -1.55044 1.43264 0
M  V30 3649 O 358.705 -2.19287 0.642287 0
M  V30 3650 C 358.915 -0.0414187 3.48975 0
M  V30 3651 C 360.263 -0.220133 4.24029 0
M  V30 3652 O 361.287 -0.117055 3.56008 0
M  V30 3653 O 360.146 -0.430567 5.44801 0
M  V30 3654 H 357.24 -0.100536 0.820866 0
M  V30 3655 H 359.786 0.553322 1.60426 0
M  V30 3656 H 358.558 0.957214 3.79412 0
M  V30 3657 H 358.181 -0.754292 3.9038 0
M  V30 3658 N 359.178 -1.55987 0.224894 0
M  V30 3659 C 360.406 -2.02784 -0.410665 0
M  V30 3660 C 360.821 -1.10464 -1.53112 0
M  V30 3661 O 360.178 -0.114871 -1.82138 0
M  V30 3662 C 360.229 -3.49087 -0.939165 0
M  V30 3663 O 359.95 -4.37887 0.136614 0
M  V30 3664 C 361.451 -4.11543 -1.64763 0
M  V30 3665 H 358.671 -0.663484 -0.100148 0
M  V30 3666 H 361.215 -2.01614 0.342326 0
M  V30 3667 H 359.37 -3.50861 -1.64242 0
M  V30 3668 H 359.784 -5.23849 -0.261155 0
M  V30 3669 H 361.258 -5.15673 -1.96939 0
M  V30 3670 H 361.735 -3.56736 -2.56195 0
M  V30 3671 H 362.341 -4.13629 -0.989503 0
M  V30 3672 N 360.656 0.0484629 -1.57525 0
M  V30 3673 C 361.586 1.0549 -2.08313 0
M  V30 3674 C 362.567 1.38929 -0.981463 0
M  V30 3675 O 363.752 1.48151 -1.25558 0
M  V30 3676 C 360.882 2.36162 -2.54646 0
M  V30 3677 C 359.836 2.17016 -3.68901 0
M  V30 3678 C 359.162 3.53278 -4.01371 0
M  V30 3679 C 360.462 1.57219 -4.98076 0
M  V30 3680 H 362.156 0.632195 -2.92649 0
M  V30 3681 H 359.702 0.302654 -1.40784 0
M  V30 3682 H 361.655 3.06882 -2.88793 0
M  V30 3683 H 360.379 2.80456 -1.67368 0
M  V30 3684 H 359.038 1.48733 -3.35073 0
M  V30 3685 H 358.686 3.95185 -3.11188 0
M  V30 3686 H 358.386 3.41299 -4.78318 0
M  V30 3687 H 359.91 4.25391 -4.38035 0
M  V30 3688 H 361.324 2.17832 -5.30304 0
M  V30 3689 H 359.721 1.55871 -5.79503 0
M  V30 3690 H 360.791 0.535956 -4.81929 0
M  V30 3691 N 362.134 1.5431 0.320358 0
M  V30 3692 C 363.082 1.84647 1.4145 0
M  V30 3693 C 364.076 0.718624 1.53402 0
M  V30 3694 O 365.282 0.902335 1.5575 0
M  V30 3695 H 361.657 0.585349 0.472091 0
M  V30 3696 H 363.628 2.7614 1.13089 0
M  V30 3697 C 362.377 2.09341 2.77617 0
M  V30 3698 H 361.7 2.9559 2.69196 0
M  V30 3699 H 363.14 2.3452 3.53237 0
M  V30 3700 C 361.599 0.885939 3.25043 0
M  V30 3701 O 362.129 0.0967891 4.01583 0
M  V30 3702 N 360.335 0.696682 2.82125 0
M  V30 3703 H 359.882 1.34006 2.2 0
M  V30 3704 H 359.84 -0.109712 3.14209 0
M  V30 3705 N 363.613 -0.582584 1.46437 0
M  V30 3706 C 364.843 -1.36484 1.55099 0
M  V30 3707 C 365.251 -1.88233 0.191056 0
M  V30 3708 O 364.594 -1.6429 -0.821858 0
M  V30 3709 C 364.656 -2.588 2.49525 0
M  V30 3710 C 364.32 -2.28517 3.95764 0
M  V30 3711 C 365.317 -1.87346 4.84972 0
M  V30 3712 C 363.002 -2.40658 4.40896 0
M  V30 3713 C 364.996 -1.5871 6.17325 0
M  V30 3714 C 362.683 -2.11635 5.73284 0
M  V30 3715 C 363.681 -1.70725 6.61318 0
M  V30 3716 O 363.369 -1.42057 7.91249 0
M  V30 3717 H 363.101 -0.423297 0.527063 0
M  V30 3718 H 365.655 -0.715188 1.92547 0
M  V30 3719 H 363.885 -3.26571 2.07095 0
M  V30 3720 H 365.574 -3.20868 2.48593 0
M  V30 3721 H 366.34 -1.77481 4.5136 0
M  V30 3722 H 362.219 -2.71463 3.72598 0
M  V30 3723 H 365.763 -1.26704 6.85997 0
M  V30 3724 H 361.66 -2.21124 6.06444 0
M  V30 3725 H 362.428 -1.55901 8.03515 0
M  V30 3726 N 365.091 -1.34144 -0.827227 0
M  V30 3727 C 366.337 -1.26446 -1.58554 0
M  V30 3728 C 366.67 0.1664 -1.93486 0
M  V30 3729 O 365.945 1.1107 -1.59667 0
M  V30 3730 C 366.228 -2.15111 -2.8879 0
M  V30 3731 C 366.081 -3.66712 -2.60465 0
M  V30 3732 C 367.4 -2.03311 -3.90324 0
M  V30 3733 H 364.519 -0.46067 -0.575284 0
M  V30 3734 H 367.161 -1.64356 -0.953269 0
M  V30 3735 H 365.311 -1.8291 -3.42748 0
M  V30 3736 H 366.983 -4.09259 -2.1285 0
M  V30 3737 H 365.226 -3.88014 -1.93978 0
M  V30 3738 H 365.897 -4.24112 -3.53317 0
M  V30 3739 H 368.373 -2.31574 -3.45706 0
M  V30 3740 H 367.249 -2.67582 -4.79261 0
M  V30 3741 H 367.51 -1.00879 -4.30437 0
M  V30 3742 N 366.569 1.04691 -1.17803 0
M  V30 3743 C 367.797 1.81446 -0.99423 0
M  V30 3744 C 368.212 1.83174 0.457459 0
M  V30 3745 O 367.569 1.26265 1.31771 0
M  V30 3746 C 367.62 3.27334 -1.5341 0
M  V30 3747 O 367.341 3.25798 -2.92895 0
M  V30 3748 C 368.842 4.20759 -1.39559 0
M  V30 3749 H 366.062 0.571599 -0.351447 0
M  V30 3750 H 368.606 1.31982 -1.56208 0
M  V30 3751 H 366.761 3.74052 -1.00815 0
M  V30 3752 H 367.175 4.17144 -3.17949 0
M  V30 3753 H 368.649 5.21084 -1.82141 0
M  V30 3754 H 369.126 4.37856 -0.343394 0
M  V30 3755 H 369.732 3.79901 -1.91195 0
M  V30 3756 N 368.047 0.979072 1.23499 0
M  V30 3757 C 368.957 0.526431 2.28617 0
M  V30 3758 C 369.973 -0.418126 1.68901 0
M  V30 3759 O 371.149 -0.288372 1.99325 0
M  V30 3760 C 368.214 -0.165235 3.46306 0
M  V30 3761 C 367.275 0.82056 4.21385 0
M  V30 3762 C 366.508 0.161807 5.33455 0
M  V30 3763 O 366.731 -1.04742 5.60701 0
M  V30 3764 O 365.665 0.859708 5.95729 0
M  V30 3765 H 369.491 1.4006 2.69475 0
M  V30 3766 H 367.076 0.746643 1.29405 0
M  V30 3767 H 368.958 -0.553287 4.17752 0
M  V30 3768 H 367.633 -1.01419 3.07402 0
M  V30 3769 H 366.54 1.25929 3.52268 0
M  V30 3770 H 367.873 1.63828 4.64135 0
M  V30 3771 N 369.525 -1.3858 0.750561 0
M  V30 3772 C 370.435 -2.34278 0.122825 0
M  V30 3773 C 371.451 -1.59116 -0.704131 0
M  V30 3774 O 372.627 -1.91326 -0.628987 0
M  V30 3775 C 369.692 -3.38221 -0.762086 0
M  V30 3776 C 368.753 -4.29227 0.078896 0
M  V30 3777 C 367.986 -5.28205 -0.763874 0
M  V30 3778 O 368.209 -5.34112 -2.00201 0
M  V30 3779 O 367.143 -6.01618 -0.18428 0
M  V30 3780 H 370.969 -2.89649 0.913088 0
M  V30 3781 H 368.554 -1.40374 0.511417 0
M  V30 3782 H 370.436 -4.01872 -1.26793 0
M  V30 3783 H 369.111 -2.85211 -1.5309 0
M  V30 3784 H 368.018 -3.68747 0.630621 0
M  V30 3785 H 369.351 -4.85484 0.810289 0
M  V30 3786 N 371.003 -0.499398 -1.49478 0
M  V30 3787 C 372.252 0.0475259 -2.01644 0
M  V30 3788 C 372.565 1.38195 -1.38425 0
M  V30 3789 O 373.771 2.01547 -1.8191 0
M  V30 3790 C 372.227 0.135164 -3.59646 0
M  V30 3791 C 371.835 -1.19252 -4.31837 0
M  V30 3792 C 373.579 0.632538 -4.19761 0
M  V30 3793 C 371.486 -1.06713 -5.81693 0
M  V30 3794 H 370.416 0.0215349 -0.753692 0
M  V30 3795 H 373.067 -0.638577 -1.7203 0
M  V30 3796 H 371.449 0.885681 -3.85969 0
M  V30 3797 H 372.623 -1.9562 -4.17216 0
M  V30 3798 H 370.938 -1.62321 -3.83459 0
M  V30 3799 H 373.535 0.743833 -5.29501 0
M  V30 3800 H 373.878 1.63098 -3.83021 0
M  V30 3801 H 374.411 -0.0613987 -3.97753 0
M  V30 3802 H 371.15 -2.03979 -6.22955 0
M  V30 3803 H 370.67 -0.344307 -5.98811 0
M  V30 3804 H 372.349 -0.745208 -6.42694 0
M  V30 3805 N 372.481 1.55866 -0.233164 0
M  V30 3806 C 373.428 2.20796 0.67215 0
M  V30 3807 C 374.398 1.16731 1.18166 0
M  V30 3808 O 375.583 1.45129 1.23864 0
M  V30 3809 C 372.723 2.90072 1.86955 0
M  V30 3810 C 371.836 4.08759 1.39786 0
M  V30 3811 C 370.971 4.65787 2.55374 0
M  V30 3812 C 370.01 5.76752 2.04998 0
M  V30 3813 N 369.147 6.28021 3.13901 0
M  V30 3814 H 373.987 2.9779 0.111749 0
M  V30 3815 H 371.524 1.47036 0.0434007 0
M  V30 3816 H 373.482 3.28428 2.57276 0
M  V30 3817 H 372.112 2.15575 2.40265 0
M  V30 3818 H 371.164 3.7581 0.589173 0
M  V30 3819 H 372.476 4.88906 0.98856 0
M  V30 3820 H 371.63 5.06646 3.33758 0
M  V30 3821 H 370.369 3.84828 2.99598 0
M  V30 3822 H 369.374 5.35383 1.25079 0
M  V30 3823 H 370.599 6.59553 1.61759 0
M  V30 3824 H 368.545 5.49971 3.57586 0
M  V30 3825 H 368.462 7.03323 2.7726 0
M  V30 3826 H 369.73 6.73538 3.92386 0
M  V30 3827 N 373.959 -0.0401083 1.57549 0
M  V30 3828 C 374.907 -1.06264 2.06908 0
M  V30 3829 C 375.901 -1.38132 0.980608 0
M  V30 3830 O 377.107 -1.37167 1.16556 0
M  V30 3831 H 373.482 -0.360166 0.660139 0
M  V30 3832 H 375.453 -0.620445 2.91878 0
M  V30 3833 C 374.202 -2.35846 2.55483 0
M  V30 3834 H 373.525 -2.12183 3.38849 0
M  V30 3835 H 374.965 -3.05765 2.93741 0
M  V30 3836 C 373.424 -3.0404 1.45126 0
M  V30 3837 O 373.954 -3.93424 0.811216 0
M  V30 3838 N 372.16 -2.65184 1.18852 0
M  V30 3839 H 371.707 -1.92584 1.71083 0
M  V30 3840 H 371.665 -3.1113 0.452244 0
M  V30 3841 N 375.437 -1.54477 -0.31217 0
M  V30 3842 C 376.848 -1.64344 -0.885891 0
M  V30 3843 C 377.199 -0.54485 -1.88483 0
M  V30 3844 O 376.324 0.320387 -2.14015 0
M  V30 3845 C 376.919 -2.97908 -1.61357 0
M  V30 3846 C 375.478 -3.09933 -2.13585 0
M  V30 3847 C 374.625 -2.59971 -0.964897 0
M  V30 3848 H 377.576 -1.58448 -0.0894528 0
M  V30 3849 H 377.597 -2.88706 -2.47848 0
M  V30 3850 H 377.109 -3.77845 -0.886277 0
M  V30 3851 H 375.21 -2.34694 -2.89395 0
M  V30 3852 H 375.323 -4.15916 -2.37804 0
M  V30 3853 H 373.687 -2.16147 -1.34731 0
M  V30 3854 H 374.47 -3.42376 -0.251742 0
M  V30 3855 N 376.915 0.57481 -1.46744 0
M  V30 3856 C 377.825 1.711 -1.60505 0
M  V30 3857 C 378.841 1.67008 -0.488307 0
M  V30 3858 O 380.017 1.86774 -0.753495 0
M  V30 3859 C 377.082 3.07608 -1.59932 0
M  V30 3860 C 376.143 3.22904 -2.82898 0
M  V30 3861 C 375.376 4.529 -2.82343 0
M  V30 3862 O 375.599 5.37278 -1.91542 0
M  V30 3863 O 374.533 4.71611 -3.73987 0
M  V30 3864 H 378.359 1.62436 -2.56609 0
M  V30 3865 H 375.944 0.742779 -1.29627 0
M  V30 3866 H 377.826 3.88877 -1.62336 0
M  V30 3867 H 376.501 3.16692 -0.669898 0
M  V30 3868 H 375.408 2.41099 -2.86046 0
M  V30 3869 H 376.741 3.18715 -3.75076 0
M  V30 3870 N 378.394 1.34581 0.820102 0
M  V30 3871 C 379.81 1.14325 1.11364 0
M  V30 3872 C 380.01 -0.0533648 2.01429 0
M  V30 3873 O 379.066 -0.728044 2.41776 0
M  V30 3874 C 380.379 2.43983 1.75764 0
M  V30 3875 C 381.927 2.50065 1.88246 0
M  V30 3876 C 382.402 3.79732 2.56061 0
M  V30 3877 N 383.893 3.80908 2.63558 0
M  V30 3878 C 384.628 4.77961 3.16766 0
M  V30 3879 N 384.124 5.85397 3.70517 0
M  V30 3880 N 385.917 4.65413 3.15194 0
M  V30 3881 H 378.068 2.11246 0.221096 0
M  V30 3882 H 380.331 0.934289 0.160649 0
M  V30 3883 H 380.037 3.31651 1.1705 0
M  V30 3884 H 379.911 2.57531 2.75604 0
M  V30 3885 H 382.298 1.62834 2.46108 0
M  V30 3886 H 382.379 2.40442 0.873006 0
M  V30 3887 H 382.023 4.67354 1.98853 0
M  V30 3888 H 381.953 3.86639 3.57516 0
M  V30 3889 H 384.444 3.03274 2.25463 0
M  V30 3890 H 384.757 6.55463 4.09376 0
M  V30 3891 H 383.102 5.89107 3.68752 0
M  V30 3892 H 386.293 3.80627 2.72471 0
M  V30 3893 H 386.466 5.41216 3.56356 0
M  V30 3894 N 379.872 -1.04064 1.18357 0
M  V30 3895 C 380.82 -2.14187 0.907007 0
M  V30 3896 C 381.814 -1.68879 -0.132725 0
M  V30 3897 O 383.02 -1.79993 0.0154248 0
M  V30 3898 H 379.395 -0.699585 0.275835 0
M  V30 3899 H 381.366 -2.34711 1.84264 0
M  V30 3900 C 380.115 -3.44785 0.449254 0
M  V30 3901 H 379.438 -3.80058 1.24081 0
M  V30 3902 H 380.878 -4.22974 0.294737 0
M  V30 3903 C 379.337 -3.26391 -0.834909 0
M  V30 3904 O 379.867 -3.53973 -1.89911 0
M  V30 3905 N 378.073 -2.79726 -0.787523 0
M  V30 3906 H 377.62 -2.5748 0.0787347 0
M  V30 3907 H 377.578 -2.67798 -1.64716 0
M  V30 3908 N 381.35 -0.985608 -1.22978 0
M  V30 3909 C 382.28 -0.549649 -2.26939 0
M  V30 3910 C 383.261 0.419803 -1.64838 0
M  V30 3911 O 384.446 0.31203 -1.91677 0
M  V30 3912 C 381.576 0.143652 -3.47003 0
M  V30 3913 C 380.53 -0.743606 -4.21491 0
M  V30 3914 C 379.856 0.0822027 -5.34637 0
M  V30 3915 C 381.156 -2.03694 -4.80943 0
M  V30 3916 H 382.85 -1.41862 -2.63658 0
M  V30 3917 H 380.396 -0.683571 -1.26741 0
M  V30 3918 H 382.349 0.459985 -4.18882 0
M  V30 3919 H 381.073 1.04711 -3.09359 0
M  V30 3920 H 379.732 -1.04347 -3.51436 0
M  V30 3921 H 379.38 0.986359 -4.93234 0
M  V30 3922 H 379.08 -0.508377 -5.85397 0
M  V30 3923 H 380.604 0.392797 -6.09335 0
M  V30 3924 H 382.018 -1.78504 -5.44802 0
M  V30 3925 H 380.415 -2.57573 -5.42011 0
M  V30 3926 H 381.485 -2.72042 -4.01399 0
M  V30 3927 N 382.828 1.3818 -0.7579 0
M  V30 3928 C 384.239 1.82726 -0.383134 0
M  V30 3929 C 384.59 1.63214 1.08884 0
M  V30 3930 O 383.715 1.13566 1.84205 0
M  V30 3931 C 384.31 3.31728 -0.688631 0
M  V30 3932 C 382.869 3.74606 -0.367091 0
M  V30 3933 C 382.016 2.60896 -0.939599 0
M  V30 3934 H 384.967 1.26847 -0.953699 0
M  V30 3935 H 384.988 3.80487 0.0316492 0
M  V30 3936 H 384.5 3.45898 -1.76001 0
M  V30 3937 H 382.601 3.66013 0.697532 0
M  V30 3938 H 382.714 4.71215 -0.865658 0
M  V30 3939 H 381.078 2.52075 -0.3647 0
M  V30 3940 H 381.861 2.77864 -2.0161 0
M  V30 3941 N 384.306 0.507319 1.49211 0
M  V30 3942 C 385.236 -0.256939 2.32082 0
M  V30 3943 C 386.217 -0.956609 1.40652 0
M  V30 3944 O 387.402 -0.946788 1.69557 0
M  V30 3945 C 384.532 -1.31802 3.21318 0
M  V30 3946 C 383.486 -0.737855 4.21592 0
M  V30 3947 C 382.812 -1.89992 4.99807 0
M  V30 3948 C 384.112 0.275325 5.21574 0
M  V30 3949 H 385.806 0.434798 2.96226 0
M  V30 3950 H 383.352 0.210546 1.42452 0
M  V30 3951 H 385.305 -1.86045 3.78107 0
M  V30 3952 H 384.029 -2.03903 2.5513 0
M  V30 3953 H 382.688 -0.217126 3.65956 0
M  V30 3954 H 382.336 -2.60877 4.30061 0
M  V30 3955 H 382.036 -1.51777 5.6766 0
M  V30 3956 H 383.56 -2.44657 5.59442 0
M  V30 3957 H 384.974 -0.179193 5.7302 0
M  V30 3958 H 383.371 0.573649 5.97352 0
M  V30 3959 H 384.441 1.18903 4.70096 0
M  V30 3960 N 385.784 -1.5574 0.241426 0
M  V30 3961 C 387.009 -2.0366 -0.392111 0
M  V30 3962 C 387.434 -1.11969 -1.51144 0
M  V30 3963 O 386.792 -0.111594 -1.80956 0
M  V30 3964 C 386.84 -3.49638 -0.882371 0
M  V30 3965 O 385.944 -3.6108 -1.99235 0
M  V30 3966 H 385.285 -0.658379 -0.0862122 0
M  V30 3967 H 387.815 -2.01302 0.365881 0
M  V30 3968 H 387.825 -3.90351 -1.18702 0
M  V30 3969 H 386.5 -4.15852 -0.0632361 0
M  V30 3970 H 385.077 -3.32262 -1.69282 0
M  V30 3971 N 387.262 0.0317525 -1.57568 0
M  V30 3972 C 388.511 0.722131 -1.8833 0
M  V30 3973 C 388.824 1.76664 -0.839587 0
M  V30 3974 O 390.03 2.50942 -1.03635 0
M  V30 3975 C 388.486 1.33544 -3.34207 0
M  V30 3976 C 388.094 0.327415 -4.46802 0
M  V30 3977 C 389.838 2.00585 -3.7412 0
M  V30 3978 C 387.745 0.948915 -5.83738 0
M  V30 3979 H 386.675 0.273466 -0.702661 0
M  V30 3980 H 389.326 -0.0235811 -1.83485 0
M  V30 3981 H 387.708 2.13077 -3.33788 0
M  V30 3982 H 388.882 -0.441006 -4.58685 0
M  V30 3983 H 387.197 -0.240758 -4.15703 0
M  V30 3984 H 389.794 2.47932 -4.73744 0
M  V30 3985 H 390.137 2.82285 -3.05975 0
M  V30 3986 H 390.67 1.27831 -3.76702 0
M  V30 3987 H 387.409 0.171387 -6.55276 0
M  V30 3988 H 386.929 1.68724 -5.7558 0
M  V30 3989 H 388.608 1.45705 -6.3038 0
M  V30 3990 N 388.74 1.54641 0.303973 0
M  V30 3991 C 389.988 1.73437 1.0375 0
M  V30 3992 C 390.309 0.521449 1.87899 0
M  V30 3993 O 389.579 -0.46432 1.90318 0
M  V30 3994 H 388.159 0.639518 0.386039 0
M  V30 3995 H 390.821 1.91988 0.335675 0
M  V30 3996 H 389.917 2.62235 1.69231 0
M  V30 3997 N 390.218 -0.567019 1.47046 0
M  V30 3998 C 391.467 -1.32091 1.5243 0
M  V30 3999 C 391.78 -1.94704 0.187021 0
M  V30 4000 O 392.986 -2.7124 0.118771 0
M  V30 4001 C 391.442 -2.39479 2.68659 0
M  V30 4002 C 391.05 -1.831 4.08874 0
M  V30 4003 C 392.794 -3.16111 2.83327 0
M  V30 4004 C 390.701 -2.8821 5.16419 0
M  V30 4005 H 389.631 -0.496629 0.56734 0
M  V30 4006 H 392.282 -0.603354 1.73297 0
M  V30 4007 H 390.664 -3.14105 2.41152 0
M  V30 4008 H 391.838 -1.14913 4.46242 0
M  V30 4009 H 390.153 -1.19085 3.99008 0
M  V30 4010 H 392.75 -3.94585 3.60842 0
M  V30 4011 H 393.093 -3.69686 1.91411 0
M  V30 4012 H 393.626 -2.48595 3.10556 0
M  V30 4013 H 390.365 -2.39504 6.10179 0
M  V30 4014 H 389.885 -3.54839 4.8358 0
M  V30 4015 H 391.564 -3.51881 5.42945 0
M  V30 4016 N 391.696 -1.35014 -0.812953 0
M  V30 4017 C 392.921 -1.31187 -1.60639 0
M  V30 4018 C 393.346 0.109382 -1.87782 0
M  V30 4019 O 392.704 1.07424 -1.46047 0
M  V30 4020 C 392.752 -2.11809 -2.91838 0
M  V30 4021 O 391.856 -1.49444 -3.8437 0
M  V30 4022 H 391.197 -0.450084 -0.488181 0
M  V30 4023 H 393.727 -1.77963 -1.00947 0
M  V30 4024 H 393.737 -2.23531 -3.41318 0
M  V30 4025 H 392.412 -3.15137 -2.71407 0
M  V30 4026 H 390.989 -1.46524 -3.42907 0
M  V30 4027 N 393.175 1.03435 -1.18907 0
M  V30 4028 C 394.108 2.11162 -0.86521 0
M  V30 4029 C 395.086 1.6165 0.175473 0
M  V30 4030 O 396.27 1.88425 0.0530129 0
M  V30 4031 C 393.397 3.37423 -0.293868 0
M  V30 4032 C 392.443 4.05795 -1.31274 0
M  V30 4033 S 393.276 4.52027 -2.8711 0
M  V30 4034 C 394.432 5.81513 -2.31504 0
M  V30 4035 H 394.665 2.38308 -1.77754 0
M  V30 4036 H 392.198 1.16295 -1.01562 0
M  V30 4037 H 394.156 4.1049 0.0292572 0
M  V30 4038 H 392.817 3.0838 0.596682 0
M  V30 4039 H 392.01 4.96574 -0.86198 0
M  V30 4040 H 391.612 3.38874 -1.58242 0
M  V30 4041 H 393.904 6.55784 -1.70157 0
M  V30 4042 H 394.847 6.3136 -3.20608 0
M  V30 4043 H 395.255 5.36921 -1.74286 0
M  V30 4044 N 394.653 0.992116 1.22453 0
M  V30 4045 C 396.064 0.702776 1.72968 0
M  V30 4046 C 396.415 -0.780399 1.80012 0
M  V30 4047 O 395.54 -1.61007 1.44589 0
M  V30 4048 C 396.135 1.26903 3.14135 0
M  V30 4049 C 394.694 1.02909 3.62059 0
M  V30 4050 C 393.841 1.38969 2.39964 0
M  V30 4051 H 396.792 1.16457 1.07812 0
M  V30 4052 H 396.813 0.647223 3.74955 0
M  V30 4053 H 396.325 2.34851 3.08977 0
M  V30 4054 H 394.426 -0.0337979 3.72585 0
M  V30 4055 H 394.539 1.69191 4.48231 0
M  V30 4056 H 392.903 0.808279 2.41535 0
M  V30 4057 H 393.686 2.4792 2.37467 0
M  V30 4058 N 396.131 -1.37776 0.765217 0
M  V30 4059 C 397.38 -1.99092 0.323307 0
M  V30 4060 C 397.693 -1.61434 -1.10446 0
M  V30 4061 O 398.899 -2.15805 -1.64743 0
M  V30 4062 C 397.355 -3.56019 0.527098 0
M  V30 4063 C 396.963 -4.0262 1.96471 0
M  V30 4064 C 398.707 -4.2424 0.148483 0
M  V30 4065 C 396.614 -5.52233 2.11644 0
M  V30 4066 H 395.544 -0.744846 0.117137 0
M  V30 4067 H 398.195 -1.57391 0.943417 0
M  V30 4068 H 396.577 -3.95667 -0.162372 0
M  V30 4069 H 397.751 -3.74234 2.68859 0
M  V30 4070 H 396.066 -3.47161 2.29931 0
M  V30 4071 H 398.663 -5.34159 0.240456 0
M  V30 4072 H 399.006 -4.06446 -0.900422 0
M  V30 4073 H 399.539 -3.89872 0.79025 0
M  V30 4074 H 396.278 -5.74945 3.1483 0
M  V30 4075 H 395.798 -5.82324 1.4373 0
M  V30 4076 H 397.477 -6.18106 1.91193 0
M  V30 4077 N 397.609 -0.515225 -1.4894 0
M  V30 4078 C 398.855 0.0242508 -2.02785 0
M  V30 4079 C 399.188 1.35323 -1.39289 0
M  V30 4080 O 398.463 1.87041 -0.533469 0
M  V30 4081 C 398.746 0.16184 -3.59736 0
M  V30 4082 C 398.599 -1.19127 -4.33738 0
M  V30 4083 C 399.918 0.895719 -4.30888 0
M  V30 4084 H 397.037 0.00733914 -0.736963 0
M  V30 4085 H 399.679 -0.669395 -1.77818 0
M  V30 4086 H 397.829 0.752624 -3.8114 0
M  V30 4087 H 399.501 -1.82202 -4.23792 0
M  V30 4088 H 397.744 -1.77695 -3.95736 0
M  V30 4089 H 398.415 -1.04815 -5.41957 0
M  V30 4090 H 400.891 0.394528 -4.14225 0
M  V30 4091 H 399.767 0.960859 -5.40425 0
M  V30 4092 H 400.028 1.9427 -3.97129 0
M  V30 4093 N 399.087 1.5561 -0.249682 0
M  V30 4094 C 400.315 2.03411 0.378352 0
M  V30 4095 C 400.73 1.12886 1.51335 0
M  V30 4096 O 400.087 0.143833 1.81932 0
M  V30 4097 C 400.138 3.50537 0.88351 0
M  V30 4098 O 399.859 4.37614 -0.20626 0
M  V30 4099 C 401.36 4.14113 1.58195 0
M  V30 4100 H 398.58 0.664994 0.08958 0
M  V30 4101 H 401.124 2.01044 -0.374357 0
M  V30 4102 H 399.279 3.5343 1.58639 0
M  V30 4103 H 399.693 5.24199 0.177782 0
M  V30 4104 H 401.167 5.18741 1.8871 0
M  V30 4105 H 401.644 3.60767 2.50487 0
M  V30 4106 H 402.25 4.15151 0.923573 0
M  V30 4107 N 400.565 -0.0233959 1.57583 0
M  V30 4108 C 401.814 -0.712133 1.8871 0
M  V30 4109 C 402.127 -1.76217 0.848944 0
M  V30 4110 O 403.333 -2.50389 1.04964 0
M  V30 4111 C 401.789 -1.3177 3.3491 0
M  V30 4112 C 401.397 -0.303715 4.46969 0
M  V30 4113 C 403.141 -1.98598 3.75179 0
M  V30 4114 C 401.048 -0.917945 5.84233 0
M  V30 4115 H 399.978 -0.269735 0.704101 0
M  V30 4116 H 402.629 0.0333114 1.8347 0
M  V30 4117 H 401.011 -2.11304 3.34913 0
M  V30 4118 H 402.185 0.465325 4.58445 0
M  V30 4119 H 400.5 0.2628 4.1557 0
M  V30 4120 H 403.097 -2.45416 4.75053 0
M  V30 4121 H 403.44 -2.80659 3.07468 0
M  V30 4122 H 403.973 -1.25831 3.77374 0
M  V30 4123 H 400.712 -0.136633 6.55358 0
M  V30 4124 H 400.232 -1.65669 5.76467 0
M  V30 4125 H 401.911 -1.4236 6.31144 0
M  V30 4126 N 402.043 -1.548 -0.295768 0
M  V30 4127 C 403.292 -1.73538 -1.02798 0
M  V30 4128 C 403.605 -0.531159 -1.8825 0
M  V30 4129 O 404.811 -0.600458 -2.64777 0
M  V30 4130 C 403.267 -3.07051 -1.87744 0
M  V30 4131 C 402.875 -4.34968 -1.07269 0
M  V30 4132 C 404.619 -3.35146 -2.60533 0
M  V30 4133 C 402.526 -5.5953 -1.91521 0
M  V30 4134 H 401.456 -0.646794 -0.387522 0
M  V30 4135 H 404.107 -1.81278 -0.284718 0
M  V30 4136 H 402.489 -2.93289 -2.66078 0
M  V30 4137 H 403.663 -4.5958 -0.335117 0
M  V30 4138 H 401.978 -4.13847 -0.460384 0
M  V30 4139 H 404.575 -4.2541 -3.23929 0
M  V30 4140 H 404.918 -2.54255 -3.29636 0
M  V30 4141 H 405.451 -3.49902 -1.89244 0
M  V30 4142 H 402.19 -6.43103 -1.26878 0
M  V30 4143 H 401.71 -5.39096 -2.62937 0
M  V30 4144 H 403.389 -5.96982 -2.49442 0
M  V30 4145 N 403.521 0.559213 -1.47345 0
M  V30 4146 C 404.751 1.33999 -1.57251 0
M  V30 4147 C 405.159 1.87905 -0.220978 0
M  V30 4148 O 404.502 1.65577 0.795617 0
M  V30 4149 C 404.564 2.54798 -2.53611 0
M  V30 4150 C 404.228 2.22192 -3.99349 0
M  V30 4151 C 405.225 1.79607 -4.87891 0
M  V30 4152 C 402.91 2.33613 -4.44669 0
M  V30 4153 C 404.904 1.48868 -6.19772 0
M  V30 4154 C 402.591 2.02487 -5.76578 0
M  V30 4155 C 403.589 1.60183 -6.63951 0
M  V30 4156 O 403.277 1.29451 -7.93409 0
M  V30 4157 H 403.009 0.414858 -0.533731 0
M  V30 4158 H 405.563 0.684465 -1.9366 0
M  V30 4159 H 403.793 3.23235 -2.12265 0
M  V30 4160 H 405.482 3.16873 -2.53666 0
M  V30 4161 H 406.248 1.70278 -4.54126 0
M  V30 4162 H 402.127 2.65501 -3.76869 0
M  V30 4163 H 405.671 1.15775 -6.87926 0
M  V30 4164 H 401.568 2.11448 -6.09885 0
M  V30 4165 H 402.336 1.43098 -8.05894 0
M  V30 4166 N 404.999 1.35443 0.805782 0
M  V30 4167 C 406.248 1.28097 1.55801 0
M  V30 4168 C 406.561 -0.142428 1.95081 0
M  V30 4169 O 407.767 -0.33817 2.69386 0
M  V30 4170 C 406.223 2.24653 2.81174 0
M  V30 4171 C 405.831 3.72342 2.49129 0
M  V30 4172 C 407.575 2.2625 3.59181 0
M  V30 4173 C 405.482 4.60719 3.70799 0
M  V30 4174 H 404.412 0.475937 0.584808 0
M  V30 4175 H 407.063 1.60712 0.885661 0
M  V30 4176 H 405.445 1.85011 3.50124 0
M  V30 4177 H 406.619 4.20624 1.88181 0
M  V30 4178 H 404.934 3.73361 1.84366 0
M  V30 4179 H 407.531 2.89495 4.49552 0
M  V30 4180 H 407.874 1.26647 3.96568 0
M  V30 4181 H 408.407 2.64426 2.97193 0
M  V30 4182 H 405.146 5.61324 3.3852 0
M  V30 4183 H 404.666 4.17163 4.3097 0
M  V30 4184 H 406.345 4.76182 4.38018 0
M  V30 4185 N 406.477 -1.02803 1.19454 0
M  V30 4186 C 407.407 -2.12999 0.956758 0
M  V30 4187 C 408.388 -1.69743 -0.110188 0
M  V30 4188 O 409.573 -1.94148 0.0450038 0
M  V30 4189 C 406.703 -3.43746 0.495553 0
M  V30 4190 C 405.657 -4.00688 1.50443 0
M  V30 4191 C 404.983 -5.27067 0.900275 0
M  V30 4192 C 406.283 -4.35397 2.8849 0
M  V30 4193 H 407.977 -2.33148 1.87836 0
M  V30 4194 H 405.523 -1.12045 0.904539 0
M  V30 4195 H 407.476 -4.2021 0.316493 0
M  V30 4196 H 406.2 -3.23321 -0.461646 0
M  V30 4197 H 404.859 -3.2632 1.67065 0
M  V30 4198 H 404.507 -5.02959 -0.064503 0
M  V30 4199 H 404.207 -5.66127 1.57397 0
M  V30 4200 H 405.731 -6.06196 0.73203 0
M  V30 4201 H 407.145 -5.02795 2.75446 0
M  V30 4202 H 405.542 -4.85541 3.52661 0
M  V30 4203 H 406.612 -3.44662 3.41081 0
M  V30 4204 N 407.956 -0.998596 -1.21925 0
M  V30 4205 C 409.184 -0.696286 -1.94832 0
M  V30 4206 C 409.599 0.740032 -1.73692 0
M  V30 4207 O 408.956 1.5 -1.03953 0
M  V30 4208 C 409.007 -0.999833 -3.47398 0
M  V30 4209 O 408.728 -2.37972 -3.67833 0
M  V30 4210 C 410.229 -0.716025 -4.37479 0
M  V30 4211 H 407.449 -0.257111 -0.619786 0
M  V30 4212 H 409.993 -1.33491 -1.54921 0
M  V30 4213 H 408.148 -0.406918 -3.85257 0
M  V30 4214 H 408.562 -2.48338 -4.61983 0
M  V30 4215 H 410.036 -0.978642 -5.43256 0
M  V30 4216 H 410.513 0.349968 -4.37803 0
M  V30 4217 H 411.119 -1.29025 -4.05256 0
M  V30 4218 N 409.434 1.37368 -0.772513 0
M  V30 4219 C 410.382 2.32134 -0.147111 0
M  V30 4220 C 411.376 1.54972 0.684106 0
M  V30 4221 O 412.582 1.70363 0.581083 0
M  V30 4222 H 408.957 0.751449 -0.028786 0
M  V30 4223 H 410.928 2.82464 -0.962112 0
M  V30 4224 C 409.677 3.40226 0.71703 0
M  V30 4225 H 409 3.99706 0.0867951 0
M  V30 4226 H 410.44 4.08897 1.12159 0
M  V30 4227 C 408.899 2.80372 1.86797 0
M  V30 4228 O 409.429 2.71183 2.96349 0
M  V30 4229 N 407.635 2.37904 1.66883 0
M  V30 4230 H 407.182 2.45578 0.777759 0
M  V30 4231 H 407.14 1.98202 2.44056 0
M  V30 4232 N 410.912 0.523116 1.48665 0
M  V30 4233 C 412.158 -0.0134963 2.02796 0
M  V30 4234 C 412.491 -1.34582 1.40004 0
M  V30 4235 O 411.766 -1.86756 0.543381 0
M  V30 4236 C 412.049 -0.14276 3.59817 0
M  V30 4237 C 411.902 1.21425 4.331 0
M  V30 4238 C 413.221 -0.872856 4.31357 0
M  V30 4239 H 410.34 -0.00343074 0.736992 0
M  V30 4240 H 412.982 0.678816 1.7746 0
M  V30 4241 H 411.132 -0.732401 3.81534 0
M  V30 4242 H 412.804 1.84447 4.2282 0
M  V30 4243 H 411.047 1.79791 3.94788 0
M  V30 4244 H 411.718 1.07687 5.41394 0
M  V30 4245 H 414.194 -0.372555 4.14429 0
M  V30 4246 H 413.07 -0.932185 5.40927 0
M  V30 4247 H 413.331 -1.92161 3.98154 0
M  V30 4248 N 412.39 -1.55475 0.257931 0
M  V30 4249 C 413.353 -2.20551 -0.623706 0
M  V30 4250 C 414.353 -1.17809 -1.09443 0
M  V30 4251 O 415.543 -1.42823 -0.997362 0
M  V30 4252 C 412.675 -2.85784 -1.8585 0
M  V30 4253 H 413.868 -2.99848 -0.0557743 0
M  V30 4254 H 411.421 -1.56298 0.0084422 0
M  V30 4255 H 412.156 -2.10453 -2.46739 0
M  V30 4256 H 411.941 -3.61057 -1.52907 0
M  V30 4257 H 413.431 -3.35553 -2.48584 0
M  V30 4258 N 413.868 0.0150385 -1.57593 0
M  V30 4259 C 415.098 0.713359 -1.93894 0
M  V30 4260 C 415.506 1.68663 -0.857289 0
M  V30 4261 O 414.849 1.82876 0.173788 0
M  V30 4262 C 414.911 1.51348 -3.26089 0
M  V30 4263 C 414.575 0.703451 -4.51554 0
M  V30 4264 C 415.572 -0.00237924 -5.199 0
M  V30 4265 C 413.257 0.653854 -4.98026 0
M  V30 4266 C 415.251 -0.746955 -6.33008 0
M  V30 4267 C 412.938 -0.0944578 -6.11027 0
M  V30 4268 C 413.936 -0.793609 -6.78374 0
M  V30 4269 O 413.624 -1.52974 -7.89211 0
M  V30 4270 H 413.356 0.204637 -0.644282 0
M  V30 4271 H 415.91 -0.0276411 -2.05381 0
M  V30 4272 H 414.14 2.29862 -3.10967 0
M  V30 4273 H 415.829 2.09572 -3.47612 0
M  V30 4274 H 416.595 0.0268803 -4.84993 0
M  V30 4275 H 412.474 1.18756 -4.45441 0
M  V30 4276 H 416.018 -1.2932 -6.85509 0
M  V30 4277 H 411.915 -0.125591 -6.45378 0
M  V30 4278 H 412.683 -1.44488 -8.05646 0
M  V30 4279 N 415.346 1.54954 0.287554 0
M  V30 4280 C 416.576 1.78622 1.03816 0
M  V30 4281 C 416.984 0.552451 1.80955 0
M  V30 4282 O 416.327 -0.487665 1.77109 0
M  V30 4283 C 416.389 2.94975 2.055 0
M  V30 4284 C 416.053 4.32565 1.47433 0
M  V30 4285 C 417.05 5.12096 0.897436 0
M  V30 4286 C 414.735 4.79195 1.50591 0
M  V30 4287 C 416.729 6.36383 0.359851 0
M  V30 4288 C 414.416 6.03441 0.964459 0
M  V30 4289 C 415.414 6.81872 0.392413 0
M  V30 4290 O 415.102 8.03777 -0.140788 0
M  V30 4291 H 414.834 0.599144 0.313053 0
M  V30 4292 H 417.388 2.02761 0.328225 0
M  V30 4293 H 415.618 2.66493 2.80211 0
M  V30 4294 H 417.307 3.06097 2.6657 0
M  V30 4295 H 418.073 4.77209 0.865841 0
M  V30 4296 H 413.952 4.18167 1.94055 0
M  V30 4297 H 417.496 6.97545 -0.0872951 0
M  V30 4298 H 413.393 6.37813 0.993246 0
M  V30 4299 H 414.161 8.18495 -0.0287617 0
M  V30 4300 N 416.824 -0.551391 1.4764 0
M  V30 4301 C 418.052 -1.33357 1.58189 0
M  V30 4302 C 418.467 -1.87342 0.234199 0
M  V30 4303 O 417.824 -1.65301 -0.77343 0
M  V30 4304 C 417.875 -2.49942 2.61173 0
M  V30 4305 O 417.596 -1.98187 3.90709 0
M  V30 4306 C 419.097 -3.42072 2.8196 0
M  V30 4307 H 416.317 -0.40631 0.533998 0
M  V30 4308 H 418.861 -0.667367 1.93304 0
M  V30 4309 H 417.016 -3.12489 2.28975 0
M  V30 4310 H 417.43 -2.74342 4.47031 0
M  V30 4311 H 418.904 -4.20278 3.57869 0
M  V30 4312 H 419.381 -3.95978 1.89995 0
M  V30 4313 H 419.987 -2.85336 3.15378 0
M  V30 4314 N 418.302 -1.35869 -0.798587 0
M  V30 4315 C 419.548 -1.2978 -1.55836 0
M  V30 4316 C 419.881 0.125322 -1.93795 0
M  V30 4317 O 419.156 1.07658 -1.61987 0
M  V30 4318 C 419.439 -2.21188 -2.84162 0
M  V30 4319 C 419.292 -3.72155 -2.52628 0
M  V30 4320 C 420.611 -2.11545 -3.85923 0
M  V30 4321 H 417.73 -0.472769 -0.565383 0
M  V30 4322 H 420.372 -1.66341 -0.918192 0
M  V30 4323 H 418.522 -1.90139 -3.38791 0
M  V30 4324 H 420.194 -4.13682 -2.04121 0
M  V30 4325 H 418.437 -3.92042 -1.85704 0
M  V30 4326 H 419.108 -4.31511 -3.44242 0
M  V30 4327 H 421.584 -2.38855 -3.40716 0
M  V30 4328 H 420.46 -2.77688 -4.73477 0
M  V30 4329 H 420.721 -1.09987 -4.282 0
M  V30 4330 N 419.78 1.02168 -1.19998 0
M  V30 4331 C 420.71 2.12488 -0.96804 0
M  V30 4332 C 421.691 1.69799 0.101185 0
M  V30 4333 O 422.876 1.94121 -0.0552993 0
M  V30 4334 C 420.006 3.43479 -0.513776 0
M  V30 4335 C 418.96 3.99884 -1.52566 0
M  V30 4336 C 418.286 5.26582 -0.928214 0
M  V30 4337 C 419.586 4.33861 -2.90795 0
M  V30 4338 H 421.28 2.32149 -1.89069 0
M  V30 4339 H 418.826 1.11564 -0.910468 0
M  V30 4340 H 420.779 4.20036 -0.338774 0
M  V30 4341 H 419.503 3.23561 0.444493 0
M  V30 4342 H 418.162 3.25429 -1.68794 0
M  V30 4343 H 417.81 5.02986 0.0378289 0
M  V30 4344 H 417.51 5.65284 -1.60397 0
M  V30 4345 H 419.034 6.05799 -0.764167 0
M  V30 4346 H 420.448 5.01327 -2.78109 0
M  V30 4347 H 418.845 4.83664 -3.55231 0
M  V30 4348 H 419.915 3.42848 -3.42904 0
M  V30 4349 N 421.258 1.00505 1.21394 0
M  V30 4350 C 422.535 0.603277 1.86064 0
M  V30 4351 C 422.915 -0.919095 1.90042 0
M  V30 4352 O 422.263 -1.80607 1.39977 0
M  V30 4353 C 422.473 1.23772 3.26315 0
M  V30 4354 C 423.821 1.34586 4.02705 0
M  V30 4355 O 424.845 1.19304 3.35626 0
M  V30 4356 O 423.704 1.59169 5.22807 0
M  V30 4357 H 420.798 0.206634 0.800769 0
M  V30 4358 H 423.344 1.1017 1.29076 0
M  V30 4359 H 422.116 2.27848 3.18121 0
M  V30 4360 H 421.739 0.725648 3.90922 0
M  V30 4361 N 422.737 -1.36956 0.779787 0
M  V30 4362 C 423.67 -2.27896 0.117681 0
M  V30 4363 C 424.648 -1.46736 -0.700523 0
M  V30 4364 O 425.832 -1.76055 -0.673568 0
M  V30 4365 C 422.959 -3.28136 -0.839296 0
M  V30 4366 C 422.005 -4.26373 -0.10409 0
M  V30 4367 S 422.838 -5.2157 1.21348 0
M  V30 4368 C 423.994 -6.25359 0.260249 0
M  V30 4369 H 424.227 -2.83704 0.888778 0
M  V30 4370 H 421.76 -1.43352 0.57355 0
M  V30 4371 H 423.718 -3.86394 -1.38601 0
M  V30 4372 H 422.379 -2.7126 -1.58356 0
M  V30 4373 H 421.572 -4.97121 -0.82986 0
M  V30 4374 H 421.174 -3.72147 0.371858 0
M  V30 4375 H 423.466 -6.75145 -0.564435 0
M  V30 4376 H 424.409 -7.01885 0.936135 0
M  V30 4377 H 424.817 -5.64345 -0.132127 0
M  V30 4378 N 424.215 -0.530993 -1.48385 0
M  V30 4379 C 425.631 -0.188919 -1.58478 0
M  V30 4380 C 425.831 1.30786 -1.53288 0
M  V30 4381 O 424.887 2.08619 -1.42248 0
M  V30 4382 C 426.2 -0.792343 -2.90073 0
M  V30 4383 C 427.748 -0.76117 -3.03604 0
M  V30 4384 C 428.223 -1.34319 -4.37861 0
M  V30 4385 N 429.714 -1.3052 -4.44431 0
M  V30 4386 C 430.449 -1.72543 -5.46824 0
M  V30 4387 N 429.945 -2.22299 -6.56167 0
M  V30 4388 N 431.738 -1.63773 -5.37712 0
M  V30 4389 H 423.889 -1.50377 -1.50002 0
M  V30 4390 H 426.152 -0.625559 -0.712306 0
M  V30 4391 H 425.858 -1.84323 -2.99529 0
M  V30 4392 H 425.732 -0.270026 -3.76232 0
M  V30 4393 H 428.119 0.280957 -2.93759 0
M  V30 4394 H 428.2 -1.32097 -2.19053 0
M  V30 4395 H 427.844 -2.38425 -4.4846 0
M  V30 4396 H 427.774 -0.759064 -5.21101 0
M  V30 4397 H 430.265 -0.940973 -3.65997 0
M  V30 4398 H 430.578 -2.52356 -7.30436 0
M  V30 4399 H 428.923 -2.26293 -6.57127 0
M  V30 4400 H 432.114 -1.24698 -4.51185 0
M  V30 4401 H 432.287 -1.96844 -6.17379 0
M  V30 4402 N 425.693 1.55336 -0.266172 0
M  V30 4403 C 426.97 1.91372 0.404486 0
M  V30 4404 C 427.35 1.18935 1.74407 0
M  V30 4405 O 426.698 0.3132 2.26343 0
M  V30 4406 C 426.908 3.44581 0.553593 0
M  V30 4407 C 428.256 4.16196 0.840618 0
M  V30 4408 O 429.28 3.50426 0.638739 0
M  V30 4409 O 428.139 5.32567 1.22618 0
M  V30 4410 H 425.233 0.797194 0.220025 0
M  V30 4411 H 427.779 1.66813 -0.311664 0
M  V30 4412 H 426.551 3.89357 -0.389498 0
M  V30 4413 H 426.174 3.75065 1.31955 0
M  V30 4414 N 427.171 -0.0066808 1.57599 0
M  V30 4415 C 428.42 -0.692078 1.89455 0
M  V30 4416 C 428.733 -1.75306 0.867586 0
M  V30 4417 O 429.939 -2.49262 1.07614 0
M  V30 4418 C 428.395 -1.2821 3.36289 0
M  V30 4419 C 428.003 -0.256291 4.47266 0
M  V30 4420 C 429.747 -1.94608 3.77264 0
M  V30 4421 C 427.654 -0.855927 5.85173 0
M  V30 4422 H 426.584 -0.262252 0.706923 0
M  V30 4423 H 429.235 0.052769 1.83424 0
M  V30 4424 H 427.617 -2.0774 3.37135 0
M  V30 4425 H 428.791 0.513923 4.57925 0
M  V30 4426 H 427.106 0.306862 4.15268 0
M  V30 4427 H 429.703 -2.40364 4.77629 0
M  V30 4428 H 430.046 -2.77382 3.10427 0
M  V30 4429 H 430.579 -1.21822 3.78688 0
M  V30 4430 H 427.318 -0.0671161 6.55466 0
M  V30 4431 H 426.838 -1.59546 5.78191 0
M  V30 4432 H 428.517 -1.35658 6.32618 0
M  V30 4433 N 428.649 -1.55105 -0.279332 0
M  V30 4434 C 429.579 -1.90557 -1.34945 0
M  V30 4435 C 430.56 -0.766738 -1.51839 0
M  V30 4436 O 431.745 -1.02434 -1.64988 0
M  V30 4437 C 428.875 -2.17193 -2.71006 0
M  V30 4438 C 427.829 -3.33021 -2.68851 0
M  V30 4439 C 427.155 -3.45123 -4.08405 0
M  V30 4440 C 428.455 -4.69578 -2.28678 0
M  V30 4441 H 430.149 -2.80188 -1.05522 0
M  V30 4442 H 427.695 -1.34811 -0.506173 0
M  V30 4443 H 429.648 -2.40581 -3.45975 0
M  V30 4444 H 428.372 -1.24355 -3.01999 0
M  V30 4445 H 427.031 -3.0959 -1.9634 0
M  V30 4446 H 426.679 -2.49762 -4.3661 0
M  V30 4447 H 426.379 -4.22995 -4.07859 0
M  V30 4448 H 427.903 -3.70796 -4.85121 0
M  V30 4449 H 429.317 -4.92553 -2.93368 0
M  V30 4450 H 427.714 -5.5032 -2.39306 0
M  V30 4451 H 428.784 -4.68828 -1.23807 0
M  V30 4452 N 430.127 0.543554 -1.4793 0
M  V30 4453 C 431.09 1.63156 -1.60975 0
M  V30 4454 C 432.09 1.53346 -0.483899 0
M  V30 4455 O 433.28 1.5726 -0.749339 0
M  V30 4456 C 430.412 3.02743 -1.56716 0
M  V30 4457 H 431.605 1.52934 -2.57975 0
M  V30 4458 H 429.158 0.764557 -1.36324 0
M  V30 4459 H 429.893 3.18484 -0.611418 0
M  V30 4460 H 429.678 3.11272 -2.38438 0
M  V30 4461 H 431.168 3.81871 -1.6901 0
M  V30 4462 N 431.605 1.3629 0.791371 0
M  V30 4463 C 432.83 1.33726 1.58531 0
M  V30 4464 C 433.255 -0.0794933 1.87932 0
M  V30 4465 O 432.613 -1.05087 1.47738 0
M  V30 4466 C 432.661 2.16425 2.88431 0
M  V30 4467 O 431.765 1.5554 3.81944 0
M  V30 4468 H 431.106 0.457793 0.480959 0
M  V30 4469 H 433.636 1.79547 0.981031 0
M  V30 4470 H 433.646 2.28933 3.37718 0
M  V30 4471 H 432.321 3.19415 2.66359 0
M  V30 4472 H 430.898 1.51961 3.40532 0
M  V30 4473 N 433.083 -1.0153 1.20538 0
M  V30 4474 C 434.36 -1.72327 0.925343 0
M  V30 4475 C 434.74 -2.03383 -0.565547 0
M  V30 4476 O 434.088 -1.69934 -1.52757 0
M  V30 4477 C 434.298 -2.9902 1.79967 0
M  V30 4478 C 435.646 -3.72258 2.04228 0
M  V30 4479 O 436.67 -3.08979 1.77231 0
M  V30 4480 O 435.529 -4.86053 2.4983 0
M  V30 4481 H 432.623 -0.751099 0.346092 0
M  V30 4482 H 435.169 -1.07366 1.31417 0
M  V30 4483 H 433.941 -2.72402 2.80915 0
M  V30 4484 H 433.564 -3.71721 1.41099 0
M  V30 4485 N 434.561 -1.01147 -1.20859 0
M  V30 4486 C 435.524 -0.582224 -2.21682 0
M  V30 4487 C 436.524 0.344887 -1.57058 0
M  V30 4488 O 437.714 0.134281 -1.73682 0
M  V30 4489 C 434.846 0.150496 -3.40568 0
M  V30 4490 H 436.039 -1.47408 -2.61172 0
M  V30 4491 H 433.592 -0.800695 -1.34233 0
M  V30 4492 H 434.327 1.0575 -3.06574 0
M  V30 4493 H 434.112 -0.515444 -3.88697 0
M  V30 4494 H 435.602 0.438344 -4.15293 0
M  V30 4495 N 436.039 1.36541 -0.78704 0
M  V30 4496 C 437.285 1.99599 -0.358872 0
M  V30 4497 C 437.618 1.62323 1.06606 0
M  V30 4498 O 436.893 0.876858 1.73613 0
M  V30 4499 C 437.176 3.56327 -0.519944 0
M  V30 4500 C 437.029 4.03464 -1.98839 0
M  V30 4501 C 438.348 4.4005 0.0664737 0
M  V30 4502 H 435.467 0.725107 -0.131869 0
M  V30 4503 H 438.109 1.6199 -0.992936 0
M  V30 4504 H 436.259 3.88495 0.0198321 0
M  V30 4505 H 437.931 3.81793 -2.58905 0
M  V30 4506 H 436.174 3.55092 -2.49183 0
M  V30 4507 H 436.845 5.12439 -2.05207 0
M  V30 4508 H 439.321 4.14228 -0.394267 0
M  V30 4509 H 438.197 5.48847 -0.0762682 0
M  V30 4510 H 438.458 4.26655 1.15835 0
M  V30 4511 N 437.518 0.538854 1.48102 0
M  V30 4512 C 438.481 -0.208395 2.28251 0
M  V30 4513 C 439.481 -0.859656 1.35892 0
M  V30 4514 O 440.671 -0.71834 1.58699 0
M  V30 4515 C 437.803 -1.30252 3.15035 0
M  V30 4516 H 438.996 0.495407 2.9578 0
M  V30 4517 H 436.549 0.295112 1.53489 0
M  V30 4518 H 437.284 -2.0393 2.52157 0
M  V30 4519 H 437.069 -0.840551 3.82985 0
M  V30 4520 H 438.559 -1.82787 3.75471 0
M  V30 4521 N 438.996 -1.55193 0.274407 0
M  V30 4522 C 440.242 -1.99877 -0.343086 0
M  V30 4523 C 440.575 -1.16256 -1.55558 0
M  V30 4524 O 439.85 -0.232462 -1.93106 0
M  V30 4525 C 440.133 -3.52706 -0.725965 0
M  V30 4526 C 439.986 -4.47081 0.493818 0
M  V30 4527 C 441.305 -4.11422 -1.56268 0
M  V30 4528 H 438.424 -0.726625 -0.123229 0
M  V30 4529 H 441.066 -1.86136 0.38121 0
M  V30 4530 H 439.216 -3.64546 -1.34307 0
M  V30 4531 H 440.888 -4.47186 1.13237 0
M  V30 4532 H 439.131 -4.1877 1.13201 0
M  V30 4533 H 439.802 -5.51699 0.18217 0
M  V30 4534 H 442.278 -4.02855 -1.04151 0
M  V30 4535 H 441.154 -5.18568 -1.79939 0
M  V30 4536 H 441.415 -3.61607 -2.54348 0
M  V30 4537 N 440.474 -0.00167713 -1.576 0
M  V30 4538 C 441.702 0.693759 -1.94922 0
M  V30 4539 C 442.117 1.67215 -0.876626 0
M  V30 4540 O 441.474 1.81929 0.144279 0
M  V30 4541 C 441.525 1.42416 -3.32265 0
M  V30 4542 O 441.246 0.485014 -4.35407 0
M  V30 4543 C 442.747 2.21395 -3.84056 0
M  V30 4544 H 439.967 0.193118 -0.642609 0
M  V30 4545 H 442.511 -0.0532952 -2.04431 0
M  V30 4546 H 440.666 2.12284 -3.24059 0
M  V30 4547 H 441.08 1.00053 -5.14868 0
M  V30 4548 H 442.554 2.67996 -4.82578 0
M  V30 4549 H 443.031 3.04142 -3.16851 0
M  V30 4550 H 443.637 1.56542 -3.95443 0
M  V30 4551 N 441.952 1.55251 0.271103 0
M  V30 4552 C 443.199 1.75946 1.00245 0
M  V30 4553 C 443.527 0.561611 1.86215 0
M  V30 4554 O 442.782 -0.455832 1.90317 0
M  V30 4555 C 443.081 3.01879 1.91321 0
M  V30 4556 C 442.747 4.34337 1.21086 0
M  V30 4557 C 441.409 4.70338 1.01666 0
M  V30 4558 C 443.761 5.16325 0.71119 0
M  V30 4559 C 441.089 5.8588 0.310099 0
M  V30 4560 C 443.441 6.32597 0.0182157 0
M  V30 4561 C 442.105 6.67236 -0.18768 0
M  V30 4562 H 441.375 0.643833 0.366824 0
M  V30 4563 H 444.022 1.89521 0.27458 0
M  V30 4564 H 442.327 2.83212 2.70736 0
M  V30 4565 H 444.024 3.15088 2.48033 0
M  V30 4566 H 440.614 4.06043 1.37213 0
M  V30 4567 H 444.798 4.88987 0.848844 0
M  V30 4568 H 440.054 6.1124 0.139873 0
M  V30 4569 H 444.228 6.9538 -0.376711 0
M  V30 4570 H 441.855 7.56618 -0.73715 0
M  V30 4571 N 443.43 -0.535701 1.48216 0
M  V30 4572 C 444.393 -1.623 1.61838 0
M  V30 4573 C 445.393 -1.53087 0.492024 0
M  V30 4574 O 446.583 -1.5686 0.757668 0
M  V30 4575 C 443.715 -3.01907 1.58319 0
M  V30 4576 H 444.908 -1.51564 2.58783 0
M  V30 4577 H 442.461 -0.757317 1.36727 0
M  V30 4578 H 443.196 -3.18155 0.628299 0
M  V30 4579 H 442.981 -3.10003 2.40085 0
M  V30 4580 H 444.471 -3.80969 1.71033 0
M  V30 4581 N 444.908 -1.36708 -0.784132 0
M  V30 4582 C 446.185 -1.21776 -1.53069 0
M  V30 4583 C 446.565 0.193876 -2.10208 0
M  V30 4584 O 445.913 1.20012 -1.94446 0
M  V30 4585 C 446.123 -2.30395 -2.62143 0
M  V30 4586 C 447.471 -2.67325 -3.29882 0
M  V30 4587 O 448.495 -2.29478 -2.7243 0
M  V30 4588 O 447.354 -3.32485 -4.33724 0
M  V30 4589 H 444.448 -0.474459 -0.677361 0
M  V30 4590 H 446.994 -1.48454 -0.82216 0
M  V30 4591 H 445.766 -3.2498 -2.17953 0
M  V30 4592 H 445.389 -2.05112 -3.40609 0
M  V30 4593 N 446.386 1.0089 -1.21074 0
M  V30 4594 C 447.318 2.09737 -0.924291 0
M  V30 4595 C 448.331 1.62546 0.0909809 0
M  V30 4596 O 449.52 1.77942 -0.141021 0
M  V30 4597 C 446.62 3.36922 -0.36559 0
M  V30 4598 C 445.793 4.13216 -1.43426 0
M  V30 4599 C 444.852 5.18696 -0.885496 0
M  V30 4600 O 443.878 5.47176 -1.56801 0
M  V30 4601 N 445.08 5.79718 0.301227 0
M  V30 4602 H 447.845 2.34895 -1.8613 0
M  V30 4603 H 445.406 1.17341 -1.11546 0
M  V30 4604 H 447.398 4.04697 0.0158407 0
M  V30 4605 H 445.968 3.08952 0.476149 0
M  V30 4606 H 445.188 3.40301 -1.9897 0
M  V30 4607 H 446.476 4.60967 -2.15376 0
M  V30 4608 H 445.874 5.58926 0.872849 0
M  V30 4609 H 444.431 6.48804 0.624211 0
M  V30 4610 N 447.864 1.01787 1.20321 0
M  V30 4611 C 449.113 0.703249 1.89043 0
M  V30 4612 C 449.426 -0.770445 1.79787 0
M  V30 4613 O 450.632 -1.19767 2.43656 0
M  V30 4614 C 449.088 1.20749 3.3904 0
M  V30 4615 C 448.696 2.70817 3.56878 0
M  V30 4616 C 450.44 0.968352 4.13308 0
M  V30 4617 C 448.347 3.14716 5.00708 0
M  V30 4618 H 447.277 0.259354 0.707991 0
M  V30 4619 H 449.928 1.23072 1.36108 0
M  V30 4620 H 448.31 0.607989 3.91305 0
M  V30 4621 H 449.484 3.36327 3.14993 0
M  V30 4622 H 447.799 2.92888 2.95983 0
M  V30 4623 H 450.396 1.27173 5.19356 0
M  V30 4624 H 450.739 -0.095149 4.16191 0
M  V30 4625 H 451.272 1.53129 3.67146 0
M  V30 4626 H 448.011 4.20347 5.02979 0
M  V30 4627 H 447.531 2.53927 5.43398 0
M  V30 4628 H 449.21 3.07426 5.69296 0
M  V30 4629 N 449.342 -1.36122 0.79427 0
M  V30 4630 C 450.589 -1.99111 0.368905 0
M  V30 4631 C 450.917 -1.63032 -1.0607 0
M  V30 4632 O 450.172 -0.879303 -1.74833 0
M  V30 4633 C 450.471 -3.5409 0.48527 0
M  V30 4634 C 450.137 -4.10003 1.87638 0
M  V30 4635 C 448.799 -4.24986 2.257 0
M  V30 4636 C 451.151 -4.40423 2.78706 0
M  V30 4637 C 448.479 -4.67701 3.54221 0
M  V30 4638 C 450.831 -4.84573 4.0666 0
M  V30 4639 C 449.495 -4.97761 4.44737 0
M  V30 4640 H 448.765 -0.7286 0.134992 0
M  V30 4641 H 451.412 -1.62534 1.01267 0
M  V30 4642 H 449.717 -3.91052 -0.241984 0
M  V30 4643 H 451.414 -4.00766 0.137109 0
M  V30 4644 H 448.004 -3.98784 1.57064 0
M  V30 4645 H 452.188 -4.28412 2.50553 0
M  V30 4646 H 447.444 -4.761 3.83587 0
M  V30 4647 H 451.618 -5.07074 4.77336 0
M  V30 4648 H 449.245 -5.30618 5.44379 0
M  V30 4649 N 450.82 -0.546701 -1.47814 0
M  V30 4650 C 452.068 -0.0187037 -2.02091 0
M  V30 4651 C 452.389 1.33168 -1.42447 0
M  V30 4652 O 451.659 1.86619 -0.595839 0
M  V30 4653 H 450.239 -0.00392531 -0.74699 0
M  V30 4654 H 452.901 -0.714327 -1.81338 0
M  V30 4655 H 451.997 0.0772219 -3.12004 0
M  V30 4656 N 452.299 1.55045 -0.282633 0
M  V30 4657 C 453.548 1.98938 0.332667 0
M  V30 4658 C 453.861 1.17455 1.56409 0
M  V30 4659 O 455.067 1.51527 2.25282 0
M  V30 4660 C 453.523 3.54105 0.643226 0
M  V30 4661 C 453.131 4.44374 -0.568814 0
M  V30 4662 C 454.875 4.06569 1.22074 0
M  V30 4663 C 452.782 5.90943 -0.232426 0
M  V30 4664 H 451.712 0.743043 0.128075 0
M  V30 4665 H 454.363 1.79341 -0.388464 0
M  V30 4666 H 452.745 3.69532 1.42346 0
M  V30 4667 H 453.919 4.40718 -1.34551 0
M  V30 4668 H 452.234 4.02585 -1.06369 0
M  V30 4669 H 454.831 5.13626 1.48635 0
M  V30 4670 H 455.174 3.56057 2.15707 0
M  V30 4671 H 455.707 3.94612 0.502621 0
M  V30 4672 H 452.446 6.45567 -1.13683 0
M  V30 4673 H 451.966 5.9765 0.507357 0
M  V30 4674 H 453.645 6.4677 0.172657 0
M  V30 4675 N 453.777 0.010035 1.57597 0
M  V30 4676 C 455.024 -0.6727 1.91 0
M  V30 4677 C 455.352 -1.73219 0.884614 0
M  V30 4678 O 454.607 -1.95395 -0.109215 0
M  V30 4679 C 454.906 -1.34434 3.31153 0
M  V30 4680 C 454.572 -0.417083 4.48967 0
M  V30 4681 C 453.234 -0.161809 4.80928 0
M  V30 4682 C 455.586 0.220753 5.20732 0
M  V30 4683 C 452.914 0.739426 5.82022 0
M  V30 4684 C 455.266 1.10993 6.22787 0
M  V30 4685 C 453.93 1.37428 6.532 0
M  V30 4686 H 453.2 -0.246158 0.698918 0
M  V30 4687 H 455.847 0.0677145 1.9138 0
M  V30 4688 H 454.152 -2.15905 3.26944 0
M  V30 4689 H 455.849 -1.87883 3.54261 0
M  V30 4690 H 452.439 -0.626217 4.24001 0
M  V30 4691 H 456.623 0.0365643 4.96287 0
M  V30 4692 H 451.879 0.952139 6.03941 0
M  V30 4693 H 456.053 1.61046 6.77523 0
M  V30 4694 H 453.68 2.0743 7.31353 0
M  V30 4695 N 455.255 -1.55392 -0.262866 0
M  V30 4696 C 456.203 -1.8977 -1.345 0
M  V30 4697 C 457.197 -0.775063 -1.50629 0
M  V30 4698 O 458.403 -0.959519 -1.52293 0
M  V30 4699 H 454.778 -0.602467 -0.450041 0
M  V30 4700 H 456.749 -2.80147 -1.02762 0
M  V30 4701 C 455.498 -2.19501 -2.69657 0
M  V30 4702 H 454.821 -3.05378 -2.5804 0
M  V30 4703 H 456.261 -2.47469 -3.44289 0
M  V30 4704 C 454.72 -1.00597 -3.21531 0
M  V30 4705 O 455.25 -0.245768 -4.00947 0
M  V30 4706 N 453.456 -0.800911 -2.79345 0
M  V30 4707 H 453.003 -1.42079 -2.14875 0
M  V30 4708 H 452.961 -0.00697996 -3.14399 0
M  V30 4709 N 456.733 0.527833 -1.48498 0
M  V30 4710 C 457.979 1.28295 -1.57836 0
M  V30 4711 C 458.334 1.9077 -0.249943 0
M  V30 4712 O 457.627 1.76421 0.747402 0
M  V30 4713 C 457.821 2.39275 -2.65485 0
M  V30 4714 C 457.65 1.87679 -4.08664 0
M  V30 4715 C 456.42 1.70187 -4.75778 0
M  V30 4716 C 458.618 1.40409 -4.94762 0
M  V30 4717 N 456.6 1.13238 -6.03366 0
M  V30 4718 C 457.971 0.954216 -6.12613 0
M  V30 4719 C 460.026 1.28732 -4.8097 0
M  V30 4720 C 458.729 0.39915 -7.18192 0
M  V30 4721 C 460.755 0.746244 -5.86673 0
M  V30 4722 C 460.117 0.306457 -7.03733 0
M  V30 4723 H 456.216 0.460408 -0.632099 0
M  V30 4724 H 458.8 0.594913 -1.85388 0
M  V30 4725 H 456.971 3.05572 -2.3975 0
M  V30 4726 H 458.703 3.06308 -2.64495 0
M  V30 4727 H 455.458 1.93772 -4.32145 0
M  V30 4728 H 455.882 0.867687 -6.71417 0
M  V30 4729 H 460.524 1.61338 -3.90807 0
M  V30 4730 H 458.242 0.0607678 -8.08077 0
M  V30 4731 H 461.828 0.659041 -5.78055 0
M  V30 4732 H 460.708 -0.105708 -7.84129 0
M  V30 4733 N 458.211 1.37122 0.776871 0
M  V30 4734 C 459.46 1.31373 1.53049 0
M  V30 4735 C 459.773 -0.101016 1.95339 0
M  V30 4736 O 460.979 -0.280953 2.70042 0
M  V30 4737 C 459.435 2.30567 2.76346 0
M  V30 4738 C 459.043 3.77543 2.41175 0
M  V30 4739 C 460.787 2.33818 3.54301 0
M  V30 4740 C 458.694 4.68481 3.60943 0
M  V30 4741 H 457.624 0.488234 0.574581 0
M  V30 4742 H 460.275 1.62554 0.851372 0
M  V30 4743 H 458.657 1.92396 3.46121 0
M  V30 4744 H 459.831 4.24521 1.79216 0
M  V30 4745 H 458.146 3.77187 1.76405 0
M  V30 4746 H 460.743 2.98965 4.4331 0
M  V30 4747 H 461.086 1.3503 3.93793 0
M  V30 4748 H 461.619 2.7067 2.91518 0
M  V30 4749 H 458.358 5.68378 3.26537 0
M  V30 4750 H 457.878 4.2621 4.22025 0
M  V30 4751 H 459.557 4.85366 4.27819 0
M  V30 4752 N 459.689 -1.00246 1.21608 0
M  V30 4753 C 460.938 -1.73476 1.02902 0
M  V30 4754 C 461.251 -1.90643 -0.437561 0
M  V30 4755 O 462.457 -2.61105 -0.74407 0
M  V30 4756 C 460.913 -3.12079 1.79261 0
M  V30 4757 C 460.521 -3.02877 3.30106 0
M  V30 4758 C 462.265 -3.89421 1.68972 0
M  V30 4759 C 460.172 -4.36575 3.98944 0
M  V30 4760 H 459.102 -0.650408 0.381425 0
M  V30 4761 H 461.753 -1.11985 1.45367 0
M  V30 4762 H 460.135 -3.74196 1.2959 0
M  V30 4763 H 461.309 -2.49983 3.87098 0
M  V30 4764 H 459.624 -2.39022 3.40965 0
M  V30 4765 H 462.221 -4.88362 2.17731 0
M  V30 4766 H 462.564 -4.1122 0.648397 0
M  V30 4767 H 463.097 -3.33963 2.16133 0
M  V30 4768 H 459.836 -4.19978 5.03288 0
M  V30 4769 H 459.356 -4.8942 3.4674 0
M  V30 4770 H 461.035 -5.05364 4.04 0
M  V30 4771 N 461.167 -1.02423 -1.1978 0
M  V30 4772 C 462.578 -0.748389 -1.71044 0
M  V30 4773 C 462.929 0.732398 -1.82017 0
M  V30 4774 O 462.054 1.57116 -1.48807 0
M  V30 4775 C 462.649 -1.35187 -3.1066 0
M  V30 4776 C 461.208 -1.12472 -3.59203 0
M  V30 4777 C 460.355 -1.45283 -2.36195 0
M  V30 4778 H 463.306 -1.19275 -1.04686 0
M  V30 4779 H 463.327 -0.746408 -3.73107 0
M  V30 4780 H 462.839 -2.4296 -3.02642 0
M  V30 4781 H 460.94 -0.0649983 -3.72543 0
M  V30 4782 H 461.053 -1.81016 -4.43588 0
M  V30 4783 H 459.417 -0.872034 -2.39307 0
M  V30 4784 H 460.2 -2.54129 -2.30811 0
M  V30 4785 N 462.645 1.35699 -0.801477 0
M  V30 4786 C 463.575 2.32436 -0.222658 0
M  V30 4787 C 464.556 1.5723 0.649057 0
M  V30 4788 O 465.741 1.85324 0.580387 0
M  V30 4789 C 462.871 3.41469 0.633719 0
M  V30 4790 C 461.825 4.27774 -0.139083 0
M  V30 4791 C 461.151 5.28082 0.838666 0
M  V30 4792 C 462.451 5.04946 -1.33517 0
M  V30 4793 H 464.145 2.81094 -1.03086 0
M  V30 4794 H 461.691 1.35146 -0.497155 0
M  V30 4795 H 463.644 4.08143 1.04868 0
M  V30 4796 H 462.368 2.91408 1.47475 0
M  V30 4797 H 461.027 3.62673 -0.535156 0
M  V30 4798 H 460.675 4.7429 1.67506 0
M  V30 4799 H 460.375 5.86695 0.32594 0
M  V30 4800 H 461.899 5.97628 1.25194 0
M  V30 4801 H 463.313 5.64593 -0.995349 0
M  V30 4802 H 461.71 5.7303 -1.78202 0
M  V30 4803 H 462.78 4.35886 -2.12442 0
M  V30 4804 N 464.123 0.554532 1.47522 0
M  V30 4805 C 465.348 0.0322661 2.07375 0
M  V30 4806 C 465.773 -1.25079 1.40488 0
M  V30 4807 O 465.131 -1.74859 0.47896 0
M  V30 4808 C 465.179 -0.149397 3.6029 0
M  V30 4809 O 464.283 -1.21259 3.9417 0
M  V30 4810 H 463.624 0.0501228 0.662106 0
M  V30 4811 H 466.154 0.769452 1.8958 0
M  V30 4812 H 466.164 -0.364437 4.06369 0
M  V30 4813 H 464.839 0.787743 4.08372 0
M  V30 4814 H 463.416 -0.97825 3.5984 0
M  V30 4815 N 465.601 -1.54893 0.290851 0
M  V30 4816 C 466.847 -2.0023 -0.321867 0
M  V30 4817 C 467.18 -1.179 -1.54316 0
M  V30 4818 O 466.455 -0.25293 -1.92848 0
M  V30 4819 C 466.738 -3.53456 -0.688515 0
M  V30 4820 C 466.591 -4.46532 0.541209 0
M  V30 4821 C 467.91 -4.13057 -1.51895 0
M  V30 4822 H 465.029 -0.727891 -0.115515 0
M  V30 4823 H 467.671 -1.85722 0.400931 0
M  V30 4824 H 465.821 -3.6595 -1.30433 0
M  V30 4825 H 467.493 -4.4596 1.17973 0
M  V30 4826 H 465.736 -4.17545 1.17636 0
M  V30 4827 H 466.407 -5.51475 0.240675 0
M  V30 4828 H 468.883 -4.03937 -0.99872 0
M  V30 4829 H 467.759 -5.20448 -1.74429 0
M  V30 4830 H 468.02 -3.64284 -2.50498 0
M  V30 4831 N 467.08 -0.0183926 -1.57589 0
M  V30 4832 C 468.043 0.951986 -2.08494 0
M  V30 4833 C 469.043 1.26092 -0.997874 0
M  V30 4834 O 470.233 1.20304 -1.25987 0
M  V30 4835 C 467.365 2.27165 -2.54182 0
M  V30 4836 H 468.558 0.511307 -2.95509 0
M  V30 4837 H 466.111 0.229444 -1.54607 0
M  V30 4838 H 466.846 2.75884 -1.70465 0
M  V30 4839 H 466.631 2.06057 -3.33591 0
M  V30 4840 H 468.121 2.9674 -2.93828 0
M  V30 4841 N 468.558 1.5553 0.254621 0
M  V30 4842 C 469.488 1.9268 1.31897 0
M  V30 4843 C 470.469 0.790797 1.506 0
M  V30 4844 O 471.654 1.05045 1.63337 0
M  V30 4845 C 468.784 2.21477 2.67517 0
M  V30 4846 C 467.738 3.37256 2.63519 0
M  V30 4847 C 467.064 3.51576 4.02862 0
M  V30 4848 C 468.364 4.73157 2.21179 0
M  V30 4849 H 470.058 2.81832 1.01051 0
M  V30 4850 H 467.604 1.35599 0.484662 0
M  V30 4851 H 469.557 2.46055 3.42104 0
M  V30 4852 H 468.281 1.29144 2.99982 0
M  V30 4853 H 466.94 3.12675 1.9139 0
M  V30 4854 H 466.588 2.56676 4.32581 0
M  V30 4855 H 466.288 4.2943 4.01078 0
M  V30 4856 H 467.812 3.78467 4.79161 0
M  V30 4857 H 469.226 4.97158 2.85494 0
M  V30 4858 H 467.623 5.54058 2.30521 0
M  V30 4859 H 468.693 4.70739 1.16332 0
M  V30 4860 N 470.036 -0.519951 1.48776 0
M  V30 4861 C 471.261 -1.30447 1.6124 0
M  V30 4862 C 471.686 -1.86055 0.276591 0
M  V30 4863 O 471.044 -1.64915 -0.753183 0
M  V30 4864 C 471.092 -2.42406 2.66967 0
M  V30 4865 O 470.196 -3.45728 2.24824 0
M  V30 4866 H 469.537 -0.385924 0.540332 0
M  V30 4867 H 472.067 -0.624572 1.94834 0
M  V30 4868 H 472.077 -2.88447 2.88552 0
M  V30 4869 H 470.752 -2.01294 3.63941 0
M  V30 4870 H 469.329 -3.05737 2.13494 0
M  V30 4871 N 471.514 -1.37532 -0.769588 0
M  V30 4872 C 472.754 -1.34261 -1.54122 0
M  V30 4873 C 473.118 0.0717222 -1.91866 0
M  V30 4874 O 474.319 0.22918 -2.67821 0
M  V30 4875 C 472.59 -2.2574 -2.77086 0
M  V30 4876 S 474.149 -2.40339 -3.67127 0
M  V30 4877 H 470.967 -0.476595 -0.527615 0
M  V30 4878 H 473.569 -1.73303 -0.90479 0
M  V30 4879 H 472.273 -3.27417 -2.4744 0
M  V30 4880 H 471.804 -1.87789 -3.45686 0
M  V30 4881 H 473.819 -1.61558 -4.69163 0
M  V30 4882 N 472.992 0.995999 -1.22138 0
M  V30 4883 C 474.239 1.7351 -1.04406 0
M  V30 4884 C 474.567 1.89884 0.421244 0
M  V30 4885 O 473.822 1.43683 1.32867 0
M  V30 4886 C 474.121 3.14553 -1.6968 0
M  V30 4887 C 473.787 3.18102 -3.19565 0
M  V30 4888 C 472.449 3.18778 -3.60464 0
M  V30 4889 C 474.801 3.14636 -4.15516 0
M  V30 4890 C 472.129 3.13684 -4.95801 0
M  V30 4891 C 474.481 3.11084 -5.50826 0
M  V30 4892 C 473.145 3.10074 -5.91109 0
M  V30 4893 H 472.415 0.634916 -0.38205 0
M  V30 4894 H 475.062 1.1667 -1.51857 0
M  V30 4895 H 473.367 3.74682 -1.14546 0
M  V30 4896 H 475.064 3.70477 -1.53454 0
M  V30 4897 H 471.654 3.18324 -2.86998 0
M  V30 4898 H 475.838 3.13266 -3.84939 0
M  V30 4899 H 471.094 3.11245 -5.26247 0
M  V30 4900 H 475.268 3.07357 -6.24904 0
M  V30 4901 H 472.895 3.05882 -6.95946 0
M  V30 4902 N 474.47 1.03057 1.19235 0
M  V30 4903 C 475.718 0.726581 1.88587 0
M  V30 4904 C 476.039 -0.747227 1.80115 0
M  V30 4905 O 475.309 -1.53849 1.21274 0
M  V30 4906 H 473.889 0.265768 0.698124 0
M  V30 4907 H 476.551 1.30516 1.44746 0
M  V30 4908 H 475.647 1.0224 2.94879 0
M  V30 4909 N 475.948 -1.35272 0.808662 0
M  V30 4910 C 477.196 -1.98316 0.389233 0
M  V30 4911 C 477.517 -1.64465 -1.04767 0
M  V30 4912 O 476.787 -0.928175 -1.72516 0
M  V30 4913 H 475.367 -0.733585 0.140935 0
M  V30 4914 H 478.029 -1.6515 1.03496 0
M  V30 4915 H 477.125 -3.08123 0.496631 0
M  V30 4916 N 477.426 -0.562348 -1.47226 0
M  V30 4917 C 478.356 0.170627 -2.32876 0
M  V30 4918 C 479.337 0.903748 -1.44106 0
M  V30 4919 O 480.522 0.883206 -1.72954 0
M  V30 4920 C 477.652 1.19786 -3.25989 0
M  V30 4921 C 476.606 0.580875 -4.2404 0
M  V30 4922 C 475.932 1.71311 -5.06514 0
M  V30 4923 C 477.232 -0.468714 -5.20193 0
M  V30 4924 H 478.926 -0.544441 -2.94408 0
M  V30 4925 H 476.472 -0.263271 -1.41573 0
M  V30 4926 H 478.425 1.71884 -3.84752 0
M  V30 4927 H 477.149 1.94294 -2.62521 0
M  V30 4928 H 475.808 0.0811538 -3.6651 0
M  V30 4929 H 475.456 2.44736 -4.39447 0
M  V30 4930 H 475.156 1.30604 -5.72902 0
M  V30 4931 H 476.68 2.23725 -5.68137 0
M  V30 4932 H 478.094 -0.0336028 -5.7329 0
M  V30 4933 H 476.491 -0.794957 -5.94811 0
M  V30 4934 H 477.561 -1.36269 -4.65359 0
M  V30 4935 N 478.904 1.54736 -0.299062 0
M  V30 4936 C 479.852 2.24897 0.593658 0
M  V30 4937 C 480.846 1.25429 1.13859 0
M  V30 4938 O 482.052 1.43286 1.08945 0
M  V30 4939 H 478.427 0.72207 0.210046 0
M  V30 4940 H 480.398 2.98393 -0.0206421 0
M  V30 4941 C 479.147 3.00159 1.75499 0
M  V30 4942 H 478.47 3.76501 1.34489 0
M  V30 4943 H 479.91 3.52535 2.35574 0
M  V30 4944 C 478.369 2.07015 2.65794 0
M  V30 4945 O 478.899 1.63692 3.66835 0
M  V30 4946 N 477.105 1.73012 2.33485 0
M  V30 4947 H 476.652 2.08439 1.51364 0
M  V30 4948 H 476.61 1.10965 2.94167 0
M  V30 4949 N 480.382 0.0267497 1.57577 0
M  V30 4950 C 481.345 -0.940916 2.08996 0
M  V30 4951 C 482.345 -1.25561 1.00455 0
M  V30 4952 O 483.535 -1.19634 1.26623 0
M  V30 4953 C 480.667 -2.25814 2.55384 0
M  V30 4954 H 481.86 -0.495628 2.95776 0
M  V30 4955 H 479.413 -0.221241 1.54726 0
M  V30 4956 H 480.148 -2.74976 1.71926 0
M  V30 4957 H 479.933 -2.04285 3.34679 0
M  V30 4958 H 481.423 -2.95178 2.95398 0
M  V30 4959 N 481.861 -1.55662 -0.24637 0
M  V30 4960 C 483.086 -1.81914 -0.996093 0
M  V30 4961 C 483.511 -0.603875 -1.78143 0
M  V30 4962 O 482.869 0.447091 -1.75701 0
M  V30 4963 C 482.917 -3.05908 -1.90925 0
M  V30 4964 O 482.021 -2.82861 -3.00105 0
M  V30 4965 H 481.362 -0.600481 -0.283406 0
M  V30 4966 H 483.892 -2.02848 -0.267199 0
M  V30 4967 H 483.902 -3.35356 -2.3238 0
M  V30 4968 H 482.577 -3.93999 -1.33183 0
M  V30 4969 H 481.154 -2.64583 -2.62775 0
M  V30 4970 N 483.339 0.512053 -1.4905 0
M  V30 4971 C 484.588 1.26343 -1.57227 0
M  V30 4972 C 484.901 1.93876 -0.259155 0
M  V30 4973 O 486.107 2.70612 -0.219358 0
M  V30 4974 C 484.563 2.29343 -2.77362 0
M  V30 4975 C 484.171 1.67799 -4.15388 0
M  V30 4976 C 485.915 3.05378 -2.94864 0
M  V30 4977 C 483.822 2.68845 -5.2676 0
M  V30 4978 H 482.752 0.475231 -0.585382 0
M  V30 4979 H 485.403 0.53862 -1.75417 0
M  V30 4980 H 483.785 3.04938 -2.52643 0
M  V30 4981 H 484.959 0.982715 -4.50199 0
M  V30 4982 H 483.274 1.04194 -4.03153 0
M  V30 4983 H 485.871 3.80921 -3.75238 0
M  V30 4984 H 486.214 3.62327 -2.05 0
M  V30 4985 H 486.747 2.36898 -3.19569 0
M  V30 4986 H 483.486 2.16692 -6.18647 0
M  V30 4987 H 483.006 3.36647 -4.96416 0
M  V30 4988 H 484.685 3.31487 -5.5563 0
M  V30 4989 N 484.817 1.37938 0.762283 0
M  V30 4990 C 486.063 1.33866 1.52341 0
M  V30 4991 C 486.396 -0.0738961 1.94059 0
M  V30 4992 O 485.671 -1.03326 1.64785 0
M  V30 4993 C 485.954 2.28644 2.78197 0
M  V30 4994 C 485.807 3.78722 2.42672 0
M  V30 4995 C 487.126 2.21702 3.80179 0
M  V30 4996 H 484.245 0.487593 0.55265 0
M  V30 4997 H 486.887 1.68717 0.873767 0
M  V30 4998 H 485.037 1.99055 3.33631 0
M  V30 4999 H 486.709 4.18948 1.93081 0
M  V30 5000 H 484.952 3.96827 1.75244 0
M  V30 5001 H 485.623 4.40486 3.3268 0
M  V30 5002 H 488.099 2.47805 3.34263 0
M  V30 5003 H 486.975 2.90143 4.65949 0
M  V30 5004 H 487.236 1.21301 4.25133 0
M  V30 5005 N 486.295 -0.989507 1.22664 0
M  V30 5006 C 487.258 -2.06183 1.00106 0
M  V30 5007 C 488.258 -1.60765 -0.0337726 0
M  V30 5008 O 489.448 -1.72989 0.205072 0
M  V30 5009 C 486.58 -3.37021 0.51279 0
M  V30 5010 H 487.773 -2.27629 1.95256 0
M  V30 5011 H 485.326 -1.16158 1.0458 0
M  V30 5012 H 486.061 -3.21261 -0.442917 0
M  V30 5013 H 485.846 -3.71323 1.25942 0
M  V30 5014 H 487.336 -4.1591 0.375315 0
M  V30 5015 N 487.773 -1.03688 -1.18687 0
M  V30 5016 C 488.736 -0.629115 -2.20397 0
M  V30 5017 C 489.736 0.311495 -1.57754 0
M  V30 5018 O 490.926 0.0974107 -1.73927 0
M  V30 5019 C 488.058 0.0782231 -3.4081 0
M  V30 5020 H 489.251 -1.52915 -2.57987 0
M  V30 5021 H 486.804 -0.828988 -1.32505 0
M  V30 5022 H 487.539 0.992233 -3.08748 0
M  V30 5023 H 487.324 -0.597776 -3.87517 0
M  V30 5024 H 488.814 0.350156 -4.16129 0
M  V30 5025 N 489.251 1.34841 -0.815825 0
M  V30 5026 C 490.476 2.03261 -0.41226 0
M  V30 5027 C 490.901 1.61055 0.971751 0
M  V30 5028 O 490.259 0.7917 1.63101 0
M  V30 5029 C 490.307 3.56914 -0.514289 0
M  V30 5030 O 489.411 4.09728 0.468675 0
M  V30 5031 H 488.752 0.641664 -0.170771 0
M  V30 5032 H 491.282 1.72241 -1.10427 0
M  V30 5033 H 491.292 4.06156 -0.387457 0
M  V30 5034 H 489.967 3.86982 -1.52375 0
M  V30 5035 H 488.544 3.71681 0.301316 0
M  V30 5036 N 490.729 0.570148 1.46925 0
M  V30 5037 C 492.145 0.23087 1.57921 0
M  V30 5038 C 492.345 -1.26676 1.56702 0
M  V30 5039 O 491.401 -2.04774 1.47729 0
M  V30 5040 C 492.714 0.868973 2.8787 0
M  V30 5041 C 494.262 0.841397 3.01479 0
M  V30 5042 C 494.737 1.45881 4.34146 0
M  V30 5043 N 496.228 1.42258 4.40814 0
M  V30 5044 C 496.963 1.8698 5.42057 0
M  V30 5045 N 496.459 2.39618 6.50042 0
M  V30 5046 N 498.252 1.77972 5.33181 0
M  V30 5047 H 490.403 1.54301 1.45962 0
M  V30 5048 H 492.666 0.644224 0.69547 0
M  V30 5049 H 492.372 1.922 2.94537 0
M  V30 5050 H 492.246 0.369682 3.75384 0
M  V30 5051 H 494.633 -0.202973 2.94401 0
M  V30 5052 H 494.714 1.37858 2.15474 0
M  V30 5053 H 494.358 2.50231 4.4198 0
M  V30 5054 H 494.288 0.896958 5.18905 0
M  V30 5055 H 496.779 1.03768 3.63374 0
M  V30 5056 H 497.092 2.71633 7.23488 0
M  V30 5057 H 495.437 2.43636 6.50897 0
M  V30 5058 H 498.628 1.36617 4.4772 0
M  V30 5059 H 498.801 2.13143 6.11943 0
M  V30 5060 N 492.207 -1.54576 0.307264 0
M  V30 5061 C 493.137 -2.26708 -0.55907 0
M  V30 5062 C 494.118 -1.26893 -1.1328 0
M  V30 5063 O 495.303 -1.55677 -1.16097 0
M  V30 5064 C 492.433 -3.01259 -1.72801 0
M  V30 5065 C 491.387 -4.08275 -1.28435 0
M  V30 5066 C 490.713 -4.70575 -2.53895 0
M  V30 5067 C 492.013 -5.2068 -0.411038 0
M  V30 5068 H 493.707 -2.9937 0.042576 0
M  V30 5069 H 491.253 -1.43983 0.0219173 0
M  V30 5070 H 493.206 -3.50444 -2.34023 0
M  V30 5071 H 491.93 -2.26187 -2.356 0
M  V30 5072 H 490.589 -3.59949 -0.695161 0
M  V30 5073 H 490.237 -3.92136 -3.15021 0
M  V30 5074 H 489.937 -5.42854 -2.24908 0
M  V30 5075 H 491.461 -5.22527 -3.15908 0
M  V30 5076 H 492.875 -5.65721 -0.929097 0
M  V30 5077 H 491.272 -5.99716 -0.214664 0
M  V30 5078 H 492.342 -4.81629 0.562287 0
M  V30 5079 N 493.685 -0.035106 -1.57561 0
M  V30 5080 C 494.932 0.642229 -1.92046 0
M  V30 5081 C 495.26 1.7179 -0.91206 0
M  V30 5082 O 494.515 1.95544 0.0781153 0
M  V30 5083 C 494.814 1.29149 -3.3325 0
M  V30 5084 C 494.48 0.345604 -4.49574 0
M  V30 5085 C 493.142 0.0852775 -4.81124 0
M  V30 5086 C 495.494 -0.303569 -5.20315 0
M  V30 5087 C 492.822 -0.831927 -5.80772 0
M  V30 5088 C 495.174 -1.20886 -6.20942 0
M  V30 5089 C 493.838 -1.47802 -6.50931 0
M  V30 5090 H 493.108 0.235008 -0.702746 0
M  V30 5091 H 495.755 -0.0981529 -1.91248 0
M  V30 5092 H 494.06 2.10676 -3.30337 0
M  V30 5093 H 495.757 1.82223 -3.57205 0
M  V30 5094 H 492.347 0.558683 -4.24943 0
M  V30 5095 H 496.531 -0.115515 -4.96166 0
M  V30 5096 H 491.787 -1.0481 -6.02349 0
M  V30 5097 H 495.961 -1.71804 -6.74875 0
M  V30 5098 H 493.588 -2.19039 -7.2796 0
M  V30 5099 N 495.163 1.55791 0.238111 0
M  V30 5100 C 496.41 1.78033 0.964907 0
M  V30 5101 C 496.738 0.600984 1.84982 0
M  V30 5102 O 495.993 -0.41536 1.91241 0
M  V30 5103 C 496.292 3.05869 1.84875 0
M  V30 5104 C 495.958 4.36808 1.11846 0
M  V30 5105 C 494.62 4.72388 0.916662 0
M  V30 5106 C 496.972 5.17717 0.60151 0
M  V30 5107 C 494.3 5.86406 0.185756 0
M  V30 5108 C 496.652 6.32494 -0.115972 0
M  V30 5109 C 495.316 6.66688 -0.329168 0
M  V30 5110 H 494.586 0.651469 0.353085 0
M  V30 5111 H 497.233 1.90061 0.234318 0
M  V30 5112 H 495.538 2.88891 2.64668 0
M  V30 5113 H 497.235 3.20278 2.41294 0
M  V30 5114 H 493.825 4.08862 1.28569 0
M  V30 5115 H 498.009 4.90678 0.744932 0
M  V30 5116 H 493.265 6.11399 0.0101886 0
M  V30 5117 H 497.439 6.94425 -0.524127 0
M  V30 5118 H 495.066 7.54884 -0.897474 0
M  V30 5119 N 496.642 -0.504142 1.49319 0
M  V30 5120 C 497.888 -1.26033 1.58882 0
M  V30 5121 C 498.221 -1.92268 0.273274 0
M  V30 5122 O 497.496 -1.80567 -0.72291 0
M  V30 5123 C 497.779 -2.32976 2.7458 0
M  V30 5124 C 497.632 -1.71263 4.1592 0
M  V30 5125 C 498.951 -3.34561 2.85932 0
M  V30 5126 H 496.07 -0.456863 0.578312 0
M  V30 5127 H 498.712 -0.558965 1.81592 0
M  V30 5128 H 496.862 -2.92796 2.55348 0
M  V30 5129 H 498.534 -1.15294 4.4666 0
M  V30 5130 H 496.777 -1.01686 4.21714 0
M  V30 5131 H 497.448 -2.48816 4.92742 0
M  V30 5132 H 499.924 -2.84727 3.0343 0
M  V30 5133 H 498.8 -4.06754 3.68568 0
M  V30 5134 H 499.061 -3.96695 1.95154 0
M  V30 5135 N 498.12 -1.38341 -0.754957 0
M  V30 5136 C 499.368 -1.34208 -1.51105 0
M  V30 5137 C 499.689 0.0677634 -1.94882 0
M  V30 5138 O 498.959 1.01517 -1.67544 0
M  V30 5139 H 497.539 -0.493819 -0.560493 0
M  V30 5140 H 500.201 -1.73005 -0.897507 0
M  V30 5141 H 499.297 -1.99203 -2.4026 0
M  V30 5142 N 499.598 0.982988 -1.23187 0
M  V30 5143 C 500.823 1.76455 -1.08988 0
M  V30 5144 C 501.248 1.84726 0.354691 0
M  V30 5145 O 500.606 1.30699 1.25649 0
M  V30 5146 C 500.654 3.17094 -1.71708 0
M  V30 5147 O 499.758 4.00648 -0.977477 0
M  V30 5148 H 499.099 0.542988 -0.382177 0
M  V30 5149 H 501.629 1.23413 -1.63188 0
M  V30 5150 H 501.639 3.67684 -1.76841 0
M  V30 5151 H 500.314 3.10389 -2.76823 0
M  V30 5152 H 498.891 3.59161 -1.0029 0
M  V30 5153 N 501.076 1.04316 1.18135 0
M  V30 5154 C 502.492 0.762858 1.40188 0
M  V30 5155 C 502.692 -0.646547 1.90846 0
M  V30 5156 O 501.748 -1.41036 2.0944 0
M  V30 5157 C 503.061 1.81106 2.40044 0
M  V30 5158 C 504.609 1.83226 2.53766 0
M  V30 5159 C 505.084 2.87044 3.56889 0
M  V30 5160 N 506.575 2.85951 3.64398 0
M  V30 5161 C 507.31 3.62932 4.43923 0
M  V30 5162 N 506.806 4.49672 5.27036 0
M  V30 5163 N 508.599 3.51411 4.38711 0
M  V30 5164 H 500.75 1.95264 0.835805 0
M  V30 5165 H 503.013 0.845017 0.429709 0
M  V30 5166 H 502.719 2.82214 2.09876 0
M  V30 5167 H 502.593 1.64529 3.39426 0
M  V30 5168 H 504.98 0.827869 2.8325 0
M  V30 5169 H 505.061 2.03879 1.54489 0
M  V30 5170 H 504.705 3.87663 3.28145 0
M  V30 5171 H 504.635 2.63645 4.5585 0
M  V30 5172 H 507.126 2.23051 3.05052 0
M  V30 5173 H 507.439 5.05116 5.84874 0
M  V30 5174 H 505.784 4.53738 5.26447 0
M  V30 5175 H 508.975 2.83047 3.72829 0
M  V30 5176 H 509.148 4.11654 5.00445 0
M  V30 5177 N 502.554 -1.34406 0.822964 0
M  V30 5178 C 503.464 -2.33298 0.246838 0
M  V30 5179 C 504.48 -1.62625 -0.618797 0
M  V30 5180 O 505.656 -1.94391 -0.526685 0
M  V30 5181 C 502.721 -3.41785 -0.581731 0
M  V30 5182 C 501.782 -4.28206 0.306309 0
M  V30 5183 C 501.015 -5.31512 -0.48281 0
M  V30 5184 O 501.238 -5.43973 -1.71607 0
M  V30 5185 O 500.172 -6.01749 0.134884 0
M  V30 5186 H 503.998 -2.84401 1.06534 0
M  V30 5187 H 501.583 -1.37466 0.585108 0
M  V30 5188 H 503.465 -4.08028 -1.05313 0
M  V30 5189 H 502.14 -2.92925 -1.37756 0
M  V30 5190 H 501.047 -3.64885 0.825199 0
M  V30 5191 H 502.38 -4.80507 1.06649 0
M  V30 5192 N 504.032 -0.577932 -1.46621 0
M  V30 5193 C 505.28 -0.061566 -2.02006 0
M  V30 5194 C 505.601 1.30117 -1.4524 0
M  V30 5195 O 504.871 1.85313 -0.63529 0
M  V30 5196 H 503.451 -0.0197692 -0.746738 0
M  V30 5197 H 506.113 -0.752631 -1.79782 0
M  V30 5198 H 505.209 0.0110238 -3.12098 0
M  V30 5199 N 505.51 1.54411 -0.315457 0
M  V30 5200 C 506.46 2.20772 0.569549 0
M  V30 5201 C 507.444 1.18551 1.08787 0
M  V30 5202 O 508.636 1.44213 1.02624 0
M  V30 5203 C 505.765 2.96293 1.73394 0
M  V30 5204 C 504.851 4.05844 1.2309 0
M  V30 5205 N 505.242 5.03822 0.446927 0
M  V30 5206 C 503.54 4.19648 1.51035 0
M  V30 5207 C 504.241 5.8143 0.17725 0
M  V30 5208 N 503.217 5.38245 0.761118 0
M  V30 5209 H 507.019 2.93877 -0.0368076 0
M  V30 5210 H 504.533 1.61949 -0.120915 0
M  V30 5211 H 506.53 3.42313 2.37965 0
M  V30 5212 H 505.19 2.24708 2.34386 0
M  V30 5213 H 506.201 5.17821 0.0905027 0
M  V30 5214 H 502.878 3.59274 2.1267 0
M  V30 5215 H 504.268 6.70369 -0.45335 0
M  V30 5216 N 506.988 0.0434614 1.5754 0
M  V30 5217 C 507.918 -0.931651 2.14109 0
M  V30 5218 C 508.899 -1.32971 1.06079 0
M  V30 5219 O 510.084 -1.40579 1.33982 0
M  V30 5220 C 507.214 -2.20914 2.67982 0
M  V30 5221 C 506.168 -1.95139 3.80926 0
M  V30 5222 C 505.494 -3.29276 4.21285 0
M  V30 5223 C 506.794 -1.27913 5.06395 0
M  V30 5224 H 508.488 -0.460497 2.95837 0
M  V30 5225 H 506.034 -0.220058 1.42309 0
M  V30 5226 H 507.987 -2.89522 3.06194 0
M  V30 5227 H 506.711 -2.70221 1.83434 0
M  V30 5228 H 505.37 -1.28945 3.43175 0
M  V30 5229 H 505.018 -3.76369 3.33699 0
M  V30 5230 H 504.718 -3.12831 4.97404 0
M  V30 5231 H 506.242 -3.99129 4.62091 0
M  V30 5232 H 507.656 -1.86544 5.42102 0
M  V30 5233 H 506.053 -1.2182 5.87605 0
M  V30 5234 H 507.123 -0.254066 4.84234 0
M  V30 5235 N 508.466 -1.55915 -0.229846 0
M  V30 5236 C 509.877 -1.68809 -0.797531 0
M  V30 5237 C 510.228 -0.643995 -1.8533 0
M  V30 5238 O 509.353 0.206492 -2.15413 0
M  V30 5239 C 509.948 -3.06043 -1.45338 0
M  V30 5240 C 508.507 -3.20819 -1.96856 0
M  V30 5241 C 507.654 -2.6472 -0.825736 0
M  V30 5242 H 510.605 -1.58699 -0.00533733 0
M  V30 5243 H 510.626 -3.01438 -2.32196 0
M  V30 5244 H 510.138 -3.82012 -0.684743 0
M  V30 5245 H 508.239 -2.49704 -2.76548 0
M  V30 5246 H 508.352 -4.27937 -2.15423 0
M  V30 5247 H 506.716 -2.22985 -1.23084 0
M  V30 5248 H 507.499 -3.43229 -0.0699019 0
M  V30 5249 N 509.944 0.496216 -1.49584 0
M  V30 5250 C 511.221 1.25755 -1.49816 0
M  V30 5251 C 511.601 2.09859 -0.228572 0
M  V30 5252 O 510.949 2.14449 0.788908 0
M  V30 5253 C 511.159 2.11017 -2.7798 0
M  V30 5254 C 512.507 2.70047 -3.27658 0
M  V30 5255 O 513.531 2.21281 -2.79129 0
M  V30 5256 O 512.39 3.58834 -4.1219 0
M  V30 5257 H 509.484 0.569322 -0.599834 0
M  V30 5258 H 512.03 0.510094 -1.61852 0
M  V30 5259 H 510.802 1.48879 -3.61871 0
M  V30 5260 H 510.425 2.92947 -2.68827 0
M  V30 5261 N 511.423 1.38739 0.74761 0
M  V30 5262 C 512.386 1.36241 1.84312 0
M  V30 5263 C 513.386 0.261811 1.58654 0
M  V30 5264 O 514.576 0.519031 1.66288 0
M  V30 5265 C 511.708 1.12253 3.21888 0
M  V30 5266 H 512.901 2.33712 1.87933 0
M  V30 5267 H 510.454 1.2412 0.949946 0
M  V30 5268 H 511.189 0.154133 3.23934 0
M  V30 5269 H 510.974 1.91943 3.41907 0
M  V30 5270 H 512.464 1.13215 4.0196 0
M  V30 5271 N 512.901 -0.976442 1.23707 0
M  V30 5272 C 514.15 -1.71254 1.06559 0
M  V30 5273 C 514.463 -1.91528 -0.397024 0
M  V30 5274 O 515.669 -2.62625 -0.688518 0
M  V30 5275 C 514.125 -3.08207 1.8584 0
M  V30 5276 C 513.733 -2.95806 3.36456 0
M  V30 5277 C 515.477 -3.85749 1.77194 0
M  V30 5278 C 513.384 -4.28015 4.08114 0
M  V30 5279 H 512.314 -0.642171 0.395136 0
M  V30 5280 H 514.965 -1.08877 1.4771 0
M  V30 5281 H 513.347 -3.71363 1.37498 0
M  V30 5282 H 514.521 -2.41716 3.92314 0
M  V30 5283 H 512.836 -2.31736 3.45959 0
M  V30 5284 H 515.433 -4.83633 2.28041 0
M  V30 5285 H 515.776 -4.09752 0.735477 0
M  V30 5286 H 516.309 -3.29303 2.23169 0
M  V30 5287 H 513.048 -4.09208 5.12083 0
M  V30 5288 H 512.568 -4.81955 3.57043 0
M  V30 5289 H 514.247 -4.96681 4.14629 0
M  V30 5290 N 514.379 -1.04941 -1.1758 0
M  V30 5291 C 515.619 -0.766996 -1.89464 0
M  V30 5292 C 515.983 0.693123 -1.79053 0
M  V30 5293 O 517.184 1.08953 -2.45729 0
M  V30 5294 C 515.455 -1.23108 -3.35528 0
M  V30 5295 S 517.014 -1.07565 -4.25412 0
M  V30 5296 H 513.832 -0.278616 -0.654136 0
M  V30 5297 H 516.434 -1.34352 -1.4202 0
M  V30 5298 H 515.138 -2.28896 -3.40639 0
M  V30 5299 H 514.669 -0.648724 -3.88014 0
M  V30 5300 H 516.684 0.00169467 -4.962 0
M  V30 5301 N 515.857 1.33968 -0.830081 0
M  V30 5302 C 516.79 2.27303 -0.202182 0
M  V30 5303 C 517.768 1.49235 0.645581 0
M  V30 5304 O 518.952 1.78433 0.607762 0
M  V30 5305 C 516.079 3.31025 0.716932 0
M  V30 5306 C 515.125 4.26466 -0.0542271 0
M  V30 5307 S 515.958 5.16707 -1.40622 0
M  V30 5308 C 517.114 6.23962 -0.492167 0
M  V30 5309 H 517.347 2.8021 -0.99346 0
M  V30 5310 H 514.88 1.41124 -0.626359 0
M  V30 5311 H 516.838 3.91271 1.24165 0
M  V30 5312 H 515.499 2.76951 1.4818 0
M  V30 5313 H 514.692 4.99858 0.644785 0
M  V30 5314 H 514.294 3.7051 -0.509722 0
M  V30 5315 H 516.586 6.76774 0.31347 0
M  V30 5316 H 517.529 6.97927 -1.19599 0
M  V30 5317 H 517.937 5.64447 -0.0774176 0
M  V30 5318 N 517.335 0.585699 1.46312 0
M  V30 5319 C 518.584 0.0701192 2.01578 0
M  V30 5320 C 518.897 -1.29889 1.46247 0
M  V30 5321 O 520.103 -1.90598 1.93351 0
M  V30 5322 C 518.559 0.0747499 3.59822 0
M  V30 5323 C 518.167 1.44226 4.24149 0
M  V30 5324 C 519.911 -0.38673 4.22735 0
M  V30 5325 C 517.818 1.40446 5.74481 0
M  V30 5326 H 516.748 0.0224441 0.753666 0
M  V30 5327 H 519.399 0.737789 1.68015 0
M  V30 5328 H 517.781 -0.659144 3.90476 0
M  V30 5329 H 518.955 2.19612 4.05101 0
M  V30 5330 H 517.27 1.84401 3.73343 0
M  V30 5331 H 519.867 -0.433853 5.32937 0
M  V30 5332 H 520.21 -1.40489 3.91878 0
M  V30 5333 H 520.743 0.293195 3.96718 0
M  V30 5334 H 517.482 2.39952 6.10003 0
M  V30 5335 H 517.002 0.692845 5.95785 0
M  V30 5336 H 518.681 1.11865 6.37256 0
M  V30 5337 N 518.813 -1.54241 0.323641 0
M  V30 5338 C 519.763 -2.21071 -0.557833 0
M  V30 5339 C 520.747 -1.19126 -1.08157 0
M  V30 5340 O 521.939 -1.44755 -1.01857 0
M  V30 5341 C 519.068 -2.97208 -1.71821 0
M  V30 5342 C 518.154 -4.06491 -1.20936 0
M  V30 5343 N 518.545 -5.04052 -0.420202 0
M  V30 5344 C 516.843 -4.20443 -1.48808 0
M  V30 5345 C 517.544 -5.81516 -0.146413 0
M  V30 5346 N 516.52 -5.38641 -0.732562 0
M  V30 5347 H 520.322 -2.93853 0.0523921 0
M  V30 5348 H 517.836 -1.61883 0.129502 0
M  V30 5349 H 519.833 -3.4357 -2.36146 0
M  V30 5350 H 518.493 -2.25947 -2.33191 0
M  V30 5351 H 519.504 -5.17862 -0.0630401 0
M  V30 5352 H 516.181 -3.60396 -2.10762 0
M  V30 5353 H 517.571 -6.70119 0.488895 0
M  V30 5354 N 520.291 -0.0518155 -1.57515 0
M  V30 5355 C 521.537 0.622745 -1.93002 0
M  V30 5356 C 521.87 1.70456 -0.930499 0
M  V30 5357 O 521.145 1.94452 0.0434086 0
M  V30 5358 C 521.428 1.21824 -3.38867 0
M  V30 5359 C 521.281 0.144434 -4.49568 0
M  V30 5360 C 522.6 2.12968 -3.8514 0
M  V30 5361 H 519.719 0.22491 -0.701844 0
M  V30 5362 H 522.361 -0.113711 -1.89659 0
M  V30 5363 H 520.511 1.8459 -3.41846 0
M  V30 5364 H 522.183 -0.48753 -4.58717 0
M  V30 5365 H 520.426 -0.527424 -4.30582 0
M  V30 5366 H 521.097 0.601127 -5.48717 0
M  V30 5367 H 523.573 1.60163 -3.8404 0
M  V30 5368 H 522.449 2.51578 -4.87852 0
M  V30 5369 H 522.71 3.03004 -3.21934 0
M  V30 5370 N 521.769 1.56035 0.221574 0
M  V30 5371 C 522.679 1.95581 1.29558 0
M  V30 5372 C 523.695 0.859639 1.51282 0
M  V30 5373 O 524.871 1.16321 1.64413 0
M  V30 5374 C 521.936 2.26447 2.62531 0
M  V30 5375 C 520.997 3.49632 2.4911 0
M  V30 5376 C 520.23 3.79017 3.75742 0
M  V30 5377 O 520.453 3.10077 4.78757 0
M  V30 5378 O 519.387 4.72507 3.72855 0
M  V30 5379 H 523.213 2.8711 0.990035 0
M  V30 5380 H 520.798 1.43244 0.424434 0
M  V30 5381 H 522.68 2.47494 3.41064 0
M  V30 5382 H 521.355 1.38092 2.92766 0
M  V30 5383 H 520.262 3.33864 1.68777 0
M  V30 5384 H 521.595 4.3837 2.23814 0
M  V30 5385 N 523.247 -0.488276 1.49845 0
M  V30 5386 C 524.663 -0.820566 1.3689 0
M  V30 5387 C 524.863 -1.97248 0.411752 0
M  V30 5388 O 523.919 -2.52042 -0.151931 0
M  V30 5389 C 525.232 -1.1488 2.77891 0
M  V30 5390 C 526.78 -1.25626 2.86683 0
M  V30 5391 C 527.255 -1.61772 4.28479 0
M  V30 5392 N 528.746 -1.68797 4.31349 0
M  V30 5393 C 529.481 -1.98235 5.38043 0
M  V30 5394 N 528.977 -2.2581 6.54967 0
M  V30 5395 N 530.77 -1.99593 5.2547 0
M  V30 5396 H 522.921 0.271123 2.10662 0
M  V30 5397 H 525.184 0.058735 0.946179 0
M  V30 5398 H 524.89 -0.375614 3.49688 0
M  V30 5399 H 524.764 -2.08919 3.14058 0
M  V30 5400 H 527.151 -2.02014 2.15114 0
M  V30 5401 H 527.232 -0.296072 2.54081 0
M  V30 5402 H 526.876 -0.859295 5.00578 0
M  V30 5403 H 526.806 -2.58912 4.58554 0
M  V30 5404 H 529.297 -1.49595 3.4703 0
M  V30 5405 H 529.61 -2.47497 7.32096 0
M  V30 5406 H 527.955 -2.23239 6.58171 0
M  V30 5407 H 531.146 -1.77535 4.33127 0
M  V30 5408 H 531.319 -2.222 6.08713 0
M  V30 5409 N 524.725 -1.39134 -0.740242 0
M  V30 5410 C 525.972 -1.36071 -1.49969 0
M  V30 5411 C 526.3 0.0450245 -1.94448 0
M  V30 5412 O 525.555 1.02482 -1.66721 0
M  V30 5413 C 525.854 -2.27457 -2.75678 0
M  V30 5414 C 525.52 -3.75185 -2.50094 0
M  V30 5415 C 524.182 -4.15439 -2.42825 0
M  V30 5416 C 526.534 -4.68643 -2.28086 0
M  V30 5417 C 523.862 -5.4722 -2.11584 0
M  V30 5418 C 526.214 -6.00695 -1.98363 0
M  V30 5419 C 524.878 -6.40018 -1.8956 0
M  V30 5420 H 524.148 -0.497921 -0.548777 0
M  V30 5421 H 526.795 -1.71599 -0.85007 0
M  V30 5422 H 525.1 -1.8503 -3.45356 0
M  V30 5423 H 526.797 -2.22384 -3.33686 0
M  V30 5424 H 523.387 -3.43279 -2.56627 0
M  V30 5425 H 527.571 -4.3838 -2.32672 0
M  V30 5426 H 522.827 -5.76615 -2.03287 0
M  V30 5427 H 527.001 -6.72644 -1.80341 0
M  V30 5428 H 524.628 -7.42051 -1.65117 0
M  V30 5429 N 526.204 0.969867 -1.24223 0
M  V30 5430 C 527.432 1.74756 -1.10761 0
M  V30 5431 C 527.847 1.85713 0.340041 0
M  V30 5432 O 527.204 1.34389 1.23474 0
M  V30 5433 C 527.255 3.16915 -1.73917 0
M  V30 5434 O 526.976 3.06511 -3.13021 0
M  V30 5435 C 528.477 4.11032 -1.66036 0
M  V30 5436 H 525.697 0.548092 -0.387087 0
M  V30 5437 H 528.241 1.2178 -1.64286 0
M  V30 5438 H 526.396 3.66884 -1.244 0
M  V30 5439 H 526.81 3.96079 -3.43834 0
M  V30 5440 H 528.284 5.08446 -2.14911 0
M  V30 5441 H 528.761 4.34785 -0.621159 0
M  V30 5442 H 529.367 3.66972 -2.14969 0
M  V30 5443 N 527.682 1.05563 1.17022 0
M  V30 5444 C 529.093 0.793475 1.69 0
M  V30 5445 C 529.444 -0.683882 1.83895 0
M  V30 5446 O 528.569 -1.53116 1.5292 0
M  V30 5447 C 529.164 1.43376 3.06967 0
M  V30 5448 C 527.723 1.21956 3.56095 0
M  V30 5449 C 526.87 1.51494 2.3226 0
M  V30 5450 H 529.821 1.22008 1.01487 0
M  V30 5451 H 529.842 0.845068 3.70997 0
M  V30 5452 H 529.354 2.50899 2.96093 0
M  V30 5453 H 527.455 0.163749 3.7224 0
M  V30 5454 H 527.568 1.92713 4.38633 0
M  V30 5455 H 525.932 0.935175 2.3691 0
M  V30 5456 H 526.715 2.60159 2.23992 0
M  V30 5457 N 529.16 -1.33526 0.837174 0
M  V30 5458 C 530.406 -1.9813 0.432704 0
M  V30 5459 C 530.739 -1.66168 -1.00508 0
M  V30 5460 O 530.014 -0.94069 -1.70239 0
M  V30 5461 C 530.297 -3.54151 0.651834 0
M  V30 5462 C 530.15 -3.95806 2.13676 0
M  V30 5463 C 531.469 -4.39993 0.0968937 0
M  V30 5464 H 528.588 -0.719713 0.15869 0
M  V30 5465 H 531.23 -1.58193 1.05237 0
M  V30 5466 H 529.38 -3.88301 0.124369 0
M  V30 5467 H 531.052 -3.71921 2.72896 0
M  V30 5468 H 529.295 -3.45599 2.62191 0
M  V30 5469 H 529.966 -5.0447 2.24084 0
M  V30 5470 H 532.442 -4.12479 0.547733 0
M  V30 5471 H 531.318 -5.48186 0.279917 0
M  V30 5472 H 531.579 -4.3066 -0.9992 0
M  V30 5473 N 530.638 -0.59345 -1.46 0
M  V30 5474 C 532.049 -0.169801 -1.85926 0
M  V30 5475 C 532.4 1.26984 -1.49565 0
M  V30 5476 O 531.525 1.96076 -0.915602 0
M  V30 5477 C 532.12 -0.301385 -3.37457 0
M  V30 5478 C 530.679 0.0674684 -3.7634 0
M  V30 5479 C 529.826 -0.632383 -2.69993 0
M  V30 5480 H 532.777 -0.801014 -1.37002 0
M  V30 5481 H 532.798 0.470331 -3.77582 0
M  V30 5482 H 532.31 -1.34927 -3.63891 0
M  V30 5483 H 530.411 1.11507 -3.55523 0
M  V30 5484 H 530.524 -0.316332 -4.78055 0
M  V30 5485 H 528.888 -0.0714961 -2.546 0
M  V30 5486 H 529.671 -1.68212 -2.99265 0
M  V30 5487 N 532.116 1.54067 -0.331816 0
M  V30 5488 C 533.341 2.05599 0.272705 0
M  V30 5489 C 533.766 1.2059 1.44359 0
M  V30 5490 O 533.124 0.216907 1.79998 0
M  V30 5491 C 533.172 3.54188 0.677021 0
M  V30 5492 O 532.276 3.72082 1.77844 0
M  V30 5493 H 531.617 0.662286 0.0476801 0
M  V30 5494 H 534.147 1.98826 -0.482624 0
M  V30 5495 H 534.157 3.96608 0.957415 0
M  V30 5496 H 532.832 4.15513 -0.179325 0
M  V30 5497 H 531.409 3.41566 1.49622 0
M  V30 5498 N 533.594 0.0601682 1.57485 0
M  V30 5499 C 534.524 -0.90889 2.15085 0
M  V30 5500 C 535.505 -1.31838 1.07484 0
M  V30 5501 O 536.69 -1.3915 1.35466 0
M  V30 5502 C 533.82 -2.18059 2.7031 0
M  V30 5503 C 532.774 -1.91088 3.82974 0
M  V30 5504 C 532.1 -3.24789 4.24754 0
M  V30 5505 C 533.4 -1.22535 5.07723 0
M  V30 5506 H 535.094 -0.429093 2.96309 0
M  V30 5507 H 532.64 -0.204952 1.42534 0
M  V30 5508 H 534.593 -2.86258 3.09248 0
M  V30 5509 H 533.317 -2.6826 1.8629 0
M  V30 5510 H 531.976 -1.25297 3.44523 0
M  V30 5511 H 531.624 -3.72809 3.37672 0
M  V30 5512 H 531.324 -3.07538 5.00694 0
M  V30 5513 H 532.848 -3.94205 4.66299 0
M  V30 5514 H 534.262 -1.80783 5.4405 0
M  V30 5515 H 532.659 -1.1558 5.88864 0
M  V30 5516 H 533.729 -0.202692 4.84476 0
M  V30 5517 N 535.072 -1.5615 -0.213296 0
M  V30 5518 C 536.002 -1.96109 -1.26742 0
M  V30 5519 C 536.983 -0.830448 -1.48451 0
M  V30 5520 O 538.168 -1.09339 -1.60495 0
M  V30 5521 C 535.298 -2.28492 -2.61551 0
M  V30 5522 C 534.252 -3.44124 -2.54485 0
M  V30 5523 C 533.578 -3.62134 -3.93399 0
M  V30 5524 C 534.878 -4.78855 -2.08556 0
M  V30 5525 H 536.572 -2.84412 -0.935434 0
M  V30 5526 H 534.118 -1.36836 -0.44854 0
M  V30 5527 H 536.071 -2.55039 -3.3546 0
M  V30 5528 H 534.795 -1.37052 -2.96453 0
M  V30 5529 H 533.454 -3.17639 -1.83033 0
M  V30 5530 H 533.102 -2.68055 -4.25623 0
M  V30 5531 H 532.802 -4.39913 -3.89551 0
M  V30 5532 H 534.326 -3.91038 -4.68958 0
M  V30 5533 H 535.74 -5.04552 -2.72213 0
M  V30 5534 H 534.137 -5.59975 -2.1575 0
M  V30 5535 H 535.207 -4.73657 -1.03811 0
M  V30 5536 N 536.55 0.480323 -1.50102 0
M  V30 5537 C 537.797 1.23307 -1.60629 0
M  V30 5538 C 538.125 1.92135 -0.302375 0
M  V30 5539 O 537.38 1.82321 0.711154 0
M  V30 5540 C 537.679 2.30708 -2.72963 0
M  V30 5541 C 537.345 1.79195 -4.13763 0
M  V30 5542 C 536.007 1.64867 -4.52076 0
M  V30 5543 C 538.359 1.40878 -5.018 0
M  V30 5544 C 535.687 1.10631 -5.76175 0
M  V30 5545 C 538.039 0.880872 -6.26437 0
M  V30 5546 C 536.703 0.724146 -6.6356 0
M  V30 5547 H 535.973 0.451211 -0.587784 0
M  V30 5548 H 538.62 0.53051 -1.84005 0
M  V30 5549 H 536.925 3.06834 -2.43639 0
M  V30 5550 H 538.622 2.88692 -2.78313 0
M  V30 5551 H 535.212 1.91313 -3.83533 0
M  V30 5552 H 539.396 1.50786 -4.7284 0
M  V30 5553 H 534.652 0.972263 -6.0362 0
M  V30 5554 H 538.826 0.575269 -6.9402 0
M  V30 5555 H 536.453 0.301722 -7.59601 0
M  V30 5556 N 538.028 1.39524 0.732853 0
M  V30 5557 C 538.976 1.38563 1.86824 0
M  V30 5558 C 539.97 0.268467 1.67259 0
M  V30 5559 O 541.176 0.438613 1.74574 0
M  V30 5560 H 537.551 0.432737 0.615014 0
M  V30 5561 H 539.522 2.34328 1.84751 0
M  V30 5562 C 538.271 1.2481 3.24527 0
M  V30 5563 H 537.594 2.10044 3.40179 0
M  V30 5564 H 539.034 1.28194 4.04156 0
M  V30 5565 C 537.493 -0.0432825 3.36872 0
M  V30 5566 O 538.023 -1.01268 3.88726 0
M  V30 5567 N 536.229 -0.107055 2.90403 0
M  V30 5568 H 535.776 0.682512 2.48394 0
M  V30 5569 H 535.734 -0.970618 2.99042 0
M  V30 5570 N 539.506 -0.963266 1.24736 0
M  V30 5571 C 540.754 -1.70343 1.08755 0
M  V30 5572 C 541.075 -1.91387 -0.373619 0
M  V30 5573 O 540.345 -1.4948 -1.2662 0
M  V30 5574 H 538.925 -0.631224 0.399456 0
M  V30 5575 H 541.587 -1.15859 1.56725 0
M  V30 5576 H 540.683 -2.68616 1.58909 0
M  V30 5577 N 540.985 -1.06182 -1.16461 0
M  V30 5578 C 542.234 -0.772927 -1.86303 0
M  V30 5579 C 542.547 0.703187 -1.82523 0
M  V30 5580 O 543.753 1.10641 -2.47933 0
M  V30 5581 C 542.209 -1.33249 -3.34324 0
M  V30 5582 C 541.817 -2.83876 -3.46581 0
M  V30 5583 C 543.561 -1.12108 -4.09429 0
M  V30 5584 C 541.468 -3.33082 -4.88682 0
M  V30 5585 H 540.398 -0.285452 -0.697878 0
M  V30 5586 H 543.049 -1.28039 -1.31447 0
M  V30 5587 H 541.431 -0.7528 -3.88779 0
M  V30 5588 H 542.605 -3.47786 -3.02293 0
M  V30 5589 H 540.92 -3.03671 -2.84909 0
M  V30 5590 H 543.517 -1.46361 -5.14279 0
M  V30 5591 H 543.86 -0.0593832 -4.16258 0
M  V30 5592 H 544.393 -1.6665 -3.6121 0
M  V30 5593 H 541.132 -4.38726 -4.87032 0
M  V30 5594 H 540.652 -2.73919 -5.33599 0
M  V30 5595 H 542.331 -3.28344 -5.57494 0
M  V30 5596 N 542.463 1.3308 -0.844243 0
M  V30 5597 C 543.396 2.27075 -0.226279 0
M  V30 5598 C 544.374 1.49911 0.629716 0
M  V30 5599 O 545.558 1.79068 0.588803 0
M  V30 5600 C 542.685 3.31767 0.681782 0
M  V30 5601 C 541.731 4.26384 -0.0994565 0
M  V30 5602 S 542.564 5.15186 -1.46094 0
M  V30 5603 C 543.72 6.23405 -0.558319 0
M  V30 5604 H 543.953 2.79141 -1.02312 0
M  V30 5605 H 541.486 1.40452 -0.641292 0
M  V30 5606 H 543.444 3.92566 1.20008 0
M  V30 5607 H 542.105 2.78507 1.45234 0
M  V30 5608 H 541.298 5.00514 0.591733 0
M  V30 5609 H 540.9 3.69949 -0.548991 0
M  V30 5610 H 543.192 6.77069 0.241672 0
M  V30 5611 H 544.135 6.96619 -1.26995 0
M  V30 5612 H 544.543 5.64333 -0.13728 0
M  V30 5613 N 543.941 0.601185 1.45683 0
M  V30 5614 C 544.904 -0.111398 2.28929 0
M  V30 5615 C 545.904 -0.801246 1.39416 0
M  V30 5616 O 547.094 -0.650383 1.61603 0
M  V30 5617 C 544.226 -1.16773 3.20276 0
M  V30 5618 H 545.419 0.620412 2.93413 0
M  V30 5619 H 542.972 0.359946 1.52099 0
M  V30 5620 H 543.707 -1.93051 2.60579 0
M  V30 5621 H 543.492 -0.677358 3.86205 0
M  V30 5622 H 544.982 -1.66698 3.82886 0
M  V30 5623 N 545.419 -1.53889 0.339982 0
M  V30 5624 C 546.349 -2.27843 -0.510856 0
M  V30 5625 C 547.33 -1.29267 -1.10563 0
M  V30 5626 O 548.515 -1.58104 -1.12768 0
M  V30 5627 C 545.645 -3.04857 -1.66372 0
M  V30 5628 C 544.599 -4.10907 -1.19746 0
M  V30 5629 C 543.925 -4.75855 -2.43857 0
M  V30 5630 C 545.225 -5.21435 -0.300501 0
M  V30 5631 H 546.919 -2.99212 0.106067 0
M  V30 5632 H 544.465 -1.43904 0.0524533 0
M  V30 5633 H 546.418 -3.5533 -2.26537 0
M  V30 5634 H 545.142 -2.31133 -2.30749 0
M  V30 5635 H 543.801 -3.61342 -0.618654 0
M  V30 5636 H 543.449 -3.9873 -3.06633 0
M  V30 5637 H 543.149 -5.47502 -2.13343 0
M  V30 5638 H 544.673 -5.2911 -3.04754 0
M  V30 5639 H 546.087 -5.67565 -0.80889 0
M  V30 5640 H 544.484 -6.00036 -0.0874076 0
M  V30 5641 H 545.554 -4.80328 0.664321 0
M  V30 5642 N 546.897 -0.0685191 -1.57451 0
M  V30 5643 C 548.146 0.600898 -1.92541 0
M  V30 5644 C 548.459 1.70967 -0.950239 0
M  V30 5645 O 549.665 2.43844 -1.19384 0
M  V30 5646 C 548.121 1.12019 -3.42023 0
M  V30 5647 C 547.729 0.0426028 -4.4798 0
M  V30 5648 C 549.473 1.76386 -3.86119 0
M  V30 5649 C 547.38 0.575759 -5.88591 0
M  V30 5650 H 546.31 0.228225 -0.71863 0
M  V30 5651 H 548.961 -0.140223 -1.82963 0
M  V30 5652 H 547.343 1.91418 -3.46663 0
M  V30 5653 H 548.517 -0.73182 -4.54952 0
M  V30 5654 H 546.832 -0.504642 -4.13331 0
M  V30 5655 H 549.429 2.17302 -4.88553 0
M  V30 5656 H 549.772 2.62255 -3.23308 0
M  V30 5657 H 550.305 1.03615 -3.84069 0
M  V30 5658 H 547.044 -0.245691 -6.55039 0
M  V30 5659 H 546.564 1.31778 -5.85145 0
M  V30 5660 H 548.243 1.0532 -6.3837 0
M  V30 5661 N 548.375 1.56261 0.205012 0
M  V30 5662 C 549.605 1.83874 0.942018 0
M  V30 5663 C 550.013 0.647595 1.77772 0
M  V30 5664 O 549.356 -0.393098 1.79445 0
M  V30 5665 C 549.418 3.05453 1.89575 0
M  V30 5666 C 549.082 4.39772 1.24296 0
M  V30 5667 C 550.079 5.16133 0.624724 0
M  V30 5668 C 547.764 4.86504 1.24978 0
M  V30 5669 C 549.758 6.37396 0.0220117 0
M  V30 5670 C 547.445 6.07705 0.643232 0
M  V30 5671 C 548.443 6.82993 0.0304164 0
M  V30 5672 O 548.131 8.019 -0.566654 0
M  V30 5673 H 547.863 0.614896 0.280854 0
M  V30 5674 H 550.417 2.04215 0.220285 0
M  V30 5675 H 548.647 2.80972 2.65691 0
M  V30 5676 H 550.336 3.19797 2.4997 0
M  V30 5677 H 551.102 4.81127 0.611666 0
M  V30 5678 H 546.981 4.27865 1.71616 0
M  V30 5679 H 550.525 6.96102 -0.456926 0
M  V30 5680 H 546.422 6.42181 0.653759 0
M  V30 5681 H 547.19 8.17192 -0.462588 0
M  V30 5682 N 549.853 -0.472356 1.50355 0
M  V30 5683 C 550.783 -1.57859 1.72055 0
M  V30 5684 C 551.764 -1.60283 0.569505 0
M  V30 5685 O 552.949 -1.7657 0.808503 0
M  V30 5686 C 550.079 -2.96191 1.81351 0
M  V30 5687 C 549.033 -3.08633 2.96529 0
M  V30 5688 C 548.359 -4.486 2.90968 0
M  V30 5689 C 549.659 -2.85969 4.37057 0
M  V30 5690 H 551.353 -1.39953 2.64676 0
M  V30 5691 H 548.899 -0.671846 1.27367 0
M  V30 5692 H 550.852 -3.73507 1.95117 0
M  V30 5693 H 549.576 -3.15251 0.853502 0
M  V30 5694 H 548.235 -2.33749 2.82413 0
M  V30 5695 H 547.883 -4.64577 1.92815 0
M  V30 5696 H 547.583 -4.57861 3.68289 0
M  V30 5697 H 549.107 -5.27938 3.0678 0
M  V30 5698 H 550.521 -3.53036 4.51706 0
M  V30 5699 H 548.918 -3.06677 5.15819 0
M  V30 5700 H 549.988 -1.81838 4.49514 0
M  V30 5701 N 551.331 -1.39911 -0.725443 0
M  V30 5702 C 552.571 -1.39096 -1.49772 0
M  V30 5703 C 552.935 0.0106452 -1.91997 0
M  V30 5704 O 554.136 0.143859 -2.68415 0
M  V30 5705 C 552.407 -2.34441 -2.69764 0
M  V30 5706 S 553.966 -2.51898 -3.59295 0
M  V30 5707 H 550.784 -0.49314 -0.512186 0
M  V30 5708 H 553.386 -1.76093 -0.849197 0
M  V30 5709 H 552.09 -3.35123 -2.36898 0
M  V30 5710 H 551.621 -1.98692 -3.39537 0
M  V30 5711 H 553.636 -1.76402 -4.63785 0
M  V30 5712 N 552.809 0.956637 -1.25245 0
M  V30 5713 C 554.055 1.70352 -1.10036 0
M  V30 5714 C 554.388 1.90869 0.358156 0
M  V30 5715 O 553.663 1.47819 1.26411 0
M  V30 5716 C 553.946 3.08766 -1.85298 0
M  V30 5717 C 553.799 2.95672 -3.38966 0
M  V30 5718 C 555.118 4.08622 -1.63451 0
M  V30 5719 H 552.237 0.618279 -0.401123 0
M  V30 5720 H 554.879 1.11212 -1.54051 0
M  V30 5721 H 553.029 3.59252 -1.47887 0
M  V30 5722 H 554.701 2.52527 -3.86041 0
M  V30 5723 H 552.944 2.31634 -3.6678 0
M  V30 5724 H 553.615 3.93776 -3.86839 0
M  V30 5725 H 556.091 3.67038 -1.96015 0
M  V30 5726 H 554.967 5.03514 -2.18551 0
M  V30 5727 H 555.228 4.3834 -0.575357 0
M  V30 5728 N 554.287 1.06798 1.15896 0
M  V30 5729 C 555.197 0.694564 2.24083 0
M  V30 5730 C 556.213 -0.291687 1.71538 0
M  V30 5731 O 557.389 -0.139723 2.00915 0
M  V30 5732 C 554.454 0.0921014 3.46578 0
M  V30 5733 C 553.515 1.13087 4.14137 0
M  V30 5734 C 552.748 0.557064 5.30785 0
M  V30 5735 O 552.971 -0.628623 5.66925 0
M  V30 5736 O 551.905 1.29924 5.8771 0
M  V30 5737 H 555.731 1.59663 2.58344 0
M  V30 5738 H 553.316 0.840575 1.2351 0
M  V30 5739 H 555.198 -0.241884 4.20705 0
M  V30 5740 H 553.873 -0.78337 3.14078 0
M  V30 5741 H 552.78 1.51712 3.41957 0
M  V30 5742 H 554.113 1.97805 4.50704 0
M  V30 5743 N 555.766 -1.3263 0.851289 0
M  V30 5744 C 557.043 -1.91982 0.374448 0
M  V30 5745 C 557.423 -1.77568 -1.14161 0
M  V30 5746 O 556.771 -1.1717 -1.96172 0
M  V30 5747 C 556.981 -3.38862 0.835088 0
M  V30 5748 C 558.329 -4.15999 0.850309 0
M  V30 5749 O 559.353 -3.47566 0.779505 0
M  V30 5750 O 558.212 -5.38189 0.949481 0
M  V30 5751 H 555.306 -0.819846 0.10854 0
M  V30 5752 H 557.852 -1.41422 0.937966 0
M  V30 5753 H 556.624 -3.43281 1.87814 0
M  V30 5754 H 556.247 -3.96821 0.248833 0
M  V30 5755 N 557.244 -0.608902 -1.45362 0
M  V30 5756 C 558.493 -0.10218 -2.01441 0
M  V30 5757 C 558.806 1.27546 -1.48295 0
M  V30 5758 O 560.012 1.87498 -1.96359 0
M  V30 5759 C 558.468 -0.131985 -3.59658 0
M  V30 5760 C 558.076 -1.50956 -4.21801 0
M  V30 5761 C 559.82 0.319427 -4.23296 0
M  V30 5762 C 557.727 -1.49568 -5.72174 0
M  V30 5763 H 556.657 -0.0344314 -0.753213 0
M  V30 5764 H 559.308 -0.764426 -1.6682 0
M  V30 5765 H 557.69 0.596939 -3.91475 0
M  V30 5766 H 558.864 -2.26029 -4.01556 0
M  V30 5767 H 557.179 -1.90318 -3.70362 0
M  V30 5768 H 559.776 0.349013 -5.3356 0
M  V30 5769 H 560.119 1.34237 -3.94064 0
M  V30 5770 H 560.652 -0.356273 -3.96201 0
M  V30 5771 H 557.391 -2.49626 -6.06108 0
M  V30 5772 H 556.911 -0.787542 -5.94607 0
M  V30 5773 H 558.59 -1.21989 -6.35396 0
M  V30 5774 N 558.722 1.53707 -0.348139 0
M  V30 5775 C 559.969 2.00988 0.246966 0
M  V30 5776 C 560.297 1.23586 1.50189 0
M  V30 5777 O 559.552 0.312817 1.93184 0
M  V30 5778 C 559.851 3.52292 0.602061 0
M  V30 5779 C 559.517 4.47453 -0.556509 0
M  V30 5780 C 558.179 4.73188 -0.874446 0
M  V30 5781 C 560.531 5.03851 -1.33354 0
M  V30 5782 C 557.859 5.52577 -1.9717 0
M  V30 5783 C 560.211 5.84437 -2.42108 0
M  V30 5784 C 558.875 6.08465 -2.74456 0
M  V30 5785 H 558.145 0.735469 0.0903712 0
M  V30 5786 H 560.792 1.85464 -0.477001 0
M  V30 5787 H 559.097 3.65672 1.40681 0
M  V30 5788 H 560.794 3.86337 1.07447 0
M  V30 5789 H 557.384 4.27558 -0.298652 0
M  V30 5790 H 561.568 4.8393 -1.10117 0
M  V30 5791 H 556.824 5.69418 -2.22651 0
M  V30 5792 H 560.998 6.27151 -3.02745 0
M  V30 5793 H 558.625 6.69768 -3.59604 0
M  V30 5794 N 560.2 0.0768682 1.57412 0
M  V30 5795 C 561.132 -0.918248 2.10002 0
M  V30 5796 C 562.145 -1.25808 1.03325 0
M  V30 5797 O 563.334 -1.21438 1.30824 0
M  V30 5798 C 560.434 -2.23263 2.54964 0
M  V30 5799 C 559.607 -2.07088 3.8527 0
M  V30 5800 C 558.666 -3.21876 4.16272 0
M  V30 5801 O 557.692 -2.96643 4.8579 0
M  V30 5802 N 558.894 -4.4712 3.70221 0
M  V30 5803 H 561.659 -0.469209 2.96004 0
M  V30 5804 H 559.22 -0.108725 1.61535 0
M  V30 5805 H 561.212 -2.9897 2.72762 0
M  V30 5806 H 559.782 -2.59649 1.74072 0
M  V30 5807 H 559.002 -1.15818 3.76802 0
M  V30 5808 H 560.29 -1.93537 4.70554 0
M  V30 5809 H 559.688 -4.70506 3.1407 0
M  V30 5810 H 558.245 -5.19837 3.93209 0
M  V30 5811 N 561.678 -1.56367 -0.196722 0
M  V30 5812 C 562.608 -1.97442 -1.24655 0
M  V30 5813 C 563.589 -0.846147 -1.47561 0
M  V30 5814 O 564.774 -1.11035 -1.59326 0
M  V30 5815 C 561.904 -2.31253 -2.59112 0
M  V30 5816 C 560.858 -3.46804 -2.50821 0
M  V30 5817 C 560.184 -3.66286 -3.89536 0
M  V30 5818 C 561.484 -4.8104 -2.03465 0
M  V30 5819 H 563.178 -2.85388 -0.905216 0
M  V30 5820 H 560.724 -1.37304 -0.434002 0
M  V30 5821 H 562.677 -2.58583 -3.32736 0
M  V30 5822 H 561.401 -1.40188 -2.94983 0
M  V30 5823 H 560.06 -3.19563 -1.79653 0
M  V30 5824 H 559.708 -2.72555 -4.22756 0
M  V30 5825 H 559.408 -4.4402 -3.84864 0
M  V30 5826 H 560.932 -3.9599 -4.64784 0
M  V30 5827 H 562.346 -5.07411 -2.66846 0
M  V30 5828 H 560.743 -5.62232 -2.09798 0
M  V30 5829 H 561.813 -4.74732 -0.98781 0
M  V30 5830 N 563.156 0.464375 -1.50603 0
M  V30 5831 C 564.405 1.21277 -1.61167 0
M  V30 5832 C 564.718 1.92953 -0.320704 0
M  V30 5833 O 565.924 2.69778 -0.30534 0
M  V30 5834 C 564.38 2.20403 -2.84518 0
M  V30 5835 C 563.988 1.54499 -4.20516 0
M  V30 5836 C 565.732 2.95843 -3.0443 0
M  V30 5837 C 563.639 2.51951 -5.35047 0
M  V30 5838 H 562.569 0.456367 -0.600204 0
M  V30 5839 H 565.22 0.48254 -1.77042 0
M  V30 5840 H 563.602 2.96746 -2.62217 0
M  V30 5841 H 564.776 0.83899 -4.53098 0
M  V30 5842 H 563.091 0.913152 -4.06264 0
M  V30 5843 H 565.688 3.6879 -3.87167 0
M  V30 5844 H 566.031 3.55622 -2.16423 0
M  V30 5845 H 566.564 2.26611 -3.26944 0
M  V30 5846 H 563.303 1.96901 -6.25228 0
M  V30 5847 H 562.823 3.20683 -5.06875 0
M  V30 5848 H 564.502 3.13643 -5.65895 0
M  V30 5849 N 564.634 1.40294 0.718013 0
M  V30 5850 C 565.582 1.40536 1.85344 0
M  V30 5851 C 566.576 0.286192 1.66965 0
M  V30 5852 O 567.782 0.457105 1.74099 0
M  V30 5853 H 564.157 0.439236 0.61039 0
M  V30 5854 H 566.128 2.36275 1.82255 0
M  V30 5855 C 564.877 1.28245 3.23185 0
M  V30 5856 H 564.2 2.1364 3.37932 0
M  V30 5857 H 565.64 1.32474 4.02774 0
M  V30 5858 C 564.099 -0.0075503 3.36899 0
M  V30 5859 O 564.629 -0.971391 3.89778 0
M  V30 5860 N 562.835 -0.0762479 2.905 0
M  V30 5861 H 562.382 0.708819 2.47656 0
M  V30 5862 H 562.34 -0.938846 3.00055 0
M  V30 5863 N 566.112 -0.949982 1.2575 0
M  V30 5864 C 567.342 -1.72721 1.13363 0
M  V30 5865 C 567.75 -1.86562 -0.314842 0
M  V30 5866 O 567.093 -1.36621 -1.22803 0
M  V30 5867 C 567.155 -3.15695 1.7198 0
M  V30 5868 C 566.819 -3.25268 3.21014 0
M  V30 5869 C 567.816 -3.09222 4.17945 0
M  V30 5870 C 565.501 -3.4894 3.61312 0
M  V30 5871 C 567.495 -3.16701 5.53154 0
M  V30 5872 C 565.182 -3.56055 4.96657 0
M  V30 5873 C 566.18 -3.3995 5.92387 0
M  V30 5874 O 565.868 -3.46757 7.25269 0
M  V30 5875 H 565.6 -0.547888 0.395973 0
M  V30 5876 H 568.154 -1.20009 1.66694 0
M  V30 5877 H 566.384 -3.69791 1.13101 0
M  V30 5878 H 568.073 -3.75295 1.54624 0
M  V30 5879 H 568.839 -2.90798 3.88151 0
M  V30 5880 H 564.718 -3.60534 2.87291 0
M  V30 5881 H 568.262 -3.04048 6.27854 0
M  V30 5882 H 564.159 -3.73997 5.26115 0
M  V30 5883 H 564.927 -3.63358 7.33426 0
M  V30 5884 N 567.59 -1.07411 -1.15328 0
M  V30 5885 C 568.82 -0.817595 -1.89734 0
M  V30 5886 C 569.228 0.63297 -1.78298 0
M  V30 5887 O 568.571 1.44594 -1.13306 0
M  V30 5888 C 568.633 -1.14748 -3.40695 0
M  V30 5889 C 568.297 -2.59876 -3.75917 0
M  V30 5890 C 569.294 -3.58122 -3.76888 0
M  V30 5891 C 566.979 -2.95469 -4.06206 0
M  V30 5892 C 568.973 -4.89996 -4.07655 0
M  V30 5893 C 566.66 -4.2754 -4.36638 0
M  V30 5894 C 567.658 -5.24614 -4.37344 0
M  V30 5895 O 567.346 -6.54312 -4.67045 0
M  V30 5896 H 567.078 -0.295175 -0.608151 0
M  V30 5897 H 569.632 -1.43409 -1.47048 0
M  V30 5898 H 567.862 -0.47395 -3.83785 0
M  V30 5899 H 569.551 -0.873397 -3.96392 0
M  V30 5900 H 570.317 -3.31966 -3.53587 0
M  V30 5901 H 566.196 -2.20558 -4.04815 0
M  V30 5902 H 569.74 -5.65759 -4.08121 0
M  V30 5903 H 565.637 -4.53449 -4.59407 0
M  V30 5904 H 566.405 -6.59473 -4.84807 0
M  V30 5905 N 569.068 1.32177 -0.85831 0
M  V30 5906 C 570.293 2.01847 -0.476718 0
M  V30 5907 C 570.718 1.64065 0.920021 0
M  V30 5908 O 570.076 0.843189 1.60499 0
M  V30 5909 C 570.124 3.55097 -0.627578 0
M  V30 5910 O 569.228 4.11012 0.338086 0
M  V30 5911 H 568.569 0.635907 -0.191099 0
M  V30 5912 H 571.099 1.68641 -1.15851 0
M  V30 5913 H 571.109 4.04718 -0.516476 0
M  V30 5914 H 569.784 3.81938 -1.64609 0
M  V30 5915 H 568.361 3.72451 0.182917 0
M  V30 5916 N 570.547 0.616602 1.45037 0
M  V30 5917 C 571.794 0.115331 2.02171 0
M  V30 5918 C 572.122 -1.25748 1.48383 0
M  V30 5919 O 571.377 -1.84511 0.652229 0
M  V30 5920 C 571.676 0.0356829 3.57382 0
M  V30 5921 C 571.342 1.34535 4.30362 0
M  V30 5922 C 570.004 1.70408 4.50016 0
M  V30 5923 C 572.356 2.21049 4.72003 0
M  V30 5924 C 569.684 2.92529 5.0857 0
M  V30 5925 C 572.036 3.42427 5.31908 0
M  V30 5926 C 570.7 3.78541 5.49784 0
M  V30 5927 H 569.97 0.0422024 0.739797 0
M  V30 5928 H 572.617 0.80002 1.73988 0
M  V30 5929 H 570.922 -0.732314 3.84895 0
M  V30 5930 H 572.619 -0.368463 3.99304 0
M  V30 5931 H 569.209 1.05615 4.15383 0
M  V30 5932 H 573.393 1.94632 4.56544 0
M  V30 5933 H 568.649 3.20605 5.20598 0
M  V30 5934 H 572.823 4.09709 5.63127 0
M  V30 5935 H 570.45 4.73255 5.94923 0
M  V30 5936 N 572.025 -1.5352 0.356285 0
M  V30 5937 C 573.25 -2.06007 -0.239961 0
M  V30 5938 C 573.675 -1.22872 -1.42422 0
M  V30 5939 O 573.033 -0.245516 -1.7963 0
M  V30 5940 C 573.081 -3.5522 -0.620587 0
M  V30 5941 O 572.185 -3.74864 -1.71902 0
M  V30 5942 H 571.526 -0.662961 -0.0371377 0
M  V30 5943 H 574.056 -1.98033 0.514194 0
M  V30 5944 H 574.066 -3.98081 -0.894197 0
M  V30 5945 H 572.741 -4.15175 0.245407 0
M  V30 5946 H 571.318 -3.43904 -1.44169 0
M  V30 5947 N 573.503 -0.0852151 -1.57369 0
M  V30 5948 C 574.733 0.588605 -1.98038 0
M  V30 5949 C 575.141 1.62869 -0.962817 0
M  V30 5950 O 574.484 1.83611 0.057134 0
M  V30 5951 C 574.546 1.30303 -3.35054 0
M  V30 5952 C 574.21 0.414855 -4.55113 0
M  V30 5953 C 575.207 -0.333011 -5.18832 0
M  V30 5954 C 572.892 0.335804 -5.01176 0
M  V30 5955 C 574.886 -1.14801 -6.26976 0
M  V30 5956 C 572.573 -0.482857 -6.09189 0
M  V30 5957 C 573.571 -1.22342 -6.71953 0
M  V30 5958 O 573.259 -2.02855 -7.77885 0
M  V30 5959 H 572.991 0.163249 -0.655992 0
M  V30 5960 H 575.545 -0.1582 -2.0479 0
M  V30 5961 H 573.775 2.0962 -3.24956 0
M  V30 5962 H 575.464 1.87041 -3.60237 0
M  V30 5963 H 576.23 -0.281611 -4.84182 0
M  V30 5964 H 572.109 0.901869 -4.52092 0
M  V30 5965 H 575.653 -1.72654 -6.75897 0
M  V30 5966 H 571.55 -0.535773 -6.43273 0
M  V30 5967 H 572.318 -1.95432 -7.94826 0
M  V30 5968 N 574.981 1.5647 0.188427 0
M  V30 5969 C 576.227 1.82181 0.904534 0
M  V30 5970 C 576.582 0.663258 1.80606 0
M  V30 5971 O 575.875 -0.341231 1.88537 0
M  V30 5972 C 576.069 3.11596 1.7505 0
M  V30 5973 C 575.898 4.39928 0.932372 0
M  V30 5974 C 574.668 5.01554 0.61417 0
M  V30 5975 C 576.866 5.13527 0.281936 0
M  V30 5976 N 574.848 6.13499 -0.221896 0
M  V30 5977 C 576.219 6.18603 -0.416037 0
M  V30 5978 C 578.274 4.97505 0.198345 0
M  V30 5979 C 576.977 7.09394 -1.18965 0
M  V30 5980 C 579.003 5.88725 -0.561887 0
M  V30 5981 C 578.365 6.93251 -1.24828 0
M  V30 5982 H 574.464 0.717858 0.310168 0
M  V30 5983 H 577.048 1.93932 0.172757 0
M  V30 5984 H 575.219 3.01068 2.45383 0
M  V30 5985 H 576.951 3.25369 2.4066 0
M  V30 5986 H 573.706 4.64174 0.940187 0
M  V30 5987 H 574.13 6.74065 -0.629735 0
M  V30 5988 H 578.772 4.16716 0.714665 0
M  V30 5989 H 576.49 7.8964 -1.71737 0
M  V30 5990 H 580.076 5.78401 -0.628009 0
M  V30 5991 H 578.956 7.62618 -1.82712 0
M  V30 5992 N 576.459 -0.456382 1.50847 0
M  V30 5993 C 577.706 -1.20736 1.62571 0
M  V30 5994 C 578.034 -1.9163 0.332904 0
M  V30 5995 O 577.289 -1.8343 -0.682058 0
M  V30 5996 C 577.588 -2.26336 2.76599 0
M  V30 5997 C 577.254 -1.7259 4.16562 0
M  V30 5998 C 575.916 -1.57654 4.54641 0
M  V30 5999 C 578.268 -1.32877 5.03977 0
M  V30 6000 C 575.596 -1.0145 5.77862 0
M  V30 6001 C 577.948 -0.7811 6.27759 0
M  V30 6002 C 576.612 -0.618488 6.64628 0
M  V30 6003 H 575.882 -0.441803 0.594888 0
M  V30 6004 H 578.529 -0.501169 1.84826 0
M  V30 6005 H 576.834 -3.0292 2.48489 0
M  V30 6006 H 578.531 -2.84227 2.82871 0
M  V30 6007 H 575.121 -1.85187 3.86528 0
M  V30 6008 H 579.305 -1.43245 4.75179 0
M  V30 6009 H 574.561 -0.876109 6.0509 0
M  V30 6010 H 578.735 -0.464783 6.94847 0
M  V30 6011 H 576.362 -0.180838 7.59985 0
M  V30 6012 N 577.937 -1.40673 -0.710563 0
M  V30 6013 C 579.184 -1.39222 -1.47049 0
M  V30 6014 C 579.512 0.0037691 -1.945 0
M  V30 6015 O 578.767 0.989224 -1.68857 0
M  V30 6016 C 579.066 -2.33253 -2.70791 0
M  V30 6017 C 578.732 -3.80406 -2.42079 0
M  V30 6018 C 577.394 -4.20496 -2.33959 0
M  V30 6019 C 579.746 -4.73375 -2.18094 0
M  V30 6020 C 577.074 -5.51584 -1.99929 0
M  V30 6021 C 579.426 -6.04768 -1.85576 0
M  V30 6022 C 578.09 -6.43895 -1.75941 0
M  V30 6023 H 577.36 -0.509449 -0.538092 0
M  V30 6024 H 580.007 -1.73363 -0.81348 0
M  V30 6025 H 578.312 -1.92314 -3.41354 0
M  V30 6026 H 580.009 -2.29412 -3.28894 0
M  V30 6027 H 576.599 -3.48645 -2.49288 0
M  V30 6028 H 580.783 -4.43217 -2.23321 0
M  V30 6029 H 576.039 -5.80797 -1.91011 0
M  V30 6030 H 580.213 -6.76318 -1.66033 0
M  V30 6031 H 577.84 -7.45387 -1.4934 0
M  V30 6032 N 579.415 0.9433 -1.26252 0
M  V30 6033 C 580.661 1.69175 -1.11837 0
M  V30 6034 C 580.994 1.91238 0.337891 0
M  V30 6035 O 580.269 1.49152 1.24836 0
M  V30 6036 C 580.552 3.06783 -1.88563 0
M  V30 6037 C 580.405 2.9206 -3.42083 0
M  V30 6038 C 581.724 4.06865 -1.67776 0
M  V30 6039 H 578.843 0.61399 -0.407658 0
M  V30 6040 H 581.485 1.09572 -1.55222 0
M  V30 6041 H 579.635 3.57663 -1.51689 0
M  V30 6042 H 581.307 2.48419 -3.88698 0
M  V30 6043 H 579.55 2.27731 -3.69217 0
M  V30 6044 H 580.221 3.89651 -3.90994 0
M  V30 6045 H 582.697 3.64939 -1.99897 0
M  V30 6046 H 581.573 5.01168 -2.23879 0
M  V30 6047 H 581.834 4.37705 -0.621816 0
M  V30 6048 N 580.893 1.08022 1.14757 0
M  V30 6049 C 582.141 0.805913 1.85336 0
M  V30 6050 C 582.462 -0.670162 1.83122 0
M  V30 6051 O 581.732 -1.48567 1.2769 0
M  V30 6052 H 580.312 0.295138 0.686223 0
M  V30 6053 H 582.974 1.36538 1.3908 0
M  V30 6054 H 582.07 1.14655 2.90277 0
M  V30 6055 N 582.371 -1.3172 0.865308 0
M  V30 6056 C 583.301 -2.31109 0.333302 0
M  V30 6057 C 584.282 -1.60148 -0.573301 0
M  V30 6058 O 585.467 -1.87882 -0.491305 0
M  V30 6059 C 582.597 -3.44104 -0.470078 0
M  V30 6060 C 581.551 -4.26623 0.343021 0
M  V30 6061 C 580.877 -5.31482 -0.585756 0
M  V30 6062 C 582.177 -4.98001 1.57456 0
M  V30 6063 H 583.871 -2.75855 1.1638 0
M  V30 6064 H 581.417 -1.3262 0.561069 0
M  V30 6065 H 583.37 -4.12682 -0.852752 0
M  V30 6066 H 582.094 -2.98112 -1.33404 0
M  V30 6067 H 580.753 -3.59707 0.707583 0
M  V30 6068 H 580.401 -4.81741 -1.44686 0
M  V30 6069 H 580.101 -5.87582 -0.0456494 0
M  V30 6070 H 581.625 -6.0292 -0.965375 0
M  V30 6071 H 583.039 -5.59201 1.26359 0
M  V30 6072 H 581.436 -5.63876 2.05339 0
M  V30 6073 H 582.506 -4.25253 2.32997 0
M  V30 6074 N 583.85 -0.624285 -1.44708 0
M  V30 6075 C 585.075 -0.131171 -2.06985 0
M  V30 6076 C 585.5 1.18234 -1.46295 0
M  V30 6077 O 584.858 1.72375 -0.561842 0
M  V30 6078 C 584.906 -0.0226724 -3.60593 0
M  V30 6079 O 584.01 1.02314 -3.99507 0
M  V30 6080 H 583.351 -0.0816556 -0.65896 0
M  V30 6081 H 585.88 -0.859027 -1.85693 0
M  V30 6082 H 585.891 0.170138 -4.07645 0
M  V30 6083 H 584.566 -0.981685 -4.04148 0
M  V30 6084 H 583.143 0.805452 -3.64097 0
M  V30 6085 N 585.328 1.53329 -0.364422 0
M  V30 6086 C 586.577 2.00421 0.226747 0
M  V30 6087 C 586.89 1.25581 1.49963 0
M  V30 6088 O 588.096 1.63256 2.16933 0
M  V30 6089 C 586.552 3.57017 0.454618 0
M  V30 6090 C 586.16 4.40734 -0.803568 0
M  V30 6091 C 587.904 4.12468 1.00351 0
M  V30 6092 C 585.811 5.8888 -0.545345 0
M  V30 6093 H 584.741 0.748787 0.0885082 0
M  V30 6094 H 587.392 1.7703 -0.482983 0
M  V30 6095 H 585.774 3.76558 1.22558 0
M  V30 6096 H 586.948 4.32967 -1.57723 0
M  V30 6097 H 585.263 3.96381 -1.27559 0
M  V30 6098 H 587.86 5.20783 1.212 0
M  V30 6099 H 588.203 3.6699 1.9653 0
M  V30 6100 H 588.736 3.96721 0.29274 0
M  V30 6101 H 585.475 6.38633 -1.47743 0
M  V30 6102 H 584.995 5.99499 0.189842 0
M  V30 6103 H 586.674 6.46776 -0.170425 0
M  V30 6104 N 586.806 0.0935595 1.57322 0
M  V30 6105 C 588.052 -0.571355 1.94585 0
M  V30 6106 C 588.385 -1.67929 0.975366 0
M  V30 6107 O 587.66 -1.94498 0.00816206 0
M  V30 6108 C 587.943 -1.12797 3.41978 0
M  V30 6109 C 587.796 -0.0251881 4.49793 0
M  V30 6110 C 589.115 -2.02682 3.90651 0
M  V30 6111 H 586.234 -0.206223 0.70756 0
M  V30 6112 H 588.876 0.163956 1.89291 0
M  V30 6113 H 587.026 -1.75461 3.4662 0
M  V30 6114 H 588.698 0.608979 4.57263 0
M  V30 6115 H 586.941 0.641399 4.29032 0
M  V30 6116 H 587.612 -0.455433 5.50118 0
M  V30 6117 H 590.088 -1.49925 3.88152 0
M  V30 6118 H 588.964 -2.38555 4.94351 0
M  V30 6119 H 589.225 -2.94362 3.29854 0
M  V30 6120 N 588.284 -1.56567 -0.180126 0
M  V30 6121 C 589.532 -1.81133 -0.896392 0
M  V30 6122 C 589.853 -0.669114 -1.83161 0
M  V30 6123 O 589.123 0.311616 -1.93406 0
M  V30 6124 H 587.703 -0.668172 -0.333999 0
M  V30 6125 H 590.365 -1.94048 -0.182051 0
M  V30 6126 H 589.461 -2.74854 -1.47857 0
M  V30 6127 N 589.762 0.448376 -1.51087 0
M  V30 6128 C 590.694 1.56146 -1.67783 0
M  V30 6129 C 591.707 1.52913 -0.55871 0
M  V30 6130 O 592.896 1.57889 -0.83267 0
M  V30 6131 C 589.996 2.95057 -1.66716 0
M  V30 6132 C 589.169 3.22915 -2.95033 0
M  V30 6133 C 588.228 4.41495 -2.86302 0
M  V30 6134 O 587.254 4.40688 -3.60254 0
M  V30 6135 N 588.456 5.44443 -2.014 0
M  V30 6136 H 591.221 1.42232 -2.638 0
M  V30 6137 H 588.782 0.637153 -1.48835 0
M  V30 6138 H 590.774 3.72388 -1.58458 0
M  V30 6139 H 589.344 3.02624 -0.783403 0
M  V30 6140 H 588.564 2.33985 -3.17245 0
M  V30 6141 H 589.852 3.38349 -3.79996 0
M  V30 6142 H 589.25 5.4793 -1.40674 0
M  V30 6143 H 587.807 6.2067 -1.99029 0
M  V30 6144 N 591.24 1.41047 0.703093 0
M  V30 6145 C 592.17 1.45067 1.82969 0
M  V30 6146 C 593.151 0.31016 1.67248 0
M  V30 6147 O 594.336 0.520548 1.87093 0
M  V30 6148 C 591.466 1.32478 3.2104 0
M  V30 6149 C 590.42 2.44262 3.51454 0
M  V30 6150 C 589.746 2.16742 4.88801 0
M  V30 6151 C 591.046 3.86606 3.51189 0
M  V30 6152 H 592.74 2.39353 1.79863 0
M  V30 6153 H 590.286 1.15206 0.863919 0
M  V30 6154 H 592.239 1.33904 3.99559 0
M  V30 6155 H 590.963 0.346735 3.24754 0
M  V30 6156 H 589.622 2.42107 2.75282 0
M  V30 6157 H 589.27 1.17299 4.89132 0
M  V30 6158 H 588.97 2.91643 5.10116 0
M  V30 6159 H 590.494 2.19872 5.69639 0
M  V30 6160 H 591.908 3.90517 4.19725 0
M  V30 6161 H 590.305 4.61128 3.84033 0
M  V30 6162 H 591.375 4.15296 2.50315 0
M  V30 6163 N 592.718 -0.936591 1.26751 0
M  V30 6164 C 593.948 -1.71509 1.15188 0
M  V30 6165 C 594.356 -1.86885 -0.295037 0
M  V30 6166 O 593.699 -1.37915 -1.21347 0
M  V30 6167 C 593.761 -3.13853 1.75318 0
M  V30 6168 C 593.425 -3.21845 3.24445 0
M  V30 6169 C 594.422 -3.04771 4.21201 0
M  V30 6170 C 592.107 -3.45088 3.64992 0
M  V30 6171 C 594.101 -3.10816 5.56482 0
M  V30 6172 C 591.788 -3.50767 5.00405 0
M  V30 6173 C 592.786 -3.33648 5.9596 0
M  V30 6174 O 592.474 -3.39045 7.28906 0
M  V30 6175 H 592.206 -0.543658 0.401761 0
M  V30 6176 H 594.76 -1.18234 1.67958 0
M  V30 6177 H 592.99 -3.6857 1.17016 0
M  V30 6178 H 594.679 -3.73634 1.58596 0
M  V30 6179 H 595.445 -2.86665 3.91214 0
M  V30 6180 H 591.324 -3.57467 2.91098 0
M  V30 6181 H 594.868 -2.97372 6.31043 0
M  V30 6182 H 590.765 -3.68396 5.30052 0
M  V30 6183 H 591.533 -3.55558 7.37238 0
M  V30 6184 N 594.196 -1.08629 -1.14182 0
M  V30 6185 C 595.126 -0.740003 -2.21464 0
M  V30 6186 C 596.107 0.278591 -1.67803 0
M  V30 6187 O 597.292 0.148461 -1.93632 0
M  V30 6188 C 594.422 -0.150952 -3.46972 0
M  V30 6189 C 593.376 -1.09815 -4.13672 0
M  V30 6190 C 592.702 -0.3712 -5.3341 0
M  V30 6191 C 594.002 -2.43722 -4.61949 0
M  V30 6192 H 595.696 -1.63697 -2.50686 0
M  V30 6193 H 593.242 -0.788526 -1.20492 0
M  V30 6194 H 595.195 0.103325 -4.21273 0
M  V30 6195 H 593.919 0.781164 -3.1712 0
M  V30 6196 H 592.578 -1.33756 -3.41328 0
M  V30 6197 H 592.226 0.564792 -4.99819 0
M  V30 6198 H 591.926 -1.00267 -5.78982 0
M  V30 6199 H 593.45 -0.12503 -6.10472 0
M  V30 6200 H 594.864 -2.24034 -5.27714 0
M  V30 6201 H 593.261 -3.02582 -5.18232 0
M  V30 6202 H 594.331 -3.05082 -3.76899 0
M  V30 6203 N 595.674 1.31259 -0.872281 0
M  V30 6204 C 597.09 1.49283 -0.564521 0
M  V30 6205 C 597.29 1.80243 0.900807 0
M  V30 6206 O 596.346 1.88246 1.68284 0
M  V30 6207 C 597.659 2.62503 -1.46673 0
M  V30 6208 C 599.207 2.76386 -1.46901 0
M  V30 6209 C 599.682 3.92705 -2.35684 0
M  V30 6210 N 601.173 3.99995 -2.33577 0
M  V30 6211 C 601.908 4.89276 -2.98992 0
M  V30 6212 N 601.404 5.83443 -3.73585 0
M  V30 6213 N 603.197 4.82541 -2.88289 0
M  V30 6214 H 595.348 1.09432 -1.82039 0
M  V30 6215 H 597.611 0.540949 -0.77851 0
M  V30 6216 H 597.317 2.46407 -2.50951 0
M  V30 6217 H 597.191 3.58695 -1.16696 0
M  V30 6218 H 599.578 2.91894 -0.433796 0
M  V30 6219 H 599.659 1.80853 -1.80903 0
M  V30 6220 H 599.303 3.77954 -3.39283 0
M  V30 6221 H 599.233 4.87549 -1.99006 0
M  V30 6222 H 601.724 3.32624 -1.7936 0
M  V30 6223 H 602.037 6.48303 -4.20622 0
M  V30 6224 H 600.382 5.83415 -3.77694 0
M  V30 6225 H 603.573 4.07951 -2.2955 0
M  V30 6226 H 603.746 5.51916 -3.39549 0
M  V30 6227 N 597.152 0.631951 1.44375 0
M  V30 6228 C 598.398 0.145491 2.02879 0
M  V30 6229 C 598.753 -1.21936 1.48827 0
M  V30 6230 O 598.046 -1.7976 0.663085 0
M  V30 6231 C 598.24 0.0735861 3.57324 0
M  V30 6232 C 598.069 1.42992 4.2636 0
M  V30 6233 C 596.839 2.01691 4.63302 0
M  V30 6234 C 599.037 2.36393 4.56752 0
M  V30 6235 N 597.019 3.30551 5.17309 0
M  V30 6236 C 598.39 3.49869 5.11851 0
M  V30 6237 C 600.445 2.35462 4.38705 0
M  V30 6238 C 599.148 4.6261 5.50803 0
M  V30 6239 C 601.174 3.47268 4.78706 0
M  V30 6240 C 600.536 4.59467 5.33919 0
M  V30 6241 H 596.635 0.0971781 0.775938 0
M  V30 6242 H 599.219 0.835624 1.75856 0
M  V30 6243 H 597.39 -0.585829 3.83957 0
M  V30 6244 H 599.122 -0.421777 4.02496 0
M  V30 6245 H 595.877 1.54627 4.47647 0
M  V30 6246 H 596.301 3.96435 5.48788 0
M  V30 6247 H 600.943 1.49966 3.9531 0
M  V30 6248 H 598.661 5.48813 5.93152 0
M  V30 6249 H 602.247 3.47724 4.66454 0
M  V30 6250 H 601.127 5.44551 5.64299 0
M  V30 6251 N 598.631 -1.53133 0.372548 0
M  V30 6252 C 599.578 -2.25951 -0.470631 0
M  V30 6253 C 600.548 -1.26895 -1.07176 0
M  V30 6254 O 601.733 -1.55691 -1.10294 0
M  V30 6255 C 598.873 -3.05726 -1.6008 0
M  V30 6256 C 597.986 -4.19684 -1.02416 0
M  V30 6257 C 597.121 -4.86888 -2.124 0
M  V30 6258 C 596.16 -5.92866 -1.52238 0
M  V30 6259 N 595.297 -6.53732 -2.56084 0
M  V30 6260 H 600.137 -2.97587 0.156816 0
M  V30 6261 H 597.674 -1.4683 0.0891571 0
M  V30 6262 H 599.632 -3.50258 -2.26661 0
M  V30 6263 H 598.262 -2.36331 -2.1988 0
M  V30 6264 H 597.314 -3.79588 -0.248426 0
M  V30 6265 H 598.626 -4.95821 -0.544366 0
M  V30 6266 H 597.78 -5.34638 -2.86787 0
M  V30 6267 H 596.519 -4.10239 -2.63734 0
M  V30 6268 H 595.524 -5.4447 -0.763685 0
M  V30 6269 H 596.749 -6.71439 -1.0172 0
M  V30 6270 H 594.695 -5.79932 -3.06618 0
M  V30 6271 H 594.612 -7.25429 -2.12811 0
M  V30 6272 H 595.88 -7.0613 -3.30152 0
M  V30 6273 N 600.109 -0.101901 -1.5727 0
M  V30 6274 C 601.019 0.868647 -2.17926 0
M  V30 6275 C 602.035 1.30527 -1.1506 0
M  V30 6276 O 603.211 1.37178 -1.47459 0
M  V30 6277 C 600.276 2.10727 -2.75309 0
M  V30 6278 C 599.337 1.7242 -3.93154 0
M  V30 6279 C 598.57 2.90377 -4.47791 0
M  V30 6280 O 598.793 4.05305 -4.01353 0
M  V30 6281 O 597.727 2.6845 -5.38719 0
M  V30 6282 H 601.553 0.382544 -3.01281 0
M  V30 6283 H 599.138 0.122812 -1.48894 0
M  V30 6284 H 601.02 2.83303 -3.11958 0
M  V30 6285 H 599.695 2.58376 -1.94996 0
M  V30 6286 H 598.602 0.970039 -3.61305 0
M  V30 6287 H 599.935 1.29528 -4.74851 0
M  V30 6288 N 601.587 1.56661 0.17182 0
M  V30 6289 C 602.998 1.71652 0.734329 0
M  V30 6290 C 603.349 0.712335 1.82812 0
M  V30 6291 O 602.474 -0.126401 2.16031 0
M  V30 6292 C 603.069 3.11226 1.3388 0
M  V30 6293 C 601.628 3.27904 1.84813 0
M  V30 6294 C 600.775 2.67603 0.726917 0
M  V30 6295 H 603.726 1.5861 -0.0535665 0
M  V30 6296 H 603.747 3.09849 2.20849 0
M  V30 6297 H 603.259 3.8429 0.54249 0
M  V30 6298 H 601.36 2.59796 2.6709 0
M  V30 6299 H 601.473 4.35637 1.99392 0
M  V30 6300 H 599.837 2.274 1.14723 0
M  V30 6301 H 600.62 3.43252 -0.0575334 0
M  V30 6302 N 603.065 -0.440357 1.51323 0
M  V30 6303 C 604.342 -1.20109 1.5438 0
M  V30 6304 C 604.722 -2.08866 0.306303 0
M  V30 6305 O 604.07 -2.1723 -0.708773 0
M  V30 6306 C 604.28 -2.00555 2.8562 0
M  V30 6307 C 605.628 -2.577 3.37455 0
M  V30 6308 O 606.652 -2.10769 2.8715 0
M  V30 6309 O 605.511 -3.43289 4.25224 0
M  V30 6310 H 602.605 -0.546668 0.620551 0
M  V30 6311 H 605.151 -0.449672 1.63634 0
M  V30 6312 H 603.923 -1.35346 3.67147 0
M  V30 6313 H 603.546 -2.82768 2.79514 0
M  V30 6314 N 604.543 -1.41418 -0.695603 0
M  V30 6315 C 605.959 -1.23887 -1.00619 0
M  V30 6316 C 606.159 -0.128206 -2.01092 0
M  V30 6317 O 605.215 0.507408 -2.47349 0
M  V30 6318 C 606.528 -2.58816 -1.53083 0
M  V30 6319 C 608.076 -2.65998 -1.64967 0
M  V30 6320 C 608.551 -4.01244 -2.20833 0
M  V30 6321 N 610.042 -4.0309 -2.28194 0
M  V30 6322 C 610.777 -5.04539 -2.72448 0
M  V30 6323 N 610.273 -6.16378 -3.16306 0
M  V30 6324 N 612.066 -4.91901 -2.72011 0
M  V30 6325 H 604.217 -2.12379 -0.0300061 0
M  V30 6326 H 606.48 -0.944958 -0.0758797 0
M  V30 6327 H 606.186 -3.40842 -0.867147 0
M  V30 6328 H 606.06 -2.81299 -2.51298 0
M  V30 6329 H 608.447 -1.84331 -2.30448 0
M  V30 6330 H 608.528 -2.47325 -0.652982 0
M  V30 6331 H 608.172 -4.83359 -1.55968 0
M  V30 6332 H 608.102 -4.17257 -3.21254 0
M  V30 6333 H 610.593 -3.22341 -1.97242 0
M  V30 6334 H 610.906 -6.89658 -3.487 0
M  V30 6335 H 609.251 -6.19914 -3.14215 0
M  V30 6336 H 612.442 -4.03613 -2.37095 0
M  V30 6337 H 612.615 -5.71102 -3.06181 0
M  V30 6338 N 606.021 0.929856 -1.27246 0
M  V30 6339 C 607.432 1.49223 -1.12203 0
M  V30 6340 C 607.783 1.93989 0.293731 0
M  V30 6341 O 606.908 1.80978 1.18642 0
M  V30 6342 C 607.503 2.71198 -2.0307 0
M  V30 6343 C 606.062 3.23666 -1.92139 0
M  V30 6344 C 605.209 1.96409 -1.95752 0
M  V30 6345 H 608.16 0.744181 -1.4017 0
M  V30 6346 H 608.181 3.45905 -1.58524 0
M  V30 6347 H 607.693 2.38585 -3.06102 0
M  V30 6348 H 605.794 3.61042 -0.920834 0
M  V30 6349 H 605.907 3.90006 -2.78267 0
M  V30 6350 H 604.271 2.12806 -1.39949 0
M  V30 6351 H 605.054 1.66113 -3.00436 0
M  V30 6352 N 607.499 1.09233 1.13605 0
M  V30 6353 C 608.915 0.82163 1.36826 0
M  V30 6354 C 609.115 -0.565021 1.93416 0
M  V30 6355 O 608.171 -1.32026 2.15234 0
M  V30 6356 C 609.484 1.91124 2.32147 0
M  V30 6357 C 611.032 1.93824 2.45767 0
M  V30 6358 C 611.507 3.01923 3.44393 0
M  V30 6359 N 612.998 3.01149 3.51942 0
M  V30 6360 C 613.733 3.81434 4.2813 0
M  V30 6361 N 613.229 4.71621 5.07489 0
M  V30 6362 N 615.022 3.69702 4.23411 0
M  V30 6363 H 607.173 1.98633 0.752234 0
M  V30 6364 H 609.436 0.862482 0.393482 0
M  V30 6365 H 609.142 2.90862 1.97717 0
M  V30 6366 H 609.016 1.78777 3.32142 0
M  V30 6367 H 611.403 0.94726 2.79483 0
M  V30 6368 H 611.484 2.10248 1.45703 0
M  V30 6369 H 611.128 4.01232 3.11408 0
M  V30 6370 H 611.058 2.82742 4.44257 0
M  V30 6371 H 613.549 2.35789 2.95317 0
M  V30 6372 H 613.862 5.29468 5.62924 0
M  V30 6373 H 612.207 4.75658 5.06729 0
M  V30 6374 H 615.398 2.98606 3.60489 0
M  V30 6375 H 615.571 4.32509 4.82535 0
M  V30 6376 N 608.977 -1.30795 0.87923 0
M  V30 6377 C 610.388 -1.78535 0.546093 0
M  V30 6378 C 610.739 -1.72354 -0.937467 0
M  V30 6379 O 609.864 -1.2969 -1.73233 0
M  V30 6380 C 610.459 -3.24181 0.9845 0
M  V30 6381 C 609.018 -3.69779 0.702871 0
M  V30 6382 C 608.165 -2.51377 1.17068 0
M  V30 6383 H 611.116 -1.17746 1.06403 0
M  V30 6384 H 611.137 -3.79227 0.311045 0
M  V30 6385 H 610.649 -3.28647 2.06429 0
M  V30 6386 H 608.75 -3.70806 -0.365166 0
M  V30 6387 H 608.863 -4.61507 1.28639 0
M  V30 6388 H 607.227 -2.47768 0.590172 0
M  V30 6389 H 608.01 -2.58584 2.25808 0
M  V30 6390 N 610.455 -0.639598 -1.44038 0
M  V30 6391 C 611.385 0.0469443 -2.33453 0
M  V30 6392 C 612.366 0.82609 -1.48694 0
M  V30 6393 O 613.551 0.790285 -1.77393 0
M  V30 6394 C 610.681 1.02338 -3.3188 0
M  V30 6395 C 609.635 0.355284 -4.26523 0
M  V30 6396 C 608.961 1.44221 -5.14883 0
M  V30 6397 C 610.261 -0.743798 -5.16977 0
M  V30 6398 H 611.955 -0.699735 -2.91108 0
M  V30 6399 H 609.501 -0.337946 -1.39978 0
M  V30 6400 H 611.454 1.51247 -3.93322 0
M  V30 6401 H 610.178 1.80105 -2.72451 0
M  V30 6402 H 608.837 -0.113239 -3.66425 0
M  V30 6403 H 608.485 2.21097 -4.51802 0
M  V30 6404 H 608.185 1.00052 -5.79019 0
M  V30 6405 H 609.709 1.93295 -5.79197 0
M  V30 6406 H 611.123 -0.337444 -5.72306 0
M  V30 6407 H 609.52 -1.10914 -5.89761 0
M  V30 6408 H 610.59 -1.60745 -4.57481 0
M  V30 6409 N 611.933 1.52934 -0.380664 0
M  V30 6410 C 612.88 2.26197 0.458641 0
M  V30 6411 C 613.85 1.27462 1.06502 0
M  V30 6412 O 615.035 1.56274 1.09467 0
M  V30 6413 C 612.175 3.06571 1.58456 0
M  V30 6414 C 611.288 4.20222 1.00189 0
M  V30 6415 C 610.423 4.88007 2.09815 0
M  V30 6416 C 609.462 5.93665 1.49092 0
M  V30 6417 N 608.599 6.55081 2.52613 0
M  V30 6418 H 613.439 2.975 -0.172595 0
M  V30 6419 H 610.976 1.4678 -0.0969426 0
M  V30 6420 H 612.934 3.51455 2.24801 0
M  V30 6421 H 611.564 2.37494 2.18624 0
M  V30 6422 H 610.616 3.79714 0.228292 0
M  V30 6423 H 611.928 4.96102 0.518064 0
M  V30 6424 H 611.082 5.36151 2.83948 0
M  V30 6425 H 609.821 4.11632 2.61555 0
M  V30 6426 H 608.826 5.44868 0.7348 0
M  V30 6427 H 610.051 6.71969 0.981582 0
M  V30 6428 H 607.997 5.8155 3.03538 0
M  V30 6429 H 607.914 7.26548 2.08961 0
M  V30 6430 H 609.182 7.07871 3.26402 0
M  V30 6431 N 613.412 0.11024 1.57214 0
M  V30 6432 C 614.342 -0.840002 2.17867 0
M  V30 6433 C 615.323 -1.28352 1.11624 0
M  V30 6434 O 616.508 -1.3477 1.39824 0
M  V30 6435 C 613.638 -2.09349 2.77111 0
M  V30 6436 C 612.592 -1.78807 3.8886 0
M  V30 6437 C 611.918 -3.11112 4.34872 0
M  V30 6438 C 613.218 -1.0632 5.11364 0
M  V30 6439 H 614.912 -0.334608 2.97524 0
M  V30 6440 H 612.458 -0.159502 1.43114 0
M  V30 6441 H 614.411 -2.76275 3.18198 0
M  V30 6442 H 613.135 -2.62198 1.9473 0
M  V30 6443 H 611.794 -1.14273 3.48335 0
M  V30 6444 H 611.442 -3.61877 3.49362 0
M  V30 6445 H 611.142 -2.91453 5.10224 0
M  V30 6446 H 612.666 -3.79171 4.78604 0
M  V30 6447 H 614.08 -1.63383 5.49526 0
M  V30 6448 H 612.477 -0.967876 5.92243 0
M  V30 6449 H 613.547 -0.0484569 4.84876 0
M  V30 6450 N 614.89 -1.56749 -0.16351 0
M  V30 6451 C 616.115 -1.86938 -0.898264 0
M  V30 6452 C 616.54 -0.697456 -1.74692 0
M  V30 6453 O 615.898 0.353327 -1.77824 0
M  V30 6454 C 615.946 -3.15599 -1.74441 0
M  V30 6455 O 615.05 -2.98371 -2.8469 0
M  V30 6456 H 614.391 -0.614659 -0.251178 0
M  V30 6457 H 616.921 -2.03979 -0.159298 0
M  V30 6458 H 616.931 -3.47202 -2.14277 0
M  V30 6459 H 615.606 -4.00505 -1.1211 0
M  V30 6460 H 614.183 -2.7814 -2.4838 0
M  V30 6461 N 616.368 0.432326 -1.51554 0
M  V30 6462 C 617.614 1.18309 -1.64714 0
M  V30 6463 C 617.947 1.90745 -0.364696 0
M  V30 6464 O 617.222 1.8381 0.635936 0
M  V30 6465 C 617.505 2.1961 -2.85383 0
M  V30 6466 C 617.358 1.51223 -4.23617 0
M  V30 6467 C 618.677 3.20538 -3.01569 0
M  V30 6468 H 615.796 0.428751 -0.599451 0
M  V30 6469 H 618.438 0.471689 -1.84052 0
M  V30 6470 H 616.588 2.8028 -2.69027 0
M  V30 6471 H 618.26 0.938516 -4.51652 0
M  V30 6472 H 616.503 0.814501 -4.26085 0
M  V30 6473 H 617.174 2.25024 -5.04052 0
M  V30 6474 H 619.65 2.69926 -3.16669 0
M  V30 6475 H 618.526 3.88706 -3.87555 0
M  V30 6476 H 618.787 3.86933 -2.13859 0
M  V30 6477 N 617.846 1.41785 0.688094 0
M  V30 6478 C 619.093 1.41544 1.44816 0
M  V30 6479 C 619.421 0.0271746 1.94481 0
M  V30 6480 O 618.676 -0.962235 1.7041 0
M  V30 6481 C 618.975 2.37532 2.67046 0
M  V30 6482 C 618.641 3.84209 2.35996 0
M  V30 6483 C 617.303 4.24165 2.27239 0
M  V30 6484 C 619.655 4.76785 2.10536 0
M  V30 6485 C 616.983 5.54695 1.91128 0
M  V30 6486 C 619.335 6.07644 1.75931 0
M  V30 6487 C 617.999 6.46613 1.65675 0
M  V30 6488 H 617.269 0.517945 0.529919 0
M  V30 6489 H 619.916 1.74635 0.785797 0
M  V30 6490 H 618.221 1.9772 3.38251 0
M  V30 6491 H 619.918 2.34615 3.25203 0
M  V30 6492 H 616.508 3.52567 2.4371 0
M  V30 6493 H 620.692 4.46714 2.16242 0
M  V30 6494 H 615.948 5.83762 1.81746 0
M  V30 6495 H 620.122 6.78874 1.55252 0
M  V30 6496 H 617.749 7.47668 1.37463 0
M  V30 6497 N 619.324 -0.923095 1.27737 0
M  V30 6498 C 620.571 -1.67127 1.14345 0
M  V30 6499 C 620.899 -1.92017 -0.30982 0
M  V30 6500 O 620.154 -1.51185 -1.24264 0
M  V30 6501 C 620.453 -3.04125 1.8773 0
M  V30 6502 C 620.119 -2.98929 3.37568 0
M  V30 6503 C 618.781 -2.9722 3.78436 0
M  V30 6504 C 621.133 -2.89875 4.33154 0
M  V30 6505 C 618.461 -2.84244 5.13247 0
M  V30 6506 C 620.813 -2.7844 5.68026 0
M  V30 6507 C 619.477 -2.75083 6.08182 0
M  V30 6508 H 618.747 -0.611562 0.418417 0
M  V30 6509 H 621.394 -1.07618 1.584 0
M  V30 6510 H 619.699 -3.67366 1.36196 0
M  V30 6511 H 621.396 -3.609 1.74792 0
M  V30 6512 H 617.986 -3.0105 3.05069 0
M  V30 6513 H 622.17 -2.9029 4.02548 0
M  V30 6514 H 617.426 -2.80034 5.43499 0
M  V30 6515 H 621.6 -2.70401 6.4176 0
M  V30 6516 H 619.227 -2.64786 7.12596 0
M  V30 6517 N 620.802 -1.09834 -1.13024 0
M  V30 6518 C 622.213 -0.855651 -1.65938 0
M  V30 6519 C 622.564 0.615159 -1.86307 0
M  V30 6520 O 621.689 1.47335 -1.58497 0
M  V30 6521 C 622.284 -1.5467 -3.01434 0
M  V30 6522 C 620.843 -1.35088 -3.51323 0
M  V30 6523 C 619.99 -1.6001 -2.26478 0
M  V30 6524 H 622.941 -1.25691 -0.968889 0
M  V30 6525 H 622.962 -0.982179 -3.67605 0
M  V30 6526 H 622.474 -2.61715 -2.86578 0
M  V30 6527 H 620.575 -0.30179 -3.71376 0
M  V30 6528 H 620.688 -2.0886 -4.31178 0
M  V30 6529 H 619.052 -1.02246 -2.33276 0
M  V30 6530 H 619.835 -2.68293 -2.14182 0
M  V30 6531 N 622.28 1.30327 -0.886154 0
M  V30 6532 C 623.529 1.95373 -0.501243 0
M  V30 6533 C 623.842 1.70722 0.954634 0
M  V30 6534 O 625.048 2.29761 1.44644 0
M  V30 6535 C 623.504 3.49828 -0.845493 0
M  V30 6536 C 623.112 3.83296 -2.31922 0
M  V30 6537 C 624.856 4.2118 -0.529838 0
M  V30 6538 C 622.763 5.30935 -2.60504 0
M  V30 6539 H 621.693 0.731274 -0.183722 0
M  V30 6540 H 624.344 1.48258 -1.08129 0
M  V30 6541 H 622.726 3.95522 -0.19452 0
M  V30 6542 H 623.9 3.48508 -3.01461 0
M  V30 6543 H 622.215 3.2505 -2.60253 0
M  V30 6544 H 624.812 5.29825 -0.720401 0
M  V30 6545 H 625.155 4.12902 0.530828 0
M  V30 6546 H 625.688 3.81173 -1.13806 0
M  V30 6547 H 622.427 5.44265 -3.65316 0
M  V30 6548 H 621.947 5.67019 -1.95575 0
M  V30 6549 H 623.626 5.98381 -2.46066 0
M  V30 6550 N 623.758 0.647228 1.43697 0
M  V30 6551 C 625.004 0.158422 2.0218 0
M  V30 6552 C 625.337 -1.22233 1.50907 0
M  V30 6553 O 624.612 -1.81478 0.699702 0
M  V30 6554 C 624.895 0.1627 3.59732 0
M  V30 6555 C 624.748 1.57694 4.21251 0
M  V30 6556 C 626.067 -0.504138 4.37203 0
M  V30 6557 H 623.186 0.059042 0.734631 0
M  V30 6558 H 625.828 0.826772 1.71069 0
M  V30 6559 H 623.978 -0.406414 3.86368 0
M  V30 6560 H 625.65 2.19618 4.05667 0
M  V30 6561 H 623.893 2.12603 3.7813 0
M  V30 6562 H 624.564 1.53183 5.3032 0
M  V30 6563 H 627.04 -0.0199841 4.16095 0
M  V30 6564 H 625.916 -0.470394 5.46881 0
M  V30 6565 H 626.177 -1.57726 4.13007 0
M  V30 6566 N 625.236 -1.5273 0.388769 0
M  V30 6567 C 626.483 -2.01573 -0.19359 0
M  V30 6568 C 626.811 -1.27525 -1.46859 0
M  V30 6569 O 626.066 -0.363926 -1.92286 0
M  V30 6570 C 626.365 -3.53765 -0.508445 0
M  V30 6571 C 626.031 -4.4582 0.674947 0
M  V30 6572 C 624.693 -4.70703 0.999596 0
M  V30 6573 C 627.045 -5.00138 1.46666 0
M  V30 6574 C 624.373 -5.47155 2.11751 0
M  V30 6575 C 626.725 -5.77812 2.57518 0
M  V30 6576 C 625.389 -6.00975 2.90492 0
M  V30 6577 H 624.659 -0.737606 -0.0708397 0
M  V30 6578 H 627.306 -1.84134 0.526006 0
M  V30 6579 H 625.611 -3.69274 -1.30936 0
M  V30 6580 H 627.308 -3.8905 -0.971664 0
M  V30 6581 H 623.898 -4.26616 0.411906 0
M  V30 6582 H 628.082 -4.8084 1.22909 0
M  V30 6583 H 623.338 -5.63314 2.3767 0
M  V30 6584 H 627.512 -6.18904 3.19267 0
M  V30 6585 H 625.139 -6.59998 3.77236 0
M  V30 6586 N 626.714 -0.118576 -1.57153 0
M  V30 6587 C 627.954 0.542618 -1.97066 0
M  V30 6588 C 628.318 1.63874 -1.00046 0
M  V30 6589 O 629.519 2.3588 -1.28895 0
M  V30 6590 C 627.79 1.06196 -3.41258 0
M  V30 6591 S 629.349 1.73174 -4.03183 0
M  V30 6592 H 626.167 0.17638 -0.688775 0
M  V30 6593 H 628.769 -0.203556 -1.94437 0
M  V30 6594 H 627.473 0.253016 -4.09619 0
M  V30 6595 H 627.004 1.84342 -3.47536 0
M  V30 6596 H 629.019 3.01749 -3.93906 0
M  V30 6597 N 628.193 1.56834 0.155195 0
M  V30 6598 C 629.123 2.00678 1.19376 0
M  V30 6599 C 630.104 0.884973 1.45266 0
M  V30 6600 O 631.289 1.1522 1.56326 0
M  V30 6601 C 628.419 2.38042 2.5289 0
M  V30 6602 C 627.373 3.53332 2.41538 0
M  V30 6603 C 626.699 3.76485 3.79688 0
M  V30 6604 C 627.999 4.86265 1.9064 0
M  V30 6605 H 629.693 2.87688 0.829232 0
M  V30 6606 H 627.239 1.38407 0.397445 0
M  V30 6607 H 629.192 2.67314 3.25763 0
M  V30 6608 H 627.916 1.4796 2.91162 0
M  V30 6609 H 626.575 3.24213 1.71117 0
M  V30 6610 H 626.223 2.83667 4.15382 0
M  V30 6611 H 625.923 4.54068 3.72956 0
M  V30 6612 H 627.447 4.08174 4.54122 0
M  V30 6613 H 628.861 5.14308 2.53299 0
M  V30 6614 H 627.258 5.67597 1.94818 0
M  V30 6615 H 628.328 4.77184 0.861596 0
M  V30 6616 N 629.671 -0.424282 1.51781 0
M  V30 6617 C 630.911 -1.18194 1.66762 0
M  V30 6618 C 631.275 -1.88164 0.381857 0
M  V30 6619 O 632.476 -2.65692 0.407586 0
M  V30 6620 C 630.747 -2.16173 2.84612 0
M  V30 6621 S 632.306 -3.0025 3.19993 0
M  V30 6622 H 629.124 -0.400626 0.587384 0
M  V30 6623 H 631.726 -0.471499 1.89729 0
M  V30 6624 H 630.43 -1.6343 3.76455 0
M  V30 6625 H 629.961 -2.91778 2.63873 0
M  V30 6626 H 631.976 -4.1796 2.67439 0
M  V30 6627 N 631.149 -1.42148 -0.680565 0
M  V30 6628 C 632.377 -1.45696 -1.46902 0
M  V30 6629 C 632.792 -0.0665858 -1.88683 0
M  V30 6630 O 632.149 0.917436 -1.57764 0
M  V30 6631 C 632.2 -2.37898 -2.72188 0
M  V30 6632 O 631.921 -3.71526 -2.32163 0
M  V30 6633 C 633.422 -2.50407 -3.65802 0
M  V30 6634 H 630.642 -0.495729 -0.45221 0
M  V30 6635 H 633.186 -1.866 -0.836709 0
M  V30 6636 H 631.341 -2.00263 -3.31622 0
M  V30 6637 H 631.755 -4.20849 -3.13027 0
M  V30 6638 H 633.229 -3.19056 -4.50452 0
M  V30 6639 H 633.706 -1.5401 -4.11312 0
M  V30 6640 H 634.312 -2.8874 -3.12265 0
M  V30 6641 N 632.627 0.916307 -1.28225 0
M  V30 6642 C 633.876 1.65975 -1.14608 0
M  V30 6643 C 634.189 1.93204 0.305191 0
M  V30 6644 O 635.395 2.65611 0.562432 0
M  V30 6645 C 633.851 2.98989 -2.00333 0
M  V30 6646 C 633.459 2.79417 -3.50186 0
M  V30 6647 C 635.203 3.76856 -1.95397 0
M  V30 6648 C 633.11 4.08056 -4.28071 0
M  V30 6649 H 632.04 0.622587 -0.425324 0
M  V30 6650 H 634.691 1.01705 -1.52736 0
M  V30 6651 H 633.073 3.6438 -1.5506 0
M  V30 6652 H 634.247 2.22723 -4.034 0
M  V30 6653 H 632.562 2.14966 -3.56621 0
M  V30 6654 H 635.159 4.72203 -2.50856 0
M  V30 6655 H 635.502 4.05776 -0.930137 0
M  V30 6656 H 636.035 3.1828 -2.38626 0
M  V30 6657 H 632.774 3.8431 -5.31024 0
M  V30 6658 H 632.294 4.64371 -3.79631 0
M  V30 6659 H 633.973 4.76333 -4.37854 0
M  V30 6660 N 634.105 1.10431 1.1244 0
M  V30 6661 C 635.352 0.846717 1.83948 0
M  V30 6662 C 635.68 -0.627709 1.84093 0
M  V30 6663 O 634.935 -1.47876 1.28184 0
M  V30 6664 C 635.234 1.34022 3.3132 0
M  V30 6665 C 634.9 2.82606 3.51347 0
M  V30 6666 C 633.562 3.23182 3.56521 0
M  V30 6667 C 635.914 3.78356 3.58464 0
M  V30 6668 C 633.242 4.58258 3.66356 0
M  V30 6669 C 635.594 5.13234 3.69829 0
M  V30 6670 C 634.258 5.53384 3.73259 0
M  V30 6671 H 633.528 0.309836 0.673114 0
M  V30 6672 H 636.175 1.38091 1.32677 0
M  V30 6673 H 634.48 0.726047 3.85014 0
M  V30 6674 H 636.177 1.11739 3.85118 0
M  V30 6675 H 632.767 2.50212 3.47983 0
M  V30 6676 H 636.951 3.48115 3.53737 0
M  V30 6677 H 632.207 4.88787 3.67284 0
M  V30 6678 H 636.381 5.87272 3.74279 0
M  V30 6679 H 634.008 6.58045 3.80633 0
M  V30 6680 N 635.583 -1.29855 0.893053 0
M  V30 6681 C 636.513 -2.3035 0.382249 0
M  V30 6682 C 637.494 -1.61328 -0.539203 0
M  V30 6683 O 638.679 -1.88882 -0.451342 0
M  V30 6684 C 635.809 -3.45024 -0.396983 0
M  V30 6685 C 634.763 -4.258 0.433437 0
M  V30 6686 C 634.089 -5.32605 -0.472889 0
M  V30 6687 C 635.389 -4.94549 1.67984 0
M  V30 6688 H 637.083 -2.73325 1.22205 0
M  V30 6689 H 634.629 -1.314 0.589073 0
M  V30 6690 H 636.582 -4.14398 -0.765024 0
M  V30 6691 H 635.306 -3.00875 -1.2705 0
M  V30 6692 H 633.965 -3.58125 0.783723 0
M  V30 6693 H 633.613 -4.84702 -1.34435 0
M  V30 6694 H 633.313 -5.87547 0.0789958 0
M  V30 6695 H 634.837 -6.04832 -0.837269 0
M  V30 6696 H 636.251 -5.56395 1.38192 0
M  V30 6697 H 634.648 -5.59393 2.17254 0
M  V30 6698 H 635.718 -4.20215 2.41965 0
M  V30 6699 N 637.061 -0.65484 -1.43351 0
M  V30 6700 C 638.307 -0.169142 -2.02093 0
M  V30 6701 C 638.64 1.21431 -1.51553 0
M  V30 6702 O 637.915 1.81105 -0.709317 0
M  V30 6703 C 638.198 -0.181775 -3.59641 0
M  V30 6704 C 638.051 -1.59926 -4.20409 0
M  V30 6705 C 639.37 0.480945 -4.37464 0
M  V30 6706 H 636.489 -0.0629371 -0.734308 0
M  V30 6707 H 639.131 -0.835833 -1.70628 0
M  V30 6708 H 637.281 0.385918 -3.86578 0
M  V30 6709 H 638.953 -2.21766 -4.04497 0
M  V30 6710 H 637.196 -2.14605 -3.76998 0
M  V30 6711 H 637.867 -1.55994 -5.295 0
M  V30 6712 H 640.343 -0.00208273 -4.161 0
M  V30 6713 H 639.219 0.441384 -5.47122 0
M  V30 6714 H 639.48 1.55533 -4.13838 0
M  V30 6715 N 638.539 1.52521 -0.396863 0
M  V30 6716 C 639.502 2.2527 0.422604 0
M  V30 6717 C 640.502 1.27184 0.983913 0
M  V30 6718 O 641.692 1.51222 0.864723 0
M  V30 6719 C 638.824 3.01356 1.59365 0
M  V30 6720 H 640.017 2.99133 -0.214416 0
M  V30 6721 H 637.57 1.55587 -0.149128 0
M  V30 6722 H 638.305 2.31813 2.26789 0
M  V30 6723 H 638.09 3.73357 1.19779 0
M  V30 6724 H 639.58 3.56571 2.17363 0
M  V30 6725 N 640.017 0.126909 1.57088 0
M  V30 6726 C 641.263 -0.529952 1.95753 0
M  V30 6727 C 641.596 -1.65823 1.01077 0
M  V30 6728 O 640.871 -1.94437 0.0494162 0
M  V30 6729 C 641.154 -1.05517 3.44294 0
M  V30 6730 C 641.007 0.0702253 4.49745 0
M  V30 6731 C 642.326 -1.9435 3.94862 0
M  V30 6732 H 639.445 -0.191168 0.711775 0
M  V30 6733 H 642.087 0.204071 1.88901 0
M  V30 6734 H 640.237 -1.68069 3.50264 0
M  V30 6735 H 641.909 0.705834 4.55868 0
M  V30 6736 H 640.152 0.732259 4.27575 0
M  V30 6737 H 640.823 -0.338642 5.5096 0
M  V30 6738 H 643.299 -1.41658 3.91244 0
M  V30 6739 H 642.175 -2.28015 4.993 0
M  V30 6740 H 642.436 -2.87299 3.36024 0
M  V30 6741 N 641.495 -1.56914 -0.146875 0
M  V30 6742 C 642.906 -1.72799 -0.706928 0
M  V30 6743 C 643.257 -0.741329 -1.81656 0
M  V30 6744 O 642.382 0.0920162 -2.16204 0
M  V30 6745 C 642.977 -3.13317 -1.28911 0
M  V30 6746 C 641.536 -3.30803 -1.79573 0
M  V30 6747 C 640.683 -2.68725 -0.684252 0
M  V30 6748 H 643.634 -1.58504 0.0787931 0
M  V30 6749 H 643.655 -3.13323 -2.15891 0
M  V30 6750 H 643.167 -3.85104 -0.481284 0
M  V30 6751 H 641.268 -2.64012 -2.62923 0
M  V30 6752 H 641.381 -4.38754 -1.92436 0
M  V30 6753 H 639.745 -2.29196 -1.11091 0
M  V30 6754 H 640.528 -3.43117 0.112134 0
M  V30 6755 N 642.974 0.416227 -1.52004 0
M  V30 6756 C 643.904 1.51365 -1.77795 0
M  V30 6757 C 644.885 1.58059 -0.628601 0
M  V30 6758 O 646.07 1.73447 -0.873478 0
M  V30 6759 C 643.2 2.89256 -1.92219 0
M  V30 6760 C 642.154 2.97415 -3.0778 0
M  V30 6761 C 641.48 4.37492 -3.07417 0
M  V30 6762 C 642.78 2.69551 -4.47369 0
M  V30 6763 H 644.474 1.30033 -2.69688 0
M  V30 6764 H 642.02 0.624112 -1.29772 0
M  V30 6765 H 643.973 3.66008 -2.08845 0
M  V30 6766 H 642.697 3.11866 -0.969917 0
M  V30 6767 H 641.356 2.23107 -2.90893 0
M  V30 6768 H 641.004 4.571 -2.09925 0
M  V30 6769 H 640.704 4.43877 -3.85029 0
M  V30 6770 H 642.228 5.16188 -3.26162 0
M  V30 6771 H 643.642 3.36028 -4.64497 0
M  V30 6772 H 642.039 2.87321 -5.26846 0
M  V30 6773 H 643.109 1.65029 -4.55953 0
M  V30 6774 N 644.452 1.42507 0.673017 0
M  V30 6775 C 645.682 1.46261 1.45916 0
M  V30 6776 C 646.09 0.0729724 1.89059 0
M  V30 6777 O 645.433 -0.922987 1.58829 0
M  V30 6778 C 645.495 2.32853 2.73898 0
M  V30 6779 C 645.159 3.80699 2.52819 0
M  V30 6780 C 646.156 4.72307 2.17306 0
M  V30 6781 C 643.841 4.24983 2.67758 0
M  V30 6782 C 645.835 6.06192 1.97003 0
M  V30 6783 C 643.522 5.58927 2.4707 0
M  V30 6784 C 644.52 6.49348 2.11746 0
M  V30 6785 O 644.208 7.80817 1.91259 0
M  V30 6786 H 643.94 0.499561 0.455428 0
M  V30 6787 H 646.494 1.87697 0.834196 0
M  V30 6788 H 644.724 1.86268 3.38882 0
M  V30 6789 H 646.413 2.28041 3.35786 0
M  V30 6790 H 647.179 4.39378 2.05359 0
M  V30 6791 H 643.058 3.54893 2.94231 0
M  V30 6792 H 646.602 6.76731 1.69355 0
M  V30 6793 H 642.499 5.91429 2.58615 0
M  V30 6794 H 643.267 7.92194 2.05843 0
M  V30 6795 N 645.93 -0.909495 1.28709 0
M  V30 6796 C 647.155 -1.69801 1.1909 0
M  V30 6797 C 647.58 -1.86479 -0.246388 0
M  V30 6798 O 646.938 -1.37802 -1.17815 0
M  V30 6799 C 646.986 -3.06543 1.89904 0
M  V30 6800 O 646.09 -3.94268 1.2094 0
M  V30 6801 H 645.431 -0.519783 0.413185 0
M  V30 6802 H 647.961 -1.13689 1.70106 0
M  V30 6803 H 647.971 -3.56748 1.97977 0
M  V30 6804 H 646.646 -2.93722 2.94449 0
M  V30 6805 H 645.223 -3.52702 1.2106 0
M  V30 6806 N 647.408 -1.11026 -1.11852 0
M  V30 6807 C 648.685 -0.768347 -1.79877 0
M  V30 6808 C 649.065 0.744261 -1.97545 0
M  V30 6809 O 648.413 1.67271 -1.55669 0
M  V30 6810 C 648.623 -1.52648 -3.13846 0
M  V30 6811 C 649.971 -1.70297 -3.88953 0
M  V30 6812 O 650.995 -1.49037 -3.23522 0
M  V30 6813 O 649.854 -2.05593 -5.06353 0
M  V30 6814 H 646.948 -0.277891 -0.778913 0
M  V30 6815 H 649.494 -1.21343 -1.18633 0
M  V30 6816 H 648.266 -2.55564 -2.96315 0
M  V30 6817 H 647.889 -1.07466 -3.82801 0
M  V30 6818 N 648.886 1.2938 -0.899927 0
M  V30 6819 C 650.114 1.99691 -0.541386 0
M  V30 6820 C 650.529 1.67355 0.873936 0
M  V30 6821 O 649.886 0.918728 1.57688 0
M  V30 6822 C 649.937 3.54168 -0.72438 0
M  V30 6823 O 649.658 3.85359 -2.08399 0
M  V30 6824 C 651.159 4.41746 -0.370819 0
M  V30 6825 H 648.379 0.638037 -0.207726 0
M  V30 6826 H 650.923 1.6491 -1.20934 0
M  V30 6827 H 649.078 3.87261 -0.103607 0
M  V30 6828 H 649.492 4.80032 -2.11352 0
M  V30 6829 H 650.966 5.49256 -0.549693 0
M  V30 6830 H 651.443 4.33712 0.692148 0
M  V30 6831 H 652.049 4.14125 -0.968543 0
M  V30 6832 N 650.364 0.662433 1.43002 0
M  V30 6833 C 651.613 0.176873 2.00923 0
M  V30 6834 C 651.926 -1.21954 1.52927 0
M  V30 6835 O 653.132 -1.80081 2.03182 0
M  V30 6836 C 651.588 0.265379 3.5892 0
M  V30 6837 C 651.196 1.66507 4.15908 0
M  V30 6838 C 652.94 -0.162103 4.2419 0
M  V30 6839 C 650.847 1.707 5.66229 0
M  V30 6840 H 649.777 0.0623627 0.751417 0
M  V30 6841 H 652.428 0.825813 1.63868 0
M  V30 6842 H 650.81 -0.451235 3.93421 0
M  V30 6843 H 651.984 2.40777 3.92891 0
M  V30 6844 H 650.299 2.03932 3.63044 0
M  V30 6845 H 652.896 -0.150745 5.34487 0
M  V30 6846 H 653.239 -1.19519 3.98774 0
M  V30 6847 H 653.772 0.503075 3.94606 0
M  V30 6848 H 650.511 2.7195 5.96426 0
M  V30 6849 H 650.031 1.00768 5.91275 0
M  V30 6850 H 651.71 1.45487 6.3043 0
M  V30 6851 N 651.842 -1.52309 0.404946 0
M  V30 6852 C 652.79 -2.28452 -0.437321 0
M  V30 6853 C 653.784 -1.32975 -1.04948 0
M  V30 6854 O 654.99 -1.50451 -0.988159 0
M  V30 6855 H 651.365 -0.734824 -0.159805 0
M  V30 6856 H 653.336 -2.97542 0.22615 0
M  V30 6857 C 652.085 -3.11536 -1.54404 0
M  V30 6858 H 651.408 -3.84871 -1.08233 0
M  V30 6859 H 652.848 -3.67926 -2.10729 0
M  V30 6860 C 651.307 -2.24833 -2.50902 0
M  V30 6861 O 651.837 -1.88574 -3.54687 0
M  V30 6862 N 650.043 -1.88685 -2.21012 0
M  V30 6863 H 649.59 -2.18371 -1.36646 0
M  V30 6864 H 649.548 -1.30966 -2.85824 0
M  V30 6865 N 653.32 -0.135238 -1.57019 0
M  V30 6866 C 654.545 0.529343 -2.00531 0
M  V30 6867 C 654.97 1.58391 -1.01459 0
M  V30 6868 O 654.328 1.81296 0.0113986 0
M  V30 6869 C 654.376 1.11748 -3.42848 0
M  V30 6870 O 653.48 2.23267 -3.46736 0
M  V30 6871 H 652.821 0.130669 -0.651016 0
M  V30 6872 H 655.351 -0.228503 -2.0332 0
M  V30 6873 H 655.361 1.44905 -3.81401 0
M  V30 6874 H 654.036 0.345147 -4.14465 0
M  V30 6875 H 652.613 1.91428 -3.20015 0
M  V30 6876 N 654.798 1.5699 0.138552 0
M  V30 6877 C 655.728 2.01933 1.17241 0
M  V30 6878 C 656.709 0.90033 1.44319 0
M  V30 6879 O 657.894 1.16872 1.55095 0
M  V30 6880 C 655.024 2.40711 2.50351 0
M  V30 6881 C 653.978 3.55874 2.37776 0
M  V30 6882 C 653.304 3.80491 3.75674 0
M  V30 6883 C 654.604 4.8826 1.85472 0
M  V30 6884 H 656.298 2.88551 0.798672 0
M  V30 6885 H 653.844 1.3882 0.382743 0
M  V30 6886 H 655.797 2.70754 3.22909 0
M  V30 6887 H 654.521 1.5104 2.89576 0
M  V30 6888 H 653.18 3.2601 1.67669 0
M  V30 6889 H 652.828 2.88057 4.12349 0
M  V30 6890 H 652.528 4.57998 3.68119 0
M  V30 6891 H 654.052 4.12967 4.49767 0
M  V30 6892 H 655.466 5.16965 2.4783 0
M  V30 6893 H 653.863 5.69631 1.88787 0
M  V30 6894 H 654.933 4.78071 0.810935 0
M  V30 6895 N 656.276 -0.40816 1.52223 0
M  V30 6896 C 657.525 -1.15212 1.65557 0
M  V30 6897 C 657.838 -1.9163 0.392096 0
M  V30 6898 O 659.044 -2.68458 0.405256 0
M  V30 6899 C 657.5 -2.09691 2.92502 0
M  V30 6900 C 657.108 -1.38785 4.25961 0
M  V30 6901 C 658.852 -2.8434 3.152 0
M  V30 6902 C 656.759 -2.31919 5.44029 0
M  V30 6903 H 655.689 -0.433776 0.616729 0
M  V30 6904 H 658.34 -0.4165 1.78711 0
M  V30 6905 H 656.722 -2.8681 2.7305 0
M  V30 6906 H 657.896 -0.670248 4.55899 0
M  V30 6907 H 656.211 -0.761741 4.09373 0
M  V30 6908 H 658.808 -3.54166 4.00587 0
M  V30 6909 H 659.151 -3.47344 2.29473 0
M  V30 6910 H 659.684 -2.14321 3.35129 0
M  V30 6911 H 656.423 -1.7356 6.32105 0
M  V30 6912 H 655.943 -3.0165 5.18428 0
M  V30 6913 H 657.622 -2.92424 5.77146 0
M  V30 6914 N 657.755 -1.42862 -0.66545 0
M  V30 6915 C 659.003 -1.43546 -1.42264 0
M  V30 6916 C 659.324 -0.0563116 -1.94919 0
M  V30 6917 O 658.594 0.906568 -1.73661 0
M  V30 6918 H 657.174 -0.528464 -0.527953 0
M  V30 6919 H 659.836 -1.78363 -0.785665 0
M  V30 6920 H 658.932 -2.14079 -2.27105 0
M  V30 6921 N 659.233 0.902656 -1.29189 0
M  V30 6922 C 660.482 1.6475 -1.16362 0
M  V30 6923 C 660.795 1.93517 0.284682 0
M  V30 6924 O 662.001 2.66192 0.534229 0
M  V30 6925 C 660.457 2.96848 -2.03493 0
M  V30 6926 C 660.065 2.75687 -3.5313 0
M  V30 6927 C 661.809 3.74762 -1.99383 0
M  V30 6928 C 659.716 4.03492 -4.32375 0
M  V30 6929 H 658.646 0.618041 -0.431904 0
M  V30 6930 H 661.297 1.0008 -1.53806 0
M  V30 6931 H 659.679 3.62715 -1.58916 0
M  V30 6932 H 660.853 2.18431 -4.05739 0
M  V30 6933 H 659.168 2.11171 -3.58881 0
M  V30 6934 H 661.765 4.69515 -2.5585 0
M  V30 6935 H 662.108 4.04767 -0.973123 0
M  V30 6936 H 662.641 3.15732 -2.41988 0
M  V30 6937 H 659.38 3.78656 -5.3507 0
M  V30 6938 H 658.9 4.60318 -3.84535 0
M  V30 6939 H 660.579 4.71662 -4.42881 0
M  V30 6940 N 660.711 1.11618 1.11262 0
M  V30 6941 C 661.674 0.779447 2.15539 0
M  V30 6942 C 662.674 -0.202081 1.59525 0
M  V30 6943 O 663.864 0.0226356 1.74185 0
M  V30 6944 C 660.996 0.15674 3.40539 0
M  V30 6945 H 662.189 1.70324 2.4684 0
M  V30 6946 H 659.742 0.918298 1.26479 0
M  V30 6947 H 660.477 -0.777186 3.1485 0
M  V30 6948 H 660.262 0.863308 3.82478 0
M  V30 6949 H 661.752 -0.062661 4.17553 0
M  V30 6950 N 662.189 -1.289 0.906776 0
M  V30 6951 C 663.438 -1.9455 0.532262 0
M  V30 6952 C 663.751 -1.72219 -0.927353 0
M  V30 6953 O 664.957 -2.32033 -1.40971 0
M  V30 6954 C 663.413 -3.48438 0.901041 0
M  V30 6955 C 663.021 -3.79558 2.37991 0
M  V30 6956 C 664.765 -4.20284 0.596777 0
M  V30 6957 C 662.672 -5.26723 2.68918 0
M  V30 6958 H 661.602 -0.728259 0.195333 0
M  V30 6959 H 664.253 -1.46519 1.10474 0
M  V30 6960 H 662.635 -3.95162 0.257419 0
M  V30 6961 H 663.809 -3.43668 3.06967 0
M  V30 6962 H 662.124 -3.20868 2.65391 0
M  V30 6963 H 664.721 -5.28612 0.8046 0
M  V30 6964 H 665.064 -4.13694 -0.465072 0
M  V30 6965 H 665.597 -3.79315 1.19855 0
M  V30 6966 H 662.336 -5.38384 3.73928 0
M  V30 6967 H 661.856 -5.63836 2.04571 0
M  V30 6968 H 663.535 -5.94391 2.55555 0
M  V30 6969 N 663.667 -0.670007 -1.42649 0
M  V30 6970 C 664.63 0.00204659 -2.292 0
M  V30 6971 C 665.63 0.733817 -1.4308 0
M  V30 6972 O 666.82 0.57254 -1.64522 0
M  V30 6973 C 663.952 1.01359 -3.25483 0
M  V30 6974 H 665.145 -0.759696 -2.90118 0
M  V30 6975 H 662.698 -0.432105 -1.50208 0
M  V30 6976 H 663.433 1.80399 -2.69493 0
M  V30 6977 H 663.218 0.492323 -3.88997 0
M  V30 6978 H 664.708 1.4824 -3.90403 0
M  V30 6979 N 665.145 1.52092 -0.413018 0
M  V30 6980 C 666.075 2.30021 0.401567 0
M  V30 6981 C 667.056 1.34395 1.04269 0
M  V30 6982 O 668.241 1.63304 1.05097 0
M  V30 6983 C 665.371 3.12447 1.51638 0
M  V30 6984 C 664.325 4.16153 1.00005 0
M  V30 6985 C 663.651 4.86948 2.20875 0
M  V30 6986 C 664.951 5.22275 0.0513757 0
M  V30 6987 H 666.645 2.98365 -0.248704 0
M  V30 6988 H 664.191 1.4349 -0.121052 0
M  V30 6989 H 666.144 3.65733 2.09326 0
M  V30 6990 H 664.868 2.41879 2.19458 0
M  V30 6991 H 663.527 3.63882 0.445549 0
M  V30 6992 H 663.175 4.12905 2.8726 0
M  V30 6993 H 662.875 5.57057 1.86978 0
M  V30 6994 H 664.399 5.43048 2.79162 0
M  V30 6995 H 665.813 5.70778 0.537176 0
M  V30 6996 H 664.21 5.9977 -0.198977 0
M  V30 6997 H 665.28 4.76611 -0.892736 0
M  V30 6998 N 666.623 0.143563 1.56945 0
M  V30 6999 C 667.848 -0.518701 2.00809 0
M  V30 7000 C 668.273 -1.5785 1.02298 0
M  V30 7001 O 667.631 -1.813 -0.0017839 0
M  V30 7002 C 667.679 -1.09929 3.43436 0
M  V30 7003 O 666.783 -2.21425 3.47915 0
M  V30 7004 H 666.124 -0.127215 0.6517 0
M  V30 7005 H 668.654 0.239283 2.03196 0
M  V30 7006 H 668.664 -1.4288 3.82164 0
M  V30 7007 H 667.339 -0.323162 4.14643 0
M  V30 7008 H 665.916 -1.89728 3.21026 0
M  V30 7009 N 668.101 -1.57061 -0.130224 0
M  V30 7010 C 669.349 -1.83893 -0.838313 0
M  V30 7011 C 669.67 -0.727046 -1.80939 0
M  V30 7012 O 668.94 0.249927 -1.94299 0
M  V30 7013 H 667.52 -0.67846 -0.312573 0
M  V30 7014 H 670.182 -1.94529 -0.120224 0
M  V30 7015 H 669.278 -2.79419 -1.39038 0
M  V30 7016 N 669.579 0.400081 -1.52437 0
M  V30 7017 C 670.509 1.4947 -1.7939 0
M  V30 7018 C 671.49 1.57383 -0.645329 0
M  V30 7019 O 672.675 1.72511 -0.891826 0
M  V30 7020 C 669.805 2.87201 -1.95276 0
M  V30 7021 C 668.759 2.94134 -3.10917 0
M  V30 7022 C 668.085 4.34207 -3.1204 0
M  V30 7023 C 669.385 2.64791 -4.50203 0
M  V30 7024 H 671.079 1.27165 -2.71052 0
M  V30 7025 H 668.625 0.610312 -1.30427 0
M  V30 7026 H 670.578 3.63772 -2.12715 0
M  V30 7027 H 669.302 3.10819 -1.00294 0
M  V30 7028 H 667.961 2.20009 -2.93243 0
M  V30 7029 H 667.609 4.54848 -2.14761 0
M  V30 7030 H 667.309 4.39768 -3.89715 0
M  V30 7031 H 668.833 5.127 -3.31619 0
M  V30 7032 H 670.247 3.31083 -4.68035 0
M  V30 7033 H 668.644 2.81717 -5.29864 0
M  V30 7034 H 669.714 1.60184 -4.57678 0
M  V30 7035 N 671.057 1.43213 0.657864 0
M  V30 7036 C 672.468 1.39669 1.23893 0
M  V30 7037 C 672.819 0.0984217 1.95953 0
M  V30 7038 O 671.944 -0.8023 2.00978 0
M  V30 7039 C 672.539 2.53004 2.25332 0
M  V30 7040 C 671.098 2.5274 2.78926 0
M  V30 7041 C 670.245 2.30941 1.53497 0
M  V30 7042 H 673.196 1.52181 0.450172 0
M  V30 7043 H 673.217 2.24226 3.07413 0
M  V30 7044 H 672.729 3.4748 1.72856 0
M  V30 7045 H 670.83 1.6213 3.35477 0
M  V30 7046 H 670.943 3.50352 3.26787 0
M  V30 7047 H 669.307 1.7952 1.80678 0
M  V30 7048 H 670.09 3.27496 1.02963 0
M  V30 7049 N 672.536 -0.895792 1.29666 0
M  V30 7050 C 673.783 -1.64664 1.17864 0
M  V30 7051 C 674.111 -1.92631 -0.26902 0
M  V30 7052 O 673.366 -1.53787 -1.21029 0
M  V30 7053 C 673.665 -3.00075 1.94139 0
M  V30 7054 C 673.331 -2.91702 3.43833 0
M  V30 7055 C 671.993 -2.89126 3.84656 0
M  V30 7056 C 674.345 -2.80622 4.39205 0
M  V30 7057 C 671.673 -2.73293 5.1916 0
M  V30 7058 C 674.025 -2.66329 5.73805 0
M  V30 7059 C 672.689 -2.62121 6.1388 0
M  V30 7060 H 671.959 -0.602549 0.431295 0
M  V30 7061 H 674.606 -1.04234 1.60648 0
M  V30 7062 H 672.911 -3.64394 1.43958 0
M  V30 7063 H 674.608 -3.57111 1.82408 0
M  V30 7064 H 671.198 -2.94511 3.11386 0
M  V30 7065 H 675.382 -2.81686 4.08615 0
M  V30 7066 H 670.638 -2.68443 5.49316 0
M  V30 7067 H 674.812 -2.56727 6.47352 0
M  V30 7068 H 672.439 -2.49611 7.18052 0
M  V30 7069 N 674.014 -1.12206 -1.10668 0
M  V30 7070 C 675.244 -0.897332 -1.86095 0
M  V30 7071 C 675.652 0.556778 -1.80822 0
M  V30 7072 O 674.995 1.39658 -1.19337 0
M  V30 7073 C 675.057 -1.29095 -3.35522 0
M  V30 7074 C 674.721 -2.75586 -3.64556 0
M  V30 7075 C 675.718 -3.73785 -3.6136 0
M  V30 7076 C 673.403 -3.12432 -3.93309 0
M  V30 7077 C 675.397 -5.06845 -3.86506 0
M  V30 7078 C 673.084 -4.45675 -4.18111 0
M  V30 7079 C 674.082 -5.42691 -4.147 0
M  V30 7080 O 673.77 -6.73532 -4.38873 0
M  V30 7081 H 673.502 -0.320704 -0.595084 0
M  V30 7082 H 676.056 -1.49517 -1.40833 0
M  V30 7083 H 674.286 -0.636299 -3.81429 0
M  V30 7084 H 675.975 -1.04073 -3.92331 0
M  V30 7085 H 676.741 -3.46664 -3.39189 0
M  V30 7086 H 672.62 -2.3753 -3.95096 0
M  V30 7087 H 676.164 -5.82559 -3.83758 0
M  V30 7088 H 672.061 -4.72526 -4.39761 0
M  V30 7089 H 672.829 -6.79442 -4.564 0
M  V30 7090 N 675.492 1.28418 -0.913599 0
M  V30 7091 C 676.739 1.94981 -0.546674 0
M  V30 7092 C 677.067 1.7192 0.909606 0
M  V30 7093 O 676.322 1.03314 1.66207 0
M  V30 7094 C 676.621 3.48283 -0.802099 0
M  V30 7095 C 676.287 3.91444 -2.2379 0
M  V30 7096 C 674.949 4.02939 -2.63046 0
M  V30 7097 C 677.301 4.13542 -3.17227 0
M  V30 7098 C 674.629 4.3391 -3.94891 0
M  V30 7099 C 676.981 4.45992 -4.48636 0
M  V30 7100 C 675.645 4.55698 -4.87746 0
M  V30 7101 H 674.915 0.713487 -0.200042 0
M  V30 7102 H 677.562 1.52756 -1.15489 0
M  V30 7103 H 675.867 3.91643 -0.111076 0
M  V30 7104 H 677.564 3.97903 -0.497375 0
M  V30 7105 H 674.154 3.83024 -1.9233 0
M  V30 7106 H 678.338 4.04114 -2.88107 0
M  V30 7107 H 673.594 4.39631 -4.24894 0
M  V30 7108 H 677.768 4.62038 -5.21051 0
M  V30 7109 H 675.395 4.79451 -5.89942 0
M  V30 7110 N 676.97 0.677563 1.42291 0
M  V30 7111 C 677.9 0.014968 2.33495 0
M  V30 7112 C 678.881 -0.786376 1.50831 0
M  V30 7113 O 680.066 -0.742975 1.79426 0
M  V30 7114 C 677.196 -0.935023 3.34477 0
M  V30 7115 C 676.15 -0.242074 4.27315 0
M  V30 7116 C 675.476 -1.30519 5.18526 0
M  V30 7117 C 676.776 0.880604 5.14823 0
M  V30 7118 H 678.47 0.776671 2.89151 0
M  V30 7119 H 676.016 0.37494 1.39033 0
M  V30 7120 H 677.969 -1.40766 3.97194 0
M  V30 7121 H 676.693 -1.72818 2.77131 0
M  V30 7122 H 675.352 0.210351 3.65996 0
M  V30 7123 H 675 -2.09041 4.57505 0
M  V30 7124 H 674.7 -0.846652 5.81468 0
M  V30 7125 H 676.224 -1.7787 5.84119 0
M  V30 7126 H 677.638 0.489062 5.7121 0
M  V30 7127 H 676.035 1.26511 5.86613 0
M  V30 7128 H 677.105 1.72818 4.53059 0
M  V30 7129 N 678.448 -1.51871 0.421078 0
M  V30 7130 C 679.697 -2.01125 -0.152206 0
M  V30 7131 C 680.01 -1.3106 -1.45199 0
M  V30 7132 O 681.216 -1.71195 -2.10724 0
M  V30 7133 C 679.672 -3.58458 -0.3218 0
M  V30 7134 C 679.28 -4.37448 0.96659 0
M  V30 7135 C 681.024 -4.15908 -0.84973 0
M  V30 7136 C 678.931 -5.86451 0.763529 0
M  V30 7137 H 677.861 -0.751556 -0.0606565 0
M  V30 7138 H 680.512 -1.75115 0.548354 0
M  V30 7139 H 678.894 -3.80847 -1.08498 0
M  V30 7140 H 680.068 -4.26814 1.73684 0
M  V30 7141 H 678.383 -3.91373 1.42183 0
M  V30 7142 H 680.98 -5.24922 -1.01788 0
M  V30 7143 H 681.323 -3.74031 -1.82774 0
M  V30 7144 H 681.856 -3.97535 -0.145297 0
M  V30 7145 H 678.595 -6.3271 1.71344 0
M  V30 7146 H 678.115 -5.99791 0.0327889 0
M  V30 7147 H 679.794 -6.45697 0.410354 0
M  V30 7148 N 679.926 -0.151884 -1.56866 0
M  V30 7149 C 681.175 0.497992 -1.95456 0
M  V30 7150 C 681.488 1.6569 -1.03953 0
M  V30 7151 O 682.694 2.37173 -1.32142 0
M  V30 7152 C 681.15 0.93732 -3.4748 0
M  V30 7153 C 680.758 -0.194921 -4.47576 0
M  V30 7154 C 682.502 1.55671 -3.94926 0
M  V30 7155 C 680.409 0.26295 -5.90815 0
M  V30 7156 H 679.339 0.189811 -0.729717 0
M  V30 7157 H 681.99 -0.237011 -1.81963 0
M  V30 7158 H 680.372 1.72773 -3.56322 0
M  V30 7159 H 681.546 -0.971951 -4.50433 0
M  V30 7160 H 679.861 -0.72303 -4.10075 0
M  V30 7161 H 682.458 1.91099 -4.99385 0
M  V30 7162 H 682.801 2.44748 -3.36755 0
M  V30 7163 H 683.334 0.831109 -3.89021 0
M  V30 7164 H 680.073 -0.592568 -6.52816 0
M  V30 7165 H 679.593 1.00575 -5.91308 0
M  V30 7166 H 681.272 0.713333 -6.43056 0
M  V30 7167 N 681.404 1.57128 0.121893 0
M  V30 7168 C 682.82 1.52357 0.47534 0
M  V30 7169 C 683.02 0.864417 1.82017 0
M  V30 7170 O 682.076 0.445529 2.48538 0
M  V30 7171 C 683.389 2.97122 0.4625 0
M  V30 7172 C 684.937 3.08196 0.546255 0
M  V30 7173 C 685.412 4.54516 0.563833 0
M  V30 7174 N 686.903 4.58959 0.625353 0
M  V30 7175 C 687.638 5.69585 0.660354 0
M  V30 7176 N 687.134 6.89714 0.653175 0
M  V30 7177 N 688.927 5.57685 0.703143 0
M  V30 7178 H 681.078 1.98364 -0.75931 0
M  V30 7179 H 683.341 0.905777 -0.279772 0
M  V30 7180 H 683.047 3.48706 -0.457943 0
M  V30 7181 H 682.921 3.54406 1.29136 0
M  V30 7182 H 685.308 2.56617 1.45712 0
M  V30 7183 H 685.389 2.53912 -0.310234 0
M  V30 7184 H 685.033 5.06741 -0.342974 0
M  V30 7185 H 684.963 5.06609 1.43716 0
M  V30 7186 H 687.454 3.72489 0.637182 0
M  V30 7187 H 687.767 7.69781 0.682425 0
M  V30 7188 H 686.112 6.92223 0.620646 0
M  V30 7189 H 689.303 4.62744 0.706095 0
M  V30 7190 H 689.476 6.43909 0.726952 0
M  V30 7191 N 682.882 -0.391992 1.52647 0
M  V30 7192 C 684.128 -1.139 1.67793 0
M  V30 7193 C 684.461 -1.89711 0.41514 0
M  V30 7194 O 683.736 -1.85431 -0.586979 0
M  V30 7195 C 684.019 -2.11966 2.91105 0
M  V30 7196 C 683.872 -1.39939 4.27478 0
M  V30 7197 C 685.191 -3.1243 3.09961 0
M  V30 7198 H 682.31 -0.412707 0.610608 0
M  V30 7199 H 684.952 -0.422725 1.85238 0
M  V30 7200 H 683.102 -2.73048 2.76364 0
M  V30 7201 H 684.774 -0.818439 4.53982 0
M  V30 7202 H 683.017 -0.701246 4.28095 0
M  V30 7203 H 683.688 -2.1158 5.09841 0
M  V30 7204 H 686.164 -2.61435 3.23714 0
M  V30 7205 H 685.04 -3.78294 3.97725 0
M  V30 7206 H 685.301 -3.81127 2.24042 0
M  V30 7207 N 684.36 -1.4356 -0.65026 0
M  V30 7208 C 685.771 -1.40324 -1.2315 0
M  V30 7209 C 686.122 -0.108812 -1.95898 0
M  V30 7210 O 685.247 0.79163 -2.01401 0
M  V30 7211 C 685.842 -2.54195 -2.23987 0
M  V30 7212 C 684.401 -2.54215 -2.77582 0
M  V30 7213 C 683.548 -2.31752 -1.5227 0
M  V30 7214 H 686.499 -1.52418 -0.442095 0
M  V30 7215 H 686.52 -2.25854 -3.0622 0
M  V30 7216 H 686.032 -3.48392 -1.71011 0
M  V30 7217 H 684.133 -1.63907 -3.34612 0
M  V30 7218 H 684.246 -3.52081 -3.24925 0
M  V30 7219 H 682.61 -1.80476 -1.79723 0
M  V30 7220 H 683.393 -3.28037 -1.01225 0
M  V30 7221 N 685.838 0.888903 -1.30139 0
M  V30 7222 C 686.748 2.02705 -1.18101 0
M  V30 7223 C 687.764 1.73702 -0.101809 0
M  V30 7224 O 688.94 1.98906 -0.315984 0
M  V30 7225 C 686.005 3.35616 -0.869651 0
M  V30 7226 C 685.066 3.78067 -2.03381 0
M  V30 7227 C 684.299 5.04635 -1.73721 0
M  V30 7228 O 684.522 5.66531 -0.663267 0
M  V30 7229 O 683.456 5.43399 -2.58845 0
M  V30 7230 H 687.282 2.15788 -2.13704 0
M  V30 7231 H 684.867 1.01426 -1.09695 0
M  V30 7232 H 686.749 4.15358 -0.711043 0
M  V30 7233 H 685.424 3.23651 0.0565002 0
M  V30 7234 H 684.331 2.99046 -2.24772 0
M  V30 7235 H 685.664 3.94631 -2.94155 0
M  V30 7236 N 687.317 1.12792 1.10072 0
M  V30 7237 C 688.267 0.768086 2.14673 0
M  V30 7238 C 689.251 -0.234716 1.59179 0
M  V30 7239 O 690.443 -0.039643 1.76956 0
M  V30 7240 C 687.572 0.228472 3.42539 0
M  V30 7241 C 686.658 1.25979 4.04957 0
M  V30 7242 N 687.049 2.4586 4.42025 0
M  V30 7243 C 685.347 1.10602 4.32069 0
M  V30 7244 C 686.048 3.11747 4.9111 0
M  V30 7245 N 685.024 2.39185 4.88151 0
M  V30 7246 H 688.826 1.68029 2.4113 0
M  V30 7247 H 686.34 1.00925 1.27232 0
M  V30 7248 H 688.337 -0.0475216 4.16873 0
M  V30 7249 H 686.997 -0.678136 3.1754 0
M  V30 7250 H 688.008 2.83215 4.33601 0
M  V30 7251 H 684.685 0.257021 4.16708 0
M  V30 7252 H 686.075 4.13862 5.29309 0
M  V30 7253 N 688.795 -1.27931 0.920396 0
M  V30 7254 C 689.742 -2.27085 0.412422 0
M  V30 7255 C 690.712 -1.57858 -0.516725 0
M  V30 7256 O 691.897 -1.85717 -0.437475 0
M  V30 7257 C 689.037 -3.43466 -0.335399 0
M  V30 7258 C 688.15 -4.27425 0.627017 0
M  V30 7259 C 687.285 -5.31016 -0.139916 0
M  V30 7260 C 686.324 -6.06641 0.815683 0
M  V30 7261 N 685.461 -7.02052 0.0818439 0
M  V30 7262 H 690.301 -2.69913 1.26298 0
M  V30 7263 H 687.838 -1.32732 0.634076 0
M  V30 7264 H 689.796 -4.09744 -0.785226 0
M  V30 7265 H 688.426 -3.01611 -1.15025 0
M  V30 7266 H 687.478 -3.6113 1.19537 0
M  V30 7267 H 688.79 -4.79969 1.35763 0
M  V30 7268 H 687.944 -6.03208 -0.649998 0
M  V30 7269 H 686.683 -4.79257 -0.903543 0
M  V30 7270 H 685.688 -5.33294 1.33708 0
M  V30 7271 H 686.913 -6.60489 1.57897 0
M  V30 7272 H 684.859 -6.52634 -0.663671 0
M  V30 7273 H 684.776 -7.52249 0.752163 0
M  V30 7274 H 686.044 -7.78432 -0.407825 0
M  V30 7275 N 690.273 -0.685099 -1.4193 0
M  V30 7276 C 691.689 -0.355632 -1.55587 0
M  V30 7277 C 691.889 1.13823 -1.66273 0
M  V30 7278 O 690.945 1.92387 -1.63534 0
M  V30 7279 C 692.258 -1.09498 -2.80055 0
M  V30 7280 C 693.806 -1.07831 -2.93839 0
M  V30 7281 C 694.281 -1.79919 -4.21181 0
M  V30 7282 N 695.772 -1.76837 -4.28115 0
M  V30 7283 C 696.507 -2.29463 -5.25485 0
M  V30 7284 N 696.003 -2.90516 -6.28945 0
M  V30 7285 N 697.796 -2.19779 -5.17353 0
M  V30 7286 H 689.947 -1.65412 -1.33239 0
M  V30 7287 H 692.21 -0.697453 -0.642078 0
M  V30 7288 H 691.916 -2.14997 -2.78333 0
M  V30 7289 H 691.79 -0.666813 -3.71259 0
M  V30 7290 H 694.177 -0.0316152 -2.95083 0
M  V30 7291 H 694.258 -1.54545 -2.03837 0
M  V30 7292 H 693.902 -2.84562 -4.20698 0
M  V30 7293 H 693.832 -1.30647 -5.10136 0
M  V30 7294 H 696.323 -1.32315 -3.53979 0
M  V30 7295 H 696.636 -3.28266 -6.99615 0
M  V30 7296 H 694.981 -2.94589 -6.29478 0
M  V30 7297 H 698.172 -1.71763 -4.35448 0
M  V30 7298 H 698.345 -2.61097 -5.9307 0
M  V30 7299 N 691.751 1.51645 -0.429126 0
M  V30 7300 C 693.162 1.86665 0.0359003 0
M  V30 7301 C 693.513 1.34677 1.42676 0
M  V30 7302 O 692.638 0.694195 2.04963 0
M  V30 7303 C 693.233 3.38724 0.0719221 0
M  V30 7304 C 691.792 3.7331 0.481336 0
M  V30 7305 C 690.939 2.75313 -0.331329 0
M  V30 7306 H 693.89 1.44987 -0.645333 0
M  V30 7307 H 693.911 3.7011 0.883118 0
M  V30 7308 H 693.423 3.76532 -0.940495 0
M  V30 7309 H 691.524 3.41088 1.49966 0
M  V30 7310 H 691.637 4.78631 0.211837 0
M  V30 7311 H 690.001 2.53839 0.209204 0
M  V30 7312 H 690.784 3.15963 -1.34247 0
M  V30 7313 N 693.229 0.160201 1.56784 0
M  V30 7314 C 694.159 -0.770264 2.2043 0
M  V30 7315 C 695.14 -1.24736 1.15651 0
M  V30 7316 O 696.325 -1.30253 1.44041 0
M  V30 7317 C 693.455 -2.00427 2.83631 0
M  V30 7318 C 692.409 -1.66345 3.94352 0
M  V30 7319 C 691.735 -2.97119 4.4455 0
M  V30 7320 C 693.035 -0.899972 5.14488 0
M  V30 7321 H 694.729 -0.239783 2.98438 0
M  V30 7322 H 692.275 -0.113891 1.43549 0
M  V30 7323 H 694.228 -2.66012 3.26827 0
M  V30 7324 H 692.952 -2.5587 2.02973 0
M  V30 7325 H 691.611 -1.03133 3.51794 0
M  V30 7326 H 691.259 -3.5058 3.60698 0
M  V30 7327 H 690.959 -2.75073 5.19238 0
M  V30 7328 H 692.483 -3.63753 4.90425 0
M  V30 7329 H 693.897 -1.45818 5.54446 0
M  V30 7330 H 692.294 -0.778968 5.95023 0
M  V30 7331 H 693.364 0.105827 4.84785 0
M  V30 7332 N 694.707 -1.5719 -0.113559 0
M  V30 7333 C 695.937 -1.89053 -0.833212 0
M  V30 7334 C 696.345 -0.750139 -1.73694 0
M  V30 7335 O 695.688 0.287808 -1.81431 0
M  V30 7336 C 695.75 -3.15986 -1.71443 0
M  V30 7337 C 695.414 -4.46271 -0.984449 0
M  V30 7338 C 696.411 -5.18897 -0.322741 0
M  V30 7339 C 694.096 -4.92963 -0.964011 0
M  V30 7340 C 696.09 -6.3644 0.349646 0
M  V30 7341 C 693.777 -6.10422 -0.287828 0
M  V30 7342 C 694.775 -6.82009 0.36784 0
M  V30 7343 O 694.463 -7.97233 1.03322 0
M  V30 7344 H 694.195 -0.630225 -0.244526 0
M  V30 7345 H 696.749 -2.05152 -0.100847 0
M  V30 7346 H 694.979 -2.95984 -2.48858 0
M  V30 7347 H 696.668 -3.33826 -2.309 0
M  V30 7348 H 697.434 -4.83875 -0.330114 0
M  V30 7349 H 693.313 -4.37143 -1.46379 0
M  V30 7350 H 696.857 -6.92254 0.861996 0
M  V30 7351 H 692.754 -6.449 -0.278237 0
M  V30 7352 H 693.522 -8.13105 0.938247 0
M  V30 7353 N 696.185 0.383891 -1.52853 0
M  V30 7354 C 697.115 1.47559 -1.80965 0
M  V30 7355 C 698.096 1.5669 -0.661986 0
M  V30 7356 O 699.281 1.71556 -0.910072 0
M  V30 7357 C 696.411 2.85114 -1.98312 0
M  V30 7358 C 695.365 2.9082 -3.14019 0
M  V30 7359 C 694.691 4.30873 -3.16627 0
M  V30 7360 C 695.991 2.60001 -4.52986 0
M  V30 7361 H 697.685 1.24283 -2.72386 0
M  V30 7362 H 695.231 0.596445 -1.31067 0
M  V30 7363 H 697.184 3.61496 -2.16561 0
M  V30 7364 H 695.908 3.09738 -1.03585 0
M  V30 7365 H 694.567 2.16886 -2.9556 0
M  V30 7366 H 694.215 4.52545 -2.19573 0
M  V30 7367 H 693.915 4.3561 -3.94357 0
M  V30 7368 H 695.439 5.09154 -3.37038 0
M  V30 7369 H 696.853 3.261 -4.71521 0
M  V30 7370 H 695.25 2.76081 -5.32822 0
M  V30 7371 H 696.32 1.5532 -4.59351 0
M  V30 7372 N 697.663 1.43903 0.642637 0
M  V30 7373 C 699.079 1.27536 0.959519 0
M  V30 7374 C 699.279 0.202751 2.00477 0
M  V30 7375 O 698.335 -0.415256 2.49062 0
M  V30 7376 C 699.648 2.6432 1.43372 0
M  V30 7377 C 701.196 2.71937 1.54981 0
M  V30 7378 C 701.671 4.09164 2.05789 0
M  V30 7379 N 703.162 4.11282 2.13076 0
M  V30 7380 C 703.897 5.14303 2.53534 0
M  V30 7381 N 703.393 6.27693 2.93212 0
M  V30 7382 N 705.186 5.01657 2.53567 0
M  V30 7383 H 697.337 2.12344 -0.0488376 0
M  V30 7384 H 699.6 0.947124 0.0407559 0
M  V30 7385 H 699.306 3.43826 0.740048 0
M  V30 7386 H 699.18 2.90432 2.40685 0
M  V30 7387 H 701.567 1.92757 2.23448 0
M  V30 7388 H 701.648 2.49578 0.560739 0
M  V30 7389 H 701.292 4.88815 1.37921 0
M  V30 7390 H 701.222 4.28893 3.05546 0
M  V30 7391 H 703.713 3.2944 1.85143 0
M  V30 7392 H 704.026 7.02125 3.22863 0
M  V30 7393 H 702.371 6.31149 2.90991 0
M  V30 7394 H 705.562 4.12134 2.21952 0
M  V30 7395 H 705.735 5.82072 2.84774 0
M  V30 7396 N 699.141 -0.881989 1.30609 0
M  V30 7397 C 700.557 -1.16576 1.09005 0
M  V30 7398 C 700.757 -2.00961 -0.14727 0
M  V30 7399 O 699.813 -2.38117 -0.840036 0
M  V30 7400 C 701.126 -1.86954 2.35518 0
M  V30 7401 C 702.674 -1.99706 2.41011 0
M  V30 7402 C 703.149 -2.73497 3.67374 0
M  V30 7403 N 704.64 -2.8104 3.68199 0
M  V30 7404 C 705.375 -3.38718 4.62664 0
M  V30 7405 N 704.871 -3.97421 5.67475 0
M  V30 7406 N 706.664 -3.36561 4.50203 0
M  V30 7407 H 698.815 -0.319398 2.09985 0
M  V30 7408 H 701.078 -0.204058 0.925778 0
M  V30 7409 H 700.784 -1.32393 3.2583 0
M  V30 7410 H 700.658 -2.87317 2.44395 0
M  V30 7411 H 703.045 -2.53436 1.51176 0
M  V30 7412 H 703.126 -0.984218 2.36108 0
M  V30 7413 H 702.77 -2.20438 4.57569 0
M  V30 7414 H 702.7 -3.75163 3.6954 0
M  V30 7415 H 705.191 -2.39365 2.92426 0
M  V30 7416 H 705.504 -4.39507 6.35652 0
M  V30 7417 H 703.849 -3.95832 5.71264 0
M  V30 7418 H 707.04 -2.8993 3.67503 0
M  V30 7419 H 707.213 -3.81215 5.24003 0
M  V30 7420 N 700.619 -1.13374 -1.09472 0
M  V30 7421 C 701.868 -0.889844 -1.8101 0
M  V30 7422 C 702.181 0.585686 -1.86625 0
M  V30 7423 O 703.387 0.946497 -2.54467 0
M  V30 7424 C 701.843 -1.54241 -3.25174 0
M  V30 7425 C 701.451 -3.05343 -3.27826 0
M  V30 7426 C 703.195 -1.37919 -4.0147 0
M  V30 7427 C 701.102 -3.63486 -4.6651 0
M  V30 7428 H 700.032 -0.329256 -0.678311 0
M  V30 7429 H 702.683 -1.36139 -1.23038 0
M  V30 7430 H 701.065 -0.998525 -3.83204 0
M  V30 7431 H 702.239 -3.66307 -2.79563 0
M  V30 7432 H 700.554 -3.21175 -2.65019 0
M  V30 7433 H 703.151 -1.78771 -5.03929 0
M  V30 7434 H 703.494 -0.323987 -4.15037 0
M  V30 7435 H 704.027 -1.89284 -3.49881 0
M  V30 7436 H 700.766 -4.68811 -4.58145 0
M  V30 7437 H 700.286 -3.073 -5.15099 0
M  V30 7438 H 701.965 -3.63134 -5.35484 0
M  V30 7439 N 702.098 1.27442 -0.927168 0
M  V30 7440 C 703.344 1.94679 -0.568164 0
M  V30 7441 C 703.677 1.72697 0.888219 0
M  V30 7442 O 702.952 1.05573 1.63354 0
M  V30 7443 C 703.235 3.4882 -0.894253 0
M  V30 7444 C 703.088 3.80146 -2.40435 0
M  V30 7445 C 704.407 4.38281 -0.399766 0
M  V30 7446 H 701.526 0.707071 -0.207892 0
M  V30 7447 H 704.168 1.50568 -1.15885 0
M  V30 7448 H 702.318 3.86522 -0.391566 0
M  V30 7449 H 703.99 3.52238 -2.97869 0
M  V30 7450 H 702.233 3.26716 -2.85375 0
M  V30 7451 H 702.904 4.87835 -2.58304 0
M  V30 7452 H 705.38 4.07726 -0.83058 0
M  V30 7453 H 704.256 5.44955 -0.656885 0
M  V30 7454 H 704.517 4.36521 0.700153 0
M  V30 7455 N 703.576 0.692616 1.41565 0
M  V30 7456 C 704.824 0.221896 2.00878 0
M  V30 7457 C 705.145 -1.18164 1.5512 0
M  V30 7458 O 704.415 -1.79679 0.78054 0
M  V30 7459 H 702.995 0.0790463 0.742806 0
M  V30 7460 H 705.657 0.893115 1.73232 0
M  V30 7461 H 704.753 0.23702 3.11199 0
M  V30 7462 N 705.054 -1.51416 0.437162 0
M  V30 7463 C 706.279 -2.0699 -0.130424 0
M  V30 7464 C 706.704 -1.30249 -1.35709 0
M  V30 7465 O 706.062 -0.340388 -1.78076 0
M  V30 7466 C 706.11 -3.5801 -0.43142 0
M  V30 7467 O 705.214 -3.8345 -1.5179 0
M  V30 7468 H 704.555 -0.663997 -0.00194339 0
M  V30 7469 H 707.085 -1.95029 0.618445 0
M  V30 7470 H 707.095 -4.02261 -0.681926 0
M  V30 7471 H 705.77 -4.13291 0.465137 0
M  V30 7472 H 704.347 -3.51062 -1.25737 0
M  V30 7473 N 706.532 -0.168513 -1.56696 0
M  V30 7474 C 707.495 0.748928 -2.16619 0
M  V30 7475 C 708.495 1.16007 -1.11351 0
M  V30 7476 O 709.685 1.07748 -1.3688 0
M  V30 7477 C 706.817 2.01904 -2.74677 0
M  V30 7478 H 708.01 0.227317 -2.99037 0
M  V30 7479 H 705.563 0.0810372 -1.5609 0
M  V30 7480 H 706.298 2.58381 -1.95985 0
M  V30 7481 H 706.083 1.73323 -3.51712 0
M  V30 7482 H 707.573 2.67383 -3.20774 0
M  V30 7483 N 708.01 1.57248 0.105221 0
M  V30 7484 C 709.238 1.89768 0.82437 0
M  V30 7485 C 709.653 0.761192 1.72775 0
M  V30 7486 O 709.01 -0.267342 1.80531 0
M  V30 7487 C 709.061 3.2184 1.64625 0
M  V30 7488 O 708.782 4.31115 0.779217 0
M  V30 7489 C 710.283 3.68155 2.46935 0
M  V30 7490 H 707.503 0.628031 0.236259 0
M  V30 7491 H 710.047 2.04321 0.085485 0
M  V30 7492 H 708.202 3.08915 2.33775 0
M  V30 7493 H 708.616 5.06897 1.34745 0
M  V30 7494 H 710.09 4.6329 3.00111 0
M  V30 7495 H 710.567 2.95492 3.24932 0
M  V30 7496 H 711.173 3.83914 1.83002 0
M  V30 7497 N 709.488 -0.375779 1.53054 0
M  V30 7498 C 710.904 -0.716764 1.426 0
M  V30 7499 C 711.104 -1.93651 0.556931 0
M  V30 7500 O 710.16 -2.52475 0.0354461 0
M  V30 7501 C 711.473 -0.939499 2.85646 0
M  V30 7502 C 713.021 -1.04015 2.95212 0
M  V30 7503 C 713.496 -1.29543 4.39298 0
M  V30 7504 N 714.987 -1.36335 4.42682 0
M  V30 7505 C 715.722 -1.57778 5.51266 0
M  V30 7506 N 715.218 -1.76604 6.69913 0
M  V30 7507 N 717.011 -1.60065 5.38828 0
M  V30 7508 H 709.162 0.42664 2.08071 0
M  V30 7509 H 711.425 0.128758 0.939215 0
M  V30 7510 H 711.131 -0.115189 3.51511 0
M  V30 7511 H 711.005 -1.85048 3.2869 0
M  V30 7512 H 713.392 -1.85501 2.29507 0
M  V30 7513 H 713.473 -0.106785 2.55577 0
M  V30 7514 H 713.117 -0.485611 5.05573 0
M  V30 7515 H 713.047 -2.24184 4.76497 0
M  V30 7516 H 715.538 -1.23441 3.5717 0
M  V30 7517 H 715.851 -1.9251 7.48438 0
M  V30 7518 H 714.196 -1.73802 6.72917 0
M  V30 7519 H 717.387 -1.44917 4.45103 0
M  V30 7520 H 717.56 -1.76435 6.23518 0
M  V30 7521 N 710.966 -1.44241 -0.634997 0
M  V30 7522 C 712.196 -1.50078 -1.41987 0
M  V30 7523 C 712.604 -0.123072 -1.88799 0
M  V30 7524 O 711.947 0.880552 -1.6122 0
M  V30 7525 C 712.009 -2.40033 -2.67628 0
M  V30 7526 C 711.673 -3.87268 -2.42637 0
M  V30 7527 C 712.67 -4.77902 -2.04708 0
M  V30 7528 C 710.355 -4.31933 -2.56396 0
M  V30 7529 C 712.349 -6.11202 -1.80862 0
M  V30 7530 C 710.036 -5.65281 -2.32164 0
M  V30 7531 C 711.034 -6.54734 -1.94455 0
M  V30 7532 O 710.722 -7.85613 -1.7049 0
M  V30 7533 H 710.454 -0.51146 -0.442023 0
M  V30 7534 H 713.008 -1.89843 -0.784138 0
M  V30 7535 H 711.238 -1.95188 -3.33824 0
M  V30 7536 H 712.927 -2.36863 -3.29622 0
M  V30 7537 H 713.693 -4.44668 -1.93638 0
M  V30 7538 H 709.572 -3.62569 -2.84719 0
M  V30 7539 H 713.116 -6.80983 -1.51353 0
M  V30 7540 H 709.013 -5.98078 -2.42843 0
M  V30 7541 H 709.781 -7.97373 -1.84767 0
M  V30 7542 N 712.444 0.87505 -1.31075 0
M  V30 7543 C 713.374 1.99775 -1.20881 0
M  V30 7544 C 714.355 1.69822 -0.0971612 0
M  V30 7545 O 715.54 1.92158 -0.280895 0
M  V30 7546 C 712.67 3.35163 -0.910118 0
M  V30 7547 C 711.624 3.79406 -1.98078 0
M  V30 7548 C 710.95 5.12197 -1.53488 0
M  V30 7549 C 712.25 3.97061 -3.39323 0
M  V30 7550 H 713.944 2.08562 -2.14808 0
M  V30 7551 H 711.49 1.00207 -1.03415 0
M  V30 7552 H 713.443 4.13237 -0.825423 0
M  V30 7553 H 712.167 3.26536 0.064822 0
M  V30 7554 H 710.826 3.03568 -2.05528 0
M  V30 7555 H 710.474 5.00007 -0.547941 0
M  V30 7556 H 710.174 5.4277 -2.2511 0
M  V30 7557 H 711.698 5.92785 -1.46417 0
M  V30 7558 H 713.112 4.65545 -3.34576 0
M  V30 7559 H 711.509 4.39025 -4.09118 0
M  V30 7560 H 712.579 3.00601 -3.80483 0
M  V30 7561 N 713.922 1.13953 1.08869 0
M  V30 7562 C 714.854 0.779906 2.15523 0
M  V30 7563 C 715.867 -0.20102 1.61554 0
M  V30 7564 O 717.056 0.0200049 1.78489 0
M  V30 7565 C 714.156 0.136226 3.38626 0
M  V30 7566 C 713.329 1.15069 4.21993 0
M  V30 7567 C 712.388 0.531645 5.23507 0
M  V30 7568 O 711.414 1.19327 5.56552 0
M  V30 7569 N 712.616 -0.693734 5.7634 0
M  V30 7570 H 715.381 1.69769 2.46979 0
M  V30 7571 H 712.942 1.03331 1.24637 0
M  V30 7572 H 714.934 -0.290295 4.03658 0
M  V30 7573 H 713.504 -0.684603 3.05011 0
M  V30 7574 H 712.724 1.75431 3.53012 0
M  V30 7575 H 714.012 1.83614 4.74514 0
M  V30 7576 H 713.41 -1.24994 5.51718 0
M  V30 7577 H 711.967 -1.06283 6.43076 0
M  V30 7578 N 715.4 -1.26948 0.933913 0
M  V30 7579 C 716.646 -1.94374 0.57848 0
M  V30 7580 C 716.979 -1.73166 -0.879048 0
M  V30 7581 O 716.254 -1.06438 -1.62792 0
M  V30 7582 C 716.537 -3.4834 0.912739 0
M  V30 7583 C 716.39 -3.78866 2.42448 0
M  V30 7584 C 717.709 -4.38062 0.423003 0
M  V30 7585 H 714.828 -0.705959 0.211639 0
M  V30 7586 H 717.47 -1.49951 1.16682 0
M  V30 7587 H 715.62 -3.86309 0.412058 0
M  V30 7588 H 717.292 -3.50654 2.99733 0
M  V30 7589 H 715.535 -3.25198 2.87104 0
M  V30 7590 H 716.206 -4.86458 2.60887 0
M  V30 7591 H 718.682 -4.0728 0.852191 0
M  V30 7592 H 717.558 -5.44599 0.685776 0
M  V30 7593 H 717.819 -4.36886 -0.676994 0
M  V30 7594 N 716.879 -0.700114 -1.41195 0
M  V30 7595 C 717.809 -0.0521132 -2.33442 0
M  V30 7596 C 718.79 0.76228 -1.52063 0
M  V30 7597 O 719.975 0.714336 -1.80585 0
M  V30 7598 C 717.105 0.881693 -3.35922 0
M  V30 7599 C 716.059 0.174062 -4.27646 0
M  V30 7600 C 715.385 1.22254 -5.20536 0
M  V30 7601 C 716.685 -0.962396 -5.13357 0
M  V30 7602 H 718.379 -0.822574 -2.87879 0
M  V30 7603 H 715.925 -0.397011 -1.38419 0
M  V30 7604 H 717.878 1.34429 -3.99383 0
M  V30 7605 H 716.602 1.68387 -2.79845 0
M  V30 7606 H 715.261 -0.268551 -3.65615 0
M  V30 7607 H 714.909 2.01736 -4.60773 0
M  V30 7608 H 714.609 0.754038 -5.82742 0
M  V30 7609 H 716.133 1.68555 -5.86874 0
M  V30 7610 H 717.547 -0.579875 -5.7036 0
M  V30 7611 H 715.944 -1.35828 -5.84526 0
M  V30 7612 H 717.014 -1.80003 -4.50252 0
M  V30 7613 N 718.357 1.51182 -0.445186 0
M  V30 7614 C 719.597 2.04061 0.117717 0
M  V30 7615 C 719.961 1.32158 1.39278 0
M  V30 7616 O 721.162 1.75452 2.03642 0
M  V30 7617 C 719.433 3.55933 0.323445 0
M  V30 7618 S 720.992 4.30516 0.848627 0
M  V30 7619 H 717.81 0.710442 0.028165 0
M  V30 7620 H 720.412 1.85858 -0.606391 0
M  V30 7621 H 719.116 4.0583 -0.610764 0
M  V30 7622 H 718.647 3.78444 1.07441 0
M  V30 7623 H 720.662 4.48382 2.12528 0
M  V30 7624 N 719.835 0.176821 1.56605 0
M  V30 7625 C 720.768 -0.790135 2.14084 0
M  V30 7626 C 721.746 -1.22219 1.07244 0
M  V30 7627 O 722.93 -1.31298 1.35252 0
M  V30 7628 C 720.057 -2.06475 2.68488 0
M  V30 7629 C 719.103 -1.77628 3.87751 0
M  V30 7630 S 719.936 -0.940612 5.27174 0
M  V30 7631 C 721.092 -2.22577 5.84988 0
M  V30 7632 H 721.325 -0.30144 2.95768 0
M  V30 7633 H 718.858 -0.0379279 1.54353 0
M  V30 7634 H 720.816 -2.79683 3.00479 0
M  V30 7635 H 719.477 -2.52457 1.8688 0
M  V30 7636 H 718.67 -2.72215 4.24164 0
M  V30 7637 H 718.272 -1.12512 3.56675 0
M  V30 7638 H 720.564 -3.17992 5.98237 0
M  V30 7639 H 721.507 -1.90624 6.81959 0
M  V30 7640 H 721.915 -2.34588 5.13448 0
M  V30 7641 N 721.313 -1.57302 -0.09688 0
M  V30 7642 C 722.538 -1.9058 -0.818169 0
M  V30 7643 C 722.963 -0.770921 -1.71576 0
M  V30 7644 O 722.321 0.277588 -1.79162 0
M  V30 7645 C 722.369 -3.22714 -1.60898 0
M  V30 7646 O 721.473 -3.10178 -2.71779 0
M  V30 7647 H 720.814 -0.624759 -0.224882 0
M  V30 7648 H 723.344 -2.04471 -0.07264 0
M  V30 7649 H 723.354 -3.55978 -1.99358 0
M  V30 7650 H 722.029 -4.04899 -0.950227 0
M  V30 7651 H 720.606 -2.88424 -2.3636 0
M  V30 7652 N 722.791 0.367657 -1.53252 0
M  V30 7653 C 724.037 1.11216 -1.69584 0
M  V30 7654 C 724.37 1.89026 -0.445269 0
M  V30 7655 O 723.645 1.86342 0.557404 0
M  V30 7656 C 723.928 2.07308 -2.94441 0
M  V30 7657 C 723.781 1.3312 -4.2965 0
M  V30 7658 C 725.1 3.07459 -3.14892 0
M  V30 7659 H 722.219 0.40294 -0.617096 0
M  V30 7660 H 724.861 0.393201 -1.85887 0
M  V30 7661 H 723.011 2.68617 -2.80673 0
M  V30 7662 H 724.683 0.746111 -4.55226 0
M  V30 7663 H 722.926 0.633051 -4.29156 0
M  V30 7664 H 723.597 2.03443 -5.13142 0
M  V30 7665 H 726.073 2.56252 -3.27832 0
M  V30 7666 H 724.949 3.71919 -4.03693 0
M  V30 7667 H 725.21 3.77514 -2.30077 0
M  V30 7668 N 724.269 1.44576 0.627338 0
M  V30 7669 C 725.232 1.51372 1.72102 0
M  V30 7670 C 726.232 0.395329 1.55865 0
M  V30 7671 O 727.422 0.658094 1.61291 0
M  V30 7672 C 724.554 1.39129 3.11217 0
M  V30 7673 H 725.747 2.48798 1.6745 0
M  V30 7674 H 723.3 1.31724 0.841336 0
M  V30 7675 H 724.035 0.428114 3.21462 0
M  V30 7676 H 723.82 2.20229 3.24409 0
M  V30 7677 H 725.31 1.46874 3.90919 0
M  V30 7678 N 725.747 -0.868086 1.31537 0
M  V30 7679 C 726.71 -1.95703 1.19302 0
M  V30 7680 C 727.71 -1.60355 0.119612 0
M  V30 7681 O 728.9 -1.70247 0.36902 0
M  V30 7682 C 726.032 -3.30599 0.831684 0
M  V30 7683 H 727.225 -2.07982 2.16064 0
M  V30 7684 H 724.778 -1.05661 1.15176 0
M  V30 7685 H 725.513 -3.2402 -0.134694 0
M  V30 7686 H 725.298 -3.57629 1.60761 0
M  V30 7687 H 726.788 -4.10439 0.770026 0
M  V30 7688 N 727.225 -1.14528 -1.08264 0
M  V30 7689 C 728.135 -0.84728 -2.18765 0
M  V30 7690 C 729.151 0.172826 -1.7314 0
M  V30 7691 O 730.327 0.000985336 -2.014 0
M  V30 7692 C 727.392 -0.330633 -3.4512 0
M  V30 7693 C 726.453 -1.41348 -4.05363 0
M  V30 7694 C 725.686 -0.921387 -5.25686 0
M  V30 7695 O 725.909 0.236587 -5.69909 0
M  V30 7696 O 724.843 -1.70101 -5.77364 0
M  V30 7697 H 728.669 -1.7708 -2.46731 0
M  V30 7698 H 726.254 -0.923661 -1.17426 0
M  V30 7699 H 728.136 -0.0485053 -4.21372 0
M  V30 7700 H 726.811 0.565147 -3.18728 0
M  V30 7701 H 725.718 -1.74908 -3.30693 0
M  V30 7702 H 727.051 -2.28383 -4.36007 0
M  V30 7703 N 728.703 1.26451 -0.940633 0
M  V30 7704 C 729.636 2.24771 -0.394094 0
M  V30 7705 C 730.614 1.54169 0.516781 0
M  V30 7706 O 731.798 1.82942 0.454352 0
M  V30 7707 C 728.925 3.3591 0.433807 0
M  V30 7708 C 727.971 4.24472 -0.415464 0
M  V30 7709 S 728.804 5.0293 -1.83907 0
M  V30 7710 C 729.96 6.17546 -1.01921 0
M  V30 7711 H 730.193 2.70782 -1.22737 0
M  V30 7712 H 727.726 1.35308 -0.743709 0
M  V30 7713 H 729.684 4.00387 0.905576 0
M  V30 7714 H 728.345 2.88512 1.24175 0
M  V30 7715 H 727.538 5.03525 0.218833 0
M  V30 7716 H 727.14 3.64857 -0.821897 0
M  V30 7717 H 729.432 6.76996 -0.261227 0
M  V30 7718 H 730.375 6.8528 -1.78318 0
M  V30 7719 H 730.783 5.6176 -0.555511 0
M  V30 7720 N 730.181 0.707592 1.40822 0
M  V30 7721 C 731.458 0.171172 1.9485 0
M  V30 7722 C 731.838 -1.32143 1.64625 0
M  V30 7723 O 731.186 -2.07372 0.959647 0
M  V30 7724 C 731.396 0.475334 3.45748 0
M  V30 7725 C 732.744 0.409625 4.22619 0
M  V30 7726 O 733.768 0.410934 3.53822 0
M  V30 7727 O 732.627 0.380185 5.45176 0
M  V30 7728 H 729.721 0.022015 0.826707 0
M  V30 7729 H 732.267 0.784577 1.50474 0
M  V30 7730 H 731.039 1.50801 3.61075 0
M  V30 7731 H 730.662 -0.168439 3.97243 0
M  V30 7732 N 731.66 -1.50943 0.453197 0
M  V30 7733 C 732.59 -2.31005 -0.34044 0
M  V30 7734 C 733.571 -1.37112 -1.00669 0
M  V30 7735 O 734.756 -1.66033 -1.0073 0
M  V30 7736 C 731.886 -3.16358 -1.433 0
M  V30 7737 C 730.84 -4.18658 -0.889363 0
M  V30 7738 C 730.166 -4.92633 -2.07887 0
M  V30 7739 C 731.466 -5.22227 0.0871142 0
M  V30 7740 H 733.16 -2.97601 0.327723 0
M  V30 7741 H 730.706 -1.43119 0.159054 0
M  V30 7742 H 732.659 -3.71155 -1.99555 0
M  V30 7743 H 731.383 -2.47613 -2.12968 0
M  V30 7744 H 730.042 -3.64936 -0.348915 0
M  V30 7745 H 729.69 -4.20376 -2.76211 0
M  V30 7746 H 729.39 -5.61819 -1.72143 0
M  V30 7747 H 730.914 -5.50258 -2.64666 0
M  V30 7748 H 732.328 -5.72001 -0.385656 0
M  V30 7749 H 730.725 -5.99032 0.357926 0
M  V30 7750 H 731.795 -4.74077 1.01879 0
M  V30 7751 N 733.138 -0.185124 -1.56509 0
M  V30 7752 C 734.048 0.751908 -2.22224 0
M  V30 7753 C 735.064 1.24244 -1.21817 0
M  V30 7754 O 736.24 1.29169 -1.54523 0
M  V30 7755 C 733.305 1.95837 -2.86092 0
M  V30 7756 C 732.366 1.51337 -4.01741 0
M  V30 7757 C 731.599 2.66233 -4.62554 0
M  V30 7758 O 731.822 3.8346 -4.22273 0
M  V30 7759 O 730.756 2.39517 -5.52191 0
M  V30 7760 H 734.582 0.222304 -3.02885 0
M  V30 7761 H 732.167 0.0437141 -1.49336 0
M  V30 7762 H 734.049 2.66368 -3.26536 0
M  V30 7763 H 732.724 2.47677 -2.08417 0
M  V30 7764 H 731.631 0.777155 -3.65939 0
M  V30 7765 H 732.964 1.04175 -4.81049 0
M  V30 7766 N 734.616 1.57351 0.0885366 0
M  V30 7767 C 735.893 1.77449 0.822873 0
M  V30 7768 C 736.273 0.768463 1.96616 0
M  V30 7769 O 735.621 -0.201757 2.27608 0
M  V30 7770 C 735.831 3.23425 1.31137 0
M  V30 7771 C 737.179 3.86791 1.75152 0
M  V30 7772 O 738.203 3.27215 1.40745 0
M  V30 7773 O 737.062 4.91568 2.38794 0
M  V30 7774 H 734.156 0.727653 0.393002 0
M  V30 7775 H 736.702 1.69556 0.0699095 0
M  V30 7776 H 735.474 3.88188 0.49254 0
M  V30 7777 H 735.097 3.35977 2.12615 0
M  V30 7778 N 736.094 -0.359525 1.53444 0
M  V30 7779 C 737.342 -1.09935 1.69584 0
M  V30 7780 C 737.663 -1.89656 0.453371 0
M  V30 7781 O 736.933 -1.8852 -0.53263 0
M  V30 7782 H 735.513 -0.408843 0.625185 0
M  V30 7783 H 738.175 -0.40467 1.90653 0
M  V30 7784 H 737.271 -1.78575 2.55964 0
M  V30 7785 N 737.572 -1.44907 -0.619662 0
M  V30 7786 C 738.82 -1.47999 -1.37625 0
M  V30 7787 C 739.141 -0.118295 -1.94641 0
M  V30 7788 O 738.411 0.85086 -1.76457 0
M  V30 7789 H 736.991 -0.544993 -0.510873 0
M  V30 7790 H 739.653 -1.80772 -0.728522 0
M  V30 7791 H 738.749 -2.21196 -2.20179 0
M  V30 7792 N 739.05 0.861098 -1.31996 0
M  V30 7793 C 739.96 2.00154 -1.22374 0
M  V30 7794 C 740.976 1.73447 -0.138631 0
M  V30 7795 O 742.152 1.98191 -0.358104 0
M  V30 7796 C 739.217 3.33696 -0.940645 0
M  V30 7797 C 738.278 3.73668 -2.11355 0
M  V30 7798 C 737.511 5.00837 -1.84386 0
M  V30 7799 O 737.734 5.64996 -0.783287 0
M  V30 7800 O 736.668 5.37787 -2.70313 0
M  V30 7801 H 740.494 2.11207 -2.18233 0
M  V30 7802 H 738.079 0.990768 -1.11822 0
M  V30 7803 H 739.961 4.13756 -0.798987 0
M  V30 7804 H 738.636 3.23698 -0.0121636 0
M  V30 7805 H 737.543 2.94211 -2.31065 0
M  V30 7806 H 738.876 3.88303 -3.02459 0
M  V30 7807 N 740.528 1.15101 1.07655 0
M  V30 7808 C 741.461 0.788522 2.14144 0
M  V30 7809 C 742.439 -0.233635 1.60913 0
M  V30 7810 O 743.623 -0.120908 1.88112 0
M  V30 7811 C 740.75 0.172033 3.38263 0
M  V30 7812 C 739.796 1.16559 4.10264 0
M  V30 7813 S 740.629 2.70627 4.62084 0
M  V30 7814 C 741.785 2.10389 5.8948 0
M  V30 7815 H 742.018 1.69047 2.44561 0
M  V30 7816 H 739.551 0.973033 1.19881 0
M  V30 7817 H 741.509 -0.177223 4.10117 0
M  V30 7818 H 740.17 -0.707468 3.06029 0
M  V30 7819 H 739.363 0.6824 4.99359 0
M  V30 7820 H 738.965 1.45923 3.44358 0
M  V30 7821 H 741.257 1.46405 6.61492 0
M  V30 7822 H 742.2 2.97639 6.42508 0
M  V30 7823 H 742.608 1.54816 5.42856 0
M  V30 7824 N 742.006 -1.2595 0.947325 0
M  V30 7825 C 743.417 -1.75389 0.639963 0
M  V30 7826 C 743.768 -1.77081 -0.844788 0
M  V30 7827 O 742.893 -1.3869 -1.66114 0
M  V30 7828 C 743.488 -3.18506 1.15496 0
M  V30 7829 C 742.047 -3.65534 0.897894 0
M  V30 7830 C 741.194 -2.44818 1.30228 0
M  V30 7831 H 744.145 -1.1194 1.12495 0
M  V30 7832 H 744.166 -3.77045 0.511627 0
M  V30 7833 H 743.678 -3.17243 2.23559 0
M  V30 7834 H 741.779 -3.72221 -0.168096 0
M  V30 7835 H 741.892 -4.54039 1.52922 0
M  V30 7836 H 740.256 -2.44291 0.720678 0
M  V30 7837 H 741.039 -2.46251 2.39198 0
M  V30 7838 N 743.484 -0.715051 -1.40445 0
M  V30 7839 C 744.431 -0.0621393 -2.30716 0
M  V30 7840 C 745.401 0.750871 -1.48159 0
M  V30 7841 O 746.586 0.714928 -1.76899 0
M  V30 7842 C 743.726 0.854036 -3.34365 0
M  V30 7843 C 742.839 0.0305565 -4.31989 0
M  V30 7844 C 741.974 0.946162 -5.22706 0
M  V30 7845 C 741.013 0.116741 -6.11989 0
M  V30 7846 N 740.15 0.987194 -6.95125 0
M  V30 7847 H 744.99 -0.83764 -2.85985 0
M  V30 7848 H 742.527 -0.424759 -1.40834 0
M  V30 7849 H 744.485 1.39946 -3.93028 0
M  V30 7850 H 743.115 1.59572 -2.806 0
M  V30 7851 H 742.167 -0.632044 -3.75112 0
M  V30 7852 H 743.479 -0.611615 -4.95036 0
M  V30 7853 H 742.633 1.56014 -5.86297 0
M  V30 7854 H 741.372 1.62216 -4.59932 0
M  V30 7855 H 740.377 -0.510176 -5.47428 0
M  V30 7856 H 741.602 -0.555742 -6.76822 0
M  V30 7857 H 739.548 1.64885 -6.3494 0
M  V30 7858 H 739.465 0.401046 -7.54936 0
M  V30 7859 H 740.733 1.58737 -7.63166 0
M  V30 7860 N 744.962 1.50701 -0.461195 0
M  V30 7861 C 745.894 2.26124 0.374244 0
M  V30 7862 C 746.907 1.31064 0.965715 0
M  V30 7863 O 748.096 1.56647 0.855801 0
M  V30 7864 C 745.196 3.01996 1.5379 0
M  V30 7865 C 744.369 4.24336 1.06101 0
M  V30 7866 C 743.428 4.82585 2.09756 0
M  V30 7867 O 742.454 5.43775 1.68219 0
M  V30 7868 N 743.656 4.68712 3.42475 0
M  V30 7869 H 746.421 2.9846 -0.2723 0
M  V30 7870 H 743.982 1.59256 -0.291415 0
M  V30 7871 H 745.974 3.37846 2.22806 0
M  V30 7872 H 744.544 2.32521 2.08933 0
M  V30 7873 H 743.764 3.93707 0.197085 0
M  V30 7874 H 745.052 5.03678 0.720156 0
M  V30 7875 H 744.45 4.20026 3.78938 0
M  V30 7876 H 743.007 5.08858 4.07317 0
M  V30 7877 N 746.441 0.193421 1.56409 0
M  V30 7878 C 747.857 -0.162447 1.58771 0
M  V30 7879 C 748.057 -1.6116 1.20954 0
M  V30 7880 O 747.113 -2.3469 0.931497 0
M  V30 7881 C 748.426 0.138391 3.00381 0
M  V30 7882 C 749.974 0.0783649 3.12902 0
M  V30 7883 C 750.449 0.352491 4.56642 0
M  V30 7884 N 751.94 0.30105 4.62221 0
M  V30 7885 C 752.675 0.487028 5.71328 0
M  V30 7886 N 752.171 0.733265 6.88909 0
M  V30 7887 N 753.964 0.4214 5.60518 0
M  V30 7888 H 746.115 1.13909 1.79272 0
M  V30 7889 H 748.378 0.454528 0.83193 0
M  V30 7890 H 748.084 1.14312 3.32604 0
M  V30 7891 H 747.958 -0.559804 3.73023 0
M  V30 7892 H 750.345 -0.916963 2.80492 0
M  V30 7893 H 750.426 0.809611 2.4265 0
M  V30 7894 H 750.07 1.34513 4.89764 0
M  V30 7895 H 750 -0.399624 5.25081 0
M  V30 7896 H 752.491 0.117279 3.77718 0
M  V30 7897 H 752.804 0.86403 7.67955 0
M  V30 7898 H 751.149 0.770138 6.9072 0
M  V30 7899 H 754.34 0.229461 4.67537 0
M  V30 7900 H 754.513 0.569758 6.4549 0
M  V30 7901 N 747.919 -1.57396 -0.0801906 0
M  V30 7902 C 749.196 -1.77883 -0.813451 0
M  V30 7903 C 749.576 -0.778879 -1.96206 0
M  V30 7904 O 748.924 0.189683 -2.27711 0
M  V30 7905 C 749.134 -3.24116 -1.2942 0
M  V30 7906 C 750.482 -3.87714 -1.73098 0
M  V30 7907 O 751.506 -3.27956 -1.39007 0
M  V30 7908 O 750.365 -4.92828 -2.36184 0
M  V30 7909 H 747.459 -0.729727 -0.389138 0
M  V30 7910 H 750.005 -1.69591 -0.0609166 0
M  V30 7911 H 748.777 -3.88443 -0.471947 0
M  V30 7912 H 748.4 -3.371 -2.1083 0
M  V30 7913 N 749.397 0.351382 -1.53633 0
M  V30 7914 C 750.808 0.927429 -1.62036 0
M  V30 7915 C 751.159 1.89809 -0.496706 0
M  V30 7916 O 750.284 2.1313 0.374749 0
M  V30 7917 C 750.879 1.68886 -2.93706 0
M  V30 7918 C 749.438 2.21404 -3.04397 0
M  V30 7919 C 748.585 1.03075 -2.57431 0
M  V30 7920 H 751.536 0.129748 -1.58169 0
M  V30 7921 H 751.557 2.55116 -2.82305 0
M  V30 7922 H 751.069 0.982149 -3.75467 0
M  V30 7923 H 749.17 2.95274 -2.27253 0
M  V30 7924 H 749.283 2.48312 -4.09729 0
M  V30 7925 H 747.647 1.40188 -2.12649 0
M  V30 7926 H 748.43 0.338793 -3.41624 0
M  V30 7927 N 750.875 1.45233 0.611969 0
M  V30 7928 C 751.822 1.5357 1.72293 0
M  V30 7929 C 752.792 0.381912 1.6165 0
M  V30 7930 O 753.977 0.594765 1.81293 0
M  V30 7931 C 751.117 1.50419 3.10593 0
M  V30 7932 C 750.23 2.76316 3.32074 0
M  V30 7933 C 749.365 2.64866 4.60456 0
M  V30 7934 C 748.404 3.85838 4.7518 0
M  V30 7935 N 747.541 3.72949 5.94856 0
M  V30 7936 H 752.381 2.4848 1.64504 0
M  V30 7937 H 749.918 1.23302 0.802191 0
M  V30 7938 H 751.876 1.4658 3.90602 0
M  V30 7939 H 750.506 0.590621 3.17351 0
M  V30 7940 H 749.558 2.90261 2.45872 0
M  V30 7941 H 750.87 3.66055 3.38829 0
M  V30 7942 H 750.024 2.58969 5.48653 0
M  V30 7943 H 748.763 1.72719 4.56092 0
M  V30 7944 H 747.768 3.92099 3.85407 0
M  V30 7945 H 748.993 4.79045 4.81344 0
M  V30 7946 H 746.939 2.83567 5.91545 0
M  V30 7947 H 746.856 4.56319 6.02751 0
M  V30 7948 H 748.124 3.70976 6.85563 0
M  V30 7949 N 752.353 -0.854086 1.3245 0
M  V30 7950 C 753.578 -1.64597 1.26185 0
M  V30 7951 C 754.003 -1.87357 -0.167074 0
M  V30 7952 O 753.361 -1.42675 -1.11864 0
M  V30 7953 C 753.409 -2.98213 2.02734 0
M  V30 7954 O 752.513 -3.88784 1.37554 0
M  V30 7955 H 751.854 -0.50179 0.434859 0
M  V30 7956 H 754.384 -1.06372 1.74775 0
M  V30 7957 H 754.394 -3.4803 2.1293 0
M  V30 7958 H 753.069 -2.80969 3.06642 0
M  V30 7959 H 751.646 -3.4725 1.3591 0
M  V30 7960 N 753.831 -1.1567 -1.07043 0
M  V30 7961 C 754.779 -0.852204 -2.16426 0
M  V30 7962 C 755.773 0.175661 -1.68487 0
M  V30 7963 O 756.979 0.0303874 -1.79974 0
M  V30 7964 H 753.354 -0.257942 -0.706378 0
M  V30 7965 H 755.325 -1.78231 -2.39324 0
M  V30 7966 C 754.074 -0.361362 -3.45817 0
M  V30 7967 H 753.397 -1.14369 -3.83092 0
M  V30 7968 H 754.837 -0.186997 -4.23587 0
M  V30 7969 C 753.296 0.917703 -3.2416 0
M  V30 7970 O 753.826 1.98858 -3.49025 0
M  V30 7971 N 752.032 0.858456 -2.77631 0
M  V30 7972 H 751.579 -0.0131821 -2.57597 0
M  V30 7973 H 751.537 1.71478 -2.6352 0
M  V30 7974 O 755.348 1.19707 -1.08409 0
M  V30 7975 H 756.039 1.77498 -0.775504 0
M  V30 END ATOM
M  V30 BEGIN BOND
M  V30 END BOND
M  V30 END CTAB
M  END
$$$$
