drugbank_target|Q9UN19 Dual adapter for phosphotyrosine and 3-phosphotyrosine and 3-phosphoinositide (DB01863)
 OpenBabel12092119523D

  0  0  0     0  0            999 V3000
M  V30 BEGIN CTAB
M  V30 COUNTS 4499 4555 0 0 0
M  V30 BEGIN ATOM
M  V30 1 H -0.908 1.98254 -0.117106 0
M  V30 2 N 0 1.576 0 0
M  V30 3 C 0.933 2.03868 1.02534 0
M  V30 4 C 1.911 0.928543 1.3348 0
M  V30 5 O 3.095 1.19667 1.45644 0
M  V30 6 C 0.222 2.43627 2.35294 0
M  V30 7 C -0.732 3.65373 2.2001 0
M  V30 8 S 0.101 5.13292 1.52614 0
M  V30 9 C 1.257 5.56322 2.86805 0
M  V30 10 H 1.49 2.90518 0.631377 0
M  V30 11 H -0.977 1.52953 0.210867 0
M  V30 12 H 0.981 2.67203 3.11629 0
M  V30 13 H -0.358 1.57376 2.7183 0
M  V30 14 H -1.165 3.90944 3.18086 0
M  V30 15 H -1.563 3.418 1.51819 0
M  V30 16 H 0.729 5.58782 3.83104 0
M  V30 17 H 1.672 6.56266 2.65933 0
M  V30 18 H 2.08 4.83886 2.90714 0
M  V30 19 N 1.4781 -0.272755 1.55222 0
M  V30 20 C 2.7261 -1.00234 1.75492 0
M  V30 21 C 3.0471 -1.8681 0.5592 0
M  V30 22 O 2.3171 -1.91215 -0.425882 0
M  V30 23 H 0.8971 -0.373076 0.647166 0
M  V30 24 H 3.5591 -0.296926 1.92625 0
M  V30 25 H 2.6551 -1.63913 2.65592 0
M  V30 26 N 2.9562 -1.48159 -0.537278 0
M  V30 27 C 4.3722 -1.34118 -0.865129 0
M  V30 28 C 4.5722 -0.346678 -1.98495 0
M  V30 29 O 3.6282 0.234715 -2.51407 0
M  V30 30 C 4.9412 -2.73963 -1.23954 0
M  V30 31 C 6.4892 -2.82397 -1.34984 0
M  V30 32 C 6.9642 -4.22928 -1.75772 0
M  V30 33 N 8.4552 -4.25566 -1.82887 0
M  V30 34 C 9.1902 -5.31235 -2.15817 0
M  V30 35 N 8.6862 -6.47189 -2.47222 0
M  V30 36 N 10.4792 -5.18624 -2.16761 0
M  V30 37 H 2.6302 -2.1144 0.201715 0
M  V30 38 H 4.8932 -0.947598 0.0275949 0
M  V30 39 H 4.5992 -3.48264 -0.490381 0
M  V30 40 H 4.4732 -3.0702 -2.19132 0
M  V30 41 H 6.8602 -2.08356 -2.08978 0
M  V30 42 H 6.9412 -2.5297 -0.379448 0
M  V30 43 H 6.5852 -4.97482 -1.02341 0
M  V30 44 H 6.5152 -4.49794 -2.73848 0
M  V30 45 H 9.0062 -3.41924 -1.60924 0
M  V30 46 H 9.3192 -7.23564 -2.71433 0
M  V30 47 H 7.6642 -6.50476 -2.44757 0
M  V30 48 H 10.8552 -4.27056 -1.91679 0
M  V30 49 H 11.0282 -6.01078 -2.42093 0
M  V30 50 N 4.4343 0.785586 -1.36625 0
M  V30 51 C 5.3973 1.87999 -1.31107 0
M  V30 52 C 6.3973 1.59316 -0.217959 0
M  V30 53 O 7.5873 1.67656 -0.472977 0
M  V30 54 C 4.7193 3.24861 -1.03334 0
M  V30 55 H 5.9123 1.94307 -2.2844 0
M  V30 56 H 3.4653 0.983813 -1.21453 0
M  V30 57 H 4.2003 3.24235 -0.0647432 0
M  V30 58 H 3.9853 3.4707 -1.82441 0
M  V30 59 H 5.4753 4.04929 -1.02088 0
M  V30 60 N 5.9124 1.20967 1.01018 0
M  V30 61 C 6.8224 0.980157 2.13143 0
M  V30 62 C 7.8384 -0.0660665 1.73875 0
M  V30 63 O 9.0144 0.122821 2.01025 0
M  V30 64 C 6.0794 0.54216 3.42435 0
M  V30 65 C 5.1404 1.65999 3.95908 0
M  V30 66 C 4.3734 1.2428 5.19028 0
M  V30 67 O 4.5964 0.114196 5.70286 0
M  V30 68 O 3.5304 2.05271 5.65816 0
M  V30 69 H 7.3564 1.91913 2.35379 0
M  V30 70 H 4.9414 0.994099 1.11526 0
M  V30 71 H 6.8234 0.30744 4.20277 0
M  V30 72 H 5.4984 -0.36815 3.216 0
M  V30 73 H 4.4054 1.94906 3.19316 0
M  V30 74 H 5.7384 2.54753 4.21143 0
M  V30 75 N 7.3905 -1.2043 1.01659 0
M  V30 76 C 8.3205 -2.25466 0.607226 0
M  V30 77 C 9.3015 -1.65853 -0.377716 0
M  V30 78 O 10.4865 -1.92409 -0.263149 0
M  V30 79 C 7.6165 -3.47256 -0.0552949 0
M  V30 80 C 6.5705 -4.19462 0.850632 0
M  V30 81 C 5.8965 -5.34673 0.0538859 0
M  V30 82 C 7.1965 -4.75603 2.15868 0
M  V30 83 H 8.8905 -2.59962 1.48526 0
M  V30 84 H 6.4365 -1.2496 0.715605 0
M  V30 85 H 8.3895 -4.19917 -0.353233 0
M  V30 86 H 7.1135 -3.11924 -0.968045 0
M  V30 87 H 5.7725 -3.48667 1.13257 0
M  V30 88 H 5.4205 -4.95585 -0.860514 0
M  V30 89 H 5.1205 -5.83913 0.657192 0
M  V30 90 H 6.6445 -6.10138 -0.237598 0
M  V30 91 H 8.0585 -5.40083 1.92311 0
M  V30 92 H 6.4555 -5.3528 2.71284 0
M  V30 93 H 7.5255 -3.94346 2.82169 0
M  V30 94 N 8.8686 -0.792821 -1.36206 0
M  V30 95 C 9.7986 -0.207853 -2.32573 0
M  V30 96 C 10.7796 0.659055 -1.56813 0
M  V30 97 O 11.9646 0.592176 -1.84951 0
M  V30 98 C 9.0946 0.655449 -3.41059 0
M  V30 99 C 8.0486 -0.111842 -4.27854 0
M  V30 100 C 7.3746 0.872274 -5.27537 0
M  V30 101 C 8.6746 -1.30299 -5.05786 0
M  V30 102 H 10.3686 -1.01294 -2.81744 0
M  V30 103 H 7.9146 -0.48854 -1.3546 0
M  V30 104 H 9.8676 1.07464 -4.07467 0
M  V30 105 H 8.5916 1.49328 -2.90463 0
M  V30 106 H 7.2506 -0.512053 -3.63006 0
M  V30 107 H 6.8986 1.70523 -4.73214 0
M  V30 108 H 6.5986 0.363291 -5.86476 0
M  V30 109 H 8.1226 1.28996 -5.96818 0
M  V30 110 H 9.5366 -0.959379 -5.65216 0
M  V30 111 H 7.9336 -1.7455 -5.74154 0
M  V30 112 H 9.0036 -2.09663 -4.37229 0
M  V30 113 N 10.3467 1.47872 -0.545128 0
M  V30 114 C 11.2567 2.33633 0.212746 0
M  V30 115 C 12.2727 1.4744 0.923983 0
M  V30 116 O 13.4487 1.80393 0.895572 0
M  V30 117 C 10.5137 3.23884 1.23693 0
M  V30 118 C 9.5747 4.25961 0.534417 0
M  V30 119 C 8.8077 5.11899 1.5098 0
M  V30 120 O 9.0307 5.00077 2.7437 0
M  V30 121 O 7.9647 5.92831 1.0409 0
M  V30 122 H 11.7907 2.99714 -0.490416 0
M  V30 123 H 9.3757 1.46235 -0.305871 0
M  V30 124 H 11.2577 3.79666 1.82843 0
M  V30 125 H 9.9327 2.60446 1.92222 0
M  V30 126 H 8.8397 3.73972 -0.0979679 0
M  V30 127 H 10.1727 4.92079 -0.109213 0
M  V30 128 N 11.8248 0.280983 1.55075 0
M  V30 129 C 13.0728 -0.333455 1.9933 0
M  V30 130 C 13.3938 -1.55937 1.17085 0
M  V30 131 O 12.6638 -1.94143 0.261805 0
M  V30 132 H 11.2438 -0.126197 0.736263 0
M  V30 133 H 13.9058 0.387678 1.91005 0
M  V30 134 H 13.0018 -0.619292 3.05894 0
M  V30 135 N 13.3029 -1.57598 0.00835791 0
M  V30 136 C 14.2499 -2.08945 -0.980346 0
M  V30 137 C 15.2199 -0.986738 -1.33614 0
M  V30 138 O 16.4049 -1.25968 -1.43306 0
M  V30 139 C 13.5449 -2.60425 -2.26435 0
M  V30 140 C 12.6579 -3.84628 -1.96685 0
M  V30 141 C 11.7929 -4.24579 -3.19228 0
M  V30 142 C 10.8319 -5.41596 -2.85202 0
M  V30 143 N 9.9689 -5.768 -4.00307 0
M  V30 144 H 14.8089 -2.93148 -0.535551 0
M  V30 145 H 12.3459 -1.44912 -0.252776 0
M  V30 146 H 14.3039 -2.88354 -3.01509 0
M  V30 147 H 12.9339 -1.79083 -2.68568 0
M  V30 148 H 11.9859 -3.63556 -1.11942 0
M  V30 149 H 13.2979 -4.69796 -1.67611 0
M  V30 150 H 12.4519 -4.53834 -4.02641 0
M  V30 151 H 11.1909 -3.38137 -3.51447 0
M  V30 152 H 10.1959 -5.12056 -2.00198 0
M  V30 153 H 11.4209 -6.29721 -2.54222 0
M  V30 154 H 9.3669 -4.93316 -4.32407 0
M  V30 155 H 9.2839 -6.5656 -3.74786 0
M  V30 156 H 10.5519 -6.10652 -4.84484 0
M  V30 157 N 14.781 0.264519 -1.55364 0
M  V30 158 C 15.714 1.35297 -1.83766 0
M  V30 159 C 16.692 1.47171 -0.691336 0
M  V30 160 O 17.876 1.63663 -0.935238 0
M  V30 161 C 15.003 2.72847 -2.00679 0
M  V30 162 C 14.049 2.78214 -3.23263 0
M  V30 163 S 14.882 2.36601 -4.80396 0
M  V30 164 C 16.038 3.7611 -5.00292 0
M  V30 165 H 16.271 1.11003 -2.758 0
M  V30 166 H 13.804 0.464596 -1.47244 0
M  V30 167 H 15.762 3.52057 -2.11108 0
M  V30 168 H 14.423 2.94388 -1.09518 0
M  V30 169 H 13.616 3.7919 -3.3201 0
M  V30 170 H 13.218 2.07034 -3.11469 0
M  V30 171 H 15.51 4.71457 -4.86554 0
M  V30 172 H 16.453 3.7231 -6.02321 0
M  V30 173 H 16.861 3.67806 -4.28228 0
M  V30 174 N 16.2591 1.48442 0.529413 0
M  V30 175 C 17.4841 1.60406 1.31471 0
M  V30 176 C 17.9091 0.264738 1.86228 0
M  V30 177 O 17.2671 -0.763668 1.64432 0
M  V30 178 C 17.3151 2.65419 2.44101 0
M  V30 179 O 16.4191 2.22618 3.47153 0
M  V30 180 H 15.7601 0.537863 0.389357 0
M  V30 181 H 18.2901 1.94432 0.636965 0
M  V30 182 H 18.3001 2.86709 2.90279 0
M  V30 183 H 16.9751 3.62652 2.03608 0
M  V30 184 H 15.5521 2.11543 3.0709 0
M  V30 185 N 17.7372 -0.778329 1.37039 0
M  V30 186 C 18.9652 -1.56734 1.35063 0
M  V30 187 C 19.3802 -1.88686 -0.0655597 0
M  V30 188 O 18.7372 -1.5096 -1.02554 0
M  V30 189 C 18.7882 -2.88163 2.18276 0
M  V30 190 O 18.5092 -2.57583 3.54376 0
M  V30 191 C 20.0102 -3.82422 2.24206 0
M  V30 192 H 17.2302 -0.485778 0.462883 0
M  V30 193 H 19.7742 -0.965185 1.8029 0
M  V30 194 H 17.9292 -3.44818 1.76576 0
M  V30 195 H 18.3432 -3.41699 3.97922 0
M  V30 196 H 19.8172 -4.71667 2.86765 0
M  V30 197 H 20.2942 -4.21078 1.24861 0
M  V30 198 H 20.9002 -3.31697 2.6619 0
M  V30 199 N 19.2153 -1.21501 -1.00376 0
M  V30 200 C 20.1473 -0.933174 -2.09343 0
M  V30 201 C 21.1603 0.0840896 -1.62583 0
M  V30 202 O 22.3493 -0.148563 -1.77881 0
M  V30 203 C 19.4493 -0.379869 -3.36764 0
M  V30 204 C 18.6223 -1.45176 -4.12605 0
M  V30 205 C 17.6813 -0.907476 -5.18316 0
M  V30 206 O 16.7073 -1.5912 -5.46507 0
M  V30 207 N 17.9093 0.276649 -5.7984 0
M  V30 208 H 20.6743 -1.87124 -2.34104 0
M  V30 209 H 18.2353 -1.12043 -1.16867 0
M  V30 210 H 20.2273 -0.00131488 -4.047 0
M  V30 211 H 18.7973 0.463048 -3.09151 0
M  V30 212 H 18.0173 -2.00411 -3.39454 0
M  V30 213 H 19.3053 -2.17328 -4.6005 0
M  V30 214 H 18.7033 0.849147 -5.59291 0
M  V30 215 H 17.2603 0.596702 -6.49063 0
M  V30 216 N 20.6934 1.19889 -1.02296 0
M  V30 217 C 21.9704 1.85148 -0.630832 0
M  V30 218 C 22.3504 1.91385 0.890782 0
M  V30 219 O 21.6984 1.42642 1.78509 0
M  V30 220 C 21.9084 3.24442 -1.28602 0
M  V30 221 C 23.2564 4.00663 -1.4055 0
M  V30 222 O 24.2804 3.33818 -1.24273 0
M  V30 223 O 23.1394 5.20387 -1.66913 0
M  V30 224 H 20.2334 0.797613 -0.218499 0
M  V30 225 H 22.7794 1.27427 -1.12074 0
M  V30 226 H 21.5514 3.14704 -2.32545 0
M  V30 227 H 21.1744 3.89802 -0.7836 0
M  V30 228 N 22.1715 0.800033 1.35784 0
M  V30 229 C 23.5825 0.439142 1.81462 0
M  V30 230 C 23.9335 -1.03813 1.66485 0
M  V30 231 O 23.0585 -1.80626 1.19177 0
M  V30 232 C 23.6535 0.790314 3.29453 0
M  V30 233 C 22.2125 0.482111 3.733 0
M  V30 234 C 21.3595 1.01938 2.57883 0
M  V30 235 H 24.3105 0.992254 1.23855 0
M  V30 236 H 24.3315 0.0853677 3.80404 0
M  V30 237 H 23.8435 1.86554 3.40322 0
M  V30 238 H 21.9445 -0.584652 3.67984 0
M  V30 239 H 22.0575 1.01015 4.6833 0
M  V30 240 H 20.4215 0.442043 2.50835 0
M  V30 241 H 21.2045 2.10059 2.71533 0
M  V30 242 N 23.6496 -1.47581 0.552962 0
M  V30 243 C 24.8746 -2.07378 0.0300593 0
M  V30 244 C 25.2996 -1.40355 -1.25229 0
M  V30 245 O 24.6576 -0.477099 -1.7491 0
M  V30 246 C 24.7056 -3.60274 -0.153231 0
M  V30 247 O 23.8096 -3.94041 -1.21678 0
M  V30 248 H 23.1506 -0.662158 0.0494182 0
M  V30 249 H 25.6806 -1.89662 0.767434 0
M  V30 250 H 25.6906 -4.0633 -0.368761 0
M  V30 251 H 24.3656 -4.08455 0.783397 0
M  V30 252 H 22.9426 -3.59735 -0.982079 0
M  V30 253 N 25.1277 -0.289203 -1.54924 0
M  V30 254 C 26.4047 0.376032 -1.91951 0
M  V30 255 C 26.7847 1.72622 -1.21511 0
M  V30 256 O 26.1327 2.25853 -0.346767 0
M  V30 257 C 26.3427 0.502378 -3.45365 0
M  V30 258 C 27.6907 0.778741 -4.17398 0
M  V30 259 O 28.7147 0.586647 -3.51336 0
M  V30 260 O 27.5737 1.14698 -5.34328 0
M  V30 261 H 24.6677 0.208167 -0.800372 0
M  V30 262 H 27.2137 -0.336394 -1.66332 0
M  V30 263 H 25.9857 -0.447255 -3.88736 0
M  V30 264 H 25.6087 1.26373 -3.76982 0
M  V30 265 N 26.6058 1.57591 -0.0167156 0
M  V30 266 C 27.5358 2.12496 0.967858 0
M  V30 267 C 28.5168 1.03807 1.34752 0
M  V30 268 O 29.7018 1.31577 1.42833 0
M  V30 269 C 26.8318 2.64194 2.25431 0
M  V30 270 C 25.7858 3.77559 2.01576 0
M  V30 271 C 25.1118 4.15636 3.36379 0
M  V30 272 C 26.4118 5.04151 1.36489 0
M  V30 273 H 28.1058 2.95013 0.510643 0
M  V30 274 H 25.6518 1.41915 0.244181 0
M  V30 275 H 27.6048 3.01236 2.94678 0
M  V30 276 H 26.3288 1.78821 2.73296 0
M  V30 277 H 24.9878 3.40937 1.34751 0
M  V30 278 H 24.6358 3.27263 3.81979 0
M  V30 279 H 24.3358 4.92022 3.21229 0
M  V30 280 H 25.8598 4.5525 4.06915 0
M  V30 281 H 27.2738 5.38857 1.95718 0
M  V30 282 H 25.6708 5.85453 1.31776 0
M  V30 283 H 26.7408 4.83733 0.336219 0
M  V30 284 N 28.0839 -0.256276 1.55502 0
M  V30 285 C 29.3299 -0.982884 1.78076 0
M  V30 286 C 29.6849 -1.83319 0.584109 0
M  V30 287 O 28.9779 -1.86875 -0.422877 0
M  V30 288 C 29.1719 -1.88432 3.03691 0
M  V30 289 C 29.0009 -1.12276 4.35459 0
M  V30 290 C 27.7709 -0.831647 4.98409 0
M  V30 291 C 29.9689 -0.504933 5.11815 0
M  V30 292 N 27.9509 -0.0450423 6.13883 0
M  V30 293 C 29.3219 0.146696 6.19826 0
M  V30 294 C 31.3769 -0.414455 4.96172 0
M  V30 295 C 30.0799 0.880103 7.13895 0
M  V30 296 C 32.1059 0.305398 5.90611 0
M  V30 297 C 31.4679 0.945701 6.98023 0
M  V30 298 H 27.5669 -0.341084 0.703694 0
M  V30 299 H 30.1509 -0.256909 1.92998 0
M  V30 300 H 28.3219 -2.58241 2.90114 0
M  V30 301 H 30.0539 -2.54579 3.14598 0
M  V30 302 H 26.8089 -1.14111 4.59647 0
M  V30 303 H 27.2329 0.336079 6.76165 0
M  V30 304 H 31.8749 -0.895163 4.13215 0
M  V30 305 H 29.5929 1.37244 7.9636 0
M  V30 306 H 33.1789 0.375946 5.80584 0
M  V30 307 H 32.0589 1.49383 7.6984 0
M  V30 308 N 29.562 -1.4872 -0.521534 0
M  V30 309 C 30.787 -1.61101 -1.30618 0
M  V30 310 C 31.212 -0.274611 -1.86085 0
M  V30 311 O 30.57 0.754937 -1.64834 0
M  V30 312 C 30.618 -2.66709 -2.4269 0
M  V30 313 O 29.722 -2.24456 -3.45967 0
M  V30 314 H 29.063 -0.539921 -0.386499 0
M  V30 315 H 31.593 -1.94767 -0.626645 0
M  V30 316 H 31.603 -2.88245 -2.88754 0
M  V30 317 H 30.278 -3.63727 -2.01682 0
M  V30 318 H 28.855 -2.13168 -3.05964 0
M  V30 319 N 31.0401 0.771051 -1.3745 0
M  V30 320 C 32.4561 1.07171 -1.18265 0
M  V30 321 C 32.6561 2.01491 -0.019287 0
M  V30 322 O 31.7121 2.44244 0.640408 0
M  V30 323 C 33.0251 1.66854 -2.50161 0
M  V30 324 C 34.5731 1.79109 -2.56689 0
M  V30 325 C 35.0481 2.42205 -3.88717 0
M  V30 326 N 36.5391 2.49655 -3.90162 0
M  V30 327 C 37.2741 2.9933 -4.8907 0
M  V30 328 N 36.7701 3.49172 -5.98374 0
M  V30 329 N 38.5631 2.9821 -4.76474 0
M  V30 330 H 30.7141 0.144796 -2.11906 0
M  V30 331 H 32.9771 0.126863 -0.939473 0
M  V30 332 H 32.6831 1.05017 -3.35655 0
M  V30 333 H 32.5571 2.6614 -2.673 0
M  V30 334 H 34.9441 2.40077 -1.71601 0
M  V30 335 H 35.0251 0.785757 -2.43433 0
M  V30 336 H 34.6691 1.81875 -4.74219 0
M  V30 337 H 34.5991 3.43345 -3.99276 0
M  V30 338 H 37.0901 2.14383 -3.11205 0
M  V30 339 H 37.4031 3.8548 -6.69795 0
M  V30 340 H 35.7481 3.47275 -6.02018 0
M  V30 341 H 38.9391 2.58572 -3.90203 0
M  V30 342 H 39.1121 3.36613 -5.53711 0
M  V30 343 N 32.5182 1.22032 0.997298 0
M  V30 344 C 33.7432 1.06921 1.77715 0
M  V30 345 C 34.1682 -0.376226 1.84299 0
M  V30 346 O 33.5262 -1.27165 1.29223 0
M  V30 347 C 33.5742 1.67996 3.19076 0
M  V30 348 O 32.6782 0.930653 4.01762 0
M  V30 349 H 32.0192 0.375814 0.547412 0
M  V30 350 H 34.5492 1.61737 1.25309 0
M  V30 351 H 34.5592 1.72538 3.69723 0
M  V30 352 H 33.2342 2.73182 3.13599 0
M  V30 353 H 31.8112 0.960917 3.60307 0
M  V30 354 N 33.9963 -1.19345 1.0293 0
M  V30 355 C 35.2733 -1.84811 0.640642 0
M  V30 356 C 35.6533 -1.91855 -0.88062 0
M  V30 357 O 35.0013 -1.43587 -1.7775 0
M  V30 358 C 35.2113 -3.23755 1.30321 0
M  V30 359 C 36.5593 -3.99912 1.42673 0
M  V30 360 O 37.5833 -3.33155 1.26041 0
M  V30 361 O 36.4423 -5.19494 1.6967 0
M  V30 362 H 33.5363 -0.796443 0.222726 0
M  V30 363 H 36.0823 -1.26831 1.12748 0
M  V30 364 H 34.8543 -3.13466 2.34211 0
M  V30 365 H 34.4773 -3.89381 0.804261 0
M  V30 366 N 35.4744 -0.807222 -1.35358 0
M  V30 367 C 36.7224 -0.387122 -1.98358 0
M  V30 368 C 37.0434 1.04942 -1.64354 0
M  V30 369 O 36.3134 1.72615 -0.926339 0
M  V30 370 H 34.8934 -0.140154 -0.733734 0
M  V30 371 H 37.5554 -1.0332 -1.6526 0
M  V30 372 H 36.6514 -0.493352 -3.08176 0
M  V30 373 N 36.9525 1.47285 -0.560781 0
M  V30 374 C 37.8625 2.33846 0.187954 0
M  V30 375 C 38.8785 1.48412 0.908293 0
M  V30 376 O 40.0545 1.81332 0.876388 0
M  V30 377 C 37.1195 3.25178 1.2025 0
M  V30 378 C 36.1805 4.26504 0.489208 0
M  V30 379 C 35.4135 5.13472 1.45542 0
M  V30 380 O 35.6365 5.02959 2.6905 0
M  V30 381 O 34.5705 5.93902 0.977963 0
M  V30 382 H 38.3965 2.99177 -0.522177 0
M  V30 383 H 35.9815 1.45903 -0.321364 0
M  V30 384 H 37.8635 3.81584 1.78805 0
M  V30 385 H 36.5385 2.6247 1.89449 0
M  V30 386 H 35.4455 3.73847 -0.137627 0
M  V30 387 H 36.7785 4.91935 -0.161399 0
M  V30 388 N 38.4306 0.297415 1.54768 0
M  V30 389 C 39.3936 -0.567375 2.22066 0
M  V30 390 C 40.3936 -1.06409 1.20556 0
M  V30 391 O 41.5836 -0.960691 1.45315 0
M  V30 392 C 38.7156 -1.78517 2.90421 0
M  V30 393 H 39.9086 0.0205534 2.99893 0
M  V30 394 H 37.4616 0.0482163 1.56226 0
M  V30 395 H 38.1966 -2.41303 2.16664 0
M  V30 396 H 37.9816 -1.43669 3.64831 0
M  V30 397 H 39.4716 -2.39964 3.41771 0
M  V30 398 N 39.9087 -1.5758 0.0250728 0
M  V30 399 C 40.8187 -2.1343 -0.973905 0
M  V30 400 C 41.8347 -1.08556 -1.35984 0
M  V30 401 O 43.0107 -1.40592 -1.44207 0
M  V30 402 C 40.0757 -2.64703 -2.23904 0
M  V30 403 C 39.1367 -3.84276 -1.91391 0
M  V30 404 C 38.3697 -4.33095 -3.11873 0
M  V30 405 O 38.5927 -3.81107 -4.24398 0
M  V30 406 O 37.5267 -5.24984 -2.94406 0
M  V30 407 H 41.3527 -2.99057 -0.529036 0
M  V30 408 H 38.9377 -1.48118 -0.195288 0
M  V30 409 H 40.8197 -2.97769 -2.98181 0
M  V30 410 H 39.4947 -1.82161 -2.6758 0
M  V30 411 H 38.4017 -3.56143 -1.14511 0
M  V30 412 H 39.7347 -4.67968 -1.52534 0
M  V30 413 N 41.3868 0.248026 -1.55636 0
M  V30 414 C 42.3168 1.31079 -1.93237 0
M  V30 415 C 43.2978 1.50264 -0.797174 0
M  V30 416 O 44.4828 1.62891 -1.05737 0
M  V30 417 C 41.6128 2.66575 -2.22609 0
M  V30 418 C 40.5668 2.62087 -3.3837 0
M  V30 419 C 39.8928 4.01369 -3.53281 0
M  V30 420 C 41.1928 2.19171 -4.7409 0
M  V30 421 H 42.8868 0.998556 -2.82257 0
M  V30 422 H 40.4328 0.47891 -1.35803 0
M  V30 423 H 42.3858 3.41057 -2.47503 0
M  V30 424 H 41.1098 2.99432 -1.30414 0
M  V30 425 H 39.7688 1.90063 -3.13483 0
M  V30 426 H 39.4168 4.31489 -2.58508 0
M  V30 427 H 39.1168 3.99254 -4.31127 0
M  V30 428 H 40.6408 4.77552 -3.80495 0
M  V30 429 H 42.0548 2.83384 -4.98363 0
M  V30 430 H 40.4518 2.2817 -5.5503 0
M  V30 431 H 41.5218 1.14336 -4.71227 0
M  V30 432 N 42.8649 1.48995 0.513639 0
M  V30 433 C 43.7949 1.67636 1.62544 0
M  V30 434 C 44.7759 0.525087 1.61793 0
M  V30 435 O 45.9609 0.759502 1.78732 0
M  V30 436 C 43.0909 1.73114 3.01079 0
M  V30 437 C 42.0449 2.87905 3.16693 0
M  V30 438 C 41.3709 2.78486 4.56453 0
M  V30 439 C 42.6709 4.29005 2.97913 0
M  V30 440 H 44.3649 2.60716 1.47198 0
M  V30 441 H 41.9109 1.25465 0.706714 0
M  V30 442 H 43.8639 1.84742 3.78746 0
M  V30 443 H 42.5879 0.766241 3.17484 0
M  V30 444 H 41.2469 2.75859 2.41448 0
M  V30 445 H 40.8949 1.7993 4.69717 0
M  V30 446 H 40.5949 3.55523 4.67843 0
M  V30 447 H 42.1189 2.92104 5.36197 0
M  V30 448 H 43.5329 4.41798 3.65359 0
M  V30 449 H 41.9299 5.07166 3.20785 0
M  V30 450 H 42.9999 4.44329 1.94165 0
M  V30 451 N 44.343 -0.763751 1.37857 0
M  V30 452 C 45.275 -1.88664 1.30148 0
M  V30 453 C 46.288 -1.61365 0.215685 0
M  V30 454 O 47.477 -1.72134 0.472459 0
M  V30 455 C 44.577 -3.24075 0.991396 0
M  V30 456 C 43.75 -3.78958 2.18426 0
M  V30 457 C 42.809 -4.92862 1.8432 0
M  V30 458 O 41.835 -5.08027 2.56704 0
M  V30 459 N 43.037 -5.75071 0.792081 0
M  V30 460 H 45.802 -1.95791 2.26905 0
M  V30 461 H 43.363 -0.943226 1.31586 0
M  V30 462 H 45.355 -3.97804 0.743935 0
M  V30 463 H 43.925 -3.12399 0.112122 0
M  V30 464 H 43.145 -2.96913 2.59299 0
M  V30 465 H 44.433 -4.12357 2.98058 0
M  V30 466 H 43.831 -5.65375 0.191595 0
M  V30 467 H 42.388 -6.48991 0.60449 0
M  V30 468 N 45.8211 -1.22559 -0.990812 0
M  V30 469 C 47.0981 -0.959875 -1.70428 0
M  V30 470 C 47.4781 0.524455 -2.04481 0
M  V30 471 O 46.8261 1.49302 -1.72977 0
M  V30 472 C 47.0361 -1.85955 -2.95333 0
M  V30 473 C 48.3841 -2.11687 -3.68068 0
M  V30 474 O 49.4081 -1.8342 -3.05345 0
M  V30 475 O 48.2671 -2.59572 -4.80921 0
M  V30 476 H 45.3611 -0.361154 -0.743974 0
M  V30 477 H 47.9071 -1.33554 -1.04697 0
M  V30 478 H 46.6791 -2.86346 -2.66687 0
M  V30 479 H 46.3021 -1.4856 -3.68803 0
M  V30 480 N 47.2992 1.18797 -1.03562 0
M  V30 481 C 48.2292 2.24472 -0.643019 0
M  V30 482 C 49.2102 1.66433 0.351283 0
M  V30 483 O 50.3952 1.92803 0.232505 0
M  V30 484 C 47.5252 3.473 4.24935e-05 0
M  V30 485 C 46.4792 4.18055 -0.917257 0
M  V30 486 C 45.8052 5.34519 -0.138941 0
M  V30 487 C 47.1052 4.72109 -2.23407 0
M  V30 488 H 48.7992 2.57566 -1.52643 0
M  V30 489 H 46.3452 1.23806 -0.735394 0
M  V30 490 H 48.2982 4.20426 0.286383 0
M  V30 491 H 47.0222 3.13424 0.918299 0
M  V30 492 H 45.6812 3.46821 -1.1879 0
M  V30 493 H 45.3292 4.96891 0.781562 0
M  V30 494 H 45.0292 5.82794 -0.750005 0
M  V30 495 H 46.5532 6.10438 0.1405 0
M  V30 496 H 47.9672 5.36955 -2.00879 0
M  V30 497 H 46.3642 5.30897 -2.79765 0
M  V30 498 H 47.4342 3.89807 -2.88407 0
M  V30 499 N 48.7773 0.814389 1.34928 0
M  V30 500 C 50.0253 0.397636 1.9815 0
M  V30 501 C 50.3463 -1.04069 1.64908 0
M  V30 502 O 49.6163 -1.72121 0.93548 0
M  V30 503 H 48.1963 0.144043 0.732981 0
M  V30 504 H 50.8583 1.04195 1.6471 0
M  V30 505 H 49.9543 0.509688 3.0791 0
M  V30 506 N 50.2554 -1.46986 0.568584 0
M  V30 507 C 51.5014 -2.0332 0.0571487 0
M  V30 508 C 51.8564 -1.43384 -1.28291 0
M  V30 509 O 51.1494 -0.584304 -1.82473 0
M  V30 510 C 51.3434 -3.57306 -0.081836 0
M  V30 511 C 51.1724 -4.32174 1.24321 0
M  V30 512 C 49.9424 -4.71633 1.81358 0
M  V30 513 C 52.1404 -4.66598 2.16312 0
M  V30 514 N 50.1224 -5.31191 3.07748 0
M  V30 515 C 51.4934 -5.26578 3.27285 0
M  V30 516 C 53.5484 -4.48527 2.16166 0
M  V30 517 C 52.2514 -5.70395 4.38226 0
M  V30 518 C 54.2774 -4.93351 3.26127 0
M  V30 519 C 53.6394 -5.5339 4.3582 0
M  V30 520 H 49.7384 -0.77943 0.063351 0
M  V30 521 H 52.3224 -1.79323 0.758378 0
M  V30 522 H 50.4934 -3.81046 -0.752207 0
M  V30 523 H 52.2254 -4.00282 -0.59637 0
M  V30 524 H 48.9804 -4.53946 1.35019 0
M  V30 525 H 49.4044 -5.65505 3.72201 0
M  V30 526 H 54.0464 -4.01456 1.32638 0
M  V30 527 H 51.7644 -6.16452 5.22506 0
M  V30 528 H 55.3504 -4.81131 3.27115 0
M  V30 529 H 54.2304 -5.87441 5.19503 0
M  V30 530 N 51.7335 -0.305618 -1.54608 0
M  V30 531 C 52.9635 0.304333 -2.04346 0
M  V30 532 C 53.3715 1.47715 -1.18224 0
M  V30 533 O 52.7145 1.82591 -0.201577 0
M  V30 534 C 52.7765 0.819031 -3.50046 0
M  V30 535 C 52.4405 -0.22912 -4.56425 0
M  V30 536 C 53.4375 -1.05914 -5.08997 0
M  V30 537 C 51.1225 -0.372148 -5.0092 0
M  V30 538 C 53.1165 -2.01809 -6.04609 0
M  V30 539 C 50.8035 -1.33454 -5.9635 0
M  V30 540 C 51.8015 -2.15599 -6.48079 0
M  V30 541 O 51.4895 -3.10205 -7.41639 0
M  V30 542 H 51.2215 0.0693996 -0.672428 0
M  V30 543 H 53.7755 -0.444548 -2.00532 0
M  V30 544 H 52.0055 1.61852 -3.51199 0
M  V30 545 H 53.6945 1.34537 -3.82955 0
M  V30 546 H 54.4605 -0.959538 -4.75413 0
M  V30 547 H 50.3395 0.257304 -4.60281 0
M  V30 548 H 53.8835 -2.65966 -6.44909 0
M  V30 549 H 49.7805 -1.43485 -6.29351 0
M  V30 550 H 50.5485 -3.05237 -7.59455 0
M  V30 551 N 53.2116 1.57565 -0.0334293 0
M  V30 552 C 54.1616 2.06978 0.956237 0
M  V30 553 C 55.1456 0.971193 1.28283 0
M  V30 554 O 56.3376 1.23471 1.26822 0
M  V30 555 C 53.4666 2.60393 2.23719 0
M  V30 556 C 52.5526 3.7719 1.93877 0
M  V30 557 N 52.9436 4.87639 1.34321 0
M  V30 558 C 51.2416 3.85758 2.23845 0
M  V30 559 C 51.9426 5.68825 1.21709 0
M  V30 560 N 50.9186 5.1587 1.71404 0
M  V30 561 H 54.7206 2.89773 0.490815 0
M  V30 562 H 52.2346 1.61492 0.171478 0
M  V30 563 H 54.2316 2.94088 2.95496 0
M  V30 564 H 52.8916 1.79031 2.70884 0
M  V30 565 H 53.9026 5.07803 1.01767 0
M  V30 566 H 50.5796 3.1531 2.73653 0
M  V30 567 H 51.9696 6.67631 0.75621 0
M  V30 568 N 54.6897 -0.239769 1.55765 0
M  V30 569 C 55.9377 -0.964892 1.77579 0
M  V30 570 C 56.2587 -1.85582 0.598699 0
M  V30 571 O 55.5287 -1.92075 -0.385226 0
M  V30 572 H 54.1087 -0.359265 0.654933 0
M  V30 573 H 56.7707 -0.256001 1.93211 0
M  V30 574 H 55.8667 -1.58243 2.69009 0
M  V30 575 N 56.1678 -1.49265 -0.50573 0
M  V30 576 C 57.1158 -1.66065 -1.62866 0
M  V30 577 C 58.1098 -0.526636 -1.61006 0
M  V30 578 O 59.3158 -0.706126 -1.65571 0
M  V30 579 H 55.6908 -0.52356 -0.539805 0
M  V30 580 H 57.6618 -2.60329 -1.45848 0
M  V30 581 C 56.4108 -1.74008 -3.01026 0
M  V30 582 H 55.7338 -2.6064 -3.03161 0
M  V30 583 H 57.1738 -1.89798 -3.79147 0
M  V30 584 C 55.6328 -0.483868 -3.33407 0
M  V30 585 O 56.1628 0.392548 -3.99777 0
M  V30 586 N 54.3688 -0.348236 -2.88506 0
M  V30 587 H 53.9158 -1.06242 -2.34671 0
M  V30 588 H 53.8738 0.491204 -3.10539 0
M  V30 589 N 57.6459 0.756429 -1.3826 0
M  V30 590 C 58.5759 1.88374 -1.37976 0
M  V30 591 C 59.5569 1.68311 -0.246082 0
M  V30 592 O 60.7419 1.88944 -0.44874 0
M  V30 593 C 57.8719 3.25864 -1.20125 0
M  V30 594 C 56.8259 3.60523 -2.30666 0
M  V30 595 C 56.1519 4.9672 -1.97923 0
M  V30 596 C 57.4519 3.65692 -3.72916 0
M  V30 597 H 59.1459 1.88869 -2.32312 0
M  V30 598 H 56.6919 0.907272 -1.11824 0
M  V30 599 H 58.6449 4.0438 -1.18552 0
M  V30 600 H 57.3689 3.25841 -0.222498 0
M  V30 601 H 56.0279 2.84324 -2.3142 0
M  V30 602 H 55.6759 4.93253 -0.985393 0
M  V30 603 H 55.3759 5.20878 -2.71955 0
M  V30 604 H 56.8999 5.77618 -1.97964 0
M  V30 605 H 58.3139 4.34328 -3.74208 0
M  V30 606 H 56.7109 4.01358 -4.4613 0
M  V30 607 H 57.7809 2.65987 -4.05436 0
M  V30 608 N 59.124 1.23083 0.984299 0
M  V30 609 C 60.352 1.08714 1.76037 0
M  V30 610 C 60.767 -0.361691 1.85303 0
M  V30 611 O 60.124 -1.25034 1.32939 0
M  V30 612 C 60.175 1.70206 3.18923 0
M  V30 613 O 59.896 3.09423 3.10144 0
M  V30 614 C 61.397 1.61227 4.12941 0
M  V30 615 H 58.617 0.380664 0.552572 0
M  V30 616 H 61.161 1.62853 1.23689 0
M  V30 617 H 59.316 1.20109 3.6831 0
M  V30 618 H 59.73 3.39188 4.00065 0
M  V30 619 H 61.204 2.08962 5.10919 0
M  V30 620 H 61.681 0.570375 4.35481 0
M  V30 621 H 62.287 2.10671 3.69456 0
M  V30 622 N 60.6021 -1.18246 1.0419 0
M  V30 623 C 62.0181 -1.40269 0.761366 0
M  V30 624 C 62.2181 -1.90777 -0.648578 0
M  V30 625 O 61.2741 -2.0929 -1.41258 0
M  V30 626 C 62.5871 -2.40237 1.8085 0
M  V30 627 C 64.1351 -2.53961 1.82955 0
M  V30 628 C 64.6101 -3.57194 2.86664 0
M  V30 629 N 66.1011 -3.64702 2.85563 0
M  V30 630 C 66.8361 -4.44309 3.6246 0
M  V30 631 N 66.3321 -5.27514 4.49111 0
M  V30 632 N 68.1251 -4.39084 3.50944 0
M  V30 633 H 60.2761 -0.837882 1.95175 0
M  V30 634 H 62.5391 -0.430608 0.84456 0
M  V30 635 H 62.2451 -2.10176 2.81991 0
M  V30 636 H 62.1191 -3.39601 1.64168 0
M  V30 637 H 64.5061 -2.83338 0.824855 0
M  V30 638 H 64.5871 -1.54706 2.03715 0
M  V30 639 H 64.2311 -3.28558 3.87314 0
M  V30 640 H 64.1611 -4.5613 2.6316 0
M  V30 641 H 66.6521 -3.05289 2.22727 0
M  V30 642 H 66.9651 -5.85411 5.04493 0
M  V30 643 H 65.3101 -5.2693 4.53178 0
M  V30 644 H 68.5011 -3.7313 2.82651 0
M  V30 645 H 68.6741 -5.00883 4.11121 0
M  V30 646 N 62.0802 -0.821533 -1.34494 0
M  V30 647 C 63.0302 -0.214793 -2.26986 0
M  V30 648 C 64.0142 0.620125 -1.4847 0
M  V30 649 O 65.2062 0.474933 -1.70509 0
M  V30 650 C 62.3352 0.623566 -3.37589 0
M  V30 651 C 61.4212 -0.221904 -4.23519 0
M  V30 652 N 61.8122 -1.29223 -4.89014 0
M  V30 653 C 60.1102 -0.00600922 -4.46 0
M  V30 654 C 60.8112 -1.80965 -5.52835 0
M  V30 655 N 59.7872 -1.11376 -5.32068 0
M  V30 656 H 63.5892 -1.03354 -2.75128 0
M  V30 657 H 61.1032 -0.6642 -1.48196 0
M  V30 658 H 63.1002 1.0744 -4.02818 0
M  V30 659 H 61.7602 1.44049 -2.90998 0
M  V30 660 H 62.7712 -1.67502 -4.90065 0
M  V30 661 H 59.4482 0.77886 -4.10171 0
M  V30 662 H 60.8382 -2.70502 -6.15043 0
M  V30 663 N 63.5583 1.46682 -0.576371 0
M  V30 664 C 64.5213 2.28707 0.150239 0
M  V30 665 C 65.5213 1.38035 0.824794 0
M  V30 666 O 66.7113 1.60476 0.677719 0
M  V30 667 C 63.8433 3.18248 1.22192 0
M  V30 668 H 65.0363 2.94423 -0.570521 0
M  V30 669 H 62.5893 1.52688 -0.334078 0
M  V30 670 H 63.3243 2.57265 1.97447 0
M  V30 671 H 63.1093 3.85 0.742812 0
M  V30 672 H 64.5993 3.80001 1.73172 0
M  V30 673 N 65.0364 0.313813 1.54444 0
M  V30 674 C 65.9994 -0.54379 2.22656 0
M  V30 675 C 66.9994 -1.05124 1.21678 0
M  V30 676 O 68.1894 -0.945225 1.46325 0
M  V30 677 C 65.3214 -1.75427 2.92298 0
M  V30 678 H 66.5144 0.0523599 2.99854 0
M  V30 679 H 64.0674 0.0647834 1.56166 0
M  V30 680 H 64.8024 -2.38991 2.19211 0
M  V30 681 H 64.5874 -1.39791 3.66334 0
M  V30 682 H 66.0774 -2.36325 3.44297 0
M  V30 683 N 66.5145 -1.57545 0.0417849 0
M  V30 684 C 67.4245 -2.14451 -0.951213 0
M  V30 685 C 68.4405 -1.09992 -1.34825 0
M  V30 686 O 69.6165 -1.42114 -1.42708 0
M  V30 687 C 66.6815 -2.67063 -2.21084 0
M  V30 688 C 65.7425 -3.86284 -1.87304 0
M  V30 689 C 64.9755 -4.36378 -3.07261 0
M  V30 690 O 65.1985 -3.85587 -4.20332 0
M  V30 691 O 64.1325 -5.28077 -2.88822 0
M  V30 692 H 67.9585 -2.99601 -0.497287 0
M  V30 693 H 65.5435 -1.48317 -0.179567 0
M  V30 694 H 67.4255 -3.00914 -2.95006 0
M  V30 695 H 66.1005 -1.84989 -2.65633 0
M  V30 696 H 65.0075 -3.57338 -1.10727 0
M  V30 697 H 66.3405 -4.6956 -1.47562 0
M  V30 698 N 67.9926 0.231505 -1.5589 0
M  V30 699 C 68.9556 1.27028 -1.90779 0
M  V30 700 C 69.9556 1.40308 -0.785507 0
M  V30 701 O 71.1456 1.38744 -1.05336 0
M  V30 702 C 68.2776 2.64566 -2.14983 0
M  V30 703 H 69.4706 0.973017 -2.83677 0
M  V30 704 H 67.0236 0.471486 -1.49019 0
M  V30 705 H 67.7586 2.99406 -1.24604 0
M  V30 706 H 67.5436 2.56305 -2.96732 0
M  V30 707 H 69.0336 3.39543 -2.43105 0
M  V30 708 N 69.4707 1.49531 0.497807 0
M  V30 709 C 70.4007 1.6935 1.60757 0
M  V30 710 C 71.3817 0.542218 1.61227 0
M  V30 711 O 72.5667 0.778417 1.77917 0
M  V30 712 C 69.6967 1.76298 2.99226 0
M  V30 713 C 68.6507 2.91248 3.13622 0
M  V30 714 C 67.9767 2.83312 4.53474 0
M  V30 715 C 69.2767 4.3214 2.93346 0
M  V30 716 H 70.9707 2.62263 1.44425 0
M  V30 717 H 68.5167 1.26208 0.693367 0
M  V30 718 H 70.4697 1.88749 3.76765 0
M  V30 719 H 69.1937 0.799871 3.16654 0
M  V30 720 H 67.8527 2.78404 2.38509 0
M  V30 721 H 67.5007 1.84902 4.67782 0
M  V30 722 H 67.2007 3.60465 4.64046 0
M  V30 723 H 68.7247 2.97775 5.33069 0
M  V30 724 H 70.1387 4.45649 3.60652 0
M  V30 725 H 68.5357 5.1054 3.15387 0
M  V30 726 H 69.6057 4.46363 1.89441 0
M  V30 727 N 70.9488 -0.749086 1.3866 0
M  V30 728 C 71.8788 -1.8764 1.38973 0
M  V30 729 C 72.8598 -1.68178 0.255004 0
M  V30 730 O 74.0448 -1.88704 0.458754 0
M  V30 731 C 71.1748 -3.25222 1.21851 0
M  V30 732 C 70.1288 -3.59295 2.32575 0
M  V30 733 C 69.4548 -4.95663 2.00555 0
M  V30 734 C 70.7548 -3.63709 3.7485 0
M  V30 735 H 72.4488 -1.87635 2.3331 0
M  V30 736 H 69.9948 -0.901329 1.12303 0
M  V30 737 H 71.9478 -4.03746 1.20695 0
M  V30 738 H 70.6718 -3.25719 0.239775 0
M  V30 739 H 69.3308 -2.83093 2.32925 0
M  V30 740 H 68.9788 -4.92724 1.01154 0
M  V30 741 H 68.6788 -5.19429 2.74714 0
M  V30 742 H 70.2028 -5.7656 2.01024 0
M  V30 743 H 71.6168 -4.32338 3.76506 0
M  V30 744 H 70.0138 -3.98986 4.48252 0
M  V30 745 H 71.0838 -2.63834 4.06841 0
M  V30 746 N 72.4269 -1.23603 -0.977757 0
M  V30 747 C 73.3569 -1.04401 -2.0886 0
M  V30 748 C 74.3379 0.0399052 -1.70053 0
M  V30 749 O 75.5229 -0.125246 -1.93796 0
M  V30 750 C 72.6529 -0.637269 -3.41403 0
M  V30 751 C 71.6069 -1.66883 -3.94124 0
M  V30 752 C 70.9329 -1.11745 -5.22893 0
M  V30 753 C 72.2329 -3.06247 -4.23096 0
M  V30 754 H 73.9269 -1.97316 -2.25182 0
M  V30 755 H 71.4729 -0.950096 -1.08209 0
M  V30 756 H 73.4259 -0.48998 -4.18542 0
M  V30 757 H 72.1499 0.327557 -3.24953 0
M  V30 758 H 70.8089 -1.80416 -3.19133 0
M  V30 759 H 70.4569 -0.143527 -5.02795 0
M  V30 760 H 70.1569 -1.80672 -5.59134 0
M  V30 761 H 71.6809 -0.982067 -6.02651 0
M  V30 762 H 73.0949 -2.96001 -4.90975 0
M  V30 763 H 71.4919 -3.72436 -4.70544 0
M  V30 764 H 72.5619 -3.55041 -3.30263 0
M  V30 765 N 73.905 1.17692 -1.04816 0
M  V30 766 C 75.13 1.92327 -0.776207 0
M  V30 767 C 75.555 1.76082 0.661581 0
M  V30 768 O 74.913 1.076 1.45917 0
M  V30 769 C 74.961 3.41539 -1.15687 0
M  V30 770 O 74.065 4.11402 -0.286775 0
M  V30 771 H 73.406 0.599735 -0.284981 0
M  V30 772 H 75.936 1.49201 -1.4 0
M  V30 773 H 75.946 3.92269 -1.12202 0
M  V30 774 H 74.621 3.52684 -2.20425 0
M  V30 775 H 73.198 3.70939 -0.381903 0
M  V30 776 N 75.3831 0.828654 1.34056 0
M  V30 777 C 76.3311 0.242973 2.31327 0
M  V30 778 C 77.3251 -0.61944 1.57668 0
M  V30 779 O 78.5311 -0.51014 1.7262 0
M  V30 780 H 74.9061 0.059834 0.749616 0
M  V30 781 H 76.8771 1.07809 2.78244 0
M  V30 782 C 75.6261 -0.575733 3.429 0
M  V30 783 H 74.9491 0.0785582 3.99723 0
M  V30 784 H 76.3891 -0.951547 4.13185 0
M  V30 785 C 74.8481 -1.75044 2.87856 0
M  V30 786 O 75.3781 -2.84882 2.83205 0
M  V30 787 N 73.5841 -1.56903 2.44602 0
M  V30 788 H 73.1311 -0.675547 2.48584 0
M  V30 789 H 73.0891 -2.35652 2.08124 0
M  V30 790 N 76.8612 -1.46375 0.584142 0
M  V30 791 C 78.1092 -2.01978 0.0701287 0
M  V30 792 C 78.4302 -1.4579 -1.295 0
M  V30 793 O 77.7002 -0.64314 -1.85042 0
M  V30 794 H 76.2802 -0.746648 0.0229345 0
M  V30 795 H 78.9422 -1.79461 0.760245 0
M  V30 796 H 78.0382 -3.121 0.0022064 0
M  V30 797 N 78.3393 -0.321999 -1.54275 0
M  V30 798 C 79.5793 0.281657 -2.0245 0
M  V30 799 C 79.9433 1.49468 -1.20513 0
M  V30 800 O 81.1443 2.17109 -1.58484 0
M  V30 801 C 79.4153 0.609014 -3.52173 0
M  V30 802 S 80.9743 1.19255 -4.22284 0
M  V30 803 H 77.7923 0.0852825 -0.705867 0
M  V30 804 H 80.3943 -0.454758 -1.90137 0
M  V30 805 H 79.0983 -0.281982 -4.0943 0
M  V30 806 H 78.6293 1.37567 -3.68563 0
M  V30 807 H 80.6443 2.47944 -4.29812 0
M  V30 808 N 79.8174 1.5752 -0.0501392 0
M  V30 809 C 81.0944 1.83996 0.663685 0
M  V30 810 C 81.4744 0.938339 1.89099 0
M  V30 811 O 80.8224 -0.00087759 2.285 0
M  V30 812 C 81.0324 3.33702 1.02196 0
M  V30 813 C 82.3804 4.00691 1.40469 0
M  V30 814 O 83.4044 3.38321 1.11433 0
M  V30 815 O 82.2634 5.10658 1.94654 0
M  V30 816 H 79.3574 0.759385 0.32751 0
M  V30 817 H 81.9034 1.69514 -0.0794238 0
M  V30 818 H 80.6754 3.91015 0.149364 0
M  V30 819 H 80.2984 3.53368 1.82255 0
M  V30 820 N 81.2955 -0.223234 1.56011 0
M  V30 821 C 82.5435 -0.946003 1.78592 0
M  V30 822 C 82.8645 -1.84936 0.618349 0
M  V30 823 O 82.1345 -1.92473 -0.364833 0
M  V30 824 H 80.7145 -0.352298 0.658707 0
M  V30 825 H 83.3765 -0.235494 1.93472 0
M  V30 826 H 82.4725 -1.55381 2.70672 0
M  V30 827 N 82.7736 -1.49793 -0.48987 0
M  V30 828 C 83.9986 -1.63836 -1.27172 0
M  V30 829 C 84.4236 -0.31402 -1.8546 0
M  V30 830 O 83.7816 0.719803 -1.66399 0
M  V30 831 C 83.8296 -2.71797 -2.36978 0
M  V30 832 O 82.9336 -2.31744 -3.41128 0
M  V30 833 H 82.2746 -0.547997 -0.37496 0
M  V30 834 H 84.8046 -1.96053 -0.585191 0
M  V30 835 H 84.8146 -2.94305 -2.82575 0
M  V30 836 H 83.4896 -3.67923 -1.93921 0
M  V30 837 H 82.0666 -2.1961 -3.01373 0
M  V30 838 N 84.2517 0.741722 -1.39055 0
M  V30 839 C 85.4817 1.52876 -1.3897 0
M  V30 840 C 85.8897 1.8919 0.0193266 0
M  V30 841 O 85.2327 1.54138 0.999356 0
M  V30 842 C 85.2947 2.84929 -2.19216 0
M  V30 843 C 84.9587 2.71086 -3.67915 0
M  V30 844 C 85.9557 2.40084 -4.61146 0
M  V30 845 C 83.6407 2.88168 -4.11418 0
M  V30 846 C 85.6347 2.26335 -5.95862 0
M  V30 847 C 83.3217 2.74037 -5.46211 0
M  V30 848 C 84.3197 2.43166 -6.38247 0
M  V30 849 O 84.0077 2.29115 -7.70559 0
M  V30 850 H 83.7397 0.479252 -0.476753 0
M  V30 851 H 86.2937 0.924751 -1.83405 0
M  V30 852 H 84.5237 3.47564 -1.69518 0
M  V30 853 H 86.2127 3.46509 -2.11392 0
M  V30 854 H 86.9787 2.26545 -4.28838 0
M  V30 855 H 82.8577 3.11191 -3.40119 0
M  V30 856 H 86.4017 2.0216 -6.67665 0
M  V30 857 H 82.2987 2.87153 -5.78112 0
M  V30 858 H 83.0667 2.44237 -7.81211 0
M  V30 859 N 85.7298 1.2412 0.971189 0
M  V30 860 C 86.6598 1.05508 2.08304 0
M  V30 861 C 87.6408 -0.0308864 1.70072 0
M  V30 862 O 88.8258 0.135521 1.93727 0
M  V30 863 C 85.9558 0.655365 3.4106 0
M  V30 864 C 84.9098 1.68971 3.93234 0
M  V30 865 C 84.2358 1.14516 5.22293 0
M  V30 866 C 85.5358 3.08487 4.21465 0
M  V30 867 H 87.2298 1.98507 2.24132 0
M  V30 868 H 84.7758 0.955821 1.07704 0
M  V30 869 H 86.7288 0.51217 4.18276 0
M  V30 870 H 85.4528 -0.31032 3.25122 0
M  V30 871 H 84.1118 1.82106 3.18171 0
M  V30 872 H 83.7598 0.170189 5.02712 0
M  V30 873 H 83.4598 1.83635 5.58168 0
M  V30 874 H 84.9838 1.01401 6.02121 0
M  V30 875 H 86.3978 2.98601 4.89398 0
M  V30 876 H 84.7948 3.74926 4.68562 0
M  V30 877 H 85.8648 3.56787 3.28376 0
M  V30 878 N 87.2079 -1.17134 1.05439 0
M  V30 879 C 88.1379 -2.2342 0.678649 0
M  V30 880 C 89.1189 -1.66971 -0.32476 0
M  V30 881 O 90.3039 -1.93149 -0.201802 0
M  V30 882 C 87.4339 -3.47256 0.0552099 0
M  V30 883 C 86.3879 -4.16543 0.98365 0
M  V30 884 C 85.7139 -5.34231 0.223961 0
M  V30 885 C 87.0139 -4.68495 2.3089 0
M  V30 886 H 88.7079 -2.55105 1.56722 0
M  V30 887 H 86.2539 -1.2262 0.754998 0
M  V30 888 H 88.2069 -4.20828 -0.21946 0
M  V30 889 H 86.9309 -3.14846 -0.868319 0
M  V30 890 H 85.5899 -3.44887 1.24293 0
M  V30 891 H 85.2379 -4.98071 -0.702412 0
M  V30 892 H 84.9379 -5.81527 0.842627 0
M  V30 893 H 86.4619 -6.10585 -0.0433671 0
M  V30 894 H 87.8759 -5.33691 2.09396 0
M  V30 895 H 86.2729 -5.26379 2.88176 0
M  V30 896 H 87.3429 -3.85169 2.94572 0
M  V30 897 N 88.686 -0.835752 -1.33615 0
M  V30 898 C 90.102 -0.523139 -1.50783 0
M  V30 899 C 90.302 0.950171 -1.77691 0
M  V30 900 O 89.358 1.73411 -1.83534 0
M  V30 901 C 90.671 -1.39378 -2.66448 0
M  V30 902 C 92.219 -1.39223 -2.80332 0
M  V30 903 C 92.694 -2.24765 -3.99055 0
M  V30 904 N 94.185 -2.22458 -4.06284 0
M  V30 905 C 94.92 -2.85386 -4.97336 0
M  V30 906 N 94.416 -3.57354 -5.93523 0
M  V30 907 N 96.209 -2.74872 -4.90308 0
M  V30 908 H 88.36 -1.78952 -1.14411 0
M  V30 909 H 90.623 -0.763297 -0.562212 0
M  V30 910 H 90.329 -2.44061 -2.53234 0
M  V30 911 H 90.203 -1.0676 -3.61776 0
M  V30 912 H 92.59 -0.353136 -2.92979 0
M  V30 913 H 92.671 -1.75846 -1.85773 0
M  V30 914 H 92.315 -3.28732 -3.87167 0
M  V30 915 H 92.245 -1.85485 -4.92852 0
M  V30 916 H 94.736 -1.70119 -3.37443 0
M  V30 917 H 95.049 -4.02584 -6.59656 0
M  V30 918 H 93.394 -3.61461 -5.93608 0
M  V30 919 H 96.585 -2.18213 -4.14126 0
M  V30 920 H 96.758 -3.24199 -5.61069 0
M  V30 921 N 90.1641 1.46063 -0.591896 0
M  V30 922 C 91.4411 1.95595 -0.0137119 0
M  V30 923 C 91.8211 1.5345 1.4497 0
M  V30 924 O 91.1691 0.789543 2.14426 0
M  V30 925 C 91.3791 3.48453 -0.195373 0
M  V30 926 C 92.7271 4.24546 -0.0679765 0
M  V30 927 O 93.7511 3.55982 -0.124681 0
M  V30 928 O 92.6101 5.46467 0.0600579 0
M  V30 929 H 89.7041 0.825795 0.0446279 0
M  V30 930 H 92.2501 1.56303 -0.660859 0
M  V30 931 H 91.0221 3.72045 -1.21235 0
M  V30 932 H 90.6451 3.94597 0.487775 0
M  V30 933 N 91.6422 0.330177 1.54103 0
M  V30 934 C 92.8672 -0.274893 2.0557 0
M  V30 935 C 93.2922 -1.44487 1.20437 0
M  V30 936 O 92.6502 -1.80021 0.214991 0
M  V30 937 C 92.6982 -0.68079 3.54115 0
M  V30 938 O 91.8022 -1.7824 3.71893 0
M  V30 939 H 91.1432 -0.0483849 0.662235 0
M  V30 940 H 93.6732 0.480508 1.98878 0
M  V30 941 H 93.6832 -0.961635 3.96505 0
M  V30 942 H 92.3582 0.174903 4.15532 0
M  V30 943 H 90.9352 -1.49985 3.41407 0
M  V30 944 N 93.1203 -1.57491 0.0584922 0
M  V30 945 C 94.0683 -2.13148 -0.931168 0
M  V30 946 C 95.0623 -1.06507 -1.31729 0
M  V30 947 O 96.2683 -1.24906 -1.29609 0
M  V30 948 H 92.6433 -0.68137 -0.31818 0
M  V30 949 H 94.6143 -2.95187 -0.436707 0
M  V30 950 C 93.3633 -2.69732 -2.19408 0
M  V30 951 H 92.6863 -3.51454 -1.90578 0
M  V30 952 H 94.1263 -3.12287 -2.86798 0
M  V30 953 C 92.5853 -1.63855 -2.94369 0
M  V30 954 O 93.1153 -1.05565 -3.87581 0
M  V30 955 N 91.3213 -1.35202 -2.57233 0
M  V30 956 H 90.8683 -1.82791 -1.81508 0
M  V30 957 H 90.8263 -0.645922 -3.07693 0
M  V30 958 N 94.5984 0.214957 -1.56127 0
M  V30 959 C 95.5084 1.28727 -1.96129 0
M  V30 960 C 96.5244 1.50916 -0.866044 0
M  V30 961 O 97.7004 1.63918 -1.17016 0
M  V30 962 C 94.7654 2.61569 -2.27558 0
M  V30 963 C 93.8264 2.47625 -3.50685 0
M  V30 964 C 93.0594 3.74132 -3.80606 0
M  V30 965 O 93.2824 4.77438 -3.12104 0
M  V30 966 O 92.2164 3.70849 -4.74083 0
M  V30 967 H 96.0424 0.977855 -2.87527 0
M  V30 968 H 93.6274 0.418358 -1.43423 0
M  V30 969 H 95.5094 3.40012 -2.48938 0
M  V30 970 H 94.1844 2.92178 -1.39332 0
M  V30 971 H 93.0914 1.67361 -3.34576 0
M  V30 972 H 94.4244 2.21954 -4.39315 0
M  V30 973 N 96.0765 1.50051 0.48192 0
M  V30 974 C 97.3045 1.64237 1.25832 0
M  V30 975 C 97.7195 0.321336 1.86045 0
M  V30 976 O 97.0765 -0.695478 1.68729 0
M  V30 977 C 97.1275 2.72548 2.37487 0
M  V30 978 O 96.8485 3.99529 1.79745 0
M  V30 979 C 98.3495 2.9761 3.28547 0
M  V30 980 H 95.5695 0.55237 0.380957 0
M  V30 981 H 98.1135 1.96207 0.576467 0
M  V30 982 H 96.2685 2.43303 3.01467 0
M  V30 983 H 96.6825 4.59342 2.5319 0
M  V30 984 H 98.1565 3.77084 4.03127 0
M  V30 985 H 98.6335 2.0826 3.86684 0
M  V30 986 H 99.2395 3.28345 2.70314 0
M  V30 987 N 97.5546 -0.734337 1.39446 0
M  V30 988 C 98.7826 -1.52358 1.39981 0
M  V30 989 C 99.1976 -1.88799 -0.0054975 0
M  V30 990 O 98.5546 -1.54146 -0.976998 0
M  V30 991 C 98.6056 -2.81072 2.27333 0
M  V30 992 O 98.3266 -2.46178 3.62392 0
M  V30 993 C 99.8276 -3.75096 2.36259 0
M  V30 994 H 97.0476 -0.470806 0.478103 0
M  V30 995 H 99.5916 -0.907339 1.83269 0
M  V30 996 H 97.7466 -3.39026 1.87457 0
M  V30 997 H 98.1606 -3.28866 4.08592 0
M  V30 998 H 99.6346 -4.62305 3.01626 0
M  V30 999 H 100.112 -4.16892 1.38194 0
M  V30 1000 H 100.718 -3.23061 2.76608 0
M  V30 1001 N 99.0327 -1.24633 -0.964593 0
M  V30 1002 C 100.281 -1.08573 -1.70459 0
M  V30 1003 C 100.602 0.375655 -1.91347 0
M  V30 1004 O 99.8717 1.26779 -1.49345 0
M  V30 1005 H 98.4517 -0.398784 -0.631649 0
M  V30 1006 H 101.114 -1.56601 -1.16026 0
M  V30 1007 H 100.21 -1.58623 -2.68785 0
M  V30 1008 N 100.511 1.16574 -1.06058 0
M  V30 1009 C 101.441 2.23057 -0.690488 0
M  V30 1010 C 102.422 1.67141 0.315901 0
M  V30 1011 O 103.607 1.93253 0.191556 0
M  V30 1012 C 100.737 3.47222 -0.073625 0
M  V30 1013 C 99.6908 4.16016 -1.00573 0
M  V30 1014 C 99.0168 5.34104 -0.252289 0
M  V30 1015 C 100.317 4.67264 -2.33371 0
M  V30 1016 H 102.011 2.54271 -1.58072 0
M  V30 1017 H 99.5568 1.22218 -0.76149 0
M  V30 1018 H 101.51 4.20939 0.19714 0
M  V30 1019 H 100.234 3.15302 0.85161 0
M  V30 1020 H 98.8928 3.44223 -1.2612 0
M  V30 1021 H 98.5408 4.98437 0.675988 0
M  V30 1022 H 98.2408 5.81072 -0.873455 0
M  V30 1023 H 99.7648 6.10599 0.0109857 0
M  V30 1024 H 101.179 5.32573 -2.12223 0
M  V30 1025 H 99.5758 5.24843 -2.90963 0
M  V30 1026 H 100.646 3.83602 -2.96611 0
M  V30 1027 N 101.989 0.842826 1.3317 0
M  V30 1028 C 103.219 0.453397 2.01564 0
M  V30 1029 C 103.627 -0.951147 1.63554 0
M  V30 1030 O 102.97 -1.63021 0.846746 0
M  V30 1031 C 103.032 0.499013 3.5602 0
M  V30 1032 C 102.696 1.86037 4.1742 0
M  V30 1033 C 103.693 2.82416 4.36506 0
M  V30 1034 C 101.378 2.15428 4.53757 0
M  V30 1035 C 103.372 4.06346 4.91082 0
M  V30 1036 C 101.059 3.39615 5.0804 0
M  V30 1037 C 102.057 4.3489 5.26649 0
M  V30 1038 O 101.745 5.5688 5.79776 0
M  V30 1039 H 101.477 0.177871 0.652179 0
M  V30 1040 H 104.031 1.13808 1.70988 0
M  V30 1041 H 102.261 -0.242467 3.85939 0
M  V30 1042 H 103.95 0.126852 4.05702 0
M  V30 1043 H 104.716 2.6101 4.08777 0
M  V30 1044 H 100.595 1.42061 4.38565 0
M  V30 1045 H 104.139 4.80722 5.05522 0
M  V30 1046 H 100.036 3.60876 5.352 0
M  V30 1047 H 100.804 5.58674 5.98185 0
M  V30 1048 N 103.467 -1.45747 0.599634 0
M  V30 1049 C 104.692 -2.07178 0.0960198 0
M  V30 1050 C 105.117 -1.44268 -1.207 0
M  V30 1051 O 104.475 -0.532503 -1.73303 0
M  V30 1052 C 104.523 -3.60579 -0.0385348 0
M  V30 1053 O 103.627 -3.97713 -1.0908 0
M  V30 1054 H 102.968 -0.660251 0.0704593 0
M  V30 1055 H 105.498 -1.87124 0.827385 0
M  V30 1056 H 105.508 -4.07298 -0.239304 0
M  V30 1057 H 104.183 -4.05756 0.912947 0
M  V30 1058 H 102.76 -3.62678 -0.867135 0
M  V30 1059 N 104.945 -0.338344 -1.53925 0
M  V30 1060 C 105.875 0.51328 -2.27789 0
M  V30 1061 C 106.856 1.107 -1.29149 0
M  V30 1062 O 108.041 1.12937 -1.57984 0
M  V30 1063 C 105.171 1.66697 -3.04679 0
M  V30 1064 C 104.125 1.20183 -4.1078 0
M  V30 1065 C 103.451 2.44363 -4.75595 0
M  V30 1066 C 104.751 0.30605 -5.21403 0
M  V30 1067 H 106.445 -0.102883 -2.99223 0
M  V30 1068 H 103.991 -0.0509219 -1.4391 0
M  V30 1069 H 105.944 2.26915 -3.55088 0
M  V30 1070 H 104.668 2.30995 -2.30887 0
M  V30 1071 H 103.327 0.622499 -3.61276 0
M  V30 1072 H 102.975 3.07057 -3.98403 0
M  V30 1073 H 102.675 2.13925 -5.47275 0
M  V30 1074 H 104.199 3.05317 -5.28786 0
M  V30 1075 H 105.613 0.814929 -5.67478 0
M  V30 1076 H 104.01 0.0937929 -6.00027 0
M  V30 1077 H 105.08 -0.65921 -4.80398 0
M  V30 1078 N 106.423 1.57458 -0.0668435 0
M  V30 1079 C 107.648 1.9804 0.616027 0
M  V30 1080 C 108.073 0.944771 1.62652 0
M  V30 1081 O 107.431 -0.0902094 1.81075 0
M  V30 1082 C 107.479 3.37665 1.26549 0
M  V30 1083 O 106.583 3.36701 2.38131 0
M  V30 1084 H 105.924 0.644719 0.158849 0
M  V30 1085 H 108.454 2.04121 -0.139891 0
M  V30 1086 H 108.464 3.7474 1.6135 0
M  V30 1087 H 107.139 4.12573 0.525016 0
M  V30 1088 H 105.716 3.1139 2.0516 0
M  V30 1089 N 107.901 -0.206675 1.56239 0
M  V30 1090 C 109.147 -0.930218 1.80208 0
M  V30 1091 C 109.48 -1.83387 0.638981 0
M  V30 1092 O 108.755 -1.91119 -0.361066 0
M  V30 1093 C 109.038 -1.75641 3.1436 0
M  V30 1094 C 108.891 -0.878257 4.41142 0
M  V30 1095 C 110.21 -2.73129 3.45092 0
M  V30 1096 H 107.329 -0.336742 0.655571 0
M  V30 1097 H 109.971 -0.198222 1.88963 0
M  V30 1098 H 108.121 -2.38048 3.07027 0
M  V30 1099 H 109.793 -0.269787 4.6051 0
M  V30 1100 H 108.036 -0.184385 4.33408 0
M  V30 1101 H 108.707 -1.49106 5.3148 0
M  V30 1102 H 111.183 -2.20856 3.52649 0
M  V30 1103 H 110.059 -3.28028 4.40101 0
M  V30 1104 H 110.32 -3.51606 2.68003 0
M  V30 1105 N 109.379 -1.50304 -0.473955 0
M  V30 1106 C 110.795 -1.37667 -0.807466 0
M  V30 1107 C 110.995 -0.430555 -1.96846 0
M  V30 1108 O 110.051 0.127874 -2.52176 0
M  V30 1109 C 111.364 -2.78974 -1.12223 0
M  V30 1110 C 112.912 -2.87868 -1.22885 0
M  V30 1111 C 113.387 -4.30003 -1.57676 0
M  V30 1112 N 114.878 -4.3294 -1.64673 0
M  V30 1113 C 115.613 -5.3991 -1.93091 0
M  V30 1114 N 115.109 -6.57092 -2.1955 0
M  V30 1115 N 116.902 -5.27351 -1.94569 0
M  V30 1116 H 109.053 -2.10394 0.291212 0
M  V30 1117 H 111.316 -0.945575 0.0677609 0
M  V30 1118 H 111.022 -3.50031 -0.342229 0
M  V30 1119 H 110.896 -3.16038 -2.05913 0
M  V30 1120 H 113.283 -2.17032 -1.99953 0
M  V30 1121 H 113.364 -2.54352 -0.271814 0
M  V30 1122 H 113.008 -5.01375 -0.81149 0
M  V30 1123 H 112.938 -4.61004 -2.54525 0
M  V30 1124 H 115.429 -3.48441 -1.46277 0
M  V30 1125 H 115.742 -7.34425 -2.405 0
M  V30 1126 H 114.087 -6.60272 -2.16948 0
M  V30 1127 H 117.278 -4.34801 -1.73394 0
M  V30 1128 H 117.451 -6.10805 -2.16381 0
M  V30 1129 N 110.857 0.726932 -1.39834 0
M  V30 1130 C 111.82 1.82269 -1.38962 0
M  V30 1131 C 112.82 1.58248 -0.285334 0
M  V30 1132 O 114.01 1.65499 -0.54366 0
M  V30 1133 C 111.142 3.20186 -1.17019 0
M  V30 1134 H 112.335 1.84443 -2.36476 0
M  V30 1135 H 109.888 0.931416 -1.25516 0
M  V30 1136 H 110.623 3.23669 -0.202204 0
M  V30 1137 H 110.408 3.3902 -1.96998 0
M  V30 1138 H 111.898 4.00235 -1.1917 0
M  V30 1139 N 112.336 1.25143 0.95797 0
M  V30 1140 C 113.283 1.05235 2.05412 0
M  V30 1141 C 114.253 -0.0374561 1.66058 0
M  V30 1142 O 115.438 0.119073 1.90428 0
M  V30 1143 C 112.578 0.673589 3.38462 0
M  V30 1144 C 111.691 1.8379 3.90954 0
M  V30 1145 C 110.826 1.40381 5.12315 0
M  V30 1146 C 109.865 2.53746 5.57027 0
M  V30 1147 N 109.002 2.11136 6.69601 0
M  V30 1148 H 113.842 1.99048 2.21774 0
M  V30 1149 H 111.379 0.991277 1.08683 0
M  V30 1150 H 113.337 0.434964 4.14926 0
M  V30 1151 H 111.967 -0.227554 3.21997 0
M  V30 1152 H 111.019 2.18992 3.11041 0
M  V30 1153 H 112.331 2.68937 4.20089 0
M  V30 1154 H 111.485 1.12464 5.96185 0
M  V30 1155 H 110.224 0.523015 4.84887 0
M  V30 1156 H 109.229 2.82412 4.71724 0
M  V30 1157 H 110.454 3.42398 5.86464 0
M  V30 1158 H 108.4 1.25468 6.4389 0
M  V30 1159 H 108.317 2.89832 6.98236 0
M  V30 1160 H 109.585 1.86385 7.56889 0
M  V30 1161 N 113.814 -1.1601 1.06675 0
M  V30 1162 C 115.091 -1.82679 0.699114 0
M  V30 1163 C 115.471 -1.94559 -0.819137 0
M  V30 1164 O 114.819 -1.49169 -1.73092 0
M  V30 1165 C 115.029 -3.19445 1.40555 0
M  V30 1166 C 116.377 -3.95171 1.55323 0
M  V30 1167 O 117.401 -3.28976 1.36577 0
M  V30 1168 O 116.26 -5.13833 1.86112 0
M  V30 1169 H 113.354 -0.788954 0.247951 0
M  V30 1170 H 115.9 -1.23179 1.16726 0
M  V30 1171 H 114.672 -3.05856 2.44065 0
M  V30 1172 H 114.295 -3.86625 0.927733 0
M  V30 1173 N 115.292 -0.849877 -1.32721 0
M  V30 1174 C 116.517 -0.463856 -2.02146 0
M  V30 1175 C 116.942 0.930449 -1.63476 0
M  V30 1176 O 116.3 1.61033 -0.832952 0
M  V30 1177 C 116.348 -0.604955 -3.55489 0
M  V30 1178 O 115.452 0.36425 -4.10788 0
M  V30 1179 H 114.793 -0.187046 -0.637111 0
M  V30 1180 H 117.323 -1.14775 -1.69375 0
M  V30 1181 H 117.333 -0.490696 -4.05038 0
M  V30 1182 H 116.008 -1.62174 -3.82978 0
M  V30 1183 H 114.585 0.206628 -3.72327 0
M  V30 1184 N 116.77 1.45427 -0.607355 0
M  V30 1185 C 118.016 2.0254 -0.102607 0
M  V30 1186 C 118.349 1.47478 1.26348 0
M  V30 1187 O 117.624 0.64939 1.83339 0
M  V30 1188 C 117.907 3.60044 -0.0634347 0
M  V30 1189 C 117.76 4.2544 -1.46017 0
M  V30 1190 C 119.079 4.35646 0.624514 0
M  V30 1191 H 116.198 0.73598 -0.0387607 0
M  V30 1192 H 118.84 1.73284 -0.779282 0
M  V30 1193 H 116.99 3.85101 0.512808 0
M  V30 1194 H 118.662 4.11569 -2.08347 0
M  V30 1195 H 116.905 3.83849 -2.02094 0
M  V30 1196 H 117.576 5.34342 -1.385 0
M  V30 1197 H 120.052 4.15882 0.134723 0
M  V30 1198 H 118.928 5.45376 0.621028 0
M  V30 1199 H 119.189 4.08501 1.69055 0
M  V30 1200 N 118.248 0.346503 1.53744 0
M  V30 1201 C 119.195 -0.508914 2.25119 0
M  V30 1202 C 120.165 -1.09315 1.25058 0
M  V30 1203 O 121.35 -1.12921 1.53797 0
M  V30 1204 C 118.49 -1.65246 3.02965 0
M  V30 1205 C 117.603 -1.09525 4.17886 0
M  V30 1206 C 116.738 -2.20634 4.83212 0
M  V30 1207 C 115.777 -1.62279 5.90196 0
M  V30 1208 N 114.914 -2.67143 6.49291 0
M  V30 1209 H 119.754 0.106283 2.9781 0
M  V30 1210 H 117.291 0.0642227 1.4696 0
M  V30 1211 H 119.249 -2.32574 3.4636 0
M  V30 1212 H 117.879 -2.2386 2.32565 0
M  V30 1213 H 116.931 -0.312818 3.79112 0
M  V30 1214 H 118.243 -0.628444 4.94825 0
M  V30 1215 H 117.397 -2.95821 5.29693 0
M  V30 1216 H 116.136 -2.70659 4.05703 0
M  V30 1217 H 115.141 -0.855989 5.43096 0
M  V30 1218 H 116.366 -1.13102 6.69615 0
M  V30 1219 H 114.312 -3.16417 5.74645 0
M  V30 1220 H 114.229 -2.25093 7.21713 0
M  V30 1221 H 115.497 -3.4209 7.00425 0
M  V30 1222 N 119.726 -1.57421 0.075193 0
M  V30 1223 C 120.676 -2.09441 -0.901025 0
M  V30 1224 C 121.66 -1.00486 -1.25663 0
M  V30 1225 O 122.852 -1.2679 -1.23504 0
M  V30 1226 C 119.981 -2.66233 -2.16737 0
M  V30 1227 C 119.067 -3.82198 -1.83808 0
M  V30 1228 N 119.458 -4.91028 -1.21345 0
M  V30 1229 C 117.756 -3.91558 -2.13538 0
M  V30 1230 C 118.457 -5.71852 -1.06585 0
M  V30 1231 N 117.433 -5.20233 -1.57667 0
M  V30 1232 H 121.235 -2.90972 -0.413815 0
M  V30 1233 H 118.749 -1.6189 -0.128601 0
M  V30 1234 H 120.746 -3.01819 -2.87595 0
M  V30 1235 H 119.406 -1.8615 -2.66042 0
M  V30 1236 H 120.417 -5.10323 -0.88268 0
M  V30 1237 H 117.094 -3.22454 -2.65197 0
M  V30 1238 H 118.484 -6.69401 -0.578933 0
M  V30 1239 N 121.204 0.198386 -1.56346 0
M  V30 1240 C 122.451 0.919286 -1.80431 0
M  V30 1241 C 122.779 1.83393 -0.647866 0
M  V30 1242 O 122.034 1.92236 0.366556 0
M  V30 1243 C 122.333 1.77031 -3.10475 0
M  V30 1244 C 121.999 1.00693 -4.39513 0
M  V30 1245 C 120.661 0.796145 -4.74568 0
M  V30 1246 C 123.013 0.469559 -5.19081 0
M  V30 1247 C 120.341 0.0364588 -5.86689 0
M  V30 1248 C 122.693 -0.2769 -6.31994 0
M  V30 1249 C 121.357 -0.49873 -6.65634 0
M  V30 1250 H 120.627 0.336391 -0.660244 0
M  V30 1251 H 123.274 0.185872 -1.90596 0
M  V30 1252 H 121.579 2.5723 -2.95533 0
M  V30 1253 H 123.276 2.33065 -3.26315 0
M  V30 1254 H 119.866 1.18122 -4.12001 0
M  V30 1255 H 124.05 0.619816 -4.92414 0
M  V30 1256 H 119.306 -0.145412 -6.11227 0
M  V30 1257 H 123.48 -0.700684 -6.92866 0
M  V30 1258 H 121.107 -1.0893 -7.52355 0
M  V30 1259 N 122.682 1.50554 0.465978 0
M  V30 1260 C 123.632 1.66177 1.56106 0
M  V30 1261 C 124.616 0.516265 1.52393 0
M  V30 1262 O 125.808 0.770906 1.5933 0
M  V30 1263 C 122.937 1.76396 2.94515 0
M  V30 1264 C 122.023 2.9664 3.03093 0
M  V30 1265 N 122.414 4.20245 2.81474 0
M  V30 1266 C 120.712 2.95304 3.34233 0
M  V30 1267 C 121.413 5.01259 2.95151 0
M  V30 1268 N 120.389 4.35318 3.25576 0
M  V30 1269 H 124.191 2.59434 1.38099 0
M  V30 1270 H 121.705 1.47808 0.6728 0
M  V30 1271 H 123.702 1.85694 3.73261 0
M  V30 1272 H 122.362 0.843017 3.13565 0
M  V30 1273 H 123.373 4.4966 2.56956 0
M  V30 1274 H 120.05 2.12729 3.59239 0
M  V30 1275 H 121.44 6.09564 2.82632 0
M  V30 1276 N 124.16 -0.719506 1.40217 0
M  V30 1277 C 125.406 -1.48152 1.38488 0
M  V30 1278 C 125.739 -1.94195 -0.0141867 0
M  V30 1279 O 125.014 -1.67884 -0.982096 0
M  V30 1280 C 125.297 -2.71035 2.37091 0
M  V30 1281 C 125.15 -2.30912 3.86005 0
M  V30 1282 C 126.469 -3.73182 2.33288 0
M  V30 1283 H 123.588 -0.537395 0.504357 0
M  V30 1284 H 126.23 -0.821472 1.71324 0
M  V30 1285 H 124.38 -3.27352 2.0922 0
M  V30 1286 H 126.052 -1.80107 4.24687 0
M  V30 1287 H 124.295 -1.62958 4.02029 0
M  V30 1288 H 124.966 -3.18978 4.50508 0
M  V30 1289 H 127.442 -3.26485 2.57966 0
M  V30 1290 H 126.318 -4.56806 3.04334 0
M  V30 1291 H 126.579 -4.21202 1.34317 0
M  V30 1292 N 125.638 -1.25649 -0.95132 0
M  V30 1293 C 126.548 -1.08073 -2.08224 0
M  V30 1294 C 127.564 -0.0169666 -1.73992 0
M  V30 1295 O 128.74 -0.218593 -2.0021 0
M  V30 1296 C 125.805 -0.704922 -3.39458 0
M  V30 1297 C 124.866 -1.84699 -3.87537 0
M  V30 1298 C 124.099 -1.48902 -5.12508 0
M  V30 1299 O 124.322 -0.386156 -5.69091 0
M  V30 1300 O 123.256 -2.32033 -5.55378 0
M  V30 1301 H 127.082 -2.02924 -2.25954 0
M  V30 1302 H 124.667 -1.04618 -1.06656 0
M  V30 1303 H 126.549 -0.507609 -4.18332 0
M  V30 1304 H 125.224 0.214291 -3.2299 0
M  V30 1305 H 124.131 -2.09919 -3.09653 0
M  V30 1306 H 125.464 -2.74557 -4.08509 0
M  V30 1307 N 127.117 1.15442 -1.07289 0
M  V30 1308 C 128.347 1.89821 -0.815576 0
M  V30 1309 C 128.755 1.7823 0.634867 0
M  V30 1310 O 128.098 1.13152 1.44715 0
M  V30 1311 C 128.16 3.40817 -1.14385 0
M  V30 1312 C 127.824 3.76193 -2.59476 0
M  V30 1313 C 128.821 3.77269 -3.57721 0
M  V30 1314 C 126.506 4.0652 -2.95037 0
M  V30 1315 C 128.5 4.08176 -4.89562 0
M  V30 1316 C 126.187 4.37092 -4.27076 0
M  V30 1317 C 127.185 4.37902 -5.24148 0
M  V30 1318 O 126.873 4.67741 -6.53815 0
M  V30 1319 H 126.605 0.608465 -0.294528 0
M  V30 1320 H 129.159 1.472 -1.43252 0
M  V30 1321 H 127.389 3.83835 -0.469865 0
M  V30 1322 H 129.078 3.96485 -0.869179 0
M  V30 1323 H 129.844 3.5394 -3.3159 0
M  V30 1324 H 125.723 4.05049 -2.20128 0
M  V30 1325 H 129.267 4.08723 -5.65324 0
M  V30 1326 H 125.164 4.59889 -4.5296 0
M  V30 1327 H 125.932 4.85509 -6.58957 0
M  V30 1328 N 128.595 0.856903 1.32268 0
M  V30 1329 C 129.823 0.475439 2.01363 0
M  V30 1330 C 130.238 -0.928486 1.64392 0
M  V30 1331 O 129.595 -1.60624 0.866387 0
M  V30 1332 C 129.646 0.607545 3.56358 0
M  V30 1333 O 129.367 1.95617 3.92002 0
M  V30 1334 C 130.868 0.225382 4.42727 0
M  V30 1335 H 128.088 0.186636 0.644521 0
M  V30 1336 H 130.632 1.15446 1.68797 0
M  V30 1337 H 128.787 -0.0237719 3.87393 0
M  V30 1338 H 129.201 1.95455 4.86721 0
M  V30 1339 H 130.675 0.368813 5.50767 0
M  V30 1340 H 131.152 -0.834369 4.31202 0
M  V30 1341 H 131.758 0.831864 4.17085 0
M  V30 1342 N 130.073 -1.45103 0.615059 0
M  V30 1343 C 131.321 -2.01784 0.112955 0
M  V30 1344 C 131.642 -1.48504 -1.26378 0
M  V30 1345 O 130.912 -0.682245 -1.83636 0
M  V30 1346 H 129.492 -0.745993 0.0387668 0
M  V30 1347 H 132.154 -1.77808 0.798141 0
M  V30 1348 H 131.25 -3.12025 0.0684069 0
M  V30 1349 N 131.551 -0.354651 -1.53558 0
M  V30 1350 C 132.781 0.239167 -2.05211 0
M  V30 1351 C 133.189 1.43879 -1.22863 0
M  V30 1352 O 132.532 1.81857 -0.259565 0
M  V30 1353 C 132.594 0.707251 -3.52474 0
M  V30 1354 C 132.258 -0.374212 -4.55465 0
M  V30 1355 C 133.255 -1.22054 -5.0537 0
M  V30 1356 C 130.94 -0.531323 -4.99482 0
M  V30 1357 C 132.934 -2.20942 -5.97882 0
M  V30 1358 C 130.621 -1.52358 -5.91802 0
M  V30 1359 C 131.619 -2.36108 -6.40892 0
M  V30 1360 O 131.307 -3.33643 -7.31394 0
M  V30 1361 H 131.039 0.0479716 -0.674296 0
M  V30 1362 H 133.593 -0.508121 -1.99016 0
M  V30 1363 H 131.823 1.50596 -3.56171 0
M  V30 1364 H 133.512 1.22285 -3.87042 0
M  V30 1365 H 134.278 -1.1103 -4.7212 0
M  V30 1366 H 130.157 0.110738 -4.60867 0
M  V30 1367 H 133.701 -2.86348 -6.36121 0
M  V30 1368 H 129.598 -1.63434 -6.24467 0
M  V30 1369 H 130.366 -3.29244 -7.4936 0
M  V30 1370 N 133.029 1.57378 -0.0835403 0
M  V30 1371 C 134.254 1.98682 0.594987 0
M  V30 1372 C 134.679 0.961969 1.61641 0
M  V30 1373 O 134.037 -0.0709989 1.81161 0
M  V30 1374 C 134.085 3.38988 1.2296 0
M  V30 1375 O 133.189 3.39208 2.34546 0
M  V30 1376 H 132.53 0.646368 0.152002 0
M  V30 1377 H 135.06 2.03961 -0.161533 0
M  V30 1378 H 135.07 3.76431 1.57366 0
M  V30 1379 H 133.745 4.13107 0.481228 0
M  V30 1380 H 132.322 3.13548 2.01846 0
M  V30 1381 N 134.507 -0.190092 1.56449 0
M  V30 1382 C 135.754 -0.909705 1.80916 0
M  V30 1383 C 136.082 -1.83047 0.657583 0
M  V30 1384 O 135.337 -1.92428 -0.356356 0
M  V30 1385 C 135.636 -1.75382 3.1141 0
M  V30 1386 C 135.302 -0.983606 4.40041 0
M  V30 1387 C 133.964 -0.770967 4.74984 0
M  V30 1388 C 136.316 -0.442024 5.19322 0
M  V30 1389 C 133.644 -0.0053448 5.867 0
M  V30 1390 C 135.996 0.310412 6.31838 0
M  V30 1391 C 134.66 0.534023 6.6536 0
M  V30 1392 H 133.93 -0.332885 0.662019 0
M  V30 1393 H 136.577 -0.175762 1.90692 0
M  V30 1394 H 134.882 -2.55659 2.96893 0
M  V30 1395 H 136.579 -2.31331 3.27547 0
M  V30 1396 H 133.169 -1.15936 4.12622 0
M  V30 1397 H 137.353 -0.593693 4.92736 0
M  V30 1398 H 132.609 0.177825 6.11141 0
M  V30 1399 H 136.783 0.737419 6.92485 0
M  V30 1400 H 134.41 1.12918 7.51767 0
M  V30 1401 N 135.985 -1.50799 -0.457987 0
M  V30 1402 C 136.932 -1.70617 -1.5543 0
M  V30 1403 C 137.902 -0.547562 -1.56815 0
M  V30 1404 O 139.087 -0.779647 -1.74144 0
M  V30 1405 C 136.227 -1.81831 -2.93311 0
M  V30 1406 C 135.34 -3.09278 -3.01615 0
M  V30 1407 C 134.475 -3.11209 -4.30491 0
M  V30 1408 C 133.514 -4.33055 -4.32585 0
M  V30 1409 N 132.651 -4.32652 -5.52952 0
M  V30 1410 H 137.491 -2.64207 -1.37836 0
M  V30 1411 H 135.028 -1.30959 -0.669937 0
M  V30 1412 H 136.986 -1.86314 -3.73287 0
M  V30 1413 H 135.616 -0.916685 -3.0951 0
M  V30 1414 H 134.668 -3.14203 -2.1443 0
M  V30 1415 H 135.98 -3.99233 -2.99022 0
M  V30 1416 H 135.134 -3.14494 -5.18824 0
M  V30 1417 H 133.873 -2.19106 -4.35711 0
M  V30 1418 H 132.878 -4.29969 -3.42647 0
M  V30 1419 H 134.103 -5.264 -4.29046 0
M  V30 1420 H 132.049 -3.43409 -5.58933 0
M  V30 1421 H 131.966 -5.16392 -5.52155 0
M  V30 1422 H 133.234 -4.40101 -6.43375 0
M  V30 1423 N 137.463 0.71206 -1.40597 0
M  V30 1424 C 138.71 1.47197 -1.39065 0
M  V30 1425 C 139.038 1.94499 0.00583891 0
M  V30 1426 O 138.293 1.68752 0.99102 0
M  V30 1427 C 138.592 2.71039 -2.32965 0
M  V30 1428 C 138.258 2.42484 -3.80148 0
M  V30 1429 C 136.92 2.34406 -4.20247 0
M  V30 1430 C 139.272 2.18598 -4.73143 0
M  V30 1431 C 136.6 2.00516 -5.51371 0
M  V30 1432 C 138.952 1.8622 -6.0457 0
M  V30 1433 C 137.616 1.76626 -6.43708 0
M  V30 1434 H 136.886 0.538634 -0.508876 0
M  V30 1435 H 139.533 0.815325 -1.73276 0
M  V30 1436 H 137.838 3.41558 -1.91951 0
M  V30 1437 H 139.535 3.29138 -2.29061 0
M  V30 1438 H 136.125 2.49659 -3.4838 0
M  V30 1439 H 140.309 2.23793 -4.42979 0
M  V30 1440 H 135.565 1.91628 -5.80593 0
M  V30 1441 H 139.739 1.66752 -6.76141 0
M  V30 1442 H 137.366 1.50133 -7.45228 0
M  V30 1443 N 138.941 1.26152 0.944643 0
M  V30 1444 C 140.189 1.11271 1.6871 0
M  V30 1445 C 140.51 -0.345166 1.91921 0
M  V30 1446 O 139.78 -1.24387 1.51343 0
M  V30 1447 H 138.36 0.408783 0.625224 0
M  V30 1448 H 141.022 1.58427 1.1352 0
M  V30 1449 H 140.118 1.62879 2.66227 0
M  V30 1450 N 140.419 -1.14872 1.07899 0
M  V30 1451 C 141.666 -1.85789 0.805532 0
M  V30 1452 C 141.994 -1.82649 -0.668561 0
M  V30 1453 O 141.249 -1.24858 -1.50695 0
M  V30 1454 C 141.548 -3.34223 1.26609 0
M  V30 1455 C 141.214 -3.57555 2.74709 0
M  V30 1456 C 139.876 -3.63631 3.1516 0
M  V30 1457 C 142.228 -3.66803 3.70277 0
M  V30 1458 C 139.556 -3.76473 4.49983 0
M  V30 1459 C 141.908 -3.8117 5.04869 0
M  V30 1460 C 140.572 -3.85494 5.44932 0
M  V30 1461 H 139.842 -0.679849 0.294765 0
M  V30 1462 H 142.489 -1.3572 1.35101 0
M  V30 1463 H 140.794 -3.86536 0.640103 0
M  V30 1464 H 142.491 -3.87511 1.03132 0
M  V30 1465 H 139.081 -3.5347 2.42398 0
M  V30 1466 H 143.265 -3.61404 3.40149 0
M  V30 1467 H 138.521 -3.7808 4.80484 0
M  V30 1468 H 142.695 -3.87268 5.78789 0
M  V30 1469 H 140.322 -3.95197 6.49403 0
M  V30 1470 N 141.898 -0.863906 -1.31812 0
M  V30 1471 C 142.846 -0.30422 -2.30602 0
M  V30 1472 C 143.84 0.577419 -1.59255 0
M  V30 1473 O 145.046 0.464194 -1.73912 0
M  V30 1474 H 141.421 -0.0796877 -0.747766 0
M  V30 1475 H 143.392 -1.15148 -2.75288 0
M  V30 1476 C 142.141 0.484617 -3.44306 0
M  V30 1477 H 141.464 -0.18451 -3.99374 0
M  V30 1478 H 142.904 0.841664 -4.15562 0
M  V30 1479 C 141.363 1.6735 -2.92396 0
M  V30 1480 O 141.893 2.77273 -2.90659 0
M  V30 1481 N 140.099 1.50362 -2.48676 0
M  V30 1482 H 139.646 0.609402 -2.50288 0
M  V30 1483 H 139.604 2.30051 -2.14299 0
M  V30 1484 N 143.376 1.44774 -0.622745 0
M  V30 1485 C 144.286 2.34433 0.0886031 0
M  V30 1486 C 145.302 1.52131 0.844529 0
M  V30 1487 O 146.478 1.84886 0.798691 0
M  V30 1488 C 143.543 3.29986 1.0635 0
M  V30 1489 C 142.604 4.28195 0.307873 0
M  V30 1490 C 141.837 5.19183 1.23633 0
M  V30 1491 O 142.06 5.13918 2.47476 0
M  V30 1492 O 140.994 5.97515 0.725189 0
M  V30 1493 H 144.82 2.96693 -0.648599 0
M  V30 1494 H 142.405 1.44408 -0.382957 0
M  V30 1495 H 144.287 3.88825 1.6246 0
M  V30 1496 H 142.962 2.70269 1.78146 0
M  V30 1497 H 141.869 3.72927 -0.296064 0
M  V30 1498 H 143.202 4.90808 -0.3699 0
M  V30 1499 N 144.854 0.36279 1.53368 0
M  V30 1500 C 146.101 -0.227776 2.01215 0
M  V30 1501 C 146.429 -1.49003 1.25014 0
M  V30 1502 O 145.684 -1.92876 0.331236 0
M  V30 1503 C 145.983 -0.568417 3.52851 0
M  V30 1504 C 145.649 0.59918 4.46901 0
M  V30 1505 C 144.311 0.919559 4.72332 0
M  V30 1506 C 146.663 1.38156 5.02556 0
M  V30 1507 C 143.991 2.02434 5.5067 0
M  V30 1508 C 146.343 2.47674 5.821 0
M  V30 1509 C 145.007 2.8025 6.05819 0
M  V30 1510 H 144.277 -0.083349 0.736297 0
M  V30 1511 H 146.924 0.494677 1.85001 0
M  V30 1512 H 145.229 -1.37185 3.66998 0
M  V30 1513 H 146.926 -1.03756 3.87344 0
M  V30 1514 H 143.516 0.339437 4.27254 0
M  V30 1515 H 147.7 1.14729 4.82857 0
M  V30 1516 H 142.956 2.28075 5.67267 0
M  V30 1517 H 147.13 3.08716 6.24234 0
M  V30 1518 H 144.757 3.65979 6.66306 0
M  V30 1519 N 146.332 -1.57332 0.0918853 0
M  V30 1520 C 147.557 -1.98995 -0.584442 0
M  V30 1521 C 147.982 -0.970528 -1.61128 0
M  V30 1522 O 147.34 0.0613904 -1.81196 0
M  V30 1523 C 147.388 -3.39636 -1.21161 0
M  V30 1524 O 146.492 -3.40447 -2.32744 0
M  V30 1525 H 145.833 -0.647165 -0.148572 0
M  V30 1526 H 148.363 -2.03873 0.172347 0
M  V30 1527 H 148.373 -3.7726 -1.55367 0
M  V30 1528 H 147.048 -4.13356 -0.459313 0
M  V30 1529 H 145.625 -3.14614 -2.0018 0
M  V30 1530 N 147.81 0.181792 -1.56548 0
M  V30 1531 C 149.035 0.920019 -1.85877 0
M  V30 1532 C 149.46 1.75494 -0.677021 0
M  V30 1533 O 148.818 1.77399 0.374056 0
M  V30 1534 C 148.866 1.78112 -3.13542 0
M  V30 1535 O 147.97 2.88152 -2.95029 0
M  V30 1536 H 147.311 0.258334 -0.611686 0
M  V30 1537 H 149.841 0.183092 -2.03779 0
M  V30 1538 H 149.851 2.18314 -3.44678 0
M  V30 1539 H 148.526 1.16777 -3.99169 0
M  V30 1540 H 147.103 2.51609 -2.75222 0
M  V30 1541 N 149.288 1.51039 0.449983 0
M  V30 1542 C 150.218 1.74379 1.55288 0
M  V30 1543 C 151.199 0.593236 1.5942 0
M  V30 1544 O 152.384 0.834625 1.7535 0
M  V30 1545 C 149.514 1.85728 2.93466 0
M  V30 1546 C 148.468 3.01078 3.04197 0
M  V30 1547 C 147.794 2.97595 4.44231 0
M  V30 1548 C 149.094 4.41254 2.7945 0
M  V30 1549 H 150.788 2.66725 1.36008 0
M  V30 1550 H 148.334 1.2835 0.652864 0
M  V30 1551 H 150.287 2.0064 3.70569 0
M  V30 1552 H 149.011 0.900207 3.13949 0
M  V30 1553 H 147.67 2.85851 2.29531 0
M  V30 1554 H 147.318 1.99691 4.61663 0
M  V30 1555 H 147.018 3.75046 4.52343 0
M  V30 1556 H 148.542 3.14583 5.23326 0
M  V30 1557 H 149.956 4.56897 3.46292 0
M  V30 1558 H 148.353 5.20315 2.98985 0
M  V30 1559 H 149.423 4.52164 1.75144 0
M  V30 1560 N 150.766 -0.704594 1.40972 0
M  V30 1561 C 151.713 -1.81862 1.42109 0
M  V30 1562 C 152.683 -1.63781 0.276593 0
M  V30 1563 O 153.868 -1.84759 0.4763 0
M  V30 1564 C 151.008 -3.19669 1.30022 0
M  V30 1565 C 150.121 -3.49246 2.54267 0
M  V30 1566 C 149.256 -4.76618 2.3454 0
M  V30 1567 C 148.295 -4.99133 3.54306 0
M  V30 1568 N 147.432 -6.17726 3.33706 0
M  V30 1569 H 152.272 -1.80226 2.37324 0
M  V30 1570 H 149.809 -0.880238 1.17857 0
M  V30 1571 H 151.767 -3.99263 1.21018 0
M  V30 1572 H 150.397 -3.20506 0.384192 0
M  V30 1573 H 149.449 -2.64125 2.73756 0
M  V30 1574 H 150.761 -3.61788 3.43381 0
M  V30 1575 H 149.915 -5.64249 2.22952 0
M  V30 1576 H 148.654 -4.66305 1.42867 0
M  V30 1577 H 147.659 -4.09953 3.66359 0
M  V30 1578 H 148.884 -5.11311 4.4692 0
M  V30 1579 H 146.83 -6.08642 2.44725 0
M  V30 1580 H 146.747 -6.30995 4.16391 0
M  V30 1581 H 148.015 -7.08115 3.25873 0
M  V30 1582 N 152.244 -1.26651 -0.937939 0
M  V30 1583 C 153.521 -1.0313 -1.66204 0
M  V30 1584 C 153.901 0.437256 -2.06522 0
M  V30 1585 O 153.249 1.41831 -1.79154 0
M  V30 1586 C 153.459 -1.98314 -2.87181 0
M  V30 1587 C 154.807 -2.27107 -3.58758 0
M  V30 1588 O 155.831 -1.96205 -2.97291 0
M  V30 1589 O 154.69 -2.79736 -4.69479 0
M  V30 1590 H 151.784 -0.392384 -0.727986 0
M  V30 1591 H 154.33 -1.37874 -0.989382 0
M  V30 1592 H 153.102 -2.97399 -2.54302 0
M  V30 1593 H 152.725 -1.64068 -3.6217 0
M  V30 1594 N 153.722 1.14298 -1.08507 0
M  V30 1595 C 154.969 1.85359 -0.815373 0
M  V30 1596 C 155.297 1.83001 0.658865 0
M  V30 1597 O 154.552 1.25655 1.50031 0
M  V30 1598 C 154.851 3.33547 -1.28379 0
M  V30 1599 C 154.517 3.56093 -2.76602 0
M  V30 1600 C 153.179 3.61955 -3.17084 0
M  V30 1601 C 155.531 3.64834 -3.72217 0
M  V30 1602 C 152.859 3.74082 -4.51973 0
M  V30 1603 C 155.211 3.78487 -5.06883 0
M  V30 1604 C 153.875 3.82598 -5.46969 0
M  V30 1605 H 153.145 0.678276 -0.298366 0
M  V30 1606 H 155.792 1.35002 -1.35819 0
M  V30 1607 H 154.097 3.86191 -0.660593 0
M  V30 1608 H 155.794 3.86959 -1.05186 0
M  V30 1609 H 152.384 3.52179 -2.4427 0
M  V30 1610 H 156.568 3.59595 -3.42061 0
M  V30 1611 H 151.824 3.75527 -4.82483 0
M  V30 1612 H 155.998 3.84193 -5.80834 0
M  V30 1613 H 153.625 3.91747 -6.51489 0
M  V30 1614 N 155.201 0.870884 1.31352 0
M  V30 1615 C 156.447 0.482987 1.96965 0
M  V30 1616 C 156.78 -0.962462 1.68672 0
M  V30 1617 O 156.055 -1.6779 0.98371 0
M  V30 1618 C 156.338 0.741752 3.52378 0
M  V30 1619 C 156.191 2.2368 3.9024 0
M  V30 1620 C 157.51 0.208838 4.39604 0
M  V30 1621 H 154.629 0.176955 0.715441 0
M  V30 1622 H 157.271 1.09229 1.55464 0
M  V30 1623 H 155.421 0.223149 3.87859 0
M  V30 1624 H 157.093 2.82273 3.64856 0
M  V30 1625 H 155.336 2.70901 3.38814 0
M  V30 1626 H 156.007 2.3685 4.98604 0
M  V30 1627 H 158.483 0.652529 4.10952 0
M  V30 1628 H 157.359 0.419336 5.47296 0
M  V30 1629 H 157.62 -0.889275 4.33064 0
M  V30 1630 N 156.679 -1.44442 0.630414 0
M  V30 1631 C 157.626 -2.30678 -0.0749355 0
M  V30 1632 C 158.596 -1.4344 -0.837502 0
M  V30 1633 O 159.781 -1.72343 -0.818684 0
M  V30 1634 C 156.921 -3.28706 -1.05103 0
M  V30 1635 C 156.034 -4.31046 -0.286954 0
M  V30 1636 C 155.169 -5.16167 -1.2548 0
M  V30 1637 C 154.208 -6.10216 -0.479843 0
M  V30 1638 N 153.345 -6.88039 -1.39811 0
M  V30 1639 H 158.185 -2.90454 0.666386 0
M  V30 1640 H 155.722 -1.43107 0.340404 0
M  V30 1641 H 157.68 -3.84027 -1.63031 0
M  V30 1642 H 156.31 -2.70632 -1.75949 0
M  V30 1643 H 155.362 -3.78203 0.408243 0
M  V30 1644 H 156.674 -4.97794 0.316657 0
M  V30 1645 H 155.828 -5.76002 -1.90544 0
M  V30 1646 H 154.567 -4.49491 -1.89233 0
M  V30 1647 H 153.572 -5.49491 0.184295 0
M  V30 1648 H 154.797 -6.78928 0.152965 0
M  V30 1649 H 152.743 -6.24032 -2.02287 0
M  V30 1650 H 152.66 -7.51223 -0.848508 0
M  V30 1651 H 153.928 -7.52397 -2.03762 0
M  V30 1652 N 158.157 -0.370918 -1.53173 0
M  V30 1653 C 159.107 0.489588 -2.22681 0
M  V30 1654 C 160.091 1.04442 -1.22395 0
M  V30 1655 O 161.283 0.973578 -1.47819 0
M  V30 1656 C 158.412 1.626 -3.02351 0
M  V30 1657 C 157.498 1.08379 -4.10018 0
M  V30 1658 N 157.889 0.265004 -5.05105 0
M  V30 1659 C 156.187 1.35809 -4.2482 0
M  V30 1660 C 156.888 -0.0324755 -5.81691 0
M  V30 1661 N 155.864 0.566581 -5.40639 0
M  V30 1662 H 159.666 -0.142729 -2.93553 0
M  V30 1663 H 157.18 -0.179221 -1.61408 0
M  V30 1664 H 159.177 2.2547 -3.50669 0
M  V30 1665 H 157.837 2.26132 -2.33011 0
M  V30 1666 H 158.848 -0.0962352 -5.17811 0
M  V30 1667 H 155.525 1.9958 -3.66707 0
M  V30 1668 H 156.915 -0.69473 -6.68299 0
M  V30 1669 N 159.635 1.57281 -0.100228 0
M  V30 1670 C 160.882 1.94537 0.562268 0
M  V30 1671 C 161.21 0.982315 1.67871 0
M  V30 1672 O 160.465 0.00280936 1.957 0
M  V30 1673 C 160.764 3.38305 1.15259 0
M  V30 1674 C 160.43 4.50618 0.159409 0
M  V30 1675 C 159.092 4.81066 -0.113741 0
M  V30 1676 C 161.444 5.18615 -0.518461 0
M  V30 1677 C 158.772 5.76835 -1.07137 0
M  V30 1678 C 161.124 6.15412 -1.46459 0
M  V30 1679 C 159.788 6.44262 -1.74592 0
M  V30 1680 H 159.058 0.711863 0.205748 0
M  V30 1681 H 161.705 1.90679 -0.17715 0
M  V30 1682 H 160.01 3.38766 1.96836 0
M  V30 1683 H 161.707 3.64435 1.67297 0
M  V30 1684 H 158.297 4.2689 0.382491 0
M  V30 1685 H 162.481 4.95264 -0.320581 0
M  V30 1686 H 157.737 5.975 -1.29628 0
M  V30 1687 H 161.911 6.67194 -1.99564 0
M  V30 1688 H 159.538 7.1828 -2.48953 0
M  V30 1689 N 161.113 -0.173488 1.56642 0
M  V30 1690 C 162.076 -1.19859 1.95362 0
M  V30 1691 C 163.076 -1.37296 0.83704 0
M  V30 1692 O 164.266 -1.34739 1.10413 0
M  V30 1693 C 161.398 -2.56405 2.24654 0
M  V30 1694 H 162.591 -0.867062 2.87092 0
M  V30 1695 H 160.144 -0.415853 1.50666 0
M  V30 1696 H 160.879 -2.94576 1.35631 0
M  V30 1697 H 160.664 -2.45115 3.06041 0
M  V30 1698 H 162.154 -3.30287 2.5554 0
M  V30 1699 N 162.591 -1.51276 -0.441967 0
M  V30 1700 C 163.539 -1.72823 -1.55676 0
M  V30 1701 C 164.533 -0.59445 -1.58627 0
M  V30 1702 O 165.739 -0.775715 -1.62427 0
M  V30 1703 H 162.114 -0.545983 -0.517113 0
M  V30 1704 H 164.085 -2.6628 -1.34675 0
M  V30 1705 C 162.834 -1.86619 -2.93375 0
M  V30 1706 H 162.157 -2.73264 -2.91834 0
M  V30 1707 H 163.597 -2.05709 -3.70756 0
M  V30 1708 C 162.056 -0.624842 -3.31055 0
M  V30 1709 O 162.586 0.222636 -4.01083 0
M  V30 1710 N 160.792 -0.470288 -2.86769 0
M  V30 1711 H 160.339 -1.161 -2.29953 0
M  V30 1712 H 160.297 0.359051 -3.12343 0
M  V30 1713 N 164.069 0.697108 -1.41344 0
M  V30 1714 C 165.001 1.8224 -1.39001 0
M  V30 1715 C 166.014 1.60152 -0.292428 0
M  V30 1716 O 167.203 1.69684 -0.554048 0
M  V30 1717 C 164.303 3.18976 -1.14489 0
M  V30 1718 C 163.476 3.68105 -2.36258 0
M  V30 1719 C 162.535 4.83506 -2.07625 0
M  V30 1720 O 161.561 4.95201 -2.8065 0
M  V30 1721 N 162.763 5.70637 -1.06555 0
M  V30 1722 H 165.528 1.84742 -2.35988 0
M  V30 1723 H 163.089 0.87937 -1.35936 0
M  V30 1724 H 165.081 3.93801 -0.932885 0
M  V30 1725 H 163.651 3.11508 -0.261043 0
M  V30 1726 H 162.871 2.84204 -2.7317 0
M  V30 1727 H 164.159 3.97667 -3.17393 0
M  V30 1728 H 163.557 5.63817 -0.461125 0
M  V30 1729 H 162.114 6.45368 -0.913444 0
M  V30 1730 N 165.547 1.27147 0.931209 0
M  V30 1731 C 166.958 1.12044 1.49342 0
M  V30 1732 C 167.309 -0.295795 1.93957 0
M  V30 1733 O 166.434 -1.18835 1.80852 0
M  V30 1734 C 167.029 2.02781 2.71414 0
M  V30 1735 C 165.588 1.91794 3.2387 0
M  V30 1736 C 164.735 1.95543 1.96617 0
M  V30 1737 H 167.686 1.40091 0.745672 0
M  V30 1738 H 167.707 1.58156 3.46074 0
M  V30 1739 H 167.219 3.05848 2.38911 0
M  V30 1740 H 165.32 0.916992 3.6114 0
M  V30 1741 H 165.433 2.77852 3.90302 0
M  V30 1742 H 163.797 1.39722 2.12955 0
M  V30 1743 H 164.58 3.00259 1.66432 0
M  V30 1744 N 167.025 -1.13721 1.09112 0
M  V30 1745 C 167.955 -2.21148 0.749385 0
M  V30 1746 C 168.936 -1.6792 -0.271475 0
M  V30 1747 O 170.121 -1.93693 -0.140251 0
M  V30 1748 C 167.251 -3.46905 0.165659 0
M  V30 1749 C 166.205 -4.13203 1.11567 0
M  V30 1750 C 165.531 -5.33248 0.393809 0
M  V30 1751 C 166.831 -4.60912 2.45678 0
M  V30 1752 H 168.525 -2.4999 1.64758 0
M  V30 1753 H 166.071 -1.20156 0.793626 0
M  V30 1754 H 168.024 -4.21313 -0.085466 0
M  V30 1755 H 166.748 -3.17449 -0.767714 0
M  V30 1756 H 165.407 -3.40758 1.35202 0
M  V30 1757 H 165.055 -5.00054 -0.543599 0
M  V30 1758 H 164.755 -5.78552 1.02721 0
M  V30 1759 H 166.279 -6.10413 0.150908 0
M  V30 1760 H 167.693 -5.26759 2.26269 0
M  V30 1761 H 166.09 -5.16944 3.04776 0
M  V30 1762 H 167.16 -3.75603 3.06677 0
M  V30 1763 N 168.503 -0.877838 -1.30888 0
M  V30 1764 C 169.752 -0.488793 -1.95688 0
M  V30 1765 C 170.065 0.965485 -1.70111 0
M  V30 1766 O 171.271 1.46104 -2.28836 0
M  V30 1767 C 169.727 -0.823201 -3.50359 0
M  V30 1768 C 169.335 -2.29477 -3.84765 0
M  V30 1769 C 171.079 -0.503009 -4.21509 0
M  V30 1770 C 168.986 -2.57118 -5.32583 0
M  V30 1771 H 167.916 -0.179062 -0.732429 0
M  V30 1772 H 170.567 -1.07183 -1.48943 0
M  V30 1773 H 168.949 -0.169331 -3.95638 0
M  V30 1774 H 170.123 -2.99236 -3.5042 0
M  V30 1775 H 168.438 -2.58178 -3.267 0
M  V30 1776 H 171.035 -0.68665 -5.30273 0
M  V30 1777 H 171.378 0.557109 -4.12555 0
M  V30 1778 H 171.911 -1.11376 -3.8189 0
M  V30 1779 H 168.65 -3.61843 -5.4658 0
M  V30 1780 H 168.17 -1.91961 -5.68253 0
M  V30 1781 H 169.849 -2.42251 -5.99936 0
M  V30 1782 N 169.982 1.44106 -0.638065 0
M  V30 1783 C 171.23 2.01579 -0.145043 0
M  V30 1784 C 171.551 1.50496 1.24 0
M  V30 1785 O 170.821 0.711374 1.82527 0
M  V30 1786 H 169.401 0.745282 -0.05063 0
M  V30 1787 H 172.063 1.76516 -0.826327 0
M  V30 1788 H 171.159 3.11877 -0.118039 0
M  V30 1789 N 171.46 0.379036 1.52974 0
M  V30 1790 C 172.685 -0.209353 2.06341 0
M  V30 1791 C 173.11 -1.40583 1.24972 0
M  V30 1792 O 172.468 -1.79246 0.272155 0
M  V30 1793 C 172.516 -0.567786 3.56102 0
M  V30 1794 O 171.62 -1.66318 3.77375 0
M  V30 1795 H 170.961 -0.0272919 0.663439 0
M  V30 1796 H 173.491 0.543536 1.97248 0
M  V30 1797 H 173.501 -0.835003 3.99364 0
M  V30 1798 H 172.176 0.307013 4.14765 0
M  V30 1799 H 170.753 -1.39048 3.46006 0
M  V30 1800 N 172.938 -1.57226 0.108567 0
M  V30 1801 C 173.848 -2.18292 -0.859401 0
M  V30 1802 C 174.864 -1.15612 -1.30038 0
M  V30 1803 O 176.04 -1.48039 -1.36552 0
M  V30 1804 C 173.105 -2.762 -2.09558 0
M  V30 1805 C 172.166 -3.93881 -1.70752 0
M  V30 1806 C 171.399 -4.49018 -2.88477 0
M  V30 1807 O 171.622 -4.03068 -4.036 0
M  V30 1808 O 170.556 -5.39852 -2.66164 0
M  V30 1809 H 174.382 -3.01441 -0.369769 0
M  V30 1810 H 171.967 -1.48945 -0.1165 0
M  V30 1811 H 173.849 -3.13156 -2.81978 0
M  V30 1812 H 172.524 -1.96089 -2.57548 0
M  V30 1813 H 171.431 -3.61713 -0.954714 0
M  V30 1814 H 172.764 -4.75396 -1.27513 0
M  V30 1815 N 174.416 0.165178 -1.56732 0
M  V30 1816 C 175.644 0.896218 -1.86482 0
M  V30 1817 C 176.059 1.75555 -0.694675 0
M  V30 1818 O 175.416 1.79379 0.33607 0
M  V30 1819 C 175.467 1.76792 -3.1532 0
M  V30 1820 O 175.188 0.943239 -4.27825 0
M  V30 1821 C 176.689 2.6081 -3.58459 0
M  V30 1822 H 173.909 0.260064 -0.618553 0
M  V30 1823 H 176.453 0.163428 -2.03846 0
M  V30 1824 H 174.608 2.45398 -2.99764 0
M  V30 1825 H 175.022 1.53998 -5.01383 0
M  V30 1826 H 176.496 3.17579 -4.51495 0
M  V30 1827 H 176.973 3.35977 -2.82872 0
M  V30 1828 H 177.579 1.97526 -3.76648 0
M  V30 1829 N 175.894 1.51508 0.433938 0
M  V30 1830 C 177.142 1.6402 1.18075 0
M  V30 1831 C 177.463 0.360328 1.91642 0
M  V30 1832 O 176.733 -0.623945 1.85698 0
M  V30 1833 H 175.313 0.6045 0.43885 0
M  V30 1834 H 177.975 1.88452 0.497178 0
M  V30 1835 H 177.071 2.46949 1.90847 0
M  V30 1836 N 177.372 -0.689602 1.41712 0
M  V30 1837 C 178.6 -1.47827 1.44758 0
M  V30 1838 C 179.015 -1.88721 0.0545703 0
M  V30 1839 O 178.372 -1.57176 -0.927463 0
M  V30 1840 C 178.423 -2.73698 2.3616 0
M  V30 1841 O 178.144 -2.34524 3.7004 0
M  V30 1842 C 179.645 -3.67389 2.48072 0
M  V30 1843 H 176.865 -0.455357 0.49284 0
M  V30 1844 H 179.409 -0.848574 1.86063 0
M  V30 1845 H 177.564 -3.32891 1.98148 0
M  V30 1846 H 177.978 -3.15701 4.18847 0
M  V30 1847 H 179.452 -4.52475 3.16181 0
M  V30 1848 H 179.929 -4.12284 1.51388 0
M  V30 1849 H 180.535 -3.14097 2.86746 0
M  V30 1850 N 178.85 -1.27639 -0.924453 0
M  V30 1851 C 179.78 -1.13166 -2.04244 0
M  V30 1852 C 180.761 -0.032256 -1.70069 0
M  V30 1853 O 181.946 -0.207328 -1.9309 0
M  V30 1854 C 179.076 -0.781496 -3.38393 0
M  V30 1855 C 178.03 -1.83449 -3.86692 0
M  V30 1856 C 177.356 -1.33822 -5.17683 0
M  V30 1857 C 178.656 -3.23917 -4.09726 0
M  V30 1858 H 180.35 -2.06689 -2.1661 0
M  V30 1859 H 177.896 -0.995136 -1.04082 0
M  V30 1860 H 179.849 -0.667057 -4.16087 0
M  V30 1861 H 178.573 0.189439 -3.2605 0
M  V30 1862 H 177.232 -1.93789 -3.11193 0
M  V30 1863 H 176.88 -0.35665 -5.01734 0
M  V30 1864 H 176.58 -2.04224 -5.50968 0
M  V30 1865 H 178.104 -1.23679 -5.97943 0
M  V30 1866 H 179.518 -3.16559 -4.77978 0
M  V30 1867 H 177.915 -3.92059 -4.54324 0
M  V30 1868 H 178.985 -3.68729 -3.14908 0
M  V30 1869 N 180.328 1.1314 -1.09713 0
M  V30 1870 C 181.261 2.17735 -0.683137 0
M  V30 1871 C 182.239 1.59582 0.311841 0
M  V30 1872 O 183.423 1.87298 0.212514 0
M  V30 1873 C 180.55 3.38699 -0.00684324 0
M  V30 1874 C 179.596 4.1546 -0.964102 0
M  V30 1875 S 180.429 4.74733 -2.47767 0
M  V30 1876 C 181.585 5.9904 -1.81387 0
M  V30 1877 H 181.818 2.52515 -1.56918 0
M  V30 1878 H 179.351 1.24484 -0.913404 0
M  V30 1879 H 181.309 4.08765 0.377044 0
M  V30 1880 H 179.97 3.02214 0.85589 0
M  V30 1881 H 179.163 5.02093 -0.43803 0
M  V30 1882 H 178.765 3.51066 -1.28953 0
M  V30 1883 H 181.057 6.67846 -1.13967 0
M  V30 1884 H 182 6.56261 -2.65947 0
M  V30 1885 H 182.408 5.4976 -1.28155 0
M  V30 1886 N 181.806 0.884767 1.30421 0
M  V30 1887 C 183.052 0.503851 1.96441 0
M  V30 1888 C 183.385 -0.944518 1.69684 0
M  V30 1889 O 182.66 -1.66737 1.00145 0
M  V30 1890 C 182.943 0.779085 3.51571 0
M  V30 1891 C 182.796 2.27807 3.87846 0
M  V30 1892 C 184.115 0.255452 4.39358 0
M  V30 1893 H 181.234 0.184533 0.713524 0
M  V30 1894 H 183.876 1.10872 1.54297 0
M  V30 1895 H 182.026 0.264274 3.876 0
M  V30 1896 H 183.698 2.86127 3.61841 0
M  V30 1897 H 181.941 2.74479 3.35922 0
M  V30 1898 H 182.612 2.42125 4.96064 0
M  V30 1899 H 185.088 0.696079 4.10236 0
M  V30 1900 H 183.964 0.477361 5.4682 0
M  V30 1901 H 184.225 -0.843293 4.33983 0
M  V30 1902 N 183.284 -1.43765 0.645699 0
M  V30 1903 C 184.214 -2.33471 -0.0370477 0
M  V30 1904 C 185.195 -1.49042 -0.819779 0
M  V30 1905 O 186.38 -1.77726 -0.782758 0
M  V30 1906 C 183.51 -3.32311 -1.0093 0
M  V30 1907 C 182.464 -4.2667 -0.337201 0
M  V30 1908 C 181.79 -5.1549 -1.42037 0
M  V30 1909 C 183.09 -5.16657 0.765706 0
M  V30 1910 H 184.784 -2.90809 0.712069 0
M  V30 1911 H 182.33 -1.39834 0.343876 0
M  V30 1912 H 184.283 -3.9396 -1.49578 0
M  V30 1913 H 183.007 -2.73213 -1.78948 0
M  V30 1914 H 181.666 -3.66374 0.128771 0
M  V30 1915 H 181.314 -4.52735 -2.1918 0
M  V30 1916 H 181.014 -5.79438 -0.975966 0
M  V30 1917 H 182.538 -5.80012 -1.90838 0
M  V30 1918 H 183.952 -5.72158 0.361702 0
M  V30 1919 H 182.349 -5.89286 1.13413 0
M  V30 1920 H 183.419 -4.56796 1.62683 0
M  V30 1921 N 184.763 -0.387143 -1.52771 0
M  V30 1922 C 185.71 0.449048 -2.26389 0
M  V30 1923 C 186.68 1.05961 -1.27912 0
M  V30 1924 O 187.865 1.08804 -1.56737 0
M  V30 1925 C 185.005 1.57155 -3.0724 0
M  V30 1926 C 184.118 0.984066 -4.20643 0
M  V30 1927 C 183.253 2.07745 -4.88892 0
M  V30 1928 C 182.292 1.46574 -5.94292 0
M  V30 1929 N 181.429 2.49834 -6.56146 0
M  V30 1930 H 186.269 -0.185205 -2.97424 0
M  V30 1931 H 183.806 -0.103164 -1.46738 0
M  V30 1932 H 185.764 2.23309 -3.52405 0
M  V30 1933 H 184.394 2.17615 -2.38419 0
M  V30 1934 H 183.446 0.212193 -3.79808 0
M  V30 1935 H 184.758 0.497029 -4.96318 0
M  V30 1936 H 183.912 2.81673 -5.3735 0
M  V30 1937 H 182.651 2.59807 -4.12737 0
M  V30 1938 H 181.656 0.711696 -5.45174 0
M  V30 1939 H 182.881 0.953088 -6.72379 0
M  V30 1940 H 180.827 3.0107 -5.82832 0
M  V30 1941 H 180.744 2.05879 -7.27427 0
M  V30 1942 H 182.012 3.23399 -7.09249 0
M  V30 1943 N 186.241 1.57166 -0.116904 0
M  V30 1944 C 187.191 2.11756 0.845178 0
M  V30 1945 C 188.175 1.03783 1.22955 0
M  V30 1946 O 189.367 1.3002 1.20099 0
M  V30 1947 C 186.496 2.71886 2.09602 0
M  V30 1948 C 185.582 3.86937 1.7361 0
M  V30 1949 N 185.973 4.94073 1.08284 0
M  V30 1950 C 184.271 3.97082 2.03082 0
M  V30 1951 C 184.972 5.74477 0.913855 0
M  V30 1952 N 183.948 5.2423 1.43818 0
M  V30 1953 H 187.75 2.91967 0.336523 0
M  V30 1954 H 185.264 1.62174 0.0856332 0
M  V30 1955 H 187.261 3.09338 2.79492 0
M  V30 1956 H 185.921 1.93138 2.61013 0
M  V30 1957 H 186.932 5.12483 0.747067 0
M  V30 1958 H 183.609 3.29372 2.56554 0
M  V30 1959 H 184.999 6.70701 0.40125 0
M  V30 1960 N 187.719 -0.156864 1.56817 0
M  V30 1961 C 189.13 -0.717916 1.72345 0
M  V30 1962 C 189.481 -1.82124 0.729747 0
M  V30 1963 O 188.606 -2.16141 -0.105781 0
M  V30 1964 C 189.201 -1.30904 3.12489 0
M  V30 1965 C 187.76 -1.81676 3.29653 0
M  V30 1966 C 186.907 -0.701349 2.68284 0
M  V30 1967 H 189.858 0.0686989 1.58551 0
M  V30 1968 H 189.879 -2.17882 3.11942 0
M  V30 1969 H 189.391 -0.505796 3.8479 0
M  V30 1970 H 187.492 -2.64598 2.62333 0
M  V30 1971 H 187.605 -1.95226 4.3752 0
M  V30 1972 H 185.969 -1.12548 2.28484 0
M  V30 1973 H 186.752 0.0902846 3.43181 0
M  V30 1974 N 189.197 -1.51736 -0.425897 0
M  V30 1975 C 190.427 -1.68549 -1.19476 0
M  V30 1976 C 190.835 -0.387288 -1.85194 0
M  V30 1977 O 190.178 0.645142 -1.71999 0
M  V30 1978 C 190.24 -2.75275 -2.31223 0
M  V30 1979 C 189.904 -4.17534 -1.8578 0
M  V30 1980 C 190.901 -5.01936 -1.35485 0
M  V30 1981 C 188.586 -4.6369 -1.93123 0
M  V30 1982 C 190.58 -6.30559 -0.931347 0
M  V30 1983 C 188.267 -5.92307 -1.50384 0
M  V30 1984 C 189.265 -6.75569 -1.00473 0
M  V30 1985 O 188.953 -8.0178 -0.583452 0
M  V30 1986 H 188.685 -0.568525 -0.365725 0
M  V30 1987 H 191.239 -1.98982 -0.509444 0
M  V30 1988 H 189.469 -2.40182 -3.03067 0
M  V30 1989 H 191.158 -2.80853 -2.93047 0
M  V30 1990 H 191.924 -4.67475 -1.29197 0
M  V30 1991 H 187.803 -3.98997 -2.30916 0
M  V30 1992 H 191.347 -6.95498 -0.541084 0
M  V30 1993 H 187.244 -6.2628 -1.56346 0
M  V30 1994 H 188.012 -8.1543 -0.708275 0
M  V30 1995 N 190.675 0.682077 -1.42076 0
M  V30 1996 C 192.086 1.26246 -1.37546 0
M  V30 1997 C 192.437 1.96092 -0.0651481 0
M  V30 1998 O 191.562 1.99587 0.836297 0
M  V30 1999 C 192.157 2.29594 -2.49143 0
M  V30 2000 C 190.716 2.83175 -2.47969 0
M  V30 2001 C 189.863 1.57395 -2.28303 0
M  V30 2002 H 192.814 0.475937 -1.51395 0
M  V30 2003 H 192.835 3.11175 -2.18976 0
M  V30 2004 H 192.347 1.78729 -3.44496 0
M  V30 2005 H 190.448 3.3818 -1.56413 0
M  V30 2006 H 190.561 3.32687 -3.44755 0
M  V30 2007 H 188.925 1.83699 -1.76428 0
M  V30 2008 H 189.708 1.08507 -3.25701 0
M  V30 2009 N 192.153 1.28127 0.917671 0
M  V30 2010 C 193.569 1.05749 1.19538 0
M  V30 2011 C 193.769 -0.202633 2.00479 0
M  V30 2012 O 192.825 -0.905382 2.3571 0
M  V30 2013 C 194.138 2.30273 1.93378 0
M  V30 2014 C 195.686 2.35412 2.06277 0
M  V30 2015 C 196.161 3.59692 2.83524 0
M  V30 2016 N 197.652 3.60309 2.91087 0
M  V30 2017 C 198.387 4.53147 3.51348 0
M  V30 2018 N 197.883 5.563 4.12919 0
M  V30 2019 N 199.676 4.40751 3.48849 0
M  V30 2020 H 191.827 2.09024 0.377184 0
M  V30 2021 H 194.09 0.919798 0.22951 0
M  V30 2022 H 193.796 3.22055 1.41328 0
M  V30 2023 H 193.67 2.36378 2.93947 0
M  V30 2024 H 196.057 1.4413 2.57508 0
M  V30 2025 H 196.138 2.33304 1.04895 0
M  V30 2026 H 195.782 4.51316 2.32973 0
M  V30 2027 H 195.712 3.59054 3.85211 0
M  V30 2028 H 198.203 2.85714 2.47338 0
M  V30 2029 H 198.516 6.2329 4.56869 0
M  V30 2030 H 196.861 5.60131 4.11435 0
M  V30 2031 H 200.052 3.59367 2.99955 0
M  V30 2032 H 200.225 5.13291 3.9552 0
M  V30 2033 N 193.631 -1.12557 1.10312 0
M  V30 2034 C 194.578 -2.18247 0.750781 0
M  V30 2035 C 195.548 -1.63853 -0.272293 0
M  V30 2036 O 196.733 -1.90195 -0.151862 0
M  V30 2037 C 193.873 -3.44591 0.187379 0
M  V30 2038 C 192.986 -4.13046 1.2656 0
M  V30 2039 C 192.121 -5.27034 0.663978 0
M  V30 2040 C 191.16 -5.87353 1.72287 0
M  V30 2041 N 190.297 -6.92757 1.1416 0
M  V30 2042 H 195.137 -2.47732 1.65628 0
M  V30 2043 H 192.674 -1.21629 0.827337 0
M  V30 2044 H 194.632 -4.16904 -0.157148 0
M  V30 2045 H 193.262 -3.15527 -0.681355 0
M  V30 2046 H 192.314 -3.38924 1.72727 0
M  V30 2047 H 193.626 -4.53947 2.06721 0
M  V30 2048 H 192.78 -6.06104 0.268824 0
M  V30 2049 H 191.519 -4.87407 -0.169082 0
M  V30 2050 H 190.524 -5.06971 2.12746 0
M  V30 2051 H 191.749 -6.29051 2.55875 0
M  V30 2052 H 189.695 -6.5517 0.329984 0
M  V30 2053 H 189.612 -7.3225 1.88007 0
M  V30 2054 H 190.88 -7.75658 0.772956 0
M  V30 2055 N 195.109 -0.891671 -1.2995 0
M  V30 2056 C 196.355 -0.514261 -1.96171 0
M  V30 2057 C 196.688 0.935506 -1.70182 0
M  V30 2058 O 195.963 1.66204 -1.01028 0
M  V30 2059 C 196.246 -0.797719 -3.51153 0
M  V30 2060 C 196.099 -2.2986 -3.86632 0
M  V30 2061 C 197.418 -0.278749 -4.39216 0
M  V30 2062 H 194.537 -0.188314 -0.712535 0
M  V30 2063 H 197.179 -1.11689 -1.53706 0
M  V30 2064 H 195.329 -0.284826 -3.87455 0
M  V30 2065 H 197.001 -2.88042 -3.60319 0
M  V30 2066 H 195.244 -2.76257 -3.34462 0
M  V30 2067 H 195.915 -2.44753 -4.94773 0
M  V30 2068 H 198.391 -0.717825 -4.09862 0
M  V30 2069 H 197.267 -0.506353 -5.46559 0
M  V30 2070 H 197.528 0.820266 -4.34424 0
M  V30 2071 N 196.587 1.43421 -0.653314 0
M  V30 2072 C 197.497 2.34568 0.0388565 0
M  V30 2073 C 198.513 1.53888 0.81207 0
M  V30 2074 O 199.689 1.86539 0.759294 0
M  V30 2075 C 196.754 3.32167 0.993269 0
M  V30 2076 C 195.815 4.28751 0.216977 0
M  V30 2077 C 195.048 5.21688 1.12593 0
M  V30 2078 O 195.271 5.19052 2.36519 0
M  V30 2079 O 194.205 5.98919 0.598284 0
M  V30 2080 H 198.031 2.95251 -0.711386 0
M  V30 2081 H 195.616 1.43564 -0.413502 0
M  V30 2082 H 197.498 3.92183 1.54176 0
M  V30 2083 H 196.173 2.73987 1.72374 0
M  V30 2084 H 195.08 3.72215 -0.375101 0
M  V30 2085 H 196.413 4.89913 -0.473924 0
M  V30 2086 N 198.065 0.39524 1.52563 0
M  V30 2087 C 198.975 -0.444232 2.30356 0
M  V30 2088 C 199.991 -1.06615 1.37511 0
M  V30 2089 O 201.167 -1.07067 1.70583 0
M  V30 2090 C 198.232 -1.55315 3.09964 0
M  V30 2091 C 197.293 -0.955734 4.18526 0
M  V30 2092 C 196.526 -2.01181 4.9433 0
M  V30 2093 O 196.749 -3.22781 4.70285 0
M  V30 2094 O 195.683 -1.62579 5.79527 0
M  V30 2095 H 199.509 0.189667 3.03107 0
M  V30 2096 H 197.094 0.1588 1.48554 0
M  V30 2097 H 198.976 -2.19724 3.59582 0
M  V30 2098 H 197.651 -2.17191 2.4002 0
M  V30 2099 H 196.558 -0.274743 3.7309 0
M  V30 2100 H 197.891 -0.381109 4.90722 0
M  V30 2101 N 199.544 -1.57102 0.125237 0
M  V30 2102 C 200.955 -1.82384 -0.399142 0
M  V30 2103 C 201.306 -1.04276 -1.66195 0
M  V30 2104 O 200.431 -0.281269 -2.14564 0
M  V30 2105 C 201.026 -3.30821 -0.730932 0
M  V30 2106 C 199.585 -3.56762 -1.19992 0
M  V30 2107 C 198.732 -2.7649 -0.211792 0
M  V30 2108 H 201.683 -1.54786 0.350277 0
M  V30 2109 H 201.704 -3.4579 -1.58775 0
M  V30 2110 H 201.216 -3.87643 0.188345 0
M  V30 2111 H 199.317 -3.05305 -2.13588 0
M  V30 2112 H 199.43 -4.65317 -1.14093 0
M  V30 2113 H 197.794 -2.4489 -0.700085 0
M  V30 2114 H 198.577 -3.36073 0.700691 0
M  V30 2115 N 201.022 0.148545 -1.56898 0
M  V30 2116 C 202.247 0.880385 -1.87787 0
M  V30 2117 C 202.672 1.74018 -0.714093 0
M  V30 2118 O 202.03 1.78153 0.336343 0
M  V30 2119 C 202.078 1.71422 -3.17249 0
M  V30 2120 O 201.182 2.8183 -3.01074 0
M  V30 2121 H 200.523 0.245301 -0.617028 0
M  V30 2122 H 203.053 0.139826 -2.04122 0
M  V30 2123 H 203.063 2.10954 -3.49231 0
M  V30 2124 H 201.738 1.08284 -4.01556 0
M  V30 2125 H 200.315 2.45715 -2.80497 0
M  V30 2126 N 202.5 1.5196 0.417844 0
M  V30 2127 C 203.749 1.6482 1.16264 0
M  V30 2128 C 204.062 0.379886 1.91876 0
M  V30 2129 O 205.268 0.388154 2.68711 0
M  V30 2130 C 203.724 2.91161 2.1155 0
M  V30 2131 C 203.332 4.25068 1.41495 0
M  V30 2132 C 205.076 3.13383 2.86341 0
M  V30 2133 C 202.983 5.42541 2.35379 0
M  V30 2134 H 201.913 0.613954 0.437694 0
M  V30 2135 H 204.564 1.78442 0.427871 0
M  V30 2136 H 202.946 2.71218 2.88543 0
M  V30 2137 H 204.12 4.55463 0.699263 0
M  V30 2138 H 202.435 4.0888 0.787792 0
M  V30 2139 H 205.032 3.98324 3.5671 0
M  V30 2140 H 205.375 2.27256 3.48798 0
M  V30 2141 H 205.908 3.33757 2.1645 0
M  V30 2142 H 202.647 6.30987 1.77582 0
M  V30 2143 H 202.167 5.16497 3.04945 0
M  V30 2144 H 203.846 5.75272 2.96093 0
M  V30 2145 N 203.978 -0.674533 1.42435 0
M  V30 2146 C 205.208 -1.46071 1.46105 0
M  V30 2147 C 205.616 -1.89067 0.0709605 0
M  V30 2148 O 204.959 -1.58731 -0.924677 0
M  V30 2149 C 205.021 -2.74145 2.32561 0
M  V30 2150 C 204.685 -2.53224 3.8043 0
M  V30 2151 C 205.682 -2.17809 4.72075 0
M  V30 2152 C 203.367 -2.6821 4.24698 0
M  V30 2153 C 205.361 -1.97648 6.05982 0
M  V30 2154 C 203.048 -2.47665 5.58664 0
M  V30 2155 C 204.046 -2.12437 6.49122 0
M  V30 2156 O 203.734 -1.9209 7.80613 0
M  V30 2157 H 203.466 -0.455959 0.499076 0
M  V30 2158 H 206.02 -0.836193 1.87609 0
M  V30 2159 H 204.25 -3.3908 1.85908 0
M  V30 2160 H 205.939 -3.36028 2.27683 0
M  V30 2161 H 206.705 -2.05826 4.39159 0
M  V30 2162 H 202.584 -2.94609 3.54579 0
M  V30 2163 H 206.128 -1.70075 6.7655 0
M  V30 2164 H 202.025 -2.59244 5.91154 0
M  V30 2165 H 202.793 -2.06686 7.91974 0
M  V30 2166 N 205.456 -1.28612 -0.910864 0
M  V30 2167 C 206.366 -1.14643 -2.0468 0
M  V30 2168 C 207.382 -0.0723121 -1.7385 0
M  V30 2169 O 208.558 -0.282178 -1.99413 0
M  V30 2170 C 205.623 -0.812561 -3.37044 0
M  V30 2171 C 204.684 -1.96935 -3.81465 0
M  V30 2172 C 203.917 -1.65131 -5.07511 0
M  V30 2173 O 204.14 -0.567013 -5.67575 0
M  V30 2174 O 203.074 -2.49585 -5.47714 0
M  V30 2175 H 206.9 -2.1001 -2.19384 0
M  V30 2176 H 204.485 -1.07958 -1.03274 0
M  V30 2177 H 206.367 -0.640441 -4.16505 0
M  V30 2178 H 205.042 0.111426 -3.23508 0
M  V30 2179 H 203.949 -2.19664 -3.02818 0
M  V30 2180 H 205.282 -2.87414 -3.99567 0
M  V30 2181 N 206.934 1.1197 -1.10907 0
M  V30 2182 C 208.159 1.87942 -0.877064 0
M  V30 2183 C 208.584 1.79341 0.567314 0
M  V30 2184 O 207.942 1.15184 1.40009 0
M  V30 2185 C 207.99 3.34926 -1.33629 0
M  V30 2186 O 207.094 4.09303 -0.504447 0
M  V30 2187 H 206.435 0.583785 -0.316371 0
M  V30 2188 H 208.965 1.4157 -1.47712 0
M  V30 2189 H 208.975 3.8577 -1.32837 0
M  V30 2190 H 207.65 3.40504 -2.3881 0
M  V30 2191 H 206.227 3.68393 -0.577993 0
M  V30 2192 N 208.412 0.89855 1.29475 0
M  V30 2193 C 209.658 0.524658 1.95896 0
M  V30 2194 C 209.991 -0.926468 1.70676 0
M  V30 2195 O 209.266 -1.65665 1.01908 0
M  V30 2196 C 209.549 0.81633 3.50725 0
M  V30 2197 C 209.402 2.31907 3.85408 0
M  V30 2198 C 210.721 0.302038 4.39062 0
M  V30 2199 H 207.84 0.19209 0.711527 0
M  V30 2200 H 210.482 1.12502 1.53112 0
M  V30 2201 H 208.632 0.305369 3.87298 0
M  V30 2202 H 210.304 2.89949 3.58786 0
M  V30 2203 H 208.547 2.78027 3.32992 0
M  V30 2204 H 209.218 2.47373 4.93468 0
M  V30 2205 H 211.694 0.739551 4.09475 0
M  V30 2206 H 210.57 0.535331 5.46283 0
M  V30 2207 H 210.831 -0.797216 4.34853 0
M  V30 2208 N 209.89 -1.43072 0.660911 0
M  V30 2209 C 211.306 -1.56169 0.329173 0
M  V30 2210 C 211.506 -1.64317 -1.16629 0
M  V30 2211 O 210.562 -1.60245 -1.95135 0
M  V30 2212 C 211.875 -2.81873 1.04729 0
M  V30 2213 C 213.423 -2.95627 1.02828 0
M  V30 2214 C 213.898 -4.24174 1.72744 0
M  V30 2215 N 215.389 -4.31055 1.69545 0
M  V30 2216 C 216.124 -5.29304 2.20511 0
M  V30 2217 N 215.62 -6.33786 2.79799 0
M  V30 2218 N 217.413 -5.21008 2.10966 0
M  V30 2219 H 209.564 -1.36027 1.63127 0
M  V30 2220 H 211.827 -0.653823 0.686454 0
M  V30 2221 H 211.533 -2.81942 2.10242 0
M  V30 2222 H 211.407 -3.72338 0.603702 0
M  V30 2223 H 213.794 -2.95094 -0.0184742 0
M  V30 2224 H 213.875 -2.06431 1.51063 0
M  V30 2225 H 213.519 -4.25467 2.7738 0
M  V30 2226 H 213.449 -5.1228 1.2197 0
M  V30 2227 H 215.94 -3.56174 1.26288 0
M  V30 2228 H 216.253 -7.05086 3.16344 0
M  V30 2229 H 214.598 -6.34387 2.83863 0
M  V30 2230 H 217.789 -4.38301 1.64347 0
M  V30 2231 H 217.962 -5.97416 2.50993 0
M  V30 2232 N 211.368 -0.403325 -1.52352 0
M  V30 2233 C 212.614 0.174605 -2.02047 0
M  V30 2234 C 212.947 1.45282 -1.28867 0
M  V30 2235 O 212.222 1.90483 -0.393257 0
M  V30 2236 C 212.505 0.428238 -3.57545 0
M  V30 2237 C 212.358 -0.866248 -4.4138 0
M  V30 2238 C 213.677 1.21287 -4.23057 0
M  V30 2239 H 210.796 0.0619851 -0.734389 0
M  V30 2240 H 213.438 -0.53565 -1.82293 0
M  V30 2241 H 211.588 1.03327 -3.74507 0
M  V30 2242 H 213.26 -1.50265 -4.3614 0
M  V30 2243 H 211.503 -1.47851 -4.07827 0
M  V30 2244 H 212.174 -0.643249 -5.48239 0
M  V30 2245 H 214.65 0.700703 -4.10158 0
M  V30 2246 H 213.526 1.35909 -5.31808 0
M  V30 2247 H 213.787 2.23193 -3.81625 0
M  V30 2248 N 212.846 1.57033 -0.133567 0
M  V30 2249 C 213.796 2.12641 0.822671 0
M  V30 2250 C 214.78 1.05081 1.21847 0
M  V30 2251 O 215.972 1.31287 1.18713 0
M  V30 2252 C 213.101 2.74094 2.06706 0
M  V30 2253 C 212.187 3.88757 1.69497 0
M  V30 2254 N 212.578 4.95194 1.03037 0
M  V30 2255 C 210.876 3.99213 1.98859 0
M  V30 2256 C 211.577 5.75414 0.852873 0
M  V30 2257 N 210.553 5.25726 1.3825 0
M  V30 2258 H 214.355 2.92308 0.305537 0
M  V30 2259 H 211.869 1.62256 0.0684276 0
M  V30 2260 H 213.866 3.12285 2.76195 0
M  V30 2261 H 212.526 1.95896 2.5895 0
M  V30 2262 H 213.537 5.13247 0.692669 0
M  V30 2263 H 210.214 3.32075 2.53047 0
M  V30 2264 H 211.604 6.71089 0.330091 0
M  V30 2265 N 214.325 -0.140222 1.56975 0
M  V30 2266 C 215.553 -0.866437 1.87884 0
M  V30 2267 C 215.968 -1.74428 0.722517 0
M  V30 2268 O 215.325 -1.79891 -0.30749 0
M  V30 2269 C 215.376 -1.71753 3.18093 0
M  V30 2270 O 215.097 -0.875056 4.29272 0
M  V30 2271 C 216.598 -2.55074 3.62563 0
M  V30 2272 H 213.818 -0.25019 0.622612 0
M  V30 2273 H 216.362 -0.130977 2.0408 0
M  V30 2274 H 214.517 -2.40598 3.03631 0
M  V30 2275 H 214.931 -1.46002 5.03769 0
M  V30 2276 H 216.405 -3.10356 4.5649 0
M  V30 2277 H 216.882 -3.31434 2.88181 0
M  V30 2278 H 217.488 -1.91509 3.79743 0
M  V30 2279 N 215.803 -1.52179 -0.40978 0
M  V30 2280 C 216.766 -1.74853 -1.48186 0
M  V30 2281 C 217.766 -0.618417 -1.48433 0
M  V30 2282 O 218.956 -0.886286 -1.49969 0
M  V30 2283 C 216.088 -1.8303 -2.87598 0
M  V30 2284 H 217.281 -2.70559 -1.29374 0
M  V30 2285 H 214.834 -1.42586 -0.640233 0
M  V30 2286 H 215.569 -0.89236 -3.11781 0
M  V30 2287 H 215.354 -2.65187 -2.88822 0
M  V30 2288 H 216.844 -2.02316 -3.65319 0
M  V30 2289 N 217.281 0.66697 -1.42791 0
M  V30 2290 C 218.214 1.79177 -1.41318 0
M  V30 2291 C 219.192 1.60234 -0.276401 0
M  V30 2292 O 220.376 1.82602 -0.46785 0
M  V30 2293 C 217.503 3.16289 -1.21157 0
M  V30 2294 C 216.549 3.53964 -2.37932 0
M  V30 2295 S 217.382 3.55501 -4.00474 0
M  V30 2296 C 218.538 4.95292 -3.8267 0
M  V30 2297 H 218.771 1.80153 -2.365 0
M  V30 2298 H 216.304 0.838357 -1.29657 0
M  V30 2299 H 218.262 3.95428 -1.10212 0
M  V30 2300 H 216.923 3.1289 -0.275481 0
M  V30 2301 H 216.116 4.53646 -2.19594 0
M  V30 2302 H 215.718 2.82204 -2.45432 0
M  V30 2303 H 218.01 5.83584 -3.44145 0
M  V30 2304 H 218.953 5.18679 -4.82055 0
M  V30 2305 H 219.361 4.68179 -3.15386 0
M  V30 2306 N 218.759 1.29093 0.90403 0
M  V30 2307 C 219.691 1.09658 2.01266 0
M  V30 2308 C 220.704 0.0453729 1.62737 0
M  V30 2309 O 221.893 0.289446 1.76138 0
M  V30 2310 C 218.993 0.646278 3.32681 0
M  V30 2311 C 218.166 1.77505 3.99763 0
M  V30 2312 C 217.225 1.31649 5.09465 0
M  V30 2313 O 216.251 2.02045 5.32134 0
M  V30 2314 N 217.453 0.184997 5.80205 0
M  V30 2315 H 220.218 2.05135 2.18494 0
M  V30 2316 H 217.779 1.20975 1.07594 0
M  V30 2317 H 219.771 0.322906 4.0341 0
M  V30 2318 H 218.341 -0.215916 3.11853 0
M  V30 2319 H 217.561 2.26752 3.22455 0
M  V30 2320 H 218.849 2.53198 4.41325 0
M  V30 2321 H 218.247 -0.402021 5.6427 0
M  V30 2322 H 216.804 -0.0790358 6.51752 0
M  V30 2323 N 220.237 -1.11381 1.11499 0
M  V30 2324 C 221.465 -1.86934 0.88675 0
M  V30 2325 C 221.88 -1.80195 -0.563476 0
M  V30 2326 O 221.237 -1.18367 -1.38908 0
M  V30 2327 C 221.288 -3.35722 1.34064 0
M  V30 2328 O 221.009 -3.4232 2.73401 0
M  V30 2329 C 222.51 -4.2818 1.14791 0
M  V30 2330 H 219.73 -0.591117 0.317523 0
M  V30 2331 H 222.274 -1.40865 1.48248 0
M  V30 2332 H 220.429 -3.79294 0.788355 0
M  V30 2333 H 220.843 -4.34971 2.93087 0
M  V30 2334 H 222.317 -5.30817 1.5145 0
M  V30 2335 H 222.794 -4.39113 0.0875279 0
M  V30 2336 H 223.4 -3.90402 1.68721 0
M  V30 2337 N 221.715 -0.905404 -1.28997 0
M  V30 2338 C 222.963 -0.533192 -1.9494 0
M  V30 2339 C 223.284 0.924618 -1.71685 0
M  V30 2340 O 222.554 1.65268 -1.05183 0
M  V30 2341 H 221.134 -0.194194 -0.721317 0
M  V30 2342 H 223.796 -1.15294 -1.57141 0
M  V30 2343 H 222.892 -0.72059 -3.03667 0
M  V30 2344 N 223.193 1.4272 -0.668489 0
M  V30 2345 C 224.609 1.55992 -0.33745 0
M  V30 2346 C 224.809 1.64933 1.15756 0
M  V30 2347 O 223.865 1.61278 1.94282 0
M  V30 2348 C 225.178 2.81314 -1.06222 0
M  V30 2349 C 226.726 2.95078 -1.04394 0
M  V30 2350 C 227.201 4.23252 -1.74991 0
M  V30 2351 N 228.692 4.3015 -1.71829 0
M  V30 2352 C 229.427 5.28127 -2.23315 0
M  V30 2353 N 228.923 6.32293 -2.83156 0
M  V30 2354 N 230.716 5.19882 -2.13726 0
M  V30 2355 H 222.867 1.3516 -1.63846 0
M  V30 2356 H 225.13 0.650174 -0.689912 0
M  V30 2357 H 224.836 2.80823 -2.11734 0
M  V30 2358 H 224.71 3.72012 -0.62344 0
M  V30 2359 H 227.097 2.951 0.0028244 0
M  V30 2360 H 227.178 2.05627 -1.52155 0
M  V30 2361 H 226.822 4.2399 -2.79633 0
M  V30 2362 H 226.752 5.11626 -1.24685 0
M  V30 2363 H 229.243 3.55499 -1.28175 0
M  V30 2364 H 229.556 7.03398 -3.20079 0
M  V30 2365 H 227.901 6.32873 -2.87223 0
M  V30 2366 H 231.092 4.37423 -1.66669 0
M  V30 2367 H 231.265 5.96077 -2.54158 0
M  V30 2368 N 224.671 0.411399 1.52136 0
M  V30 2369 C 225.899 -0.163076 2.06256 0
M  V30 2370 C 226.314 -1.3867 1.28125 0
M  V30 2371 O 225.671 -1.79423 0.333721 0
M  V30 2372 C 225.722 -0.511252 3.57867 0
M  V30 2373 O 225.443 0.66378 4.33042 0
M  V30 2374 C 226.944 -1.13921 4.28412 0
M  V30 2375 H 224.164 -0.0193897 0.67072 0
M  V30 2376 H 226.708 0.583007 1.96013 0
M  V30 2377 H 224.863 -1.20723 3.6811 0
M  V30 2378 H 225.277 0.372601 5.23175 0
M  V30 2379 H 226.751 -1.33302 5.35663 0
M  V30 2380 H 227.228 -2.11296 3.85033 0
M  V30 2381 H 227.834 -0.483373 4.22544 0
M  V30 2382 N 226.149 -1.5696 0.141893 0
M  V30 2383 C 227.059 -2.20066 -0.812905 0
M  V30 2384 C 228.075 -1.18344 -1.27557 0
M  V30 2385 O 229.251 -1.50902 -1.33381 0
M  V30 2386 C 226.316 -2.80583 -2.03652 0
M  V30 2387 C 225.377 -3.97414 -1.62359 0
M  V30 2388 C 224.61 -4.55036 -2.78887 0
M  V30 2389 O 224.833 -4.11538 -3.94959 0
M  V30 2390 O 223.767 -5.45376 -2.54653 0
M  V30 2391 H 227.593 -3.02157 -0.305746 0
M  V30 2392 H 225.178 -1.49159 -0.0848799 0
M  V30 2393 H 227.06 -3.19067 -2.75272 0
M  V30 2394 H 225.735 -2.01508 -2.5333 0
M  V30 2395 H 224.642 -3.63656 -0.877775 0
M  V30 2396 H 225.975 -4.77994 -1.17401 0
M  V30 2397 N 227.627 0.131896 -1.57047 0
M  V30 2398 C 228.904 0.871495 -1.75112 0
M  V30 2399 C 229.284 1.9866 -0.713949 0
M  V30 2400 O 228.632 2.26965 0.264447 0
M  V30 2401 C 228.842 1.40007 -3.19686 0
M  V30 2402 C 230.19 1.85752 -3.81813 0
M  V30 2403 O 231.214 1.49715 -3.23209 0
M  V30 2404 O 230.073 2.5226 -4.84796 0
M  V30 2405 H 227.167 0.412919 -0.716538 0
M  V30 2406 H 229.713 0.116641 -1.69299 0
M  V30 2407 H 228.485 0.599404 -3.86682 0
M  V30 2408 H 228.108 2.218 -3.29986 0
M  V30 2409 N 229.106 1.52395 0.401703 0
M  V30 2410 C 230.383 1.57387 1.16141 0
M  V30 2411 C 230.763 0.359359 2.08019 0
M  V30 2412 O 230.111 -0.65326 2.18963 0
M  V30 2413 C 230.321 2.90631 1.93221 0
M  V30 2414 C 231.669 3.43904 2.49028 0
M  V30 2415 O 232.693 2.92421 2.03393 0
M  V30 2416 O 231.552 4.33823 3.32356 0
M  V30 2417 H 228.646 0.634262 0.530698 0
M  V30 2418 H 231.192 1.64725 0.407883 0
M  V30 2419 H 229.964 3.70473 1.25958 0
M  V30 2420 H 229.587 2.8662 2.75563 0
M  V30 2421 N 230.584 -0.659388 1.43143 0
M  V30 2422 C 231.514 -1.78422 1.50625 0
M  V30 2423 C 232.495 -1.66216 0.361443 0
M  V30 2424 O 233.68 -1.85404 0.577834 0
M  V30 2425 C 230.81 -3.16815 1.42287 0
M  V30 2426 C 229.764 -3.43777 2.54954 0
M  V30 2427 C 229.09 -4.81905 2.31671 0
M  V30 2428 C 230.39 -3.39134 3.97222 0
M  V30 2429 H 232.084 -1.72417 2.44771 0
M  V30 2430 H 229.63 -0.828084 1.17808 0
M  V30 2431 H 231.583 -3.95253 1.46127 0
M  V30 2432 H 230.307 -3.23534 0.446435 0
M  V30 2433 H 228.966 -2.67707 2.50457 0
M  V30 2434 H 228.614 -4.85294 1.32284 0
M  V30 2435 H 228.314 -5.00906 3.07192 0
M  V30 2436 H 229.838 -5.62609 2.37284 0
M  V30 2437 H 231.252 -4.07518 4.03239 0
M  V30 2438 H 229.649 -3.69671 4.72719 0
M  V30 2439 H 230.719 -2.37426 4.22797 0
M  V30 2440 N 232.062 -1.29571 -0.897171 0
M  V30 2441 C 233.308 -1.17863 -1.65034 0
M  V30 2442 C 233.641 0.268729 -1.92332 0
M  V30 2443 O 232.916 1.19378 -1.53555 0
M  V30 2444 C 233.199 -1.995 -2.99786 0
M  V30 2445 C 233.052 -3.5239 -2.79538 0
M  V30 2446 C 234.371 -1.82335 -4.00552 0
M  V30 2447 H 231.49 -0.429528 -0.598895 0
M  V30 2448 H 234.132 -1.59072 -1.03905 0
M  V30 2449 H 232.282 -1.64485 -3.51962 0
M  V30 2450 H 233.954 -3.97401 -2.34244 0
M  V30 2451 H 232.197 -3.77187 -2.14273 0
M  V30 2452 H 232.868 -4.04787 -3.75302 0
M  V30 2453 H 235.344 -2.12924 -3.57495 0
M  V30 2454 H 234.22 -2.41801 -4.92771 0
M  V30 2455 H 234.481 -0.779209 -4.35179 0
M  V30 2456 N 233.54 1.10788 -1.12088 0
M  V30 2457 C 234.951 1.64181 -0.88891 0
M  V30 2458 C 235.302 1.87508 0.577498 0
M  V30 2459 O 234.427 1.61434 1.44112 0
M  V30 2460 C 235.022 2.98257 -1.60712 0
M  V30 2461 C 233.581 3.4853 -1.42139 0
M  V30 2462 C 232.728 2.23208 -1.6454 0
M  V30 2463 H 235.679 0.943368 -1.27618 0
M  V30 2464 H 235.7 3.65552 -1.05604 0
M  V30 2465 H 235.212 2.81246 -2.67436 0
M  V30 2466 H 233.313 3.70692 -0.376552 0
M  V30 2467 H 233.426 4.26882 -2.17505 0
M  V30 2468 H 231.79 2.31169 -1.06925 0
M  V30 2469 H 232.573 2.08733 -2.72554 0
M  V30 2470 N 235.018 0.912232 1.28515 0
M  V30 2471 C 236.246 0.560416 1.99166 0
M  V30 2472 C 236.661 -0.857927 1.68182 0
M  V30 2473 O 236.018 -1.56805 0.933733 0
M  V30 2474 C 236.069 0.758142 3.53461 0
M  V30 2475 O 235.79 2.12067 3.83352 0
M  V30 2476 C 237.291 0.412954 4.41372 0
M  V30 2477 H 234.511 0.213805 0.636026 0
M  V30 2478 H 237.055 1.22502 1.63749 0
M  V30 2479 H 235.21 0.140556 3.87145 0
M  V30 2480 H 235.624 2.15923 4.77993 0
M  V30 2481 H 237.098 0.60208 5.48707 0
M  V30 2482 H 237.575 -0.65073 4.34353 0
M  V30 2483 H 238.181 1.00802 4.13182 0
M  V30 2484 N 236.496 -1.42363 0.676048 0
M  V30 2485 C 237.459 -2.29199 0.00766941 0
M  V30 2486 C 238.459 -1.43389 -0.727745 0
M  V30 2487 O 239.649 -1.64764 -0.56556 0
M  V30 2488 C 236.781 -3.2591 -0.999785 0
M  V30 2489 H 237.974 -2.89794 0.771988 0
M  V30 2490 H 235.527 -1.50024 0.438468 0
M  V30 2491 H 236.262 -2.70256 -1.79255 0
M  V30 2492 H 236.047 -3.89202 -0.475829 0
M  V30 2493 H 237.537 -3.91028 -1.46583 0
M  V30 2494 N 237.974 -0.419461 -1.51915 0
M  V30 2495 C 239.385 0.0477853 -1.86639 0
M  V30 2496 C 239.736 1.43531 -1.33766 0
M  V30 2497 O 238.861 2.05401 -0.68113 0
M  V30 2498 C 239.456 0.0934885 -3.38671 0
M  V30 2499 C 238.015 0.505097 -3.72996 0
M  V30 2500 C 237.162 -0.313792 -2.75519 0
M  V30 2501 H 240.113 -0.636088 -1.45395 0
M  V30 2502 H 240.134 0.906667 -3.6954 0
M  V30 2503 H 239.646 -0.916501 -3.77123 0
M  V30 2504 H 237.747 1.52135 -3.40126 0
M  V30 2505 H 237.86 0.242309 -4.78487 0
M  V30 2506 H 236.224 0.225363 -2.53701 0
M  V30 2507 H 237.007 -1.32232 -3.16812 0
M  V30 2508 N 239.452 1.56882 -0.150215 0
M  V30 2509 C 240.677 2.01027 0.510184 0
M  V30 2510 C 241.102 1.02966 1.57415 0
M  V30 2511 O 240.46 0.00590158 1.81299 0
M  V30 2512 C 240.508 3.43899 1.08472 0
M  V30 2513 O 239.612 3.4885 2.19948 0
M  V30 2514 H 238.953 0.652233 0.124451 0
M  V30 2515 H 241.483 2.03093 -0.247894 0
M  V30 2516 H 241.493 3.82766 1.41259 0
M  V30 2517 H 240.168 4.14776 0.305582 0
M  V30 2518 H 238.745 3.21827 1.88366 0
M  V30 2519 N 240.93 -0.123565 1.57115 0
M  V30 2520 C 241.86 -1.15309 2.03042 0
M  V30 2521 C 242.841 -1.43454 0.914061 0
M  V30 2522 O 244.026 -1.53973 1.18347 0
M  V30 2523 C 241.156 -2.48043 2.43089 0
M  V30 2524 C 240.11 -2.3437 3.58127 0
M  V30 2525 C 239.436 -3.72026 3.84059 0
M  V30 2526 C 240.736 -1.80804 4.90007 0
M  V30 2527 H 242.43 -0.771102 2.893 0
M  V30 2528 H 239.976 -0.369479 1.39179 0
M  V30 2529 H 241.929 -3.20311 2.73823 0
M  V30 2530 H 240.653 -2.88122 1.53796 0
M  V30 2531 H 239.312 -1.64551 3.27595 0
M  V30 2532 H 238.96 -4.09582 2.91979 0
M  V30 2533 H 238.66 -3.63732 4.6149 0
M  V30 2534 H 240.184 -4.45806 4.1724 0
M  V30 2535 H 241.598 -2.42886 5.19307 0
M  V30 2536 H 239.995 -1.83343 5.71407 0
M  V30 2537 H 241.065 -0.76528 4.78823 0
M  V30 2538 N 242.408 -1.52605 -0.393616 0
M  V30 2539 C 243.656 -1.67093 -1.13685 0
M  V30 2540 C 243.977 -0.411011 -1.90619 0
M  V30 2541 O 243.247 0.574491 -1.87287 0
M  V30 2542 H 241.827 -0.615923 -0.422668 0
M  V30 2543 H 244.489 -1.89704 -0.447039 0
M  V30 2544 H 243.585 -2.51922 -1.84232 0
M  V30 2545 N 243.887 0.651787 -1.4349 0
M  V30 2546 C 245.115 1.43937 -1.48626 0
M  V30 2547 C 245.53 1.8851 -0.104587 0
M  V30 2548 O 244.887 1.5958 0.885464 0
M  V30 2549 C 244.938 2.6734 -2.43334 0
M  V30 2550 O 244.659 2.24631 -3.76128 0
M  V30 2551 C 246.16 3.60683 -2.57726 0
M  V30 2552 H 243.38 0.44213 -0.504739 0
M  V30 2553 H 245.924 0.798944 -1.88248 0
M  V30 2554 H 244.079 3.2752 -2.06904 0
M  V30 2555 H 244.493 3.04485 -4.2707 0
M  V30 2556 H 245.967 4.43933 -3.28067 0
M  V30 2557 H 246.444 4.08126 -1.62265 0
M  V30 2558 H 247.05 3.06384 -2.94973 0
M  V30 2559 N 245.365 1.30045 0.890287 0
M  V30 2560 C 246.312 1.15976 1.99545 0
M  V30 2561 C 247.282 0.0506202 1.66023 0
M  V30 2562 O 248.467 0.219847 1.89529 0
M  V30 2563 C 245.607 0.852054 3.34416 0
M  V30 2564 C 244.72 2.04255 3.80662 0
M  V30 2565 C 243.855 1.6734 5.04154 0
M  V30 2566 C 242.894 2.82916 5.42794 0
M  V30 2567 N 242.031 2.46333 6.57468 0
M  V30 2568 H 246.871 2.10524 2.10911 0
M  V30 2569 H 244.408 1.04749 1.03276 0
M  V30 2570 H 246.366 0.654296 4.12037 0
M  V30 2571 H 244.996 -0.0565502 3.2275 0
M  V30 2572 H 244.048 2.35172 2.98995 0
M  V30 2573 H 245.36 2.90826 4.05242 0
M  V30 2574 H 244.514 1.43908 5.89386 0
M  V30 2575 H 243.253 0.779308 4.81433 0
M  V30 2576 H 242.258 3.0702 4.56091 0
M  V30 2577 H 243.483 3.73004 5.6749 0
M  V30 2578 H 241.429 1.59423 6.36334 0
M  V30 2579 H 241.346 3.26436 6.81891 0
M  V30 2580 H 242.614 2.26244 7.45945 0
M  V30 2581 N 246.843 -1.10192 1.12674 0
M  V30 2582 C 247.753 -2.20172 0.810026 0
M  V30 2583 C 248.769 -1.72821 -0.202188 0
M  V30 2584 O 249.945 -2.01369 -0.0351691 0
M  V30 2585 C 247.01 -3.45631 0.272007 0
M  V30 2586 C 246.071 -4.07704 1.34447 0
M  V30 2587 C 245.304 -5.27175 0.832029 0
M  V30 2588 O 245.527 -5.69425 -0.333284 0
M  V30 2589 O 244.461 -5.80168 1.60277 0
M  V30 2590 H 248.287 -2.49701 1.72867 0
M  V30 2591 H 245.872 -1.18977 0.903597 0
M  V30 2592 H 247.754 -4.21394 -0.0230219 0
M  V30 2593 H 246.429 -3.17723 -0.619164 0
M  V30 2594 H 245.336 -3.33614 1.6927 0
M  V30 2595 H 246.669 -4.3982 2.2095 0
M  V30 2596 N 248.321 -0.919034 -1.28029 0
M  V30 2597 C 249.569 -0.553838 -1.94363 0
M  V30 2598 C 249.89 0.906357 -1.72656 0
M  V30 2599 O 249.16 1.64143 -1.0693 0
M  V30 2600 H 247.74 -0.201834 -0.719216 0
M  V30 2601 H 250.402 -1.16954 -1.55909 0
M  V30 2602 H 249.498 -0.752758 -3.02886 0
M  V30 2603 N 249.799 1.42003 -0.683588 0
M  V30 2604 C 251.029 2.05448 -0.217866 0
M  V30 2605 C 251.437 1.51491 1.13346 0
M  V30 2606 O 250.78 0.653048 1.717 0
M  V30 2607 C 250.842 3.59399 -0.0850118 0
M  V30 2608 C 250.506 4.36093 -1.36645 0
M  V30 2609 C 251.503 4.66169 -2.30179 0
M  V30 2610 C 249.188 4.75578 -1.61649 0
M  V30 2611 C 251.182 5.34676 -3.46988 0
M  V30 2612 C 248.869 5.43824 -2.78745 0
M  V30 2613 C 249.867 5.73299 -3.71238 0
M  V30 2614 O 249.555 6.40142 -4.86285 0
M  V30 2615 H 249.287 0.668344 -0.101454 0
M  V30 2616 H 251.841 1.82974 -0.933248 0
M  V30 2617 H 250.071 3.80566 0.686031 0
M  V30 2618 H 251.76 4.04457 0.341973 0
M  V30 2619 H 252.526 4.36156 -2.12115 0
M  V30 2620 H 248.405 4.52025 -0.905243 0
M  V30 2621 H 251.949 5.57599 -4.19201 0
M  V30 2622 H 247.846 5.73254 -2.96732 0
M  V30 2623 H 248.614 6.58636 -4.85944 0
M  V30 2624 N 251.277 0.427512 1.51691 0
M  V30 2625 C 252.207 -0.3796 2.30394 0
M  V30 2626 C 253.188 -1.02982 1.35384 0
M  V30 2627 O 254.373 -1.03534 1.643 0
M  V30 2628 C 251.503 -1.48649 3.1388 0
M  V30 2629 C 250.457 -0.960294 4.17088 0
M  V30 2630 C 249.783 -2.16219 4.89033 0
M  V30 2631 C 251.083 -0.00153679 5.223 0
M  V30 2632 H 252.777 0.277164 2.98114 0
M  V30 2633 H 250.323 0.134739 1.43368 0
M  V30 2634 H 252.276 -2.05826 3.67714 0
M  V30 2635 H 251 -2.1714 2.43962 0
M  V30 2636 H 249.659 -0.410806 3.64291 0
M  V30 2637 H 249.307 -2.83307 4.15628 0
M  V30 2638 H 249.007 -1.81654 5.58816 0
M  V30 2639 H 250.531 -2.73968 5.45687 0
M  V30 2640 H 251.945 -0.482687 5.71264 0
M  V30 2641 H 250.342 0.256199 5.99553 0
M  V30 2642 H 251.412 0.938174 4.75738 0
M  V30 2643 N 252.755 -1.56801 0.158532 0
M  V30 2644 C 253.983 -2.00859 -0.496303 0
M  V30 2645 C 254.398 -1.03871 -1.57659 0
M  V30 2646 O 253.755 -0.0375165 -1.82461 0
M  V30 2647 C 253.806 -3.4479 -1.08638 0
M  V30 2648 O 253.527 -4.38072 -0.0492322 0
M  V30 2649 C 255.028 -4.04185 -1.8207 0
M  V30 2650 H 252.248 -0.65864 -0.128199 0
M  V30 2651 H 254.792 -2.02885 0.256506 0
M  V30 2652 H 252.947 -3.43579 -1.78975 0
M  V30 2653 H 253.361 -5.2227 -0.483102 0
M  V30 2654 H 254.835 -5.06857 -2.18633 0
M  V30 2655 H 255.312 -3.45549 -2.71095 0
M  V30 2656 H 255.918 -4.0906 -1.16405 0
M  V30 2657 N 254.233 0.115231 -1.57178 0
M  V30 2658 C 255.18 1.14115 -2.00615 0
M  V30 2659 C 256.15 1.40939 -0.878941 0
M  V30 2660 O 257.335 1.52741 -1.14345 0
M  V30 2661 C 254.475 2.46156 -2.4187 0
M  V30 2662 C 253.588 2.26236 -3.68024 0
M  V30 2663 C 252.723 3.51534 -3.98243 0
M  V30 2664 C 251.762 3.26787 -5.17568 0
M  V30 2665 N 250.899 4.44298 -5.43639 0
M  V30 2666 H 255.739 0.763743 -2.88047 0
M  V30 2667 H 253.276 0.365615 -1.42484 0
M  V30 2668 H 255.234 3.23189 -2.63827 0
M  V30 2669 H 253.864 2.81783 -1.57475 0
M  V30 2670 H 252.916 1.40102 -3.5366 0
M  V30 2671 H 254.228 2.03929 -4.55208 0
M  V30 2672 H 253.382 4.36984 -4.20868 0
M  V30 2673 H 252.121 3.76876 -3.09541 0
M  V30 2674 H 251.126 2.39729 -4.94783 0
M  V30 2675 H 252.351 3.02812 -6.0785 0
M  V30 2676 H 250.297 4.69754 -4.57895 0
M  V30 2677 H 250.214 4.25109 -6.25154 0
M  V30 2678 H 251.482 5.3087 -5.70786 0
M  V30 2679 N 255.711 1.52812 0.385517 0
M  V30 2680 C 256.643 1.74096 1.49074 0
M  V30 2681 C 257.656 0.621462 1.50472 0
M  V30 2682 O 258.845 0.897245 1.54311 0
M  V30 2683 C 255.945 1.78774 2.87911 0
M  V30 2684 C 255.118 3.08134 3.10439 0
M  V30 2685 C 254.177 3.04313 4.29278 0
M  V30 2686 O 253.203 3.78168 4.25415 0
M  V30 2687 N 254.405 2.23741 5.35649 0
M  V30 2688 H 257.17 2.69455 1.31202 0
M  V30 2689 H 254.731 1.51343 0.575065 0
M  V30 2690 H 256.723 1.73721 3.65518 0
M  V30 2691 H 255.293 0.907869 2.99126 0
M  V30 2692 H 254.513 3.26649 2.20667 0
M  V30 2693 H 255.801 3.93662 3.22347 0
M  V30 2694 H 255.199 1.63211 5.41645 0
M  V30 2695 H 253.756 2.24524 6.11909 0
M  V30 2696 N 257.189 -0.644168 1.43834 0
M  V30 2697 C 258.437 -1.40117 1.45642 0
M  V30 2698 C 258.758 -1.94814 0.0852413 0
M  V30 2699 O 258.028 -1.74988 -0.880688 0
M  V30 2700 H 256.608 -0.52005 0.536243 0
M  V30 2701 H 259.27 -0.7591 1.7951 0
M  V30 2702 H 258.366 -2.23902 2.17427 0
M  V30 2703 N 258.668 -1.30515 -0.883378 0
M  V30 2704 C 259.916 -1.19194 -1.63209 0
M  V30 2705 C 260.237 0.253205 -1.93349 0
M  V30 2706 O 259.507 1.17025 -1.57105 0
M  V30 2707 H 258.087 -0.438148 -0.605009 0
M  V30 2708 H 260.749 -1.63663 -1.05832 0
M  V30 2709 H 259.845 -1.75396 -2.58153 0
M  V30 2710 N 260.146 1.09593 -1.13257 0
M  V30 2711 C 261.076 2.18214 -0.830946 0
M  V30 2712 C 262.057 1.68812 0.208966 0
M  V30 2713 O 263.242 1.9408 0.0682666 0
M  V30 2714 C 260.372 3.46051 -0.294296 0
M  V30 2715 C 259.326 4.08778 -1.26826 0
M  V30 2716 C 258.652 5.31419 -0.591449 0
M  V30 2717 C 259.952 4.51476 -2.62615 0
M  V30 2718 H 261.646 2.43703 -1.73923 0
M  V30 2719 H 259.192 1.17128 -0.837675 0
M  V30 2720 H 261.145 4.2134 -0.0709606 0
M  V30 2721 H 259.869 3.20079 0.649366 0
M  V30 2722 H 258.528 3.35505 -1.47756 0
M  V30 2723 H 258.176 5.01727 0.357633 0
M  V30 2724 H 257.876 5.74341 -1.24123 0
M  V30 2725 H 259.4 6.09433 -0.377355 0
M  V30 2726 H 260.814 5.17999 -2.45663 0
M  V30 2727 H 259.211 5.05277 -3.23752 0
M  V30 2728 H 260.281 3.63962 -3.20406 0
M  V30 2729 N 261.624 0.925811 1.2754 0
M  V30 2730 C 262.87 0.566092 1.94739 0
M  V30 2731 C 263.203 -0.890057 1.72603 0
M  V30 2732 O 262.478 -1.63467 1.05399 0
M  V30 2733 C 262.761 0.89054 3.48915 0
M  V30 2734 C 262.614 2.4003 3.80402 0
M  V30 2735 C 263.933 0.395101 4.38323 0
M  V30 2736 H 261.052 0.20714 0.707292 0
M  V30 2737 H 263.694 1.15725 1.50691 0
M  V30 2738 H 261.844 0.387452 3.86563 0
M  V30 2739 H 263.516 2.97494 3.52555 0
M  V30 2740 H 261.759 2.85028 3.2702 0
M  V30 2741 H 262.43 2.57785 4.8811 0
M  V30 2742 H 264.906 0.826241 4.07814 0
M  V30 2743 H 263.782 0.651086 5.45025 0
M  V30 2744 H 264.043 -0.704798 4.36446 0
M  V30 2745 N 263.102 -1.41638 0.69111 0
M  V30 2746 C 264.049 -2.30789 0.0229705 0
M  V30 2747 C 265.019 -1.46863 -0.775911 0
M  V30 2748 O 266.204 -1.75661 -0.74485 0
M  V30 2749 C 263.344 -3.32868 -0.910666 0
M  V30 2750 C 262.457 -4.31875 -0.103874 0
M  V30 2751 C 261.592 -5.21024 -1.03475 0
M  V30 2752 C 260.631 -6.11702 -0.220598 0
M  V30 2753 N 259.768 -6.93349 -1.10504 0
M  V30 2754 H 264.608 -2.87366 0.788978 0
M  V30 2755 H 262.145 -1.41535 0.400794 0
M  V30 2756 H 264.103 -3.90596 -1.46597 0
M  V30 2757 H 262.733 -2.77851 -1.64312 0
M  V30 2758 H 261.785 -3.76131 0.568285 0
M  V30 2759 H 263.097 -4.96003 0.527504 0
M  V30 2760 H 262.251 -5.83565 -1.65943 0
M  V30 2761 H 260.99 -4.57112 -1.69999 0
M  V30 2762 H 259.995 -5.48215 0.417187 0
M  V30 2763 H 261.22 -6.77668 0.440784 0
M  V30 2764 H 259.166 -6.3205 -1.75638 0
M  V30 2765 H 259.083 -7.54146 -0.529125 0
M  V30 2766 H 260.351 -7.60362 -1.71667 0
M  V30 2767 N 264.58 -0.43555 -1.51462 0
M  V30 2768 C 265.808 0.130242 -2.0649 0
M  V30 2769 C 266.223 1.36614 -1.30315 0
M  V30 2770 O 265.58 1.78869 -0.362223 0
M  V30 2771 C 265.631 0.454253 -3.58635 0
M  V30 2772 O 265.352 -0.73259 -4.31931 0
M  V30 2773 C 266.853 1.07091 -4.3017 0
M  V30 2774 H 264.073 0.00871669 -0.670943 0
M  V30 2775 H 266.617 -0.614117 -1.95061 0
M  V30 2776 H 264.772 1.14851 -3.69984 0
M  V30 2777 H 265.186 -0.455787 -5.22516 0
M  V30 2778 H 266.66 1.24764 -5.37716 0
M  V30 2779 H 267.137 2.05144 -3.88346 0
M  V30 2780 H 267.743 0.416089 -4.2326 0
M  V30 2781 N 266.058 1.56714 -0.166846 0
M  V30 2782 C 267.304 1.97813 0.473473 0
M  V30 2783 C 267.659 1.05095 1.61161 0
M  V30 2784 O 266.952 0.0897541 1.9139 0
M  V30 2785 C 267.146 3.42889 1.00806 0
M  V30 2786 C 266.975 4.49635 -0.0767392 0
M  V30 2787 C 265.745 5.02566 -0.524894 0
M  V30 2788 C 267.943 5.06793 -0.875504 0
M  V30 2789 N 265.925 5.9294 -1.59047 0
M  V30 2790 C 267.296 5.93565 -1.79111 0
M  V30 2791 C 269.351 4.89306 -0.921083 0
M  V30 2792 C 268.054 6.64721 -2.74843 0
M  V30 2793 C 270.08 5.61179 -1.86633 0
M  V30 2794 C 269.442 6.47675 -2.76942 0
M  V30 2795 H 265.541 0.769093 0.141489 0
M  V30 2796 H 268.125 1.92874 -0.266031 0
M  V30 2797 H 266.296 3.48382 1.7171 0
M  V30 2798 H 268.028 3.71008 1.61664 0
M  V30 2799 H 264.783 4.73439 -0.123432 0
M  V30 2800 H 265.207 6.42831 -2.12361 0
M  V30 2801 H 269.849 4.22136 -0.23692 0
M  V30 2802 H 267.567 7.31107 -3.44249 0
M  V30 2803 H 271.153 5.49636 -1.90764 0
M  V30 2804 H 270.033 7.02313 -3.48893 0
M  V30 2805 N 267.536 -0.106894 1.57237 0
M  V30 2806 C 268.483 -1.13049 2.01217 0
M  V30 2807 C 269.453 -1.40471 0.886403 0
M  V30 2808 O 270.638 -1.52133 1.15153 0
M  V30 2809 C 267.778 -2.4487 2.43172 0
M  V30 2810 C 266.891 -2.24281 3.69218 0
M  V30 2811 C 266.026 -3.49417 4.00101 0
M  V30 2812 C 265.065 -3.24038 5.19294 0
M  V30 2813 N 264.202 -4.41409 5.45988 0
M  V30 2814 H 269.042 -0.748456 2.88448 0
M  V30 2815 H 266.579 -0.358054 1.42676 0
M  V30 2816 H 268.537 -3.21786 2.65537 0
M  V30 2817 H 267.167 -2.80944 1.58967 0
M  V30 2818 H 266.219 -1.38224 3.54398 0
M  V30 2819 H 267.531 -2.01512 4.56283 0
M  V30 2820 H 266.685 -4.34746 4.2318 0
M  V30 2821 H 265.424 -3.75229 3.11535 0
M  V30 2822 H 264.429 -2.37102 4.96047 0
M  V30 2823 H 265.654 -2.99584 6.09447 0
M  V30 2824 H 263.6 -4.67319 4.60379 0
M  V30 2825 H 263.517 -4.21788 6.274 0
M  V30 2826 H 264.785 -5.27836 5.73593 0
M  V30 2827 N 269.014 -1.53014 -0.377408 0
M  V30 2828 C 270.242 -1.72515 -1.14219 0
M  V30 2829 C 270.657 -0.448735 -1.8339 0
M  V30 2830 O 270.014 0.577592 -1.73119 0
M  V30 2831 C 270.065 -2.8826 -2.18148 0
M  V30 2832 O 269.786 -4.10962 -1.51795 0
M  V30 2833 C 271.287 -3.19536 -3.07264 0
M  V30 2834 H 268.507 -0.577301 -0.342001 0
M  V30 2835 H 271.051 -1.99712 -0.439935 0
M  V30 2836 H 269.206 -2.63492 -2.83991 0
M  V30 2837 H 269.62 -4.75693 -2.20945 0
M  V30 2838 H 271.094 -4.03959 -3.76193 0
M  V30 2839 H 271.571 -2.34403 -3.71419 0
M  V30 2840 H 272.177 -3.46186 -2.47053 0
M  V30 2841 N 270.492 0.636531 -1.44174 0
M  V30 2842 C 271.908 0.954104 -1.27941 0
M  V30 2843 C 272.108 2.0039 -0.211248 0
M  V30 2844 O 271.164 2.49236 0.404695 0
M  V30 2845 C 272.477 1.4225 -2.64925 0
M  V30 2846 C 274.025 1.53827 -2.72592 0
M  V30 2847 C 274.5 2.04053 -4.10032 0
M  V30 2848 N 275.991 2.11331 -4.12182 0
M  V30 2849 C 276.726 2.51352 -5.15374 0
M  V30 2850 N 276.222 2.90549 -6.2893 0
M  V30 2851 N 278.015 2.51438 -5.02728 0
M  V30 2852 H 270.166 -0.0578386 -2.12321 0
M  V30 2853 H 272.429 0.0367406 -0.947288 0
M  V30 2854 H 272.135 0.725466 -3.44136 0
M  V30 2855 H 272.009 2.39451 -2.9145 0
M  V30 2856 H 274.396 2.22628 -1.93702 0
M  V30 2857 H 274.477 0.550154 -2.49814 0
M  V30 2858 H 274.121 1.35848 -4.89395 0
M  V30 2859 H 274.051 3.03726 -4.30184 0
M  V30 2860 H 276.542 1.83745 -3.30222 0
M  V30 2861 H 276.855 3.19884 -7.03487 0
M  V30 2862 H 275.2 2.88313 -6.32377 0
M  V30 2863 H 278.391 2.20203 -4.13072 0
M  V30 2864 H 278.564 2.82304 -5.83274 0
M  V30 2865 N 271.97 1.30982 0.876444 0
M  V30 2866 C 273.216 1.21484 1.63136 0
M  V30 2867 C 273.571 -0.226339 1.91064 0
M  V30 2868 O 272.864 -1.15788 1.52656 0
M  V30 2869 C 273.058 1.98572 2.9716 0
M  V30 2870 C 272.887 3.50039 2.82317 0
M  V30 2871 C 271.657 4.19393 2.81847 0
M  V30 2872 C 273.855 4.45111 2.57644 0
M  V30 2873 N 271.837 5.57061 2.57985 0
M  V30 2874 C 273.208 5.70402 2.42986 0
M  V30 2875 C 275.263 4.3461 2.42937 0
M  V30 2876 C 273.966 6.8638 2.15115 0
M  V30 2877 C 275.992 5.50365 2.16454 0
M  V30 2878 C 275.354 6.74642 2.02578 0
M  V30 2879 H 271.453 0.499632 0.601575 0
M  V30 2880 H 274.037 1.65094 1.03209 0
M  V30 2881 H 272.208 1.5734 3.55104 0
M  V30 2882 H 273.94 1.81146 3.61895 0
M  V30 2883 H 270.695 3.71303 2.93991 0
M  V30 2884 H 271.119 6.29529 2.49043 0
M  V30 2885 H 275.761 3.39199 2.52396 0
M  V30 2886 H 273.479 7.81824 2.04394 0
M  V30 2887 H 277.065 5.44154 2.05884 0
M  V30 2888 H 275.945 7.62699 1.82374 0
M  V30 2889 N 273.449 -1.08991 1.13837 0
M  V30 2890 C 274.696 -1.81258 0.902882 0
M  V30 2891 C 275.024 -1.85936 -0.570803 0
M  V30 2892 O 274.279 -1.3267 -1.43865 0
M  V30 2893 C 274.578 -3.27042 1.44147 0
M  V30 2894 C 274.244 -3.4249 2.93276 0
M  V30 2895 C 272.906 -3.46414 3.33992 0
M  V30 2896 C 275.258 -3.4666 3.892 0
M  V30 2897 C 272.586 -3.52091 4.69307 0
M  V30 2898 C 274.938 -3.53872 5.24364 0
M  V30 2899 C 273.602 -3.56066 5.646 0
M  V30 2900 H 272.872 -0.663268 0.330388 0
M  V30 2901 H 275.519 -1.28368 1.42105 0
M  V30 2902 H 273.824 -3.82599 0.844097 0
M  V30 2903 H 275.521 -3.81499 1.23528 0
M  V30 2904 H 272.111 -3.40124 2.60794 0
M  V30 2905 H 276.295 -3.42865 3.58828 0
M  V30 2906 H 271.551 -3.52079 4.9985 0
M  V30 2907 H 275.725 -3.56043 5.98503 0
M  V30 2908 H 273.352 -3.60218 6.69438 0
M  V30 2909 N 274.927 -0.932562 -1.27047 0
M  V30 2910 C 276.155 -0.592031 -1.98249 0
M  V30 2911 C 276.57 0.831062 -1.69525 0
M  V30 2912 O 275.927 1.55299 -0.958561 0
M  V30 2913 C 275.978 -0.814279 -3.5221 0
M  V30 2914 O 275.699 -2.18139 -3.7993 0
M  V30 2915 C 277.2 -0.483121 -4.4066 0
M  V30 2916 H 274.42 -0.223896 -0.632544 0
M  V30 2917 H 276.964 -1.25091 -1.61779 0
M  V30 2918 H 275.119 -0.20213 -3.86872 0
M  V30 2919 H 275.533 -2.235 -4.74498 0
M  V30 2920 H 277.007 -0.689298 -5.47679 0
M  V30 2921 H 277.484 0.581546 -4.35333 0
M  V30 2922 H 278.09 -1.07362 -4.11526 0
M  V30 2923 N 276.405 1.4127 -0.698611 0
M  V30 2924 C 277.335 2.33447 -0.049629 0
M  V30 2925 C 278.316 1.51982 0.763898 0
M  V30 2926 O 279.501 1.80509 0.716257 0
M  V30 2927 C 276.631 3.35828 0.885267 0
M  V30 2928 C 275.585 4.27627 0.178613 0
M  V30 2929 C 274.911 5.20406 1.22807 0
M  V30 2930 C 276.211 5.13459 -0.956933 0
M  V30 2931 H 277.905 2.87966 -0.81951 0
M  V30 2932 H 275.451 1.38461 -0.395538 0
M  V30 2933 H 277.404 3.9924 1.34854 0
M  V30 2934 H 276.128 2.79666 1.68685 0
M  V30 2935 H 274.787 3.65643 -0.26466 0
M  V30 2936 H 274.435 4.60558 2.02226 0
M  V30 2937 H 274.135 5.82661 0.760239 0
M  V30 2938 H 275.659 5.86695 1.69179 0
M  V30 2939 H 277.073 5.70421 -0.573805 0
M  V30 2940 H 275.47 5.8467 -1.35205 0
M  V30 2941 H 276.54 4.50443 -1.79524 0
M  V30 2942 N 277.883 0.443576 1.51229 0
M  V30 2943 C 278.833 -0.382787 2.24764 0
M  V30 2944 C 279.817 -0.984836 1.27239 0
M  V30 2945 O 281.009 -0.901943 1.52296 0
M  V30 2946 C 278.138 -1.47989 3.09765 0
M  V30 2947 C 277.224 -0.886931 4.14722 0
M  V30 2948 N 277.615 -0.0237103 5.05794 0
M  V30 2949 C 275.913 -1.15385 4.30816 0
M  V30 2950 C 276.614 0.309971 5.80874 0
M  V30 2951 N 275.59 -0.307989 5.42727 0
M  V30 2952 H 279.392 0.282624 2.92538 0
M  V30 2953 H 276.906 0.256027 1.60369 0
M  V30 2954 H 278.903 -2.08482 3.61027 0
M  V30 2955 H 277.563 -2.14758 2.43535 0
M  V30 2956 H 278.574 0.34318 5.16762 0
M  V30 2957 H 275.251 -1.81857 3.75812 0
M  V30 2958 H 276.641 1.01279 6.64223 0
M  V30 2959 N 279.361 -1.56624 0.175154 0
M  V30 2960 C 280.777 -1.58571 -0.180966 0
M  V30 2961 C 280.977 -1.19065 -1.6256 0
M  V30 2962 O 280.033 -0.904044 -2.35761 0
M  V30 2963 C 281.346 -3.00522 0.103326 0
M  V30 2964 C 282.894 -3.12972 0.0418426 0
M  V30 2965 C 283.369 -4.57022 0.299175 0
M  V30 2966 N 284.86 -4.62541 0.247086 0
M  V30 2967 C 285.595 -5.71857 0.420318 0
M  V30 2968 N 285.091 -6.89717 0.652816 0
M  V30 2969 N 286.884 -5.60972 0.355957 0
M  V30 2970 H 279.035 -1.80589 1.11809 0
M  V30 2971 H 281.298 -0.837178 0.444788 0
M  V30 2972 H 281.004 -3.33916 1.10422 0
M  V30 2973 H 280.878 -3.72344 -0.603299 0
M  V30 2974 H 283.265 -2.79403 -0.949636 0
M  V30 2975 H 283.346 -2.43578 0.781238 0
M  V30 2976 H 282.99 -4.913 1.28788 0
M  V30 2977 H 282.92 -5.24579 -0.460876 0
M  V30 2978 H 285.411 -3.77829 0.0731895 0
M  V30 2979 H 285.724 -7.68911 0.774347 0
M  V30 2980 H 284.069 -6.91572 0.689476 0
M  V30 2981 H 287.26 -4.67773 0.174882 0
M  V30 2982 H 287.433 -6.46111 0.494388 0
M  V30 2983 N 280.839 0.0985539 -1.57292 0
M  V30 2984 C 281.787 1.1387 -2.02821 0
M  V30 2985 C 282.781 1.41676 -0.928666 0
M  V30 2986 O 283.987 1.41398 -1.11385 0
M  V30 2987 H 280.362 0.384419 -0.646317 0
M  V30 2988 H 282.333 0.728347 -2.89375 0
M  V30 2989 C 281.082 2.45166 -2.46554 0
M  V30 2990 H 280.405 2.24613 -3.3074 0
M  V30 2991 H 281.845 3.16456 -2.8219 0
M  V30 2992 C 280.304 3.09216 -1.33742 0
M  V30 2993 O 280.834 3.96163 -0.66464 0
M  V30 2994 N 279.04 2.69413 -1.08928 0
M  V30 2995 H 278.587 1.98801 -1.63817 0
M  V30 2996 H 278.545 3.12594 -0.336458 0
M  V30 2997 N 282.317 1.53212 0.369288 0
M  V30 2998 C 283.227 1.82342 1.47609 0
M  V30 2999 C 284.243 0.711532 1.58787 0
M  V30 3000 O 285.419 1.0012 1.74751 0
M  V30 3001 C 282.484 2.00393 2.8292 0
M  V30 3002 C 281.545 3.24297 2.81301 0
M  V30 3003 C 280.778 3.41478 4.10157 0
M  V30 3004 O 281.001 2.63033 5.06132 0
M  V30 3005 O 279.935 4.34817 4.16194 0
M  V30 3006 H 283.761 2.76366 1.25918 0
M  V30 3007 H 281.346 1.38547 0.559034 0
M  V30 3008 H 283.228 2.13859 3.63101 0
M  V30 3009 H 281.903 1.09559 3.04596 0
M  V30 3010 H 280.81 3.16257 1.99831 0
M  V30 3011 H 282.143 4.15041 2.64578 0
M  V30 3012 N 283.795 -0.628877 1.44509 0
M  V30 3013 C 284.725 -1.75187 1.54376 0
M  V30 3014 C 285.706 -1.65411 0.396618 0
M  V30 3015 O 286.891 -1.84137 0.617031 0
M  V30 3016 C 284.021 -3.13725 1.48976 0
M  V30 3017 C 282.975 -3.38291 2.62189 0
M  V30 3018 C 282.301 -4.76883 2.41841 0
M  V30 3019 C 283.601 -3.30632 4.04326 0
M  V30 3020 H 285.295 -1.67187 2.48373 0
M  V30 3021 H 282.841 -0.802909 1.19538 0
M  V30 3022 H 284.794 -3.92064 1.54478 0
M  V30 3023 H 283.518 -3.22515 0.514961 0
M  V30 3024 H 282.177 -2.62334 2.56079 0
M  V30 3025 H 281.825 -4.82378 1.42548 0
M  V30 3026 H 281.525 -4.94278 3.17747 0
M  V30 3027 H 283.049 -5.57449 2.49165 0
M  V30 3028 H 284.463 -3.98873 4.11793 0
M  V30 3029 H 282.86 -3.59561 4.80454 0
M  V30 3030 H 283.93 -2.28404 4.27738 0
M  V30 3031 N 285.273 -1.31445 -0.869486 0
M  V30 3032 C 286.22 -1.19135 -1.97675 0
M  V30 3033 C 287.19 -0.0770266 -1.65921 0
M  V30 3034 O 288.375 -0.249972 -1.89155 0
M  V30 3035 C 285.515 -0.905149 -3.33018 0
M  V30 3036 C 284.628 -2.10285 -3.77365 0
M  V30 3037 C 283.763 -1.75339 -5.01427 0
M  V30 3038 C 282.802 -2.91515 -5.38224 0
M  V30 3039 N 281.939 -2.56762 -6.53466 0
M  V30 3040 H 286.779 -2.13853 -2.07535 0
M  V30 3041 H 284.316 -1.06379 -1.01597 0
M  V30 3042 H 286.274 -0.719765 -4.10944 0
M  V30 3043 H 284.904 0.00519624 -3.228 0
M  V30 3044 H 283.956 -2.39899 -2.95216 0
M  V30 3045 H 285.268 -2.97237 -4.00564 0
M  V30 3046 H 284.422 -1.53266 -5.87022 0
M  V30 3047 H 283.161 -0.855801 -4.80133 0
M  V30 3048 H 282.166 -3.14237 -4.51149 0
M  V30 3049 H 283.391 -3.81985 -5.61484 0
M  V30 3050 H 281.337 -1.69526 -6.33717 0
M  V30 3051 H 281.254 -3.37243 -6.76612 0
M  V30 3052 H 282.522 -2.38083 -7.42251 0
M  V30 3053 N 286.751 1.08385 -1.14413 0
M  V30 3054 C 287.981 1.8425 -0.934644 0
M  V30 3055 C 288.389 1.81907 0.520234 0
M  V30 3056 O 287.732 1.22126 1.37226 0
M  V30 3057 C 287.794 3.32853 -1.35828 0
M  V30 3058 C 287.458 3.5893 -2.82875 0
M  V30 3059 C 288.455 3.53756 -3.80989 0
M  V30 3060 C 286.14 3.86934 -3.20293 0
M  V30 3061 C 288.134 3.76216 -5.14529 0
M  V30 3062 C 285.821 4.09047 -4.54008 0
M  V30 3063 C 286.819 4.03682 -5.50936 0
M  V30 3064 O 286.507 4.25214 -6.82238 0
M  V30 3065 H 286.239 0.588502 -0.332628 0
M  V30 3066 H 288.793 1.37792 -1.52324 0
M  V30 3067 H 287.023 3.8007 -0.713019 0
M  V30 3068 H 288.712 3.90154 -1.11957 0
M  V30 3069 H 289.478 3.32135 -3.53428 0
M  V30 3070 H 285.357 3.9023 -2.45442 0
M  V30 3071 H 288.901 3.71943 -5.90173 0
M  V30 3072 H 284.798 4.30151 -4.8129 0
M  V30 3073 H 285.566 4.42619 -6.88499 0
M  V30 3074 N 288.23 0.939286 1.26551 0
M  V30 3075 C 289.477 0.585847 1.9384 0
M  V30 3076 C 289.805 -0.874784 1.73718 0
M  V30 3077 O 289.06 -1.64092 1.06642 0
M  V30 3078 C 289.359 0.872106 3.46596 0
M  V30 3079 C 289.025 2.31632 3.86856 0
M  V30 3080 C 287.687 2.71111 3.97558 0
M  V30 3081 C 290.039 3.25494 4.07066 0
M  V30 3082 C 287.367 4.03553 4.25866 0
M  V30 3083 C 289.719 4.57531 4.36862 0
M  V30 3084 C 288.383 4.96828 4.45778 0
M  V30 3085 H 287.653 0.214377 0.709312 0
M  V30 3086 H 290.3 1.18544 1.50398 0
M  V30 3087 H 288.605 0.18996 3.91339 0
M  V30 3088 H 290.302 0.577442 3.96821 0
M  V30 3089 H 286.892 2.00008 3.79071 0
M  V30 3090 H 291.076 2.9619 3.98227 0
M  V30 3091 H 286.332 4.33665 4.30981 0
M  V30 3092 H 290.506 5.30254 4.51446 0
M  V30 3093 H 288.133 5.99482 4.67468 0
M  V30 3094 N 289.708 -1.40897 0.706093 0
M  V30 3095 C 290.655 -2.30751 0.0474474 0
M  V30 3096 C 291.625 -1.47678 -0.76029 0
M  V30 3097 O 292.81 -1.76441 -0.726177 0
M  V30 3098 C 289.95 -3.33815 -0.875309 0
M  V30 3099 C 289.063 -4.31961 -0.0580623 0
M  V30 3100 C 288.198 -5.22093 -0.979425 0
M  V30 3101 C 287.237 -6.11902 -0.155706 0
M  V30 3102 N 286.374 -6.94482 -1.03144 0
M  V30 3103 H 291.214 -2.86513 0.819413 0
M  V30 3104 H 288.751 -1.41102 0.415783 0
M  V30 3105 H 290.709 -3.92129 -1.42446 0
M  V30 3106 H 289.339 -2.79579 -1.61356 0
M  V30 3107 H 288.391 -3.75507 0.608147 0
M  V30 3108 H 289.703 -4.95415 0.580082 0
M  V30 3109 H 288.857 -5.85292 -1.59744 0
M  V30 3110 H 287.596 -4.5889 -1.65141 0
M  V30 3111 H 286.601 -5.47742 0.475309 0
M  V30 3112 H 287.826 -6.77162 0.512635 0
M  V30 3113 H 285.772 -6.33877 -1.68924 0
M  V30 3114 H 285.689 -7.54665 -0.449108 0
M  V30 3115 H 286.957 -7.6214 -1.63593 0
M  V30 3116 N 291.186 -0.45159 -1.50991 0
M  V30 3117 C 292.463 0.170707 -1.94854 0
M  V30 3118 C 292.843 1.58788 -1.39103 0
M  V30 3119 O 292.191 2.20913 -0.583921 0
M  V30 3120 C 292.401 0.133929 -3.48743 0
M  V30 3121 C 293.749 0.33248 -4.23296 0
M  V30 3122 O 294.773 0.211403 -3.55572 0
M  V30 3123 O 293.632 0.57486 -5.43468 0
M  V30 3124 H 290.726 0.122264 -0.817912 0
M  V30 3125 H 293.272 -0.510594 -1.61836 0
M  V30 3126 H 292.044 -0.856283 -3.81816 0
M  V30 3127 H 291.667 0.857529 -3.88242 0
M  V30 3128 N 292.664 1.56529 -0.183458 0
M  V30 3129 C 293.596 2.15747 0.773697 0
M  V30 3130 C 294.609 1.1162 1.1851 0
M  V30 3131 O 295.798 1.3876 1.12285 0
M  V30 3132 C 292.898 2.6952 2.05456 0
M  V30 3133 C 292.071 3.98429 1.8048 0
M  V30 3134 C 291.13 4.37145 2.92901 0
M  V30 3135 O 290.156 5.04791 2.6301 0
M  V30 3136 N 291.358 3.99695 4.2098 0
M  V30 3137 H 294.123 2.98505 0.26736 0
M  V30 3138 H 291.684 1.619 -0.0010878 0
M  V30 3139 H 293.676 2.92412 2.79781 0
M  V30 3140 H 292.246 1.91282 2.47245 0
M  V30 3141 H 291.466 3.8379 0.899947 0
M  V30 3142 H 292.754 4.82597 1.61175 0
M  V30 3143 H 292.152 3.4526 4.48121 0
M  V30 3144 H 290.709 4.27562 4.9197 0
M  V30 3145 N 294.142 -0.090211 1.57342 0
M  V30 3146 C 295.075 -1.14035 1.97664 0
M  V30 3147 C 296.053 -1.38576 0.850616 0
M  V30 3148 O 297.237 -1.52255 1.11134 0
M  V30 3149 C 294.364 -2.48854 2.2976 0
M  V30 3150 C 293.41 -2.40564 3.52181 0
M  V30 3151 S 294.243 -1.81745 5.03715 0
M  V30 3152 C 295.399 -3.18178 5.38993 0
M  V30 3153 H 295.632 -0.796636 2.86428 0
M  V30 3154 H 293.165 -0.298072 1.51496 0
M  V30 3155 H 295.123 -3.26413 2.48927 0
M  V30 3156 H 293.784 -2.80393 1.41558 0
M  V30 3157 H 292.977 -3.39942 3.72096 0
M  V30 3158 H 292.579 -1.71135 3.32549 0
M  V30 3159 H 294.871 -4.14461 5.35937 0
M  V30 3160 H 295.814 -3.03062 6.39968 0
M  V30 3161 H 296.222 -3.17935 4.66452 0
M  V30 3162 N 295.62 -1.53406 -0.361157 0
M  V30 3163 C 296.845 -1.74024 -1.12829 0
M  V30 3164 C 297.27 -0.470069 -1.82132 0
M  V30 3165 O 296.628 0.57619 -1.719 0
M  V30 3166 C 296.676 -2.90903 -2.13091 0
M  V30 3167 O 295.78 -2.59821 -3.20261 0
M  V30 3168 H 295.121 -0.577804 -0.327168 0
M  V30 3169 H 297.651 -2.00307 -0.41693 0
M  V30 3170 H 297.661 -3.17194 -2.56616 0
M  V30 3171 H 296.336 -3.83034 -1.62042 0
M  V30 3172 H 294.913 -2.44362 -2.81677 0
M  V30 3173 N 297.098 0.621204 -1.44841 0
M  V30 3174 C 298.509 1.20298 -1.42777 0
M  V30 3175 C 298.86 1.95639 -0.148259 0
M  V30 3176 O 297.985 2.02955 0.750892 0
M  V30 3177 C 298.58 2.1882 -2.58657 0
M  V30 3178 C 297.139 2.72403 -2.59756 0
M  V30 3179 C 296.286 1.4757 -2.34773 0
M  V30 3180 H 299.237 0.411297 -1.53278 0
M  V30 3181 H 299.258 3.01607 -2.31977 0
M  V30 3182 H 298.77 1.63957 -3.51766 0
M  V30 3183 H 296.871 3.31242 -1.70615 0
M  V30 3184 H 296.984 3.17765 -3.58556 0
M  V30 3185 H 295.348 1.76051 -1.8406 0
M  V30 3186 H 296.131 0.945954 -3.3001 0
M  V30 3187 N 298.576 1.31904 0.862503 0
M  V30 3188 C 299.486 1.22161 2.00285 0
M  V30 3189 C 300.502 0.136785 1.73462 0
M  V30 3190 O 301.678 0.355994 1.98229 0
M  V30 3191 C 298.743 0.937093 3.33796 0
M  V30 3192 C 297.804 2.10957 3.73893 0
M  V30 3193 C 297.037 1.83853 5.01033 0
M  V30 3194 O 297.26 0.777274 5.65079 0
M  V30 3195 O 296.194 2.69741 5.38074 0
M  V30 3196 H 300.02 2.18008 2.11439 0
M  V30 3197 H 297.605 1.11716 0.991957 0
M  V30 3198 H 299.487 0.794583 4.13841 0
M  V30 3199 H 298.162 0.00871894 3.23699 0
M  V30 3200 H 297.069 2.30752 2.94456 0
M  V30 3201 H 298.402 3.02046 3.88625 0
M  V30 3202 N 300.054 -1.07777 1.14986 0
M  V30 3203 C 301.465 -1.61766 0.932127 0
M  V30 3204 C 301.816 -1.88974 -0.527581 0
M  V30 3205 O 300.941 -1.65198 -1.39781 0
M  V30 3206 C 301.536 -2.93891 1.68563 0
M  V30 3207 C 300.095 -3.44639 1.5133 0
M  V30 3208 C 299.242 -2.18767 1.704 0
M  V30 3209 H 302.193 -0.909201 1.30074 0
M  V30 3210 H 302.214 -3.62623 1.15259 0
M  V30 3211 H 301.726 -2.74057 2.74799 0
M  V30 3212 H 299.827 -3.69564 0.474702 0
M  V30 3213 H 299.94 -4.20966 2.28746 0
M  V30 3214 H 298.304 -2.28253 1.13016 0
M  V30 3215 H 299.087 -2.01433 2.77992 0
M  V30 3216 N 301.532 -0.945985 -1.26051 0
M  V30 3217 C 302.781 -0.591836 -1.92822 0
M  V30 3218 C 303.094 0.873956 -1.7499 0
M  V30 3219 O 304.3 1.33769 -2.36259 0
M  V30 3220 C 302.756 -1.00776 -3.45503 0
M  V30 3221 C 302.364 -2.4955 -3.7206 0
M  V30 3222 C 304.108 -0.725735 -4.1825 0
M  V30 3223 C 302.015 -2.84988 -5.18205 0
M  V30 3224 H 300.945 -0.217635 -0.721908 0
M  V30 3225 H 303.596 -1.14927 -1.43052 0
M  V30 3226 H 301.978 -0.378812 -3.94184 0
M  V30 3227 H 303.152 -3.1739 -3.34066 0
M  V30 3228 H 301.467 -2.75133 -3.12555 0
M  V30 3229 H 304.064 -0.966771 -5.25887 0
M  V30 3230 H 304.407 0.337639 -4.14929 0
M  V30 3231 H 304.94 -1.31463 -3.7545 0
M  V30 3232 H 301.679 -3.90307 -5.26631 0
M  V30 3233 H 301.199 -2.21813 -5.57278 0
M  V30 3234 H 302.878 -2.73712 -5.86252 0
M  V30 3235 N 303.011 1.40521 -0.713556 0
M  V30 3236 C 304.427 1.54839 -0.386907 0
M  V30 3237 C 304.627 1.68532 1.1045 0
M  V30 3238 O 303.683 1.67377 1.89053 0
M  V30 3239 C 304.996 2.77792 -1.15118 0
M  V30 3240 C 306.544 2.91607 -1.13729 0
M  V30 3241 C 307.019 4.1747 -1.88368 0
M  V30 3242 N 308.51 4.24466 -1.85427 0
M  V30 3243 C 309.245 5.20755 -2.40004 0
M  V30 3244 N 308.741 6.22965 -3.03129 0
M  V30 3245 N 310.534 5.1282 -2.30158 0
M  V30 3246 H 302.685 1.29879 -1.68063 0
M  V30 3247 H 304.948 0.627896 -0.710247 0
M  V30 3248 H 304.654 2.73944 -2.20561 0
M  V30 3249 H 304.528 3.6984 -0.741477 0
M  V30 3250 H 306.915 2.94959 -0.0910608 0
M  V30 3251 H 306.996 2.00682 -1.5862 0
M  V30 3252 H 306.64 4.1488 -2.9298 0
M  V30 3253 H 306.57 5.074 -1.40898 0
M  V30 3254 H 309.061 3.51241 -1.3942 0
M  V30 3255 H 309.374 6.92859 -3.42295 0
M  V30 3256 H 307.719 6.23415 -3.07212 0
M  V30 3257 H 310.91 4.31899 -1.80501 0
M  V30 3258 H 311.083 5.87689 -2.72993 0
M  V30 3259 N 304.489 0.459591 1.5075 0
M  V30 3260 C 305.738 -0.100971 2.01447 0
M  V30 3261 C 306.051 -1.41816 1.34713 0
M  V30 3262 O 307.257 -2.06299 1.76502 0
M  V30 3263 C 305.713 -0.23047 3.59161 0
M  V30 3264 C 305.321 1.0776 4.34847 0
M  V30 3265 C 307.065 -0.743608 4.17936 0
M  V30 3266 C 304.972 0.91253 5.84317 0
M  V30 3267 H 303.902 -0.0415102 0.752856 0
M  V30 3268 H 306.553 0.592742 1.73663 0
M  V30 3269 H 304.935 -0.987703 3.83485 0
M  V30 3270 H 306.109 1.8449 4.22256 0
M  V30 3271 H 304.424 1.52097 3.87628 0
M  V30 3272 H 307.021 -0.883959 5.27343 0
M  V30 3273 H 307.364 -1.73196 3.78562 0
M  V30 3274 H 307.897 -0.04408 3.97776 0
M  V30 3275 H 304.636 1.87391 6.28144 0
M  V30 3276 H 304.156 0.185422 5.99513 0
M  V30 3277 H 305.835 0.574547 6.44444 0
M  V30 3278 N 305.967 -1.56429 0.191757 0
M  V30 3279 C 306.897 -2.21937 -0.725696 0
M  V30 3280 C 307.878 -1.1814 -1.2238 0
M  V30 3281 O 309.063 -1.46636 -1.27325 0
M  V30 3282 C 306.193 -2.87611 -1.94672 0
M  V30 3283 C 305.147 -3.97623 -1.58366 0
M  V30 3284 C 304.473 -4.50446 -2.88102 0
M  V30 3285 C 305.773 -5.16197 -0.796133 0
M  V30 3286 H 307.467 -2.98861 -0.179606 0
M  V30 3287 H 305.013 -1.43749 -0.0849464 0
M  V30 3288 H 306.966 -3.3212 -2.59373 0
M  V30 3289 H 305.69 -2.08087 -2.51728 0
M  V30 3290 H 304.349 -3.53801 -0.960247 0
M  V30 3291 H 303.997 -3.67688 -3.43241 0
M  V30 3292 H 303.697 -5.24675 -2.64556 0
M  V30 3293 H 305.221 -4.97654 -3.53798 0
M  V30 3294 H 306.635 -5.57271 -1.34618 0
M  V30 3295 H 305.032 -5.96471 -0.658928 0
M  V30 3296 H 306.102 -4.84473 0.203478 0
M  V30 3297 N 307.445 0.0818655 -1.57387 0
M  V30 3298 C 308.722 0.815343 -1.77796 0
M  V30 3299 C 309.102 1.96289 -0.77679 0
M  V30 3300 O 308.45 2.27691 0.192106 0
M  V30 3301 C 308.66 1.29765 -3.23978 0
M  V30 3302 C 310.008 1.7351 -3.8753 0
M  V30 3303 O 311.032 1.39356 -3.27808 0
M  V30 3304 O 309.891 2.36708 -4.92576 0
M  V30 3305 H 306.985 0.389914 -0.729312 0
M  V30 3306 H 309.531 0.0627213 -1.69584 0
M  V30 3307 H 308.303 0.47608 -3.88393 0
M  V30 3308 H 307.926 2.11189 -3.36875 0
M  V30 3309 N 308.923 1.53595 0.353017 0
M  V30 3310 C 309.853 1.83902 1.43883 0
M  V30 3311 C 310.834 0.693421 1.55324 0
M  V30 3312 O 312.019 0.944452 1.69687 0
M  V30 3313 C 309.149 2.04016 2.8106 0
M  V30 3314 C 308.103 3.19814 2.84434 0
M  V30 3315 C 307.429 3.25244 4.24406 0
M  V30 3316 C 308.729 4.58133 2.50822 0
M  V30 3317 H 310.423 2.74835 1.1877 0
M  V30 3318 H 307.969 1.32242 0.569917 0
M  V30 3319 H 309.922 2.238 3.57059 0
M  V30 3320 H 308.646 1.09804 3.07588 0
M  V30 3321 H 307.305 2.9987 2.10887 0
M  V30 3322 H 306.953 2.28646 4.48029 0
M  V30 3323 H 306.653 4.03054 4.27576 0
M  V30 3324 H 308.177 3.47228 5.0226 0
M  V30 3325 H 309.591 4.77995 3.16534 0
M  V30 3326 H 307.988 5.38276 2.6529 0
M  V30 3327 H 309.058 4.62387 1.46034 0
M  V30 3328 N 310.401 -0.613514 1.45168 0
M  V30 3329 C 311.629 -1.39946 1.5239 0
M  V30 3330 C 312.044 -1.88167 0.154531 0
M  V30 3331 O 311.401 -1.61872 -0.842843 0
M  V30 3332 C 311.452 -2.60795 2.50337 0
M  V30 3333 O 311.173 -2.1458 3.81952 0
M  V30 3334 C 312.674 -3.53723 2.67198 0
M  V30 3335 H 309.894 -0.428593 0.516284 0
M  V30 3336 H 312.438 -0.748753 1.903 0
M  V30 3337 H 310.593 -3.21919 2.15515 0
M  V30 3338 H 311.007 -2.93055 4.34993 0
M  V30 3339 H 312.481 -4.35079 3.39721 0
M  V30 3340 H 312.958 -4.0368 1.73029 0
M  V30 3341 H 313.564 -2.98456 3.02992 0
M  V30 3342 N 311.879 -1.3236 -0.855495 0
M  V30 3343 C 312.789 -1.23221 -1.99634 0
M  V30 3344 C 313.805 -0.145983 -1.73387 0
M  V30 3345 O 314.981 -0.366502 -1.98037 0
M  V30 3346 C 312.046 -0.954782 -3.33294 0
M  V30 3347 C 311.107 -2.12937 -3.72769 0
M  V30 3348 C 310.34 -1.86508 -5.00051 0
M  V30 3349 O 310.563 -0.807231 -5.64659 0
M  V30 3350 O 309.497 -2.72591 -5.36636 0
M  V30 3351 H 313.323 -2.19126 -2.1028 0
M  V30 3352 H 310.908 -1.12241 -0.986018 0
M  V30 3353 H 312.79 -0.816519 -4.13414 0
M  V30 3354 H 311.465 -0.0258854 -3.2369 0
M  V30 3355 H 310.372 -2.3231 -2.93228 0
M  V30 3356 H 311.705 -3.04102 -3.87018 0
M  V30 3357 N 313.357 1.07166 -1.15556 0
M  V30 3358 C 314.597 1.81391 -0.94216 0
M  V30 3359 C 314.961 1.84788 0.521272 0
M  V30 3360 O 316.162 2.54904 0.85307 0
M  V30 3361 C 314.433 3.22431 -1.54185 0
M  V30 3362 S 315.992 4.13379 -1.47183 0
M  V30 3363 H 312.81 0.624963 -0.339031 0
M  V30 3364 H 315.412 1.28725 -1.4714 0
M  V30 3365 H 314.116 3.17548 -2.59984 0
M  V30 3366 H 313.647 3.80172 -1.01156 0
M  V30 3367 H 315.662 4.94007 -0.466004 0
M  V30 3368 N 314.835 0.952656 1.25548 0
M  V30 3369 C 316.06 0.623025 1.97821 0
M  V30 3370 C 316.485 -0.7976 1.70352 0
M  V30 3371 O 315.843 -1.53905 0.958283 0
M  V30 3372 C 315.891 0.885532 3.49558 0
M  V30 3373 O 314.995 -0.0366641 4.12384 0
M  V30 3374 H 314.336 0.237082 0.620232 0
M  V30 3375 H 316.866 1.27871 1.59719 0
M  V30 3376 H 316.876 0.811009 3.99858 0
M  V30 3377 H 315.551 1.92094 3.6888 0
M  V30 3378 H 314.128 0.0898954 3.72792 0
M  V30 3379 N 316.313 -1.40141 0.720998 0
M  V30 3380 C 317.276 -2.29058 0.0805834 0
M  V30 3381 C 318.276 -1.45632 -0.681758 0
M  V30 3382 O 319.466 -1.6648 -0.512856 0
M  V30 3383 C 316.598 -3.28925 -0.895593 0
M  V30 3384 H 317.791 -2.87191 0.863793 0
M  V30 3385 H 315.344 -1.48553 0.485975 0
M  V30 3386 H 316.079 -2.75822 -1.70566 0
M  V30 3387 H 315.864 -3.90519 -0.351766 0
M  V30 3388 H 317.354 -3.95494 -1.34069 0
M  V30 3389 N 317.792 -0.46758 -1.50504 0
M  V30 3390 C 319.038 0.0887532 -2.02606 0
M  V30 3391 C 319.371 1.39686 -1.34913 0
M  V30 3392 O 318.646 1.88644 -0.473694 0
M  V30 3393 C 318.929 0.276206 -3.59039 0
M  V30 3394 C 318.782 -1.05267 -4.37309 0
M  V30 3395 C 320.101 1.03235 -4.27821 0
M  V30 3396 H 317.22 0.0307814 -0.736357 0
M  V30 3397 H 319.862 -0.612485 -1.79857 0
M  V30 3398 H 318.012 0.8735 -3.78553 0
M  V30 3399 H 319.684 -1.68628 -4.29374 0
M  V30 3400 H 317.927 -1.65015 -4.01189 0
M  V30 3401 H 318.598 -0.875197 -5.45018 0
M  V30 3402 H 321.074 0.526111 -4.12761 0
M  V30 3403 H 319.95 1.1323 -5.37094 0
M  V30 3404 H 320.211 2.06806 -3.90748 0
M  V30 3405 N 319.27 1.56325 -0.20005 0
M  V30 3406 C 320.202 2.16555 0.750771 0
M  V30 3407 C 321.215 1.12871 1.1732 0
M  V30 3408 O 322.404 1.39943 1.10807 0
M  V30 3409 C 319.504 2.71684 2.02586 0
M  V30 3410 C 318.677 4.00321 1.76244 0
M  V30 3411 C 317.736 4.40227 2.88248 0
M  V30 3412 O 316.762 5.07552 2.57642 0
M  V30 3413 N 317.964 4.04138 4.16717 0
M  V30 3414 H 320.729 2.98772 0.235685 0
M  V30 3415 H 318.29 1.6189 -0.0182594 0
M  V30 3416 H 320.282 2.95363 2.76664 0
M  V30 3417 H 318.852 1.93893 2.45202 0
M  V30 3418 H 318.072 3.84723 0.85919 0
M  V30 3419 H 319.36 4.84279 1.56048 0
M  V30 3420 H 318.758 3.49993 4.44434 0
M  V30 3421 H 317.315 4.32756 4.87407 0
M  V30 3422 N 320.748 -0.0735177 1.57428 0
M  V30 3423 C 321.995 -0.772999 1.87166 0
M  V30 3424 C 322.323 -1.77665 0.791551 0
M  V30 3425 O 321.578 -1.94541 -0.212636 0
M  V30 3426 C 321.877 -1.51799 3.23561 0
M  V30 3427 C 321.543 -0.654484 4.46125 0
M  V30 3428 C 320.205 -0.416511 4.79394 0
M  V30 3429 C 322.557 -0.0555862 5.2117 0
M  V30 3430 C 319.885 0.429869 5.85123 0
M  V30 3431 C 322.237 0.778239 6.27795 0
M  V30 3432 C 320.901 1.0261 6.59566 0
M  V30 3433 H 320.171 -0.282861 0.684888 0
M  V30 3434 H 322.818 -0.0338272 1.9147 0
M  V30 3435 H 321.123 -2.32932 3.1504 0
M  V30 3436 H 322.82 -2.06397 3.43804 0
M  V30 3437 H 319.41 -0.850091 4.20085 0
M  V30 3438 H 323.594 -0.226558 4.95783 0
M  V30 3439 H 318.85 0.630665 6.08139 0
M  V30 3440 H 323.024 1.24906 6.85107 0
M  V30 3441 H 320.651 1.68371 7.4132 0
M  V30 3442 N 322.226 -1.5378 -0.344866 0
M  V30 3443 C 323.503 -1.61589 -1.10219 0
M  V30 3444 C 323.883 -0.436316 -2.06542 0
M  V30 3445 O 323.231 0.571543 -2.21237 0
M  V30 3446 C 323.441 -2.97602 -1.82301 0
M  V30 3447 C 324.789 -3.5291 -2.36093 0
M  V30 3448 O 325.813 -2.99768 -1.924 0
M  V30 3449 O 324.672 -4.45859 -3.16026 0
M  V30 3450 H 321.766 -0.653522 -0.506792 0
M  V30 3451 H 324.312 -1.66126 -0.346465 0
M  V30 3452 H 323.084 -3.74893 -1.12121 0
M  V30 3453 H 322.707 -2.9665 -2.64735 0
M  V30 3454 N 323.704 0.605807 -1.45491 0
M  V30 3455 C 324.934 1.38934 -1.52908 0
M  V30 3456 C 325.342 1.88513 -0.161086 0
M  V30 3457 O 324.685 1.62962 0.847891 0
M  V30 3458 C 324.747 2.62737 -2.45376 0
M  V30 3459 C 324.411 2.34785 -3.92078 0
M  V30 3460 C 325.408 1.95038 -4.8193 0
M  V30 3461 C 323.093 2.47642 -4.37011 0
M  V30 3462 C 325.087 1.68511 -6.14722 0
M  V30 3463 C 322.774 2.20728 -5.69844 0
M  V30 3464 C 323.772 1.81225 -6.58519 0
M  V30 3465 O 323.46 1.54627 -7.88889 0
M  V30 3466 H 323.192 0.431629 -0.520262 0
M  V30 3467 H 325.746 0.74573 -1.91384 0
M  V30 3468 H 323.976 3.29824 -2.01874 0
M  V30 3469 H 325.665 3.24783 -2.43456 0
M  V30 3470 H 326.431 1.84639 -4.48479 0
M  V30 3471 H 322.31 2.77356 -3.68232 0
M  V30 3472 H 325.854 1.37602 -6.83894 0
M  V30 3473 H 321.751 2.30744 -6.02849 0
M  V30 3474 H 322.519 1.68665 -8.00933 0
M  V30 3475 N 325.182 1.32811 0.848464 0
M  V30 3476 C 326.407 1.26882 1.6406 0
M  V30 3477 C 326.832 -0.15913 1.87426 0
M  V30 3478 O 326.19 -1.11258 1.43148 0
M  V30 3479 C 326.238 2.03997 2.97351 0
M  V30 3480 O 325.342 1.39201 3.88197 0
M  V30 3481 H 324.683 0.436982 0.499943 0
M  V30 3482 H 327.213 1.75224 1.0563 0
M  V30 3483 H 327.223 2.14403 3.47124 0
M  V30 3484 H 325.898 3.0783 2.79666 0
M  V30 3485 H 324.475 1.37381 3.46671 0
M  V30 3486 N 326.66 -1.06551 1.16123 0
M  V30 3487 C 327.592 -2.13908 0.823171 0
M  V30 3488 C 328.605 -1.61926 -0.16843 0
M  V30 3489 O 329.794 -1.78412 0.055962 0
M  V30 3490 C 326.894 -3.38283 0.204424 0
M  V30 3491 C 326.067 -4.19589 1.23548 0
M  V30 3492 C 325.126 -5.2233 0.637011 0
M  V30 3493 O 324.152 -5.54034 1.30516 0
M  V30 3494 N 325.354 -5.77621 -0.577474 0
M  V30 3495 H 328.119 -2.43508 1.74711 0
M  V30 3496 H 325.68 -1.2253 1.05821 0
M  V30 3497 H 327.672 -4.0416 -0.208909 0
M  V30 3498 H 326.242 -3.06329 -0.623012 0
M  V30 3499 H 325.462 -3.49406 1.82507 0
M  V30 3500 H 326.75 -4.70718 1.93137 0
M  V30 3501 H 326.148 -5.54125 -1.13853 0
M  V30 3502 H 324.705 -6.45087 -0.933053 0
M  V30 3503 N 328.138 -0.959301 -1.25041 0
M  V30 3504 C 329.048 -0.489994 -2.29426 0
M  V30 3505 C 330.064 0.444944 -1.68215 0
M  V30 3506 O 331.24 0.320046 -1.98841 0
M  V30 3507 C 328.305 0.220309 -3.45999 0
M  V30 3508 C 327.366 -0.753418 -4.22637 0
M  V30 3509 C 326.599 -0.076918 -5.33645 0
M  V30 3510 O 326.822 1.13649 -5.58963 0
M  V30 3511 O 325.756 -0.764824 -5.97021 0
M  V30 3512 H 329.582 -1.35755 -2.71669 0
M  V30 3513 H 327.167 -0.725961 -1.30576 0
M  V30 3514 H 329.049 0.619677 -4.16819 0
M  V30 3515 H 327.724 1.06296 -3.0575 0
M  V30 3516 H 326.631 -1.20308 -3.54227 0
M  V30 3517 H 327.964 -1.56423 -4.66683 0
M  V30 3518 N 329.616 1.39756 -0.72842 0
M  V30 3519 C 331.032 1.5442 -0.403308 0
M  V30 3520 C 331.232 1.69694 1.08656 0
M  V30 3521 O 330.288 1.69373 1.87267 0
M  V30 3522 C 331.601 2.76555 -1.18058 0
M  V30 3523 C 333.149 2.90384 -1.16815 0
M  V30 3524 C 333.624 4.15449 -1.92785 0
M  V30 3525 N 335.115 4.22475 -1.89918 0
M  V30 3526 C 335.85 5.1818 -2.45514 0
M  V30 3527 N 335.346 6.19714 -3.09719 0
M  V30 3528 N 337.139 5.1035 -2.35584 0
M  V30 3529 H 329.29 1.28089 -1.69431 0
M  V30 3530 H 331.553 0.620327 -0.716867 0
M  V30 3531 H 331.259 2.7159 -2.23455 0
M  V30 3532 H 331.133 3.69033 -0.780662 0
M  V30 3533 H 333.52 2.94846 -0.12234 0
M  V30 3534 H 333.601 1.98988 -1.6074 0
M  V30 3535 H 333.245 4.11749 -2.97364 0
M  V30 3536 H 333.175 5.05877 -1.46272 0
M  V30 3537 H 335.666 3.49743 -1.43138 0
M  V30 3538 H 335.979 6.8919 -3.49625 0
M  V30 3539 H 334.324 6.20121 -3.13807 0
M  V30 3540 H 337.515 4.2996 -1.85072 0
M  V30 3541 H 337.688 5.84761 -2.79211 0
M  V30 3542 N 331.094 0.475555 1.50254 0
M  V30 3543 C 332.34 -0.0780073 2.0265 0
M  V30 3544 C 332.673 -1.38968 1.35652 0
M  V30 3545 O 331.948 -1.8839 0.483691 0
M  V30 3546 C 332.231 -0.257161 3.59181 0
M  V30 3547 C 332.084 1.07585 4.36744 0
M  V30 3548 C 333.403 -1.00965 4.28362 0
M  V30 3549 H 330.522 -0.0268758 0.73651 0
M  V30 3550 H 333.164 0.622015 1.7953 0
M  V30 3551 H 331.314 -0.853412 3.79011 0
M  V30 3552 H 332.986 1.70902 4.28474 0
M  V30 3553 H 331.229 1.6714 4.00308 0
M  V30 3554 H 331.9 0.904088 5.44546 0
M  V30 3555 H 334.376 -0.504214 4.13034 0
M  V30 3556 H 333.252 -1.10381 5.37687 0
M  V30 3557 H 333.513 -2.04731 3.91839 0
M  V30 3558 N 332.573 -1.56217 0.208337 0
M  V30 3559 C 333.521 -2.21053 -0.723769 0
M  V30 3560 C 334.515 -1.18578 -1.20978 0
M  V30 3561 O 335.721 -1.36691 -1.17114 0
M  V30 3562 H 332.096 -0.708595 -0.251788 0
M  V30 3563 H 334.067 -2.98006 -0.153365 0
M  V30 3564 C 332.816 -2.89417 -1.927 0
M  V30 3565 H 332.139 -3.68019 -1.56212 0
M  V30 3566 H 333.579 -3.38201 -2.55727 0
M  V30 3567 C 332.038 -1.91166 -2.77411 0
M  V30 3568 O 332.568 -1.42026 -3.75754 0
M  V30 3569 N 330.774 -1.59105 -2.43175 0
M  V30 3570 H 330.321 -1.99259 -1.63259 0
M  V30 3571 H 330.279 -0.936255 -3.00136 0
M  V30 3572 N 334.051 0.0651679 -1.57465 0
M  V30 3573 C 335.291 0.768329 -1.8941 0
M  V30 3574 C 335.655 1.74406 -0.802894 0
M  V30 3575 O 336.856 2.49281 -1.0056 0
M  V30 3576 C 335.127 1.45199 -3.26576 0
M  V30 3577 S 336.686 2.1893 -3.80283 0
M  V30 3578 H 333.504 0.255359 -0.663561 0
M  V30 3579 H 336.106 0.024167 -1.95485 0
M  V30 3580 H 334.81 0.728123 -4.03889 0
M  V30 3581 H 334.341 2.23545 -3.23715 0
M  V30 3582 H 336.356 3.45551 -3.56102 0
M  V30 3583 N 335.529 1.53961 0.336706 0
M  V30 3584 C 336.776 1.71536 1.07618 0
M  V30 3585 C 337.104 0.482125 1.8843 0
M  V30 3586 O 336.359 -0.536142 1.88213 0
M  V30 3587 C 336.658 2.93493 2.03953 0
M  V30 3588 C 336.324 4.28811 1.39399 0
M  V30 3589 C 334.986 4.65602 1.21523 0
M  V30 3590 C 337.338 5.12844 0.929541 0
M  V30 3591 C 334.666 5.84037 0.558312 0
M  V30 3592 C 337.018 6.31951 0.286505 0
M  V30 3593 C 335.682 6.67432 0.0954869 0
M  V30 3594 H 334.952 0.627696 0.393801 0
M  V30 3595 H 337.599 1.88186 0.354715 0
M  V30 3596 H 335.904 2.71475 2.82504 0
M  V30 3597 H 337.601 3.04285 2.61174 0
M  V30 3598 H 334.191 3.99858 1.54311 0
M  V30 3599 H 338.375 4.84947 1.05548 0
M  V30 3600 H 333.631 6.10097 0.398995 0
M  V30 3601 H 337.805 6.96352 -0.0814376 0
M  V30 3602 H 335.432 7.59063 -0.415579 0
M  V30 3603 N 337.007 -0.598083 1.45811 0
M  V30 3604 C 338.247 -1.36802 1.5187 0
M  V30 3605 C 338.611 -1.9133 0.160224 0
M  V30 3606 O 339.812 -2.6863 0.0955302 0
M  V30 3607 C 338.083 -2.47835 2.57513 0
M  V30 3608 S 339.642 -3.35458 2.82866 0
M  V30 3609 H 336.46 -0.466278 0.536755 0
M  V30 3610 H 339.062 -0.689152 1.82951 0
M  V30 3611 H 337.766 -2.06141 3.54872 0
M  V30 3612 H 337.297 -3.20512 2.28114 0
M  V30 3613 H 339.312 -4.46251 2.16967 0
M  V30 3614 N 338.485 -1.33259 -0.841409 0
M  V30 3615 C 339.415 -1.25926 -1.96634 0
M  V30 3616 C 340.396 -0.140349 -1.6952 0
M  V30 3617 O 341.581 -0.329707 -1.91381 0
M  V30 3618 C 338.711 -0.99512 -3.32738 0
M  V30 3619 C 337.665 -2.0767 -3.74242 0
M  V30 3620 C 336.991 -1.66474 -5.08125 0
M  V30 3621 C 338.291 -3.49318 -3.88297 0
M  V30 3622 H 339.985 -2.20046 -2.03027 0
M  V30 3623 H 337.531 -1.05931 -0.975425 0
M  V30 3624 H 339.484 -0.930323 -4.11002 0
M  V30 3625 H 338.208 -0.0183004 -3.26595 0
M  V30 3626 H 336.867 -2.13187 -2.98239 0
M  V30 3627 H 336.515 -0.675012 -4.9845 0
M  V30 3628 H 336.215 -2.3885 -5.36865 0
M  V30 3629 H 337.739 -1.61455 -5.88867 0
M  V30 3630 H 339.153 -3.46316 -4.56879 0
M  V30 3631 H 337.55 -4.20158 -4.28471 0
M  V30 3632 H 338.62 -3.8801 -2.9082 0
M  V30 3633 N 339.963 1.05934 -1.16686 0
M  V30 3634 C 341.209 1.79065 -0.95203 0
M  V30 3635 C 341.542 1.87147 0.518629 0
M  V30 3636 O 340.817 1.36574 1.38484 0
M  V30 3637 C 341.1 3.23359 -1.58464 0
M  V30 3638 C 340.953 3.23336 -3.12689 0
M  V30 3639 C 342.272 4.21004 -1.28232 0
M  V30 3640 H 339.391 0.65005 -0.34728 0
M  V30 3641 H 342.033 1.23868 -1.44072 0
M  V30 3642 H 340.183 3.70493 -1.16908 0
M  V30 3643 H 341.855 2.84336 -3.6325 0
M  V30 3644 H 340.098 2.61886 -3.4583 0
M  V30 3645 H 340.769 4.25144 -3.52075 0
M  V30 3646 H 343.245 3.8233 -1.64203 0
M  V30 3647 H 342.121 5.20225 -1.75092 0
M  V30 3648 H 342.382 4.41639 -0.201791 0
M  V30 3649 N 341.441 0.965919 1.2453 0
M  V30 3650 C 342.688 0.626831 1.92554 0
M  V30 3651 C 343.016 -0.837739 1.75534 0
M  V30 3652 O 342.271 -1.61793 1.10098 0
M  V30 3653 C 342.57 0.945428 3.44669 0
M  V30 3654 C 342.236 2.39785 3.81856 0
M  V30 3655 C 340.898 2.79483 3.91718 0
M  V30 3656 C 343.25 3.34055 4.00071 0
M  V30 3657 C 340.578 4.12496 4.1721 0
M  V30 3658 C 342.93 4.66694 4.27059 0
M  V30 3659 C 341.594 5.06172 4.3514 0
M  V30 3660 H 340.864 0.229374 0.704605 0
M  V30 3661 H 343.511 1.21707 1.4785 0
M  V30 3662 H 341.816 0.272926 3.90848 0
M  V30 3663 H 343.513 0.661484 3.95507 0
M  V30 3664 H 340.103 2.08003 3.74743 0
M  V30 3665 H 344.287 3.04571 3.91855 0
M  V30 3666 H 339.543 4.42709 4.21685 0
M  V30 3667 H 343.717 5.3971 4.40097 0
M  V30 3668 H 341.344 6.09262 4.54646 0
M  V30 3669 N 342.919 -1.39368 0.735821 0
M  V30 3670 C 344.33 -1.83313 0.354015 0
M  V30 3671 C 344.681 -1.61461 -1.11466 0
M  V30 3672 O 343.806 -1.10621 -1.85989 0
M  V30 3673 C 344.401 -3.32781 0.635769 0
M  V30 3674 C 342.96 -3.75142 0.307448 0
M  V30 3675 C 342.107 -2.62358 0.897974 0
M  V30 3676 H 345.058 -1.28349 0.933398 0
M  V30 3677 H 345.079 -3.80388 -0.0921773 0
M  V30 3678 H 344.591 -3.48654 1.70476 0
M  V30 3679 H 342.692 -3.64857 -0.755674 0
M  V30 3680 H 342.805 -4.72532 0.790583 0
M  V30 3681 H 341.169 -2.52624 0.324551 0
M  V30 3682 H 341.952 -2.81036 1.97164 0
M  V30 3683 N 344.397 -0.483516 -1.5 0
M  V30 3684 C 345.644 0.0671597 -2.02389 0
M  V30 3685 C 345.972 1.38597 -1.36459 0
M  V30 3686 O 345.227 1.89634 -0.483458 0
M  V30 3687 C 345.526 0.286226 -3.56252 0
M  V30 3688 C 345.192 -0.952416 -4.40726 0
M  V30 3689 C 343.854 -1.29199 -4.63531 0
M  V30 3690 C 346.206 -1.77655 -4.89988 0
M  V30 3691 C 343.534 -2.45553 -5.32842 0
M  V30 3692 C 345.886 -2.93147 -5.60578 0
M  V30 3693 C 344.55 -3.27505 -5.81633 0
M  V30 3694 H 343.82 0.0245755 -0.740592 0
M  V30 3695 H 346.467 -0.640124 -1.80485 0
M  V30 3696 H 344.772 1.07587 -3.76739 0
M  V30 3697 H 346.469 0.726473 -3.94365 0
M  V30 3698 H 343.059 -0.677881 -4.23205 0
M  V30 3699 H 347.243 -1.52737 -4.72213 0
M  V30 3700 H 342.499 -2.72431 -5.47349 0
M  V30 3701 H 346.673 -3.57344 -5.97727 0
M  V30 3702 H 344.3 -4.1777 -6.35116 0
M  V30 3703 N 345.875 1.56104 -0.216619 0
M  V30 3704 C 347.291 1.58995 0.13886 0
M  V30 3705 C 347.491 1.23333 1.59346 0
M  V30 3706 O 346.547 0.966234 2.33281 0
M  V30 3707 C 347.86 3.00143 -0.182968 0
M  V30 3708 C 349.408 3.12751 -0.124807 0
M  V30 3709 C 349.883 4.56068 -0.420241 0
M  V30 3710 N 351.374 4.61723 -0.369634 0
M  V30 3711 C 352.109 5.70542 -0.571789 0
M  V30 3712 N 351.605 6.87744 -0.835453 0
M  V30 3713 N 353.398 5.59831 -0.504563 0
M  V30 3714 H 345.549 1.77562 -1.16557 0
M  V30 3715 H 347.812 0.825091 -0.466828 0
M  V30 3716 H 347.518 3.30871 -1.19237 0
M  V30 3717 H 347.392 3.73813 0.504367 0
M  V30 3718 H 349.779 2.81822 0.875223 0
M  V30 3719 H 349.86 2.41421 -0.845544 0
M  V30 3720 H 349.504 4.87713 -1.41769 0
M  V30 3721 H 349.434 5.25617 0.321631 0
M  V30 3722 H 351.925 3.77502 -0.173338 0
M  V30 3723 H 352.238 7.66587 -0.977938 0
M  V30 3724 H 350.583 6.895 -0.872592 0
M  V30 3725 H 353.774 4.67145 -0.298842 0
M  V30 3726 H 353.947 6.44573 -0.665519 0
M  V30 3727 N 347.353 -0.0568162 1.57498 0
M  V30 3728 C 348.581 -0.765626 1.92213 0
M  V30 3729 C 348.996 -1.70353 0.813961 0
M  V30 3730 O 348.353 -1.81268 -0.211701 0
M  V30 3731 C 348.404 -1.5465 3.2675 0
M  V30 3732 O 348.125 -0.646278 4.33307 0
M  V30 3733 C 349.626 -2.35497 3.75574 0
M  V30 3734 H 346.846 -0.216835 0.634999 0
M  V30 3735 H 349.39 -0.0226146 2.04487 0
M  V30 3736 H 347.545 -2.24165 3.15957 0
M  V30 3737 H 347.959 -1.19093 5.108 0
M  V30 3738 H 349.433 -2.85722 4.72299 0
M  V30 3739 H 349.91 -3.15692 3.05344 0
M  V30 3740 H 350.516 -1.7111 3.8936 0
M  V30 3741 N 348.832 -1.54138 -0.328536 0
M  V30 3742 C 350.079 -1.72105 -1.06706 0
M  V30 3743 C 350.407 -0.492111 -1.88171 0
M  V30 3744 O 349.662 0.526153 -1.88494 0
M  V30 3745 C 349.961 -2.9457 -2.02393 0
M  V30 3746 C 349.627 -4.29544 -1.37122 0
M  V30 3747 C 348.289 -4.6624 -1.19052 0
M  V30 3748 C 350.641 -5.1333 -0.902331 0
M  V30 3749 C 347.969 -5.84325 -0.527331 0
M  V30 3750 C 350.321 -6.32094 -0.252988 0
M  V30 3751 C 348.985 -6.67473 -0.0600901 0
M  V30 3752 H 348.255 -0.629775 -0.390466 0
M  V30 3753 H 350.902 -1.88372 -0.34473 0
M  V30 3754 H 349.207 -2.72969 -2.81061 0
M  V30 3755 H 350.904 -3.05665 -2.59557 0
M  V30 3756 H 347.494 -4.0067 -1.52188 0
M  V30 3757 H 351.678 -4.855 -1.02974 0
M  V30 3758 H 346.934 -6.103 -0.366634 0
M  V30 3759 H 351.108 -6.96299 0.118366 0
M  V30 3760 H 348.735 -7.58832 0.455828 0
M  V30 3761 N 350.31 0.590341 -1.46126 0
M  V30 3762 C 351.54 1.37304 -1.54373 0
M  V30 3763 C 351.948 1.88332 -0.181071 0
M  V30 3764 O 351.291 1.63852 0.830559 0
M  V30 3765 C 351.353 2.6012 -2.48149 0
M  V30 3766 C 351.017 2.30613 -3.94546 0
M  V30 3767 C 352.014 1.89915 -4.83971 0
M  V30 3768 C 349.699 2.42993 -4.39613 0
M  V30 3769 C 351.693 1.61981 -6.16475 0
M  V30 3770 C 349.38 2.14672 -5.72153 0
M  V30 3771 C 350.378 1.7423 -6.60404 0
M  V30 3772 O 350.066 1.46251 -7.90485 0
M  V30 3773 H 349.798 0.426086 -0.524811 0
M  V30 3774 H 352.352 0.72539 -1.92165 0
M  V30 3775 H 350.582 3.27664 -2.05361 0
M  V30 3776 H 352.271 3.22182 -2.46887 0
M  V30 3777 H 353.037 1.79872 -4.50412 0
M  V30 3778 H 348.916 2.73435 -3.71153 0
M  V30 3779 H 352.46 1.30341 -6.85315 0
M  V30 3780 H 348.357 2.24337 -6.05263 0
M  V30 3781 H 349.125 1.6016 -8.02677 0
M  V30 3782 N 351.788 1.33704 0.83433 0
M  V30 3783 C 352.718 1.26967 1.95963 0
M  V30 3784 C 353.699 0.149337 1.69443 0
M  V30 3785 O 354.884 0.339852 1.91203 0
M  V30 3786 C 352.014 1.01275 3.32206 0
M  V30 3787 C 350.968 2.09652 3.73136 0
M  V30 3788 C 350.294 1.69166 5.07235 0
M  V30 3789 C 351.594 3.51372 3.86439 0
M  V30 3790 H 353.288 2.2112 2.01857 0
M  V30 3791 H 350.834 1.06447 0.969793 0
M  V30 3792 H 352.787 0.952106 4.10503 0
M  V30 3793 H 351.511 0.0356203 3.26581 0
M  V30 3794 H 350.17 2.14766 2.97104 0
M  V30 3795 H 349.818 0.701437 4.98085 0
M  V30 3796 H 349.518 2.41694 5.35591 0
M  V30 3797 H 351.042 1.64576 5.88003 0
M  V30 3798 H 352.456 3.48734 4.55036 0
M  V30 3799 H 350.853 4.22425 4.26236 0
M  V30 3800 H 351.923 3.89546 2.88759 0
M  V30 3801 N 353.266 -1.05314 1.17247 0
M  V30 3802 C 354.506 -1.79869 0.970898 0
M  V30 3803 C 354.87 -1.85594 -0.491808 0
M  V30 3804 O 356.071 -2.56229 -0.812409 0
M  V30 3805 C 354.342 -3.19937 1.59295 0
M  V30 3806 S 355.901 -4.10986 1.53741 0
M  V30 3807 H 352.719 -0.61949 0.348931 0
M  V30 3808 H 355.321 -1.26368 1.49169 0
M  V30 3809 H 354.025 -3.13372 2.65003 0
M  V30 3810 H 353.556 -3.78515 1.07191 0
M  V30 3811 H 355.571 -4.93203 0.544537 0
M  V30 3812 N 354.744 -0.972509 -1.24016 0
M  V30 3813 C 355.707 -0.511403 -2.23422 0
M  V30 3814 C 356.707 0.394679 -1.55881 0
M  V30 3815 O 357.897 0.189469 -1.73167 0
M  V30 3816 C 355.029 0.258769 -3.39916 0
M  V30 3817 H 356.222 -1.39024 -2.6573 0
M  V30 3818 H 353.775 -0.757585 -1.36713 0
M  V30 3819 H 354.51 1.1545 -3.03054 0
M  V30 3820 H 354.295 -0.391522 -3.9014 0
M  V30 3821 H 355.785 0.570244 -4.13688 0
M  V30 3822 N 356.222 1.38976 -0.743202 0
M  V30 3823 C 357.169 2.30544 -0.10861 0
M  V30 3824 C 358.139 1.49642 0.720869 0
M  V30 3825 O 359.324 1.78304 0.679142 0
M  V30 3826 C 356.464 3.36018 0.786496 0
M  V30 3827 C 355.577 4.31963 -0.0564849 0
M  V30 3828 C 354.712 5.24506 0.840657 0
M  V30 3829 C 353.751 6.121 -0.00658363 0
M  V30 3830 N 352.888 6.96973 0.846943 0
M  V30 3831 H 357.728 2.8424 -0.895088 0
M  V30 3832 H 355.265 1.3995 -0.453048 0
M  V30 3833 H 357.223 3.95768 1.31999 0
M  V30 3834 H 355.853 2.83758 1.53887 0
M  V30 3835 H 354.905 3.73763 -0.707492 0
M  V30 3836 H 356.217 4.93703 -0.711229 0
M  V30 3837 H 355.371 5.89322 1.4417 0
M  V30 3838 H 354.11 4.63107 1.52916 0
M  V30 3839 H 353.115 5.46289 -0.620366 0
M  V30 3840 H 354.34 6.75565 -0.691992 0
M  V30 3841 H 352.286 6.38133 1.52059 0
M  V30 3842 H 352.203 7.5559 0.248864 0
M  V30 3843 H 353.471 7.6621 1.43328 0
M  V30 3844 N 357.7 0.491464 1.49741 0
M  V30 3845 C 358.928 -0.0535151 2.06831 0
M  V30 3846 C 359.343 -1.31683 1.35296 0
M  V30 3847 O 358.7 -1.77402 0.42836 0
M  V30 3848 C 358.751 -0.320835 3.60073 0
M  V30 3849 O 358.472 0.892394 4.28915 0
M  V30 3850 C 359.973 -0.910519 4.33848 0
M  V30 3851 H 357.193 0.0161909 0.670805 0
M  V30 3852 H 359.737 0.68609 1.92647 0
M  V30 3853 H 357.892 -1.0104 3.73991 0
M  V30 3854 H 358.306 0.649401 5.20464 0
M  V30 3855 H 359.78 -1.04721 5.41976 0
M  V30 3856 H 360.257 -1.90589 3.95692 0
M  V30 3857 H 360.863 -0.258712 4.24512 0
M  V30 3858 N 359.178 -1.55987 0.224894 0
M  V30 3859 C 360.426 -1.97998 -0.405099 0
M  V30 3860 C 360.747 -1.11387 -1.60056 0
M  V30 3861 O 360.017 -0.191645 -1.9496 0
M  V30 3862 H 358.597 -0.731235 -0.152658 0
M  V30 3863 H 361.259 -1.92279 0.318567 0
M  V30 3864 H 360.355 -3.03463 -0.729167 0
M  V30 3865 N 360.656 0.0484629 -1.57525 0
M  V30 3866 C 361.902 0.744226 -1.88651 0
M  V30 3867 C 362.235 1.76029 -0.820212 0
M  V30 3868 O 361.51 1.93782 0.166985 0
M  V30 3869 C 361.793 1.43128 -3.30434 0
M  V30 3870 C 361.646 0.43005 -4.47739 0
M  V30 3871 C 362.965 2.37031 -3.70816 0
M  V30 3872 H 360.084 0.269089 -0.68612 0
M  V30 3873 H 362.726 0.00713532 -1.89999 0
M  V30 3874 H 360.876 2.05956 -3.29415 0
M  V30 3875 H 362.548 -0.194816 -4.60888 0
M  V30 3876 H 360.791 -0.252522 -4.33064 0
M  V30 3877 H 361.462 0.948874 -5.43783 0
M  V30 3878 H 363.938 1.84263 -3.73077 0
M  V30 3879 H 362.814 2.82094 -4.70865 0
M  V30 3880 H 363.075 3.22864 -3.02012 0
M  V30 3881 N 362.134 1.5431 0.320358 0
M  V30 3882 C 363.044 1.86946 1.41734 0
M  V30 3883 C 364.06 0.761689 1.56443 0
M  V30 3884 O 365.236 1.05629 1.71477 0
M  V30 3885 C 362.301 2.09293 2.76401 0
M  V30 3886 C 361.362 3.33082 2.70841 0
M  V30 3887 C 360.595 3.54353 3.99086 0
M  V30 3888 O 360.818 2.79002 4.97508 0
M  V30 3889 O 359.752 4.47838 4.0215 0
M  V30 3890 H 363.578 2.80232 1.17062 0
M  V30 3891 H 361.163 1.40255 0.514673 0
M  V30 3892 H 363.045 2.25303 3.56113 0
M  V30 3893 H 361.72 1.19194 3.00956 0
M  V30 3894 H 360.627 3.22454 1.89668 0
M  V30 3895 H 361.96 4.23249 2.5124 0
M  V30 3896 N 363.613 -0.582584 1.46437 0
M  V30 3897 C 364.576 -1.67366 1.56592 0
M  V30 3898 C 365.576 -1.54575 0.443072 0
M  V30 3899 O 366.766 -1.59191 0.707381 0
M  V30 3900 C 363.898 -3.06791 1.48634 0
M  V30 3901 H 365.091 -1.5972 2.5383 0
M  V30 3902 H 362.644 -0.800432 1.34249 0
M  V30 3903 H 363.379 -3.19993 0.526763 0
M  V30 3904 H 363.164 -3.17484 2.30101 0
M  V30 3905 H 364.654 -3.86218 1.58826 0
M  V30 3906 N 365.091 -1.34144 -0.827227 0
M  V30 3907 C 366.368 -1.16844 -1.56865 0
M  V30 3908 C 366.748 0.260654 -2.09485 0
M  V30 3909 O 366.096 1.26138 -1.9053 0
M  V30 3910 C 366.306 -2.21939 -2.6934 0
M  V30 3911 C 367.654 -2.56695 -3.3822 0
M  V30 3912 O 368.678 -2.20695 -2.79593 0
M  V30 3913 O 367.537 -3.18518 -4.44082 0
M  V30 3914 H 364.631 -0.452669 -0.692112 0
M  V30 3915 H 367.177 -1.45763 -0.868973 0
M  V30 3916 H 365.949 -3.17882 -2.28182 0
M  V30 3917 H 365.572 -1.94172 -3.46962 0
M  V30 3918 N 366.569 1.04691 -1.17803 0
M  V30 3919 C 367.479 2.16057 -0.914151 0
M  V30 3920 C 368.495 1.73589 0.119503 0
M  V30 3921 O 369.671 2.01308 -0.0609468 0
M  V30 3922 C 366.736 3.4394 -0.436603 0
M  V30 3923 C 365.797 4.00825 -1.53746 0
M  V30 3924 C 365.03 5.22604 -1.0826 0
M  V30 3925 O 365.253 5.70367 0.0612244 0
M  V30 3926 O 364.187 5.7186 -1.87775 0
M  V30 3927 H 368.013 2.41169 -1.84584 0
M  V30 3928 H 365.598 1.1453 -0.959334 0
M  V30 3929 H 367.48 4.21024 -0.178057 0
M  V30 3930 H 366.155 3.20316 0.466869 0
M  V30 3931 H 365.062 3.25158 -1.84995 0
M  V30 3932 H 366.395 4.28778 -2.41683 0
M  V30 3933 N 368.047 0.979072 1.23499 0
M  V30 3934 C 369.293 0.6578 1.9247 0
M  V30 3935 C 369.648 -0.799746 1.74991 0
M  V30 3936 O 368.941 -1.56922 1.09937 0
M  V30 3937 C 369.135 0.981932 3.43646 0
M  V30 3938 C 368.964 2.46944 3.75831 0
M  V30 3939 C 367.734 3.13119 3.96591 0
M  V30 3940 C 369.932 3.45006 3.81412 0
M  V30 3941 N 367.914 4.51489 4.15969 0
M  V30 3942 C 369.285 4.68778 4.05768 0
M  V30 3943 C 371.34 3.39505 3.64198 0
M  V30 3944 C 370.043 5.87723 4.14697 0
M  V30 3945 C 372.069 4.57814 3.7438 0
M  V30 3946 C 371.431 5.80381 3.99171 0
M  V30 3947 H 367.53 0.291746 0.72554 0
M  V30 3948 H 370.114 1.25626 1.48749 0
M  V30 3949 H 368.285 0.412179 3.86207 0
M  V30 3950 H 370.017 0.618068 3.99953 0
M  V30 3951 H 366.772 2.63619 3.93449 0
M  V30 3952 H 367.196 5.23221 4.29615 0
M  V30 3953 H 371.838 2.45773 3.44029 0
M  V30 3954 H 369.556 6.81874 4.33675 0
M  V30 3955 H 373.142 4.55132 3.62417 0
M  V30 3956 H 372.022 6.70398 4.06861 0
M  V30 3957 N 369.525 -1.3858 0.750561 0
M  V30 3958 C 370.774 -1.99424 0.302172 0
M  V30 3959 C 371.087 -1.60254 -1.12152 0
M  V30 3960 O 372.293 -2.14046 -1.67023 0
M  V30 3961 C 370.749 -3.56558 0.489307 0
M  V30 3962 C 370.357 -4.04682 1.92189 0
M  V30 3963 C 372.101 -4.24374 0.103478 0
M  V30 3964 C 370.008 -5.54446 2.05775 0
M  V30 3965 H 368.938 -0.746046 0.10923 0
M  V30 3966 H 371.589 -1.58383 0.92667 0
M  V30 3967 H 369.971 -3.95472 -0.204329 0
M  V30 3968 H 371.145 -3.77065 2.64875 0
M  V30 3969 H 369.46 -3.4958 2.26236 0
M  V30 3970 H 372.057 -5.34384 0.183787 0
M  V30 3971 H 372.4 -4.05468 -0.943481 0
M  V30 3972 H 372.933 -3.90688 0.748854 0
M  V30 3973 H 369.672 -5.78252 3.08714 0
M  V30 3974 H 369.192 -5.83816 1.37546 0
M  V30 3975 H 370.871 -6.20099 1.84626 0
M  V30 3976 N 371.003 -0.499398 -1.49478 0
M  V30 3977 C 371.95 0.279881 -2.29097 0
M  V30 3978 C 372.92 0.961805 -1.3542 0
M  V30 3979 O 374.105 0.968777 -1.64376 0
M  V30 3980 C 371.245 1.33932 -3.18051 0
M  V30 3981 C 370.358 0.669333 -4.26783 0
M  V30 3982 C 369.493 1.70907 -5.02955 0
M  V30 3983 C 368.532 1.02087 -6.03527 0
M  V30 3984 N 367.669 2.00474 -6.7287 0
M  V30 3985 H 372.509 -0.405317 -2.95231 0
M  V30 3986 H 370.046 -0.211726 -1.45568 0
M  V30 3987 H 372.004 1.96553 -3.67998 0
M  V30 3988 H 370.634 1.9933 -2.53904 0
M  V30 3989 H 369.686 -0.0701234 -3.80335 0
M  V30 3990 H 370.998 0.127503 -4.98637 0
M  V30 3991 H 370.152 2.41037 -5.56764 0
M  V30 3992 H 368.891 2.28476 -4.30871 0
M  V30 3993 H 367.896 0.305338 -5.48951 0
M  V30 3994 H 369.121 0.451708 -6.77596 0
M  V30 3995 H 367.067 2.57007 -6.03559 0
M  V30 3996 H 366.984 1.51353 -7.40694 0
M  V30 3997 H 368.252 2.69897 -7.31284 0
M  V30 3998 N 372.481 1.55866 -0.233164 0
M  V30 3999 C 373.73 1.97779 0.39579 0
M  V30 4000 C 374.043 1.12419 1.60066 0
M  V30 4001 O 375.249 1.44283 2.29988 0
M  V30 4002 C 373.705 3.5188 0.755556 0
M  V30 4003 C 373.313 4.45959 -0.427152 0
M  V30 4004 C 375.057 4.02479 1.34946 0
M  V30 4005 C 372.964 5.91383 -0.0443043 0
M  V30 4006 H 371.894 0.738592 0.15165 0
M  V30 4007 H 374.545 1.80486 -0.331212 0
M  V30 4008 H 372.927 3.64816 1.5403 0
M  V30 4009 H 374.101 4.44776 -1.20462 0
M  V30 4010 H 372.416 4.05765 -0.935068 0
M  V30 4011 H 375.013 5.08637 1.649 0
M  V30 4012 H 375.356 3.49014 2.26925 0
M  V30 4013 H 375.889 3.92813 0.62791 0
M  V30 4014 H 372.628 6.48857 -0.930874 0
M  V30 4015 H 372.148 5.95734 0.697238 0
M  V30 4016 H 373.827 6.45893 0.378334 0
M  V30 4017 N 373.959 -0.0401083 1.57549 0
M  V30 4018 C 374.889 -1.04384 2.08869 0
M  V30 4019 C 375.87 -1.38407 0.988817 0
M  V30 4020 O 377.055 -1.47483 1.26342 0
M  V30 4021 C 374.185 -2.34808 2.55895 0
M  V30 4022 C 373.139 -2.15057 3.70047 0
M  V30 4023 C 372.465 -3.51145 4.03239 0
M  V30 4024 C 373.765 -1.54576 4.98902 0
M  V30 4025 H 375.459 -0.616666 2.92981 0
M  V30 4026 H 373.005 -0.295184 1.40942 0
M  V30 4027 H 374.958 -3.05346 2.90417 0
M  V30 4028 H 373.682 -2.79565 1.68853 0
M  V30 4029 H 372.341 -1.46954 3.35857 0
M  V30 4030 H 371.989 -3.93529 3.13279 0
M  V30 4031 H 371.689 -3.38758 4.80122 0
M  V30 4032 H 373.213 -4.23062 4.40285 0
M  V30 4033 H 374.627 -2.15017 5.31451 0
M  V30 4034 H 373.024 -1.52796 5.80322 0
M  V30 4035 H 374.094 -0.51039 4.82206 0
M  V30 4036 N 375.437 -1.54477 -0.31217 0
M  V30 4037 C 376.853 -1.45442 -0.657185 0
M  V30 4038 C 377.053 -0.63653 -1.91182 0
M  V30 4039 O 376.109 -0.139815 -2.52113 0
M  V30 4040 C 377.422 -2.89287 -0.82058 0
M  V30 4041 C 378.97 -2.9926 -0.917188 0
M  V30 4042 C 379.445 -4.44279 -1.11267 0
M  V30 4043 N 380.936 -4.4794 -1.17914 0
M  V30 4044 C 381.671 -5.57318 -1.34848 0
M  V30 4045 N 381.167 -6.76642 -1.48752 0
M  V30 4046 N 382.96 -5.44986 -1.37647 0
M  V30 4047 H 375.111 -2.06129 0.512313 0
M  V30 4048 H 377.374 -0.933088 0.167485 0
M  V30 4049 H 377.08 -3.51687 0.0302604 0
M  V30 4050 H 376.954 -3.36061 -1.71298 0
M  V30 4051 H 379.341 -2.36981 -1.75852 0
M  V30 4052 H 379.422 -2.558 -0.00101257 0
M  V30 4053 H 379.066 -5.07149 -0.27614 0
M  V30 4054 H 378.996 -4.85359 -2.04289 0
M  V30 4055 H 381.487 -3.61969 -1.08567 0
M  V30 4056 H 381.8 -7.55758 -1.61397 0
M  V30 4057 H 380.145 -6.79529 -1.45828 0
M  V30 4058 H 383.336 -4.50715 -1.26388 0
M  V30 4059 H 383.509 -6.3028 -1.50501 0
M  V30 4060 N 376.915 0.57481 -1.46744 0
M  V30 4061 C 378.161 1.33251 -1.53674 0
M  V30 4062 C 378.516 1.91468 -0.189125 0
M  V30 4063 O 377.809 1.73954 0.803151 0
M  V30 4064 C 378.003 2.476 -2.57738 0
M  V30 4065 C 377.832 2.00586 -4.02487 0
M  V30 4066 C 376.602 1.85237 -4.70123 0
M  V30 4067 C 378.8 1.56078 -4.90045 0
M  V30 4068 N 376.782 1.32377 -5.99458 0
M  V30 4069 C 378.153 1.14863 -6.09267 0
M  V30 4070 C 380.208 1.43968 -4.76632 0
M  V30 4071 C 378.911 0.627435 -7.16558 0
M  V30 4072 C 380.937 0.932512 -5.84002 0
M  V30 4073 C 380.299 0.53019 -7.02402 0
M  V30 4074 H 376.398 0.480284 -0.617131 0
M  V30 4075 H 378.982 0.653592 -1.83402 0
M  V30 4076 H 377.153 3.13045 -2.29907 0
M  V30 4077 H 378.885 3.14567 -2.54616 0
M  V30 4078 H 375.64 2.07423 -4.25761 0
M  V30 4079 H 376.064 1.08085 -6.68316 0
M  V30 4080 H 380.706 1.73689 -3.85476 0
M  V30 4081 H 378.424 0.317821 -8.07475 0
M  V30 4082 H 382.01 0.842611 -5.75666 0
M  V30 4083 H 380.89 0.14381 -7.84068 0
M  V30 4084 N 378.394 1.34581 0.820102 0
M  V30 4085 C 379.341 1.2639 1.93117 0
M  V30 4086 C 380.311 0.138554 1.65521 0
M  V30 4087 O 381.496 0.320004 1.88097 0
M  V30 4088 C 378.636 1.02812 3.29429 0
M  V30 4089 C 377.749 2.24146 3.693 0
M  V30 4090 C 376.884 1.93829 4.94574 0
M  V30 4091 C 375.923 3.1129 5.27034 0
M  V30 4092 N 375.06 2.80838 6.43486 0
M  V30 4093 H 379.9 2.21408 1.99455 0
M  V30 4094 H 377.437 1.10077 0.975784 0
M  V30 4095 H 379.395 0.871788 4.0799 0
M  V30 4096 H 378.025 0.114612 3.22596 0
M  V30 4097 H 377.077 2.50691 2.86109 0
M  V30 4098 H 378.389 3.11899 3.89257 0
M  V30 4099 H 377.543 1.74948 5.80929 0
M  V30 4100 H 376.282 1.03341 4.76626 0
M  V30 4101 H 375.287 3.30764 4.39175 0
M  V30 4102 H 376.512 4.02561 5.4692 0
M  V30 4103 H 374.458 1.92929 6.26988 0
M  V30 4104 H 374.375 3.62123 6.63629 0
M  V30 4105 H 375.643 2.65467 7.32903 0
M  V30 4106 N 379.872 -1.04064 1.18357 0
M  V30 4107 C 380.802 -2.14001 0.934113 0
M  V30 4108 C 381.783 -1.69616 -0.128186 0
M  V30 4109 O 382.968 -1.94185 0.0244093 0
M  V30 4110 C 380.098 -3.44253 0.459066 0
M  V30 4111 C 379.052 -4.02261 1.46185 0
M  V30 4112 C 378.378 -5.27992 0.844322 0
M  V30 4113 C 379.678 -4.38432 2.83856 0
M  V30 4114 H 381.372 -2.35127 1.85352 0
M  V30 4115 H 378.918 -1.12998 0.892604 0
M  V30 4116 H 380.871 -4.20522 0.271907 0
M  V30 4117 H 379.595 -3.22813 -0.495912 0
M  V30 4118 H 378.254 -3.28074 1.63595 0
M  V30 4119 H 377.902 -5.02862 -0.117845 0
M  V30 4120 H 377.602 -5.67765 1.51384 0
M  V30 4121 H 379.126 -6.06938 0.667693 0
M  V30 4122 H 380.54 -5.05688 2.70098 0
M  V30 4123 H 378.937 -4.89254 3.47491 0
M  V30 4124 H 380.007 -3.4826 3.37406 0
M  V30 4125 N 381.35 -0.985608 -1.22978 0
M  V30 4126 C 382.575 -0.675254 -1.961 0
M  V30 4127 C 383 0.752154 -1.72407 0
M  V30 4128 O 382.358 1.5131 -0.998751 0
M  V30 4129 C 382.406 -0.977899 -3.47087 0
M  V30 4130 O 381.51 -0.072685 -4.12336 0
M  V30 4131 H 380.851 -0.253443 -0.613728 0
M  V30 4132 H 383.381 -1.32061 -1.56272 0
M  V30 4133 H 383.391 -0.916739 -3.97567 0
M  V30 4134 H 382.066 -2.01807 -3.63657 0
M  V30 4135 H 380.643 -0.188703 -3.72422 0
M  V30 4136 N 382.828 1.3818 -0.7579 0
M  V30 4137 C 383.76 2.2901 -0.0932177 0
M  V30 4138 C 384.773 1.47958 0.679136 0
M  V30 4139 O 385.962 1.70773 0.519514 0
M  V30 4140 C 383.062 3.26953 0.89192 0
M  V30 4141 C 382.235 4.37045 0.176303 0
M  V30 4142 C 381.294 5.15148 1.07281 0
M  V30 4143 O 380.32 5.66616 0.541728 0
M  V30 4144 N 381.522 5.28542 2.40049 0
M  V30 4145 H 384.287 2.86694 -0.873303 0
M  V30 4146 H 381.848 1.50007 -0.609054 0
M  V30 4147 H 383.84 3.76083 1.49479 0
M  V30 4148 H 382.41 2.70136 1.57306 0
M  V30 4149 H 381.63 3.89493 -0.607328 0
M  V30 4150 H 382.918 5.07801 -0.318718 0
M  V30 4151 H 382.316 4.88285 2.85647 0
M  V30 4152 H 380.873 5.8103 2.95376 0
M  V30 4153 N 384.306 0.507319 1.49211 0
M  V30 4154 C 385.555 -0.0368315 2.01666 0
M  V30 4155 C 385.868 -1.37459 1.39156 0
M  V30 4156 O 387.074 -2.00579 1.82976 0
M  V30 4157 C 385.53 -0.116089 3.59713 0
M  V30 4158 C 385.138 1.2154 4.31198 0
M  V30 4159 C 386.882 -0.610268 4.2009 0
M  V30 4160 C 384.789 1.09796 5.81119 0
M  V30 4161 H 383.719 -0.0175376 0.753796 0
M  V30 4162 H 386.37 0.647691 1.71689 0
M  V30 4163 H 384.752 -0.8652 3.86433 0
M  V30 4164 H 385.926 1.9783 4.16173 0
M  V30 4165 H 384.241 1.64352 3.82593 0
M  V30 4166 H 386.838 -0.715742 5.29888 0
M  V30 4167 H 387.181 -1.61064 3.8388 0
M  V30 4168 H 387.714 0.0824916 3.97714 0
M  V30 4169 H 384.453 2.0728 6.21864 0
M  V30 4170 H 383.973 0.376058 5.9862 0
M  V30 4171 H 385.652 0.779281 6.4229 0
M  V30 4172 N 385.784 -1.5574 0.241426 0
M  V30 4173 C 387.2 -1.59196 -0.113548 0
M  V30 4174 C 387.4 -1.25852 -1.57364 0
M  V30 4175 O 386.456 -1.00322 -2.31715 0
M  V30 4176 C 387.769 -2.99814 0.230695 0
M  V30 4177 C 389.317 -3.12513 0.174547 0
M  V30 4178 C 389.792 -4.55342 0.492744 0
M  V30 4179 N 391.283 -4.61076 0.443043 0
M  V30 4180 C 392.018 -5.6956 0.662484 0
M  V30 4181 N 391.514 -6.86328 0.944761 0
M  V30 4182 N 393.307 -5.58957 0.593564 0
M  V30 4183 H 385.458 -1.75685 1.19368 0
M  V30 4184 H 387.721 -0.81756 0.479896 0
M  V30 4185 H 387.427 -3.28932 1.24485 0
M  V30 4186 H 387.301 -3.74568 -0.444833 0
M  V30 4187 H 389.688 -2.83179 -0.830277 0
M  V30 4188 H 389.769 -2.40045 0.883845 0
M  V30 4189 H 389.413 -4.85396 1.4951 0
M  V30 4190 H 389.343 -5.26062 -0.23797 0
M  V30 4191 H 391.834 -3.77179 0.233374 0
M  V30 4192 H 392.147 -7.64935 1.09977 0
M  V30 4193 H 390.492 -6.88025 0.982175 0
M  V30 4194 H 393.683 -4.66611 0.373123 0
M  V30 4195 H 393.856 -6.43433 0.767981 0
M  V30 4196 N 387.262 0.0317525 -1.57568 0
M  V30 4197 C 388.209 1.0332 -2.06382 0
M  V30 4198 C 389.179 1.36082 -0.952414 0
M  V30 4199 O 390.364 1.46466 -1.2228 0
M  V30 4200 C 387.504 2.32989 -2.54578 0
M  V30 4201 C 386.617 2.0641 -3.79498 0
M  V30 4202 C 385.752 3.2993 -4.16317 0
M  V30 4203 C 384.791 2.98893 -5.34162 0
M  V30 4204 N 383.928 4.14857 -5.66426 0
M  V30 4205 H 388.768 0.609982 -2.9169 0
M  V30 4206 H 386.305 0.289573 -1.44222 0
M  V30 4207 H 388.263 3.0875 -2.80587 0
M  V30 4208 H 386.893 2.73039 -1.7219 0
M  V30 4209 H 385.945 1.21158 -3.6059 0
M  V30 4210 H 387.257 1.79513 -4.65378 0
M  V30 4211 H 386.411 4.1406 -4.4344 0
M  V30 4212 H 385.15 3.59938 -3.29083 0
M  V30 4213 H 384.155 2.13164 -5.06795 0
M  V30 4214 H 385.38 2.70165 -6.23047 0
M  V30 4215 H 383.326 4.44821 -4.82151 0
M  V30 4216 H 383.243 3.91374 -6.4681 0
M  V30 4217 H 384.511 4.99868 -5.98124 0
M  V30 4218 N 388.74 1.54641 0.303973 0
M  V30 4219 C 389.672 1.81754 1.39636 0
M  V30 4220 C 390.685 0.70035 1.46966 0
M  V30 4221 O 391.874 0.97778 1.49338 0
M  V30 4222 C 388.974 1.93785 2.7803 0
M  V30 4223 C 388.147 3.24156 2.93669 0
M  V30 4224 C 387.206 3.26641 4.12544 0
M  V30 4225 O 386.232 4.00187 4.04771 0
M  V30 4226 N 387.434 2.5182 5.23036 0
M  V30 4227 H 390.199 2.76031 1.16734 0
M  V30 4228 H 387.76 1.54178 0.494033 0
M  V30 4229 H 389.752 1.92852 3.55795 0
M  V30 4230 H 388.322 1.06515 2.93893 0
M  V30 4231 H 387.542 3.37887 2.03042 0
M  V30 4232 H 388.83 4.10195 3.01027 0
M  V30 4233 H 388.228 1.91692 5.32232 0
M  V30 4234 H 386.785 2.56644 5.99147 0
M  V30 4235 N 390.218 -0.567019 1.47046 0
M  V30 4236 C 391.148 -1.68482 1.61667 0
M  V30 4237 C 392.129 -1.6358 0.466418 0
M  V30 4238 O 393.314 -1.81354 0.694574 0
M  V30 4239 C 390.444 -3.07124 1.62148 0
M  V30 4240 C 389.398 -3.26867 2.76301 0
M  V30 4241 C 388.724 -4.66196 2.61849 0
M  V30 4242 C 390.024 -3.13186 4.17986 0
M  V30 4243 H 391.718 -1.56502 2.5524 0
M  V30 4244 H 389.264 -0.751486 1.22836 0
M  V30 4245 H 391.217 -3.8516 1.70968 0
M  V30 4246 H 389.941 -3.2004 0.651287 0
M  V30 4247 H 388.6 -2.51237 2.66975 0
M  V30 4248 H 388.248 -4.75898 1.62879 0
M  V30 4249 H 387.948 -4.80356 3.38425 0
M  V30 4250 H 389.472 -5.46379 2.72584 0
M  V30 4251 H 390.886 -3.81049 4.2834 0
M  V30 4252 H 389.283 -3.3886 4.95272 0
M  V30 4253 H 390.353 -2.10057 4.3704 0
M  V30 4254 N 391.696 -1.35014 -0.812953 0
M  V30 4255 C 392.644 -1.27435 -1.94585 0
M  V30 4256 C 393.638 -0.170494 -1.6854 0
M  V30 4257 O 394.844 -0.336085 -1.76835 0
M  V30 4258 H 391.219 -0.396144 -0.639198 0
M  V30 4259 H 393.19 -2.23158 -1.98098 0
M  V30 4260 C 391.939 -1.05677 -3.31252 0
M  V30 4261 H 391.262 -1.89853 -3.51846 0
M  V30 4262 H 392.702 -1.04413 -4.10943 0
M  V30 4263 C 391.161 0.239615 -3.36047 0
M  V30 4264 O 391.691 1.23759 -3.8216 0
M  V30 4265 N 389.897 0.276186 -2.89285 0
M  V30 4266 H 389.444 -0.53653 -2.51951 0
M  V30 4267 H 389.402 1.14332 -2.92875 0
M  V30 4268 N 393.175 1.03435 -1.18907 0
M  V30 4269 C 394.107 2.1165 -0.879595 0
M  V30 4270 C 395.12 1.62316 0.125439 0
M  V30 4271 O 396.309 1.78201 -0.103245 0
M  V30 4272 C 393.409 3.37622 -0.294042 0
M  V30 4273 C 392.582 4.16166 -1.34629 0
M  V30 4274 C 391.641 5.20457 -0.775274 0
M  V30 4275 O 390.667 5.50379 -1.4516 0
M  V30 4276 N 391.869 5.78949 0.424126 0
M  V30 4277 H 394.634 2.38791 -1.81105 0
M  V30 4278 H 392.195 1.19681 -1.09032 0
M  V30 4279 H 394.187 4.04572 0.101679 0
M  V30 4280 H 392.757 3.07873 0.541575 0
M  V30 4281 H 391.977 3.44444 -1.91707 0
M  V30 4282 H 393.265 4.65432 -2.05549 0
M  V30 4283 H 392.663 5.56948 0.991209 0
M  V30 4284 H 391.22 6.47334 0.761691 0
M  V30 4285 N 394.653 0.992116 1.22453 0
M  V30 4286 C 395.901 0.666215 1.90804 0
M  V30 4287 C 396.222 -0.804152 1.77647 0
M  V30 4288 O 395.492 -1.57629 1.16318 0
M  V30 4289 H 394.072 0.243423 0.706225 0
M  V30 4290 H 396.734 1.25845 1.48825 0
M  V30 4291 H 395.83 0.928069 2.97982 0
M  V30 4292 N 396.131 -1.37776 0.765217 0
M  V30 4293 C 397.041 -2.34135 0.147666 0
M  V30 4294 C 398.057 -1.59854 -0.687215 0
M  V30 4295 O 399.233 -1.91983 -0.608659 0
M  V30 4296 C 396.298 -3.3901 -0.72617 0
M  V30 4297 C 395.359 -4.2912 0.124417 0
M  V30 4298 C 394.592 -5.28986 -0.707807 0
M  V30 4299 O 394.815 -5.36205 -1.94525 0
M  V30 4300 O 393.749 -6.01779 -0.12046 0
M  V30 4301 H 397.575 -2.88664 0.943758 0
M  V30 4302 H 395.16 -1.39824 0.526277 0
M  V30 4303 H 397.042 -4.03195 -1.22524 0
M  V30 4304 H 395.717 -2.86819 -1.50056 0
M  V30 4305 H 394.624 -3.68057 0.669696 0
M  V30 4306 H 395.957 -4.84598 0.861736 0
M  V30 4307 N 397.609 -0.515225 -1.4894 0
M  V30 4308 C 398.857 0.0241671 -2.02086 0
M  V30 4309 C 399.178 1.3616 -1.3959 0
M  V30 4310 O 398.448 1.87841 -0.556121 0
M  V30 4311 H 397.028 0.0119203 -0.746905 0
M  V30 4312 H 399.69 -0.675702 -1.82812 0
M  V30 4313 H 398.786 0.143385 -3.1177 0
M  V30 4314 N 399.087 1.5561 -0.249682 0
M  V30 4315 C 400.315 2.03411 0.378352 0
M  V30 4316 C 400.73 1.12886 1.51335 0
M  V30 4317 O 400.087 0.143833 1.81932 0
M  V30 4318 C 400.138 3.50537 0.88351 0
M  V30 4319 O 399.859 4.37614 -0.20626 0
M  V30 4320 C 401.36 4.14113 1.58195 0
M  V30 4321 H 398.58 0.664994 0.08958 0
M  V30 4322 H 401.124 2.01044 -0.374357 0
M  V30 4323 H 399.279 3.5343 1.58639 0
M  V30 4324 H 399.693 5.24199 0.177782 0
M  V30 4325 H 401.167 5.18741 1.8871 0
M  V30 4326 H 401.644 3.60767 2.50487 0
M  V30 4327 H 402.25 4.15151 0.923573 0
M  V30 4328 N 400.565 -0.0233959 1.57583 0
M  V30 4329 C 401.814 -0.712133 1.8871 0
M  V30 4330 C 402.127 -1.76217 0.848944 0
M  V30 4331 O 403.333 -2.50389 1.04964 0
M  V30 4332 C 401.789 -1.3177 3.3491 0
M  V30 4333 C 401.397 -0.303715 4.46969 0
M  V30 4334 C 403.141 -1.98598 3.75179 0
M  V30 4335 C 401.048 -0.917945 5.84233 0
M  V30 4336 H 399.978 -0.269735 0.704101 0
M  V30 4337 H 402.629 0.0333114 1.8347 0
M  V30 4338 H 401.011 -2.11304 3.34913 0
M  V30 4339 H 402.185 0.465325 4.58445 0
M  V30 4340 H 400.5 0.2628 4.1557 0
M  V30 4341 H 403.097 -2.45416 4.75053 0
M  V30 4342 H 403.44 -2.80659 3.07468 0
M  V30 4343 H 403.973 -1.25831 3.77374 0
M  V30 4344 H 400.712 -0.136633 6.55358 0
M  V30 4345 H 400.232 -1.65669 5.76467 0
M  V30 4346 H 401.911 -1.4236 6.31144 0
M  V30 4347 N 402.043 -1.548 -0.295768 0
M  V30 4348 C 403.459 -1.4613 -0.641722 0
M  V30 4349 C 403.659 -0.656771 -1.90496 0
M  V30 4350 O 402.715 -0.166547 -2.5195 0
M  V30 4351 C 404.028 -2.90141 -0.789852 0
M  V30 4352 C 405.576 -3.00216 -0.885396 0
M  V30 4353 C 406.051 -4.45434 -1.06548 0
M  V30 4354 N 407.542 -4.49166 -1.13156 0
M  V30 4355 C 408.277 -5.58717 -1.28929 0
M  V30 4356 N 407.773 -6.78182 -1.41567 0
M  V30 4357 N 409.566 -5.46415 -1.31859 0
M  V30 4358 H 401.717 -2.05574 0.534147 0
M  V30 4359 H 403.98 -0.931259 0.177372 0
M  V30 4360 H 403.686 -3.51635 0.0675598 0
M  V30 4361 H 403.56 -3.37859 -1.67724 0
M  V30 4362 H 405.947 -2.38833 -1.73329 0
M  V30 4363 H 406.028 -2.55787 0.0261185 0
M  V30 4364 H 405.672 -5.07413 -0.222335 0
M  V30 4365 H 405.602 -4.87499 -1.9913 0
M  V30 4366 H 408.093 -3.631 -1.04721 0
M  V30 4367 H 408.406 -7.57428 -1.53372 0
M  V30 4368 H 406.751 -6.81037 -1.38613 0
M  V30 4369 H 409.942 -4.5203 -1.21601 0
M  V30 4370 H 410.115 -6.31841 -1.43808 0
M  V30 4371 N 403.521 0.559213 -1.47345 0
M  V30 4372 C 404.746 1.34676 -1.57725 0
M  V30 4373 C 405.171 1.86723 -0.227164 0
M  V30 4374 O 404.529 1.6286 0.796642 0
M  V30 4375 C 404.577 2.49399 -2.60447 0
M  V30 4376 O 403.681 3.51567 -2.15578 0
M  V30 4377 H 403.022 0.400115 -0.52991 0
M  V30 4378 H 405.552 0.676009 -1.93109 0
M  V30 4379 H 405.562 2.95996 -2.80803 0
M  V30 4380 H 404.237 2.10873 -3.58477 0
M  V30 4381 H 402.814 3.11289 -2.05313 0
M  V30 4382 N 404.999 1.35443 0.805782 0
M  V30 4383 C 406.415 1.15499 1.10146 0
M  V30 4384 C 406.615 -0.0319975 2.01475 0
M  V30 4385 O 405.671 -0.70236 2.42535 0
M  V30 4386 C 406.984 2.45833 1.73166 0
M  V30 4387 C 408.532 2.52047 1.85583 0
M  V30 4388 C 409.007 3.82427 2.52019 0
M  V30 4389 N 410.498 3.83682 2.59504 0
M  V30 4390 C 411.233 4.81294 3.11679 0
M  V30 4391 N 410.729 5.89294 3.64287 0
M  V30 4392 N 412.522 4.6873 3.1024 0
M  V30 4393 H 404.673 2.11469 0.198678 0
M  V30 4394 H 406.936 0.93594 0.150731 0
M  V30 4395 H 406.642 3.32874 1.13526 0
M  V30 4396 H 406.516 2.6044 2.72857 0
M  V30 4397 H 408.903 1.65435 2.44367 0
M  V30 4398 H 408.984 2.41354 0.847455 0
M  V30 4399 H 408.628 4.69437 1.93885 0
M  V30 4400 H 408.558 3.90409 3.53395 0
M  V30 4401 H 411.049 3.05648 2.22234 0
M  V30 4402 H 411.362 6.59768 4.02401 0
M  V30 4403 H 409.707 5.92985 3.62483 0
M  V30 4404 H 412.898 3.83496 2.68419 0
M  V30 4405 H 413.071 5.44965 3.50596 0
M  V30 4406 N 406.477 -1.02803 1.19454 0
M  V30 4407 C 407.702 -1.80378 1.02364 0
M  V30 4408 C 408.127 -1.83282 -0.423007 0
M  V30 4409 O 407.485 -1.25945 -1.30413 0
M  V30 4410 C 407.533 -3.23248 1.59821 0
M  V30 4411 O 406.637 -4.04 0.828105 0
M  V30 4412 H 405.978 -0.556799 0.361761 0
M  V30 4413 H 408.508 -1.29385 1.58495 0
M  V30 4414 H 408.518 -3.73994 1.63073 0
M  V30 4415 H 407.193 -3.2045 2.65113 0
M  V30 4416 H 405.77 -3.62635 0.86891 0
M  V30 4417 N 407.956 -0.998596 -1.21925 0
M  V30 4418 C 409.203 -0.677663 -1.90824 0
M  V30 4419 C 409.531 0.790905 -1.77693 0
M  V30 4420 O 408.786 1.58817 -1.14349 0
M  V30 4421 C 409.085 -1.03648 -3.42041 0
M  V30 4422 C 408.751 -2.49825 -3.75364 0
M  V30 4423 C 407.413 -2.8977 -3.8417 0
M  V30 4424 C 409.765 -3.44545 -3.91073 0
M  V30 4425 C 407.093 -4.23412 -4.06127 0
M  V30 4426 C 409.445 -4.77853 -4.14535 0
M  V30 4427 C 408.109 -5.17531 -4.21566 0
M  V30 4428 H 407.379 -0.247975 -0.698276 0
M  V30 4429 H 410.026 -1.25584 -1.44571 0
M  V30 4430 H 408.331 -0.376457 -3.89987 0
M  V30 4431 H 410.028 -0.766113 -3.93614 0
M  V30 4432 H 406.618 -2.17866 -3.69097 0
M  V30 4433 H 410.802 -3.14853 -3.83642 0
M  V30 4434 H 406.058 -4.53734 -4.09799 0
M  V30 4435 H 410.232 -5.51189 -4.25633 0
M  V30 4436 H 407.859 -6.21102 -4.38333 0
M  V30 4437 N 409.434 1.37368 -0.772513 0
M  V30 4438 C 410.683 1.98918 -0.333861 0
M  V30 4439 C 410.996 1.62017 1.09589 0
M  V30 4440 O 412.202 2.16676 1.63596 0
M  V30 4441 C 410.658 3.55735 -0.545971 0
M  V30 4442 C 410.266 4.01573 -1.98603 0
M  V30 4443 C 412.01 4.24156 -0.170979 0
M  V30 4444 C 409.917 5.51102 -2.1457 0
M  V30 4445 H 408.847 0.744214 -0.121085 0
M  V30 4446 H 411.498 1.56888 -0.95175 0
M  V30 4447 H 409.88 3.95748 0.141387 0
M  V30 4448 H 411.054 3.72803 -2.7084 0
M  V30 4449 H 409.369 3.45937 -2.31769 0
M  V30 4450 H 411.966 5.34024 -0.26878 0
M  V30 4451 H 412.309 4.06917 0.878855 0
M  V30 4452 H 412.842 3.89447 -0.810914 0
M  V30 4453 H 409.581 5.73268 -3.17875 0
M  V30 4454 H 409.101 5.81554 -1.46817 0
M  V30 4455 H 410.78 6.17083 -1.94468 0
M  V30 4456 N 410.912 0.523116 1.48665 0
M  V30 4457 C 412.159 -0.0134763 2.02496 0
M  V30 4458 C 412.487 -1.3493 1.40086 0
M  V30 4459 O 411.742 -1.88286 0.533567 0
M  V30 4460 C 412.041 -0.191671 3.56886 0
M  V30 4461 C 411.707 1.06893 4.38046 0
M  V30 4462 C 410.369 1.41443 4.59943 0
M  V30 4463 C 412.721 1.90584 4.85106 0
M  V30 4464 C 410.049 2.59594 5.26144 0
M  V30 4465 C 412.401 3.07907 5.52609 0
M  V30 4466 C 411.065 3.42811 5.72745 0
M  V30 4467 H 410.335 -0.00493133 0.740984 0
M  V30 4468 H 412.982 0.687751 1.78724 0
M  V30 4469 H 411.287 -0.97561 3.79459 0
M  V30 4470 H 412.984 -0.621659 3.96152 0
M  V30 4471 H 409.574 0.789848 4.21259 0
M  V30 4472 H 413.758 1.65203 4.67997 0
M  V30 4473 H 409.014 2.86847 5.39934 0
M  V30 4474 H 413.188 3.73066 5.88043 0
M  V30 4475 H 410.815 4.34462 6.23816 0
M  V30 4476 N 412.39 -1.55475 0.257931 0
M  V30 4477 C 413.337 -2.21837 -0.636939 0
M  V30 4478 C 414.307 -1.18596 -1.16294 0
M  V30 4479 O 415.492 -1.47081 -1.21539 0
M  V30 4480 C 412.632 -2.9301 -1.82317 0
M  V30 4481 C 411.745 -4.10931 -1.33265 0
M  V30 4482 C 410.88 -4.69791 -2.47931 0
M  V30 4483 C 409.919 -5.7994 -1.95796 0
M  V30 4484 N 409.056 -6.32935 -3.0387 0
M  V30 4485 H 413.896 -2.9793 -0.0643591 0
M  V30 4486 H 411.433 -1.47086 -0.0200031 0
M  V30 4487 H 413.391 -3.3248 -2.52018 0
M  V30 4488 H 412.021 -2.1937 -2.36805 0
M  V30 4489 H 411.073 -3.76699 -0.52931 0
M  V30 4490 H 412.385 -4.90417 -0.910654 0
M  V30 4491 H 411.539 -5.11892 -3.25656 0
M  V30 4492 H 410.278 -3.89545 -2.93438 0
M  V30 4493 H 409.283 -5.37305 -1.16546 0
M  V30 4494 H 410.508 -6.62043 -1.51246 0
M  V30 4495 H 408.454 -5.55591 -3.48791 0
M  V30 4496 H 408.371 -7.07645 -2.66035 0
M  V30 4497 H 409.639 -6.79695 -3.81621 0
M  V30 4498 O 413.907 -0.12294 -1.61031 0
M  V30 4499 H 414.598 0.475096 -1.87783 0
M  V30 END ATOM
M  V30 BEGIN BOND
M  V30 END BOND
M  V30 END CTAB
M  END
$$$$
