drugbank_target|Q9UN76 Sodium- and chloride-dependent neutral and basic amino acid transporter B(0+) (DB00172)
 OpenBabel12092119313D

  0  0  0     0  0            999 V3000
M  V30 BEGIN CTAB
M  V30 COUNTS 10224 10374 0 0 0
M  V30 BEGIN ATOM
M  V30 1 H -0.908 1.98254 -0.117106 0
M  V30 2 N 0 1.576 0 0
M  V30 3 C 0.933 2.03868 1.02534 0
M  V30 4 C 1.911 0.928543 1.3348 0
M  V30 5 O 3.095 1.19667 1.45644 0
M  V30 6 C 0.222 2.43627 2.35294 0
M  V30 7 C -0.732 3.65373 2.2001 0
M  V30 8 S 0.101 5.13292 1.52614 0
M  V30 9 C 1.257 5.56322 2.86805 0
M  V30 10 H 1.49 2.90518 0.631377 0
M  V30 11 H -0.977 1.52953 0.210867 0
M  V30 12 H 0.981 2.67203 3.11629 0
M  V30 13 H -0.358 1.57376 2.7183 0
M  V30 14 H -1.165 3.90944 3.18086 0
M  V30 15 H -1.563 3.418 1.51819 0
M  V30 16 H 0.729 5.58782 3.83104 0
M  V30 17 H 1.672 6.56266 2.65933 0
M  V30 18 H 2.08 4.83886 2.90714 0
M  V30 19 N 1.4781 -0.272755 1.55222 0
M  V30 20 C 2.7551 -1.02562 1.66555 0
M  V30 21 C 3.1351 -2.04282 0.532189 0
M  V30 22 O 2.4831 -2.23662 -0.467717 0
M  V30 23 C 2.6931 -1.6822 3.05782 0
M  V30 24 C 4.0411 -2.19373 3.63539 0
M  V30 25 O 5.0651 -1.78206 3.08417 0
M  V30 26 O 3.9241 -2.94883 4.60115 0
M  V30 27 H 1.0181 -0.475755 0.676451 0
M  V30 28 H 3.5641 -0.268593 1.67561 0
M  V30 29 H 2.3361 -0.945112 3.79715 0
M  V30 30 H 1.9591 -2.50609 3.08676 0
M  V30 31 N 2.9562 -1.48159 -0.537278 0
M  V30 32 C 3.9032 -1.62138 -1.64256 0
M  V30 33 C 4.8732 -0.463668 -1.59497 0
M  V30 34 O 6.0582 -0.686241 -1.78032 0
M  V30 35 C 3.1982 -1.66028 -3.02537 0
M  V30 36 C 2.3112 -2.92855 -3.17585 0
M  V30 37 C 1.4462 -2.87952 -4.46382 0
M  V30 38 C 0.4852 -4.09516 -4.54932 0
M  V30 39 N -0.3778 -4.02733 -5.75109 0
M  V30 40 H 4.4622 -2.56529 -1.51647 0
M  V30 41 H 1.9992 -1.27224 -0.738414 0
M  V30 42 H 3.9572 -1.66265 -3.82638 0
M  V30 43 H 2.5872 -0.751331 -3.13934 0
M  V30 44 H 1.6392 -3.02395 -2.30784 0
M  V30 45 H 2.9512 -3.82822 -3.19764 0
M  V30 46 H 2.1052 -2.8655 -5.34765 0
M  V30 47 H 0.8442 -1.95702 -4.46712 0
M  V30 48 H -0.1508 -4.11201 -3.64957 0
M  V30 49 H 1.0742 -5.02917 -4.56346 0
M  V30 50 H -0.9798 -3.13299 -5.76351 0
M  V30 51 H -1.0628 -4.86397 -5.78752 0
M  V30 52 H 0.2052 -4.05379 -6.65799 0
M  V30 53 N 4.4343 0.785586 -1.36625 0
M  V30 54 C 5.3643 1.91259 -1.33949 0
M  V30 55 C 6.3453 1.68795 -0.210325 0
M  V30 56 O 7.5303 1.89854 -0.408561 0
M  V30 57 C 4.6603 3.28339 -1.13186 0
M  V30 58 C 3.6143 3.65335 -2.22967 0
M  V30 59 C 2.9403 5.00806 -1.87342 0
M  V30 60 C 4.2403 3.7352 -3.65075 0
M  V30 61 H 5.9343 1.93755 -2.28253 0
M  V30 62 H 3.4803 0.930788 -1.09874 0
M  V30 63 H 5.4333 4.06804 -1.09948 0
M  V30 64 H 4.1573 3.2624 -0.153332 0
M  V30 65 H 2.8163 2.89169 -2.25337 0
M  V30 66 H 2.4643 4.95233 -0.880545 0
M  V30 67 H 2.1643 5.26529 -2.60846 0
M  V30 68 H 3.6883 5.81687 -1.85667 0
M  V30 69 H 5.1023 4.42168 -3.64911 0
M  V30 70 H 3.4993 4.10731 -4.37516 0
M  V30 71 H 4.5693 2.74527 -3.99703 0
M  V30 72 N 5.9124 1.20967 1.01018 0
M  V30 73 C 6.8594 0.964281 2.09691 0
M  V30 74 C 7.8294 -0.107853 1.65749 0
M  V30 75 O 9.0144 0.0381987 1.90762 0
M  V30 76 C 6.1544 0.52943 3.41015 0
M  V30 77 C 5.2674 1.67043 3.98398 0
M  V30 78 C 4.4024 1.18525 5.17808 0
M  V30 79 C 3.4414 2.29892 5.67288 0
M  V30 80 N 2.5784 1.82546 6.77954 0
M  V30 81 H 7.4184 1.89463 2.30017 0
M  V30 82 H 4.9554 0.944289 1.1279 0
M  V30 83 H 6.9134 0.258588 4.16398 0
M  V30 84 H 5.5434 -0.363919 3.20742 0
M  V30 85 H 4.5954 2.05603 3.20049 0
M  V30 86 H 5.9074 2.50877 4.31117 0
M  V30 87 H 5.0614 0.870762 6.00419 0
M  V30 88 H 3.8004 0.316887 4.86669 0
M  V30 89 H 2.8054 2.6215 4.83278 0
M  V30 90 H 4.0304 3.17216 6.00459 0
M  V30 91 H 1.9764 0.980454 6.48632 0
M  V30 92 H 1.8934 2.59956 7.09901 0
M  V30 93 H 3.1614 1.54115 7.64113 0
M  V30 94 N 7.3905 -1.2043 1.01659 0
M  V30 95 C 8.6305 -1.91507 0.714456 0
M  V30 96 C 8.9945 -1.77073 -0.742237 0
M  V30 97 O 10.1955 -2.42631 -1.15688 0
M  V30 98 C 8.4665 -3.38795 1.13809 0
M  V30 99 S 10.0255 -4.28216 0.957925 0
M  V30 100 H 6.8435 -0.661571 0.260471 0
M  V30 101 H 9.4455 -1.45671 1.30384 0
M  V30 102 H 8.1495 -3.46822 2.19415 0
M  V30 103 H 7.6805 -3.89656 0.541474 0
M  V30 104 H 9.6955 -4.96007 -0.138531 0
M  V30 105 N 8.8686 -0.792821 -1.36206 0
M  V30 106 C 10.2796 -0.429513 -1.81692 0
M  V30 107 C 10.6306 1.04695 -1.65932 0
M  V30 108 O 9.7556 1.81256 -1.18218 0
M  V30 109 C 10.3506 -0.772831 -3.29868 0
M  V30 110 C 8.9096 -0.462307 -3.7355 0
M  V30 111 C 8.0566 -1.00569 -2.5842 0
M  V30 112 H 11.0076 -0.985672 -1.24379 0
M  V30 113 H 11.0286 -0.0651928 -3.80444 0
M  V30 114 H 10.5406 -1.84747 -3.41307 0
M  V30 115 H 8.6416 0.604158 -3.67669 0
M  V30 116 H 8.7546 -0.985299 -4.68859 0
M  V30 117 H 7.1186 -0.428734 -2.51066 0
M  V30 118 H 7.9016 -2.08616 -2.72643 0
M  V30 119 N 10.3467 1.47872 -0.545128 0
M  V30 120 C 11.5717 2.07391 -0.0190611 0
M  V30 121 C 11.9967 1.39688 1.25971 0
M  V30 122 O 11.3547 0.467816 1.7516 0
M  V30 123 C 11.4027 3.60188 0.172335 0
M  V30 124 O 10.5067 3.9339 1.23766 0
M  V30 125 H 9.8477 0.662411 -0.0459059 0
M  V30 126 H 12.3777 1.90066 -0.757365 0
M  V30 127 H 12.3877 4.06129 0.390305 0
M  V30 128 H 11.0627 4.08865 -0.761725 0
M  V30 129 H 9.6397 3.5921 1.00114 0
M  V30 130 N 11.8248 0.280983 1.55075 0
M  V30 131 C 13.0718 -0.334115 1.99725 0
M  V30 132 C 13.3998 -1.5542 1.1694 0
M  V30 133 O 12.6548 -1.94361 0.228531 0
M  V30 134 C 12.9538 -0.754656 3.49342 0
M  V30 135 C 12.6198 0.361445 4.49449 0
M  V30 136 C 11.2818 0.667893 4.76542 0
M  V30 137 C 13.6338 1.11322 5.09173 0
M  V30 138 C 10.9618 1.7296 5.60626 0
M  V30 139 C 13.3138 2.1647 5.9441 0
M  V30 140 C 11.9778 2.47742 6.19822 0
M  V30 141 H 11.2478 -0.122261 0.730844 0
M  V30 142 H 13.8948 0.395917 1.87363 0
M  V30 143 H 12.1998 -1.56446 3.5921 0
M  V30 144 H 13.8968 -1.24142 3.813 0
M  V30 145 H 10.4868 0.112481 4.28452 0
M  V30 146 H 14.6708 0.88973 4.8826 0
M  V30 147 H 9.9268 1.97684 5.78559 0
M  V30 148 H 14.1008 2.75193 6.3972 0
M  V30 149 H 11.7278 3.30145 6.84769 0
M  V30 150 N 13.3029 -1.57598 0.00835791 0
M  V30 151 C 14.5499 -1.90928 -0.674732 0
M  V30 152 C 14.8779 -0.88277 -1.73313 0
M  V30 153 O 14.1329 0.111294 -1.95383 0
M  V30 154 C 14.4319 -3.3101 -1.34787 0
M  V30 155 C 14.0979 -4.48922 -0.421861 0
M  V30 156 C 12.7599 -4.8091 -0.166927 0
M  V30 157 C 15.1119 -5.20755 0.215211 0
M  V30 158 C 12.4399 -5.821 0.733232 0
M  V30 159 C 14.7919 -6.22905 1.1033 0
M  V30 160 C 13.4559 -6.53346 1.36733 0
M  V30 161 H 12.7259 -0.698656 -0.246902 0
M  V30 162 H 15.3729 -1.91387 0.0656779 0
M  V30 163 H 13.6779 -3.26714 -2.16253 0
M  V30 164 H 15.3749 -3.54061 -1.8826 0
M  V30 165 H 11.9649 -4.23934 -0.630729 0
M  V30 166 H 16.1489 -4.9629 0.0312829 0
M  V30 167 H 11.4049 -6.04042 0.945712 0
M  V30 168 H 15.5789 -6.77694 1.60325 0
M  V30 169 H 13.2059 -7.31573 2.06652 0
M  V30 170 N 14.781 0.264519 -1.55364 0
M  V30 171 C 15.728 1.32717 -1.88825 0
M  V30 172 C 16.698 1.48675 -0.740605 0
M  V30 173 O 17.883 1.62945 -0.992657 0
M  V30 174 C 15.023 2.68089 -2.17307 0
M  V30 175 C 14.136 2.60284 -3.44785 0
M  V30 176 C 13.271 3.87892 -3.62924 0
M  V30 177 C 12.31 3.74631 -4.84064 0
M  V30 178 N 11.447 4.94092 -4.98816 0
M  V30 179 H 16.287 1.03481 -2.79456 0
M  V30 180 H 13.824 0.499757 -1.3835 0
M  V30 181 H 15.782 3.46864 -2.31821 0
M  V30 182 H 14.412 2.95509 -1.299 0
M  V30 183 H 13.464 1.73173 -3.38697 0
M  V30 184 H 14.776 2.46388 -4.33698 0
M  V30 185 H 13.93 4.75109 -3.77302 0
M  V30 186 H 12.669 4.04664 -2.7221 0
M  V30 187 H 11.674 2.85797 -4.69681 0
M  V30 188 H 12.899 3.5937 -5.76221 0
M  V30 189 H 10.845 5.11259 -4.11036 0
M  V30 190 H 10.762 4.8276 -5.81789 0
M  V30 191 H 12.03 5.82857 -5.17588 0
M  V30 192 N 16.2591 1.48442 0.529413 0
M  V30 193 C 17.4991 1.58086 1.29569 0
M  V30 194 C 17.8631 0.249302 1.90375 0
M  V30 195 O 19.0641 0.220738 2.67892 0
M  V30 196 C 17.3351 2.68793 2.35552 0
M  V30 197 S 18.8941 2.98207 3.21898 0
M  V30 198 H 15.7121 0.557922 0.440732 0
M  V30 199 H 18.3141 1.85966 0.603059 0
M  V30 200 H 17.0181 3.64102 1.89363 0
M  V30 201 H 16.5491 2.42817 3.09522 0
M  V30 202 H 18.5641 2.37548 4.35644 0
M  V30 203 N 17.7372 -0.778329 1.37039 0
M  V30 204 C 19.1532 -1.07796 1.17695 0
M  V30 205 C 19.3532 -2.01498 0.00860115 0
M  V30 206 O 18.4092 -2.43901 -0.653352 0
M  V30 207 C 19.7222 -1.68178 2.49272 0
M  V30 208 C 21.2702 -1.80467 2.55735 0
M  V30 209 C 21.7452 -2.44263 3.87427 0
M  V30 210 N 23.2362 -2.51721 3.88833 0
M  V30 211 C 23.9712 -3.01919 4.87476 0
M  V30 212 N 23.4672 -3.5234 5.96513 0
M  V30 213 N 25.2602 -3.00733 4.74885 0
M  V30 214 H 17.4112 -0.156032 2.11826 0
M  V30 215 H 19.6742 -0.131844 0.938787 0
M  V30 216 H 19.3802 -1.06796 3.35093 0
M  V30 217 H 19.2542 -2.67554 2.65885 0
M  V30 218 H 21.6412 -2.40984 1.70325 0
M  V30 219 H 21.7222 -0.798656 2.43013 0
M  V30 220 H 21.3662 -1.84388 4.73248 0
M  V30 221 H 21.2962 -3.45458 3.9745 0
M  V30 222 H 23.7872 -2.1603 3.10063 0
M  V30 223 H 24.1002 -3.89027 6.67741 0
M  V30 224 H 22.4452 -3.50462 6.00168 0
M  V30 225 H 25.6362 -2.60638 3.88826 0
M  V30 226 H 25.8092 -3.39545 5.51918 0
M  V30 227 N 19.2153 -1.21501 -1.00376 0
M  V30 228 C 20.1253 -0.991447 -2.12621 0
M  V30 229 C 21.1413 0.0568446 -1.73907 0
M  V30 230 O 22.3173 -0.13348 -2.00957 0
M  V30 231 C 19.3823 -0.560312 -3.42142 0
M  V30 232 C 18.4433 -1.68096 -3.95022 0
M  V30 233 C 17.6763 -1.2703 -5.18362 0
M  V30 234 O 17.8993 -0.144438 -5.70217 0
M  V30 235 O 16.8333 -2.08269 -5.64719 0
M  V30 236 H 20.6593 -1.93158 -2.34358 0
M  V30 237 H 18.2443 -0.999999 -1.10997 0
M  V30 238 H 20.1263 -0.329724 -4.20108 0
M  V30 239 H 18.8013 0.351089 -3.2179 0
M  V30 240 H 17.7083 -1.96597 -3.18278 0
M  V30 241 H 19.0413 -2.56983 -4.19786 0
M  V30 242 N 20.6934 1.19889 -1.02296 0
M  V30 243 C 21.6404 2.22901 -0.598651 0
M  V30 244 C 22.6104 1.61588 0.384521 0
M  V30 245 O 23.7954 1.88697 0.282522 0
M  V30 246 C 20.9354 3.45063 0.0504476 0
M  V30 247 C 20.0484 4.20783 -0.978053 0
M  V30 248 C 19.1834 5.30356 -0.299338 0
M  V30 249 C 18.2224 5.97826 -1.31416 0
M  V30 250 N 17.3594 6.98975 -0.661667 0
M  V30 251 H 22.1994 2.58554 -1.48169 0
M  V30 252 H 19.7364 1.27039 -0.741584 0
M  V30 253 H 21.6944 4.14831 0.443971 0
M  V30 254 H 20.3244 3.10084 0.897097 0
M  V30 255 H 19.3764 3.50018 -1.48969 0
M  V30 256 H 20.6884 4.67109 -1.74958 0
M  V30 257 H 19.8424 6.06516 0.149347 0
M  V30 258 H 18.5814 4.85084 0.504445 0
M  V30 259 H 17.5864 5.20422 -1.77317 0
M  V30 260 H 18.8114 6.45183 -2.11933 0
M  V30 261 H 16.7574 6.55886 0.122132 0
M  V30 262 H 16.6744 7.43461 -1.37117 0
M  V30 263 H 17.9424 7.7914 -0.236785 0
M  V30 264 N 22.1715 0.800033 1.35784 0
M  V30 265 C 23.0815 0.207204 2.33683 0
M  V30 266 C 24.0975 -0.64631 1.61551 0
M  V30 267 O 25.2735 -0.559604 1.93469 0
M  V30 268 C 22.3385 -0.639659 3.40748 0
M  V30 269 C 21.3995 0.233585 4.28664 0
M  V30 270 C 20.6325 -0.572954 5.30616 0
M  V30 271 O 20.8555 -1.80816 5.40982 0
M  V30 272 O 19.7895 0.0327285 6.01891 0
M  V30 273 H 23.6155 1.01692 2.86169 0
M  V30 274 H 21.2005 0.561691 1.38439 0
M  V30 275 H 23.0825 -1.12223 4.06182 0
M  V30 276 H 21.7575 -1.42708 2.90544 0
M  V30 277 H 20.6645 0.763147 3.66233 0
M  V30 278 H 21.9975 0.984784 4.82248 0
M  V30 279 N 23.6496 -1.47581 0.552962 0
M  V30 280 C 24.5966 -2.29957 -0.197108 0
M  V30 281 C 25.5666 -1.38799 -0.912359 0
M  V30 282 O 26.7516 -1.67761 -0.908888 0
M  V30 283 C 23.8916 -3.22672 -1.22379 0
M  V30 284 C 23.0046 -4.28919 -0.515038 0
M  V30 285 C 22.1396 -5.0879 -1.52664 0
M  V30 286 C 21.1786 -6.06815 -0.802631 0
M  V30 287 N 20.3156 -6.7966 -1.76086 0
M  V30 288 H 25.1556 -2.93578 0.511486 0
M  V30 289 H 22.6926 -1.4471 0.264067 0
M  V30 290 H 24.6506 -3.74845 -1.83159 0
M  V30 291 H 23.2806 -2.60925 -1.90047 0
M  V30 292 H 22.3326 -3.79835 0.207192 0
M  V30 293 H 23.6446 -4.98773 0.0523425 0
M  V30 294 H 22.7986 -5.65091 -2.20809 0
M  V30 295 H 21.5376 -4.38828 -2.12794 0
M  V30 296 H 20.5426 -5.49695 -0.107238 0
M  V30 297 H 21.7676 -6.78784 -0.207135 0
M  V30 298 H 19.7136 -6.12432 -2.35081 0
M  V30 299 H 19.6306 -7.45669 -1.24552 0
M  V30 300 H 20.8986 -7.40538 -2.43359 0
M  V30 301 N 25.1277 -0.289203 -1.54924 0
M  V30 302 C 26.3737 0.323998 -2.00195 0
M  V30 303 C 26.7067 1.54441 -1.17735 0
M  V30 304 O 25.9817 1.92875 -0.250878 0
M  V30 305 C 26.2647 0.692276 -3.53383 0
M  V30 306 C 26.1177 -0.536457 -4.46589 0
M  V30 307 C 27.4367 1.52335 -4.12895 0
M  V30 308 H 24.5557 0.116289 -0.727768 0
M  V30 309 H 27.1977 -0.398954 -1.85764 0
M  V30 310 H 25.3477 1.30822 -3.65811 0
M  V30 311 H 27.0197 -1.17499 -4.46085 0
M  V30 312 H 25.2627 -1.17192 -4.1767 0
M  V30 313 H 25.9337 -0.234806 -5.515 0
M  V30 314 H 28.4097 1.00302 -4.0383 0
M  V30 315 H 27.2857 1.74982 -5.20262 0
M  V30 316 H 27.5467 2.50886 -3.64018 0
M  V30 317 N 26.6058 1.57591 -0.0167156 0
M  V30 318 C 27.8308 1.9598 0.67872 0
M  V30 319 C 28.2558 0.892546 1.65575 0
M  V30 320 O 27.6138 -0.147772 1.80697 0
M  V30 321 C 27.6618 3.33468 1.37227 0
M  V30 322 O 26.7658 3.28954 2.48722 0
M  V30 323 H 26.1068 0.639339 0.17928 0
M  V30 324 H 28.6368 2.04463 -0.0748802 0
M  V30 325 H 28.6468 3.69417 1.7319 0
M  V30 326 H 27.3218 4.10694 0.656007 0
M  V30 327 H 25.8988 3.04705 2.14963 0
M  V30 328 N 28.0839 -0.256276 1.55502 0
M  V30 329 C 29.0469 -1.30047 1.88734 0
M  V30 330 C 30.0469 -1.4154 0.763086 0
M  V30 331 O 31.2369 -1.40403 1.03115 0
M  V30 332 C 28.3689 -2.67953 2.10747 0
M  V30 333 H 29.5619 -1.01802 2.82093 0
M  V30 334 H 27.1149 -0.495134 1.4825 0
M  V30 335 H 27.8499 -3.01351 1.19825 0
M  V30 336 H 27.6349 -2.60993 2.92617 0
M  V30 337 H 29.1249 -3.43368 2.37673 0
M  V30 338 N 29.562 -1.4872 -0.521534 0
M  V30 339 C 30.787 -1.61101 -1.30618 0
M  V30 340 C 31.212 -0.274611 -1.86085 0
M  V30 341 O 30.57 0.754937 -1.64834 0
M  V30 342 C 30.618 -2.66709 -2.4269 0
M  V30 343 O 29.722 -2.24456 -3.45967 0
M  V30 344 H 29.063 -0.539921 -0.386499 0
M  V30 345 H 31.593 -1.94767 -0.626645 0
M  V30 346 H 31.603 -2.88245 -2.88754 0
M  V30 347 H 30.278 -3.63727 -2.01682 0
M  V30 348 H 28.855 -2.13168 -3.05964 0
M  V30 349 N 31.0401 0.771051 -1.3745 0
M  V30 350 C 32.2651 1.56529 -1.36065 0
M  V30 351 C 32.6901 1.88029 0.0515859 0
M  V30 352 O 32.0481 1.49282 1.02882 0
M  V30 353 C 32.0961 2.85187 -2.20683 0
M  V30 354 O 31.2001 3.79593 -1.61193 0
M  V30 355 H 30.5411 0.47411 -0.464883 0
M  V30 356 H 33.0711 0.954269 -1.80983 0
M  V30 357 H 33.0811 3.34283 -2.33921 0
M  V30 358 H 31.7561 2.61588 -3.23334 0
M  V30 359 H 30.3331 3.38239 -1.56999 0
M  V30 360 N 32.5182 1.22032 0.997298 0
M  V30 361 C 33.4282 1.00271 2.12092 0
M  V30 362 C 34.4442 -0.047621 1.73935 0
M  V30 363 O 35.6202 0.144136 2.00884 0
M  V30 364 C 32.6852 0.578449 3.4184 0
M  V30 365 C 31.7462 1.70189 3.94125 0
M  V30 366 C 30.9792 1.29778 5.17681 0
M  V30 367 O 31.2022 0.174676 5.70132 0
M  V30 368 O 30.1362 2.11261 5.63607 0
M  V30 369 H 33.9622 1.94398 2.3333 0
M  V30 370 H 31.5472 1.00587 1.10465 0
M  V30 371 H 33.4292 0.351998 4.19927 0
M  V30 372 H 32.1042 -0.334019 3.21972 0
M  V30 373 H 31.0112 1.98282 3.1723 0
M  V30 374 H 32.3442 2.59206 4.18417 0
M  V30 375 N 33.9963 -1.19345 1.0293 0
M  V30 376 C 34.9443 -2.24621 0.604001 0
M  V30 377 C 35.9383 -1.65452 -0.363587 0
M  V30 378 O 37.1443 -1.78497 -0.23212 0
M  V30 379 H 33.5193 -0.730858 0.177061 0
M  V30 380 H 35.4903 -2.5781 1.50255 0
M  V30 381 C 34.2393 -3.47688 -0.0289127 0
M  V30 382 H 33.5623 -3.93505 0.706651 0
M  V30 383 H 35.0023 -4.23011 -0.289432 0
M  V30 384 C 33.4613 -3.11817 -1.2756 0
M  V30 385 O 33.9913 -3.2451 -2.36762 0
M  V30 386 N 32.1973 -2.66246 -1.16453 0
M  V30 387 H 31.7443 -2.56118 -0.275914 0
M  V30 388 H 31.7023 -2.42617 -1.99961 0
M  V30 389 N 35.4744 -0.807222 -1.35358 0
M  V30 390 C 36.7214 -0.387888 -1.9875 0
M  V30 391 C 37.0494 1.04509 -1.64037 0
M  V30 392 O 36.3044 1.73986 -0.895946 0
M  V30 393 C 36.6034 -0.519036 -3.53611 0
M  V30 394 C 36.2694 -1.91542 -4.08194 0
M  V30 395 C 34.9314 -2.29745 -4.22813 0
M  V30 396 C 37.2834 -2.82896 -4.37744 0
M  V30 397 C 34.6114 -3.58668 -4.643 0
M  V30 398 C 36.9634 -4.11265 -4.8067 0
M  V30 399 C 35.6274 -4.49466 -4.93494 0
M  V30 400 H 34.8974 -0.141938 -0.727279 0
M  V30 401 H 37.5444 -1.02814 -1.6156 0
M  V30 402 H 35.8494 0.204658 -3.91265 0
M  V30 403 H 37.5464 -0.175345 -4.00616 0
M  V30 404 H 34.1364 -1.60862 -3.97268 0
M  V30 405 H 38.3204 -2.54629 -4.26002 0
M  V30 406 H 33.5764 -3.88113 -4.72418 0
M  V30 407 H 37.7504 -4.82153 -5.02496 0
M  V30 408 H 35.3774 -5.49418 -5.25399 0
M  V30 409 N 36.9525 1.47285 -0.560781 0
M  V30 410 C 37.9025 2.27073 0.205384 0
M  V30 411 C 38.8865 1.34569 0.882044 0
M  V30 412 O 40.0785 1.58899 0.77976 0
M  V30 413 C 37.2075 3.20414 1.23247 0
M  V30 414 C 36.2935 4.20399 0.559041 0
M  V30 415 N 36.6845 5.04423 -0.372927 0
M  V30 416 C 34.9825 4.38536 0.812522 0
M  V30 417 C 35.6835 5.76655 -0.764446 0
M  V30 418 N 34.6595 5.43471 -0.11848 0
M  V30 419 H 38.4615 2.89422 -0.511117 0
M  V30 420 H 35.9755 1.57868 -0.380975 0
M  V30 421 H 37.9725 3.76262 1.79534 0
M  V30 422 H 36.6325 2.59623 1.95002 0
M  V30 423 H 37.6435 5.1248 -0.747287 0
M  V30 424 H 34.3205 3.88913 1.51832 0
M  V30 425 H 35.7105 6.54238 -1.53045 0
M  V30 426 N 38.4306 0.297415 1.54768 0
M  V30 427 C 39.6766 -0.313376 2.00364 0
M  V30 428 C 40.0096 -1.53815 1.18553 0
M  V30 429 O 39.2846 -1.92739 0.261103 0
M  V30 430 C 39.5676 -0.673525 3.53745 0
M  V30 431 C 39.4206 0.560133 4.46299 0
M  V30 432 C 40.7396 -1.50143 4.13697 0
M  V30 433 H 37.8586 -0.112428 0.728374 0
M  V30 434 H 40.5006 0.4088 1.8555 0
M  V30 435 H 38.6506 -1.28881 3.665 0
M  V30 436 H 40.3226 1.19863 4.45455 0
M  V30 437 H 38.5656 1.19405 4.17043 0
M  V30 438 H 39.2366 0.26405 5.51368 0
M  V30 439 H 41.7126 -0.981588 4.04356 0
M  V30 440 H 40.5886 -1.72221 5.21182 0
M  V30 441 H 40.8496 -2.48952 3.65343 0
M  V30 442 N 39.9087 -1.5758 0.0250728 0
M  V30 443 C 41.1567 -1.91255 -0.653151 0
M  V30 444 C 41.4777 -0.901691 -1.729 0
M  V30 445 O 40.7477 0.0573785 -1.95816 0
M  V30 446 H 39.3277 -0.705942 -0.244243 0
M  V30 447 H 41.9897 -1.94767 0.0719209 0
M  V30 448 H 41.0857 -2.91752 -1.10847 0
M  V30 449 N 41.3868 0.248026 -1.55636 0
M  V30 450 C 42.2968 1.32859 -1.93354 0
M  V30 451 C 43.3128 1.52719 -0.833838 0
M  V30 452 O 44.4888 1.66363 -1.13513 0
M  V30 453 C 41.5538 2.66337 -2.21958 0
M  V30 454 C 40.6148 2.55008 -3.45354 0
M  V30 455 C 39.8478 3.82121 -3.72584 0
M  V30 456 O 40.0708 4.83951 -3.01907 0
M  V30 457 O 39.0048 3.80822 -4.6611 0
M  V30 458 H 42.8308 1.03862 -2.85388 0
M  V30 459 H 40.4158 0.448686 -1.42503 0
M  V30 460 H 42.2978 3.45216 -2.4167 0
M  V30 461 H 40.9728 2.95068 -1.33103 0
M  V30 462 H 39.8798 1.7442 -3.30951 0
M  V30 463 H 41.2128 2.31222 -4.34508 0
M  V30 464 N 42.8649 1.48995 0.513639 0
M  V30 465 C 43.8129 1.65199 1.63744 0
M  V30 466 C 44.8069 0.51809 1.61283 0
M  V30 467 O 46.0129 0.697335 1.65943 0
M  V30 468 H 42.3879 0.52069 0.542574 0
M  V30 469 H 44.3589 2.59552 1.47226 0
M  V30 470 C 43.1079 1.72409 3.01945 0
M  V30 471 H 42.4309 2.59029 3.04539 0
M  V30 472 H 43.8709 1.87785 3.80148 0
M  V30 473 C 42.3299 0.46618 3.33659 0
M  V30 474 O 42.8599 -0.413744 3.99564 0
M  V30 475 N 41.0659 0.332931 2.88687 0
M  V30 476 H 40.6129 1.04996 2.35231 0
M  V30 477 H 40.5709 -0.507665 3.10274 0
M  V30 478 N 44.343 -0.763751 1.37857 0
M  V30 479 C 45.62 -1.51244 1.24035 0
M  V30 480 C 46 -2.10472 -0.162649 0
M  V30 481 O 45.348 -1.96206 -1.17112 0
M  V30 482 C 45.558 -2.58694 2.34261 0
M  V30 483 C 46.906 -3.25878 2.72193 0
M  V30 484 O 47.93 -2.68993 2.33497 0
M  V30 485 O 46.789 -4.2874 3.38887 0
M  V30 486 H 43.883 -0.670243 0.484462 0
M  V30 487 H 46.429 -0.800031 1.49658 0
M  V30 488 H 45.201 -2.13105 3.2818 0
M  V30 489 H 44.824 -3.37527 2.10146 0
M  V30 490 N 45.8211 -1.22559 -0.990812 0
M  V30 491 C 46.7311 -1.01394 -2.11557 0
M  V30 492 C 47.7471 0.0383962 -1.73958 0
M  V30 493 O 48.9231 -0.154787 -2.00804 0
M  V30 494 C 45.9881 -0.596569 -3.41529 0
M  V30 495 C 45.0491 -1.72276 -3.93217 0
M  V30 496 C 44.2821 -1.32521 -5.16985 0
M  V30 497 O 44.5051 -0.204909 -5.70032 0
M  V30 498 O 43.4391 -2.14247 -5.62478 0
M  V30 499 H 47.2651 -1.95633 -2.32296 0
M  V30 500 H 44.8501 -1.01172 -1.0993 0
M  V30 501 H 46.7321 -0.374263 -4.19735 0
M  V30 502 H 45.4071 0.316939 -3.22145 0
M  V30 503 H 44.3141 -1.99961 -3.16174 0
M  V30 504 H 45.6471 -2.61421 -4.17037 0
M  V30 505 N 47.2992 1.18797 -1.03562 0
M  V30 506 C 48.2472 2.24297 -0.615905 0
M  V30 507 C 49.2412 1.65643 0.354808 0
M  V30 508 O 50.4472 1.78618 0.22265 0
M  V30 509 H 46.8222 0.729909 -0.180934 0
M  V30 510 H 48.7932 2.5701 -1.5162 0
M  V30 511 C 47.5422 3.47698 0.0104735 0
M  V30 512 H 46.8652 3.93125 -0.727509 0
M  V30 513 H 48.3052 4.23159 0.266995 0
M  V30 514 C 46.7642 3.12489 1.25905 0
M  V30 515 O 47.2942 3.25761 2.35038 0
M  V30 516 N 45.5002 2.6686 1.15039 0
M  V30 517 H 45.0472 2.56261 0.262328 0
M  V30 518 H 45.0052 2.43674 1.98672 0
M  V30 519 N 48.7773 0.814389 1.34928 0
M  V30 520 C 49.7093 0.187834 2.28429 0
M  V30 521 C 50.7223 -0.617374 1.5064 0
M  V30 522 O 51.9113 -0.448454 1.72775 0
M  V30 523 C 49.0113 -0.755962 3.30361 0
M  V30 524 C 48.1843 0.00456686 4.374 0
M  V30 525 C 47.2433 -0.858876 5.19143 0
M  V30 526 O 46.2693 -0.306968 5.68372 0
M  V30 527 N 47.4713 -2.17988 5.38016 0
M  V30 528 H 50.2363 0.991105 2.82838 0
M  V30 529 H 47.7973 0.670561 1.4736 0
M  V30 530 H 49.7893 -1.338 3.81942 0
M  V30 531 H 48.3593 -1.46001 2.7641 0
M  V30 532 H 47.5793 0.767865 3.86649 0
M  V30 533 H 48.8673 0.528422 5.06049 0
M  V30 534 H 48.2653 -2.65212 4.99679 0
M  V30 535 H 46.8223 -2.71098 5.92747 0
M  V30 536 N 50.2554 -1.46986 0.568584 0
M  V30 537 C 51.5324 -1.95592 -0.0174074 0
M  V30 538 C 51.9124 -1.51124 -1.47393 0
M  V30 539 O 51.2604 -0.755329 -2.15655 0
M  V30 540 C 51.4704 -3.48719 0.139913 0
M  V30 541 C 52.8184 -4.246 0.000426376 0
M  V30 542 O 53.8424 -3.56135 0.0680316 0
M  V30 543 O 52.7014 -5.46302 -0.146988 0
M  V30 544 H 49.7954 -0.82498 -0.0577599 0
M  V30 545 H 52.3414 -1.57335 0.635909 0
M  V30 546 H 51.1134 -3.73927 1.15301 0
M  V30 547 H 50.7364 -3.93771 -0.550491 0
M  V30 548 N 51.7335 -0.305618 -1.54608 0
M  V30 549 C 53.1495 0.0476228 -1.59529 0
M  V30 550 C 53.3495 1.52025 -1.32252 0
M  V30 551 O 52.4055 2.27368 -1.09818 0
M  V30 552 C 53.7185 -0.354471 -2.98603 0
M  V30 553 C 55.2665 -0.303622 -3.11524 0
M  V30 554 C 55.7415 -0.680608 -4.52915 0
M  V30 555 N 57.2325 -0.63332 -4.5885 0
M  V30 556 C 57.9675 -0.897432 -5.66334 0
M  V30 557 N 57.4635 -1.22775 -6.81834 0
M  V30 558 N 59.2565 -0.824186 -5.56025 0
M  V30 559 H 51.4075 -1.2653 -1.70599 0
M  V30 560 H 53.6705 -0.513291 -0.797017 0
M  V30 561 H 53.3765 -1.3798 -3.23503 0
M  V30 562 H 53.2505 0.289568 -3.76087 0
M  V30 563 H 55.6375 0.712472 -2.8637 0
M  V30 564 H 55.7185 -0.982348 -2.36185 0
M  V30 565 H 55.3625 -1.69453 -4.78799 0
M  V30 566 H 55.2925 0.0202385 -5.26596 0
M  V30 567 H 57.7835 -0.389138 -3.75891 0
M  V30 568 H 58.0965 -1.41513 -7.59733 0
M  V30 569 H 56.4415 -1.26583 -6.83375 0
M  V30 570 H 59.6325 -0.565748 -4.64669 0
M  V30 571 H 59.8055 -1.03338 -6.39707 0
M  V30 572 N 53.2116 1.57565 -0.0334293 0
M  V30 573 C 54.4596 1.91598 0.642999 0
M  V30 574 C 54.7806 0.910847 1.7242 0
M  V30 575 O 54.0506 -0.0469931 1.95844 0
M  V30 576 H 52.6306 0.707228 0.240496 0
M  V30 577 H 55.2926 1.94726 -0.0822488 0
M  V30 578 H 54.3886 2.92336 1.09298 0
M  V30 579 N 54.6897 -0.239769 1.55765 0
M  V30 580 C 55.6377 -1.31668 1.91745 0
M  V30 581 C 56.6317 -1.49462 0.797338 0
M  V30 582 O 57.8377 -1.50852 0.982021 0
M  V30 583 H 54.2127 -0.441048 0.609082 0
M  V30 584 H 56.1837 -0.985923 2.81642 0
M  V30 585 C 54.9327 -2.66368 2.2348 0
M  V30 586 H 54.2557 -2.53478 3.09175 0
M  V30 587 H 55.6957 -3.40578 2.52553 0
M  V30 588 C 54.1547 -3.20002 1.05359 0
M  V30 589 O 54.6847 -4.00538 0.305261 0
M  V30 590 N 52.8907 -2.78126 0.842292 0
M  V30 591 H 52.4377 -2.12742 1.45253 0
M  V30 592 H 52.3957 -3.14354 0.053652 0
M  V30 593 N 56.1678 -1.49265 -0.50573 0
M  V30 594 C 57.4138 -1.59723 -1.25937 0
M  V30 595 C 57.7688 -0.278236 -1.90378 0
M  V30 596 O 57.0618 0.72113 -1.77511 0
M  V30 597 C 57.2558 -2.69008 -2.35308 0
M  V30 598 C 57.0848 -4.11405 -1.81592 0
M  V30 599 C 55.8548 -4.78252 -1.63105 0
M  V30 600 C 58.0528 -4.96792 -1.33048 0
M  V30 601 N 56.0348 -6.0498 -1.04269 0
M  V30 602 C 57.4058 -6.13962 -0.863168 0
M  V30 603 C 59.4608 -4.82828 -1.21577 0
M  V30 604 C 58.1638 -7.18705 -0.292489 0
M  V30 605 C 60.1898 -5.87716 -0.65907 0
M  V30 606 C 59.5518 -7.0411 -0.201954 0
M  V30 607 H 55.6508 -0.638864 -0.450973 0
M  V30 608 H 58.2348 -1.86251 -0.567326 0
M  V30 609 H 56.4058 -2.4426 -3.01979 0
M  V30 610 H 58.1378 -2.69013 -3.02348 0
M  V30 611 H 54.8928 -4.34974 -1.87336 0
M  V30 612 H 55.3168 -6.72631 -0.767919 0
M  V30 613 H 59.9588 -3.93159 -1.55518 0
M  V30 614 H 57.6768 -8.08078 0.0591987 0
M  V30 615 H 61.2628 -5.7897 -0.573156 0
M  V30 616 H 60.1428 -7.83885 0.222101 0
M  V30 617 N 57.6459 0.756429 -1.3826 0
M  V30 618 C 58.8709 1.55077 -1.37717 0
M  V30 619 C 59.2959 1.88073 0.03164 0
M  V30 620 O 58.6539 1.50364 1.01293 0
M  V30 621 C 58.7019 2.8283 -2.23695 0
M  V30 622 O 57.8059 3.77862 -1.6521 0
M  V30 623 H 57.1469 0.469152 -0.469885 0
M  V30 624 H 59.6769 0.935019 -1.81985 0
M  V30 625 H 59.6869 3.31783 -2.37453 0
M  V30 626 H 58.3619 2.58144 -3.2609 0
M  V30 627 H 56.9389 3.36555 -1.60578 0
M  V30 628 N 59.124 1.23083 0.984299 0
M  V30 629 C 60.071 1.00854 2.07598 0
M  V30 630 C 61.041 -0.0726709 1.65941 0
M  V30 631 O 62.226 0.0786535 1.90638 0
M  V30 632 C 59.366 0.601645 3.39815 0
M  V30 633 C 58.479 1.75456 3.94765 0
M  V30 634 C 57.614 1.29482 5.15177 0
M  V30 635 C 56.653 2.41873 5.62284 0
M  V30 636 N 55.79 1.96885 6.73929 0
M  V30 637 H 60.63 1.943 2.25946 0
M  V30 638 H 58.167 0.968001 1.10762 0
M  V30 639 H 60.125 0.346854 4.15756 0
M  V30 640 H 58.755 -0.295803 3.21442 0
M  V30 641 H 57.807 2.12346 3.15616 0
M  V30 642 H 59.119 2.59965 4.25699 0
M  V30 643 H 58.273 0.997923 5.98437 0
M  V30 644 H 57.012 0.420046 4.85888 0
M  V30 645 H 56.017 2.72342 4.77608 0
M  V30 646 H 57.242 3.29881 5.93595 0
M  V30 647 H 55.188 1.11782 6.46406 0
M  V30 648 H 55.105 2.74956 7.04227 0
M  V30 649 H 56.373 1.70289 7.60672 0
M  V30 650 N 60.6021 -1.18246 1.0419 0
M  V30 651 C 61.5491 -2.2192 0.634037 0
M  V30 652 C 62.5191 -1.62179 -0.358765 0
M  V30 653 O 63.7041 -1.89122 -0.252466 0
M  V30 654 C 60.8441 -3.451 0.00445535 0
M  V30 655 C 59.9571 -4.19174 1.04487 0
M  V30 656 C 59.0921 -5.29813 0.383676 0
M  V30 657 C 58.1311 -5.9566 1.4091 0
M  V30 658 N 57.2681 -6.97834 0.772784 0
M  V30 659 H 62.1081 -2.56164 1.52263 0
M  V30 660 H 59.6451 -1.25843 0.761701 0
M  V30 661 H 61.6031 -4.15485 -0.377919 0
M  V30 662 H 60.2331 -3.11472 -0.847652 0
M  V30 663 H 59.2851 -3.47604 1.54518 0
M  V30 664 H 60.5971 -4.64267 1.82368 0
M  V30 665 H 59.7511 -6.06677 -0.0528366 0
M  V30 666 H 58.4901 -4.85825 -0.427208 0
M  V30 667 H 57.4951 -5.17535 1.85574 0
M  V30 668 H 58.7201 -6.4173 2.22171 0
M  V30 669 H 56.6661 -6.55998 -0.0177708 0
M  V30 670 H 56.5831 -7.41186 1.48928 0
M  V30 671 H 57.8511 -7.78665 0.36071 0
M  V30 672 N 62.0802 -0.821533 -1.34494 0
M  V30 673 C 63.3052 -0.420873 -2.03085 0
M  V30 674 C 63.7302 0.964915 -1.61465 0
M  V30 675 O 63.0882 1.62763 -0.798607 0
M  V30 676 C 63.1362 -0.529414 -3.56693 0
M  V30 677 O 62.2402 0.451302 -4.09923 0
M  V30 678 H 61.5812 -0.173489 -0.640935 0
M  V30 679 H 64.1112 -1.11157 -1.71771 0
M  V30 680 H 64.1212 -0.404671 -4.05988 0
M  V30 681 H 62.7962 -1.54014 -3.86332 0
M  V30 682 H 61.3732 0.285558 -3.71805 0
M  V30 683 N 63.5583 1.46682 -0.576371 0
M  V30 684 C 64.8353 1.95599 0.00703437 0
M  V30 685 C 65.2153 1.51904 1.46589 0
M  V30 686 O 64.5633 0.766755 2.15251 0
M  V30 687 C 64.7733 3.4864 -0.158404 0
M  V30 688 C 66.1213 4.24594 -0.0229439 0
M  V30 689 O 67.1453 3.56094 -0.0869173 0
M  V30 690 O 66.0043 5.46373 0.118015 0
M  V30 691 H 63.0983 0.825275 0.053384 0
M  V30 692 H 65.6443 1.56996 -0.644244 0
M  V30 693 H 64.4163 3.7331 -1.17282 0
M  V30 694 H 64.0393 3.94057 0.5296 0
M  V30 695 N 65.0364 0.313813 1.54444 0
M  V30 696 C 66.2664 -0.293491 2.04505 0
M  V30 697 C 66.6744 -1.47086 1.19005 0
M  V30 698 O 66.0174 -1.82481 0.211257 0
M  V30 699 C 66.0794 -0.800455 3.50475 0
M  V30 700 C 65.7434 0.253322 4.56297 0
M  V30 701 C 66.7404 1.08612 5.08428 0
M  V30 702 C 64.4254 0.398708 5.00715 0
M  V30 703 C 66.4194 2.05013 6.0353 0
M  V30 704 C 64.1064 1.36614 5.95634 0
M  V30 705 C 65.1044 2.19033 6.46926 0
M  V30 706 O 64.7924 3.14134 7.39983 0
M  V30 707 H 64.5244 -0.0658325 0.672787 0
M  V30 708 H 67.0784 0.455177 2.00293 0
M  V30 709 H 65.3084 -1.59987 3.52053 0
M  V30 710 H 66.9974 -1.32504 3.83663 0
M  V30 711 H 67.7634 0.984736 4.74898 0
M  V30 712 H 63.6424 -0.23289 4.60411 0
M  V30 713 H 67.1864 2.69382 6.4349 0
M  V30 714 H 63.0834 1.4682 6.28581 0
M  V30 715 H 63.8514 3.0926 7.57826 0
M  V30 716 N 66.5145 -1.57545 0.0417849 0
M  V30 717 C 67.4445 -2.14009 -0.933929 0
M  V30 718 C 68.4255 -1.05938 -1.33083 0
M  V30 719 O 69.6105 -1.33833 -1.40721 0
M  V30 720 C 66.7405 -2.67747 -2.21199 0
M  V30 721 C 65.6945 -3.80718 -1.95544 0
M  V30 722 C 65.0205 -4.20935 -3.29724 0
M  V30 723 C 66.3205 -5.06258 -1.28452 0
M  V30 724 H 68.0145 -2.95788 -0.463645 0
M  V30 725 H 65.5605 -1.42285 -0.221573 0
M  V30 726 H 67.5135 -3.05886 -2.89848 0
M  V30 727 H 66.2375 -1.83147 -2.70416 0
M  V30 728 H 64.8965 -3.43037 -1.2931 0
M  V30 729 H 64.5445 -3.33298 -3.76724 0
M  V30 730 H 64.2445 -4.9707 -3.13361 0
M  V30 731 H 65.7685 -4.61666 -3.9962 0
M  V30 732 H 67.1825 -5.41903 -1.8712 0
M  V30 733 H 65.5795 -5.87475 -1.22445 0
M  V30 734 H 66.6495 -4.84207 -0.259219 0
M  V30 735 N 67.9926 0.231505 -1.5589 0
M  V30 736 C 68.9226 1.29022 -1.94617 0
M  V30 737 C 69.9036 1.4941 -0.813067 0
M  V30 738 O 71.0886 1.6176 -1.07459 0
M  V30 739 C 68.2186 2.64199 -2.25424 0
M  V30 740 C 67.1726 2.58484 -3.41131 0
M  V30 741 C 66.4986 3.97599 -3.57518 0
M  V30 742 C 67.7986 2.1413 -4.76388 0
M  V30 743 H 69.4926 0.968563 -2.83301 0
M  V30 744 H 67.0386 0.464479 -1.36303 0
M  V30 745 H 68.9916 3.38413 -2.51107 0
M  V30 746 H 67.7156 2.98032 -1.33583 0
M  V30 747 H 66.3746 1.86727 -3.15481 0
M  V30 748 H 66.0226 4.28723 -2.6307 0
M  V30 749 H 65.7226 3.94659 -4.35337 0
M  V30 750 H 67.2466 4.7349 -3.85538 0
M  V30 751 H 68.6606 2.78083 -5.01341 0
M  V30 752 H 67.0576 2.2227 -5.57419 0
M  V30 753 H 68.1276 1.09331 -4.72414 0
M  V30 754 N 69.4707 1.49531 0.497807 0
M  V30 755 C 70.6957 1.63159 1.28039 0
M  V30 756 C 71.1207 0.30418 1.85624 0
M  V30 757 O 70.4787 -0.728618 1.66015 0
M  V30 758 C 70.5267 2.70537 2.38416 0
M  V30 759 O 69.6307 2.29931 3.42353 0
M  V30 760 H 68.9717 0.546001 0.377861 0
M  V30 761 H 71.5017 1.9574 0.59558 0
M  V30 762 H 71.5117 2.92802 2.84132 0
M  V30 763 H 70.1867 3.6689 1.95869 0
M  V30 764 H 68.7637 2.18009 3.02533 0
M  V30 765 N 70.9488 -0.749086 1.3866 0
M  V30 766 C 71.8818 -1.87111 1.30631 0
M  V30 767 C 72.8598 -1.61572 0.18251 0
M  V30 768 O 74.0438 -1.85019 0.360592 0
M  V30 769 C 71.1708 -3.22815 1.02511 0
M  V30 770 C 70.2168 -3.67234 2.1689 0
M  V30 771 S 71.0498 -3.78245 3.79066 0
M  V30 772 C 72.2058 -5.16761 3.53142 0
M  V30 773 H 72.4388 -1.93636 2.25594 0
M  V30 774 H 69.9718 -0.912525 1.24549 0
M  V30 775 H 71.9298 -4.01181 0.869701 0
M  V30 776 H 70.5908 -3.13964 0.0925884 0
M  V30 777 H 69.7838 -4.65677 1.92771 0
M  V30 778 H 69.3858 -2.96034 2.28561 0
M  V30 779 H 71.6778 -6.02656 3.09534 0
M  V30 780 H 72.6208 -5.45902 4.50995 0
M  V30 781 H 73.0288 -4.85771 2.87554 0
M  V30 782 N 72.4269 -1.23603 -0.977757 0
M  V30 783 C 73.6759 -1.06377 -1.71368 0
M  V30 784 C 73.9889 0.399062 -1.91486 0
M  V30 785 O 75.1949 0.691312 -2.62551 0
M  V30 786 C 73.6509 -1.85512 -3.08404 0
M  V30 787 C 73.2589 -3.36141 -2.96164 0
M  V30 788 C 75.0029 -1.76783 -3.85938 0
M  V30 789 C 72.9099 -4.07659 -4.28449 0
M  V30 790 H 71.8399 -0.394452 -0.642591 0
M  V30 791 H 74.4909 -1.47594 -1.09034 0
M  V30 792 H 72.8729 -1.37103 -3.71509 0
M  V30 793 H 74.0469 -3.92056 -2.42133 0
M  V30 794 H 72.3619 -3.45712 -2.32104 0
M  V30 795 H 74.9589 -2.27526 -4.83876 0
M  V30 796 H 75.3019 -0.731116 -4.0983 0
M  V30 797 H 75.8349 -2.22818 -3.2954 0
M  V30 798 H 72.5739 -5.11648 -4.09752 0
M  V30 799 H 72.0939 -3.5653 -4.82334 0
M  V30 800 H 73.7729 -4.141 -4.97122 0
M  V30 801 N 73.905 1.17692 -1.04816 0
M  V30 802 C 75.153 1.87488 -0.754497 0
M  V30 803 C 75.474 1.81205 0.720407 0
M  V30 804 O 74.744 1.23544 1.52032 0
M  V30 805 H 73.324 0.694101 -0.276102 0
M  V30 806 H 75.986 1.42793 -1.32651 0
M  V30 807 H 75.082 2.93328 -1.06606 0
M  V30 808 N 75.3831 0.828654 1.34056 0
M  V30 809 C 76.6131 0.431993 2.02033 0
M  V30 810 C 77.0211 -0.96844 1.62536 0
M  V30 811 O 76.3641 -1.6391 0.829408 0
M  V30 812 C 76.4261 0.461224 3.56529 0
M  V30 813 C 76.0901 1.81599 4.1937 0
M  V30 814 C 77.0871 2.7777 4.39477 0
M  V30 815 C 74.7721 2.10604 4.56017 0
M  V30 816 C 76.7661 4.01115 4.95364 0
M  V30 817 C 74.4531 3.34207 5.11614 0
M  V30 818 C 75.4511 4.2928 5.31232 0
M  V30 819 O 75.1391 5.50699 5.8565 0
M  V30 820 H 74.8711 0.170943 0.654029 0
M  V30 821 H 77.4251 1.11988 1.72185 0
M  V30 822 H 75.6551 -0.283388 3.8566 0
M  V30 823 H 77.3441 0.0838149 4.05813 0
M  V30 824 H 78.1101 2.56659 4.11523 0
M  V30 825 H 73.9891 1.37402 4.40047 0
M  V30 826 H 77.5331 4.75333 5.10592 0
M  V30 827 H 73.4301 3.55179 5.38997 0
M  V30 828 H 74.1981 5.52298 6.04077 0
M  V30 829 N 76.8612 -1.46375 0.584142 0
M  V30 830 C 77.8242 -2.28784 -0.138108 0
M  V30 831 C 78.8242 -1.38471 -0.817462 0
M  V30 832 O 80.0142 -1.60833 -0.669199 0
M  V30 833 C 77.1462 -3.18892 -1.20503 0
M  V30 834 H 78.3392 -2.94117 0.586127 0
M  V30 835 H 75.8922 -1.52509 0.342171 0
M  V30 836 H 76.6272 -2.58309 -1.96079 0
M  V30 837 H 76.4122 -3.85388 -0.722384 0
M  V30 838 H 77.9022 -3.80914 -1.71155 0
M  V30 839 N 78.3393 -0.321999 -1.54275 0
M  V30 840 C 79.5853 0.281461 -2.00837 0
M  V30 841 C 79.9183 1.51909 -1.20985 0
M  V30 842 O 79.1933 1.923 -0.291733 0
M  V30 843 C 79.4763 0.617162 -3.54772 0
M  V30 844 C 79.3293 -0.631064 -4.45351 0
M  V30 845 C 80.6483 1.43542 -4.16033 0
M  V30 846 H 77.7673 0.100826 -0.730071 0
M  V30 847 H 80.4093 -0.438268 -1.84876 0
M  V30 848 H 78.5593 1.23034 -3.68504 0
M  V30 849 H 80.2313 -1.26934 -4.43492 0
M  V30 850 H 78.4743 -1.26025 -4.15091 0
M  V30 851 H 79.1453 -0.351735 -5.50878 0
M  V30 852 H 81.6213 0.917134 -4.05867 0
M  V30 853 H 80.4973 1.63907 -5.23856 0
M  V30 854 H 80.7583 2.43108 -3.69257 0
M  V30 855 N 79.8174 1.5752 -0.0501392 0
M  V30 856 C 81.0654 1.9227 0.622642 0
M  V30 857 C 81.3864 0.929083 1.71444 0
M  V30 858 O 80.6564 -0.0262186 1.95882 0
M  V30 859 H 79.2364 0.709739 0.232981 0
M  V30 860 H 81.8984 1.94628 -0.102898 0
M  V30 861 H 80.9944 2.93479 1.06191 0
M  V30 862 N 81.2955 -0.223234 1.56011 0
M  V30 863 C 82.2255 -1.27988 1.95298 0
M  V30 864 C 83.2065 -1.48976 0.820979 0
M  V30 865 O 84.3915 -1.61188 1.08315 0
M  V30 866 C 81.5215 -2.63 2.26822 0
M  V30 867 C 80.4755 -2.56671 3.42497 0
M  V30 868 C 79.8015 -3.95697 3.59622 0
M  V30 869 C 81.1015 -2.11601 4.77517 0
M  V30 870 H 82.7955 -0.953525 2.8381 0
M  V30 871 H 80.3415 -0.457244 1.36548 0
M  V30 872 H 82.2945 -3.37077 2.52898 0
M  V30 873 H 81.0185 -2.9732 1.35161 0
M  V30 874 H 79.6775 -1.85051 3.16467 0
M  V30 875 H 79.3255 -4.27322 2.6534 0
M  V30 876 H 79.0255 -3.92345 4.37424 0
M  V30 877 H 80.5495 -4.71438 3.88044 0
M  V30 878 H 81.9635 -2.7542 5.02809 0
M  V30 879 H 80.3605 -2.19311 5.5859 0
M  V30 880 H 81.4305 -1.06824 4.72987 0
M  V30 881 N 82.7736 -1.49793 -0.48987 0
M  V30 882 C 84.0216 -1.59525 -1.24081 0
M  V30 883 C 84.3426 -0.288953 -1.92847 0
M  V30 884 O 83.6126 0.692436 -1.83254 0
M  V30 885 H 82.1926 -0.587796 -0.460983 0
M  V30 886 H 84.8546 -1.86477 -0.566778 0
M  V30 887 H 83.9506 -2.39696 -1.99881 0
M  V30 888 N 84.2517 0.741722 -1.39055 0
M  V30 889 C 85.1997 1.87702 -1.3737 0
M  V30 890 C 86.1937 1.67427 -0.257812 0
M  V30 891 O 87.3997 1.7485 -0.427489 0
M  V30 892 H 83.7747 0.617757 -0.428812 0
M  V30 893 H 85.7457 1.86239 -2.33147 0
M  V30 894 C 84.4947 3.25315 -1.22741 0
M  V30 895 H 83.8177 3.41509 -2.07873 0
M  V30 896 H 85.2577 4.04964 -1.25618 0
M  V30 897 C 83.7167 3.36838 0.0647316 0
M  V30 898 O 84.2467 3.88073 1.03741 0
M  V30 899 N 82.4527 2.90329 0.125544 0
M  V30 900 H 81.9997 2.48823 -0.666682 0
M  V30 901 H 81.9577 2.98418 0.989639 0
M  V30 902 N 85.7298 1.2412 0.971189 0
M  V30 903 C 86.9758 1.08041 1.71625 0
M  V30 904 C 87.3088 -0.380407 1.90438 0
M  V30 905 O 86.5838 -1.28127 1.46334 0
M  V30 906 C 86.8668 1.81682 3.10908 0
M  V30 907 C 86.7198 3.35493 2.99608 0
M  V30 908 C 88.0388 1.58671 4.10501 0
M  V30 909 H 85.1578 0.39388 0.622919 0
M  V30 910 H 87.7998 1.52743 1.13003 0
M  V30 911 H 85.9498 1.43684 3.60953 0
M  V30 912 H 87.6218 3.83068 2.57015 0
M  V30 913 H 85.8648 3.64052 2.35899 0
M  V30 914 H 86.5358 3.82217 3.98264 0
M  V30 915 H 89.0118 1.91719 3.69301 0
M  V30 916 H 87.8878 2.1266 5.06031 0
M  V30 917 H 88.1488 0.524161 4.38982 0
M  V30 918 N 87.2079 -1.17134 1.05439 0
M  V30 919 C 88.4539 -1.87979 0.776872 0
M  V30 920 C 88.8089 -1.7965 -0.688751 0
M  V30 921 O 88.1019 -1.19535 -1.4974 0
M  V30 922 C 88.2959 -3.36833 1.19491 0
M  V30 923 C 88.1249 -3.59653 2.69963 0
M  V30 924 C 86.8949 -3.76234 3.37307 0
M  V30 925 C 89.0929 -3.59091 3.68182 0
M  V30 926 N 87.0749 -3.86922 4.76618 0
M  V30 927 C 88.4459 -3.75659 4.93235 0
M  V30 928 C 90.5009 -3.42255 3.61616 0
M  V30 929 C 89.2039 -3.77133 6.12506 0
M  V30 930 C 91.2299 -3.45018 4.8033 0
M  V30 931 C 90.5919 -3.62096 6.04207 0
M  V30 932 H 86.6909 -0.705876 0.336546 0
M  V30 933 H 89.2749 -1.40602 1.34682 0
M  V30 934 H 87.4459 -3.82873 0.652884 0
M  V30 935 H 89.1779 -3.95305 0.866966 0
M  V30 936 H 85.9329 -3.76193 2.87708 0
M  V30 937 H 86.3569 -3.96055 5.49062 0
M  V30 938 H 90.9989 -3.27986 2.66805 0
M  V30 939 H 88.7169 -3.90186 7.07659 0
M  V30 940 H 92.3029 -3.33246 4.76905 0
M  V30 941 H 91.1829 -3.64142 6.94529 0
M  V30 942 N 88.686 -0.835752 -1.33615 0
M  V30 943 C 90.102 -0.523139 -1.50783 0
M  V30 944 C 90.302 0.950171 -1.77691 0
M  V30 945 O 89.358 1.73411 -1.83534 0
M  V30 946 C 90.671 -1.39378 -2.66448 0
M  V30 947 C 92.219 -1.39223 -2.80332 0
M  V30 948 C 92.694 -2.24765 -3.99055 0
M  V30 949 N 94.185 -2.22458 -4.06284 0
M  V30 950 C 94.92 -2.85386 -4.97336 0
M  V30 951 N 94.416 -3.57354 -5.93523 0
M  V30 952 N 96.209 -2.74872 -4.90308 0
M  V30 953 H 88.36 -1.78952 -1.14411 0
M  V30 954 H 90.623 -0.763297 -0.562212 0
M  V30 955 H 90.329 -2.44061 -2.53234 0
M  V30 956 H 90.203 -1.0676 -3.61776 0
M  V30 957 H 92.59 -0.353136 -2.92979 0
M  V30 958 H 92.671 -1.75846 -1.85773 0
M  V30 959 H 92.315 -3.28732 -3.87167 0
M  V30 960 H 92.245 -1.85485 -4.92852 0
M  V30 961 H 94.736 -1.70119 -3.37443 0
M  V30 962 H 95.049 -4.02584 -6.59656 0
M  V30 963 H 93.394 -3.61461 -5.93608 0
M  V30 964 H 96.585 -2.18213 -4.14126 0
M  V30 965 H 96.758 -3.24199 -5.61069 0
M  V30 966 N 90.1641 1.46063 -0.591896 0
M  V30 967 C 91.4111 2.02338 -0.0809991 0
M  V30 968 C 91.7391 1.46228 1.28249 0
M  V30 969 O 90.9941 0.620818 1.85592 0
M  V30 970 C 91.2931 3.57391 0.0249813 0
M  V30 971 C 90.9591 4.32583 -1.27211 0
M  V30 972 C 89.6211 4.52844 -1.62745 0
M  V30 973 C 91.9731 4.75687 -2.13005 0
M  V30 974 C 89.3011 5.13462 -2.83855 0
M  V30 975 C 91.6531 5.37644 -3.3335 0
M  V30 976 C 90.3171 5.5613 -3.69155 0
M  V30 977 H 89.5871 0.740407 -0.0296397 0
M  V30 978 H 92.2341 1.75321 -0.770374 0
M  V30 979 H 90.5391 3.83597 0.797537 0
M  V30 980 H 92.2361 3.98621 0.436184 0
M  V30 981 H 88.8261 4.17116 -0.985499 0
M  V30 982 H 93.0101 4.59782 -1.86855 0
M  V30 983 H 88.2661 5.25965 -3.11722 0
M  V30 984 H 92.4401 5.7 -4.00092 0
M  V30 985 H 90.0671 6.0287 -4.63089 0
M  V30 986 N 91.6422 0.330177 1.54103 0
M  V30 987 C 93.0532 -0.15652 1.86043 0
M  V30 988 C 93.4042 -1.51086 1.2517 0
M  V30 989 O 92.5292 -2.09023 0.560217 0
M  V30 990 C 93.1242 -0.290784 3.3755 0
M  V30 991 C 91.6832 -0.721705 3.69416 0
M  V30 992 C 90.8302 0.152622 2.7688 0
M  V30 993 H 93.7812 0.550237 1.48856 0
M  V30 994 H 93.8022 -1.12058 3.63625 0
M  V30 995 H 93.3142 0.695068 3.81825 0
M  V30 996 H 91.4152 -1.71706 3.30678 0
M  V30 997 H 91.5282 -0.520869 4.7626 0
M  V30 998 H 89.8922 -0.372894 2.51956 0
M  V30 999 H 90.6752 1.13536 3.23982 0
M  V30 1000 N 93.1203 -1.57491 0.0584922 0
M  V30 1001 C 94.3503 -1.9701 -0.622134 0
M  V30 1002 C 94.7583 -0.935034 -1.6448 0
M  V30 1003 O 94.1013 0.0882904 -1.83488 0
M  V30 1004 C 94.1633 -3.32794 -1.35972 0
M  V30 1005 C 93.8273 -4.54343 -0.492043 0
M  V30 1006 C 94.8243 -5.19323 0.244901 0
M  V30 1007 C 92.5093 -5.00534 -0.420821 0
M  V30 1008 C 94.5033 -6.28835 1.04143 0
M  V30 1009 C 92.1903 -6.09921 0.379389 0
M  V30 1010 C 93.1883 -6.73933 1.10919 0
M  V30 1011 O 92.8763 -7.81216 1.89623 0
M  V30 1012 H 92.6083 -0.653127 -0.174359 0
M  V30 1013 H 95.1623 -2.05029 0.123418 0
M  V30 1014 H 93.3923 -3.21351 -2.15105 0
M  V30 1015 H 95.0813 -3.5701 -1.93129 0
M  V30 1016 H 95.8473 -4.8459 0.19939 0
M  V30 1017 H 91.7263 -4.50496 -0.978474 0
M  V30 1018 H 95.2703 -6.7873 1.61157 0
M  V30 1019 H 91.1673 -6.44089 0.426512 0
M  V30 1020 H 91.9353 -7.98029 1.81913 0
M  V30 1021 N 94.5984 0.214957 -1.56127 0
M  V30 1022 C 95.5284 1.2695 -1.95974 0
M  V30 1023 C 96.5094 1.48539 -0.828868 0
M  V30 1024 O 97.6944 1.60611 -1.09168 0
M  V30 1025 C 94.8244 2.61794 -2.28214 0
M  V30 1026 C 93.7784 2.54851 -3.43853 0
M  V30 1027 C 93.1044 3.93785 -3.61715 0
M  V30 1028 C 94.4044 2.09065 -4.78632 0
M  V30 1029 H 96.0984 0.93846 -2.84312 0
M  V30 1030 H 93.6444 0.449996 -1.36788 0
M  V30 1031 H 95.5974 3.35731 -2.54682 0
M  V30 1032 H 94.3214 2.96599 -1.36736 0
M  V30 1033 H 92.9804 1.8337 -3.17444 0
M  V30 1034 H 92.6284 4.25908 -2.67602 0
M  V30 1035 H 92.3284 3.90019 -4.39498 0
M  V30 1036 H 93.8524 4.69374 -3.90539 0
M  V30 1037 H 95.2664 2.7275 -5.04262 0
M  V30 1038 H 93.6634 2.16346 -5.59745 0
M  V30 1039 H 94.7334 1.04315 -4.73547 0
M  V30 1040 N 96.0765 1.50051 0.48192 0
M  V30 1041 C 97.3045 1.64237 1.25832 0
M  V30 1042 C 97.7195 0.321336 1.86045 0
M  V30 1043 O 97.0765 -0.695478 1.68729 0
M  V30 1044 C 97.1275 2.72548 2.37487 0
M  V30 1045 O 96.8485 3.99529 1.79745 0
M  V30 1046 C 98.3495 2.9761 3.28547 0
M  V30 1047 H 95.5695 0.55237 0.380957 0
M  V30 1048 H 98.1135 1.96207 0.576467 0
M  V30 1049 H 96.2685 2.43303 3.01467 0
M  V30 1050 H 96.6825 4.59342 2.5319 0
M  V30 1051 H 98.1565 3.77084 4.03127 0
M  V30 1052 H 98.6335 2.0826 3.86684 0
M  V30 1053 H 99.2395 3.28345 2.70314 0
M  V30 1054 N 97.5546 -0.734337 1.39446 0
M  V30 1055 C 98.7846 -1.52137 1.39778 0
M  V30 1056 C 99.1926 -1.89198 -0.00929312 0
M  V30 1057 O 98.5356 -1.54666 -0.991168 0
M  V30 1058 C 98.5976 -2.83762 2.20724 0
M  V30 1059 C 98.2616 -2.69131 3.69347 0
M  V30 1060 C 99.2586 -2.37635 4.62413 0
M  V30 1061 C 96.9436 -2.85982 4.1294 0
M  V30 1062 C 98.9376 -2.23172 5.97054 0
M  V30 1063 C 96.6246 -2.71137 5.47657 0
M  V30 1064 C 97.6226 -2.39777 6.39528 0
M  V30 1065 O 97.3106 -2.25026 7.71763 0
M  V30 1066 H 97.0426 -0.476717 0.479288 0
M  V30 1067 H 99.5966 -0.915012 1.83893 0
M  V30 1068 H 97.8266 -3.4666 1.71359 0
M  V30 1069 H 99.5156 -3.45383 2.13226 0
M  V30 1070 H 100.282 -2.24267 4.30034 0
M  V30 1071 H 96.1606 -3.09383 3.41765 0
M  V30 1072 H 99.7046 -1.98617 6.68728 0
M  V30 1073 H 95.6016 -2.84083 5.79626 0
M  V30 1074 H 96.3696 -2.40091 7.82495 0
M  V30 1075 N 99.0327 -1.24633 -0.964593 0
M  V30 1076 C 100.258 -1.11596 -1.74818 0
M  V30 1077 C 100.683 0.32723 -1.85232 0
M  V30 1078 O 100.041 1.23695 -1.32549 0
M  V30 1079 C 100.089 -1.76397 -3.1451 0
M  V30 1080 O 99.1927 -1.03685 -3.99153 0
M  V30 1081 H 98.5337 -0.390196 -0.537255 0
M  V30 1082 H 101.064 -1.65002 -1.20977 0
M  V30 1083 H 101.074 -1.8228 -3.65018 0
M  V30 1084 H 99.7487 -2.81401 -3.06246 0
M  V30 1085 H 98.3257 -1.05611 -3.57632 0
M  V30 1086 N 100.511 1.16574 -1.06058 0
M  V30 1087 C 101.459 2.22941 -0.663343 0
M  V30 1088 C 102.453 1.66358 0.319593 0
M  V30 1089 O 103.659 1.7905 0.184713 0
M  V30 1090 H 100.034 0.725907 -0.196376 0
M  V30 1091 H 102.005 2.53736 -1.57037 0
M  V30 1092 C 100.754 3.47642 -0.0632808 0
M  V30 1093 H 100.077 3.91493 -0.810733 0
M  V30 1094 H 101.517 4.2363 0.177177 0
M  V30 1095 C 99.9758 3.1509 1.19248 0
M  V30 1096 O 100.506 3.30673 2.28075 0
M  V30 1097 N 98.7118 2.6924 1.09353 0
M  V30 1098 H 98.2588 2.5676 0.207912 0
M  V30 1099 H 98.2168 2.47833 1.93458 0
M  V30 1100 N 101.989 0.842826 1.3317 0
M  V30 1101 C 103.237 0.439577 1.97262 0
M  V30 1102 C 103.558 -1.00548 1.67078 0
M  V30 1103 O 102.828 -1.70098 0.971779 0
M  V30 1104 H 101.408 0.159558 0.72976 0
M  V30 1105 H 104.07 1.07665 1.62463 0
M  V30 1106 H 103.166 0.574886 3.0676 0
M  V30 1107 N 103.467 -1.45747 0.599634 0
M  V30 1108 C 104.715 -2.01893 0.0915472 0
M  V30 1109 C 105.036 -1.47155 -1.27946 0
M  V30 1110 O 104.306 -0.66273 -1.84349 0
M  V30 1111 H 102.886 -0.746363 0.0308524 0
M  V30 1112 H 105.548 -1.78645 0.779237 0
M  V30 1113 H 104.644 -3.1208 0.0353086 0
M  V30 1114 N 104.945 -0.338344 -1.53925 0
M  V30 1115 C 106.193 0.259245 -2.0043 0
M  V30 1116 C 106.514 1.51484 -1.22791 0
M  V30 1117 O 105.784 1.93037 -0.33368 0
M  V30 1118 H 104.364 0.0987845 -0.740439 0
M  V30 1119 H 107.026 -0.458302 -1.89435 0
M  V30 1120 H 106.122 0.505334 -3.07982 0
M  V30 1121 N 106.423 1.57458 -0.0668435 0
M  V30 1122 C 107.386 2.11323 0.887422 0
M  V30 1123 C 108.386 1.03618 1.22964 0
M  V30 1124 O 109.576 1.29626 1.16373 0
M  V30 1125 C 106.708 2.61048 2.19242 0
M  V30 1126 H 107.901 2.96942 0.420194 0
M  V30 1127 H 105.454 1.55239 0.181793 0
M  V30 1128 H 106.189 1.78868 2.70512 0
M  V30 1129 H 105.974 3.39769 1.95702 0
M  V30 1130 H 107.464 3.02814 2.87565 0
M  V30 1131 N 107.901 -0.206675 1.56239 0
M  V30 1132 C 109.148 -0.928842 1.79941 0
M  V30 1133 C 109.476 -1.83734 0.638131 0
M  V30 1134 O 108.731 -1.92039 -0.376746 0
M  V30 1135 C 109.03 -1.78675 3.09532 0
M  V30 1136 C 108.696 -1.03022 4.38973 0
M  V30 1137 C 107.358 -0.821302 4.74139 0
M  V30 1138 C 109.71 -0.497081 5.18824 0
M  V30 1139 C 107.038 -0.0675719 5.86661 0
M  V30 1140 C 109.39 0.24338 6.32132 0
M  V30 1141 C 108.054 0.463422 6.65889 0
M  V30 1142 H 107.324 -0.339887 0.658451 0
M  V30 1143 H 109.971 -0.195977 1.90495 0
M  V30 1144 H 108.276 -2.58794 2.94165 0
M  V30 1145 H 109.973 -2.34792 3.25075 0
M  V30 1146 H 106.563 -1.20306 4.11369 0
M  V30 1147 H 110.747 -0.645921 4.92079 0
M  V30 1148 H 106.003 0.112995 6.11296 0
M  V30 1149 H 110.177 0.66393 6.93228 0
M  V30 1150 H 107.804 1.04938 7.52922 0
M  V30 1151 N 109.379 -1.50304 -0.473955 0
M  V30 1152 C 110.309 -1.71886 -1.58042 0
M  V30 1153 C 111.29 -0.567799 -1.60344 0
M  V30 1154 O 112.475 -0.806623 -1.76656 0
M  V30 1155 C 109.605 -1.81036 -2.96384 0
M  V30 1156 C 108.559 -2.962 -3.08949 0
M  V30 1157 C 107.885 -2.9049 -4.48909 0
M  V30 1158 C 109.185 -4.36752 -2.86434 0
M  V30 1159 H 110.879 -2.64527 -1.40234 0
M  V30 1160 H 108.425 -1.27295 -0.673201 0
M  V30 1161 H 110.378 -1.94719 -3.73714 0
M  V30 1162 H 109.102 -0.850147 -3.15341 0
M  V30 1163 H 107.761 -2.82164 -2.3405 0
M  V30 1164 H 107.409 -1.92321 -4.64781 0
M  V30 1165 H 107.109 -3.67802 -4.58253 0
M  V30 1166 H 108.633 -3.06218 -5.28264 0
M  V30 1167 H 110.047 -4.5133 -3.53517 0
M  V30 1168 H 108.444 -5.15493 -3.07225 0
M  V30 1169 H 109.514 -4.49321 -1.82316 0
M  V30 1170 N 110.857 0.726932 -1.39834 0
M  V30 1171 C 112.106 1.48214 -1.36805 0
M  V30 1172 C 112.419 1.95576 0.0305291 0
M  V30 1173 O 113.625 2.7088 0.183417 0
M  V30 1174 C 112.081 2.67854 -2.40379 0
M  V30 1175 C 111.689 2.27408 -3.85992 0
M  V30 1176 C 113.433 3.45641 -2.46439 0
M  V30 1177 C 111.34 3.43819 -4.81189 0
M  V30 1178 H 110.27 0.556606 -0.508631 0
M  V30 1179 H 112.921 0.792216 -1.65518 0
M  V30 1180 H 111.303 3.3896 -2.04749 0
M  V30 1181 H 112.477 1.63795 -4.30706 0
M  V30 1182 H 110.792 1.62692 -3.83302 0
M  V30 1183 H 113.389 4.32244 -3.14753 0
M  V30 1184 H 113.732 3.88669 -1.49139 0
M  V30 1185 H 114.265 2.8157 -2.81004 0
M  V30 1186 H 111.004 3.05834 -5.79781 0
M  V30 1187 H 110.524 4.06385 -4.41148 0
M  V30 1188 H 112.203 4.10043 -5.00474 0
M  V30 1189 N 112.336 1.25143 0.95797 0
M  V30 1190 C 113.747 1.08851 1.51685 0
M  V30 1191 C 114.098 -0.33687 1.93286 0
M  V30 1192 O 113.223 -1.22644 1.7829 0
M  V30 1193 C 113.818 1.96978 2.75654 0
M  V30 1194 C 112.377 1.84881 3.27866 0
M  V30 1195 C 111.524 1.91329 2.0072 0
M  V30 1196 H 114.475 1.38478 0.77522 0
M  V30 1197 H 114.496 1.5078 3.4935 0
M  V30 1198 H 114.008 3.00712 2.45345 0
M  V30 1199 H 112.109 0.840182 3.63004 0
M  V30 1200 H 112.222 2.6951 3.96107 0
M  V30 1201 H 110.586 1.35174 2.15871 0
M  V30 1202 H 111.369 2.96661 1.72764 0
M  V30 1203 N 113.814 -1.1601 1.06675 0
M  V30 1204 C 115.044 -1.90251 0.805497 0
M  V30 1205 C 115.452 -1.77891 -0.64431 0
M  V30 1206 O 114.795 -1.12383 -1.45313 0
M  V30 1207 C 114.857 -3.41419 1.12576 0
M  V30 1208 C 114.521 -3.77564 2.57477 0
M  V30 1209 C 115.518 -3.79161 3.55715 0
M  V30 1210 C 113.203 -4.08079 2.92877 0
M  V30 1211 C 115.197 -4.10767 4.8739 0
M  V30 1212 C 112.884 -4.39351 4.24751 0
M  V30 1213 C 113.882 -4.40675 5.21818 0
M  V30 1214 O 113.57 -4.71202 6.51325 0
M  V30 1215 H 113.302 -0.610018 0.291297 0
M  V30 1216 H 115.856 -1.47958 1.4247 0
M  V30 1217 H 114.086 -3.84079 0.449503 0
M  V30 1218 H 115.775 -3.9694 0.84814 0
M  V30 1219 H 116.541 -3.55693 3.29708 0
M  V30 1220 H 112.42 -4.06211 2.17976 0
M  V30 1221 H 115.964 -4.11715 5.63148 0
M  V30 1222 H 111.861 -4.62285 4.50514 0
M  V30 1223 H 112.629 -4.88996 6.56373 0
M  V30 1224 N 115.292 -0.849877 -1.32721 0
M  V30 1225 C 116.255 -0.296122 -2.27279 0
M  V30 1226 C 117.255 0.541458 -1.5141 0
M  V30 1227 O 118.445 0.353658 -1.70572 0
M  V30 1228 C 115.577 0.581579 -3.35902 0
M  V30 1229 H 116.77 -1.13064 -2.77771 0
M  V30 1230 H 114.323 -0.62383 -1.43311 0
M  V30 1231 H 115.058 1.43809 -2.9067 0
M  V30 1232 H 114.843 -0.0178814 -3.92096 0
M  V30 1233 H 116.333 0.961951 -4.0637 0
M  V30 1234 N 116.77 1.45427 -0.607355 0
M  V30 1235 C 118.019 2.01452 -0.100036 0
M  V30 1236 C 118.332 1.48159 1.27704 0
M  V30 1237 O 119.538 1.96159 1.87707 0
M  V30 1238 C 117.994 3.59672 -0.128158 0
M  V30 1239 C 117.602 4.21962 -1.50507 0
M  V30 1240 C 119.346 4.23262 0.323932 0
M  V30 1241 C 117.253 5.72333 -1.48959 0
M  V30 1242 H 116.183 0.75325 -0.0336299 0
M  V30 1243 H 118.834 1.66901 -0.76265 0
M  V30 1244 H 117.216 3.91411 0.601105 0
M  V30 1245 H 118.39 4.01796 -2.25602 0
M  V30 1246 H 116.705 3.70565 -1.89923 0
M  V30 1247 H 119.302 5.33522 0.354691 0
M  V30 1248 H 119.645 3.93921 1.34656 0
M  V30 1249 H 120.178 3.96239 -0.352056 0
M  V30 1250 H 116.917 6.06373 -2.48981 0
M  V30 1251 H 116.437 5.94691 -0.781214 0
M  V30 1252 H 118.116 6.35525 -1.21313 0
M  V30 1253 N 118.248 0.346503 1.53744 0
M  V30 1254 C 119.181 -0.552023 2.21423 0
M  V30 1255 C 120.159 -1.09798 1.19929 0
M  V30 1256 O 121.343 -1.1577 1.4876 0
M  V30 1257 C 118.47 -1.75972 2.89398 0
M  V30 1258 C 117.516 -1.34295 4.04805 0
M  V30 1259 S 118.349 -0.360263 5.34287 0
M  V30 1260 C 119.505 -1.57473 6.05767 0
M  V30 1261 H 119.738 0.0228119 2.97291 0
M  V30 1262 H 117.271 0.130579 1.53847 0
M  V30 1263 H 119.229 -2.45256 3.2918 0
M  V30 1264 H 117.89 -2.30578 2.1329 0
M  V30 1265 H 117.083 -2.24349 4.51313 0
M  V30 1266 H 116.685 -0.729555 3.66815 0
M  V30 1267 H 118.977 -2.50875 6.29339 0
M  V30 1268 H 119.92 -1.15138 6.98676 0
M  V30 1269 H 120.328 -1.77212 5.35963 0
M  V30 1270 N 119.726 -1.57421 0.075193 0
M  V30 1271 C 120.656 -2.15942 -0.888324 0
M  V30 1272 C 121.637 -1.08737 -1.30806 0
M  V30 1273 O 122.822 -1.36787 -1.37851 0
M  V30 1274 C 119.952 -2.72379 -2.1547 0
M  V30 1275 C 118.906 -3.8478 -1.87425 0
M  V30 1276 C 118.232 -4.27834 -3.20721 0
M  V30 1277 C 119.532 -5.08869 -1.17684 0
M  V30 1278 H 121.226 -2.96705 -0.400799 0
M  V30 1279 H 118.772 -1.42723 -0.191342 0
M  V30 1280 H 120.725 -3.11965 -2.83295 0
M  V30 1281 H 119.449 -1.88841 -2.6647 0
M  V30 1282 H 118.108 -3.45703 -1.22004 0
M  V30 1283 H 117.756 -3.41214 -3.6957 0
M  V30 1284 H 117.456 -5.03605 -3.02746 0
M  V30 1285 H 118.98 -4.70039 -3.89738 0
M  V30 1286 H 120.394 -5.4575 -1.75584 0
M  V30 1287 H 118.791 -5.8994 -1.09956 0
M  V30 1288 H 119.861 -4.84648 -0.156453 0
M  V30 1289 N 121.204 0.198386 -1.56346 0
M  V30 1290 C 122.167 1.22952 -1.93431 0
M  V30 1291 C 123.167 1.38611 -0.815092 0
M  V30 1292 O 124.357 1.36479 -1.08255 0
M  V30 1293 C 121.489 2.59946 -2.20546 0
M  V30 1294 H 122.682 0.912626 -2.85677 0
M  V30 1295 H 120.235 0.43977 -1.49986 0
M  V30 1296 H 120.97 2.96696 -1.30927 0
M  V30 1297 H 120.755 2.49953 -3.02102 0
M  V30 1298 H 122.245 3.3431 -2.50253 0
M  V30 1299 N 122.682 1.50554 0.465978 0
M  V30 1300 C 123.612 1.72722 1.57128 0
M  V30 1301 C 124.593 0.576294 1.6004 0
M  V30 1302 O 125.778 0.81598 1.76225 0
M  V30 1303 C 122.908 1.82605 2.95419 0
M  V30 1304 C 121.862 2.97835 3.07373 0
M  V30 1305 C 121.188 2.92867 4.47363 0
M  V30 1306 C 122.488 4.38265 2.84114 0
M  V30 1307 H 124.182 2.65267 1.38829 0
M  V30 1308 H 121.728 1.2765 0.666441 0
M  V30 1309 H 123.681 1.96698 3.72677 0
M  V30 1310 H 122.405 0.866858 3.14886 0
M  V30 1311 H 121.064 2.83401 2.3255 0
M  V30 1312 H 120.712 1.94783 4.63755 0
M  V30 1313 H 120.412 3.70227 4.56296 0
M  V30 1314 H 121.936 3.09015 5.26633 0
M  V30 1315 H 123.35 4.53198 3.51118 0
M  V30 1316 H 121.747 5.17115 3.04487 0
M  V30 1317 H 122.817 4.50281 1.7993 0
M  V30 1318 N 124.16 -0.719506 1.40217 0
M  V30 1319 C 125.123 -1.8153 1.39927 0
M  V30 1320 C 126.123 -1.58095 0.293723 0
M  V30 1321 O 127.313 -1.65209 0.552429 0
M  V30 1322 C 124.445 -3.19561 1.18716 0
M  V30 1323 H 125.638 -1.83186 2.37451 0
M  V30 1324 H 123.191 -0.924746 1.26008 0
M  V30 1325 H 123.926 -3.23557 0.219366 0
M  V30 1326 H 123.711 -3.3797 1.98793 0
M  V30 1327 H 125.201 -3.99598 1.21291 0
M  V30 1328 N 125.638 -1.25649 -0.95132 0
M  V30 1329 C 126.886 -1.10375 -1.69298 0
M  V30 1330 C 127.207 0.355339 -1.91735 0
M  V30 1331 O 126.477 1.25188 -1.50681 0
M  V30 1332 H 125.057 -0.405461 -0.627384 0
M  V30 1333 H 127.719 -1.57823 -1.14358 0
M  V30 1334 H 126.815 -1.61465 -2.67087 0
M  V30 1335 N 127.117 1.15442 -1.07289 0
M  V30 1336 C 128.047 2.22312 -0.714107 0
M  V30 1337 C 129.028 1.67467 0.298155 0
M  V30 1338 O 130.213 1.93445 0.171048 0
M  V30 1339 C 127.343 3.47124 -0.110448 0
M  V30 1340 C 126.297 4.14926 -1.04979 0
M  V30 1341 C 125.623 5.33807 -0.308924 0
M  V30 1342 C 126.923 4.64762 -2.38314 0
M  V30 1343 H 128.617 2.5258 -1.6076 0
M  V30 1344 H 126.163 1.21404 -0.77441 0
M  V30 1345 H 128.116 4.21124 0.152482 0
M  V30 1346 H 126.84 3.16187 0.81812 0
M  V30 1347 H 125.499 3.42866 -1.29764 0
M  V30 1348 H 125.147 4.99126 0.623084 0
M  V30 1349 H 124.847 5.80113 -0.935036 0
M  V30 1350 H 126.371 6.10576 -0.0537771 0
M  V30 1351 H 127.785 5.30292 -2.1786 0
M  V30 1352 H 126.182 5.21728 -2.96514 0
M  V30 1353 H 127.252 3.80434 -3.00663 0
M  V30 1354 N 128.595 0.856903 1.32268 0
M  V30 1355 C 130.006 0.515711 1.79436 0
M  V30 1356 C 130.357 -0.966586 1.70738 0
M  V30 1357 O 129.482 -1.75409 1.26731 0
M  V30 1358 C 130.077 0.929335 3.25805 0
M  V30 1359 C 128.636 0.640006 3.70919 0
M  V30 1360 C 127.783 1.12784 2.53328 0
M  V30 1361 H 130.734 1.04389 1.19535 0
M  V30 1362 H 130.755 0.246633 3.797 0
M  V30 1363 H 130.267 2.00821 3.32103 0
M  V30 1364 H 128.368 -0.428051 3.70133 0
M  V30 1365 H 128.481 1.20788 4.63624 0
M  V30 1366 H 126.845 0.548033 2.48734 0
M  V30 1367 H 127.628 2.21387 2.62379 0
M  V30 1368 N 130.073 -1.45103 0.615059 0
M  V30 1369 C 131.003 -2.33339 -0.0865619 0
M  V30 1370 C 131.984 -1.4727 -0.851209 0
M  V30 1371 O 133.169 -1.76026 -0.820281 0
M  V30 1372 C 130.299 -3.30095 -1.07956 0
M  V30 1373 C 129.253 -4.25858 -0.427628 0
M  V30 1374 C 128.579 -5.12361 -1.5294 0
M  V30 1375 C 129.879 -5.18165 0.655944 0
M  V30 1376 H 131.573 -2.92254 0.650224 0
M  V30 1377 H 129.119 -1.40532 0.314138 0
M  V30 1378 H 131.072 -3.90698 -1.57901 0
M  V30 1379 H 129.796 -2.69355 -1.84703 0
M  V30 1380 H 128.455 -3.66564 0.0510292 0
M  V30 1381 H 128.103 -4.47984 -2.28734 0
M  V30 1382 H 127.803 -5.77238 -1.09865 0
M  V30 1383 H 129.327 -5.75833 -2.03098 0
M  V30 1384 H 130.741 -5.72796 0.240257 0
M  V30 1385 H 129.138 -5.91559 1.00888 0
M  V30 1386 H 130.208 -4.60144 1.52957 0
M  V30 1387 N 131.551 -0.354651 -1.53558 0
M  V30 1388 C 132.798 0.238443 -2.01091 0
M  V30 1389 C 133.126 1.49663 -1.24222 0
M  V30 1390 O 132.381 1.93049 -0.321003 0
M  V30 1391 C 132.68 0.587121 -3.52545 0
M  V30 1392 C 132.346 -0.575472 -4.47213 0
M  V30 1393 C 131.008 -0.894497 -4.72813 0
M  V30 1394 C 133.36 -1.35489 -5.03281 0
M  V30 1395 C 130.688 -1.99511 -5.51736 0
M  V30 1396 C 133.04 -2.44583 -5.83405 0
M  V30 1397 C 131.704 -2.77033 -6.07296 0
M  V30 1398 H 130.974 0.0872526 -0.735845 0
M  V30 1399 H 133.621 -0.484859 -1.8526 0
M  V30 1400 H 131.926 1.39129 -3.66265 0
M  V30 1401 H 133.623 1.05809 -3.86789 0
M  V30 1402 H 130.213 -0.316774 -4.27428 0
M  V30 1403 H 134.397 -1.12167 -4.83459 0
M  V30 1404 H 129.653 -2.25063 -5.68469 0
M  V30 1405 H 133.827 -3.05401 -6.25862 0
M  V30 1406 H 131.454 -3.6244 -6.68237 0
M  V30 1407 N 133.029 1.57378 -0.0835403 0
M  V30 1408 C 134.276 1.9393 0.58287 0
M  V30 1409 C 134.604 0.964455 1.68904 0
M  V30 1410 O 133.859 -0.0179474 1.95692 0
M  V30 1411 C 134.158 3.37063 1.1884 0
M  V30 1412 C 133.824 4.50424 0.207194 0
M  V30 1413 C 132.486 4.81159 -0.0627115 0
M  V30 1414 C 134.838 5.19136 -0.463426 0
M  V30 1415 C 132.166 5.77939 -1.01012 0
M  V30 1416 C 134.518 6.16931 -1.39924 0
M  V30 1417 C 133.182 6.46078 -1.67749 0
M  V30 1418 H 132.452 0.70964 0.213287 0
M  V30 1419 H 135.099 1.90856 -0.156916 0
M  V30 1420 H 133.404 3.3666 2.00418 0
M  V30 1421 H 135.101 3.6264 1.71153 0
M  V30 1422 H 131.691 4.2646 0.427747 0
M  V30 1423 H 135.875 4.95576 -0.268034 0
M  V30 1424 H 131.131 5.98842 -1.23283 0
M  V30 1425 H 135.305 6.69273 -1.92476 0
M  V30 1426 H 132.932 7.2088 -2.41321 0
M  V30 1427 N 134.507 -0.190092 1.56449 0
M  V30 1428 C 135.437 -1.23816 1.97969 0
M  V30 1429 C 136.418 -1.47201 0.852395 0
M  V30 1430 O 137.603 -1.58854 1.1171 0
M  V30 1431 C 134.733 -2.5813 2.3235 0
M  V30 1432 C 133.687 -2.49348 3.47864 0
M  V30 1433 C 133.013 -3.8798 3.67934 0
M  V30 1434 C 134.313 -2.01424 4.81898 0
M  V30 1435 H 136.007 -0.89311 2.85769 0
M  V30 1436 H 133.553 -0.428177 1.37487 0
M  V30 1437 H 135.506 -3.31637 2.59991 0
M  V30 1438 H 134.23 -2.94386 1.41438 0
M  V30 1439 H 132.889 -1.78297 3.20321 0
M  V30 1440 H 132.537 -4.21597 2.74344 0
M  V30 1441 H 132.237 -3.82978 4.45648 0
M  V30 1442 H 133.761 -4.63101 3.97957 0
M  V30 1443 H 135.175 -2.64693 5.08538 0
M  V30 1444 H 133.572 -2.07413 5.63116 0
M  V30 1445 H 134.642 -0.967677 4.75146 0
M  V30 1446 N 135.985 -1.50799 -0.457987 0
M  V30 1447 C 136.895 -1.73426 -1.57989 0
M  V30 1448 C 137.911 -0.617745 -1.62665 0
M  V30 1449 O 139.087 -0.897614 -1.80291 0
M  V30 1450 C 136.152 -1.83557 -2.94122 0
M  V30 1451 C 135.213 -3.07345 -2.99729 0
M  V30 1452 C 134.446 -3.16983 -4.29368 0
M  V30 1453 O 134.669 -2.33077 -5.20607 0
M  V30 1454 O 133.603 -4.09812 -4.40837 0
M  V30 1455 H 137.429 -2.68555 -1.41817 0
M  V30 1456 H 135.014 -1.35052 -0.638859 0
M  V30 1457 H 136.896 -1.92326 -3.74952 0
M  V30 1458 H 135.571 -0.916137 -3.10465 0
M  V30 1459 H 134.478 -3.04068 -2.1793 0
M  V30 1460 H 135.811 -3.9891 -2.88326 0
M  V30 1461 N 137.463 0.71206 -1.40597 0
M  V30 1462 C 138.703 1.48438 -1.40519 0
M  V30 1463 C 139.067 1.91998 -0.00767611 0
M  V30 1464 O 140.268 2.6854 0.118239 0
M  V30 1465 C 138.539 2.67514 -2.37004 0
M  V30 1466 S 140.098 3.56875 -2.55315 0
M  V30 1467 H 136.916 0.507457 -0.498005 0
M  V30 1468 H 139.518 0.832355 -1.76896 0
M  V30 1469 H 138.222 2.33689 -3.37368 0
M  V30 1470 H 137.753 3.37625 -2.01923 0
M  V30 1471 H 139.768 4.62081 -1.8082 0
M  V30 1472 N 138.941 1.26152 0.944643 0
M  V30 1473 C 140.166 1.14363 1.7302 0
M  V30 1474 C 140.591 -0.29772 1.85729 0
M  V30 1475 O 139.949 -1.2157 1.34501 0
M  V30 1476 C 139.997 1.81378 3.11664 0
M  V30 1477 O 139.101 1.10022 3.97453 0
M  V30 1478 H 138.442 0.398694 0.53098 0
M  V30 1479 H 140.972 1.66906 1.18337 0
M  V30 1480 H 140.982 1.88064 3.62072 0
M  V30 1481 H 139.657 2.86237 3.0173 0
M  V30 1482 H 138.234 1.11287 3.55907 0
M  V30 1483 N 140.419 -1.14872 1.07899 0
M  V30 1484 C 141.349 -2.2193 0.725887 0
M  V30 1485 C 142.33 -1.67622 -0.28927 0
M  V30 1486 O 143.515 -1.93533 -0.160787 0
M  V30 1487 C 140.645 -3.47061 0.128856 0
M  V30 1488 C 139.599 -4.14363 1.07178 0
M  V30 1489 C 138.925 -5.33636 0.337229 0
M  V30 1490 C 140.225 -4.63492 2.40775 0
M  V30 1491 H 141.919 -2.51724 1.62097 0
M  V30 1492 H 139.465 -1.20991 0.780838 0
M  V30 1493 H 141.418 -4.21199 -0.130147 0
M  V30 1494 H 140.142 -3.16617 -0.80134 0
M  V30 1495 H 138.801 -3.42173 1.3158 0
M  V30 1496 H 138.449 -4.99449 -0.596606 0
M  V30 1497 H 138.149 -5.79609 0.965788 0
M  V30 1498 H 139.673 -6.10539 0.0861567 0
M  V30 1499 H 141.087 -5.2913 2.20669 0
M  V30 1500 H 139.484 -5.20148 2.99276 0
M  V30 1501 H 140.554 -3.78834 3.02676 0
M  V30 1502 N 141.898 -0.863906 -1.31812 0
M  V30 1503 C 143.146 -0.470904 -1.96537 0
M  V30 1504 C 143.467 0.978771 -1.68657 0
M  V30 1505 O 142.737 1.6853 -0.998717 0
M  V30 1506 H 141.317 -0.171148 -0.72713 0
M  V30 1507 H 143.979 -1.10236 -1.60729 0
M  V30 1508 H 143.075 -0.623616 -3.05806 0
M  V30 1509 N 143.376 1.44774 -0.622745 0
M  V30 1510 C 144.308 2.28856 0.125485 0
M  V30 1511 C 145.321 1.40811 0.817069 0
M  V30 1512 O 146.51 1.65044 0.679918 0
M  V30 1513 C 143.61 3.16963 1.19949 0
M  V30 1514 C 142.783 4.33374 0.592064 0
M  V30 1515 C 141.842 5.02577 1.55893 0
M  V30 1516 O 140.868 5.58873 1.07933 0
M  V30 1517 N 142.07 5.03256 2.89334 0
M  V30 1518 H 144.835 2.93713 -0.596068 0
M  V30 1519 H 142.396 1.55129 -0.463303 0
M  V30 1520 H 144.388 3.60123 1.84644 0
M  V30 1521 H 142.958 2.53913 1.82337 0
M  V30 1522 H 142.178 3.93509 -0.233322 0
M  V30 1523 H 143.466 5.08527 0.166738 0
M  V30 1524 H 142.864 4.58836 3.30887 0
M  V30 1525 H 141.421 5.50232 3.49412 0
M  V30 1526 N 144.854 0.36279 1.53368 0
M  V30 1527 C 146.101 -0.227776 2.01215 0
M  V30 1528 C 146.429 -1.49003 1.25014 0
M  V30 1529 O 145.684 -1.92876 0.331236 0
M  V30 1530 C 145.983 -0.568417 3.52851 0
M  V30 1531 C 145.649 0.59918 4.46901 0
M  V30 1532 C 144.311 0.919559 4.72332 0
M  V30 1533 C 146.663 1.38156 5.02556 0
M  V30 1534 C 143.991 2.02434 5.5067 0
M  V30 1535 C 146.343 2.47674 5.821 0
M  V30 1536 C 145.007 2.8025 6.05819 0
M  V30 1537 H 144.277 -0.083349 0.736297 0
M  V30 1538 H 146.924 0.494677 1.85001 0
M  V30 1539 H 145.229 -1.37185 3.66998 0
M  V30 1540 H 146.926 -1.03756 3.87344 0
M  V30 1541 H 143.516 0.339437 4.27254 0
M  V30 1542 H 147.7 1.14729 4.82857 0
M  V30 1543 H 142.956 2.28075 5.67267 0
M  V30 1544 H 147.13 3.08716 6.24234 0
M  V30 1545 H 144.757 3.65979 6.66306 0
M  V30 1546 N 146.332 -1.57332 0.0918853 0
M  V30 1547 C 147.295 -2.12708 -0.85369 0
M  V30 1548 C 148.295 -1.05561 -1.213 0
M  V30 1549 O 149.485 -1.31461 -1.14296 0
M  V30 1550 C 146.617 -2.64503 -2.15061 0
M  V30 1551 H 147.81 -2.97573 -0.3729 0
M  V30 1552 H 145.363 -1.55509 -0.157072 0
M  V30 1553 H 146.098 -1.83149 -2.67632 0
M  V30 1554 H 145.883 -3.4284 -1.90272 0
M  V30 1555 H 147.373 -3.07351 -2.82711 0
M  V30 1556 N 147.81 0.181792 -1.56548 0
M  V30 1557 C 149.035 0.920019 -1.85877 0
M  V30 1558 C 149.46 1.75494 -0.677021 0
M  V30 1559 O 148.818 1.77399 0.374056 0
M  V30 1560 C 148.866 1.78112 -3.13542 0
M  V30 1561 O 147.97 2.88152 -2.95029 0
M  V30 1562 H 147.311 0.258334 -0.611686 0
M  V30 1563 H 149.841 0.183092 -2.03779 0
M  V30 1564 H 149.851 2.18314 -3.44678 0
M  V30 1565 H 148.526 1.16777 -3.99169 0
M  V30 1566 H 147.103 2.51609 -2.75222 0
M  V30 1567 N 149.288 1.51039 0.449983 0
M  V30 1568 C 150.218 1.74379 1.55288 0
M  V30 1569 C 151.199 0.593236 1.5942 0
M  V30 1570 O 152.384 0.834625 1.7535 0
M  V30 1571 C 149.514 1.85728 2.93466 0
M  V30 1572 C 148.468 3.01078 3.04197 0
M  V30 1573 C 147.794 2.97595 4.44231 0
M  V30 1574 C 149.094 4.41254 2.7945 0
M  V30 1575 H 150.788 2.66725 1.36008 0
M  V30 1576 H 148.334 1.2835 0.652864 0
M  V30 1577 H 150.287 2.0064 3.70569 0
M  V30 1578 H 149.011 0.900207 3.13949 0
M  V30 1579 H 147.67 2.85851 2.29531 0
M  V30 1580 H 147.318 1.99691 4.61663 0
M  V30 1581 H 147.018 3.75046 4.52343 0
M  V30 1582 H 148.542 3.14583 5.23326 0
M  V30 1583 H 149.956 4.56897 3.46292 0
M  V30 1584 H 148.353 5.20315 2.98985 0
M  V30 1585 H 149.423 4.52164 1.75144 0
M  V30 1586 N 150.766 -0.704594 1.40972 0
M  V30 1587 C 152.014 -1.46169 1.39568 0
M  V30 1588 C 152.335 -1.95 0.00253745 0
M  V30 1589 O 151.605 -1.71095 -0.954114 0
M  V30 1590 H 150.185 -0.542326 0.513704 0
M  V30 1591 H 152.847 -0.834553 1.76128 0
M  V30 1592 H 151.943 -2.32922 2.07735 0
M  V30 1593 N 152.244 -1.26651 -0.937939 0
M  V30 1594 C 153.655 -1.1125 -1.49934 0
M  V30 1595 C 154.006 0.306077 -1.93798 0
M  V30 1596 O 153.131 1.19792 -1.80219 0
M  V30 1597 C 153.726 -2.01339 -2.72485 0
M  V30 1598 C 152.285 -1.90074 -3.24883 0
M  V30 1599 C 151.432 -1.94498 -1.97651 0
M  V30 1600 H 154.383 -1.39693 -0.753091 0
M  V30 1601 H 154.404 -1.56319 -3.46907 0
M  V30 1602 H 153.916 -3.04577 -2.40529 0
M  V30 1603 H 152.017 -0.897827 -3.61621 0
M  V30 1604 H 152.13 -2.75778 -3.9177 0
M  V30 1605 H 150.494 -1.38591 -2.13693 0
M  V30 1606 H 151.277 -2.99372 -1.68022 0
M  V30 1607 N 153.722 1.14298 -1.08507 0
M  V30 1608 C 154.968 1.85633 -0.816581 0
M  V30 1609 C 155.301 1.82784 0.656021 0
M  V30 1610 O 154.576 1.25926 1.48233 0
M  V30 1611 C 154.859 3.34223 -1.34041 0
M  V30 1612 C 154.712 3.45639 -2.87843 0
M  V30 1613 C 156.031 4.29356 -0.9665 0
M  V30 1614 H 153.15 0.67402 -0.298104 0
M  V30 1615 H 155.792 1.34214 -1.34487 0
M  V30 1616 H 153.942 3.78144 -0.89104 0
M  V30 1617 H 155.614 3.10498 -3.41158 0
M  V30 1618 H 153.857 2.86817 -3.25451 0
M  V30 1619 H 154.528 4.50089 -3.19569 0
M  V30 1620 H 157.004 3.93457 -1.35391 0
M  V30 1621 H 155.88 5.3178 -1.3602 0
M  V30 1622 H 156.141 4.41919 0.126362 0
M  V30 1623 N 155.201 0.870884 1.31352 0
M  V30 1624 C 156.426 0.495957 2.01383 0
M  V30 1625 C 156.851 -0.904324 1.64935 0
M  V30 1626 O 156.209 -1.59687 0.858466 0
M  V30 1627 C 156.257 0.661433 3.54482 0
M  V30 1628 O 155.361 -0.298851 4.11316 0
M  V30 1629 H 154.702 0.197158 0.634054 0
M  V30 1630 H 157.232 1.17455 1.67527 0
M  V30 1631 H 157.242 0.555072 4.04207 0
M  V30 1632 H 155.917 1.68246 3.8035 0
M  V30 1633 H 154.494 -0.147368 3.72609 0
M  V30 1634 N 156.679 -1.44442 0.630414 0
M  V30 1635 C 157.925 -2.02351 0.134816 0
M  V30 1636 C 158.258 -1.4947 -1.23986 0
M  V30 1637 O 157.533 -0.678475 -1.82283 0
M  V30 1638 C 157.816 -3.59898 0.120707 0
M  V30 1639 C 157.669 -4.23063 1.52767 0
M  V30 1640 C 158.988 -4.36585 -0.555127 0
M  V30 1641 H 156.107 -0.73527 0.0504646 0
M  V30 1642 H 158.749 -1.72022 0.806751 0
M  V30 1643 H 156.899 -3.85868 -0.451477 0
M  V30 1644 H 158.571 -4.08202 2.14869 0
M  V30 1645 H 156.814 -3.80586 2.08175 0
M  V30 1646 H 157.485 -5.32071 1.46984 0
M  V30 1647 H 159.961 -4.16044 -0.0685429 0
M  V30 1648 H 158.837 -5.46294 -0.534185 0
M  V30 1649 H 159.098 -4.11138 -1.62535 0
M  V30 1650 N 158.157 -0.370918 -1.53173 0
M  V30 1651 C 159.403 0.209976 -2.02313 0
M  V30 1652 C 159.758 1.45987 -1.25322 0
M  V30 1653 O 159.051 1.8856 -0.339965 0
M  V30 1654 C 159.245 0.549696 -3.53147 0
M  V30 1655 C 159.074 -0.665721 -4.44745 0
M  V30 1656 C 157.844 -1.17942 -4.91343 0
M  V30 1657 C 160.042 -1.53255 -4.90935 0
M  V30 1658 N 158.024 -2.35431 -5.66962 0
M  V30 1659 C 159.395 -2.55403 -5.64951 0
M  V30 1660 C 161.45 -1.5548 -4.73002 0
M  V30 1661 C 160.153 -3.5964 -6.22938 0
M  V30 1662 C 162.179 -2.58613 -5.31858 0
M  V30 1663 C 161.541 -3.59485 -6.05764 0
M  V30 1664 H 157.64 0.0394095 -0.781006 0
M  V30 1665 H 160.224 -0.516666 -1.8772 0
M  V30 1666 H 158.395 1.24541 -3.67891 0
M  V30 1667 H 160.127 1.11614 -3.89004 0
M  V30 1668 H 156.882 -0.743228 -4.67732 0
M  V30 1669 H 157.306 -2.94827 -6.09431 0
M  V30 1670 H 161.948 -0.788457 -4.15383 0
M  V30 1671 H 159.666 -4.37153 -6.79649 0
M  V30 1672 H 163.252 -2.61195 -5.19873 0
M  V30 1673 H 162.132 -4.3798 -6.50495 0
M  V30 1674 N 159.635 1.57281 -0.100228 0
M  V30 1675 C 161.051 1.57527 0.256416 0
M  V30 1676 C 161.251 1.11173 1.68056 0
M  V30 1677 O 160.307 0.79053 2.39806 0
M  V30 1678 C 161.62 3.00673 0.0401747 0
M  V30 1679 C 163.168 3.12815 0.107528 0
M  V30 1680 C 163.643 4.57929 -0.0807834 0
M  V30 1681 N 165.134 4.63193 -0.0261207 0
M  V30 1682 C 165.869 5.73212 -0.146999 0
M  V30 1683 N 165.365 6.92047 -0.322999 0
M  V30 1684 N 167.158 5.62031 -0.0879044 0
M  V30 1685 H 159.309 1.85718 -1.03065 0
M  V30 1686 H 161.572 0.857446 -0.404339 0
M  V30 1687 H 161.278 3.38804 -0.943649 0
M  V30 1688 H 161.152 3.69042 0.780262 0
M  V30 1689 H 163.539 2.74554 1.08186 0
M  V30 1690 H 163.62 2.47028 -0.664134 0
M  V30 1691 H 163.264 4.96886 -1.05201 0
M  V30 1692 H 163.194 5.21783 0.710635 0
M  V30 1693 H 165.685 3.77748 0.107161 0
M  V30 1694 H 165.998 7.7173 -0.406608 0
M  V30 1695 H 164.343 6.94074 -0.358733 0
M  V30 1696 H 167.534 4.68075 0.048498 0
M  V30 1697 H 167.707 6.47734 -0.185557 0
M  V30 1698 N 161.113 -0.173488 1.56642 0
M  V30 1699 C 162.362 -0.888758 1.81063 0
M  V30 1700 C 162.675 -1.83506 0.67712 0
M  V30 1701 O 163.881 -2.59254 0.806206 0
M  V30 1702 C 162.337 -1.63091 3.20826 0
M  V30 1703 C 161.945 -0.728357 4.4204 0
M  V30 1704 C 163.689 -2.33454 3.54541 0
M  V30 1705 C 161.596 -1.47062 5.72823 0
M  V30 1706 H 160.526 -0.335618 0.675186 0
M  V30 1707 H 163.177 -0.141712 1.82952 0
M  V30 1708 H 161.559 -2.42263 3.13248 0
M  V30 1709 H 162.733 0.0262449 4.60793 0
M  V30 1710 H 161.048 -0.134492 4.16183 0
M  V30 1711 H 163.645 -2.89578 4.49498 0
M  V30 1712 H 163.988 -3.08687 2.79317 0
M  V30 1713 H 164.521 -1.61227 3.63663 0
M  V30 1714 H 161.26 -0.760658 6.51072 0
M  V30 1715 H 160.78 -2.1986 5.58052 0
M  V30 1716 H 162.459 -2.01868 6.14702 0
M  V30 1717 N 162.591 -1.51276 -0.441967 0
M  V30 1718 C 163.521 -1.752 -1.54361 0
M  V30 1719 C 164.502 -0.601682 -1.59103 0
M  V30 1720 O 165.687 -0.843913 -1.74905 0
M  V30 1721 C 162.817 -1.87282 -2.92477 0
M  V30 1722 C 161.771 -3.02687 -3.02596 0
M  V30 1723 C 161.097 -2.99947 -4.42647 0
M  V30 1724 C 162.397 -4.4273 -2.77106 0
M  V30 1725 H 164.091 -2.67442 -1.34592 0
M  V30 1726 H 161.637 -1.28694 -0.646048 0
M  V30 1727 H 163.59 -2.02602 -3.695 0
M  V30 1728 H 162.314 -0.916844 -3.13467 0
M  V30 1729 H 160.973 -2.87065 -2.28012 0
M  V30 1730 H 160.621 -2.02136 -4.60597 0
M  V30 1731 H 160.321 -3.77439 -4.50348 0
M  V30 1732 H 161.845 -3.17354 -5.2165 0
M  V30 1733 H 163.259 -4.58727 -3.43864 0
M  V30 1734 H 161.656 -5.21893 -2.96222 0
M  V30 1735 H 162.726 -4.53087 -1.72744 0
M  V30 1736 N 164.069 0.697108 -1.41344 0
M  V30 1737 C 165.48 1.27697 -1.36199 0
M  V30 1738 C 165.831 1.9615 -0.0443463 0
M  V30 1739 O 164.956 1.98689 0.857419 0
M  V30 1740 C 165.551 2.32223 -2.46694 0
M  V30 1741 C 164.11 2.8579 -2.44952 0
M  V30 1742 C 163.257 1.59807 -2.26621 0
M  V30 1743 H 166.208 0.491968 -1.50882 0
M  V30 1744 H 166.229 3.1348 -2.15664 0
M  V30 1745 H 165.741 1.82373 -3.42581 0
M  V30 1746 H 163.842 3.3982 -1.52817 0
M  V30 1747 H 163.955 3.36325 -3.41207 0
M  V30 1748 H 162.319 1.8556 -1.7447 0
M  V30 1749 H 163.102 1.11956 -3.24532 0
M  V30 1750 N 165.547 1.27147 0.931209 0
M  V30 1751 C 166.477 1.12081 2.04842 0
M  V30 1752 C 167.458 0.0232364 1.70084 0
M  V30 1753 O 168.643 0.197085 1.93197 0
M  V30 1754 C 165.773 0.76354 3.38803 0
M  V30 1755 C 164.727 1.81396 3.87659 0
M  V30 1756 C 164.053 1.31075 5.18385 0
M  V30 1757 C 165.353 3.21739 4.11438 0
M  V30 1758 H 167.047 2.05537 2.17703 0
M  V30 1759 H 164.593 0.989603 1.04608 0
M  V30 1760 H 166.546 0.644982 4.16435 0
M  V30 1761 H 165.27 -0.206727 3.25945 0
M  V30 1762 H 163.929 1.92136 3.12217 0
M  V30 1763 H 163.577 0.330037 5.01916 0
M  V30 1764 H 163.277 2.013 5.52044 0
M  V30 1765 H 164.801 1.20506 5.98591 0
M  V30 1766 H 166.215 3.14019 4.79651 0
M  V30 1767 H 164.612 3.89644 4.56397 0
M  V30 1768 H 165.682 3.67054 3.16859 0
M  V30 1769 N 167.025 -1.13721 1.09112 0
M  V30 1770 C 168.272 -1.84924 0.825192 0
M  V30 1771 C 168.6 -1.83347 -0.649151 0
M  V30 1772 O 167.855 -1.26449 -1.49362 0
M  V30 1773 C 168.154 -3.32861 1.30146 0
M  V30 1774 C 167.82 -3.54621 2.78486 0
M  V30 1775 C 166.482 -3.60268 3.18999 0
M  V30 1776 C 168.834 -3.62855 3.74146 0
M  V30 1777 C 166.162 -3.71679 4.53951 0
M  V30 1778 C 168.514 -3.75793 5.08883 0
M  V30 1779 C 167.178 -3.79692 5.4899 0
M  V30 1780 H 166.448 -0.676684 0.301959 0
M  V30 1781 H 169.095 -1.3428 1.36533 0
M  V30 1782 H 167.4 -3.85835 0.681064 0
M  V30 1783 H 169.097 -3.86395 1.07236 0
M  V30 1784 H 165.687 -3.50879 2.46134 0
M  V30 1785 H 169.871 -3.57775 3.43963 0
M  V30 1786 H 165.127 -3.72963 4.84467 0
M  V30 1787 H 169.301 -3.81107 5.82864 0
M  V30 1788 H 166.928 -3.88287 6.53558 0
M  V30 1789 N 168.503 -0.877838 -1.30888 0
M  V30 1790 C 169.435 -0.296607 -2.27273 0
M  V30 1791 C 170.448 0.544799 -1.53414 0
M  V30 1792 O 171.637 0.365511 -1.74718 0
M  V30 1793 C 168.737 0.597481 -3.33592 0
M  V30 1794 C 167.91 -0.213251 -4.3688 0
M  V30 1795 C 166.969 0.610208 -5.2265 0
M  V30 1796 O 165.995 0.035441 -5.69189 0
M  V30 1797 N 167.197 1.92071 -5.47804 0
M  V30 1798 H 169.962 -1.12492 -2.77787 0
M  V30 1799 H 167.523 -0.740105 -1.43993 0
M  V30 1800 H 169.515 1.15425 -3.87891 0
M  V30 1801 H 168.085 1.32647 -2.83061 0
M  V30 1802 H 167.305 -0.951466 -3.82545 0
M  V30 1803 H 168.593 -0.769262 -5.02951 0
M  V30 1804 H 167.991 2.4107 -5.11763 0
M  V30 1805 H 166.548 2.42508 -6.05007 0
M  V30 1806 N 169.982 1.44106 -0.638065 0
M  V30 1807 C 171.23 2.01579 -0.145043 0
M  V30 1808 C 171.551 1.50496 1.24 0
M  V30 1809 O 170.821 0.711374 1.82527 0
M  V30 1810 H 169.401 0.745282 -0.05063 0
M  V30 1811 H 172.063 1.76516 -0.826327 0
M  V30 1812 H 171.159 3.11877 -0.118039 0
M  V30 1813 N 171.46 0.379036 1.52974 0
M  V30 1814 C 172.706 -0.206727 2.01744 0
M  V30 1815 C 173.039 -1.47314 1.26539 0
M  V30 1816 O 172.314 -1.91084 0.362903 0
M  V30 1817 C 172.597 -0.485066 3.56818 0
M  V30 1818 C 172.45 0.795919 4.42702 0
M  V30 1819 C 173.769 -1.28003 4.21074 0
M  V30 1820 H 170.888 -0.0736607 0.73331 0
M  V30 1821 H 173.53 0.506581 1.83122 0
M  V30 1822 H 171.68 -1.09272 3.72816 0
M  V30 1823 H 173.352 1.43307 4.38476 0
M  V30 1824 H 171.595 1.41344 4.10127 0
M  V30 1825 H 172.266 0.555947 5.49193 0
M  V30 1826 H 174.742 -0.765867 4.08991 0
M  V30 1827 H 173.618 -1.44352 5.29579 0
M  V30 1828 H 173.879 -2.29236 3.78026 0
M  V30 1829 N 172.938 -1.57226 0.108567 0
M  V30 1830 C 174.186 -1.94448 -0.550853 0
M  V30 1831 C 174.507 -0.992074 -1.67878 0
M  V30 1832 O 173.777 -0.0465 -1.95845 0
M  V30 1833 H 172.357 -0.717897 -0.206479 0
M  V30 1834 H 175.019 -1.94112 0.175062 0
M  V30 1835 H 174.115 -2.97218 -0.952259 0
M  V30 1836 N 174.416 0.165178 -1.56732 0
M  V30 1837 C 175.665 0.879143 -1.81532 0
M  V30 1838 C 175.978 1.83144 -0.686842 0
M  V30 1839 O 177.184 2.58823 -0.819944 0
M  V30 1840 C 175.64 1.61388 -3.21686 0
M  V30 1841 C 175.248 0.704904 -4.4242 0
M  V30 1842 C 176.992 2.3157 -3.55774 0
M  V30 1843 C 174.899 1.44022 -5.73595 0
M  V30 1844 H 173.829 0.332033 -0.676957 0
M  V30 1845 H 176.48 0.132008 -1.83025 0
M  V30 1846 H 174.862 2.40599 -3.14529 0
M  V30 1847 H 176.036 -0.0506815 -4.60772 0
M  V30 1848 H 174.351 0.112419 -4.16248 0
M  V30 1849 H 176.948 2.8719 -4.51028 0
M  V30 1850 H 177.291 3.07201 -2.8095 0
M  V30 1851 H 177.824 1.59297 -3.64513 0
M  V30 1852 H 174.563 0.72612 -6.51466 0
M  V30 1853 H 174.083 2.16898 -5.5921 0
M  V30 1854 H 175.762 1.98606 -6.15764 0
M  V30 1855 N 175.894 1.51508 0.433938 0
M  V30 1856 C 177.122 1.68157 1.20543 0
M  V30 1857 C 177.537 0.380362 1.84929 0
M  V30 1858 O 176.894 -0.641446 1.70856 0
M  V30 1859 C 176.945 2.79965 2.28696 0
M  V30 1860 O 176.666 4.05045 1.66943 0
M  V30 1861 C 178.167 3.07912 3.18912 0
M  V30 1862 H 175.387 0.56421 0.363191 0
M  V30 1863 H 177.931 1.97941 0.513754 0
M  V30 1864 H 176.086 2.5277 2.93574 0
M  V30 1865 H 176.5 4.67165 2.38448 0
M  V30 1866 H 177.974 3.89719 3.90926 0
M  V30 1867 H 178.451 2.20456 3.79863 0
M  V30 1868 H 179.057 3.36779 2.59731 0
M  V30 1869 N 177.372 -0.689602 1.41712 0
M  V30 1870 C 178.305 -1.81403 1.3845 0
M  V30 1871 C 179.283 -1.60653 0.250874 0
M  V30 1872 O 180.467 -1.83323 0.43874 0
M  V30 1873 C 177.594 -3.18176 1.1611 0
M  V30 1874 C 176.64 -3.57705 2.3227 0
M  V30 1875 S 177.473 -3.61827 3.94767 0
M  V30 1876 C 178.629 -5.01318 3.74742 0
M  V30 1877 H 178.862 -1.83893 2.33603 0
M  V30 1878 H 176.395 -0.858878 1.28307 0
M  V30 1879 H 178.353 -3.97132 1.03907 0
M  V30 1880 H 177.014 -3.13288 0.225668 0
M  V30 1881 H 176.207 -4.57082 2.12349 0
M  V30 1882 H 175.809 -2.86073 2.40911 0
M  V30 1883 H 178.101 -5.88986 3.34817 0
M  V30 1884 H 179.044 -5.26283 4.73743 0
M  V30 1885 H 179.452 -4.73138 3.07898 0
M  V30 1886 N 178.85 -1.27639 -0.924453 0
M  V30 1887 C 180.096 -1.14336 -1.67497 0
M  V30 1888 C 180.429 0.309465 -1.91718 0
M  V30 1889 O 179.704 1.22608 -1.50989 0
M  V30 1890 C 179.987 -1.93096 -3.0395 0
M  V30 1891 C 179.84 -3.46381 -2.8695 0
M  V30 1892 C 181.159 -1.73798 -4.0433 0
M  V30 1893 H 178.278 -0.416728 -0.607871 0
M  V30 1894 H 180.92 -1.56832 -1.07256 0
M  V30 1895 H 179.07 -1.56982 -3.55372 0
M  V30 1896 H 180.742 -3.92343 -2.42621 0
M  V30 1897 H 178.985 -3.72557 -2.22225 0
M  V30 1898 H 179.656 -3.96735 -3.83804 0
M  V30 1899 H 182.132 -2.05293 -3.61931 0
M  V30 1900 H 181.008 -2.31294 -4.97789 0
M  V30 1901 H 181.269 -0.686725 -4.36734 0
M  V30 1902 N 180.328 1.1314 -1.09713 0
M  V30 1903 C 181.258 2.20748 -0.761102 0
M  V30 1904 C 182.239 1.68061 0.262566 0
M  V30 1905 O 183.424 1.93765 0.129977 0
M  V30 1906 C 180.554 3.46812 -0.184054 0
M  V30 1907 C 179.508 4.12606 -1.13757 0
M  V30 1908 C 178.834 5.33031 -0.422083 0
M  V30 1909 C 180.134 4.59603 -2.48118 0
M  V30 1910 H 181.828 2.49113 -1.66082 0
M  V30 1911 H 179.374 1.19734 -0.799987 0
M  V30 1912 H 181.327 4.21353 0.0631215 0
M  V30 1913 H 180.051 3.17851 0.750868 0
M  V30 1914 H 178.71 3.40036 -1.37007 0
M  V30 1915 H 178.358 5.00335 0.517072 0
M  V30 1916 H 178.058 5.77999 -1.05788 0
M  V30 1917 H 179.582 6.10325 -0.183277 0
M  V30 1918 H 180.996 5.25552 -2.29059 0
M  V30 1919 H 179.393 5.15321 -3.07514 0
M  V30 1920 H 180.463 3.73971 -3.08665 0
M  V30 1921 N 181.806 0.884767 1.30421 0
M  V30 1922 C 183.055 0.499164 1.95426 0
M  V30 1923 C 183.368 -0.95645 1.70621 0
M  V30 1924 O 184.574 -1.44889 2.29607 0
M  V30 1925 C 183.03 0.84177 3.49917 0
M  V30 1926 C 182.638 2.31514 3.83543 0
M  V30 1927 C 184.382 0.525355 4.21237 0
M  V30 1928 C 182.289 2.59939 5.31212 0
M  V30 1929 H 181.219 0.182944 0.73147 0
M  V30 1930 H 183.87 1.07971 1.48373 0
M  V30 1931 H 182.252 0.190311 3.95542 0
M  V30 1932 H 183.426 3.0109 3.48829 0
M  V30 1933 H 181.741 2.59907 3.25326 0
M  V30 1934 H 184.338 0.714762 5.29901 0
M  V30 1935 H 184.681 -0.535222 4.12845 0
M  V30 1936 H 185.214 1.134 3.81294 0
M  V30 1937 H 181.953 3.64736 5.44654 0
M  V30 1938 H 181.473 1.94972 5.67227 0
M  V30 1939 H 183.152 2.45429 5.98643 0
M  V30 1940 N 183.284 -1.43765 0.645699 0
M  V30 1941 C 184.509 -2.06767 0.161883 0
M  V30 1942 C 184.934 -1.48034 -1.16049 0
M  V30 1943 O 184.292 -0.587369 -1.71522 0
M  V30 1944 C 184.34 -3.60519 0.0762003 0
M  V30 1945 O 183.444 -4.00982 -0.963721 0
M  V30 1946 H 182.785 -0.657675 0.091429 0
M  V30 1947 H 185.315 -1.84397 0.886499 0
M  V30 1948 H 185.325 -4.07853 -0.109604 0
M  V30 1949 H 184 -4.02646 1.04157 0
M  V30 1950 H 182.577 -3.65253 -0.751312 0
M  V30 1951 N 184.763 -0.387143 -1.52771 0
M  V30 1952 C 186.012 0.19697 -2.00736 0
M  V30 1953 C 186.325 1.48082 -1.27793 0
M  V30 1954 O 187.531 2.14485 -1.66458 0
M  V30 1955 C 185.987 0.401568 -3.57653 0
M  V30 1956 C 185.595 -0.868907 -4.39493 0
M  V30 1957 C 187.339 0.942164 -4.13912 0
M  V30 1958 C 185.246 -0.632705 -5.88006 0
M  V30 1959 H 184.176 0.0773827 -0.750019 0
M  V30 1960 H 186.827 -0.50921 -1.76293 0
M  V30 1961 H 185.209 1.16954 -3.78335 0
M  V30 1962 H 186.383 -1.64133 -4.30577 0
M  V30 1963 H 184.698 -1.33429 -3.94443 0
M  V30 1964 H 187.295 1.13455 -5.22525 0
M  V30 1965 H 187.638 1.9106 -3.69867 0
M  V30 1966 H 188.171 0.233814 -3.97112 0
M  V30 1967 H 184.91 -1.57208 -6.36369 0
M  V30 1968 H 184.43 0.100825 -5.99715 0
M  V30 1969 H 186.109 -0.26642 -6.46451 0
M  V30 1970 N 186.241 1.57166 -0.116904 0
M  V30 1971 C 187.488 1.95123 0.541603 0
M  V30 1972 C 187.816 1.00006 1.6682 0
M  V30 1973 O 187.071 0.0235658 1.95686 0
M  V30 1974 C 187.37 3.39508 1.11664 0
M  V30 1975 C 187.036 4.50762 0.111606 0
M  V30 1976 C 185.698 4.80918 -0.164758 0
M  V30 1977 C 188.05 5.18036 -0.573438 0
M  V30 1978 C 185.378 5.75666 -1.13249 0
M  V30 1979 C 187.73 6.13824 -1.52978 0
M  V30 1980 C 186.394 6.42374 -1.81415 0
M  V30 1981 H 185.664 0.714005 0.198187 0
M  V30 1982 H 188.311 1.9048 -0.197365 0
M  V30 1983 H 186.616 3.40835 1.93232 0
M  V30 1984 H 188.313 3.66189 1.63422 0
M  V30 1985 H 184.903 4.27272 0.337192 0
M  V30 1986 H 189.087 4.94896 -0.373092 0
M  V30 1987 H 184.343 5.96092 -1.35958 0
M  V30 1988 H 188.517 6.65039 -2.06629 0
M  V30 1989 H 186.144 7.15599 -2.56557 0
M  V30 1990 N 187.719 -0.156864 1.56817 0
M  V30 1991 C 188.965 -0.872416 1.83076 0
M  V30 1992 C 189.298 -1.81261 0.697001 0
M  V30 1993 O 188.573 -1.92171 -0.30008 0
M  V30 1994 C 188.856 -1.65551 3.19789 0
M  V30 1995 C 188.709 -0.737467 4.43713 0
M  V30 1996 C 190.028 -2.62012 3.53606 0
M  V30 1997 H 187.147 -0.315715 0.665953 0
M  V30 1998 H 189.789 -0.138004 1.89498 0
M  V30 1999 H 187.939 -2.28159 3.14445 0
M  V30 2000 H 189.611 -0.123143 4.61136 0
M  V30 2001 H 187.854 -0.0464067 4.33775 0
M  V30 2002 H 188.525 -1.32122 5.35955 0
M  V30 2003 H 191.001 -2.09525 3.59497 0
M  V30 2004 H 189.877 -3.13861 4.50314 0
M  V30 2005 H 190.138 -3.42902 2.79053 0
M  V30 2006 N 189.197 -1.51736 -0.425897 0
M  V30 2007 C 190.425 -1.68794 -1.1965 0
M  V30 2008 C 190.84 -0.390164 -1.84725 0
M  V30 2009 O 190.197 0.632376 -1.71194 0
M  V30 2010 C 190.248 -2.81174 -2.27208 0
M  V30 2011 O 189.969 -4.05925 -1.64793 0
M  V30 2012 C 191.47 -3.09599 -3.17275 0
M  V30 2013 H 188.69 -0.566128 -0.360194 0
M  V30 2014 H 191.234 -1.98211 -0.503249 0
M  V30 2015 H 189.389 -2.54324 -2.9223 0
M  V30 2016 H 189.803 -4.68423 -2.35967 0
M  V30 2017 H 191.277 -3.91786 -3.88854 0
M  V30 2018 H 191.754 -2.22468 -3.78688 0
M  V30 2019 H 192.36 -3.38151 -2.57941 0
M  V30 2020 N 190.675 0.682077 -1.42076 0
M  V30 2021 C 191.924 1.43786 -1.41451 0
M  V30 2022 C 192.237 1.95574 -0.0317074 0
M  V30 2023 O 193.443 2.71326 0.0971462 0
M  V30 2024 C 191.899 2.60071 -2.48779 0
M  V30 2025 C 191.507 2.15013 -3.93031 0
M  V30 2026 C 193.251 3.37626 -2.57311 0
M  V30 2027 C 191.158 3.28336 -4.91883 0
M  V30 2028 H 190.088 0.540143 -0.526082 0
M  V30 2029 H 192.739 0.739157 -1.67955 0
M  V30 2030 H 191.121 3.32275 -2.15429 0
M  V30 2031 H 192.295 1.5001 -4.35699 0
M  V30 2032 H 190.61 1.50416 -3.88284 0
M  V30 2033 H 193.207 4.22012 -3.28345 0
M  V30 2034 H 193.55 3.83727 -1.61429 0
M  V30 2035 H 194.083 2.72488 -2.89819 0
M  V30 2036 H 190.822 2.87234 -5.89217 0
M  V30 2037 H 190.342 3.92145 -4.53853 0
M  V30 2038 H 192.021 3.93913 -5.13265 0
M  V30 2039 N 192.153 1.28127 0.917671 0
M  V30 2040 C 193.383 1.17722 1.6978 0
M  V30 2041 C 193.791 -0.267261 1.87303 0
M  V30 2042 O 193.134 -1.19286 1.39702 0
M  V30 2043 C 193.196 1.79958 3.11216 0
M  V30 2044 C 192.86 3.29187 3.16993 0
M  V30 2045 C 193.857 4.25679 2.98485 0
M  V30 2046 C 191.542 3.70075 3.39632 0
M  V30 2047 C 193.536 5.61035 3.02521 0
M  V30 2048 C 191.223 5.05557 3.433 0
M  V30 2049 C 192.221 6.00847 3.24764 0
M  V30 2050 O 191.909 7.33859 3.28187 0
M  V30 2051 H 191.641 0.409788 0.537634 0
M  V30 2052 H 194.195 1.69694 1.15728 0
M  V30 2053 H 192.425 1.22475 3.66793 0
M  V30 2054 H 194.114 1.64125 3.71238 0
M  V30 2055 H 194.88 3.95426 2.80826 0
M  V30 2056 H 190.759 2.96373 3.53106 0
M  V30 2057 H 194.303 6.35388 2.87971 0
M  V30 2058 H 190.2 5.35462 3.60486 0
M  V30 2059 H 190.968 7.42436 3.44575 0
M  V30 2060 N 193.631 -1.12557 1.10312 0
M  V30 2061 C 194.861 -1.87592 0.865617 0
M  V30 2062 C 195.269 -1.79851 -0.587389 0
M  V30 2063 O 194.612 -1.16949 -1.41664 0
M  V30 2064 C 194.674 -3.37665 1.23381 0
M  V30 2065 C 194.338 -3.69181 2.69359 0
M  V30 2066 C 195.335 -3.67652 3.67597 0
M  V30 2067 C 193.02 -3.98555 3.05711 0
M  V30 2068 C 195.014 -3.95053 5.00212 0
M  V30 2069 C 192.701 -4.25616 4.38514 0
M  V30 2070 C 193.699 -4.23851 5.35574 0
M  V30 2071 O 193.387 -4.50242 6.65986 0
M  V30 2072 H 193.119 -0.600442 0.310557 0
M  V30 2073 H 195.673 -1.4335 1.47105 0
M  V30 2074 H 193.903 -3.82454 0.571467 0
M  V30 2075 H 195.592 -3.94041 0.973994 0
M  V30 2076 H 196.358 -3.45024 3.40857 0
M  V30 2077 H 192.237 -3.99071 2.30789 0
M  V30 2078 H 195.781 -3.93591 5.75962 0
M  V30 2079 H 191.678 -4.47718 4.64994 0
M  V30 2080 H 192.446 -4.67867 6.71597 0
M  V30 2081 N 195.109 -0.891671 -1.2995 0
M  V30 2082 C 196.057 -0.353066 -2.29905 0
M  V30 2083 C 197.051 0.543509 -1.60444 0
M  V30 2084 O 198.257 0.4272 -1.74857 0
M  V30 2085 H 194.632 -0.095531 -0.745907 0
M  V30 2086 H 196.603 -1.20961 -2.72784 0
M  V30 2087 C 195.352 0.411475 -3.45257 0
M  V30 2088 H 194.675 -0.269182 -3.98893 0
M  V30 2089 H 196.115 0.753328 -4.17254 0
M  V30 2090 C 194.574 1.6111 -2.9588 0
M  V30 2091 O 195.104 2.71045 -2.96475 0
M  V30 2092 N 193.31 1.45054 -2.51809 0
M  V30 2093 H 192.857 0.556175 -2.51524 0
M  V30 2094 H 192.815 2.25453 -2.1913 0
M  V30 2095 N 196.587 1.43421 -0.653314 0
M  V30 2096 C 197.833 2.02111 -0.166992 0
M  V30 2097 C 198.166 1.51423 1.21592 0
M  V30 2098 O 197.441 0.707389 1.8118 0
M  V30 2099 C 197.724 3.5966 -0.177948 0
M  V30 2100 C 197.577 4.20579 -1.59478 0
M  V30 2101 C 198.896 4.37413 0.4856 0
M  V30 2102 H 196.015 0.734374 -0.0621557 0
M  V30 2103 H 198.657 1.70717 -0.834016 0
M  V30 2104 H 196.807 3.86537 0.390032 0
M  V30 2105 H 198.479 4.04732 -2.21336 0
M  V30 2106 H 196.722 3.77226 -2.14204 0
M  V30 2107 H 197.393 5.29665 -1.5543 0
M  V30 2108 H 199.869 4.161 0.00234528 0
M  V30 2109 H 198.745 5.47075 0.447207 0
M  V30 2110 H 199.006 4.13672 1.55974 0
M  V30 2111 N 198.065 0.39524 1.52563 0
M  V30 2112 C 199.314 -0.186321 2.00838 0
M  V30 2113 C 199.627 -1.47402 1.28577 0
M  V30 2114 O 200.833 -2.13599 1.67593 0
M  V30 2115 C 199.289 -0.382595 3.57861 0
M  V30 2116 C 198.897 0.892202 4.39026 0
M  V30 2117 C 200.641 -0.9202 4.14406 0
M  V30 2118 C 198.548 0.66388 5.87662 0
M  V30 2119 H 197.478 -0.0734041 0.750418 0
M  V30 2120 H 200.129 0.518552 1.76021 0
M  V30 2121 H 198.511 -1.14946 3.7895 0
M  V30 2122 H 199.685 1.66414 4.29701 0
M  V30 2123 H 198 1.35519 3.9373 0
M  V30 2124 H 200.597 -1.10683 5.23119 0
M  V30 2125 H 200.94 -1.89096 3.70875 0
M  V30 2126 H 201.473 -0.212751 3.97231 0
M  V30 2127 H 198.212 1.6058 6.35527 0
M  V30 2128 H 197.732 -0.0690193 5.9976 0
M  V30 2129 H 199.411 0.300699 6.46301 0
M  V30 2130 N 199.544 -1.57102 0.125237 0
M  V30 2131 C 200.793 -1.94582 -0.531095 0
M  V30 2132 C 201.106 -1.01126 -1.6743 0
M  V30 2133 O 202.312 -1.28097 -2.39381 0
M  V30 2134 C 200.768 -3.45839 -0.996164 0
M  V30 2135 C 200.376 -4.47842 0.118926 0
M  V30 2136 C 202.12 -3.92227 -1.62352 0
M  V30 2137 C 200.027 -5.90284 -0.363192 0
M  V30 2138 H 198.957 -0.726391 -0.20217 0
M  V30 2139 H 201.608 -1.82339 0.206092 0
M  V30 2140 H 199.99 -3.53338 -1.78796 0
M  V30 2141 H 201.164 -4.52018 0.895358 0
M  V30 2142 H 199.479 -4.11243 0.653324 0
M  V30 2143 H 202.076 -4.96069 -1.99548 0
M  V30 2144 H 202.419 -3.32552 -2.50429 0
M  V30 2145 H 202.952 -3.87554 -0.897019 0
M  V30 2146 H 199.691 -6.53728 0.481679 0
M  V30 2147 H 199.211 -5.89515 -1.10597 0
M  V30 2148 H 200.89 -6.41752 -0.822377 0
M  V30 2149 N 201.022 0.148545 -1.56898 0
M  V30 2150 C 201.985 1.16736 -1.97244 0
M  V30 2151 C 202.985 1.35947 -0.858777 0
M  V30 2152 O 204.175 1.32966 -1.12542 0
M  V30 2153 C 201.307 2.52798 -2.28705 0
M  V30 2154 H 202.5 0.821279 -2.88435 0
M  V30 2155 H 200.053 0.391831 -1.51309 0
M  V30 2156 H 200.788 2.92381 -1.403 0
M  V30 2157 H 200.573 2.40216 -3.09901 0
M  V30 2158 H 202.063 3.26179 -2.60762 0
M  V30 2159 N 202.5 1.5196 0.417844 0
M  V30 2160 C 203.73 1.69181 1.18581 0
M  V30 2161 C 204.138 0.397104 1.84986 0
M  V30 2162 O 203.481 -0.636011 1.72339 0
M  V30 2163 C 203.543 2.76497 2.29759 0
M  V30 2164 C 203.207 4.18514 1.83563 0
M  V30 2165 C 204.204 5.02648 1.32821 0
M  V30 2166 C 201.889 4.64708 1.90661 0
M  V30 2167 C 203.883 6.31044 0.897894 0
M  V30 2168 C 201.57 5.93096 1.47241 0
M  V30 2169 C 202.568 6.76093 0.968891 0
M  V30 2170 O 202.256 8.02078 0.540924 0
M  V30 2171 H 201.988 0.570457 0.362705 0
M  V30 2172 H 204.542 1.99249 0.498885 0
M  V30 2173 H 202.772 2.41786 3.01789 0
M  V30 2174 H 204.461 2.82403 2.91553 0
M  V30 2175 H 205.227 4.68154 1.26716 0
M  V30 2176 H 201.106 4.00216 2.28797 0
M  V30 2177 H 204.65 6.95776 0.504192 0
M  V30 2178 H 200.547 6.271 1.53022 0
M  V30 2179 H 201.315 8.15794 0.66502 0
M  V30 2180 N 203.978 -0.674533 1.42435 0
M  V30 2181 C 205.203 -1.46784 1.46524 0
M  V30 2182 C 205.628 -1.87938 0.078066 0
M  V30 2183 O 204.986 -1.56014 -0.92354 0
M  V30 2184 C 205.034 -2.69307 2.39805 0
M  V30 2185 O 204.138 -3.67587 1.86959 0
M  V30 2186 H 203.479 -0.440959 0.496439 0
M  V30 2187 H 206.009 -0.827326 1.87127 0
M  V30 2188 H 206.019 -3.17374 2.56393 0
M  V30 2189 H 204.694 -2.38692 3.40586 0
M  V30 2190 H 203.271 -3.2662 1.79927 0
M  V30 2191 N 205.456 -1.28612 -0.910864 0
M  V30 2192 C 206.386 -1.15326 -2.03032 0
M  V30 2193 C 207.367 -0.0502924 -1.70026 0
M  V30 2194 O 208.552 -0.227797 -1.92859 0
M  V30 2195 C 205.682 -0.817343 -3.37545 0
M  V30 2196 C 204.636 -1.8754 -3.84724 0
M  V30 2197 C 203.962 -1.39305 -5.16235 0
M  V30 2198 C 205.262 -3.28244 -4.06267 0
M  V30 2199 H 206.956 -2.08975 -2.14406 0
M  V30 2200 H 204.502 -1.00612 -1.03021 0
M  V30 2201 H 206.455 -0.711151 -4.15356 0
M  V30 2202 H 205.179 0.154846 -3.26233 0
M  V30 2203 H 203.838 -1.97079 -3.09121 0
M  V30 2204 H 203.486 -0.409846 -5.01328 0
M  V30 2205 H 203.186 -2.10057 -5.48771 0
M  V30 2206 H 204.71 -1.30014 -5.96598 0
M  V30 2207 H 206.124 -3.21611 -4.74594 0
M  V30 2208 H 204.521 -3.96855 -4.5014 0
M  V30 2209 H 205.591 -3.72048 -3.10979 0
M  V30 2210 N 206.934 1.1197 -1.10907 0
M  V30 2211 C 208.164 1.8713 -0.875553 0
M  V30 2212 C 208.572 1.8016 0.577843 0
M  V30 2213 O 207.915 1.17699 1.41042 0
M  V30 2214 C 207.977 3.37005 -1.2517 0
M  V30 2215 C 207.641 3.67748 -2.71313 0
M  V30 2216 C 208.638 3.65698 -3.69542 0
M  V30 2217 C 206.323 3.96928 -3.07821 0
M  V30 2218 C 208.317 3.92395 -5.023 0
M  V30 2219 C 206.004 4.23284 -4.40765 0
M  V30 2220 C 207.002 4.21005 -5.37814 0
M  V30 2221 O 206.69 4.46704 -6.68364 0
M  V30 2222 H 206.422 0.598786 -0.313737 0
M  V30 2223 H 208.976 1.42568 -1.47863 0
M  V30 2224 H 207.206 3.82146 -0.591741 0
M  V30 2225 H 208.895 3.93519 -0.994877 0
M  V30 2226 H 209.661 3.43211 -3.42682 0
M  V30 2227 H 205.54 3.97841 -2.32902 0
M  V30 2228 H 209.084 3.90531 -5.78041 0
M  V30 2229 H 204.981 4.45246 -4.67361 0
M  V30 2230 H 205.749 4.64299 -6.74069 0
M  V30 2231 N 208.412 0.89855 1.29475 0
M  V30 2232 C 209.642 0.538479 1.99459 0
M  V30 2233 C 210.05 -0.880922 1.67441 0
M  V30 2234 O 209.393 -1.59283 0.915127 0
M  V30 2235 C 209.455 0.649564 3.53583 0
M  V30 2236 C 209.119 2.03573 4.09154 0
M  V30 2237 C 210.116 3.00675 4.24135 0
M  V30 2238 C 207.801 2.3448 4.44212 0
M  V30 2239 C 209.795 4.26809 4.73405 0
M  V30 2240 C 207.482 3.60857 4.93179 0
M  V30 2241 C 208.48 4.56836 5.0773 0
M  V30 2242 O 208.168 5.80969 5.55635 0
M  V30 2243 H 207.9 0.205372 0.644048 0
M  V30 2244 H 210.454 1.20958 1.66007 0
M  V30 2245 H 208.684 -0.0785592 3.8662 0
M  V30 2246 H 210.373 0.29881 4.04799 0
M  V30 2247 H 211.139 2.78112 3.97339 0
M  V30 2248 H 207.018 1.60534 4.32145 0
M  V30 2249 H 210.562 5.0173 4.84678 0
M  V30 2250 H 206.459 3.83251 5.19412 0
M  V30 2251 H 207.227 5.83542 5.73952 0
M  V30 2252 N 209.89 -1.43072 0.660911 0
M  V30 2253 C 210.823 -2.28074 -0.0758862 0
M  V30 2254 C 211.801 -1.40271 -0.822362 0
M  V30 2255 O 212.985 -1.69713 -0.820352 0
M  V30 2256 C 210.112 -3.19843 -1.11437 0
M  V30 2257 C 209.158 -4.23957 -0.465069 0
M  V30 2258 S 209.991 -5.29978 0.767078 0
M  V30 2259 C 211.147 -6.25314 -0.270682 0
M  V30 2260 H 211.38 -2.90216 0.645139 0
M  V30 2261 H 208.913 -1.47697 0.449995 0
M  V30 2262 H 210.871 -3.73257 -1.70849 0
M  V30 2263 H 209.532 -2.56863 -1.80776 0
M  V30 2264 H 208.725 -4.88299 -1.24819 0
M  V30 2265 H 208.327 -3.73959 0.0551242 0
M  V30 2266 H 210.619 -6.67932 -1.13459 0
M  V30 2267 H 211.562 -7.07293 0.337916 0
M  V30 2268 H 211.97 -5.61195 -0.609937 0
M  V30 2269 N 211.368 -0.403325 -1.52352 0
M  V30 2270 C 212.615 0.174347 -2.01748 0
M  V30 2271 C 212.943 1.45636 -1.2892 0
M  V30 2272 O 212.198 1.9193 -0.382258 0
M  V30 2273 C 212.497 0.474665 -3.54234 0
M  V30 2274 C 212.163 -0.717458 -4.45155 0
M  V30 2275 C 210.825 -1.04447 -4.69728 0
M  V30 2276 C 213.177 -1.51432 -4.98716 0
M  V30 2277 C 210.505 -2.16963 -5.45109 0
M  V30 2278 C 212.857 -2.6302 -5.75329 0
M  V30 2279 C 211.521 -2.96213 -5.98175 0
M  V30 2280 H 210.791 0.0637981 -0.738248 0
M  V30 2281 H 213.438 -0.543553 -1.83624 0
M  V30 2282 H 211.743 1.27406 -3.70506 0
M  V30 2283 H 213.44 0.934496 -3.89959 0
M  V30 2284 H 210.03 -0.452596 -4.26204 0
M  V30 2285 H 214.214 -1.27491 -4.79645 0
M  V30 2286 H 209.47 -2.43034 -5.61021 0
M  V30 2287 H 213.644 -3.25158 -6.15829 0
M  V30 2288 H 211.271 -3.83516 -6.56368 0
M  V30 2289 N 212.846 1.57033 -0.133567 0
M  V30 2290 C 213.809 2.14897 0.796995 0
M  V30 2291 C 214.809 1.0874 1.18458 0
M  V30 2292 O 215.999 1.34446 1.1077 0
M  V30 2293 C 213.131 2.70112 2.07973 0
M  V30 2294 H 214.324 2.98457 0.293873 0
M  V30 2295 H 211.877 1.55871 0.115787 0
M  V30 2296 H 212.612 1.9018 2.62682 0
M  V30 2297 H 212.397 3.47764 1.81115 0
M  V30 2298 H 213.887 3.14738 2.74462 0
M  V30 2299 N 214.325 -0.140222 1.56975 0
M  V30 2300 C 215.55 -0.870414 1.88251 0
M  V30 2301 C 215.975 -1.73637 0.723312 0
M  V30 2302 O 215.333 -1.78329 -0.32689 0
M  V30 2303 C 215.381 -1.69737 3.18154 0
M  V30 2304 O 214.485 -2.80229 3.02565 0
M  V30 2305 H 213.826 -0.242025 0.61832 0
M  V30 2306 H 216.356 -0.128999 2.04193 0
M  V30 2307 H 216.366 -2.09099 3.50345 0
M  V30 2308 H 215.041 -1.06152 4.02125 0
M  V30 2309 H 213.618 -2.44224 2.81796 0
M  V30 2310 N 215.803 -1.52179 -0.40978 0
M  V30 2311 C 217.05 -1.66206 -1.15679 0
M  V30 2312 C 217.378 -0.391674 -1.90516 0
M  V30 2313 O 216.633 0.62533 -1.8544 0
M  V30 2314 C 216.932 -2.83428 -2.17723 0
M  V30 2315 C 216.598 -4.21672 -1.59699 0
M  V30 2316 C 215.26 -4.59274 -1.43599 0
M  V30 2317 C 217.612 -5.07825 -1.17317 0
M  V30 2318 C 214.94 -5.80709 -0.836328 0
M  V30 2319 C 217.292 -6.29864 -0.587691 0
M  V30 2320 C 215.956 -6.66216 -0.413818 0
M  V30 2321 H 215.226 -0.608192 -0.423301 0
M  V30 2322 H 217.873 -1.86279 -0.444097 0
M  V30 2323 H 216.178 -2.57687 -2.95135 0
M  V30 2324 H 217.875 -2.91477 -2.75394 0
M  V30 2325 H 214.465 -3.9204 -1.73213 0
M  V30 2326 H 218.649 -4.79359 -1.28565 0
M  V30 2327 H 213.905 -6.07498 -0.689626 0
M  V30 2328 H 218.079 -6.95948 -0.250894 0
M  V30 2329 H 215.706 -7.60182 0.0529471 0
M  V30 2330 N 217.281 0.66697 -1.42791 0
M  V30 2331 C 218.213 1.7925 -1.42836 0
M  V30 2332 C 219.226 1.59496 -0.326333 0
M  V30 2333 O 220.415 1.6847 -0.589916 0
M  V30 2334 C 217.515 3.16476 -1.21229 0
M  V30 2335 C 216.688 3.63011 -2.44013 0
M  V30 2336 C 215.747 4.78993 -2.17834 0
M  V30 2337 O 214.773 4.89137 -2.91091 0
M  V30 2338 N 215.975 5.68248 -1.18635 0
M  V30 2339 H 218.74 1.79695 -2.39854 0
M  V30 2340 H 216.301 0.850338 -1.37771 0
M  V30 2341 H 218.293 3.91734 -1.01621 0
M  V30 2342 H 216.863 3.10884 -0.32706 0
M  V30 2343 H 216.083 2.78346 -2.79137 0
M  V30 2344 H 217.371 3.90845 -3.25757 0
M  V30 2345 H 216.769 5.62712 -0.580615 0
M  V30 2346 H 215.326 6.43285 -1.05013 0
M  V30 2347 N 218.759 1.29093 0.90403 0
M  V30 2348 C 219.984 1.19809 1.69294 0
M  V30 2349 C 220.409 -0.238481 1.86582 0
M  V30 2350 O 219.767 -1.1723 1.383 0
M  V30 2351 C 219.815 1.91202 3.05736 0
M  V30 2352 O 218.919 1.22611 3.93752 0
M  V30 2353 H 218.26 0.415385 0.518027 0
M  V30 2354 H 220.79 1.70586 1.12967 0
M  V30 2355 H 220.8 1.99487 3.55906 0
M  V30 2356 H 219.475 2.95692 2.92471 0
M  V30 2357 H 218.052 1.22554 3.52186 0
M  V30 2358 N 220.237 -1.11381 1.11499 0
M  V30 2359 C 221.147 -2.21019 0.786628 0
M  V30 2360 C 222.163 -1.72597 -0.220507 0
M  V30 2361 O 223.339 -2.01321 -0.0565251 0
M  V30 2362 C 220.404 -3.459 0.235333 0
M  V30 2363 C 219.465 -4.09107 1.30115 0
M  V30 2364 C 218.698 -5.28027 0.776068 0
M  V30 2365 O 218.921 -5.6904 -0.393661 0
M  V30 2366 O 217.855 -5.81835 1.54114 0
M  V30 2367 H 221.681 -2.51521 1.70209 0
M  V30 2368 H 219.266 -1.19928 0.890928 0
M  V30 2369 H 221.148 -4.21346 -0.067715 0
M  V30 2370 H 219.823 -3.17049 -0.652828 0
M  V30 2371 H 218.73 -3.35391 1.65722 0
M  V30 2372 H 220.063 -4.42139 2.16273 0
M  V30 2373 N 221.715 -0.905404 -1.28997 0
M  V30 2374 C 222.645 -0.404212 -2.29975 0
M  V30 2375 C 223.626 0.523784 -1.61835 0
M  V30 2376 O 224.811 0.433298 -1.89304 0
M  V30 2377 C 221.941 0.364042 -3.45387 0
M  V30 2378 C 220.895 -0.474048 -4.25367 0
M  V30 2379 C 220.221 0.422045 -5.33032 0
M  V30 2380 C 221.521 -1.72696 -4.92923 0
M  V30 2381 H 223.215 -1.24807 -2.72146 0
M  V30 2382 H 220.761 -0.601585 -1.30832 0
M  V30 2383 H 222.714 0.725447 -4.15109 0
M  V30 2384 H 221.438 1.24174 -3.02074 0
M  V30 2385 H 220.097 -0.81786 -3.57361 0
M  V30 2386 H 219.745 1.29804 -4.85963 0
M  V30 2387 H 219.445 -0.135057 -5.87445 0
M  V30 2388 H 220.969 0.779517 -6.05604 0
M  V30 2389 H 222.383 -1.43495 -5.55051 0
M  V30 2390 H 220.78 -2.22582 -5.57295 0
M  V30 2391 H 221.85 -2.45964 -4.17887 0
M  V30 2392 N 223.193 1.4272 -0.668489 0
M  V30 2393 C 224.604 1.84793 -0.266151 0
M  V30 2394 C 224.955 1.55959 1.19043 0
M  V30 2395 O 224.08 1.01622 1.91055 0
M  V30 2396 C 224.675 3.35436 -0.476271 0
M  V30 2397 C 223.234 3.76182 -0.128113 0
M  V30 2398 C 222.381 2.66344 -0.771777 0
M  V30 2399 H 225.332 1.32656 -0.871098 0
M  V30 2400 H 225.353 3.79515 0.273561 0
M  V30 2401 H 224.865 3.5639 -1.53647 0
M  V30 2402 H 222.966 3.60836 0.928891 0
M  V30 2403 H 223.079 4.75766 -0.564231 0
M  V30 2404 H 221.443 2.53885 -0.203652 0
M  V30 2405 H 222.226 2.90123 -1.83531 0
M  V30 2406 N 224.671 0.411399 1.52136 0
M  V30 2407 C 225.917 -0.156262 2.02799 0
M  V30 2408 C 226.272 -1.42613 1.29149 0
M  V30 2409 O 225.565 -1.87592 0.389839 0
M  V30 2410 C 225.759 -0.455872 3.54481 0
M  V30 2411 C 225.588 0.783404 4.42824 0
M  V30 2412 C 224.358 1.30928 4.88043 0
M  V30 2413 C 226.556 1.66217 4.86699 0
M  V30 2414 N 224.538 2.5038 5.6052 0
M  V30 2415 C 225.909 2.70292 5.5798 0
M  V30 2416 C 227.964 1.67966 4.68713 0
M  V30 2417 C 226.667 3.7603 6.13184 0
M  V30 2418 C 228.693 2.72624 5.24815 0
M  V30 2419 C 228.055 3.7542 5.9602 0
M  V30 2420 H 224.154 -0.0186886 0.781777 0
M  V30 2421 H 226.738 0.566255 1.86284 0
M  V30 2422 H 224.909 -1.14743 3.71064 0
M  V30 2423 H 226.641 -1.01261 3.91827 0
M  V30 2424 H 223.396 0.866977 4.65597 0
M  V30 2425 H 223.82 3.10881 6.014 0
M  V30 2426 H 228.462 0.898312 4.13147 0
M  V30 2427 H 226.18 4.55019 6.6782 0
M  V30 2428 H 229.766 2.74887 5.12765 0
M  V30 2429 H 228.646 4.55073 6.38654 0
M  V30 2430 N 226.149 -1.5696 0.141893 0
M  V30 2431 C 227.096 -2.16501 -0.799737 0
M  V30 2432 C 228.066 -1.09643 -1.24771 0
M  V30 2433 O 229.251 -1.3766 -1.32115 0
M  V30 2434 C 226.391 -2.78679 -2.03549 0
M  V30 2435 C 225.504 -3.99914 -1.6338 0
M  V30 2436 C 224.639 -4.50106 -2.82096 0
M  V30 2437 C 223.678 -5.63819 -2.38275 0
M  V30 2438 N 222.815 -6.08651 -3.49983 0
M  V30 2439 H 227.655 -2.96632 -0.285179 0
M  V30 2440 H 225.192 -1.46533 -0.129053 0
M  V30 2441 H 227.15 -3.1287 -2.75986 0
M  V30 2442 H 225.78 -2.012 -2.52425 0
M  V30 2443 H 224.832 -3.71735 -0.807279 0
M  V30 2444 H 226.144 -4.82311 -1.27192 0
M  V30 2445 H 225.298 -4.86325 -3.62729 0
M  V30 2446 H 224.037 -3.66706 -3.21525 0
M  V30 2447 H 223.042 -5.2718 -1.56081 0
M  V30 2448 H 224.267 -6.49 -1.99938 0
M  V30 2449 H 222.213 -5.28188 -3.89042 0
M  V30 2450 H 222.13 -6.85961 -3.17794 0
M  V30 2451 H 223.398 -6.49515 -4.30988 0
M  V30 2452 N 227.627 0.131896 -1.57047 0
M  V30 2453 C 228.575 1.18146 -2.0036 0
M  V30 2454 C 229.569 1.43614 -0.898406 0
M  V30 2455 O 230.775 1.43729 -1.08361 0
M  V30 2456 H 227.15 0.398042 -0.638018 0
M  V30 2457 H 229.121 0.789564 -2.87765 0
M  V30 2458 C 227.87 2.50341 -2.41298 0
M  V30 2459 H 227.193 2.31578 -3.25902 0
M  V30 2460 H 228.633 3.22371 -2.75414 0
M  V30 2461 C 227.092 3.11984 -1.27153 0
M  V30 2462 O 227.622 3.97484 -0.580459 0
M  V30 2463 N 225.828 2.71662 -1.03189 0
M  V30 2464 H 225.375 2.02231 -1.59564 0
M  V30 2465 H 225.333 3.13238 -0.270077 0
M  V30 2466 N 229.106 1.52395 0.401703 0
M  V30 2467 C 230.346 1.68498 1.15705 0
M  V30 2468 C 230.71 0.409748 1.87577 0
M  V30 2469 O 231.911 0.446983 2.65058 0
M  V30 2470 C 230.182 2.87789 2.11924 0
M  V30 2471 S 231.741 3.24415 2.95466 0
M  V30 2472 H 228.559 0.593267 0.391862 0
M  V30 2473 H 231.161 1.90408 0.443282 0
M  V30 2474 H 229.865 3.7884 1.57824 0
M  V30 2475 H 229.396 2.68175 2.87829 0
M  V30 2476 H 231.411 2.73614 4.13944 0
M  V30 2477 N 230.584 -0.659388 1.43143 0
M  V30 2478 C 231.809 -1.45221 1.48073 0
M  V30 2479 C 232.234 -1.87845 0.097995 0
M  V30 2480 O 231.592 -1.56985 -0.90694 0
M  V30 2481 C 231.64 -2.66748 2.42647 0
M  V30 2482 O 230.744 -3.65583 1.90848 0
M  V30 2483 H 230.085 -0.435669 0.501088 0
M  V30 2484 H 232.615 -0.807432 1.87994 0
M  V30 2485 H 232.625 -3.14637 2.59745 0
M  V30 2486 H 231.3 -2.35067 3.43098 0
M  V30 2487 H 229.877 -3.24693 1.83381 0
M  V30 2488 N 232.062 -1.29571 -0.897171 0
M  V30 2489 C 233.287 -1.20705 -1.68656 0
M  V30 2490 C 233.712 0.228582 -1.86706 0
M  V30 2491 O 233.07 1.16494 -1.3892 0
M  V30 2492 C 233.118 -1.9282 -3.04717 0
M  V30 2493 O 232.222 -1.24697 -3.93096 0
M  V30 2494 H 231.563 -0.418126 -0.515816 0
M  V30 2495 H 234.093 -1.71183 -1.12061 0
M  V30 2496 H 234.103 -2.01372 -3.54843 0
M  V30 2497 H 232.778 -2.97239 -2.90899 0
M  V30 2498 H 231.355 -1.2442 -3.51531 0
M  V30 2499 N 233.54 1.10788 -1.12088 0
M  V30 2500 C 234.786 1.8313 -0.885148 0
M  V30 2501 C 235.141 1.8336 0.582839 0
M  V30 2502 O 234.434 1.28062 1.42516 0
M  V30 2503 C 234.628 3.29294 -1.38926 0
M  V30 2504 C 234.457 3.43302 -2.90472 0
M  V30 2505 C 233.227 3.55928 -3.58669 0
M  V30 2506 C 235.425 3.37014 -3.88492 0
M  V30 2507 N 233.407 3.58475 -4.98366 0
M  V30 2508 C 234.778 3.46263 -5.14298 0
M  V30 2509 C 236.833 3.20589 -3.80955 0
M  V30 2510 C 235.536 3.4078 -6.33452 0
M  V30 2511 C 237.562 3.16427 -4.99628 0
M  V30 2512 C 236.924 3.26253 -6.2429 0
M  V30 2513 H 233.023 0.685054 -0.377128 0
M  V30 2514 H 235.607 1.3251 -1.4265 0
M  V30 2515 H 233.778 3.78416 -0.874999 0
M  V30 2516 H 235.51 3.89578 -1.09596 0
M  V30 2517 H 232.265 3.58779 -3.09151 0
M  V30 2518 H 232.689 3.6337 -5.71219 0
M  V30 2519 H 237.331 3.11873 -2.85474 0
M  V30 2520 H 235.049 3.48263 -7.29204 0
M  V30 2521 H 238.635 3.04874 -4.95523 0
M  V30 2522 H 237.515 3.2303 -7.14578 0
M  V30 2523 N 235.018 0.912232 1.28515 0
M  V30 2524 C 236.243 0.559774 1.99703 0
M  V30 2525 C 236.668 -0.851393 1.67729 0
M  V30 2526 O 236.026 -1.56875 0.908834 0
M  V30 2527 C 236.074 0.773874 3.52198 0
M  V30 2528 O 235.178 -0.167842 4.12058 0
M  V30 2529 H 234.519 0.21723 0.627461 0
M  V30 2530 H 237.049 1.22725 1.63706 0
M  V30 2531 H 237.059 0.683386 4.02236 0
M  V30 2532 H 235.734 1.80261 3.74805 0
M  V30 2533 H 234.311 -0.0287509 3.72889 0
M  V30 2534 N 236.496 -1.42363 0.676048 0
M  V30 2535 C 237.773 -1.95183 0.127726 0
M  V30 2536 C 238.153 -1.61641 -1.35777 0
M  V30 2537 O 237.501 -0.913216 -2.09458 0
M  V30 2538 C 237.711 -3.46721 0.398199 0
M  V30 2539 C 239.059 -4.23427 0.315383 0
M  V30 2540 O 240.083 -3.54649 0.332016 0
M  V30 2541 O 238.942 -5.45888 0.25865 0
M  V30 2542 H 236.036 -0.826992 0.00359427 0
M  V30 2543 H 238.582 -1.52184 0.750864 0
M  V30 2544 H 237.354 -3.64344 1.4272 0
M  V30 2545 H 236.977 -3.96769 -0.256885 0
M  V30 2546 N 237.974 -0.419461 -1.51915 0
M  V30 2547 C 238.921 0.400927 -2.27291 0
M  V30 2548 C 239.891 1.03224 -1.30131 0
M  V30 2549 O 241.076 1.05455 -1.59009 0
M  V30 2550 C 238.216 1.50603 -3.10504 0
M  V30 2551 C 237.329 0.89462 -4.22635 0
M  V30 2552 C 236.464 1.97328 -4.93189 0
M  V30 2553 C 235.503 1.33935 -5.97267 0
M  V30 2554 N 234.64 2.3586 -6.61298 0
M  V30 2555 H 239.48 -0.248251 -2.96964 0
M  V30 2556 H 237.017 -0.134266 -1.46486 0
M  V30 2557 H 238.975 2.15783 -3.57062 0
M  V30 2558 H 237.605 2.12509 -2.42981 0
M  V30 2559 H 236.657 0.131583 -3.80172 0
M  V30 2560 H 237.969 0.391641 -4.9726 0
M  V30 2561 H 237.123 2.70211 -5.43204 0
M  V30 2562 H 235.862 2.50994 -4.18155 0
M  V30 2563 H 234.867 0.595896 -5.46561 0
M  V30 2564 H 236.092 0.810252 -6.74249 0
M  V30 2565 H 234.038 2.88639 -5.89087 0
M  V30 2566 H 233.955 1.90403 -7.3163 0
M  V30 2567 H 235.223 3.08282 -7.15949 0
M  V30 2568 N 239.452 1.56882 -0.150215 0
M  V30 2569 C 240.4 2.18214 0.805313 0
M  V30 2570 C 241.394 1.14006 1.25296 0
M  V30 2571 O 242.6 1.3225 1.22107 0
M  V30 2572 H 238.975 0.698762 0.277913 0
M  V30 2573 H 240.946 2.97231 0.263862 0
M  V30 2574 C 239.695 2.82065 2.03309 0
M  V30 2575 H 239.018 3.61968 1.69763 0
M  V30 2576 H 240.458 3.28477 2.68103 0
M  V30 2577 C 238.917 1.80739 2.84315 0
M  V30 2578 O 239.447 1.27983 3.80767 0
M  V30 2579 N 237.653 1.4997 2.48913 0
M  V30 2580 H 237.2 1.93062 1.70542 0
M  V30 2581 H 237.158 0.824217 3.03404 0
M  V30 2582 N 240.93 -0.123565 1.57115 0
M  V30 2583 C 242.17 -0.838097 1.86428 0
M  V30 2584 C 242.534 -1.77266 0.737611 0
M  V30 2585 O 243.735 -2.52842 0.912389 0
M  V30 2586 C 242.006 -1.57219 3.20962 0
M  V30 2587 S 243.565 -2.32893 3.71896 0
M  V30 2588 H 240.383 -0.279811 0.653626 0
M  V30 2589 H 242.985 -0.0967034 1.95261 0
M  V30 2590 H 241.689 -0.877522 4.00909 0
M  V30 2591 H 241.22 -2.35405 3.15195 0
M  V30 2592 H 243.235 -3.5853 3.43032 0
M  V30 2593 N 242.408 -1.52605 -0.393616 0
M  V30 2594 C 243.633 -1.71592 -1.16495 0
M  V30 2595 C 244.058 -0.43133 -1.83088 0
M  V30 2596 O 243.416 0.612523 -1.7064 0
M  V30 2597 C 243.464 -2.86318 -2.19213 0
M  V30 2598 O 242.568 -2.52969 -3.257 0
M  V30 2599 H 241.909 -0.570734 -0.33935 0
M  V30 2600 H 244.439 -1.99377 -0.459324 0
M  V30 2601 H 244.449 -3.1168 -2.63286 0
M  V30 2602 H 243.124 -3.79511 -1.7013 0
M  V30 2603 H 241.701 -2.38332 -2.86797 0
M  V30 2604 N 243.887 0.651787 -1.4349 0
M  V30 2605 C 245.303 0.96762 -1.26922 0
M  V30 2606 C 245.503 2.00602 -0.189982 0
M  V30 2607 O 244.559 2.48793 0.431107 0
M  V30 2608 C 245.872 1.45052 -2.63401 0
M  V30 2609 C 247.42 1.5671 -2.70945 0
M  V30 2610 C 247.895 2.0839 -4.07845 0
M  V30 2611 N 249.386 2.1569 -4.09917 0
M  V30 2612 C 250.121 2.56804 -5.12679 0
M  V30 2613 N 249.617 2.97203 -6.25813 0
M  V30 2614 N 251.41 2.56756 -5.00033 0
M  V30 2615 H 243.561 -0.0353158 -2.12371 0
M  V30 2616 H 245.824 0.0467858 -0.946845 0
M  V30 2617 H 245.53 0.761926 -3.43348 0
M  V30 2618 H 245.404 2.42529 -2.88894 0
M  V30 2619 H 247.791 2.2467 -1.9133 0
M  V30 2620 H 247.872 0.57662 -2.49216 0
M  V30 2621 H 247.516 1.41031 -4.87927 0
M  V30 2622 H 247.446 3.08271 -4.26938 0
M  V30 2623 H 249.937 1.87237 -3.28254 0
M  V30 2624 H 250.25 3.27328 -7.00055 0
M  V30 2625 H 248.595 2.95004 -6.29283 0
M  V30 2626 H 251.786 2.24572 -4.10713 0
M  V30 2627 H 251.959 2.88475 -5.80247 0
M  V30 2628 N 245.365 1.30045 0.890287 0
M  V30 2629 C 246.59 1.21598 1.68014 0
M  V30 2630 C 247.015 -0.218678 1.86825 0
M  V30 2631 O 246.373 -1.15756 1.39536 0
M  V30 2632 C 246.421 1.94434 3.03691 0
M  V30 2633 O 245.525 1.2678 3.92429 0
M  V30 2634 H 244.866 0.420856 0.513592 0
M  V30 2635 H 247.396 1.71775 1.11151 0
M  V30 2636 H 247.406 2.03251 3.5377 0
M  V30 2637 H 246.081 2.98777 2.89318 0
M  V30 2638 H 244.658 1.26282 3.50866 0
M  V30 2639 N 246.843 -1.10192 1.12674 0
M  V30 2640 C 248.254 -1.63707 0.897604 0
M  V30 2641 C 248.605 -1.87812 -0.567546 0
M  V30 2642 O 247.73 -1.62196 -1.43253 0
M  V30 2643 C 248.325 -2.974 1.62292 0
M  V30 2644 C 246.884 -3.47772 1.43986 0
M  V30 2645 C 246.031 -2.22332 1.65722 0
M  V30 2646 H 248.982 -0.936587 1.28116 0
M  V30 2647 H 249.003 -3.64986 1.07541 0
M  V30 2648 H 248.515 -2.79824 2.68924 0
M  V30 2649 H 246.616 -3.70487 0.396206 0
M  V30 2650 H 246.729 -4.25723 2.19765 0
M  V30 2651 H 245.093 -2.30599 1.08149 0
M  V30 2652 H 245.876 -2.07285 2.73657 0
M  V30 2653 N 248.321 -0.919034 -1.28029 0
M  V30 2654 C 249.57 -0.550802 -1.94034 0
M  V30 2655 C 249.883 0.910877 -1.73096 0
M  V30 2656 O 251.089 1.3875 -2.33368 0
M  V30 2657 C 249.545 -0.934249 -3.47563 0
M  V30 2658 C 249.153 -2.41602 -3.7727 0
M  V30 2659 C 250.897 -0.636854 -4.19696 0
M  V30 2660 C 248.804 -2.73932 -5.24133 0
M  V30 2661 H 247.734 -0.202273 -0.726362 0
M  V30 2662 H 250.385 -1.11867 -1.45458 0
M  V30 2663 H 248.767 -0.295115 -3.94899 0
M  V30 2664 H 249.941 -3.10233 -3.40723 0
M  V30 2665 H 248.256 -2.68441 -3.18321 0
M  V30 2666 H 250.853 -0.855005 -5.2782 0
M  V30 2667 H 251.196 0.425575 -4.14119 0
M  V30 2668 H 251.729 -1.23469 -3.78154 0
M  V30 2669 H 248.468 -3.79049 -5.34792 0
M  V30 2670 H 247.988 -2.09942 -5.61858 0
M  V30 2671 H 249.667 -2.61215 -5.91925 0
M  V30 2672 N 249.799 1.42003 -0.683588 0
M  V30 2673 C 251.045 2.01712 -0.209825 0
M  V30 2674 C 251.378 1.53968 1.18353 0
M  V30 2675 O 250.653 0.745661 1.79639 0
M  V30 2676 C 250.936 3.59202 -0.254197 0
M  V30 2677 C 250.789 4.17102 -1.68363 0
M  V30 2678 C 252.108 4.38344 0.392709 0
M  V30 2679 H 249.227 0.732891 -0.0777189 0
M  V30 2680 H 251.869 1.68909 -0.87004 0
M  V30 2681 H 250.019 3.87278 0.307954 0
M  V30 2682 H 251.691 3.99946 -2.29871 0
M  V30 2683 H 249.934 3.72597 -2.22157 0
M  V30 2684 H 250.605 5.26249 -1.6663 0
M  V30 2685 H 253.081 4.16011 -0.0859162 0
M  V30 2686 H 251.957 5.47901 0.331063 0
M  V30 2687 H 252.218 4.16887 1.47164 0
M  V30 2688 N 251.277 0.427512 1.51691 0
M  V30 2689 C 252.505 -0.141191 2.06418 0
M  V30 2690 C 252.92 -1.37303 1.29589 0
M  V30 2691 O 252.277 -1.79059 0.352732 0
M  V30 2692 C 252.328 -0.473266 3.58389 0
M  V30 2693 O 252.049 0.709673 4.32314 0
M  V30 2694 C 253.55 -1.09371 4.29596 0
M  V30 2695 H 250.77 -0.0122747 0.670888 0
M  V30 2696 H 253.314 0.603764 1.95384 0
M  V30 2697 H 251.469 -1.16812 3.69369 0
M  V30 2698 H 251.883 0.42807 5.2275 0
M  V30 2699 H 253.357 -1.27613 5.37046 0
M  V30 2700 H 253.834 -2.072 3.87253 0
M  V30 2701 H 254.44 -0.43853 4.23033 0
M  V30 2702 N 252.755 -1.56801 0.158532 0
M  V30 2703 C 253.705 -2.13923 -0.788738 0
M  V30 2704 C 254.689 -1.07006 -1.2016 0
M  V30 2705 O 255.881 -1.33159 -1.1661 0
M  V30 2706 C 253.01 -2.77348 -2.02319 0
M  V30 2707 C 252.096 -3.91404 -1.6329 0
M  V30 2708 N 252.487 -4.9677 -0.951463 0
M  V30 2709 C 250.785 -4.02326 -1.92482 0
M  V30 2710 C 251.486 -5.76698 -0.761221 0
M  V30 2711 N 250.462 -5.27859 -1.29869 0
M  V30 2712 H 254.264 -2.92757 -0.258995 0
M  V30 2713 H 251.778 -1.62344 -0.0426055 0
M  V30 2714 H 253.775 -3.16639 -2.71192 0
M  V30 2715 H 252.435 -1.99991 -2.558 0
M  V30 2716 H 253.446 -5.14284 -0.610928 0
M  V30 2717 H 250.123 -3.36059 -2.47732 0
M  V30 2718 H 251.513 -6.71529 -0.223284 0
M  V30 2719 N 254.233 0.115231 -1.57178 0
M  V30 2720 C 255.473 0.828199 -1.8687 0
M  V30 2721 C 255.837 1.76873 -0.747002 0
M  V30 2722 O 257.038 2.52354 -0.925785 0
M  V30 2723 C 255.309 1.55515 -3.21792 0
M  V30 2724 S 256.868 2.30917 -3.73125 0
M  V30 2725 H 253.686 0.27634 -0.655101 0
M  V30 2726 H 256.288 0.0863469 -1.95309 0
M  V30 2727 H 254.992 0.856248 -4.01368 0
M  V30 2728 H 254.523 2.3373 -3.16439 0
M  V30 2729 H 256.538 3.56705 -3.44929 0
M  V30 2730 N 255.711 1.52812 0.385517 0
M  V30 2731 C 256.659 1.78482 1.49155 0
M  V30 2732 C 257.653 0.652914 1.56312 0
M  V30 2733 O 258.859 0.835464 1.59436 0
M  V30 2734 H 255.234 0.5648 0.496493 0
M  V30 2735 H 257.205 2.71095 1.24699 0
M  V30 2736 C 255.954 1.97378 2.86247 0
M  V30 2737 H 255.277 2.83907 2.81491 0
M  V30 2738 H 256.717 2.19327 3.62866 0
M  V30 2739 C 255.176 0.74728 3.28508 0
M  V30 2740 O 255.706 -0.0736232 4.01633 0
M  V30 2741 N 253.912 0.576396 2.84826 0
M  V30 2742 H 253.459 1.24555 2.25486 0
M  V30 2743 H 253.417 -0.24288 3.1346 0
M  V30 2744 N 257.189 -0.644168 1.43834 0
M  V30 2745 C 258.435 -1.40603 1.46146 0
M  V30 2746 C 258.768 -1.93997 0.0887717 0
M  V30 2747 O 258.043 -1.72854 -0.891724 0
M  V30 2748 C 258.326 -2.58086 2.51124 0
M  V30 2749 C 258.179 -2.10126 3.97702 0
M  V30 2750 C 259.498 -3.60291 2.52742 0
M  V30 2751 H 256.617 -0.509905 0.532134 0
M  V30 2752 H 259.259 -0.729502 1.75437 0
M  V30 2753 H 257.409 -3.15801 2.26278 0
M  V30 2754 H 259.081 -1.57342 4.33637 0
M  V30 2755 H 257.324 -1.41419 4.10101 0
M  V30 2756 H 257.995 -2.94649 4.66783 0
M  V30 2757 H 260.471 -3.12352 2.7491 0
M  V30 2758 H 259.347 -4.40032 3.28121 0
M  V30 2759 H 259.608 -4.1349 1.56455 0
M  V30 2760 N 258.668 -1.30515 -0.883378 0
M  V30 2761 C 259.893 -1.22487 -1.67367 0
M  V30 2762 C 260.318 0.208767 -1.86938 0
M  V30 2763 O 259.676 1.15015 -1.40148 0
M  V30 2764 C 259.724 -1.96041 -3.02655 0
M  V30 2765 O 258.828 -1.28859 -3.91751 0
M  V30 2766 H 258.169 -0.423573 -0.511353 0
M  V30 2767 H 260.699 -1.72362 -1.10239 0
M  V30 2768 H 260.709 -2.05124 -3.52687 0
M  V30 2769 H 259.384 -3.00307 -2.8773 0
M  V30 2770 H 257.961 -1.28141 -3.50192 0
M  V30 2771 N 260.146 1.09593 -1.13257 0
M  V30 2772 C 261.374 1.855 -0.916378 0
M  V30 2773 C 261.789 1.81069 0.534738 0
M  V30 2774 O 261.146 1.20562 1.37007 0
M  V30 2775 C 261.197 3.33546 -1.39388 0
M  V30 2776 O 260.918 3.37927 -2.78813 0
M  V30 2777 C 262.419 4.26299 -1.21588 0
M  V30 2778 H 259.639 0.585991 -0.326887 0
M  V30 2779 H 262.183 1.38488 -1.5047 0
M  V30 2780 H 260.338 3.77992 -0.848597 0
M  V30 2781 H 260.752 4.30254 -2.9997 0
M  V30 2782 H 262.226 5.28341 -1.59876 0
M  V30 2783 H 262.703 4.38918 -0.157376 0
M  V30 2784 H 263.309 3.87668 -1.7491 0
M  V30 2785 N 261.624 0.925811 1.2754 0
M  V30 2786 C 262.87 0.566092 1.94739 0
M  V30 2787 C 263.203 -0.890057 1.72603 0
M  V30 2788 O 262.478 -1.63467 1.05399 0
M  V30 2789 C 262.761 0.89054 3.48915 0
M  V30 2790 C 262.614 2.4003 3.80402 0
M  V30 2791 C 263.933 0.395101 4.38323 0
M  V30 2792 H 261.052 0.20714 0.707292 0
M  V30 2793 H 263.694 1.15725 1.50691 0
M  V30 2794 H 261.844 0.387452 3.86563 0
M  V30 2795 H 263.516 2.97494 3.52555 0
M  V30 2796 H 261.759 2.85028 3.2702 0
M  V30 2797 H 262.43 2.57785 4.8811 0
M  V30 2798 H 264.906 0.826241 4.07814 0
M  V30 2799 H 263.782 0.651086 5.45025 0
M  V30 2800 H 264.043 -0.704798 4.36446 0
M  V30 2801 N 263.102 -1.41638 0.69111 0
M  V30 2802 C 264.05 -2.32597 0.0115199 0
M  V30 2803 C 265.044 -1.5072 -0.773296 0
M  V30 2804 O 266.25 -1.66685 -0.67942 0
M  V30 2805 H 262.625 -0.751849 -0.0150746 0
M  V30 2806 H 264.596 -2.87593 0.795791 0
M  V30 2807 C 263.345 -3.35467 -0.914172 0
M  V30 2808 H 262.668 -3.9852 -0.319687 0
M  V30 2809 H 264.108 -4.01662 -1.35808 0
M  V30 2810 C 262.567 -2.69004 -2.02826 0
M  V30 2811 O 263.097 -2.53444 -3.11655 0
M  V30 2812 N 261.303 -2.2777 -1.80469 0
M  V30 2813 H 260.85 -2.40626 -0.919615 0
M  V30 2814 H 260.808 -1.83635 -2.55197 0
M  V30 2815 N 264.58 -0.43555 -1.51462 0
M  V30 2816 C 265.527 0.376797 -2.27703 0
M  V30 2817 C 266.497 1.01838 -1.31219 0
M  V30 2818 O 267.682 1.03762 -1.60119 0
M  V30 2819 C 264.822 1.47301 -3.12084 0
M  V30 2820 C 263.935 0.849744 -4.2356 0
M  V30 2821 C 263.07 1.92086 -4.95254 0
M  V30 2822 C 262.109 1.27593 -5.98654 0
M  V30 2823 N 261.246 2.28833 -6.63762 0
M  V30 2824 H 266.086 -0.279734 -2.96684 0
M  V30 2825 H 263.623 -0.149795 -1.46335 0
M  V30 2826 H 265.581 2.11984 -3.59331 0
M  V30 2827 H 264.211 2.0992 -2.45221 0
M  V30 2828 H 263.263 0.0912529 -3.80291 0
M  V30 2829 H 264.575 0.338878 -4.97648 0
M  V30 2830 H 263.729 2.64435 -5.46039 0
M  V30 2831 H 262.468 2.46545 -4.20793 0
M  V30 2832 H 261.473 0.537893 -5.47162 0
M  V30 2833 H 262.698 0.738693 -6.7507 0
M  V30 2834 H 260.644 2.82375 -5.92115 0
M  V30 2835 H 260.561 1.82632 -7.33608 0
M  V30 2836 H 261.829 3.00671 -7.19178 0
M  V30 2837 N 266.058 1.56714 -0.166846 0
M  V30 2838 C 267.306 1.96358 0.478305 0
M  V30 2839 C 267.627 1.0537 1.6408 0
M  V30 2840 O 266.897 0.119154 1.95537 0
M  V30 2841 H 265.477 0.725065 0.179692 0
M  V30 2842 H 268.139 1.93329 -0.246985 0
M  V30 2843 H 267.235 3.00547 0.841292 0
M  V30 2844 N 267.536 -0.106894 1.57237 0
M  V30 2845 C 268.785 -0.811163 1.8467 0
M  V30 2846 C 269.098 -1.80469 0.754342 0
M  V30 2847 O 270.304 -2.55601 0.915439 0
M  V30 2848 C 268.76 -1.49337 3.27454 0
M  V30 2849 C 268.368 -0.540217 4.44731 0
M  V30 2850 C 270.112 -2.18206 3.64124 0
M  V30 2851 C 268.019 -1.22634 5.78545 0
M  V30 2852 H 266.949 -0.306679 0.688813 0
M  V30 2853 H 269.6 -0.0639887 1.83388 0
M  V30 2854 H 267.982 -2.2876 3.23241 0
M  V30 2855 H 269.156 0.221659 4.60267 0
M  V30 2856 H 267.471 0.042146 4.16379 0
M  V30 2857 H 270.068 -2.70253 4.61376 0
M  V30 2858 H 270.411 -2.96562 2.92158 0
M  V30 2859 H 270.944 -1.45658 3.70174 0
M  V30 2860 H 267.683 -0.483832 6.53712 0
M  V30 2861 H 267.203 -1.95993 5.66874 0
M  V30 2862 H 268.882 -1.75615 6.2271 0
M  V30 2863 N 269.014 -1.53014 -0.377408 0
M  V30 2864 C 269.946 -1.74884 -1.48149 0
M  V30 2865 C 270.959 -0.629433 -1.5014 0
M  V30 2866 O 272.148 -0.905416 -1.53833 0
M  V30 2867 C 269.248 -1.80299 -2.86959 0
M  V30 2868 C 268.421 -3.09776 -3.08801 0
M  V30 2869 C 267.48 -3.06586 -4.27658 0
M  V30 2870 O 266.506 -3.80419 -4.23403 0
M  V30 2871 N 267.708 -2.26578 -5.34455 0
M  V30 2872 H 270.473 -2.70147 -1.29771 0
M  V30 2873 H 268.034 -1.51646 -0.56703 0
M  V30 2874 H 270.026 -1.75657 -3.64591 0
M  V30 2875 H 268.596 -0.92372 -2.98641 0
M  V30 2876 H 267.816 -3.27815 -2.18931 0
M  V30 2877 H 269.104 -3.95366 -3.20255 0
M  V30 2878 H 268.502 -1.66081 -5.40771 0
M  V30 2879 H 267.059 -2.27766 -6.10709 0
M  V30 2880 N 270.492 0.636531 -1.44174 0
M  V30 2881 C 271.402 1.77754 -1.53103 0
M  V30 2882 C 272.418 1.68928 -0.417034 0
M  V30 2883 O 273.594 1.89801 -0.6736 0
M  V30 2884 C 270.659 3.14115 -1.46741 0
M  V30 2885 C 269.72 3.34612 -2.68948 0
M  V30 2886 C 268.953 4.64467 -2.6288 0
M  V30 2887 O 269.176 5.44919 -1.68581 0
M  V30 2888 O 268.11 4.87049 -3.53648 0
M  V30 2889 H 271.936 1.73174 -2.49489 0
M  V30 2890 H 269.521 0.79709 -1.2636 0
M  V30 2891 H 271.403 3.95412 -1.45696 0
M  V30 2892 H 270.078 3.19249 -0.534975 0
M  V30 2893 H 268.985 2.53014 -2.75562 0
M  V30 2894 H 270.318 3.34336 -3.61221 0
M  V30 2895 N 271.97 1.30982 0.876444 0
M  V30 2896 C 273.219 1.19658 1.62373 0
M  V30 2897 C 273.532 -0.245636 1.94052 0
M  V30 2898 O 274.738 -0.48049 2.67214 0
M  V30 2899 C 273.194 2.09433 2.92687 0
M  V30 2900 C 272.802 3.58613 2.68516 0
M  V30 2901 C 274.546 2.06893 3.70669 0
M  V30 2902 C 272.453 4.40416 3.94699 0
M  V30 2903 H 271.383 0.444268 0.609214 0
M  V30 2904 H 274.034 1.55791 0.969605 0
M  V30 2905 H 272.416 1.66191 3.59439 0
M  V30 2906 H 273.59 4.10058 2.10212 0
M  V30 2907 H 271.905 3.63063 2.03898 0
M  V30 2908 H 274.502 2.65258 4.64265 0
M  V30 2909 H 274.845 1.05448 4.02724 0
M  V30 2910 H 275.378 2.48301 3.10792 0
M  V30 2911 H 272.117 5.42591 3.67798 0
M  V30 2912 H 271.637 3.93731 4.52477 0
M  V30 2913 H 273.316 4.52294 4.62644 0
M  V30 2914 N 273.449 -1.08991 1.13837 0
M  V30 2915 C 274.698 -1.80631 0.897509 0
M  V30 2916 C 275.011 -1.86872 -0.57777 0
M  V30 2917 O 276.217 -2.54866 -0.935701 0
M  V30 2918 C 274.673 -3.24517 1.55618 0
M  V30 2919 C 274.281 -3.26529 3.0673 0
M  V30 2920 C 276.025 -4.00882 1.3962 0
M  V30 2921 C 273.932 -4.64965 3.65461 0
M  V30 2922 H 272.862 -0.67691 0.332129 0
M  V30 2923 H 275.513 -1.2246 1.3666 0
M  V30 2924 H 273.895 -3.82778 1.01476 0
M  V30 2925 H 275.069 -2.78008 3.67489 0
M  V30 2926 H 273.384 -2.63656 3.22296 0
M  V30 2927 H 275.981 -5.03167 1.80906 0
M  V30 2928 H 276.324 -4.14896 0.341578 0
M  V30 2929 H 276.857 -3.49075 1.90766 0
M  V30 2930 H 273.596 -4.56153 4.70749 0
M  V30 2931 H 273.116 -5.13792 3.09481 0
M  V30 2932 H 274.795 -5.3394 3.654 0
M  V30 2933 N 274.927 -0.932562 -1.27047 0
M  V30 2934 C 275.859 -0.392734 -2.2581 0
M  V30 2935 C 276.872 0.479241 -1.55586 0
M  V30 2936 O 278.061 0.291078 -1.76111 0
M  V30 2937 C 275.161 0.455456 -3.35826 0
M  V30 2938 C 274.334 -0.398355 -4.35582 0
M  V30 2939 C 273.393 0.387985 -5.24768 0
M  V30 2940 O 272.419 -0.206003 -5.68827 0
M  V30 2941 N 273.621 1.68664 -5.55457 0
M  V30 2942 H 276.386 -1.24173 -2.72766 0
M  V30 2943 H 273.947 -0.800511 -1.40725 0
M  V30 2944 H 275.939 0.988692 -3.92437 0
M  V30 2945 H 274.509 1.20522 -2.88432 0
M  V30 2946 H 273.729 -1.11286 -3.78165 0
M  V30 2947 H 275.017 -0.981889 -4.99236 0
M  V30 2948 H 274.415 2.19147 -5.21528 0
M  V30 2949 H 272.972 2.1663 -6.14748 0
M  V30 2950 N 276.405 1.4127 -0.698611 0
M  V30 2951 C 277.338 2.28195 0.0153898 0
M  V30 2952 C 278.316 1.42402 0.784883 0
M  V30 2953 O 279.5 1.71828 0.775067 0
M  V30 2954 C 276.627 3.22685 1.02918 0
M  V30 2955 C 275.673 4.25041 0.352501 0
M  V30 2956 S 276.506 5.27757 -0.907322 0
M  V30 2957 C 277.662 6.25812 0.104796 0
M  V30 2958 H 277.895 2.88403 -0.721858 0
M  V30 2959 H 275.428 1.46452 -0.488996 0
M  V30 2960 H 277.386 3.77655 1.60893 0
M  V30 2961 H 276.047 2.61566 1.73902 0
M  V30 2962 H 275.24 4.91437 1.11828 0
M  V30 2963 H 274.842 3.73682 -0.154254 0
M  V30 2964 H 277.134 6.70705 0.957103 0
M  V30 2965 H 278.077 7.06149 -0.525323 0
M  V30 2966 H 278.485 5.62615 0.460931 0
M  V30 2967 N 277.883 0.443576 1.51229 0
M  V30 2968 C 278.831 -0.37904 2.29491 0
M  V30 2969 C 279.825 -1.0153 1.35603 0
M  V30 2970 O 281.031 -0.94955 1.52917 0
M  V30 2971 H 277.406 -0.141053 0.738653 0
M  V30 2972 H 279.377 0.301799 2.9687 0
M  V30 2973 C 278.126 -1.46426 3.15364 0
M  V30 2974 H 277.449 -0.984037 3.87501 0
M  V30 2975 H 278.889 -2.01297 3.7317 0
M  V30 2976 C 277.348 -2.45099 2.31146 0
M  V30 2977 O 277.878 -3.49773 1.9754 0
M  V30 2978 N 276.084 -2.16139 1.94249 0
M  V30 2979 H 275.631 -1.31044 2.21777 0
M  V30 2980 H 275.589 -2.82398 1.38198 0
M  V30 2981 N 279.361 -1.56624 0.175154 0
M  V30 2982 C 280.308 -2.18149 -0.753634 0
M  V30 2983 C 281.278 -1.12265 -1.22417 0
M  V30 2984 O 282.463 -1.40432 -1.29165 0
M  V30 2985 C 279.603 -2.82933 -1.97592 0
M  V30 2986 C 278.716 -4.03289 -1.5486 0
M  V30 2987 C 277.851 -4.55988 -2.72485 0
M  V30 2988 C 276.89 -5.68746 -2.26262 0
M  V30 2989 N 276.027 -6.15938 -3.36994 0
M  V30 2990 H 280.867 -2.9717 -0.222195 0
M  V30 2991 H 278.404 -1.46774 -0.0979422 0
M  V30 2992 H 280.362 -3.18653 -2.69288 0
M  V30 2993 H 278.992 -2.06509 -2.481 0
M  V30 2994 H 278.044 -3.73364 -0.728246 0
M  V30 2995 H 279.356 -4.849 -1.16933 0
M  V30 2996 H 278.51 -4.9391 -3.52332 0
M  V30 2997 H 277.249 -3.73443 -3.13674 0
M  V30 2998 H 276.254 -5.30372 -1.44863 0
M  V30 2999 H 277.479 -6.53095 -1.86127 0
M  V30 3000 H 275.425 -5.36321 -3.77751 0
M  V30 3001 H 275.342 -6.92548 -3.03172 0
M  V30 3002 H 276.61 -6.58511 -4.17114 0
M  V30 3003 N 280.839 0.0985539 -1.57292 0
M  V30 3004 C 282.064 0.820196 -1.90493 0
M  V30 3005 C 282.489 1.71658 -0.769094 0
M  V30 3006 O 281.847 1.79133 0.279495 0
M  V30 3007 C 281.895 1.61242 -3.22542 0
M  V30 3008 O 280.999 2.72108 -3.09888 0
M  V30 3009 H 280.34 0.225547 -0.62452 0
M  V30 3010 H 282.87 0.0748159 -2.04463 0
M  V30 3011 H 282.88 1.99737 -3.55766 0
M  V30 3012 H 281.555 0.954535 -4.04798 0
M  V30 3013 H 280.132 2.36667 -2.88172 0
M  V30 3014 N 282.317 1.53212 0.369288 0
M  V30 3015 C 283.563 1.70413 1.11046 0
M  V30 3016 C 283.918 0.448509 1.87099 0
M  V30 3017 O 283.211 -0.558382 1.83283 0
M  V30 3018 C 283.405 2.89101 2.10132 0
M  V30 3019 C 283.234 4.26084 1.43814 0
M  V30 3020 C 282.004 4.90994 1.19384 0
M  V30 3021 C 284.202 5.06754 0.877802 0
M  V30 3022 N 282.184 6.11911 0.49377 0
M  V30 3023 C 283.555 6.1924 0.306891 0
M  V30 3024 C 285.61 4.91814 0.776129 0
M  V30 3025 C 284.313 7.1842 -0.355774 0
M  V30 3026 C 286.339 5.91263 0.127252 0
M  V30 3027 C 285.701 7.03069 -0.432801 0
M  V30 3028 H 281.8 0.676872 0.391623 0
M  V30 3029 H 284.384 1.90603 0.397334 0
M  V30 3030 H 282.555 2.70456 2.78761 0
M  V30 3031 H 284.287 2.95142 2.76899 0
M  V30 3032 H 281.042 4.50074 1.47413 0
M  V30 3033 H 281.466 6.76813 0.159207 0
M  V30 3034 H 286.108 4.05564 1.19489 0
M  V30 3035 H 283.826 8.04264 -0.786499 0
M  V30 3036 H 287.412 5.81779 0.0495613 0
M  V30 3037 H 286.292 7.78702 -0.926958 0
M  V30 3038 N 283.795 -0.628877 1.44509 0
M  V30 3039 C 285.041 -1.39045 1.47629 0
M  V30 3040 C 285.374 -1.93892 0.109343 0
M  V30 3041 O 284.649 -1.7379 -0.87334 0
M  V30 3042 C 284.932 -2.55408 2.53848 0
M  V30 3043 C 284.785 -2.05896 3.99909 0
M  V30 3044 C 286.104 -3.5759 2.56549 0
M  V30 3045 H 283.223 -0.504232 0.537512 0
M  V30 3046 H 285.865 -0.710854 1.76201 0
M  V30 3047 H 284.015 -3.13384 2.29615 0
M  V30 3048 H 285.687 -1.52734 4.35282 0
M  V30 3049 H 283.93 -1.37061 4.11578 0
M  V30 3050 H 284.601 -2.89681 4.69882 0
M  V30 3051 H 287.077 -3.09419 2.78207 0
M  V30 3052 H 285.953 -4.36527 3.32769 0
M  V30 3053 H 286.214 -4.11808 1.60832 0
M  V30 3054 N 285.273 -1.31445 -0.869486 0
M  V30 3055 C 286.55 -1.11795 -1.60503 0
M  V30 3056 C 286.93 0.327168 -2.08549 0
M  V30 3057 O 286.278 1.32135 -1.8642 0
M  V30 3058 C 286.488 -2.13258 -2.76265 0
M  V30 3059 C 287.836 -2.45805 -3.46215 0
M  V30 3060 O 288.86 -2.11688 -2.86473 0
M  V30 3061 O 287.719 -3.04228 -4.5399 0
M  V30 3062 H 284.813 -0.430421 -0.706163 0
M  V30 3063 H 287.359 -1.42925 -0.914907 0
M  V30 3064 H 286.131 -3.10461 -2.3818 0
M  V30 3065 H 285.754 -1.83035 -3.52964 0
M  V30 3066 N 286.751 1.08385 -1.14413 0
M  V30 3067 C 288 1.80153 -0.907076 0
M  V30 3068 C 288.313 1.87176 0.567851 0
M  V30 3069 O 289.519 2.55359 0.922172 0
M  V30 3070 C 287.975 3.23687 -1.57336 0
M  V30 3071 C 287.583 3.24897 -3.08457 0
M  V30 3072 C 289.327 4.00136 -1.41744 0
M  V30 3073 C 287.234 4.6302 -3.67921 0
M  V30 3074 H 286.164 0.675139 -0.335714 0
M  V30 3075 H 288.815 1.21733 -1.37307 0
M  V30 3076 H 287.197 3.82234 -1.03505 0
M  V30 3077 H 288.371 2.76055 -3.68958 0
M  V30 3078 H 286.686 2.61943 -3.2369 0
M  V30 3079 H 289.283 5.02201 -1.83572 0
M  V30 3080 H 289.626 4.14709 -0.363576 0
M  V30 3081 H 290.159 3.48058 -1.92614 0
M  V30 3082 H 286.898 4.5365 -4.73161 0
M  V30 3083 H 286.418 5.12143 -3.12201 0
M  V30 3084 H 288.097 5.31994 -3.68227 0
M  V30 3085 N 288.23 0.939286 1.26551 0
M  V30 3086 C 289.178 0.43815 2.28436 0
M  V30 3087 C 290.172 -0.483587 1.62351 0
M  V30 3088 O 291.378 -0.362009 1.76322 0
M  V30 3089 H 287.753 0.123149 0.741848 0
M  V30 3090 H 289.724 1.31002 2.68106 0
M  V30 3091 C 288.473 -0.283052 3.46546 0
M  V30 3092 H 287.796 0.417043 3.97619 0
M  V30 3093 H 289.236 -0.597948 4.19763 0
M  V30 3094 C 287.695 -1.50018 3.01656 0
M  V30 3095 O 288.225 -2.59855 3.0633 0
M  V30 3096 N 286.431 -1.35608 2.57019 0
M  V30 3097 H 285.978 -0.46244 2.53415 0
M  V30 3098 H 285.936 -2.17165 2.27347 0
M  V30 3099 N 289.708 -1.40897 0.706093 0
M  V30 3100 C 290.656 -2.32572 0.0361893 0
M  V30 3101 C 291.65 -1.51532 -0.757266 0
M  V30 3102 O 292.856 -1.67396 -0.661703 0
M  V30 3103 H 289.231 -0.751966 -0.00709935 0
M  V30 3104 H 291.202 -2.86733 0.826249 0
M  V30 3105 C 289.951 -3.36418 -0.87854 0
M  V30 3106 H 289.274 -3.98836 -0.277401 0
M  V30 3107 H 290.714 -4.0308 -1.3154 0
M  V30 3108 C 289.173 -2.71141 -1.99961 0
M  V30 3109 O 289.703 -2.56735 -3.0895 0
M  V30 3110 N 287.909 -2.29671 -1.78043 0
M  V30 3111 H 287.456 -2.41588 -0.894042 0
M  V30 3112 H 287.414 -1.86332 -2.53235 0
M  V30 3113 N 291.186 -0.45159 -1.50991 0
M  V30 3114 C 292.433 0.110074 -2.02201 0
M  V30 3115 C 292.761 1.4146 -1.33489 0
M  V30 3116 O 292.016 1.90617 -0.443125 0
M  V30 3117 C 292.315 0.361728 -3.55565 0
M  V30 3118 C 291.981 -0.858717 -4.42648 0
M  V30 3119 C 290.643 -1.19338 -4.66167 0
M  V30 3120 C 292.995 -1.67221 -4.93646 0
M  V30 3121 C 290.323 -2.34195 -5.37931 0
M  V30 3122 C 292.675 -2.8119 -5.6667 0
M  V30 3123 C 291.339 -3.15094 -5.88449 0
M  V30 3124 H 290.609 0.040279 -0.739904 0
M  V30 3125 H 293.256 -0.601696 -1.81802 0
M  V30 3126 H 291.561 1.15554 -3.74372 0
M  V30 3127 H 293.258 0.80996 -3.92735 0
M  V30 3128 H 289.848 -0.58796 -4.24548 0
M  V30 3129 H 294.032 -1.42686 -4.75347 0
M  V30 3130 H 289.288 -2.6076 -5.53005 0
M  V30 3131 H 293.462 -3.44585 -6.05173 0
M  V30 3132 H 291.089 -4.04204 -6.43835 0
M  V30 3133 N 292.664 1.56529 -0.183458 0
M  V30 3134 C 293.892 2.01623 0.464285 0
M  V30 3135 C 294.307 1.06366 1.55986 0
M  V30 3136 O 293.664 0.0665398 1.82379 0
M  V30 3137 C 293.715 3.46475 1.03139 0
M  V30 3138 O 293.436 4.38095 -0.0204675 0
M  V30 3139 C 294.937 4.0703 1.75617 0
M  V30 3140 H 292.157 0.660596 0.117704 0
M  V30 3141 H 294.701 2.02451 -0.288751 0
M  V30 3142 H 292.856 3.46383 1.73486 0
M  V30 3143 H 293.27 5.22973 0.399952 0
M  V30 3144 H 294.744 5.10271 2.10542 0
M  V30 3145 H 295.221 3.49819 2.65563 0
M  V30 3146 H 295.827 4.1086 1.09882 0
M  V30 3147 N 294.142 -0.090211 1.57342 0
M  V30 3148 C 295.382 -0.798365 1.88163 0
M  V30 3149 C 295.746 -1.75662 0.775046 0
M  V30 3150 O 296.947 -2.50849 0.965816 0
M  V30 3151 C 295.218 -1.50376 3.24225 0
M  V30 3152 S 296.777 -2.24952 3.76752 0
M  V30 3153 H 293.595 -0.265883 0.659414 0
M  V30 3154 H 296.197 -0.055264 1.95422 0
M  V30 3155 H 294.901 -0.792286 4.0268 0
M  V30 3156 H 294.432 -2.28666 3.20118 0
M  V30 3157 H 296.447 -3.51173 3.5056 0
M  V30 3158 N 295.62 -1.53406 -0.361157 0
M  V30 3159 C 296.869 -1.69022 -1.10066 0
M  V30 3160 C 297.182 -0.450838 -1.90333 0
M  V30 3161 O 298.388 -0.487617 -2.67085 0
M  V30 3162 C 296.844 -2.98812 -2.00598 0
M  V30 3163 C 296.452 -4.30027 -1.25621 0
M  V30 3164 C 298.196 -3.23795 -2.74513 0
M  V30 3165 C 296.103 -5.50903 -2.1508 0
M  V30 3166 H 295.033 -0.629776 -0.414606 0
M  V30 3167 H 297.684 -1.79907 -0.361348 0
M  V30 3168 H 296.066 -2.8174 -2.78278 0
M  V30 3169 H 297.24 -4.57745 -0.529739 0
M  V30 3170 H 295.555 -4.11522 -0.635496 0
M  V30 3171 H 298.152 -4.11289 -3.41681 0
M  V30 3172 H 298.495 -2.40045 -3.40123 0
M  V30 3173 H 299.028 -3.41561 -2.03914 0
M  V30 3174 H 295.767 -6.37143 -1.54041 0
M  V30 3175 H 295.287 -5.27459 -2.85565 0
M  V30 3176 H 296.966 -5.85865 -2.74538 0
M  V30 3177 N 297.098 0.621204 -1.44841 0
M  V30 3178 C 298.046 1.75385 -1.52784 0
M  V30 3179 C 299.04 1.64639 -0.398779 0
M  V30 3180 O 300.246 1.70598 -0.574137 0
M  V30 3181 H 296.621 0.579193 -0.479625 0
M  V30 3182 H 298.592 1.6581 -2.48092 0
M  V30 3183 C 297.341 3.13742 -1.4987 0
M  V30 3184 H 296.664 3.22663 -2.36069 0
M  V30 3185 H 298.104 3.92861 -1.59487 0
M  V30 3186 C 296.563 3.36175 -0.220973 0
M  V30 3187 O 297.093 3.95469 0.704782 0
M  V30 3188 N 295.299 2.90348 -0.120963 0
M  V30 3189 H 294.846 2.42278 -0.875162 0
M  V30 3190 H 294.804 3.05732 0.733168 0
M  V30 3191 N 298.576 1.31904 0.862503 0
M  V30 3192 C 299.824 1.21776 1.61292 0
M  V30 3193 C 300.145 -0.222413 1.93727 0
M  V30 3194 O 299.415 -1.1451 1.58947 0
M  V30 3195 H 297.995 0.447717 0.597962 0
M  V30 3196 H 300.657 1.65326 1.03215 0
M  V30 3197 H 299.753 1.7948 2.5533 0
M  V30 3198 N 300.054 -1.07777 1.14986 0
M  V30 3199 C 301.279 -1.84558 0.946213 0
M  V30 3200 C 301.704 -1.81323 -0.500362 0
M  V30 3201 O 301.062 -1.20301 -1.35637 0
M  V30 3202 C 301.11 -3.29736 1.45968 0
M  V30 3203 O 300.214 -4.07149 0.65601 0
M  V30 3204 H 299.555 -0.571641 0.33782 0
M  V30 3205 H 302.085 -1.35991 1.52865 0
M  V30 3206 H 302.095 -3.80574 1.47063 0
M  V30 3207 H 300.77 -3.31406 2.51283 0
M  V30 3208 H 299.347 -3.65994 0.714322 0
M  V30 3209 N 301.532 -0.945985 -1.26051 0
M  V30 3210 C 302.442 -0.465633 -2.29933 0
M  V30 3211 C 303.458 0.462761 -1.67733 0
M  V30 3212 O 304.634 0.341118 -1.9849 0
M  V30 3213 C 301.699 0.256994 -3.45746 0
M  V30 3214 C 300.76 -0.708549 -4.23412 0
M  V30 3215 C 299.993 -0.0203135 -5.33696 0
M  V30 3216 O 300.216 1.19571 -5.57726 0
M  V30 3217 O 299.15 -0.701459 -5.97799 0
M  V30 3218 H 302.976 -1.32866 -2.73094 0
M  V30 3219 H 300.561 -0.712071 -1.31339 0
M  V30 3220 H 302.443 0.663852 -4.16138 0
M  V30 3221 H 301.118 1.09533 -3.04605 0
M  V30 3222 H 300.025 -1.16545 -3.55483 0
M  V30 3223 H 301.358 -1.51465 -4.68315 0
M  V30 3224 N 303.011 1.40521 -0.713556 0
M  V30 3225 C 304.26 2.00155 -0.249192 0
M  V30 3226 C 304.573 1.57224 1.16362 0
M  V30 3227 O 305.779 2.09542 1.72639 0
M  V30 3228 C 304.235 3.5773 -0.3946 0
M  V30 3229 C 303.843 4.09635 -1.81392 0
M  V30 3230 C 305.587 4.24499 0.00907364 0
M  V30 3231 C 303.494 5.59707 -1.91003 0
M  V30 3232 H 302.424 0.74868 -0.0894114 0
M  V30 3233 H 305.075 1.60784 -0.884352 0
M  V30 3234 H 303.457 3.94792 0.30911 0
M  V30 3235 H 304.631 3.83955 -2.54785 0
M  V30 3236 H 302.946 3.55456 -2.16888 0
M  V30 3237 H 305.543 5.34683 -0.0420404 0
M  V30 3238 H 305.886 4.02824 1.05065 0
M  V30 3239 H 306.419 3.92536 -0.645007 0
M  V30 3240 H 303.158 5.86234 -2.93275 0
M  V30 3241 H 302.678 5.87258 -1.22019 0
M  V30 3242 H 304.357 6.24776 -1.6812 0
M  V30 3243 N 304.489 0.459591 1.5075 0
M  V30 3244 C 305.719 -0.0972338 2.06371 0
M  V30 3245 C 306.127 -1.35074 1.32483 0
M  V30 3246 O 305.47 -1.79637 0.384226 0
M  V30 3247 C 305.532 -0.462759 3.56509 0
M  V30 3248 C 305.196 0.687084 4.51805 0
M  V30 3249 C 306.193 1.56578 4.95761 0
M  V30 3250 C 303.878 0.874144 4.94635 0
M  V30 3251 C 305.872 2.61604 5.81242 0
M  V30 3252 C 303.559 1.92765 5.79901 0
M  V30 3253 C 304.557 2.79697 6.23104 0
M  V30 3254 O 304.245 3.83235 7.06673 0
M  V30 3255 H 303.977 -0.00140687 0.675999 0
M  V30 3256 H 306.531 0.644011 1.95043 0
M  V30 3257 H 304.761 -1.25703 3.65699 0
M  V30 3258 H 306.45 -0.953323 3.94546 0
M  V30 3259 H 307.216 1.4329 4.6335 0
M  V30 3260 H 303.095 0.207006 4.60535 0
M  V30 3261 H 306.639 3.29489 6.14884 0
M  V30 3262 H 302.536 2.06064 6.11725 0
M  V30 3263 H 303.304 3.80084 7.24899 0
M  V30 3264 N 305.967 -1.56429 0.191757 0
M  V30 3265 C 306.899 -2.16154 -0.762245 0
M  V30 3266 C 307.912 -1.12247 -1.17917 0
M  V30 3267 O 309.101 -1.39353 -1.11548 0
M  V30 3268 C 306.201 -2.70606 -2.04024 0
M  V30 3269 C 305.374 -3.99381 -1.78364 0
M  V30 3270 C 304.433 -4.38692 -2.90578 0
M  V30 3271 O 303.459 -5.06179 -2.6033 0
M  V30 3272 N 304.661 -4.01922 -4.18854 0
M  V30 3273 H 307.426 -2.98643 -0.251526 0
M  V30 3274 H 304.987 -1.61897 0.00967373 0
M  V30 3275 H 306.979 -2.93891 -2.78227 0
M  V30 3276 H 305.549 -1.9259 -2.46227 0
M  V30 3277 H 304.769 -3.84262 -0.879581 0
M  V30 3278 H 306.057 -4.83445 -1.58614 0
M  V30 3279 H 305.455 -3.47631 -4.46283 0
M  V30 3280 H 304.012 -4.30165 -4.89695 0
M  V30 3281 N 307.445 0.0818655 -1.57387 0
M  V30 3282 C 308.856 0.634871 -1.75574 0
M  V30 3283 C 309.207 1.78435 -0.815809 0
M  V30 3284 O 308.332 2.164 0.0025366 0
M  V30 3285 C 308.927 1.15845 -3.18379 0
M  V30 3286 C 307.486 1.65741 -3.37945 0
M  V30 3287 C 306.633 0.572549 -2.71325 0
M  V30 3288 H 309.584 -0.144268 -1.58043 0
M  V30 3289 H 309.605 2.02751 -3.21982 0
M  V30 3290 H 309.117 0.321631 -3.86765 0
M  V30 3291 H 307.218 2.51781 -2.74658 0
M  V30 3292 H 307.331 1.74129 -4.46336 0
M  V30 3293 H 305.695 1.01518 -2.33594 0
M  V30 3294 H 306.478 -0.253918 -3.4236 0
M  V30 3295 N 308.923 1.53595 0.353017 0
M  V30 3296 C 310.171 1.70049 1.09215 0
M  V30 3297 C 310.492 0.461406 1.89463 0
M  V30 3298 O 309.762 -0.524633 1.88744 0
M  V30 3299 H 308.342 0.626912 0.40619 0
M  V30 3300 H 311.004 1.90822 0.396585 0
M  V30 3301 H 310.1 2.56718 1.77488 0
M  V30 3302 N 310.401 -0.613514 1.45168 0
M  V30 3303 C 311.333 -1.73825 1.4939 0
M  V30 3304 C 312.346 -1.58175 0.385304 0
M  V30 3305 O 313.535 -1.66165 0.652036 0
M  V30 3306 C 310.635 -3.11758 1.32891 0
M  V30 3307 C 309.808 -3.53704 2.57317 0
M  V30 3308 C 308.867 -4.70579 2.35462 0
M  V30 3309 O 307.893 -4.77996 3.09044 0
M  V30 3310 N 309.095 -5.63454 1.39644 0
M  V30 3311 H 311.86 -1.70669 2.46358 0
M  V30 3312 H 309.421 -0.79862 1.40832 0
M  V30 3313 H 311.413 -3.87692 1.1609 0
M  V30 3314 H 309.983 -3.09456 0.442218 0
M  V30 3315 H 309.203 -2.67794 2.89275 0
M  V30 3316 H 310.491 -3.78486 3.40038 0
M  V30 3317 H 309.889 -5.6017 0.789062 0
M  V30 3318 H 308.446 -6.38944 1.28816 0
M  V30 3319 N 311.879 -1.3236 -0.855495 0
M  V30 3320 C 312.809 -1.23833 -1.97958 0
M  V30 3321 C 313.79 -0.122361 -1.69659 0
M  V30 3322 O 314.975 -0.30939 -1.9172 0
M  V30 3323 C 312.105 -0.959772 -3.33775 0
M  V30 3324 C 311.059 -2.03689 -3.76424 0
M  V30 3325 C 310.385 -1.61075 -5.09862 0
M  V30 3326 C 311.685 -3.4518 -3.9198 0
M  V30 3327 H 313.379 -2.1788 -2.0535 0
M  V30 3328 H 310.925 -1.04891 -0.986605 0
M  V30 3329 H 312.878 -0.886678 -4.11966 0
M  V30 3330 H 311.602 0.0163404 -3.26596 0
M  V30 3331 H 310.261 -2.10012 -3.00484 0
M  V30 3332 H 309.909 -0.622107 -4.99138 0
M  V30 3333 H 309.609 -2.33143 -5.39368 0
M  V30 3334 H 311.133 -1.55201 -5.90546 0
M  V30 3335 H 312.547 -3.4145 -4.60526 0
M  V30 3336 H 310.944 -4.1559 -4.32903 0
M  V30 3337 H 312.014 -3.84903 -2.94919 0
M  V30 3338 N 313.357 1.07166 -1.15556 0
M  V30 3339 C 314.768 1.6127 -0.940693 0
M  V30 3340 C 315.119 1.89251 0.517551 0
M  V30 3341 O 314.244 1.65937 1.38903 0
M  V30 3342 C 314.839 2.92993 -1.7012 0
M  V30 3343 C 313.398 3.43832 -1.53156 0
M  V30 3344 C 312.545 2.1786 -1.71558 0
M  V30 3345 H 315.496 0.90229 -1.30554 0
M  V30 3346 H 315.517 3.62007 -1.17181 0
M  V30 3347 H 315.029 2.72596 -2.76248 0
M  V30 3348 H 313.13 3.69307 -0.494294 0
M  V30 3349 H 313.243 4.19747 -2.30975 0
M  V30 3350 H 311.607 2.2765 -1.14225 0
M  V30 3351 H 312.39 1.99956 -2.79056 0
M  V30 3352 N 314.835 0.952656 1.25548 0
M  V30 3353 C 316.06 0.623025 1.97821 0
M  V30 3354 C 316.485 -0.7976 1.70352 0
M  V30 3355 O 315.843 -1.53905 0.958283 0
M  V30 3356 C 315.891 0.885532 3.49558 0
M  V30 3357 O 314.995 -0.0366641 4.12384 0
M  V30 3358 H 314.336 0.237082 0.620232 0
M  V30 3359 H 316.866 1.27871 1.59719 0
M  V30 3360 H 316.876 0.811009 3.99858 0
M  V30 3361 H 315.551 1.92094 3.6888 0
M  V30 3362 H 314.128 0.0898954 3.72792 0
M  V30 3363 N 316.313 -1.40141 0.720998 0
M  V30 3364 C 317.223 -2.34486 0.0731031 0
M  V30 3365 C 318.239 -1.57587 -0.737723 0
M  V30 3366 O 319.415 -1.89949 -0.669429 0
M  V30 3367 C 316.48 -3.36528 -0.833656 0
M  V30 3368 C 315.541 -4.29298 -0.0121673 0
M  V30 3369 C 314.774 -5.26466 -0.875742 0
M  V30 3370 O 314.997 -5.29745 -2.11485 0
M  V30 3371 O 313.931 -6.01092 -0.31185 0
M  V30 3372 H 317.757 -2.9152 0.851444 0
M  V30 3373 H 315.342 -1.41427 0.481527 0
M  V30 3374 H 317.224 -3.99093 -1.35289 0
M  V30 3375 H 315.899 -2.81899 -1.59105 0
M  V30 3376 H 314.806 -3.70001 0.552262 0
M  V30 3377 H 316.139 -4.87094 0.707129 0
M  V30 3378 N 317.792 -0.46758 -1.50504 0
M  V30 3379 C 318.724 0.364655 -2.26281 0
M  V30 3380 C 319.737 0.960151 -1.31472 0
M  V30 3381 O 320.926 0.849153 -1.57008 0
M  V30 3382 C 318.026 1.52509 -3.02645 0
M  V30 3383 C 317.199 1.04302 -4.24782 0
M  V30 3384 C 316.258 2.07709 -4.8347 0
M  V30 3385 O 315.284 1.65913 -5.44483 0
M  V30 3386 N 316.486 3.40485 -4.70159 0
M  V30 3387 H 319.251 -0.28495 -2.98342 0
M  V30 3388 H 316.812 -0.298163 -1.59131 0
M  V30 3389 H 318.804 2.21371 -3.38787 0
M  V30 3390 H 317.374 2.07945 -2.33404 0
M  V30 3391 H 316.594 0.180393 -3.93787 0
M  V30 3392 H 317.882 0.698798 -5.03978 0
M  V30 3393 H 317.28 3.77155 -4.21629 0
M  V30 3394 H 315.837 4.05156 -5.1058 0
M  V30 3395 N 319.27 1.56325 -0.20005 0
M  V30 3396 C 320.5 2.01811 0.442232 0
M  V30 3397 C 320.908 1.07932 1.55394 0
M  V30 3398 O 320.251 0.0772685 1.83537 0
M  V30 3399 C 320.313 3.43685 1.05457 0
M  V30 3400 C 319.977 4.56928 0.0809833 0
M  V30 3401 C 320.974 5.15009 -0.711471 0
M  V30 3402 C 318.659 5.0229 -0.0315364 0
M  V30 3403 C 320.653 6.16904 -1.60336 0
M  V30 3404 C 318.34 6.04028 -0.926981 0
M  V30 3405 C 319.338 6.6121 -1.71146 0
M  V30 3406 O 319.026 7.60971 -2.59189 0
M  V30 3407 H 318.758 0.666173 0.114848 0
M  V30 3408 H 321.312 2.03085 -0.307511 0
M  V30 3409 H 319.542 3.39413 1.85299 0
M  V30 3410 H 321.231 3.72948 1.60201 0
M  V30 3411 H 321.997 4.80827 -0.634873 0
M  V30 3412 H 317.876 4.57476 0.568902 0
M  V30 3413 H 321.42 6.61464 -2.21611 0
M  V30 3414 H 317.317 6.37634 -1.00468 0
M  V30 3415 H 318.085 7.7841 -2.53023 0
M  V30 3416 N 320.748 -0.0735177 1.57428 0
M  V30 3417 C 321.994 -0.768909 1.88307 0
M  V30 3418 C 322.349 -1.75273 0.793535 0
M  V30 3419 O 321.642 -1.90527 -0.202466 0
M  V30 3420 C 321.836 -1.51799 3.23561 0
M  V30 3421 C 321.665 -0.608217 4.45568 0
M  V30 3422 C 320.435 -0.245808 5.04702 0
M  V30 3423 C 322.633 0.0942904 5.14214 0
M  V30 3424 N 320.615 0.66987 6.10234 0
M  V30 3425 C 321.986 0.867222 6.13905 0
M  V30 3426 C 324.041 0.165943 4.97623 0
M  V30 3427 C 322.744 1.70515 6.98797 0
M  V30 3428 C 324.77 0.990837 5.83041 0
M  V30 3429 C 324.132 1.75182 6.82269 0
M  V30 3430 H 320.231 -0.25685 0.738615 0
M  V30 3431 H 322.815 -0.030499 1.94676 0
M  V30 3432 H 320.986 -2.22713 3.18203 0
M  V30 3433 H 322.718 -2.16226 3.42094 0
M  V30 3434 H 319.473 -0.598284 4.69806 0
M  V30 3435 H 319.897 1.1209 6.67656 0
M  V30 3436 H 324.539 -0.408064 4.20826 0
M  V30 3437 H 322.257 2.29013 7.7497 0
M  V30 3438 H 325.843 1.04923 5.72261 0
M  V30 3439 H 324.723 2.37983 7.47217 0
M  V30 3440 N 322.226 -1.5378 -0.344866 0
M  V30 3441 C 323.174 -1.82373 -1.4437 0
M  V30 3442 C 324.168 -0.694128 -1.54526 0
M  V30 3443 O 325.374 -0.877442 -1.57165 0
M  V30 3444 H 321.749 -0.577765 -0.481344 0
M  V30 3445 H 323.72 -2.74306 -1.17468 0
M  V30 3446 C 322.469 -2.04898 -2.80913 0
M  V30 3447 H 321.792 -2.9127 -2.73865 0
M  V30 3448 H 323.232 -2.28871 -3.56923 0
M  V30 3449 C 321.691 -0.834116 -3.26411 0
M  V30 3450 O 322.221 -0.0328885 -4.01687 0
M  V30 3451 N 320.427 -0.65171 -2.83198 0
M  V30 3452 H 319.974 -1.30489 -2.22104 0
M  V30 3453 H 319.932 0.159686 -3.13994 0
M  V30 3454 N 323.704 0.605807 -1.45491 0
M  V30 3455 C 324.651 1.7164 -1.54299 0
M  V30 3456 C 325.621 1.61486 -0.388761 0
M  V30 3457 O 326.806 1.81039 -0.602445 0
M  V30 3458 C 323.946 3.09953 -1.51734 0
M  V30 3459 C 323.059 3.309 -2.77721 0
M  V30 3460 C 322.194 4.59329 -2.66816 0
M  V30 3461 C 321.233 4.7354 -3.87848 0
M  V30 3462 N 320.37 5.9327 -3.75467 0
M  V30 3463 H 325.21 1.63449 -2.49176 0
M  V30 3464 H 322.747 0.796957 -1.23641 0
M  V30 3465 H 324.705 3.89977 -1.48235 0
M  V30 3466 H 323.335 3.17098 -0.604068 0
M  V30 3467 H 322.387 2.44639 -2.913 0
M  V30 3468 H 323.699 3.37274 -3.67488 0
M  V30 3469 H 322.853 5.4755 -2.61292 0
M  V30 3470 H 321.592 4.55355 -1.74651 0
M  V30 3471 H 320.597 3.83741 -3.93729 0
M  V30 3472 H 321.822 4.79309 -4.81082 0
M  V30 3473 H 319.768 5.90338 -2.86072 0
M  V30 3474 H 319.685 6.00811 -4.5887 0
M  V30 3475 H 320.953 6.83984 -3.73879 0
M  V30 3476 N 325.182 1.32811 0.848464 0
M  V30 3477 C 326.428 1.23907 1.60546 0
M  V30 3478 C 326.761 -0.197161 1.93197 0
M  V30 3479 O 326.036 -1.13596 1.5788 0
M  V30 3480 C 326.319 2.10489 2.92175 0
M  V30 3481 C 326.172 3.62522 2.66266 0
M  V30 3482 C 327.491 1.97075 3.93509 0
M  V30 3483 H 324.61 0.451459 0.58254 0
M  V30 3484 H 327.252 1.62818 0.979296 0
M  V30 3485 H 325.402 1.77434 3.45614 0
M  V30 3486 H 327.074 4.05821 2.19334 0
M  V30 3487 H 325.317 3.84879 2.00126 0
M  V30 3488 H 325.988 4.18437 3.6002 0
M  V30 3489 H 328.464 2.26045 3.49346 0
M  V30 3490 H 327.34 2.59923 4.83457 0
M  V30 3491 H 327.601 0.940186 4.31987 0
M  V30 3492 N 326.66 -1.06551 1.16123 0
M  V30 3493 C 327.623 -2.12132 0.867906 0
M  V30 3494 C 328.623 -1.60224 -0.135944 0
M  V30 3495 O 329.813 -1.73943 0.0946422 0
M  V30 3496 C 326.945 -3.396 0.297419 0
M  V30 3497 H 328.138 -2.39586 1.80385 0
M  V30 3498 H 325.691 -1.22574 0.969812 0
M  V30 3499 H 326.426 -3.17794 -0.64633 0
M  V30 3500 H 326.211 -3.78581 1.02073 0
M  V30 3501 H 327.701 -4.17455 0.110052 0
M  V30 3502 N 328.138 -0.959301 -1.25041 0
M  V30 3503 C 329.068 -0.501388 -2.28053 0
M  V30 3504 C 330.049 0.454673 -1.63911 0
M  V30 3505 O 331.234 0.352618 -1.90972 0
M  V30 3506 C 328.364 0.217224 -3.4662 0
M  V30 3507 C 327.318 -0.654034 -4.22973 0
M  V30 3508 C 326.644 0.195589 -5.34342 0
M  V30 3509 C 327.944 -1.93447 -4.85155 0
M  V30 3510 H 329.638 -1.36238 -2.66608 0
M  V30 3511 H 327.184 -0.656534 -1.28163 0
M  V30 3512 H 329.137 0.548732 -4.17812 0
M  V30 3513 H 327.861 1.1125 -3.07068 0
M  V30 3514 H 326.52 -0.968693 -3.5357 0
M  V30 3515 H 326.168 1.09076 -4.91031 0
M  V30 3516 H 325.868 -0.384091 -5.86343 0
M  V30 3517 H 327.392 0.521958 -6.08365 0
M  V30 3518 H 328.806 -1.66908 -5.48466 0
M  V30 3519 H 327.203 -2.46018 -5.47353 0
M  V30 3520 H 328.273 -2.63466 -4.07079 0
M  V30 3521 N 329.616 1.39756 -0.72842 0
M  V30 3522 C 330.548 2.29157 -0.0446202 0
M  V30 3523 C 331.561 1.46484 0.710367 0
M  V30 3524 O 332.75 1.69632 0.55562 0
M  V30 3525 C 329.85 3.24987 0.961071 0
M  V30 3526 C 329.023 4.36572 0.268967 0
M  V30 3527 C 328.082 5.12756 1.18184 0
M  V30 3528 O 327.108 5.6534 0.661794 0
M  V30 3529 N 328.31 5.23331 2.51206 0
M  V30 3530 H 331.075 2.88482 -0.812295 0
M  V30 3531 H 328.636 1.51265 -0.577098 0
M  V30 3532 H 330.628 3.72827 1.57423 0
M  V30 3533 H 329.198 2.66739 1.63 0
M  V30 3534 H 328.418 3.90694 -0.524574 0
M  V30 3535 H 329.706 5.08363 -0.210934 0
M  V30 3536 H 329.104 4.82116 2.9594 0
M  V30 3537 H 327.661 5.74634 3.07634 0
M  V30 3538 N 331.094 0.475555 1.50254 0
M  V30 3539 C 332.51 0.12997 1.5907 0
M  V30 3540 C 332.71 -1.36385 1.48328 0
M  V30 3541 O 331.766 -2.13754 1.34407 0
M  V30 3542 C 333.079 0.684139 2.92814 0
M  V30 3543 C 334.627 0.647965 3.0622 0
M  V30 3544 C 335.102 1.17975 4.42545 0
M  V30 3545 N 336.593 1.13936 4.48969 0
M  V30 3546 C 337.328 1.52129 5.52851 0
M  V30 3547 N 336.824 1.97793 6.63965 0
M  V30 3548 N 338.617 1.43704 5.4342 0
M  V30 3549 H 330.768 1.44706 1.55479 0
M  V30 3550 H 333.031 0.598691 0.735033 0
M  V30 3551 H 332.737 1.73079 3.06164 0
M  V30 3552 H 332.611 0.130204 3.76975 0
M  V30 3553 H 334.998 -0.38979 2.92514 0
M  V30 3554 H 335.079 1.23876 2.23805 0
M  V30 3555 H 334.723 2.21616 4.57 0
M  V30 3556 H 334.653 0.565138 5.23559 0
M  V30 3557 H 337.144 0.804488 3.69238 0
M  V30 3558 H 337.457 2.25072 7.39299 0
M  V30 3559 H 335.802 2.01749 6.65073 0
M  V30 3560 H 338.993 1.07867 4.55502 0
M  V30 3561 H 339.166 1.73794 6.24259 0
M  V30 3562 N 332.573 -1.56217 0.208337 0
M  V30 3563 C 333.798 -2.02782 -0.435222 0
M  V30 3564 C 334.223 -1.08738 -1.53485 0
M  V30 3565 O 333.581 -0.0731855 -1.81152 0
M  V30 3566 C 333.629 -3.47687 -0.956335 0
M  V30 3567 O 332.733 -3.56773 -2.06849 0
M  V30 3568 H 332.074 -0.656403 -0.100158 0
M  V30 3569 H 334.604 -2.02033 0.3231 0
M  V30 3570 H 334.614 -3.87745 -1.26955 0
M  V30 3571 H 333.289 -4.15624 -0.15143 0
M  V30 3572 H 331.866 -3.28597 -1.76292 0
M  V30 3573 N 334.051 0.0651679 -1.57465 0
M  V30 3574 C 335.276 0.779605 -1.9219 0
M  V30 3575 C 335.701 1.69988 -0.805333 0
M  V30 3576 O 335.059 1.79685 0.241435 0
M  V30 3577 C 335.107 1.54364 -3.2589 0
M  V30 3578 O 334.211 2.65474 -3.1559 0
M  V30 3579 H 333.552 0.212249 -0.629163 0
M  V30 3580 H 336.082 0.0314294 -2.04576 0
M  V30 3581 H 336.092 1.92146 -3.59922 0
M  V30 3582 H 334.767 0.868457 -4.06732 0
M  V30 3583 H 333.344 2.30501 -2.93128 0
M  V30 3584 N 335.529 1.53961 0.336706 0
M  V30 3585 C 336.777 1.71197 1.07405 0
M  V30 3586 C 337.098 0.481475 1.88962 0
M  V30 3587 O 336.368 -0.504585 1.8929 0
M  V30 3588 H 334.948 0.631185 0.399517 0
M  V30 3589 H 337.61 1.91232 0.376323 0
M  V30 3590 H 336.706 2.58587 1.74755 0
M  V30 3591 N 337.007 -0.598083 1.45811 0
M  V30 3592 C 337.94 -1.7223 1.49706 0
M  V30 3593 C 338.918 -1.58732 0.352535 0
M  V30 3594 O 340.102 -1.80162 0.554438 0
M  V30 3595 C 337.229 -3.10148 1.3611 0
M  V30 3596 C 336.275 -3.42209 2.54549 0
M  V30 3597 S 337.108 -3.35989 4.16979 0
M  V30 3598 C 338.264 -4.76471 4.05865 0
M  V30 3599 H 338.497 -1.68665 2.44826 0
M  V30 3600 H 336.03 -0.775541 1.33509 0
M  V30 3601 H 337.988 -3.8972 1.28953 0
M  V30 3602 H 336.649 -3.11219 0.424451 0
M  V30 3603 H 335.842 -4.42652 2.40988 0
M  V30 3604 H 335.444 -2.70173 2.58617 0
M  V30 3605 H 337.736 -5.665 3.71596 0
M  V30 3606 H 338.679 -4.95089 5.06253 0
M  V30 3607 H 339.087 -4.52599 3.37364 0
M  V30 3608 N 338.485 -1.33259 -0.841409 0
M  V30 3609 C 339.433 -1.23279 -1.97244 0
M  V30 3610 C 340.427 -0.134706 -1.68864 0
M  V30 3611 O 341.633 -0.298501 -1.77508 0
M  V30 3612 H 338.008 -0.382497 -0.647457 0
M  V30 3613 H 339.979 -2.18906 -2.02787 0
M  V30 3614 C 338.728 -0.986268 -3.33419 0
M  V30 3615 H 338.051 -1.82347 -3.55794 0
M  V30 3616 H 339.491 -0.956728 -4.13065 0
M  V30 3617 C 337.95 0.310842 -3.35463 0
M  V30 3618 O 338.48 1.31838 -3.79449 0
M  V30 3619 N 336.686 0.337485 -2.88634 0
M  V30 3620 H 336.233 -0.482967 -2.53032 0
M  V30 3621 H 336.191 1.20518 -2.90384 0
M  V30 3622 N 339.963 1.05934 -1.16686 0
M  V30 3623 C 340.873 2.17014 -0.891183 0
M  V30 3624 C 341.889 1.73453 0.137907 0
M  V30 3625 O 343.065 2.01361 -0.039592 0
M  V30 3626 C 340.13 3.44384 -0.400099 0
M  V30 3627 C 339.191 4.02433 -1.49486 0
M  V30 3628 C 338.424 5.23723 -1.02711 0
M  V30 3629 O 338.647 5.7027 0.121716 0
M  V30 3630 O 337.581 5.7382 -1.81699 0
M  V30 3631 H 341.407 2.43113 -1.82015 0
M  V30 3632 H 338.992 1.15541 -0.947132 0
M  V30 3633 H 340.874 4.21189 -0.133392 0
M  V30 3634 H 339.549 3.19802 0.500817 0
M  V30 3635 H 338.456 3.27102 -1.81535 0
M  V30 3636 H 339.789 4.31317 -2.37121 0
M  V30 3637 N 341.441 0.965919 1.2453 0
M  V30 3638 C 342.669 0.644385 1.96609 0
M  V30 3639 C 343.084 -0.785823 1.71669 0
M  V30 3640 O 342.441 -1.52703 0.999399 0
M  V30 3641 C 342.492 0.907375 3.49927 0
M  V30 3642 O 342.213 2.28136 3.74013 0
M  V30 3643 C 343.714 0.599784 4.39224 0
M  V30 3644 H 340.934 0.240588 0.626385 0
M  V30 3645 H 343.478 1.29337 1.58405 0
M  V30 3646 H 341.633 0.304631 3.862 0
M  V30 3647 H 342.047 2.36002 4.68405 0
M  V30 3648 H 343.521 0.834263 5.45659 0
M  V30 3649 H 343.998 -0.465921 4.36722 0
M  V30 3650 H 344.604 1.18235 4.08535 0
M  V30 3651 N 342.919 -1.39368 0.735821 0
M  V30 3652 C 344.167 -2.00101 0.283562 0
M  V30 3653 C 344.488 -1.5868 -1.13338 0
M  V30 3654 O 343.758 -0.835423 -1.77193 0
M  V30 3655 H 342.338 -0.740024 0.101851 0
M  V30 3656 H 345 -1.70404 0.945962 0
M  V30 3657 H 344.096 -3.10323 0.332604 0
M  V30 3658 N 344.397 -0.483516 -1.5 0
M  V30 3659 C 345.643 0.0672592 -2.02688 0
M  V30 3660 C 345.976 1.38247 -1.36387 0
M  V30 3661 O 345.251 1.88131 -0.493675 0
M  V30 3662 C 345.534 0.238109 -3.59312 0
M  V30 3663 C 345.387 -1.099 -4.36168 0
M  V30 3664 C 346.706 0.986916 -4.28892 0
M  V30 3665 H 343.825 0.0229696 -0.736642 0
M  V30 3666 H 346.467 -0.631527 -1.79197 0
M  V30 3667 H 344.617 0.8333 -3.79458 0
M  V30 3668 H 346.289 -1.73172 -4.27562 0
M  V30 3669 H 344.532 -1.69261 -3.99416 0
M  V30 3670 H 345.203 -0.932954 -5.44059 0
M  V30 3671 H 347.679 0.482302 -4.13295 0
M  V30 3672 H 346.555 1.07527 -5.38265 0
M  V30 3673 H 346.816 2.0265 -3.92919 0
M  V30 3674 N 345.875 1.56104 -0.216619 0
M  V30 3675 C 347.124 1.97348 0.416744 0
M  V30 3676 C 347.437 1.10715 1.6125 0
M  V30 3677 O 348.643 1.41836 2.31506 0
M  V30 3678 C 347.099 3.51059 0.792835 0
M  V30 3679 C 346.707 4.46387 -0.379828 0
M  V30 3680 C 348.451 4.01026 1.39208 0
M  V30 3681 C 346.358 5.91397 0.0184223 0
M  V30 3682 H 345.288 0.736942 0.159475 0
M  V30 3683 H 347.939 1.80827 -0.31205 0
M  V30 3684 H 346.321 3.63162 1.57891 0
M  V30 3685 H 347.495 4.46029 -1.15737 0
M  V30 3686 H 345.81 4.06734 -0.891979 0
M  V30 3687 H 348.407 5.0686 1.70286 0
M  V30 3688 H 348.75 3.46587 2.30614 0
M  V30 3689 H 349.283 3.92125 0.669537 0
M  V30 3690 H 346.022 6.49807 -0.862002 0
M  V30 3691 H 345.542 5.94961 0.760384 0
M  V30 3692 H 347.221 6.45455 0.446818 0
M  V30 3693 N 347.353 -0.0568162 1.57498 0
M  V30 3694 C 348.599 -0.75422 1.88253 0
M  V30 3695 C 348.932 -1.76461 0.810865 0
M  V30 3696 O 348.207 -1.93691 -0.177259 0
M  V30 3697 C 348.49 -1.44878 3.2967 0
M  V30 3698 C 348.343 -0.453789 4.47505 0
M  V30 3699 C 349.662 -2.38994 3.69554 0
M  V30 3700 H 346.781 -0.272724 0.684683 0
M  V30 3701 H 349.423 -0.0172113 1.89992 0
M  V30 3702 H 347.573 -2.077 3.28318 0
M  V30 3703 H 349.245 0.170371 4.60985 0
M  V30 3704 H 347.488 0.229552 4.33192 0
M  V30 3705 H 348.159 -0.977699 5.43273 0
M  V30 3706 H 350.635 -1.86239 3.72095 0
M  V30 3707 H 349.511 -2.84587 4.69363 0
M  V30 3708 H 349.772 -3.24461 3.00296 0
M  V30 3709 N 348.832 -1.54138 -0.328536 0
M  V30 3710 C 350.078 -1.73297 -1.06488 0
M  V30 3711 C 350.433 -0.497958 -1.85844 0
M  V30 3712 O 349.726 0.509591 -1.84699 0
M  V30 3713 C 349.92 -2.9457 -2.02393 0
M  V30 3714 C 349.749 -4.29747 -1.32467 0
M  V30 3715 C 348.519 -4.93987 -1.06324 0
M  V30 3716 C 350.717 -5.08903 -0.743137 0
M  V30 3717 N 348.699 -6.13005 -0.331359 0
M  V30 3718 C 350.07 -6.19836 -0.142602 0
M  V30 3719 C 352.125 -4.93699 -0.64546 0
M  V30 3720 C 350.828 -7.17224 0.546125 0
M  V30 3721 C 352.854 -5.91393 0.0295558 0
M  V30 3722 C 352.216 -7.01674 0.619056 0
M  V30 3723 H 348.315 -0.687017 -0.373539 0
M  V30 3724 H 350.899 -1.91589 -0.346659 0
M  V30 3725 H 349.07 -2.77752 -2.71493 0
M  V30 3726 H 350.802 -3.0238 -2.68977 0
M  V30 3727 H 347.557 -4.53824 -1.35428 0
M  V30 3728 H 347.981 -6.76997 0.0202939 0
M  V30 3729 H 352.623 -4.08589 -1.08695 0
M  V30 3730 H 350.341 -8.01896 0.999459 0
M  V30 3731 H 353.927 -5.81706 0.104705 0
M  V30 3732 H 352.807 -7.75971 1.13309 0
M  V30 3733 N 350.31 0.590341 -1.46126 0
M  V30 3734 C 351.54 1.37304 -1.54373 0
M  V30 3735 C 351.948 1.88332 -0.181071 0
M  V30 3736 O 351.291 1.63852 0.830559 0
M  V30 3737 C 351.353 2.6012 -2.48149 0
M  V30 3738 C 351.017 2.30613 -3.94546 0
M  V30 3739 C 352.014 1.89915 -4.83971 0
M  V30 3740 C 349.699 2.42993 -4.39613 0
M  V30 3741 C 351.693 1.61981 -6.16475 0
M  V30 3742 C 349.38 2.14672 -5.72153 0
M  V30 3743 C 350.378 1.7423 -6.60404 0
M  V30 3744 O 350.066 1.46251 -7.90485 0
M  V30 3745 H 349.798 0.426086 -0.524811 0
M  V30 3746 H 352.352 0.72539 -1.92165 0
M  V30 3747 H 350.582 3.27664 -2.05361 0
M  V30 3748 H 352.271 3.22182 -2.46887 0
M  V30 3749 H 353.037 1.79872 -4.50412 0
M  V30 3750 H 348.916 2.73435 -3.71153 0
M  V30 3751 H 352.46 1.30341 -6.85315 0
M  V30 3752 H 348.357 2.24337 -6.05263 0
M  V30 3753 H 349.125 1.6016 -8.02677 0
M  V30 3754 N 351.788 1.33704 0.83433 0
M  V30 3755 C 352.718 1.26967 1.95963 0
M  V30 3756 C 353.699 0.149337 1.69443 0
M  V30 3757 O 354.884 0.339852 1.91203 0
M  V30 3758 C 352.014 1.01275 3.32206 0
M  V30 3759 C 350.968 2.09652 3.73136 0
M  V30 3760 C 350.294 1.69166 5.07235 0
M  V30 3761 C 351.594 3.51372 3.86439 0
M  V30 3762 H 353.288 2.2112 2.01857 0
M  V30 3763 H 350.834 1.06447 0.969793 0
M  V30 3764 H 352.787 0.952106 4.10503 0
M  V30 3765 H 351.511 0.0356203 3.26581 0
M  V30 3766 H 350.17 2.14766 2.97104 0
M  V30 3767 H 349.818 0.701437 4.98085 0
M  V30 3768 H 349.518 2.41694 5.35591 0
M  V30 3769 H 351.042 1.64576 5.88003 0
M  V30 3770 H 352.456 3.48734 4.55036 0
M  V30 3771 H 350.853 4.22425 4.26236 0
M  V30 3772 H 351.923 3.89546 2.88759 0
M  V30 3773 N 353.266 -1.05314 1.17247 0
M  V30 3774 C 354.229 -2.112 0.890357 0
M  V30 3775 C 355.229 -1.60359 -0.118943 0
M  V30 3776 O 356.419 -1.73833 0.113086 0
M  V30 3777 C 353.551 -3.39266 0.333422 0
M  V30 3778 H 354.744 -2.37659 1.82916 0
M  V30 3779 H 352.297 -1.21538 0.982758 0
M  V30 3780 H 353.032 -3.18462 -0.612587 0
M  V30 3781 H 352.817 -3.77477 1.06082 0
M  V30 3782 H 354.307 -4.17315 0.154322 0
M  V30 3783 N 354.744 -0.972509 -1.24016 0
M  V30 3784 C 355.674 -0.525548 -2.27509 0
M  V30 3785 C 356.655 0.437262 -1.64384 0
M  V30 3786 O 357.84 0.332343 -1.91335 0
M  V30 3787 C 354.97 0.180448 -3.46831 0
M  V30 3788 C 353.924 -0.698859 -4.22256 0
M  V30 3789 C 353.25 0.138903 -5.3452 0
M  V30 3790 C 354.55 -1.98582 -4.83076 0
M  V30 3791 H 356.244 -1.39058 -2.65148 0
M  V30 3792 H 353.79 -0.67009 -1.27459 0
M  V30 3793 H 355.743 0.504387 -4.18371 0
M  V30 3794 H 354.467 1.07987 -3.08231 0
M  V30 3795 H 353.126 -1.00614 -3.52523 0
M  V30 3796 H 352.774 1.03862 -4.9216 0
M  V30 3797 H 352.474 -0.446259 -5.85903 0
M  V30 3798 H 353.998 0.457404 -6.08884 0
M  V30 3799 H 355.412 -1.72715 -5.46665 0
M  V30 3800 H 353.809 -2.5181 -5.44713 0
M  V30 3801 H 354.879 -2.67769 -4.04262 0
M  V30 3802 N 356.222 1.38976 -0.743202 0
M  V30 3803 C 357.462 2.02193 -0.29954 0
M  V30 3804 C 357.826 1.5771 1.09506 0
M  V30 3805 O 359.027 2.13184 1.63726 0
M  V30 3806 C 357.298 3.55077 -0.406822 0
M  V30 3807 S 358.857 4.38778 -0.0442109 0
M  V30 3808 H 355.675 0.701335 -0.116836 0
M  V30 3809 H 358.277 1.69651 -0.971529 0
M  V30 3810 H 356.981 3.84942 -1.42295 0
M  V30 3811 H 356.512 3.92383 0.282707 0
M  V30 3812 H 358.527 4.82222 1.16947 0
M  V30 3813 N 357.7 0.491464 1.49741 0
M  V30 3814 C 358.63 -0.28154 2.31796 0
M  V30 3815 C 359.611 -0.971473 1.3963 0
M  V30 3816 O 360.796 -0.964719 1.68543 0
M  V30 3817 C 357.926 -1.35203 3.19902 0
M  V30 3818 C 356.88 -0.782529 4.20786 0
M  V30 3819 C 356.206 -1.95283 4.97764 0
M  V30 3820 C 357.506 0.21999 5.21837 0
M  V30 3821 H 359.2 0.403355 2.96671 0
M  V30 3822 H 356.746 0.195425 1.42668 0
M  V30 3823 H 358.699 -1.90045 3.76113 0
M  V30 3824 H 357.423 -2.06598 2.52953 0
M  V30 3825 H 356.082 -0.255928 3.65706 0
M  V30 3826 H 355.73 -2.65423 4.2727 0
M  V30 3827 H 355.43 -1.57789 5.66018 0
M  V30 3828 H 356.954 -2.50577 5.56816 0
M  V30 3829 H 358.368 -0.23996 5.72798 0
M  V30 3830 H 356.765 0.51026 5.97927 0
M  V30 3831 H 357.835 1.13911 4.7133 0
M  V30 3832 N 359.178 -1.55987 0.224894 0
M  V30 3833 C 360.108 -2.23426 -0.678457 0
M  V30 3834 C 361.089 -1.20709 -1.19847 0
M  V30 3835 O 362.274 -1.49304 -1.24186 0
M  V30 3836 C 359.404 -2.91676 -1.88527 0
M  V30 3837 C 358.358 -4.00893 -1.49896 0
M  V30 3838 C 357.684 -4.56455 -2.78483 0
M  V30 3839 C 358.984 -5.17769 -0.686461 0
M  V30 3840 H 360.678 -2.99175 -0.116173 0
M  V30 3841 H 358.224 -1.43897 -0.054436 0
M  V30 3842 H 360.177 -3.37547 -2.5227 0
M  V30 3843 H 358.901 -2.1338 -2.47258 0
M  V30 3844 H 357.56 -3.55758 -0.884985 0
M  V30 3845 H 357.208 -3.74886 -3.35365 0
M  V30 3846 H 356.908 -5.30169 -2.53368 0
M  V30 3847 H 358.432 -5.05047 -3.43162 0
M  V30 3848 H 359.846 -5.60001 -1.22767 0
M  V30 3849 H 358.243 -5.97735 -0.532259 0
M  V30 3850 H 359.313 -4.83932 0.306196 0
M  V30 3851 N 360.656 0.0484629 -1.57525 0
M  V30 3852 C 361.586 1.0549 -2.08313 0
M  V30 3853 C 362.567 1.38929 -0.981463 0
M  V30 3854 O 363.752 1.48151 -1.25558 0
M  V30 3855 C 360.882 2.36162 -2.54646 0
M  V30 3856 C 359.836 2.17016 -3.68901 0
M  V30 3857 C 359.162 3.53278 -4.01371 0
M  V30 3858 C 360.462 1.57219 -4.98076 0
M  V30 3859 H 362.156 0.632195 -2.92649 0
M  V30 3860 H 359.702 0.302654 -1.40784 0
M  V30 3861 H 361.655 3.06882 -2.88793 0
M  V30 3862 H 360.379 2.80456 -1.67368 0
M  V30 3863 H 359.038 1.48733 -3.35073 0
M  V30 3864 H 358.686 3.95185 -3.11188 0
M  V30 3865 H 358.386 3.41299 -4.78318 0
M  V30 3866 H 359.91 4.25391 -4.38035 0
M  V30 3867 H 361.324 2.17832 -5.30304 0
M  V30 3868 H 359.721 1.55871 -5.79503 0
M  V30 3869 H 360.791 0.535956 -4.81929 0
M  V30 3870 N 362.134 1.5431 0.320358 0
M  V30 3871 C 363.097 1.83195 1.3774 0
M  V30 3872 C 364.097 0.703906 1.44575 0
M  V30 3873 O 365.287 0.972214 1.44546 0
M  V30 3874 C 362.419 1.99487 2.76438 0
M  V30 3875 H 363.612 2.77642 1.1338 0
M  V30 3876 H 361.165 1.46076 0.556012 0
M  V30 3877 H 361.9 1.07262 3.06048 0
M  V30 3878 H 361.685 2.81575 2.7287 0
M  V30 3879 H 363.175 2.23271 3.52902 0
M  V30 3880 N 363.613 -0.582584 1.46437 0
M  V30 3881 C 364.859 -1.34064 1.52965 0
M  V30 3882 C 365.214 -1.91566 0.178968 0
M  V30 3883 O 364.507 -1.73526 -0.812365 0
M  V30 3884 C 364.701 -2.48964 2.56421 0
M  V30 3885 C 364.53 -2.02717 4.01417 0
M  V30 3886 C 363.3 -1.87728 4.69134 0
M  V30 3887 C 365.498 -1.58675 4.8921 0
M  V30 3888 N 363.48 -1.35554 5.98747 0
M  V30 3889 C 364.851 -1.18093 6.08649 0
M  V30 3890 C 366.906 -1.46494 4.75861 0
M  V30 3891 C 365.609 -0.665427 7.16215 0
M  V30 3892 C 367.635 -0.96347 5.83499 0
M  V30 3893 C 366.997 -0.567432 7.02111 0
M  V30 3894 H 363.096 -0.483551 0.614575 0
M  V30 3895 H 365.68 -0.663309 1.83053 0
M  V30 3896 H 363.851 -3.1426 2.28244 0
M  V30 3897 H 365.583 -3.15913 2.52944 0
M  V30 3898 H 362.338 -2.09678 4.24655 0
M  V30 3899 H 362.762 -1.11628 6.67734 0
M  V30 3900 H 367.404 -1.75731 3.8455 0
M  V30 3901 H 365.122 -0.360639 8.07295 0
M  V30 3902 H 368.708 -0.873129 5.75211 0
M  V30 3903 H 367.588 -0.185389 7.83981 0
M  V30 3904 N 365.091 -1.34144 -0.827227 0
M  V30 3905 C 366.021 -1.28005 -1.95287 0
M  V30 3906 C 367.002 -0.158321 -1.69362 0
M  V30 3907 O 368.187 -0.349987 -1.9102 0
M  V30 3908 C 365.317 -1.03036 -3.31664 0
M  V30 3909 C 364.271 -2.11628 -3.72019 0
M  V30 3910 C 363.597 -1.71854 -5.0633 0
M  V30 3911 C 364.897 -3.53417 -3.8457 0
M  V30 3912 H 366.591 -2.22187 -2.00682 0
M  V30 3913 H 364.137 -1.0696 -0.964135 0
M  V30 3914 H 366.09 -0.973863 -4.09993 0
M  V30 3915 H 364.814 -0.0529391 -3.26557 0
M  V30 3916 H 363.473 -2.16339 -2.95961 0
M  V30 3917 H 363.121 -0.727841 -4.97706 0
M  V30 3918 H 362.821 -2.44531 -5.34302 0
M  V30 3919 H 364.345 -1.67692 -5.87122 0
M  V30 3920 H 365.759 -3.51142 -4.5318 0
M  V30 3921 H 364.156 -4.24679 -4.2399 0
M  V30 3922 H 365.226 -3.91072 -2.86689 0
M  V30 3923 N 366.569 1.04691 -1.17803 0
M  V30 3924 C 367.818 1.77176 -0.963931 0
M  V30 3925 C 368.131 1.88888 0.508015 0
M  V30 3926 O 369.337 2.58164 0.840465 0
M  V30 3927 C 367.793 3.18518 -1.67555 0
M  V30 3928 C 367.401 3.14919 -3.18637 0
M  V30 3929 C 369.145 3.95424 -1.54402 0
M  V30 3930 C 367.052 4.51081 -3.82466 0
M  V30 3931 H 365.982 0.664116 -0.357023 0
M  V30 3932 H 368.633 1.17303 -1.4111 0
M  V30 3933 H 367.015 3.78748 -1.15613 0
M  V30 3934 H 368.189 2.64178 -3.77554 0
M  V30 3935 H 366.504 2.51512 -3.31859 0
M  V30 3936 H 369.101 4.96106 -1.99456 0
M  V30 3937 H 369.444 4.13343 -0.495329 0
M  V30 3938 H 369.977 3.41754 -2.0359 0
M  V30 3939 H 366.716 4.38368 -4.87354 0
M  V30 3940 H 366.236 5.01951 -3.28337 0
M  V30 3941 H 367.915 5.2001 -3.84965 0
M  V30 3942 N 368.047 0.979072 1.23499 0
M  V30 3943 C 369.293 0.648178 1.92163 0
M  V30 3944 C 369.626 -0.816049 1.76222 0
M  V30 3945 O 368.901 -1.58849 1.12237 0
M  V30 3946 C 369.184 1.03773 3.44824 0
M  V30 3947 C 369.037 2.55948 3.69879 0
M  V30 3948 C 370.356 0.580653 4.36253 0
M  V30 3949 H 367.475 0.236952 0.69787 0
M  V30 3950 H 370.117 1.22012 1.45647 0
M  V30 3951 H 368.267 0.551058 3.84572 0
M  V30 3952 H 369.939 3.12179 3.3962 0
M  V30 3953 H 368.182 2.98641 3.14636 0
M  V30 3954 H 368.853 2.78255 4.76737 0
M  V30 3955 H 371.329 0.998465 4.03943 0
M  V30 3956 H 370.205 0.881663 5.41773 0
M  V30 3957 H 370.466 -0.519052 4.39042 0
M  V30 3958 N 369.525 -1.3858 0.750561 0
M  V30 3959 C 370.773 -1.99789 0.30477 0
M  V30 3960 C 371.094 -1.59874 -1.11649 0
M  V30 3961 O 370.364 -0.85417 -1.76297 0
M  V30 3962 H 368.944 -0.738902 0.109694 0
M  V30 3963 H 371.606 -1.69391 0.963983 0
M  V30 3964 H 370.702 -3.09952 0.365499 0
M  V30 3965 N 371.003 -0.499398 -1.49478 0
M  V30 3966 C 371.966 0.268838 -2.27618 0
M  V30 3967 C 372.966 0.895383 -1.33565 0
M  V30 3968 O 374.156 0.760164 -1.56739 0
M  V30 3969 C 371.288 1.38559 -3.11471 0
M  V30 3970 H 372.481 -0.416812 -2.96989 0
M  V30 3971 H 370.034 -0.254313 -1.54217 0
M  V30 3972 H 370.769 2.10544 -2.46661 0
M  V30 3973 H 370.554 0.941797 -3.80621 0
M  V30 3974 H 372.044 1.92678 -3.70493 0
M  V30 3975 N 372.481 1.55866 -0.233164 0
M  V30 3976 C 373.444 2.1953 0.658715 0
M  V30 3977 C 374.444 1.16053 1.11303 0
M  V30 3978 O 375.634 1.41218 1.01996 0
M  V30 3979 C 372.766 2.82791 1.90373 0
M  V30 3980 H 373.959 2.99721 0.10347 0
M  V30 3981 H 371.512 1.56291 0.0164245 0
M  V30 3982 H 372.247 2.06501 2.50056 0
M  V30 3983 H 372.032 3.58578 1.58632 0
M  V30 3984 H 373.522 3.31556 2.53891 0
M  V30 3985 N 373.959 -0.0401083 1.57549 0
M  V30 3986 C 374.889 -1.04384 2.08869 0
M  V30 3987 C 375.87 -1.38407 0.988817 0
M  V30 3988 O 377.055 -1.47483 1.26342 0
M  V30 3989 C 374.185 -2.34808 2.55895 0
M  V30 3990 C 373.139 -2.15057 3.70047 0
M  V30 3991 C 372.465 -3.51145 4.03239 0
M  V30 3992 C 373.765 -1.54576 4.98902 0
M  V30 3993 H 375.459 -0.616666 2.92981 0
M  V30 3994 H 373.005 -0.295184 1.40942 0
M  V30 3995 H 374.958 -3.05346 2.90417 0
M  V30 3996 H 373.682 -2.79565 1.68853 0
M  V30 3997 H 372.341 -1.46954 3.35857 0
M  V30 3998 H 371.989 -3.93529 3.13279 0
M  V30 3999 H 371.689 -3.38758 4.80122 0
M  V30 4000 H 373.213 -4.23062 4.40285 0
M  V30 4001 H 374.627 -2.15017 5.31451 0
M  V30 4002 H 373.024 -1.52796 5.80322 0
M  V30 4003 H 374.094 -0.51039 4.82206 0
M  V30 4004 N 375.437 -1.54477 -0.31217 0
M  V30 4005 C 376.684 -1.73227 -1.04875 0
M  V30 4006 C 377.012 -0.512042 -1.87639 0
M  V30 4007 O 376.267 0.506131 -1.89042 0
M  V30 4008 C 376.566 -2.967 -1.99258 0
M  V30 4009 C 376.232 -4.30974 -1.32559 0
M  V30 4010 C 374.894 -4.67477 -1.141 0
M  V30 4011 C 377.246 -5.14258 -0.847835 0
M  V30 4012 C 374.574 -5.84852 -0.465326 0
M  V30 4013 C 376.926 -6.32327 -0.185931 0
M  V30 4014 C 375.59 -6.67499 0.0107077 0
M  V30 4015 H 374.86 -0.633881 -0.383765 0
M  V30 4016 H 377.507 -1.88727 -0.324731 0
M  V30 4017 H 375.812 -2.75935 -2.7815 0
M  V30 4018 H 377.509 -3.08401 -2.563 0
M  V30 4019 H 374.099 -4.02262 -1.4793 0
M  V30 4020 H 378.283 -4.86565 -0.978192 0
M  V30 4021 H 373.539 -6.10654 -0.301883 0
M  V30 4022 H 377.713 -6.96135 0.192211 0
M  V30 4023 H 375.34 -7.58306 0.536287 0
M  V30 4024 N 376.915 0.57481 -1.46744 0
M  V30 4025 C 377.862 1.68329 -1.57905 0
M  V30 4026 C 378.832 1.60625 -0.422927 0
M  V30 4027 O 380.017 1.79721 -0.640711 0
M  V30 4028 C 377.157 3.06665 -1.58274 0
M  V30 4029 C 376.27 3.24935 -2.84678 0
M  V30 4030 C 375.405 4.53566 -2.76499 0
M  V30 4031 C 374.444 4.65207 -3.97806 0
M  V30 4032 N 373.581 5.85172 -3.87967 0
M  V30 4033 H 378.421 1.58127 -2.52587 0
M  V30 4034 H 375.958 0.770552 -1.25303 0
M  V30 4035 H 377.916 3.86745 -1.56473 0
M  V30 4036 H 376.546 3.15745 -0.671194 0
M  V30 4037 H 375.598 2.38405 -2.96424 0
M  V30 4038 H 376.91 3.29403 -3.7456 0
M  V30 4039 H 376.064 5.41885 -2.72848 0
M  V30 4040 H 374.803 4.51548 -1.8427 0
M  V30 4041 H 373.808 3.75304 -4.0178 0
M  V30 4042 H 375.033 4.68997 -4.9114 0
M  V30 4043 H 372.979 5.84137 -2.98529 0
M  V30 4044 H 372.896 5.90943 -4.71511 0
M  V30 4045 H 374.164 6.759 -3.88303 0
M  V30 4046 N 378.394 1.34581 0.820102 0
M  V30 4047 C 379.642 1.26845 1.57336 0
M  V30 4048 C 379.963 -0.160667 1.94337 0
M  V30 4049 O 379.233 -1.09396 1.6251 0
M  V30 4050 H 377.813 0.466514 0.583415 0
M  V30 4051 H 380.475 1.68526 0.979027 0
M  V30 4052 H 379.571 1.87513 2.4949 0
M  V30 4053 N 379.872 -1.04064 1.18357 0
M  V30 4054 C 381.121 -1.76662 0.973313 0
M  V30 4055 C 381.434 -1.89154 -0.497991 0
M  V30 4056 O 382.64 -2.58606 -0.826762 0
M  V30 4057 C 381.096 -3.17624 1.69242 0
M  V30 4058 C 380.704 -3.13225 3.20303 0
M  V30 4059 C 382.448 -3.946 1.56497 0
M  V30 4060 C 380.355 -4.49046 3.84853 0
M  V30 4061 H 379.285 -0.662214 0.36054 0
M  V30 4062 H 381.936 -1.16553 1.41731 0
M  V30 4063 H 380.318 -3.78129 1.1762 0
M  V30 4064 H 381.492 -2.62172 3.78949 0
M  V30 4065 H 379.807 -2.49749 3.33189 0
M  V30 4066 H 382.404 -4.95042 2.02084 0
M  V30 4067 H 382.747 -4.13074 0.517243 0
M  V30 4068 H 383.28 -3.4067 2.05399 0
M  V30 4069 H 380.019 -4.35777 4.89672 0
M  V30 4070 H 379.539 -5.00203 3.30994 0
M  V30 4071 H 381.218 -5.17961 3.87718 0
M  V30 4072 N 381.35 -0.985608 -1.22978 0
M  V30 4073 C 382.297 -0.529825 -2.24636 0
M  V30 4074 C 383.267 0.434028 -1.60329 0
M  V30 4075 O 384.452 0.340414 -1.87739 0
M  V30 4076 C 381.592 0.156533 -3.44745 0
M  V30 4077 C 380.705 -0.848197 -4.23591 0
M  V30 4078 C 379.84 -0.136109 -5.31026 0
M  V30 4079 C 378.879 -1.1297 -6.01585 0
M  V30 4080 N 378.016 -0.446415 -7.00679 0
M  V30 4081 H 382.856 -1.40148 -2.62988 0
M  V30 4082 H 380.393 -0.702168 -1.29259 0
M  V30 4083 H 382.351 0.571324 -4.1327 0
M  V30 4084 H 380.981 0.992025 -3.07179 0
M  V30 4085 H 380.033 -1.38135 -3.54433 0
M  V30 4086 H 381.345 -1.60512 -4.72268 0
M  V30 4087 H 380.499 0.335784 -6.0577 0
M  V30 4088 H 379.238 0.653373 -4.83304 0
M  V30 4089 H 378.243 -1.6123 -5.25628 0
M  V30 4090 H 379.468 -1.91993 -6.51395 0
M  V30 4091 H 377.414 0.323763 -6.55201 0
M  V30 4092 H 377.331 -1.1419 -7.47326 0
M  V30 4093 H 378.599 0.00291697 -7.795 0
M  V30 4094 N 382.828 1.3818 -0.7579 0
M  V30 4095 C 384.053 2.04827 -0.325679 0
M  V30 4096 C 384.478 1.56788 1.03919 0
M  V30 4097 O 383.836 0.721811 1.66312 0
M  V30 4098 C 383.884 3.58774 -0.362447 0
M  V30 4099 O 382.988 4.07372 0.642033 0
M  V30 4100 H 382.329 0.64833 -0.143402 0
M  V30 4101 H 384.859 1.7677 -1.03023 0
M  V30 4102 H 384.869 4.07434 -0.214844 0
M  V30 4103 H 383.544 3.93096 -1.35824 0
M  V30 4104 H 382.121 3.70068 0.458688 0
M  V30 4105 N 384.306 0.507319 1.49211 0
M  V30 4106 C 385.531 -0.033725 2.07373 0
M  V30 4107 C 385.956 -1.29485 1.36437 0
M  V30 4108 O 385.314 -1.76294 0.423087 0
M  V30 4109 C 385.362 -0.263945 3.59633 0
M  V30 4110 O 384.466 -1.33737 3.90113 0
M  V30 4111 H 383.807 0.0290331 0.663365 0
M  V30 4112 H 386.337 0.708749 1.91932 0
M  V30 4113 H 386.347 -0.493536 4.05004 0
M  V30 4114 H 385.022 0.657424 4.10671 0
M  V30 4115 H 383.599 -1.09224 3.56545 0
M  V30 4116 N 385.784 -1.5574 0.241426 0
M  V30 4117 C 387.032 -1.98417 -0.384075 0
M  V30 4118 C 387.353 -1.13078 -1.58866 0
M  V30 4119 O 386.623 -0.212312 -1.94746 0
M  V30 4120 H 385.203 -0.732813 -0.144894 0
M  V30 4121 H 387.865 -1.9193 0.338943 0
M  V30 4122 H 386.961 -3.04219 -0.696939 0
M  V30 4123 N 387.262 0.0317525 -1.57568 0
M  V30 4124 C 388.209 1.0332 -2.06382 0
M  V30 4125 C 389.179 1.36082 -0.952414 0
M  V30 4126 O 390.364 1.46466 -1.2228 0
M  V30 4127 C 387.504 2.32989 -2.54578 0
M  V30 4128 C 386.617 2.0641 -3.79498 0
M  V30 4129 C 385.752 3.2993 -4.16317 0
M  V30 4130 C 384.791 2.98893 -5.34162 0
M  V30 4131 N 383.928 4.14857 -5.66426 0
M  V30 4132 H 388.768 0.609982 -2.9169 0
M  V30 4133 H 386.305 0.289573 -1.44222 0
M  V30 4134 H 388.263 3.0875 -2.80587 0
M  V30 4135 H 386.893 2.73039 -1.7219 0
M  V30 4136 H 385.945 1.21158 -3.6059 0
M  V30 4137 H 387.257 1.79513 -4.65378 0
M  V30 4138 H 386.411 4.1406 -4.4344 0
M  V30 4139 H 385.15 3.59938 -3.29083 0
M  V30 4140 H 384.155 2.13164 -5.06795 0
M  V30 4141 H 385.38 2.70165 -6.23047 0
M  V30 4142 H 383.326 4.44821 -4.82151 0
M  V30 4143 H 383.243 3.91374 -6.4681 0
M  V30 4144 H 384.511 4.99868 -5.98124 0
M  V30 4145 N 388.74 1.54641 0.303973 0
M  V30 4146 C 389.986 1.74038 1.04109 0
M  V30 4147 C 390.319 0.523051 1.87024 0
M  V30 4148 O 389.594 -0.479874 1.88487 0
M  V30 4149 C 389.877 3.02761 1.94955 0
M  V30 4150 C 389.73 4.34787 1.1524 0
M  V30 4151 C 391.049 3.27336 2.94175 0
M  V30 4152 H 388.168 0.63323 0.377079 0
M  V30 4153 H 390.81 1.87354 0.316001 0
M  V30 4154 H 388.96 2.9154 2.56782 0
M  V30 4155 H 390.632 4.57922 0.557236 0
M  V30 4156 H 388.875 4.31407 0.455053 0
M  V30 4157 H 389.546 5.21116 1.8205 0
M  V30 4158 H 392.022 3.38148 2.42477 0
M  V30 4159 H 390.898 4.18726 3.54908 0
M  V30 4160 H 391.159 2.45491 3.67677 0
M  V30 4161 N 390.218 -0.567019 1.47046 0
M  V30 4162 C 391.464 -1.32658 1.53394 0
M  V30 4163 C 391.797 -1.93254 0.19148 0
M  V30 4164 O 391.072 -1.77338 -0.798844 0
M  V30 4165 C 391.355 -2.44412 2.64452 0
M  V30 4166 C 391.208 -1.88749 4.08282 0
M  V30 4167 C 392.527 -3.46387 2.71485 0
M  V30 4168 H 389.646 -0.48098 0.558415 0
M  V30 4169 H 392.288 -0.635481 1.79058 0
M  V30 4170 H 390.438 -3.03363 2.427 0
M  V30 4171 H 392.11 -1.34134 4.41368 0
M  V30 4172 H 390.353 -1.19481 4.17021 0
M  V30 4173 H 391.024 -2.69491 4.81745 0
M  V30 4174 H 393.5 -2.9734 2.91081 0
M  V30 4175 H 392.376 -4.2202 3.50985 0
M  V30 4176 H 392.637 -4.04616 1.78153 0
M  V30 4177 N 391.696 -1.35014 -0.812953 0
M  V30 4178 C 392.926 -1.30841 -1.59888 0
M  V30 4179 C 393.334 0.117576 -1.88834 0
M  V30 4180 O 392.677 1.07807 -1.48739 0
M  V30 4181 C 392.739 -2.0412 -2.95931 0
M  V30 4182 C 392.403 -3.53336 -2.89832 0
M  V30 4183 C 393.4 -4.48052 -2.63714 0
M  V30 4184 C 391.085 -3.95894 -3.0915 0
M  V30 4185 C 393.079 -5.833 -2.56982 0
M  V30 4186 C 390.766 -5.31239 -3.0204 0
M  V30 4187 C 391.764 -6.24754 -2.75991 0
M  V30 4188 O 391.452 -7.57617 -2.68833 0
M  V30 4189 H 391.184 -0.451215 -0.50337 0
M  V30 4190 H 393.738 -1.78354 -1.01877 0
M  V30 4191 H 391.968 -1.51235 -3.559 0
M  V30 4192 H 393.657 -1.93107 -3.57022 0
M  V30 4193 H 394.423 -4.16492 -2.48515 0
M  V30 4194 H 390.302 -3.23495 -3.28438 0
M  V30 4195 H 393.846 -6.56263 -2.36569 0
M  V30 4196 H 389.743 -5.62415 -3.16796 0
M  V30 4197 H 390.511 -7.67469 -2.84487 0
M  V30 4198 N 393.175 1.03435 -1.18907 0
M  V30 4199 C 394.422 1.76743 -0.988334 0
M  V30 4200 C 394.75 1.88447 0.481441 0
M  V30 4201 O 394.005 1.39383 1.37371 0
M  V30 4202 C 394.304 3.19792 -1.59586 0
M  V30 4203 C 393.97 3.28108 -3.09283 0
M  V30 4204 C 392.632 3.30084 -3.5014 0
M  V30 4205 C 394.984 3.27696 -4.05296 0
M  V30 4206 C 392.312 3.29299 -4.85571 0
M  V30 4207 C 394.664 3.28451 -5.4065 0
M  V30 4208 C 393.328 3.28723 -5.80946 0
M  V30 4209 H 392.598 0.64675 -0.361657 0
M  V30 4210 H 395.245 1.21442 -1.48068 0
M  V30 4211 H 393.55 3.78136 -1.02568 0
M  V30 4212 H 395.247 3.75171 -1.41589 0
M  V30 4213 H 391.837 3.27294 -2.76725 0
M  V30 4214 H 396.021 3.25354 -3.74778 0
M  V30 4215 H 391.277 3.2783 -5.16079 0
M  V30 4216 H 395.451 3.27082 -6.14809 0
M  V30 4217 H 393.078 3.27868 -6.85862 0
M  V30 4218 N 394.653 0.992116 1.22453 0
M  V30 4219 C 395.881 0.685944 1.95198 0
M  V30 4220 C 396.296 -0.749233 1.73297 0
M  V30 4221 O 395.653 -1.50549 1.03156 0
M  V30 4222 C 395.704 0.981395 3.47924 0
M  V30 4223 O 395.425 2.36018 3.6909 0
M  V30 4224 C 396.926 0.692815 4.37853 0
M  V30 4225 H 394.146 0.253821 0.621141 0
M  V30 4226 H 396.69 1.32668 1.55626 0
M  V30 4227 H 394.845 0.386481 3.85467 0
M  V30 4228 H 395.259 2.45884 4.63294 0
M  V30 4229 H 396.733 0.949818 5.43767 0
M  V30 4230 H 397.21 -0.373181 4.37612 0
M  V30 4231 H 397.816 1.26874 4.05935 0
M  V30 4232 N 396.131 -1.37776 0.765217 0
M  V30 4233 C 397.094 -2.28686 0.153416 0
M  V30 4234 C 398.094 -1.47727 -0.635081 0
M  V30 4235 O 399.284 -1.68027 -0.459632 0
M  V30 4236 C 396.416 -3.31608 -0.790495 0
M  V30 4237 H 397.609 -2.84297 0.954723 0
M  V30 4238 H 395.162 -1.46932 0.53299 0
M  V30 4239 H 395.897 -2.81109 -1.61705 0
M  V30 4240 H 395.682 -3.9144 -0.227348 0
M  V30 4241 H 397.172 -3.99559 -1.21419 0
M  V30 4242 N 397.609 -0.515225 -1.4894 0
M  V30 4243 C 398.539 0.244628 -2.32215 0
M  V30 4244 C 399.52 0.949136 -1.41157 0
M  V30 4245 O 400.705 0.937783 -1.70057 0
M  V30 4246 C 397.835 1.30096 -3.22013 0
M  V30 4247 C 396.789 0.715486 -4.21977 0
M  V30 4248 C 396.115 1.87339 -5.00808 0
M  V30 4249 C 397.415 -0.302982 -5.2142 0
M  V30 4250 H 399.109 -0.450501 -2.95991 0
M  V30 4251 H 396.655 -0.218098 -1.42339 0
M  V30 4252 H 398.608 1.84037 -3.79089 0
M  V30 4253 H 397.332 2.02547 -2.56207 0
M  V30 4254 H 395.991 0.197715 -3.66066 0
M  V30 4255 H 395.639 2.58592 -4.31438 0
M  V30 4256 H 395.339 1.48764 -5.68457 0
M  V30 4257 H 396.863 2.41686 -5.60732 0
M  V30 4258 H 398.277 0.148802 -5.73107 0
M  V30 4259 H 396.674 -0.60532 -5.97039 0
M  V30 4260 H 397.744 -1.21395 -4.69459 0
M  V30 4261 N 399.087 1.5561 -0.249682 0
M  V30 4262 C 400.334 1.99011 0.374287 0
M  V30 4263 C 400.662 1.13785 1.57744 0
M  V30 4264 O 399.917 0.189326 1.94782 0
M  V30 4265 C 400.216 3.4775 0.824887 0
M  V30 4266 C 399.882 4.50086 -0.270819 0
M  V30 4267 C 398.544 4.77791 -0.571746 0
M  V30 4268 C 400.896 5.11312 -1.01041 0
M  V30 4269 C 398.224 5.63997 -1.61629 0
M  V30 4270 C 400.576 5.98651 -2.0445 0
M  V30 4271 C 399.24 6.24688 -2.35204 0
M  V30 4272 H 398.51 0.728233 0.136961 0
M  V30 4273 H 401.157 1.88122 -0.358087 0
M  V30 4274 H 399.462 3.55985 1.63651 0
M  V30 4275 H 401.159 3.78721 1.31799 0
M  V30 4276 H 397.749 4.28592 -0.026136 0
M  V30 4277 H 401.933 4.89953 -0.791177 0
M  V30 4278 H 397.189 5.82425 -1.85988 0
M  V30 4279 H 401.363 6.45135 -2.62248 0
M  V30 4280 H 398.99 6.91281 -3.16282 0
M  V30 4281 N 400.565 -0.0233959 1.57583 0
M  V30 4282 C 401.976 -0.56927 1.77809 0
M  V30 4283 C 402.327 -1.75284 0.881472 0
M  V30 4284 O 401.452 -2.1626 0.0777805 0
M  V30 4285 C 402.047 -1.03949 3.22459 0
M  V30 4286 C 400.606 -1.53084 3.43864 0
M  V30 4287 C 399.753 -0.471454 2.73263 0
M  V30 4288 H 402.704 0.202825 1.57399 0
M  V30 4289 H 402.725 -1.90661 3.29285 0
M  V30 4290 H 402.237 -0.177865 3.87692 0
M  V30 4291 H 400.338 -2.41414 2.83814 0
M  V30 4292 H 400.451 -1.57443 4.52491 0
M  V30 4293 H 398.815 -0.927788 2.37201 0
M  V30 4294 H 399.598 0.380808 3.41181 0
M  V30 4295 N 402.043 -1.548 -0.295768 0
M  V30 4296 C 403.273 -1.78069 -1.04762 0
M  V30 4297 C 403.681 -0.542847 -1.81245 0
M  V30 4298 O 403.024 0.497051 -1.76848 0
M  V30 4299 C 403.086 -2.93881 -2.07061 0
M  V30 4300 C 402.75 -4.31777 -1.49725 0
M  V30 4301 C 403.747 -5.11613 -0.924581 0
M  V30 4302 C 401.432 -4.78389 -1.5313 0
M  V30 4303 C 403.426 -6.36184 -0.393594 0
M  V30 4304 C 401.113 -6.02921 -0.996447 0
M  V30 4305 C 402.111 -6.81654 -0.428569 0
M  V30 4306 O 401.799 -8.0384 0.0981593 0
M  V30 4307 H 401.531 -0.597475 -0.316226 0
M  V30 4308 H 404.085 -2.02584 -0.338973 0
M  V30 4309 H 402.315 -2.65003 -2.81621 0
M  V30 4310 H 404.004 -3.04679 -2.6819 0
M  V30 4311 H 404.77 -4.76743 -0.891136 0
M  V30 4312 H 400.649 -4.17132 -1.9627 0
M  V30 4313 H 404.193 -6.97582 0.0503014 0
M  V30 4314 H 400.09 -6.37277 -1.02706 0
M  V30 4315 H 400.858 -8.18499 -0.0146455 0
M  V30 4316 N 403.521 0.559213 -1.47345 0
M  V30 4317 C 404.767 1.31843 -1.54095 0
M  V30 4318 C 405.1 1.93149 -0.201726 0
M  V30 4319 O 404.375 1.77759 0.789428 0
M  V30 4320 C 404.658 2.43006 -2.65744 0
M  V30 4321 C 404.511 1.86581 -4.09277 0
M  V30 4322 C 405.83 3.44943 -2.73318 0
M  V30 4323 H 402.949 0.478012 -0.560957 0
M  V30 4324 H 405.591 0.625977 -1.79392 0
M  V30 4325 H 403.741 3.02072 -2.44305 0
M  V30 4326 H 405.413 1.31792 -4.42073 0
M  V30 4327 H 403.656 1.17268 -4.17649 0
M  V30 4328 H 404.327 2.66933 -4.83168 0
M  V30 4329 H 406.803 2.95793 -2.92653 0
M  V30 4330 H 405.679 4.20153 -3.53218 0
M  V30 4331 H 405.94 4.03665 -1.80296 0
M  V30 4332 N 404.999 1.35443 0.805782 0
M  V30 4333 C 406.245 1.28952 1.56522 0
M  V30 4334 C 406.578 -0.135597 1.93726 0
M  V30 4335 O 405.853 -1.08516 1.61414 0
M  V30 4336 C 406.136 2.19678 2.85331 0
M  V30 4337 C 405.989 3.7081 2.54598 0
M  V30 4338 C 407.308 2.09495 3.8704 0
M  V30 4339 H 404.427 0.469764 0.567883 0
M  V30 4340 H 407.069 1.65851 0.927001 0
M  V30 4341 H 405.219 1.8834 3.39795 0
M  V30 4342 H 406.891 4.12593 2.06312 0
M  V30 4343 H 405.134 3.91051 1.8778 0
M  V30 4344 H 405.805 4.29679 3.46525 0
M  V30 4345 H 408.281 2.37045 3.41978 0
M  V30 4346 H 407.157 2.75173 4.74943 0
M  V30 4347 H 407.418 1.07714 4.28777 0
M  V30 4348 N 406.477 -1.02803 1.19454 0
M  V30 4349 C 407.407 -2.12999 0.956758 0
M  V30 4350 C 408.388 -1.69743 -0.110188 0
M  V30 4351 O 409.573 -1.94148 0.0450038 0
M  V30 4352 C 406.703 -3.43746 0.495553 0
M  V30 4353 C 405.657 -4.00688 1.50443 0
M  V30 4354 C 404.983 -5.27067 0.900275 0
M  V30 4355 C 406.283 -4.35397 2.8849 0
M  V30 4356 H 407.977 -2.33148 1.87836 0
M  V30 4357 H 405.523 -1.12045 0.904539 0
M  V30 4358 H 407.476 -4.2021 0.316493 0
M  V30 4359 H 406.2 -3.23321 -0.461646 0
M  V30 4360 H 404.859 -3.2632 1.67065 0
M  V30 4361 H 404.507 -5.02959 -0.064503 0
M  V30 4362 H 404.207 -5.66127 1.57397 0
M  V30 4363 H 405.731 -6.06196 0.73203 0
M  V30 4364 H 407.145 -5.02795 2.75446 0
M  V30 4365 H 405.542 -4.85541 3.52661 0
M  V30 4366 H 406.612 -3.44662 3.41081 0
M  V30 4367 N 407.956 -0.998596 -1.21925 0
M  V30 4368 C 408.886 -0.573688 -2.26343 0
M  V30 4369 C 409.867 0.402296 -1.65274 0
M  V30 4370 O 411.052 0.291683 -1.91997 0
M  V30 4371 C 408.182 0.106839 -3.47136 0
M  V30 4372 C 407.136 -0.788269 -4.20678 0
M  V30 4373 C 406.462 0.0254927 -5.34694 0
M  V30 4374 C 407.762 -2.08784 -4.78755 0
M  V30 4375 H 409.456 -1.44651 -2.62138 0
M  V30 4376 H 407.002 -0.696975 -1.26009 0
M  V30 4377 H 408.955 0.415531 -4.19346 0
M  V30 4378 H 407.679 1.01424 -3.10452 0
M  V30 4379 H 406.338 -1.08069 -3.50309 0
M  V30 4380 H 405.986 0.933989 -4.94253 0
M  V30 4381 H 405.686 -0.570437 -5.84825 0
M  V30 4382 H 407.21 0.328147 -6.09718 0
M  V30 4383 H 408.624 -1.84272 -5.42878 0
M  V30 4384 H 407.021 -2.63307 -5.39249 0
M  V30 4385 H 408.091 -2.76284 -3.98491 0
M  V30 4386 N 409.434 1.37368 -0.772513 0
M  V30 4387 C 410.683 1.98918 -0.333861 0
M  V30 4388 C 410.996 1.62017 1.09589 0
M  V30 4389 O 412.202 2.16676 1.63596 0
M  V30 4390 C 410.658 3.55735 -0.545971 0
M  V30 4391 C 410.266 4.01573 -1.98603 0
M  V30 4392 C 412.01 4.24156 -0.170979 0
M  V30 4393 C 409.917 5.51102 -2.1457 0
M  V30 4394 H 408.847 0.744214 -0.121085 0
M  V30 4395 H 411.498 1.56888 -0.95175 0
M  V30 4396 H 409.88 3.95748 0.141387 0
M  V30 4397 H 411.054 3.72803 -2.7084 0
M  V30 4398 H 409.369 3.45937 -2.31769 0
M  V30 4399 H 411.966 5.34024 -0.26878 0
M  V30 4400 H 412.309 4.06917 0.878855 0
M  V30 4401 H 412.842 3.89447 -0.810914 0
M  V30 4402 H 409.581 5.73268 -3.17875 0
M  V30 4403 H 409.101 5.81554 -1.46817 0
M  V30 4404 H 410.78 6.17083 -1.94468 0
M  V30 4405 N 410.912 0.523116 1.48665 0
M  V30 4406 C 411.842 -0.23231 2.32342 0
M  V30 4407 C 412.823 -0.941637 1.41659 0
M  V30 4408 O 414.008 -0.928751 1.70552 0
M  V30 4409 C 411.138 -1.28387 3.22698 0
M  V30 4410 C 410.092 -0.693098 4.22351 0
M  V30 4411 C 409.418 -1.8468 5.01794 0
M  V30 4412 C 410.718 0.33063 5.21252 0
M  V30 4413 H 412.412 0.466192 2.95748 0
M  V30 4414 H 409.958 0.225643 1.42221 0
M  V30 4415 H 411.911 -1.82024 3.80059 0
M  V30 4416 H 410.635 -2.01186 2.57278 0
M  V30 4417 H 409.294 -0.178299 3.66166 0
M  V30 4418 H 408.942 -2.56301 4.32804 0
M  V30 4419 H 408.642 -1.45747 5.69238 0
M  V30 4420 H 410.166 -2.38709 5.62006 0
M  V30 4421 H 411.58 -0.118407 5.73178 0
M  V30 4422 H 409.977 0.636974 5.9671 0
M  V30 4423 H 411.047 1.23883 4.68808 0
M  V30 4424 N 412.39 -1.55475 0.257931 0
M  V30 4425 C 413.32 -2.24815 -0.630912 0
M  V30 4426 C 414.301 -1.23224 -1.17259 0
M  V30 4427 O 415.486 -1.51904 -1.20991 0
M  V30 4428 C 412.616 -2.95609 -1.82298 0
M  V30 4429 C 411.57 -4.03982 -1.41359 0
M  V30 4430 C 410.896 -4.6226 -2.68738 0
M  V30 4431 C 412.196 -5.19109 -0.57648 0
M  V30 4432 H 413.89 -2.99354 -0.0526878 0
M  V30 4433 H 411.436 -1.4398 -0.023901 0
M  V30 4434 H 413.389 -3.42822 -2.45054 0
M  V30 4435 H 412.113 -2.18577 -2.42676 0
M  V30 4436 H 410.772 -3.57555 -0.809324 0
M  V30 4437 H 410.42 -3.81915 -3.27338 0
M  V30 4438 H 410.12 -5.35424 -2.42065 0
M  V30 4439 H 411.644 -5.12212 -3.32372 0
M  V30 4440 H 413.058 -5.62479 -1.10861 0
M  V30 4441 H 411.455 -5.98729 -0.405351 0
M  V30 4442 H 412.525 -4.83174 0.408776 0
M  V30 4443 N 413.868 0.0150385 -1.57593 0
M  V30 4444 C 415.114 0.704043 -1.90187 0
M  V30 4445 C 415.447 1.74249 -0.857366 0
M  V30 4446 O 414.722 1.94092 0.125843 0
M  V30 4447 C 415.005 1.36087 -3.33395 0
M  V30 4448 C 414.858 0.334981 -4.48551 0
M  V30 4449 C 416.177 2.29112 -3.7576 0
M  V30 4450 H 413.296 0.254475 -0.691673 0
M  V30 4451 H 415.938 -0.0331678 -1.89971 0
M  V30 4452 H 414.088 1.98922 -3.3371 0
M  V30 4453 H 415.76 -0.292534 -4.60372 0
M  V30 4454 H 414.003 -0.344325 -4.32431 0
M  V30 4455 H 414.674 0.833316 -5.45674 0
M  V30 4456 H 417.15 1.76308 -3.76902 0
M  V30 4457 H 416.026 2.72043 -4.76743 0
M  V30 4458 H 416.287 3.16385 -3.08793 0
M  V30 4459 N 415.346 1.54954 0.287554 0
M  V30 4460 C 416.762 1.46469 0.633964 0
M  V30 4461 C 416.962 0.666865 1.90145 0
M  V30 4462 O 416.018 0.179906 2.51858 0
M  V30 4463 C 417.331 2.90556 0.774454 0
M  V30 4464 C 418.879 3.00681 0.869462 0
M  V30 4465 C 419.354 4.45993 1.04184 0
M  V30 4466 N 420.845 4.4976 1.10772 0
M  V30 4467 C 421.58 5.59393 1.25964 0
M  V30 4468 N 421.076 6.78923 1.37968 0
M  V30 4469 N 422.869 5.47107 1.28959 0
M  V30 4470 H 415.02 2.05288 -0.545041 0
M  V30 4471 H 417.283 0.930305 -0.182308 0
M  V30 4472 H 416.989 3.51594 -0.086207 0
M  V30 4473 H 416.863 3.38743 1.6593 0
M  V30 4474 H 419.25 2.39749 1.7206 0
M  V30 4475 H 419.331 2.55769 -0.0396831 0
M  V30 4476 H 418.975 5.07524 0.195422 0
M  V30 4477 H 418.905 4.88548 1.96542 0
M  V30 4478 H 421.396 3.63651 1.02794 0
M  V30 4479 H 421.709 7.58231 1.49353 0
M  V30 4480 H 420.054 6.81763 1.34999 0
M  V30 4481 H 423.245 4.52668 1.19202 0
M  V30 4482 H 423.418 6.32595 1.40455 0
M  V30 4483 N 416.824 -0.551391 1.4764 0
M  V30 4484 C 418.072 -1.30572 1.54258 0
M  V30 4485 C 418.393 -1.93877 0.208963 0
M  V30 4486 O 417.663 -1.80234 -0.767619 0
M  V30 4487 H 416.243 -0.484894 0.568231 0
M  V30 4488 H 418.905 -0.643402 1.83974 0
M  V30 4489 H 418.001 -2.09621 2.31226 0
M  V30 4490 N 418.302 -1.35869 -0.798587 0
M  V30 4491 C 419.265 -1.29307 -1.89242 0
M  V30 4492 C 420.265 -0.202747 -1.59517 0
M  V30 4493 O 421.455 -0.456957 -1.681 0
M  V30 4494 C 418.587 -1.00229 -3.25833 0
M  V30 4495 H 419.78 -2.26576 -1.96478 0
M  V30 4496 H 417.333 -1.20509 -0.995358 0
M  V30 4497 H 418.068 -0.033801 -3.24282 0
M  V30 4498 H 417.853 -1.79121 -3.48795 0
M  V30 4499 H 419.343 -0.98219 -4.05885 0
M  V30 4500 N 419.78 1.02168 -1.19998 0
M  V30 4501 C 421.008 1.79296 -1.03249 0
M  V30 4502 C 421.423 1.84103 0.418502 0
M  V30 4503 O 420.78 1.29031 1.29063 0
M  V30 4504 C 420.831 3.24007 -1.60319 0
M  V30 4505 O 420.552 3.19512 -2.99739 0
M  V30 4506 C 422.053 4.17704 -1.48453 0
M  V30 4507 H 419.273 0.564016 -0.363493 0
M  V30 4508 H 421.817 1.28639 -1.58973 0
M  V30 4509 H 419.972 3.7183 -1.08727 0
M  V30 4510 H 420.386 4.10306 -3.26725 0
M  V30 4511 H 421.86 5.17104 -1.93153 0
M  V30 4512 H 422.337 4.37029 -0.436193 0
M  V30 4513 H 422.943 3.7576 -1.99211 0
M  V30 4514 N 421.258 1.00505 1.21394 0
M  V30 4515 C 422.188 0.585684 2.26035 0
M  V30 4516 C 423.169 -0.393525 1.65485 0
M  V30 4517 O 424.354 -0.281497 1.92149 0
M  V30 4518 C 421.484 -0.0884283 3.47187 0
M  V30 4519 C 420.438 0.810567 4.20254 0
M  V30 4520 C 419.764 0.00286382 5.347 0
M  V30 4521 C 421.064 2.1132 4.77641 0
M  V30 4522 H 422.758 1.46039 2.61368 0
M  V30 4523 H 420.304 0.703648 1.25638 0
M  V30 4524 H 422.257 -0.393286 4.19561 0
M  V30 4525 H 420.981 -0.997766 3.10986 0
M  V30 4526 H 419.64 1.09925 3.49731 0
M  V30 4527 H 419.288 -0.907765 4.94741 0
M  V30 4528 H 418.988 0.601444 5.84514 0
M  V30 4529 H 420.512 -0.295808 6.09883 0
M  V30 4530 H 421.926 1.87148 5.41893 0
M  V30 4531 H 420.323 2.66164 5.37845 0
M  V30 4532 H 421.393 2.78393 3.9702 0
M  V30 4533 N 422.737 -1.36956 0.779787 0
M  V30 4534 C 423.647 -2.33965 0.172491 0
M  V30 4535 C 424.663 -1.60574 -0.670222 0
M  V30 4536 O 425.839 -1.92617 -0.588263 0
M  V30 4537 C 422.904 -3.39761 -0.690173 0
M  V30 4538 C 421.965 -4.28964 0.169924 0
M  V30 4539 C 421.198 -5.29707 -0.651662 0
M  V30 4540 O 421.421 -5.38238 -1.88827 0
M  V30 4541 O 420.355 -6.01873 -0.0566264 0
M  V30 4542 H 424.181 -2.87647 0.974321 0
M  V30 4543 H 421.766 -1.39258 0.541078 0
M  V30 4544 H 423.648 -4.04471 -1.1824 0
M  V30 4545 H 422.323 -2.88394 -1.47006 0
M  V30 4546 H 421.23 -3.67326 0.708696 0
M  V30 4547 H 422.563 -4.83656 0.913085 0
M  V30 4548 N 424.215 -0.530993 -1.48385 0
M  V30 4549 C 425.463 0.00273189 -2.021 0
M  V30 4550 C 425.784 1.34672 -1.41027 0
M  V30 4551 O 425.054 1.8724 -0.576012 0
M  V30 4552 H 423.634 0.00399774 -0.746989 0
M  V30 4553 H 426.296 -0.695054 -1.82085 0
M  V30 4554 H 425.392 0.11031 -3.11905 0
M  V30 4555 N 425.693 1.55336 -0.266172 0
M  V30 4556 C 426.656 2.20878 0.612001 0
M  V30 4557 C 427.656 1.18388 1.08816 0
M  V30 4558 O 428.846 1.4335 0.989774 0
M  V30 4559 C 425.978 2.86765 1.84332 0
M  V30 4560 H 427.171 2.99873 0.0398718 0
M  V30 4561 H 424.724 1.56291 -0.0167309 0
M  V30 4562 H 425.459 2.11759 2.45619 0
M  V30 4563 H 425.244 3.61862 1.5099 0
M  V30 4564 H 426.734 3.36867 2.46801 0
M  V30 4565 N 427.171 -0.0066808 1.57599 0
M  V30 4566 C 428.396 -0.707738 1.94951 0
M  V30 4567 C 428.821 -1.66882 0.867868 0
M  V30 4568 O 428.179 -1.80457 -0.17458 0
M  V30 4569 C 428.227 -1.42162 3.31394 0
M  V30 4570 O 427.331 -2.53578 3.25226 0
M  V30 4571 H 426.672 -0.188752 0.636607 0
M  V30 4572 H 429.202 0.0445193 2.04552 0
M  V30 4573 H 429.212 -1.78655 3.66806 0
M  V30 4574 H 427.887 -0.716903 4.09675 0
M  V30 4575 H 426.464 -2.19463 3.01481 0
M  V30 4576 N 428.649 -1.55105 -0.279332 0
M  V30 4577 C 429.596 -1.8755 -1.34513 0
M  V30 4578 C 430.566 -0.726384 -1.49375 0
M  V30 4579 O 431.751 -0.977063 -1.63884 0
M  V30 4580 C 428.891 -2.14738 -2.70151 0
M  V30 4581 C 428.004 -3.42285 -2.63562 0
M  V30 4582 C 427.139 -3.59206 -3.91337 0
M  V30 4583 C 426.178 -4.80467 -3.79233 0
M  V30 4584 N 425.315 -4.94079 -4.98829 0
M  V30 4585 H 430.155 -2.78456 -1.06143 0
M  V30 4586 H 427.692 -1.37867 -0.512936 0
M  V30 4587 H 429.65 -2.28501 -3.49061 0
M  V30 4588 H 428.28 -1.27075 -2.96735 0
M  V30 4589 H 427.332 -3.37029 -1.76397 0
M  V30 4590 H 428.644 -4.31328 -2.50515 0
M  V30 4591 H 427.798 -3.72751 -4.78687 0
M  V30 4592 H 426.537 -2.68337 -4.07243 0
M  V30 4593 H 425.542 -4.66932 -2.90266 0
M  V30 4594 H 426.767 -5.72765 -3.64852 0
M  V30 4595 H 424.713 -4.06139 -5.15158 0
M  V30 4596 H 424.63 -5.77156 -4.8829 0
M  V30 4597 H 425.898 -5.12003 -5.8777 0
M  V30 4598 N 430.127 0.543554 -1.4793 0
M  V30 4599 C 431.375 1.29752 -1.54948 0
M  V30 4600 C 431.696 1.93764 -0.219242 0
M  V30 4601 O 430.966 1.80639 0.75805 0
M  V30 4602 H 429.546 0.481874 -0.570795 0
M  V30 4603 H 432.208 0.633636 -1.84312 0
M  V30 4604 H 431.304 2.08392 -2.32334 0
M  V30 4605 N 431.605 1.3629 0.791371 0
M  V30 4606 C 432.854 1.29742 1.54434 0
M  V30 4607 C 433.167 -0.121729 1.95221 0
M  V30 4608 O 434.373 -0.309579 2.69729 0
M  V30 4609 C 432.829 2.27623 2.78776 0
M  V30 4610 C 432.437 3.74963 2.45166 0
M  V30 4611 C 434.181 2.30047 3.56761 0
M  V30 4612 C 432.088 4.64626 3.65891 0
M  V30 4613 H 431.018 0.482113 0.579727 0
M  V30 4614 H 433.669 1.61642 0.868565 0
M  V30 4615 H 432.051 1.88714 3.48142 0
M  V30 4616 H 433.225 4.22596 1.83709 0
M  V30 4617 H 431.54 3.75295 1.80396 0
M  V30 4618 H 434.137 2.94247 4.46456 0
M  V30 4619 H 434.48 1.30846 3.95203 0
M  V30 4620 H 435.013 2.67563 2.94372 0
M  V30 4621 H 431.752 5.64883 3.32547 0
M  V30 4622 H 431.272 4.2171 4.26521 0
M  V30 4623 H 432.951 4.80801 4.32943 0
M  V30 4624 N 433.083 -1.0153 1.20538 0
M  V30 4625 C 434.308 -1.79283 1.04271 0
M  V30 4626 C 434.733 -1.8372 -0.403544 0
M  V30 4627 O 434.091 -1.27321 -1.2907 0
M  V30 4628 C 434.139 -3.21535 1.63241 0
M  V30 4629 O 433.243 -4.03099 0.870908 0
M  V30 4630 H 432.584 -0.55293 0.367647 0
M  V30 4631 H 435.114 -1.27696 1.59859 0
M  V30 4632 H 435.124 -3.72243 1.6703 0
M  V30 4633 H 433.799 -3.1762 2.68497 0
M  V30 4634 H 432.376 -3.61693 0.907323 0
M  V30 4635 N 434.561 -1.01147 -1.20859 0
M  V30 4636 C 435.791 -0.715872 -1.93801 0
M  V30 4637 C 436.199 0.726592 -1.74692 0
M  V30 4638 O 435.542 1.50397 -1.05482 0
M  V30 4639 C 435.604 -0.965269 -3.46299 0
M  V30 4640 C 435.268 -2.39584 -3.89164 0
M  V30 4641 C 436.265 -3.3764 -3.95342 0
M  V30 4642 C 433.95 -2.73522 -4.21297 0
M  V30 4643 C 435.944 -4.67698 -4.33056 0
M  V30 4644 C 433.631 -4.03794 -4.58687 0
M  V30 4645 C 434.629 -5.00693 -4.64538 0
M  V30 4646 O 434.317 -6.28635 -5.01072 0
M  V30 4647 H 434.049 -0.262524 -0.622942 0
M  V30 4648 H 436.603 -1.35413 -1.54443 0
M  V30 4649 H 434.833 -0.269847 -3.85757 0
M  V30 4650 H 436.522 -0.662051 -4.00464 0
M  V30 4651 H 437.288 -3.12757 -3.70686 0
M  V30 4652 H 433.167 -1.9879 -4.15937 0
M  V30 4653 H 436.711 -5.4333 -4.37537 0
M  V30 4654 H 432.608 -4.28459 -4.82797 0
M  V30 4655 H 433.376 -6.32847 -5.19083 0
M  V30 4656 N 436.039 1.36541 -0.78704 0
M  V30 4657 C 437.269 2.03266 -0.369662 0
M  V30 4658 C 437.677 1.59481 1.01796 0
M  V30 4659 O 437.02 0.778612 1.66383 0
M  V30 4660 C 437.082 3.57779 -0.351371 0
M  V30 4661 C 436.746 4.24756 -1.68617 0
M  V30 4662 C 437.743 4.47811 -2.64124 0
M  V30 4663 C 435.428 4.62277 -1.96481 0
M  V30 4664 C 437.422 5.07464 -3.85693 0
M  V30 4665 C 435.109 5.21649 -3.18317 0
M  V30 4666 C 436.107 5.44182 -4.12741 0
M  V30 4667 O 435.795 6.02307 -5.32429 0
M  V30 4668 H 435.527 0.658977 -0.150751 0
M  V30 4669 H 438.081 1.75548 -1.0664 0
M  V30 4670 H 436.311 3.84606 0.401847 0
M  V30 4671 H 438 4.05879 0.0410147 0
M  V30 4672 H 438.766 4.19221 -2.43883 0
M  V30 4673 H 434.645 4.44065 -1.23805 0
M  V30 4674 H 438.189 5.24968 -4.59407 0
M  V30 4675 H 434.086 5.49664 -3.38437 0
M  V30 4676 H 434.854 6.20775 -5.33461 0
M  V30 4677 N 437.518 0.538854 1.48102 0
M  V30 4678 C 438.767 0.0059532 2.01699 0
M  V30 4679 C 439.08 -1.34476 1.42041 0
M  V30 4680 O 440.286 -1.96653 1.87189 0
M  V30 4681 C 438.742 -0.0397627 3.59878 0
M  V30 4682 C 438.35 1.30659 4.28523 0
M  V30 4683 C 440.094 -0.521024 4.2129 0
M  V30 4684 C 438.001 1.22098 5.78659 0
M  V30 4685 H 436.931 -0.00154456 0.753998 0
M  V30 4686 H 439.582 0.683963 1.70277 0
M  V30 4687 H 437.964 -0.783037 3.88181 0
M  V30 4688 H 439.138 2.06613 4.11883 0
M  V30 4689 H 437.453 1.7243 3.79021 0
M  V30 4690 H 440.05 -0.603184 5.31287 0
M  V30 4691 H 440.393 -1.52885 3.8721 0
M  V30 4692 H 440.926 0.166834 3.9745 0
M  V30 4693 H 437.665 2.20424 6.17328 0
M  V30 4694 H 437.185 0.50295 5.97688 0
M  V30 4695 H 438.864 0.915345 6.40492 0
M  V30 4696 N 438.996 -1.55193 0.274407 0
M  V30 4697 C 440.244 -1.99187 -0.341902 0
M  V30 4698 C 440.565 -1.16422 -1.56431 0
M  V30 4699 O 439.835 -0.253573 -1.94252 0
M  V30 4700 H 438.415 -0.735721 -0.129317 0
M  V30 4701 H 441.077 -1.91168 0.379578 0
M  V30 4702 H 440.173 -3.05629 -0.632253 0
M  V30 4703 N 440.474 -0.00167713 -1.576 0
M  V30 4704 C 441.437 0.974046 -2.07473 0
M  V30 4705 C 442.437 1.27143 -0.984444 0
M  V30 4706 O 443.627 1.21633 -1.24703 0
M  V30 4707 C 440.759 2.29849 -2.51759 0
M  V30 4708 H 441.952 0.54262 -2.9495 0
M  V30 4709 H 439.505 0.245829 -1.54355 0
M  V30 4710 H 440.24 2.77677 -1.67529 0
M  V30 4711 H 440.025 2.09584 -3.31386 0
M  V30 4712 H 441.515 2.9984 -2.90664 0
M  V30 4713 N 441.952 1.55251 0.271103 0
M  V30 4714 C 442.884 1.84675 1.35749 0
M  V30 4715 C 443.897 0.731366 1.45447 0
M  V30 4716 O 445.086 1.00924 1.4723 0
M  V30 4717 C 442.186 1.99638 2.73857 0
M  V30 4718 C 441.359 3.30312 2.86727 0
M  V30 4719 C 440.418 3.35318 4.05522 0
M  V30 4720 O 439.444 4.08682 3.96191 0
M  V30 4721 N 440.646 2.62857 5.17577 0
M  V30 4722 H 443.411 2.78445 1.10853 0
M  V30 4723 H 440.972 1.55191 0.461218 0
M  V30 4724 H 442.964 2.00355 3.51625 0
M  V30 4725 H 441.534 1.12725 2.91568 0
M  V30 4726 H 440.754 3.42118 1.95829 0
M  V30 4727 H 442.042 4.16488 2.92258 0
M  V30 4728 H 441.44 2.02939 5.28046 0
M  V30 4729 H 439.997 2.69295 5.93568 0
M  V30 4730 N 443.43 -0.535701 1.48216 0
M  V30 4731 C 444.655 -1.32149 1.59848 0
M  V30 4732 C 445.08 -1.86338 0.256842 0
M  V30 4733 O 444.438 -1.64107 -0.770632 0
M  V30 4734 C 444.486 -2.45224 2.64381 0
M  V30 4735 O 443.59 -3.48093 2.21144 0
M  V30 4736 H 442.931 -0.391634 0.536208 0
M  V30 4737 H 445.461 -0.645202 1.94161 0
M  V30 4738 H 445.471 -2.91491 2.85476 0
M  V30 4739 H 444.146 -2.05143 3.61786 0
M  V30 4740 H 442.723 -3.07984 2.10239 0
M  V30 4741 N 444.908 -1.36708 -0.784132 0
M  V30 4742 C 445.856 -1.31533 -1.91838 0
M  V30 4743 C 446.85 -0.206205 -1.6814 0
M  V30 4744 O 448.056 -0.373519 -1.76082 0
M  V30 4745 H 444.431 -0.409613 -0.630651 0
M  V30 4746 H 446.402 -2.2731 -1.9332 0
M  V30 4747 C 445.151 -1.12679 -3.28936 0
M  V30 4748 H 444.474 -1.97274 -3.4774 0
M  V30 4749 H 445.914 -1.13106 -4.08636 0
M  V30 4750 C 444.373 0.168281 -3.36479 0
M  V30 4751 O 444.903 1.15625 -3.84699 0
M  V30 4752 N 443.109 0.214762 -2.89805 0
M  V30 4753 H 442.656 -0.589852 -2.50756 0
M  V30 4754 H 442.614 1.08094 -2.95234 0
M  V30 4755 N 446.386 1.0089 -1.21074 0
M  V30 4756 C 447.633 1.74607 -1.0256 0
M  V30 4757 C 447.961 1.89426 0.44136 0
M  V30 4758 O 447.216 1.42266 1.34384 0
M  V30 4759 C 447.515 3.16335 -1.66334 0
M  V30 4760 C 447.181 3.21474 -3.16173 0
M  V30 4761 C 445.843 3.22583 -3.57062 0
M  V30 4762 C 448.195 3.19025 -4.12156 0
M  V30 4763 C 445.523 3.18925 -4.92446 0
M  V30 4764 C 447.875 3.16909 -5.47496 0
M  V30 4765 C 446.539 3.16326 -5.87787 0
M  V30 4766 H 445.809 0.638933 -0.375294 0
M  V30 4767 H 448.456 1.18274 -1.50611 0
M  V30 4768 H 446.761 3.75876 -1.10566 0
M  V30 4769 H 448.458 3.72083 -1.49516 0
M  V30 4770 H 445.048 3.2135 -2.83605 0
M  V30 4771 H 449.232 3.17332 -3.81595 0
M  V30 4772 H 444.488 3.16809 -5.22917 0
M  V30 4773 H 448.662 3.13968 -6.21609 0
M  V30 4774 H 446.289 3.13246 -6.92662 0
M  V30 4775 N 447.864 1.01787 1.20321 0
M  V30 4776 C 449.092 0.727194 1.937 0
M  V30 4777 C 449.507 -0.712305 1.74848 0
M  V30 4778 O 448.864 -1.48327 1.06327 0
M  V30 4779 C 448.915 1.05497 3.45764 0
M  V30 4780 O 448.636 2.43794 3.64 0
M  V30 4781 C 450.137 0.785534 4.36285 0
M  V30 4782 H 447.357 0.266939 0.615617 0
M  V30 4783 H 449.901 1.35939 1.52777 0
M  V30 4784 H 448.056 0.468158 3.84561 0
M  V30 4785 H 448.47 2.55656 4.57974 0
M  V30 4786 H 449.944 1.06495 5.4163 0
M  V30 4787 H 450.421 -0.280273 4.38305 0
M  V30 4788 H 451.027 1.35456 4.03152 0
M  V30 4789 N 449.342 -1.36122 0.79427 0
M  V30 4790 C 450.289 -2.29982 0.194101 0
M  V30 4791 C 451.259 -1.52214 -0.664833 0
M  V30 4792 O 452.444 -1.80702 -0.612498 0
M  V30 4793 C 449.584 -3.38706 -0.661244 0
M  V30 4794 C 448.697 -4.31456 0.216766 0
M  V30 4795 C 447.832 -5.27265 -0.645411 0
M  V30 4796 C 446.871 -6.11653 0.233756 0
M  V30 4797 N 446.008 -6.99636 -0.587682 0
M  V30 4798 H 450.848 -2.80722 0.999965 0
M  V30 4799 H 448.385 -1.38172 0.504677 0
M  V30 4800 H 450.343 -4.00394 -1.17219 0
M  V30 4801 H 448.973 -2.89274 -1.43249 0
M  V30 4802 H 448.025 -3.7088 0.845724 0
M  V30 4803 H 449.337 -4.90724 0.893973 0
M  V30 4804 H 448.491 -5.94266 -1.22198 0
M  V30 4805 H 447.23 -4.68463 -1.35623 0
M  V30 4806 H 446.235 -5.4361 0.82269 0
M  V30 4807 H 447.46 -6.72531 0.942247 0
M  V30 4808 H 445.406 -6.43337 -1.2827 0
M  V30 4809 H 445.323 -7.55993 0.0317402 0
M  V30 4810 H 446.591 -7.71001 -1.14792 0
M  V30 4811 N 450.82 -0.546701 -1.47814 0
M  V30 4812 C 451.75 0.195317 -2.32682 0
M  V30 4813 C 452.731 0.918981 -1.43139 0
M  V30 4814 O 453.916 0.901501 -1.72008 0
M  V30 4815 C 451.046 1.23237 -3.247 0
M  V30 4816 C 450 0.625818 -4.234 0
M  V30 4817 C 449.326 1.76674 -5.04669 0
M  V30 4818 C 450.626 -0.413515 -5.2066 0
M  V30 4819 H 452.32 -0.513184 -2.94969 0
M  V30 4820 H 449.866 -0.248241 -1.41844 0
M  V30 4821 H 451.819 1.75955 -3.82907 0
M  V30 4822 H 450.543 1.97067 -2.60446 0
M  V30 4823 H 449.202 0.120023 -3.66403 0
M  V30 4824 H 448.85 2.49383 -4.36826 0
M  V30 4825 H 448.55 1.36673 -5.71484 0
M  V30 4826 H 450.074 2.29738 -5.65732 0
M  V30 4827 H 451.488 0.0272042 -5.73294 0
M  V30 4828 H 449.885 -0.731825 -5.95621 0
M  V30 4829 H 450.955 -1.31325 -4.66778 0
M  V30 4830 N 452.299 1.55045 -0.282633 0
M  V30 4831 C 453.246 2.22822 0.601566 0
M  V30 4832 C 454.216 1.20431 1.14392 0
M  V30 4833 O 455.401 1.48996 1.19184 0
M  V30 4834 C 452.541 2.95873 1.77632 0
M  V30 4835 C 451.654 4.12999 1.26711 0
M  V30 4836 C 450.789 4.73676 2.40426 0
M  V30 4837 C 449.828 5.82981 1.86545 0
M  V30 4838 N 448.965 6.3769 2.93762 0
M  V30 4839 H 453.805 2.97995 0.0169528 0
M  V30 4840 H 451.342 1.471 -0.00339964 0
M  V30 4841 H 453.3 3.36447 2.46697 0
M  V30 4842 H 451.93 2.2311 2.33285 0
M  V30 4843 H 450.982 3.77494 0.469314 0
M  V30 4844 H 452.294 4.91803 0.832518 0
M  V30 4845 H 451.448 5.17008 3.17471 0
M  V30 4846 H 450.187 3.94164 2.87203 0
M  V30 4847 H 449.192 5.39092 1.07983 0
M  V30 4848 H 450.417 6.64366 1.40694 0
M  V30 4849 H 448.363 5.61069 3.39908 0
M  V30 4850 H 448.28 7.11788 2.54744 0
M  V30 4851 H 449.548 6.8568 3.7076 0
M  V30 4852 N 453.777 0.010035 1.57597 0
M  V30 4853 C 454.687 -0.994226 2.12491 0
M  V30 4854 C 455.703 -1.37013 1.07254 0
M  V30 4855 O 456.879 -1.45542 1.3921 0
M  V30 4856 C 453.944 -2.2642 2.62555 0
M  V30 4857 C 453.005 -1.95049 3.82432 0
M  V30 4858 C 452.238 -3.15991 4.30099 0
M  V30 4859 O 452.461 -4.28015 3.7704 0
M  V30 4860 O 451.395 -2.99403 5.22151 0
M  V30 4861 H 455.221 -0.557549 2.98538 0
M  V30 4862 H 452.806 -0.209413 1.47925 0
M  V30 4863 H 454.688 -3.01009 2.9491 0
M  V30 4864 H 453.363 -2.69306 1.796 0
M  V30 4865 H 452.27 -1.17904 3.55034 0
M  V30 4866 H 453.603 -1.56992 4.66491 0
M  V30 4867 N 455.255 -1.55392 -0.262866 0
M  V30 4868 C 456.218 -1.88181 -1.30846 0
M  V30 4869 C 457.218 -0.757079 -1.41862 0
M  V30 4870 O 458.408 -1.02519 -1.40838 0
M  V30 4871 C 455.54 -2.09609 -2.68844 0
M  V30 4872 H 456.733 -2.81659 -1.02997 0
M  V30 4873 H 454.286 -1.48039 -0.501414 0
M  V30 4874 H 455.021 -1.18547 -3.01856 0
M  V30 4875 H 454.806 -2.91508 -2.62231 0
M  V30 4876 H 456.296 -2.36215 -3.44372 0
M  V30 4877 N 456.733 0.527833 -1.48498 0
M  V30 4878 C 457.643 1.65907 -1.65867 0
M  V30 4879 C 458.659 1.6537 -0.541192 0
M  V30 4880 O 459.835 1.84282 -0.812534 0
M  V30 4881 C 456.9 3.02364 -1.69637 0
M  V30 4882 C 455.961 3.1374 -2.93028 0
M  V30 4883 C 455.194 4.43688 -2.96609 0
M  V30 4884 O 455.417 5.30913 -2.08538 0
M  V30 4885 O 454.351 4.59475 -3.88802 0
M  V30 4886 H 458.177 1.5419 -2.61647 0
M  V30 4887 H 455.762 0.701163 -1.31924 0
M  V30 4888 H 457.644 3.83515 -1.74625 0
M  V30 4889 H 456.319 3.14401 -0.770312 0
M  V30 4890 H 455.226 2.31877 -2.93571 0
M  V30 4891 H 456.559 3.06621 -3.85026 0
M  V30 4892 N 458.211 1.37122 0.776871 0
M  V30 4893 C 459.457 1.32243 1.53752 0
M  V30 4894 C 459.79 -0.0944745 1.9397 0
M  V30 4895 O 459.065 -1.05068 1.6368 0
M  V30 4896 C 459.348 2.25681 2.80607 0
M  V30 4897 C 459.201 3.76127 2.46676 0
M  V30 4898 C 460.52 2.17657 3.82509 0
M  V30 4899 H 457.639 0.481704 0.557791 0
M  V30 4900 H 460.281 1.6778 0.891612 0
M  V30 4901 H 458.431 1.95505 3.35723 0
M  V30 4902 H 460.103 4.16877 1.97513 0
M  V30 4903 H 458.346 3.94946 1.79443 0
M  V30 4904 H 459.017 4.36933 3.37333 0
M  V30 4905 H 461.493 2.44245 3.36873 0
M  V30 4906 H 460.369 2.85185 4.69 0
M  V30 4907 H 460.63 1.16785 4.26396 0
M  V30 4908 N 459.689 -1.00246 1.21608 0
M  V30 4909 C 460.935 -1.74417 1.04643 0
M  V30 4910 C 461.29 -1.87862 -0.415387 0
M  V30 4911 O 460.583 -1.40373 -1.30407 0
M  V30 4912 C 460.777 -3.15448 1.68009 0
M  V30 4913 C 460.606 -3.15755 3.20201 0
M  V30 4914 C 459.376 -3.2219 3.89258 0
M  V30 4915 C 461.574 -3.00668 4.17257 0
M  V30 4916 N 459.556 -3.1215 5.28617 0
M  V30 4917 C 460.927 -2.98553 5.43384 0
M  V30 4918 C 462.982 -2.84989 4.08272 0
M  V30 4919 C 461.685 -2.82364 6.61561 0
M  V30 4920 C 463.711 -2.70158 5.26088 0
M  V30 4921 C 463.073 -2.68721 6.51128 0
M  V30 4922 H 459.172 -0.648317 0.437274 0
M  V30 4923 H 461.756 -1.19129 1.54001 0
M  V30 4924 H 459.927 -3.69001 1.21215 0
M  V30 4925 H 461.659 -3.78128 1.44226 0
M  V30 4926 H 458.414 -3.29488 3.40198 0
M  V30 4927 H 458.838 -3.10465 6.01615 0
M  V30 4928 H 463.48 -2.84904 3.12393 0
M  V30 4929 H 461.198 -2.81196 7.57598 0
M  V30 4930 H 464.784 -2.59022 5.20959 0
M  V30 4931 H 463.664 -2.57382 7.40759 0
M  V30 4932 N 461.167 -1.02423 -1.1978 0
M  V30 4933 C 462.114 -0.601023 -2.22837 0
M  V30 4934 C 463.084 0.382801 -1.61629 0
M  V30 4935 O 464.269 0.280514 -1.88727 0
M  V30 4936 C 461.409 0.0467755 -3.45068 0
M  V30 4937 C 460.522 -0.98253 -4.20678 0
M  V30 4938 C 459.657 -0.304982 -5.30324 0
M  V30 4939 C 458.696 -1.32052 -5.97686 0
M  V30 4940 N 457.833 -0.669105 -6.98904 0
M  V30 4941 H 462.673 -1.48444 -2.58396 0
M  V30 4942 H 460.21 -0.742936 -1.2696 0
M  V30 4943 H 462.168 0.439556 -4.14878 0
M  V30 4944 H 460.798 0.893796 -3.10179 0
M  V30 4945 H 459.85 -1.49341 -3.49859 0
M  V30 4946 H 461.162 -1.75455 -4.66923 0
M  V30 4947 H 460.316 0.142893 -6.06532 0
M  V30 4948 H 459.055 0.499283 -4.85138 0
M  V30 4949 H 458.06 -1.7787 -5.20233 0
M  V30 4950 H 459.285 -2.1262 -6.44957 0
M  V30 4951 H 457.231 0.115152 -6.55899 0
M  V30 4952 H 457.148 -1.37908 -7.43315 0
M  V30 4953 H 458.416 -0.245076 -7.79115 0
M  V30 4954 N 462.645 1.35699 -0.801477 0
M  V30 4955 C 463.922 1.9324 -0.302937 0
M  V30 4956 C 464.302 1.73209 1.20672 0
M  V30 4957 O 463.65 1.09809 2.00385 0
M  V30 4958 C 463.86 3.41728 -0.708747 0
M  V30 4959 C 465.208 4.18868 -0.695328 0
M  V30 4960 O 466.232 3.5022 -0.649971 0
M  V30 4961 O 465.091 5.41342 -0.749081 0
M  V30 4962 H 462.185 0.82331 -0.0780367 0
M  V30 4963 H 464.731 1.44806 -0.884832 0
M  V30 4964 H 463.503 3.50015 -1.74944 0
M  V30 4965 H 463.126 3.97471 -0.101384 0
M  V30 4966 N 464.123 0.554532 1.47522 0
M  V30 4967 C 465.086 -0.184174 2.28459 0
M  V30 4968 C 466.086 -0.845195 1.36796 0
M  V30 4969 O 467.276 -0.701467 1.59452 0
M  V30 4970 C 464.408 -1.26903 3.16399 0
M  V30 4971 H 465.601 0.526751 2.95238 0
M  V30 4972 H 463.154 0.311375 1.53167 0
M  V30 4973 H 463.889 -2.01244 2.54306 0
M  V30 4974 H 463.674 -0.799883 3.83854 0
M  V30 4975 H 465.164 -1.78794 3.77389 0
M  V30 4976 N 465.601 -1.54893 0.290851 0
M  V30 4977 C 466.564 -2.21824 -0.576784 0
M  V30 4978 C 467.564 -1.20104 -1.06919 0
M  V30 4979 O 468.754 -1.44906 -0.966843 0
M  V30 4980 C 465.886 -2.89662 -1.79747 0
M  V30 4981 H 467.079 -2.99899 0.00784051 0
M  V30 4982 H 464.632 -1.56245 0.0415934 0
M  V30 4983 H 465.367 -2.15639 -2.42219 0
M  V30 4984 H 465.152 -3.64219 -1.45214 0
M  V30 4985 H 466.642 -3.4075 -2.4141 0
M  V30 4986 N 467.08 -0.0183926 -1.57589 0
M  V30 4987 C 468.308 0.673046 -1.95647 0
M  V30 4988 C 468.723 1.66275 -0.894312 0
M  V30 4989 O 468.08 1.82072 0.124975 0
M  V30 4990 C 468.131 1.38884 -3.33756 0
M  V30 4991 O 467.852 0.438806 -4.35897 0
M  V30 4992 C 469.353 2.1731 -3.86383 0
M  V30 4993 H 466.573 0.186292 -0.644621 0
M  V30 4994 H 469.117 -0.0749748 -2.04363 0
M  V30 4995 H 467.272 2.08835 -3.26293 0
M  V30 4996 H 467.686 0.945869 -5.15901 0
M  V30 4997 H 469.16 2.62863 -4.85394 0
M  V30 4998 H 469.637 3.00764 -3.20059 0
M  V30 4999 H 470.243 1.52339 -3.97081 0
M  V30 5000 N 468.558 1.5553 0.254621 0
M  V30 5001 C 469.49 1.86104 1.33783 0
M  V30 5002 C 470.503 0.746752 1.44663 0
M  V30 5003 O 471.692 1.0248 1.46151 0
M  V30 5004 C 468.792 2.02532 2.71724 0
M  V30 5005 C 467.965 3.33335 2.83208 0
M  V30 5006 C 467.024 3.396 4.01943 0
M  V30 5007 O 466.05 4.12862 3.91834 0
M  V30 5008 N 467.252 2.68332 5.1476 0
M  V30 5009 H 470.017 2.79605 1.07893 0
M  V30 5010 H 467.578 1.55672 0.444732 0
M  V30 5011 H 469.57 2.04074 3.4948 0
M  V30 5012 H 468.14 1.15811 2.90356 0
M  V30 5013 H 467.36 3.44176 1.92189 0
M  V30 5014 H 468.648 4.19565 2.87824 0
M  V30 5015 H 468.046 2.08528 5.25864 0
M  V30 5016 H 466.603 2.75575 5.90679 0
M  V30 5017 N 470.036 -0.519951 1.48776 0
M  V30 5018 C 471.285 -1.27175 1.56555 0
M  V30 5019 C 471.598 -1.9401 0.248869 0
M  V30 5020 O 472.804 -2.70725 0.205004 0
M  V30 5021 C 471.26 -2.30811 2.76142 0
M  V30 5022 C 470.868 -1.7 4.14493 0
M  V30 5023 C 472.612 -3.06937 2.9324 0
M  V30 5024 C 470.519 -2.71635 5.25327 0
M  V30 5025 H 469.449 -0.478329 0.582853 0
M  V30 5026 H 472.1 -0.547916 1.75129 0
M  V30 5027 H 470.482 -3.06274 2.51023 0
M  V30 5028 H 471.656 -1.00658 4.49672 0
M  V30 5029 H 469.971 -1.06331 4.02595 0
M  V30 5030 H 472.568 -3.82905 3.73213 0
M  V30 5031 H 472.911 -3.63409 2.03075 0
M  V30 5032 H 473.444 -2.38589 3.18308 0
M  V30 5033 H 470.183 -2.1997 6.1749 0
M  V30 5034 H 469.703 -3.39275 4.94624 0
M  V30 5035 H 471.382 -3.34429 5.53865 0
M  V30 5036 N 471.514 -1.37532 -0.769588 0
M  V30 5037 C 472.761 -1.3286 -1.52822 0
M  V30 5038 C 473.089 0.0862597 -1.94309 0
M  V30 5039 O 472.344 1.05995 -1.6451 0
M  V30 5040 C 472.643 -2.21558 -2.8044 0
M  V30 5041 C 472.309 -3.69796 -2.57996 0
M  V30 5042 C 470.971 -4.10194 -2.51583 0
M  V30 5043 C 473.323 -4.63699 -2.37976 0
M  V30 5044 C 470.651 -5.42608 -2.23144 0
M  V30 5045 C 473.003 -5.96353 -2.1106 0
M  V30 5046 C 471.667 -6.35853 -2.03093 0
M  V30 5047 H 470.937 -0.486168 -0.559215 0
M  V30 5048 H 473.584 -1.69757 -0.886277 0
M  V30 5049 H 471.889 -1.77663 -3.49204 0
M  V30 5050 H 473.586 -2.15256 -3.38328 0
M  V30 5051 H 470.176 -3.37759 -2.63851 0
M  V30 5052 H 474.36 -4.33346 -2.41919 0
M  V30 5053 H 469.616 -5.72173 -2.15472 0
M  V30 5054 H 473.79 -6.68667 -1.94568 0
M  V30 5055 H 471.417 -7.38382 -1.8082 0
M  V30 5056 N 472.992 0.995999 -1.22138 0
M  V30 5057 C 474.222 1.76809 -1.06874 0
M  V30 5058 C 474.63 1.85265 0.383866 0
M  V30 5059 O 473.973 1.31969 1.27789 0
M  V30 5060 C 474.035 3.2186 -1.60144 0
M  V30 5061 C 473.699 3.36958 -3.0872 0
M  V30 5062 C 474.696 3.2452 -4.0618 0
M  V30 5063 C 472.381 3.62109 -3.48112 0
M  V30 5064 C 474.375 3.37013 -5.41019 0
M  V30 5065 C 472.062 3.74243 -4.831 0
M  V30 5066 C 473.06 3.61702 -5.79362 0
M  V30 5067 O 472.748 3.73436 -7.119 0
M  V30 5068 H 472.48 0.562207 -0.375365 0
M  V30 5069 H 475.034 1.26113 -1.62125 0
M  V30 5070 H 473.264 3.73734 -0.992981 0
M  V30 5071 H 474.953 3.80775 -1.40589 0
M  V30 5072 H 475.719 3.05004 -3.77091 0
M  V30 5073 H 471.598 3.70949 -2.73712 0
M  V30 5074 H 475.142 3.27141 -6.16137 0
M  V30 5075 H 471.039 3.93266 -5.11872 0
M  V30 5076 H 471.807 3.90328 -7.19435 0
M  V30 5077 N 474.47 1.03057 1.19235 0
M  V30 5078 C 475.695 0.74757 1.93458 0
M  V30 5079 C 476.12 -0.687648 1.7508 0
M  V30 5080 O 475.478 -1.47499 1.05422 0
M  V30 5081 C 475.526 1.10604 3.43219 0
M  V30 5082 O 474.63 0.225671 4.11782 0
M  V30 5083 H 473.971 0.276047 0.603899 0
M  V30 5084 H 476.501 1.3777 1.51263 0
M  V30 5085 H 476.511 1.06366 3.93891 0
M  V30 5086 H 475.186 2.15165 3.55917 0
M  V30 5087 H 473.763 0.326795 3.71465 0
M  V30 5088 N 475.948 -1.35272 0.808662 0
M  V30 5089 C 476.878 -2.32315 0.234981 0
M  V30 5090 C 477.859 -1.57572 -0.64071 0
M  V30 5091 O 479.044 -1.8563 -0.570551 0
M  V30 5092 C 476.174 -3.41801 -0.615601 0
M  V30 5093 C 475.128 -4.27694 0.161767 0
M  V30 5094 C 474.454 -5.28519 -0.810649 0
M  V30 5095 C 475.754 -5.04231 1.36193 0
M  V30 5096 H 477.448 -2.80543 1.04575 0
M  V30 5097 H 474.994 -1.3488 0.504315 0
M  V30 5098 H 476.947 -4.08693 -1.02702 0
M  V30 5099 H 475.671 -2.92186 -1.45928 0
M  V30 5100 H 474.33 -3.62384 0.554382 0
M  V30 5101 H 473.978 -4.75171 -1.64988 0
M  V30 5102 H 473.678 -5.8686 -0.294822 0
M  V30 5103 H 475.202 -5.98283 -1.22023 0
M  V30 5104 H 476.616 -5.64058 1.02528 0
M  V30 5105 H 475.013 -5.72077 1.81239 0
M  V30 5106 H 476.083 -4.34753 2.14751 0
M  V30 5107 N 477.426 -0.562348 -1.47226 0
M  V30 5108 C 478.651 -0.0432632 -2.07355 0
M  V30 5109 C 479.076 1.24332 -1.41149 0
M  V30 5110 O 478.434 1.74603 -0.488226 0
M  V30 5111 C 478.482 0.130288 -3.60365 0
M  V30 5112 O 477.586 1.19166 -3.94808 0
M  V30 5113 H 476.927 -0.0536334 -0.66183 0
M  V30 5114 H 479.457 -0.779495 -1.89169 0
M  V30 5115 H 479.467 0.342881 -4.06557 0
M  V30 5116 H 478.142 -0.809389 -4.07948 0
M  V30 5117 H 476.719 0.959153 -3.60354 0
M  V30 5118 N 478.904 1.54736 -0.299062 0
M  V30 5119 C 480.15 2.00397 0.311244 0
M  V30 5120 C 480.483 1.18716 1.53688 0
M  V30 5121 O 479.758 0.263154 1.92712 0
M  V30 5122 C 480.041 3.53817 0.669761 0
M  V30 5123 C 479.894 4.46239 -0.564882 0
M  V30 5124 C 481.213 4.13856 1.49702 0
M  V30 5125 H 478.332 0.728493 0.111653 0
M  V30 5126 H 480.974 1.85506 -0.410774 0
M  V30 5127 H 479.124 3.66637 1.28491 0
M  V30 5128 H 480.796 4.45328 -1.20337 0
M  V30 5129 H 479.039 4.16916 -1.19849 0
M  V30 5130 H 479.71 5.5134 -0.269918 0
M  V30 5131 H 482.186 4.04461 0.977284 0
M  V30 5132 H 481.062 5.21365 1.71666 0
M  V30 5133 H 481.323 3.65608 2.48563 0
M  V30 5134 N 480.382 0.0267497 1.57577 0
M  V30 5135 C 481.345 -0.940916 2.08996 0
M  V30 5136 C 482.345 -1.25561 1.00455 0
M  V30 5137 O 483.535 -1.19634 1.26623 0
M  V30 5138 C 480.667 -2.25814 2.55384 0
M  V30 5139 H 481.86 -0.495628 2.95776 0
M  V30 5140 H 479.413 -0.221241 1.54726 0
M  V30 5141 H 480.148 -2.74976 1.71926 0
M  V30 5142 H 479.933 -2.04285 3.34679 0
M  V30 5143 H 481.423 -2.95178 2.95398 0
M  V30 5144 N 481.861 -1.55662 -0.24637 0
M  V30 5145 C 483.107 -1.78698 -0.971525 0
M  V30 5146 C 483.462 -0.59577 -1.82944 0
M  V30 5147 O 482.755 0.41097 -1.87141 0
M  V30 5148 C 482.949 -3.04885 -1.86494 0
M  V30 5149 C 482.778 -4.36165 -1.09501 0
M  V30 5150 C 481.548 -4.98929 -0.799895 0
M  V30 5151 C 483.746 -5.12126 -0.472334 0
M  V30 5152 N 481.728 -6.139 -0.00595299 0
M  V30 5153 C 483.099 -6.1972 0.18616 0
M  V30 5154 C 485.154 -4.96426 -0.382854 0
M  V30 5155 C 483.857 -7.13321 0.925542 0
M  V30 5156 C 485.883 -5.90405 0.342999 0
M  V30 5157 C 485.245 -6.97407 0.990128 0
M  V30 5158 H 481.344 -0.705852 -0.336597 0
M  V30 5159 H 483.928 -1.93157 -0.244615 0
M  V30 5160 H 482.099 -2.91753 -2.56388 0
M  V30 5161 H 483.831 -3.16212 -2.5257 0
M  V30 5162 H 480.586 -4.60365 -1.11181 0
M  V30 5163 H 481.01 -6.75938 0.379127 0
M  V30 5164 H 485.652 -4.13777 -0.868834 0
M  V30 5165 H 483.37 -7.9547 1.42312 0
M  V30 5166 H 486.956 -5.80333 0.412907 0
M  V30 5167 H 485.836 -7.68874 1.54282 0
M  V30 5168 N 483.339 0.512053 -1.4905 0
M  V30 5169 C 484.587 1.26436 -1.57665 0
M  V30 5170 C 484.908 1.93255 -0.260293 0
M  V30 5171 O 484.178 1.82206 0.719564 0
M  V30 5172 H 482.758 0.469658 -0.580888 0
M  V30 5173 H 485.42 0.594398 -1.85615 0
M  V30 5174 H 484.516 2.03417 -2.36702 0
M  V30 5175 N 484.817 1.37938 0.762283 0
M  V30 5176 C 486.065 1.33404 1.51815 0
M  V30 5177 C 486.386 -0.0780975 1.94844 0
M  V30 5178 O 485.656 -1.02405 1.67003 0
M  V30 5179 H 484.236 0.490839 0.563104 0
M  V30 5180 H 486.898 1.72527 0.906669 0
M  V30 5181 H 485.994 1.97926 2.41313 0
M  V30 5182 N 486.295 -0.989507 1.22664 0
M  V30 5183 C 487.225 -2.09847 1.02404 0
M  V30 5184 C 488.206 -1.70007 -0.0561303 0
M  V30 5185 O 489.391 -1.93906 0.106748 0
M  V30 5186 C 486.521 -3.41996 0.604663 0
M  V30 5187 C 485.475 -3.95699 1.63115 0
M  V30 5188 C 484.801 -5.23936 1.0675 0
M  V30 5189 C 486.101 -4.25999 3.02196 0
M  V30 5190 H 487.795 -2.27054 1.95158 0
M  V30 5191 H 485.341 -1.09111 0.939727 0
M  V30 5192 H 487.294 -4.1899 0.45002 0
M  V30 5193 H 486.018 -3.24626 -0.35855 0
M  V30 5194 H 484.677 -3.2084 1.77362 0
M  V30 5195 H 484.325 -5.02909 0.0955422 0
M  V30 5196 H 484.025 -5.60833 1.75328 0
M  V30 5197 H 485.549 -6.0356 0.924516 0
M  V30 5198 H 486.963 -4.93777 2.91303 0
M  V30 5199 H 485.36 -4.74076 3.67929 0
M  V30 5200 H 486.43 -3.33636 3.51873 0
M  V30 5201 N 487.773 -1.03688 -1.18687 0
M  V30 5202 C 489.019 -0.739123 -1.88851 0
M  V30 5203 C 489.352 0.731042 -1.79915 0
M  V30 5204 O 488.627 1.53313 -1.19688 0
M  V30 5205 C 488.91 -1.20106 -3.3948 0
M  V30 5206 C 488.763 -2.73304 -3.57246 0
M  V30 5207 C 490.082 -0.788134 -4.32986 0
M  V30 5208 H 487.201 -0.269978 -0.68577 0
M  V30 5209 H 489.843 -1.28822 -1.3966 0
M  V30 5210 H 487.993 -0.733915 -3.81505 0
M  V30 5211 H 489.665 -3.28027 -3.24339 0
M  V30 5212 H 487.908 -3.13313 -3.00029 0
M  V30 5213 H 488.579 -3.00684 -4.62918 0
M  V30 5214 H 491.055 -1.19005 -3.98719 0
M  V30 5215 H 489.931 -1.13915 -5.36949 0
M  V30 5216 H 490.192 0.308988 -4.41019 0
M  V30 5217 N 489.251 1.34841 -0.815825 0
M  V30 5218 C 490.214 2.27959 -0.238185 0
M  V30 5219 C 491.214 1.49983 0.579816 0
M  V30 5220 O 492.404 1.69617 0.396953 0
M  V30 5221 C 489.536 3.34314 0.666876 0
M  V30 5222 H 490.729 2.80558 -1.05958 0
M  V30 5223 H 488.282 1.44852 -0.587156 0
M  V30 5224 H 489.017 2.86916 1.5116 0
M  V30 5225 H 488.802 3.92014 0.0819106 0
M  V30 5226 H 490.292 4.0379 1.06506 0
M  V30 5227 N 490.729 0.570148 1.46925 0
M  V30 5228 C 491.659 -0.158274 2.32963 0
M  V30 5229 C 492.64 -0.896093 1.44583 0
M  V30 5230 O 493.825 -0.874022 1.7342 0
M  V30 5231 C 490.955 -1.18055 3.26619 0
M  V30 5232 C 489.909 -0.558379 4.24342 0
M  V30 5233 C 489.235 -1.68623 5.07415 0
M  V30 5234 C 490.535 0.496295 5.19937 0
M  V30 5235 H 492.229 0.560046 2.94115 0
M  V30 5236 H 489.775 0.270775 1.41431 0
M  V30 5237 H 491.728 -1.69841 3.85658 0
M  V30 5238 H 490.452 -1.92899 2.63548 0
M  V30 5239 H 489.111 -0.0617157 3.66548 0
M  V30 5240 H 488.759 -2.42402 4.40738 0
M  V30 5241 H 488.459 -1.27564 5.73586 0
M  V30 5242 H 489.983 -2.20709 5.69315 0
M  V30 5243 H 491.397 0.0640052 5.73264 0
M  V30 5244 H 489.794 0.82649 5.94381 0
M  V30 5245 H 490.864 1.38735 4.6463 0
M  V30 5246 N 492.207 -1.54576 0.307264 0
M  V30 5247 C 493.432 -2.05139 -0.305379 0
M  V30 5248 C 493.857 -1.18278 -1.46259 0
M  V30 5249 O 493.215 -0.188243 -1.8032 0
M  V30 5250 C 493.263 -3.53066 -0.733283 0
M  V30 5251 O 492.367 -3.69206 -1.83741 0
M  V30 5252 H 491.708 -0.661444 -0.0582105 0
M  V30 5253 H 494.238 -1.99569 0.450931 0
M  V30 5254 H 494.248 -3.95034 -1.02039 0
M  V30 5255 H 492.923 -4.15746 0.113198 0
M  V30 5256 H 491.5 -3.39143 -1.55037 0
M  V30 5257 N 493.685 -0.035106 -1.57561 0
M  V30 5258 C 494.91 0.655802 -1.96759 0
M  V30 5259 C 495.335 1.64523 -0.911809 0
M  V30 5260 O 494.693 1.80857 0.126673 0
M  V30 5261 C 494.741 1.33326 -3.35047 0
M  V30 5262 O 493.845 2.44866 -3.31835 0
M  V30 5263 H 493.186 0.171807 -0.641388 0
M  V30 5264 H 495.716 -0.0987369 -2.04362 0
M  V30 5265 H 495.726 1.68867 -3.71413 0
M  V30 5266 H 494.401 0.608033 -4.11431 0
M  V30 5267 H 492.978 2.11392 -3.07193 0
M  V30 5268 N 495.163 1.55791 0.238111 0
M  V30 5269 C 496.393 1.81834 0.980809 0
M  V30 5270 C 496.801 0.609741 1.79106 0
M  V30 5271 O 496.144 -0.431073 1.78571 0
M  V30 5272 C 496.206 3.01363 1.96011 0
M  V30 5273 C 495.87 4.37037 1.33597 0
M  V30 5274 C 496.867 5.14692 0.734063 0
M  V30 5275 C 494.552 4.83743 1.3527 0
M  V30 5276 C 496.546 6.37206 0.157208 0
M  V30 5277 C 494.233 6.06204 0.77199 0
M  V30 5278 C 495.231 6.82775 0.175282 0
M  V30 5279 O 494.919 8.02922 -0.396432 0
M  V30 5280 H 494.651 0.6088 0.293834 0
M  V30 5281 H 497.205 2.03702 0.263552 0
M  V30 5282 H 495.435 2.75273 2.71591 0
M  V30 5283 H 497.124 3.14422 2.56697 0
M  V30 5284 H 497.89 4.79722 0.713582 0
M  V30 5285 H 493.769 4.24129 1.80653 0
M  V30 5286 H 497.313 6.96915 -0.30917 0
M  V30 5287 H 493.21 6.4065 0.789828 0
M  V30 5288 H 493.978 8.17989 -0.289145 0
M  V30 5289 N 496.642 -0.504142 1.49319 0
M  V30 5290 C 497.59 -1.62689 1.66238 0
M  V30 5291 C 498.584 -1.6095 0.528349 0
M  V30 5292 O 499.79 -1.65496 0.707887 0
M  V30 5293 H 496.165 -0.539247 0.524134 0
M  V30 5294 H 498.136 -1.45571 2.60484 0
M  V30 5295 C 496.885 -3.00841 1.74328 0
M  V30 5296 H 496.208 -3.02884 2.60963 0
M  V30 5297 H 497.648 -3.78945 1.90202 0
M  V30 5298 C 496.107 -3.33355 0.487416 0
M  V30 5299 O 496.637 -3.99819 -0.388294 0
M  V30 5300 N 494.843 -2.88469 0.351306 0
M  V30 5301 H 494.39 -2.34557 1.06492 0
M  V30 5302 H 494.348 -3.10591 -0.487899 0
M  V30 5303 N 498.12 -1.38341 -0.754957 0
M  V30 5304 C 499.067 -1.3546 -1.86867 0
M  V30 5305 C 500.037 -0.217369 -1.64672 0
M  V30 5306 O 501.222 -0.409383 -1.86356 0
M  V30 5307 C 498.362 -1.18413 -3.24149 0
M  V30 5308 C 497.475 -2.41511 -3.58185 0
M  V30 5309 C 496.61 -2.17205 -4.84763 0
M  V30 5310 C 495.649 -3.36081 -5.11582 0
M  V30 5311 N 494.786 -3.11219 -6.29354 0
M  V30 5312 H 499.626 -2.30672 -1.88664 0
M  V30 5313 H 497.163 -1.14607 -0.922154 0
M  V30 5314 H 499.121 -1.06545 -4.03366 0
M  V30 5315 H 497.751 -0.268397 -3.21682 0
M  V30 5316 H 496.803 -2.64056 -2.73822 0
M  V30 5317 H 498.115 -3.30115 -3.73932 0
M  V30 5318 H 497.269 -2.02465 -5.7192 0
M  V30 5319 H 496.008 -1.25964 -4.71152 0
M  V30 5320 H 495.013 -3.51341 -4.22894 0
M  V30 5321 H 496.238 -4.28196 -5.27091 0
M  V30 5322 H 494.184 -2.22624 -6.17069 0
M  V30 5323 H 494.101 -3.93373 -6.45596 0
M  V30 5324 H 495.369 -3.00132 -7.19403 0
M  V30 5325 N 499.598 0.982988 -1.23187 0
M  V30 5326 C 500.845 1.72392 -1.06241 0
M  V30 5327 C 501.173 1.9032 0.40108 0
M  V30 5328 O 500.428 1.45084 1.31336 0
M  V30 5329 C 500.727 3.12736 -1.73006 0
M  V30 5330 C 500.393 3.14695 -3.22921 0
M  V30 5331 C 499.055 3.14937 -3.63824 0
M  V30 5332 C 501.407 3.10211 -4.1883 0
M  V30 5333 C 498.735 3.08408 -4.99101 0
M  V30 5334 C 501.087 3.05224 -5.54095 0
M  V30 5335 C 499.751 3.03787 -5.94365 0
M  V30 5336 H 499.021 0.630829 -0.388762 0
M  V30 5337 H 501.668 1.15053 -1.53085 0
M  V30 5338 H 499.973 3.73446 -1.18514 0
M  V30 5339 H 501.67 3.68828 -1.57374 0
M  V30 5340 H 498.26 3.15262 -2.90358 0
M  V30 5341 H 502.444 3.09166 -3.8824 0
M  V30 5342 H 497.7 3.05646 -5.29519 0
M  V30 5343 H 501.874 3.00712 -6.28128 0
M  V30 5344 H 499.501 2.98483 -6.99151 0
M  V30 5345 N 501.076 1.04316 1.18135 0
M  V30 5346 C 502.023 0.636398 2.21853 0
M  V30 5347 C 502.993 -0.357039 1.62217 0
M  V30 5348 O 504.178 -0.250453 1.89149 0
M  V30 5349 C 501.318 0.00812779 3.45099 0
M  V30 5350 C 500.431 1.04933 4.19062 0
M  V30 5351 C 499.566 0.389313 5.29771 0
M  V30 5352 C 498.605 1.41544 5.9551 0
M  V30 5353 N 497.742 0.78021 6.97751 0
M  V30 5354 H 502.582 1.52536 2.56002 0
M  V30 5355 H 500.119 0.76304 1.25762 0
M  V30 5356 H 502.077 -0.373497 4.15525 0
M  V30 5357 H 500.707 -0.844336 3.11562 0
M  V30 5358 H 499.759 1.54888 3.47439 0
M  V30 5359 H 501.071 1.82862 4.64072 0
M  V30 5360 H 500.225 -0.0463805 6.06682 0
M  V30 5361 H 498.964 -0.422038 4.8587 0
M  V30 5362 H 497.969 1.86124 5.17337 0
M  V30 5363 H 499.194 2.22854 6.41493 0
M  V30 5364 H 497.14 -0.0107899 6.55999 0
M  V30 5365 H 497.057 1.49716 7.41027 0
M  V30 5366 H 498.325 0.368996 7.78626 0
M  V30 5367 N 502.554 -1.34406 0.822964 0
M  V30 5368 C 503.502 -2.31428 0.233165 0
M  V30 5369 C 504.496 -1.57404 -0.626118 0
M  V30 5370 O 505.702 -1.72402 -0.517453 0
M  V30 5371 H 502.077 -0.749863 0.0566557 0
M  V30 5372 H 504.048 -2.78699 1.06628 0
M  V30 5373 C 502.797 -3.42653 -0.590264 0
M  V30 5374 H 502.12 -3.99753 0.0616129 0
M  V30 5375 H 503.56 -4.12778 -0.969054 0
M  V30 5376 C 502.019 -2.87112 -1.76262 0
M  V30 5377 O 502.549 -2.81995 -2.8608 0
M  V30 5378 N 500.755 -2.43934 -1.57938 0
M  V30 5379 H 500.302 -2.48296 -0.686078 0
M  V30 5380 H 500.26 -2.07123 -2.36532 0
M  V30 5381 N 504.032 -0.577932 -1.46621 0
M  V30 5382 C 504.98 0.170882 -2.31971 0
M  V30 5383 C 505.974 0.889086 -1.44193 0
M  V30 5384 O 507.18 0.808017 -1.60845 0
M  V30 5385 H 503.555 0.0739763 -0.748353 0
M  V30 5386 H 505.526 -0.567856 -2.92947 0
M  V30 5387 C 504.275 1.17438 -3.27267 0
M  V30 5388 H 503.598 0.63116 -3.94787 0
M  V30 5389 H 505.038 1.66882 -3.89778 0
M  V30 5390 C 503.497 2.23292 -2.52274 0
M  V30 5391 O 504.027 3.30567 -2.28229 0
M  V30 5392 N 502.233 1.97772 -2.12919 0
M  V30 5393 H 501.78 1.10545 -2.32675 0
M  V30 5394 H 501.738 2.68809 -1.63062 0
M  V30 5395 N 505.51 1.54411 -0.315457 0
M  V30 5396 C 506.75 2.02329 0.290236 0
M  V30 5397 C 507.114 1.19878 1.49977 0
M  V30 5398 O 508.315 1.57562 2.17779 0
M  V30 5399 C 506.586 3.51912 0.623937 0
M  V30 5400 S 508.145 4.21775 1.21044 0
M  V30 5401 H 504.963 0.705499 0.0882739 0
M  V30 5402 H 507.565 1.90328 -0.446694 0
M  V30 5403 H 506.269 4.09546 -0.264624 0
M  V30 5404 H 505.8 3.67977 1.39128 0
M  V30 5405 H 507.815 4.28757 2.49764 0
M  V30 5406 N 506.988 0.0434614 1.5754 0
M  V30 5407 C 508.235 -0.632035 1.92384 0
M  V30 5408 C 508.563 -1.71304 0.921157 0
M  V30 5409 O 507.818 -1.95583 -0.067744 0
M  V30 5410 C 508.117 -1.2738 3.3393 0
M  V30 5411 C 507.783 -0.321757 4.49751 0
M  V30 5412 C 506.445 -0.0597611 4.81163 0
M  V30 5413 C 508.797 0.331158 5.20147 0
M  V30 5414 C 506.125 0.862715 5.80322 0
M  V30 5415 C 508.477 1.24178 6.20292 0
M  V30 5416 C 507.141 1.51252 6.50138 0
M  V30 5417 H 506.411 -0.231278 0.703983 0
M  V30 5418 H 509.058 0.108294 1.91194 0
M  V30 5419 H 507.363 -2.08921 3.3145 0
M  V30 5420 H 509.06 -1.80326 3.58167 0
M  V30 5421 H 505.65 -0.53614 4.25233 0
M  V30 5422 H 509.834 0.141826 4.96097 0
M  V30 5423 H 505.09 1.08003 6.01785 0
M  V30 5424 H 509.264 1.75381 6.73954 0
M  V30 5425 H 506.891 2.22897 7.26788 0
M  V30 5426 N 508.466 -1.55915 -0.229846 0
M  V30 5427 C 509.691 -1.8296 -0.976743 0
M  V30 5428 C 510.116 -0.622735 -1.77493 0
M  V30 5429 O 509.474 0.428431 -1.76165 0
M  V30 5430 C 509.522 -3.07916 -1.8767 0
M  V30 5431 O 508.626 -2.86028 -2.97088 0
M  V30 5432 H 507.967 -0.603453 -0.277021 0
M  V30 5433 H 510.497 -2.0312 -0.245669 0
M  V30 5434 H 510.507 -3.37802 -2.2881 0
M  V30 5435 H 509.182 -3.95389 -1.28996 0
M  V30 5436 H 507.759 -2.67355 -2.59954 0
M  V30 5437 N 509.944 0.496216 -1.49584 0
M  V30 5438 C 511.221 1.25755 -1.49816 0
M  V30 5439 C 511.601 2.09859 -0.228572 0
M  V30 5440 O 510.949 2.14449 0.788908 0
M  V30 5441 C 511.159 2.11017 -2.7798 0
M  V30 5442 C 512.507 2.70047 -3.27658 0
M  V30 5443 O 513.531 2.21281 -2.79129 0
M  V30 5444 O 512.39 3.58834 -4.1219 0
M  V30 5445 H 509.484 0.569322 -0.599834 0
M  V30 5446 H 512.03 0.510094 -1.61852 0
M  V30 5447 H 510.802 1.48879 -3.61871 0
M  V30 5448 H 510.425 2.92947 -2.68827 0
M  V30 5449 N 511.423 1.38739 0.74761 0
M  V30 5450 C 512.386 1.36241 1.84312 0
M  V30 5451 C 513.386 0.261811 1.58654 0
M  V30 5452 O 514.576 0.519031 1.66288 0
M  V30 5453 C 511.708 1.12253 3.21888 0
M  V30 5454 H 512.901 2.33712 1.87933 0
M  V30 5455 H 510.454 1.2412 0.949946 0
M  V30 5456 H 511.189 0.154133 3.23934 0
M  V30 5457 H 510.974 1.91943 3.41907 0
M  V30 5458 H 512.464 1.13215 4.0196 0
M  V30 5459 N 512.901 -0.976442 1.23707 0
M  V30 5460 C 514.15 -1.71254 1.06559 0
M  V30 5461 C 514.463 -1.91528 -0.397024 0
M  V30 5462 O 515.669 -2.62625 -0.688518 0
M  V30 5463 C 514.125 -3.08207 1.8584 0
M  V30 5464 C 513.733 -2.95806 3.36456 0
M  V30 5465 C 515.477 -3.85749 1.77194 0
M  V30 5466 C 513.384 -4.28015 4.08114 0
M  V30 5467 H 512.314 -0.642171 0.395136 0
M  V30 5468 H 514.965 -1.08877 1.4771 0
M  V30 5469 H 513.347 -3.71363 1.37498 0
M  V30 5470 H 514.521 -2.41716 3.92314 0
M  V30 5471 H 512.836 -2.31736 3.45959 0
M  V30 5472 H 515.433 -4.83633 2.28041 0
M  V30 5473 H 515.776 -4.09752 0.735477 0
M  V30 5474 H 516.309 -3.29303 2.23169 0
M  V30 5475 H 513.048 -4.09208 5.12083 0
M  V30 5476 H 512.568 -4.81955 3.57043 0
M  V30 5477 H 514.247 -4.96681 4.14629 0
M  V30 5478 N 514.379 -1.04941 -1.1758 0
M  V30 5479 C 515.625 -0.759112 -1.88057 0
M  V30 5480 C 515.958 0.711918 -1.8068 0
M  V30 5481 O 515.233 1.52035 -1.21308 0
M  V30 5482 C 515.516 -1.237 -3.38187 0
M  V30 5483 C 515.369 -2.77078 -3.54327 0
M  V30 5484 C 516.688 -0.834014 -4.32125 0
M  V30 5485 H 513.807 -0.277237 -0.682868 0
M  V30 5486 H 516.449 -1.30296 -1.38286 0
M  V30 5487 H 514.599 -0.774337 -3.80705 0
M  V30 5488 H 516.271 -3.31449 -3.20842 0
M  V30 5489 H 514.514 -3.16477 -2.96689 0
M  V30 5490 H 515.185 -3.05577 -4.59703 0
M  V30 5491 H 517.661 -1.23228 -3.97434 0
M  V30 5492 H 516.537 -1.19603 -5.35711 0
M  V30 5493 H 516.798 0.262195 -4.41322 0
M  V30 5494 N 515.857 1.33968 -0.830081 0
M  V30 5495 C 517.103 1.98357 -0.422191 0
M  V30 5496 C 517.436 1.65633 1.01387 0
M  V30 5497 O 516.711 0.931648 1.70735 0
M  V30 5498 C 516.994 3.54492 -0.633043 0
M  V30 5499 C 516.847 3.96934 -2.11574 0
M  V30 5500 C 518.166 4.40039 -0.0735584 0
M  V30 5501 H 515.285 0.720544 -0.154871 0
M  V30 5502 H 517.927 1.58749 -1.04397 0
M  V30 5503 H 516.077 3.88361 -0.103775 0
M  V30 5504 H 517.749 3.73363 -2.7092 0
M  V30 5505 H 515.992 3.46984 -2.60354 0
M  V30 5506 H 516.663 5.05651 -2.21406 0
M  V30 5507 H 519.139 4.12764 -0.52585 0
M  V30 5508 H 518.015 5.48327 -0.250841 0
M  V30 5509 H 518.276 4.30124 1.02202 0
M  V30 5510 N 517.335 0.585699 1.46312 0
M  V30 5511 C 518.575 0.0751432 2.04262 0
M  V30 5512 C 518.939 -1.26201 1.44697 0
M  V30 5513 O 520.14 -1.86198 1.93865 0
M  V30 5514 C 518.411 0.013478 3.57397 0
M  V30 5515 S 519.97 -0.439068 4.36598 0
M  V30 5516 H 516.788 0.0389228 0.709934 0
M  V30 5517 H 519.39 0.778871 1.79315 0
M  V30 5518 H 518.094 0.990558 3.98266 0
M  V30 5519 H 517.625 -0.712927 3.86886 0
M  V30 5520 H 519.64 -1.6932 4.66417 0
M  V30 5521 N 518.813 -1.54241 0.323641 0
M  V30 5522 C 519.743 -2.27289 -0.534993 0
M  V30 5523 C 520.724 -1.28087 -1.11927 0
M  V30 5524 O 521.909 -1.56899 -1.14439 0
M  V30 5525 C 519.039 -3.03075 -1.69596 0
M  V30 5526 C 517.993 -4.09614 -1.24098 0
M  V30 5527 C 517.319 -4.73242 -2.4889 0
M  V30 5528 C 518.619 -5.21087 -0.355789 0
M  V30 5529 H 520.313 -2.99308 0.0743257 0
M  V30 5530 H 517.859 -1.43952 0.0371874 0
M  V30 5531 H 519.812 -3.52907 -2.30293 0
M  V30 5532 H 518.536 -2.28673 -2.33187 0
M  V30 5533 H 517.195 -3.60666 -0.656945 0
M  V30 5534 H 516.843 -3.95455 -3.10845 0
M  V30 5535 H 516.543 -5.45209 -2.19138 0
M  V30 5536 H 518.067 -5.25848 -3.10348 0
M  V30 5537 H 519.481 -5.66675 -0.869042 0
M  V30 5538 H 517.878 -5.9991 -0.151045 0
M  V30 5539 H 518.948 -4.81005 0.613339 0
M  V30 5540 N 520.291 -0.0518155 -1.57515 0
M  V30 5541 C 521.519 0.631395 -1.9703 0
M  V30 5542 C 521.934 1.64341 -0.92938 0
M  V30 5543 O 521.291 1.82296 0.0863266 0
M  V30 5544 C 521.342 1.31774 -3.36627 0
M  V30 5545 O 521.063 0.346247 -4.3673 0
M  V30 5546 C 522.564 2.09065 -3.90905 0
M  V30 5547 H 519.784 0.172576 -0.648428 0
M  V30 5548 H 522.328 -0.118306 -2.04158 0
M  V30 5549 H 520.483 2.01867 -3.30649 0
M  V30 5550 H 520.897 0.836226 -5.17791 0
M  V30 5551 H 522.371 2.52508 -4.9086 0
M  V30 5552 H 522.848 2.93908 -3.26366 0
M  V30 5553 H 523.454 1.43882 -4.00223 0
M  V30 5554 N 521.769 1.56035 0.221574 0
M  V30 5555 C 522.717 1.93269 1.29421 0
M  V30 5556 C 523.711 0.814727 1.48521 0
M  V30 5557 O 524.917 0.999559 1.49696 0
M  V30 5558 H 521.292 0.614188 0.43391 0
M  V30 5559 H 523.263 2.82773 0.952987 0
M  V30 5560 C 522.012 2.26573 2.63742 0
M  V30 5561 H 521.335 3.12112 2.49853 0
M  V30 5562 H 522.775 2.5651 3.37607 0
M  V30 5563 C 521.234 1.09086 3.1875 0
M  V30 5564 O 521.764 0.351985 4.00155 0
M  V30 5565 N 519.97 0.874693 2.77124 0
M  V30 5566 H 519.517 1.47726 2.11033 0
M  V30 5567 H 519.475 0.0903349 3.1427 0
M  V30 5568 N 523.247 -0.488276 1.49845 0
M  V30 5569 C 524.487 -1.2516 1.61599 0
M  V30 5570 C 524.851 -1.89615 0.301706 0
M  V30 5571 O 526.052 -2.67182 0.29453 0
M  V30 5572 C 524.323 -2.2805 2.75187 0
M  V30 5573 S 525.882 -3.13552 3.0697 0
M  V30 5574 H 522.7 -0.425178 0.569864 0
M  V30 5575 H 525.302 -0.551545 1.87559 0
M  V30 5576 H 524.006 -1.7925 3.69185 0
M  V30 5577 H 523.537 -3.02708 2.5126 0
M  V30 5578 H 525.552 -4.28927 2.49471 0
M  V30 5579 N 524.725 -1.39134 -0.740242 0
M  V30 5580 C 525.655 -1.40165 -1.86751 0
M  V30 5581 C 526.636 -0.265708 -1.68012 0
M  V30 5582 O 527.821 -0.47076 -1.88408 0
M  V30 5583 C 524.951 -1.2392 -3.2444 0
M  V30 5584 C 523.905 -2.34858 -3.57807 0
M  V30 5585 C 523.231 -2.03707 -4.94376 0
M  V30 5586 C 524.531 -3.77159 -3.61315 0
M  V30 5587 H 526.225 -2.345 -1.86145 0
M  V30 5588 H 523.771 -1.12875 -0.89416 0
M  V30 5589 H 525.724 -1.23263 -4.02969 0
M  V30 5590 H 524.448 -0.26051 -3.25559 0
M  V30 5591 H 523.107 -2.34723 -2.81604 0
M  V30 5592 H 522.755 -1.04289 -4.9207 0
M  V30 5593 H 522.455 -2.78016 -5.17669 0
M  V30 5594 H 523.979 -2.04691 -5.75268 0
M  V30 5595 H 525.393 -3.79252 -4.29931 0
M  V30 5596 H 523.79 -4.50784 -3.96124 0
M  V30 5597 H 524.86 -4.08513 -2.61238 0
M  V30 5598 N 526.204 0.969867 -1.24223 0
M  V30 5599 C 527.432 1.74756 -1.10761 0
M  V30 5600 C 527.847 1.85713 0.340041 0
M  V30 5601 O 527.204 1.34389 1.23474 0
M  V30 5602 C 527.255 3.16915 -1.73917 0
M  V30 5603 O 526.976 3.06511 -3.13021 0
M  V30 5604 C 528.477 4.11032 -1.66036 0
M  V30 5605 H 525.697 0.548092 -0.387087 0
M  V30 5606 H 528.241 1.2178 -1.64286 0
M  V30 5607 H 526.396 3.66884 -1.244 0
M  V30 5608 H 526.81 3.96079 -3.43834 0
M  V30 5609 H 528.284 5.08446 -2.14911 0
M  V30 5610 H 528.761 4.34785 -0.621159 0
M  V30 5611 H 529.367 3.66972 -2.14969 0
M  V30 5612 N 527.682 1.05563 1.17022 0
M  V30 5613 C 528.907 0.788437 1.91829 0
M  V30 5614 C 529.332 -0.650356 1.76499 0
M  V30 5615 O 528.69 -1.45229 1.08527 0
M  V30 5616 C 528.738 1.1786 3.40795 0
M  V30 5617 O 527.842 0.312965 4.11211 0
M  V30 5618 H 527.183 0.288794 0.597908 0
M  V30 5619 H 529.713 1.40948 1.48307 0
M  V30 5620 H 529.723 1.14697 3.91546 0
M  V30 5621 H 528.398 2.22666 3.51273 0
M  V30 5622 H 526.975 0.405515 3.70689 0
M  V30 5623 N 529.16 -1.33526 0.837174 0
M  V30 5624 C 530.406 -1.9813 0.432704 0
M  V30 5625 C 530.739 -1.66168 -1.00508 0
M  V30 5626 O 530.014 -0.94069 -1.70239 0
M  V30 5627 C 530.297 -3.54151 0.651834 0
M  V30 5628 C 530.15 -3.95806 2.13676 0
M  V30 5629 C 531.469 -4.39993 0.0968937 0
M  V30 5630 H 528.588 -0.719713 0.15869 0
M  V30 5631 H 531.23 -1.58193 1.05237 0
M  V30 5632 H 529.38 -3.88301 0.124369 0
M  V30 5633 H 531.052 -3.71921 2.72896 0
M  V30 5634 H 529.295 -3.45599 2.62191 0
M  V30 5635 H 529.966 -5.0447 2.24084 0
M  V30 5636 H 532.442 -4.12479 0.547733 0
M  V30 5637 H 531.318 -5.48186 0.279917 0
M  V30 5638 H 531.579 -4.3066 -0.9992 0
M  V30 5639 N 530.638 -0.59345 -1.46 0
M  V30 5640 C 531.885 -0.0831523 -2.02329 0
M  V30 5641 C 532.213 1.28093 -1.46364 0
M  V30 5642 O 531.468 1.85526 -0.622793 0
M  V30 5643 C 531.767 0.021178 -3.57394 0
M  V30 5644 C 531.433 -1.27671 -4.32448 0
M  V30 5645 C 530.095 -1.63227 -4.5267 0
M  V30 5646 C 532.447 -2.13511 -4.7546 0
M  V30 5647 C 529.775 -2.84401 -5.1316 0
M  V30 5648 C 532.127 -3.33922 -5.37289 0
M  V30 5649 C 530.791 -3.69747 -5.55737 0
M  V30 5650 H 530.061 -0.0304276 -0.740375 0
M  V30 5651 H 532.708 -0.772239 -1.75239 0
M  V30 5652 H 531.013 0.793454 -3.83682 0
M  V30 5653 H 532.71 0.431942 -3.98667 0
M  V30 5654 H 529.3 -0.989937 -4.17011 0
M  V30 5655 H 533.484 -1.87344 -4.59582 0
M  V30 5656 H 528.74 -3.12282 -5.25633 0
M  V30 5657 H 532.914 -4.00698 -5.69574 0
M  V30 5658 H 530.541 -4.6373 -6.02377 0
M  V30 5659 N 532.116 1.54067 -0.331816 0
M  V30 5660 C 533.079 2.23275 0.517768 0
M  V30 5661 C 534.079 1.22897 1.03697 0
M  V30 5662 O 535.269 1.47419 0.928084 0
M  V30 5663 C 532.401 2.94326 1.72004 0
M  V30 5664 H 533.594 2.99773 -0.0873507 0
M  V30 5665 H 531.147 1.56079 -0.0830042 0
M  V30 5666 H 531.882 2.21986 2.36417 0
M  V30 5667 H 531.667 3.67941 1.35507 0
M  V30 5668 H 533.157 3.47031 2.32291 0
M  V30 5669 N 533.594 0.0601682 1.57485 0
M  V30 5670 C 534.842 -0.610386 1.92662 0
M  V30 5671 C 535.163 -1.70849 0.939981 0
M  V30 5672 O 534.433 -1.95895 -0.0137455 0
M  V30 5673 H 533.013 -0.228457 0.711208 0
M  V30 5674 H 535.675 0.115288 1.94559 0
M  V30 5675 H 534.771 -1.0432 2.94149 0
M  V30 5676 N 535.072 -1.5615 -0.213296 0
M  V30 5677 C 536.319 -1.79546 -0.936462 0
M  V30 5678 C 536.647 -0.630337 -1.84003 0
M  V30 5679 O 535.902 0.384883 -1.91878 0
M  V30 5680 C 536.201 -3.08772 -1.79985 0
M  V30 5681 C 535.867 -4.38532 -1.04882 0
M  V30 5682 C 534.529 -4.73787 -0.841393 0
M  V30 5683 C 536.881 -5.18609 -0.51907 0
M  V30 5684 C 534.209 -5.86627 -0.0924403 0
M  V30 5685 C 536.561 -6.32229 0.216581 0
M  V30 5686 C 535.225 -6.6608 0.435191 0
M  V30 5687 H 534.495 -0.657004 -0.342676 0
M  V30 5688 H 537.142 -1.9041 -0.204051 0
M  V30 5689 H 535.447 -2.93065 -2.60038 0
M  V30 5690 H 537.144 -3.24077 -2.36168 0
M  V30 5691 H 533.734 -4.10855 -1.22048 0
M  V30 5692 H 537.918 -4.91801 -0.666775 0
M  V30 5693 H 533.174 -6.11338 0.087081 0
M  V30 5694 H 537.348 -6.93503 0.634538 0
M  V30 5695 H 534.975 -7.5336 1.01746 0
M  V30 5696 N 536.55 0.480323 -1.50102 0
M  V30 5697 C 537.513 1.56181 -1.6775 0
M  V30 5698 C 538.513 1.51156 -0.548503 0
M  V30 5699 O 539.703 1.5394 -0.815363 0
M  V30 5700 C 536.835 2.95823 -1.69415 0
M  V30 5701 H 538.028 1.41855 -2.6423 0
M  V30 5702 H 535.581 0.70605 -1.39444 0
M  V30 5703 H 536.316 3.15604 -0.745948 0
M  V30 5704 H 536.101 3.00878 -2.51425 0
M  V30 5705 H 537.591 3.74359 -1.85054 0
M  V30 5706 N 538.028 1.39524 0.732853 0
M  V30 5707 C 539.277 1.36175 1.48792 0
M  V30 5708 C 539.59 -0.0388195 1.95561 0
M  V30 5709 O 540.796 -0.194899 2.708 0
M  V30 5710 C 539.252 2.39242 2.68871 0
M  V30 5711 C 538.86 3.85024 2.29042 0
M  V30 5712 C 540.604 2.44972 3.46683 0
M  V30 5713 C 538.511 4.79727 3.45856 0
M  V30 5714 H 537.441 0.506267 0.558757 0
M  V30 5715 H 540.092 1.65181 0.799226 0
M  V30 5716 H 538.474 2.0331 3.39825 0
M  V30 5717 H 539.648 4.30008 1.6562 0
M  V30 5718 H 537.963 3.82609 1.64316 0
M  V30 5719 H 540.56 3.12918 4.33574 0
M  V30 5720 H 540.903 1.4749 3.89297 0
M  V30 5721 H 541.436 2.79808 2.82759 0
M  V30 5722 H 538.175 5.78479 3.08289 0
M  V30 5723 H 537.695 4.39421 4.08251 0
M  V30 5724 H 539.374 4.98731 4.12161 0
M  V30 5725 N 539.506 -0.963266 1.24736 0
M  V30 5726 C 540.753 -1.7068 1.0897 0
M  V30 5727 C 541.081 -1.90934 -0.370751 0
M  V30 5728 O 540.336 -1.47155 -1.29011 0
M  V30 5729 C 540.635 -3.09944 1.7796 0
M  V30 5730 C 540.301 -3.09518 3.27887 0
M  V30 5731 C 538.963 -3.09109 3.68789 0
M  V30 5732 C 541.315 -3.03509 4.23712 0
M  V30 5733 C 538.643 -3.00429 5.03944 0
M  V30 5734 C 540.995 -2.96371 5.5888 0
M  V30 5735 C 539.659 -2.94293 5.99123 0
M  V30 5736 H 538.929 -0.624564 0.398749 0
M  V30 5737 H 541.576 -1.12603 1.54896 0
M  V30 5738 H 539.881 -3.71513 1.2444 0
M  V30 5739 H 541.578 -3.66278 1.63222 0
M  V30 5740 H 538.168 -3.10603 2.95337 0
M  V30 5741 H 542.352 -3.0295 3.93109 0
M  V30 5742 H 537.608 -2.97183 5.34314 0
M  V30 5743 H 541.782 -2.90681 6.32833 0
M  V30 5744 H 539.409 -2.87322 7.03811 0
M  V30 5745 N 540.985 -1.06182 -1.16461 0
M  V30 5746 C 542.21 -0.798599 -1.91408 0
M  V30 5747 C 542.635 0.640987 -1.76842 0
M  V30 5748 O 541.993 1.44652 -1.09296 0
M  V30 5749 C 542.041 -1.19665 -3.40165 0
M  V30 5750 O 541.145 -0.334768 -4.11039 0
M  V30 5751 H 540.486 -0.291961 -0.596368 0
M  V30 5752 H 543.016 -1.41732 -1.47557 0
M  V30 5753 H 543.026 -1.16772 -3.90933 0
M  V30 5754 H 541.701 -2.24526 -3.50087 0
M  V30 5755 H 540.278 -0.425168 -3.70468 0
M  V30 5756 N 542.463 1.3308 -0.844243 0
M  V30 5757 C 543.712 1.96868 -0.438833 0
M  V30 5758 C 544.025 1.67599 1.00846 0
M  V30 5759 O 545.231 2.25043 1.51881 0
M  V30 5760 C 543.687 3.5234 -0.73377 0
M  V30 5761 C 543.295 3.90481 -2.1961 0
M  V30 5762 C 545.039 4.22653 -0.395574 0
M  V30 5763 C 542.946 5.38954 -2.43481 0
M  V30 5764 H 541.876 0.736749 -0.160364 0
M  V30 5765 H 544.527 1.51623 -1.03358 0
M  V30 5766 H 542.909 3.95941 -0.068589 0
M  V30 5767 H 544.083 3.57922 -2.90221 0
M  V30 5768 H 542.398 3.33165 -2.4978 0
M  V30 5769 H 544.995 5.31848 -0.551477 0
M  V30 5770 H 545.338 4.11004 0.661921 0
M  V30 5771 H 545.871 3.84601 -1.01621 0
M  V30 5772 H 542.61 5.55612 -3.47816 0
M  V30 5773 H 542.13 5.72954 -1.77437 0
M  V30 5774 H 543.809 6.05907 -2.26905 0
M  V30 5775 N 543.941 0.601185 1.45683 0
M  V30 5776 C 544.871 -0.108824 2.33246 0
M  V30 5777 C 545.852 -0.865223 1.46451 0
M  V30 5778 O 547.037 -0.83704 1.75235 0
M  V30 5779 C 544.167 -1.11101 3.2905 0
M  V30 5780 C 543.121 -0.468244 4.25431 0
M  V30 5781 C 542.447 -1.57822 5.10878 0
M  V30 5782 C 543.747 0.606469 5.18767 0
M  V30 5783 H 545.441 0.622306 2.92861 0
M  V30 5784 H 542.987 0.300714 1.40825 0
M  V30 5785 H 544.94 -1.61622 3.89174 0
M  V30 5786 H 543.664 -1.87265 2.67581 0
M  V30 5787 H 542.323 0.0160484 3.66596 0
M  V30 5788 H 541.971 -2.32998 4.45781 0
M  V30 5789 H 541.671 -1.15369 5.76163 0
M  V30 5790 H 543.195 -2.08583 5.73869 0
M  V30 5791 H 544.609 0.185589 5.73 0
M  V30 5792 H 543.006 0.952381 5.92494 0
M  V30 5793 H 544.076 1.48559 4.61582 0
M  V30 5794 N 545.419 -1.53889 0.339982 0
M  V30 5795 C 546.667 -2.00458 -0.257112 0
M  V30 5796 C 546.988 -1.22953 -1.51353 0
M  V30 5797 O 546.258 -0.335734 -1.93002 0
M  V30 5798 H 544.838 -0.740544 -0.0979965 0
M  V30 5799 H 547.5 -1.89386 0.460317 0
M  V30 5800 H 546.596 -3.08035 -0.502057 0
M  V30 5801 N 546.897 -0.0685191 -1.57451 0
M  V30 5802 C 547.847 0.909895 -2.09057 0
M  V30 5803 C 548.831 1.26088 -0.999528 0
M  V30 5804 O 550.023 1.24041 -1.26265 0
M  V30 5805 C 547.152 2.17863 -2.65312 0
M  V30 5806 C 546.238 1.85427 -3.81415 0
M  V30 5807 N 546.629 1.23426 -4.9051 0
M  V30 5808 C 544.927 2.15196 -3.90649 0
M  V30 5809 C 545.628 1.09008 -5.71395 0
M  V30 5810 N 544.604 1.59871 -5.1956 0
M  V30 5811 H 548.406 0.426145 -2.90794 0
M  V30 5812 H 545.92 0.135462 -1.61834 0
M  V30 5813 H 547.917 2.88872 -3.00597 0
M  V30 5814 H 546.577 2.66829 -1.85021 0
M  V30 5815 H 547.588 0.904305 -5.09944 0
M  V30 5816 H 544.265 2.66562 -3.21327 0
M  V30 5817 H 545.655 0.607305 -6.6915 0
M  V30 5818 N 548.375 1.56261 0.205012 0
M  V30 5819 C 549.308 1.88797 1.28183 0
M  V30 5820 C 550.286 0.747018 1.44424 0
M  V30 5821 O 551.47 0.997039 1.59973 0
M  V30 5822 C 548.597 2.10949 2.64987 0
M  V30 5823 C 547.643 3.33649 2.6567 0
M  V30 5824 S 548.476 4.89078 2.18088 0
M  V30 5825 C 549.632 5.14286 3.56736 0
M  V30 5826 H 549.865 2.79837 1.00393 0
M  V30 5827 H 547.398 1.48911 0.408042 0
M  V30 5828 H 549.356 2.24395 3.4374 0
M  V30 5829 H 548.017 1.20678 2.89993 0
M  V30 5830 H 547.21 3.46245 3.66239 0
M  V30 5831 H 546.812 3.19146 1.94992 0
M  V30 5832 H 549.104 5.04198 4.52537 0
M  V30 5833 H 550.047 6.16096 3.49043 0
M  V30 5834 H 550.455 4.41957 3.51189 0
M  V30 5835 N 549.853 -0.472356 1.50355 0
M  V30 5836 C 550.816 -1.5529 1.68576 0
M  V30 5837 C 551.816 -1.50863 0.556511 0
M  V30 5838 O 553.006 -1.53505 0.823516 0
M  V30 5839 C 550.138 -2.94921 1.70981 0
M  V30 5840 H 551.331 -1.40451 2.64978 0
M  V30 5841 H 548.884 -0.698645 1.39816 0
M  V30 5842 H 549.619 -3.15204 0.762675 0
M  V30 5843 H 549.404 -2.99541 2.53017 0
M  V30 5844 H 550.894 -3.73372 1.87037 0
M  V30 5845 N 551.331 -1.39911 -0.725443 0
M  V30 5846 C 552.281 -1.35878 -1.83088 0
M  V30 5847 C 553.265 -0.237989 -1.5913 0
M  V30 5848 O 554.457 -0.476302 -1.70471 0
M  V30 5849 C 551.586 -1.21403 -3.21117 0
M  V30 5850 C 550.672 -2.38223 -3.50871 0
M  V30 5851 N 551.063 -3.63703 -3.51502 0
M  V30 5852 C 549.361 -2.31388 -3.81281 0
M  V30 5853 C 550.062 -4.4101 -3.79322 0
M  V30 5854 N 549.038 -3.7072 -3.97577 0
M  V30 5855 H 552.84 -2.3085 -1.81895 0
M  V30 5856 H 550.354 -1.33543 -0.924125 0
M  V30 5857 H 552.351 -1.16597 -4.00263 0
M  V30 5858 H 551.011 -0.273902 -3.23543 0
M  V30 5859 H 552.022 -3.96998 -3.32586 0
M  V30 5860 H 548.699 -1.45689 -3.91256 0
M  V30 5861 H 550.089 -5.49819 -3.86198 0
M  V30 5862 N 552.809 0.956637 -1.25245 0
M  V30 5863 C 554.058 1.69537 -1.0927 0
M  V30 5864 C 554.371 1.92136 0.366503 0
M  V30 5865 O 555.577 2.63687 0.64665 0
M  V30 5866 C 554.033 3.05211 -1.9072 0
M  V30 5867 C 553.641 2.90416 -3.41119 0
M  V30 5868 C 555.385 3.82882 -1.83308 0
M  V30 5869 C 553.292 4.21468 -4.14872 0
M  V30 5870 H 552.222 0.635804 -0.405302 0
M  V30 5871 H 554.873 1.06513 -1.49423 0
M  V30 5872 H 553.255 3.69128 -1.43389 0
M  V30 5873 H 554.429 2.35444 -3.9611 0
M  V30 5874 H 552.744 2.26203 -3.49602 0
M  V30 5875 H 555.341 4.79944 -2.35706 0
M  V30 5876 H 555.684 4.0853 -0.800572 0
M  V30 5877 H 556.217 3.25711 -2.28379 0
M  V30 5878 H 552.956 4.01009 -5.18529 0
M  V30 5879 H 552.476 4.76213 -3.64665 0
M  V30 5880 H 554.155 4.90022 -4.22478 0
M  V30 5881 N 554.287 1.06798 1.15896 0
M  V30 5882 C 555.512 0.808739 1.90982 0
M  V30 5883 C 555.937 -0.6316 1.77179 0
M  V30 5884 O 555.295 -1.4407 1.10061 0
M  V30 5885 C 555.343 1.21468 3.39526 0
M  V30 5886 O 554.447 0.356562 4.10856 0
M  V30 5887 H 553.788 0.29512 0.594811 0
M  V30 5888 H 556.318 1.42513 1.46804 0
M  V30 5889 H 556.328 1.18844 3.90308 0
M  V30 5890 H 555.003 2.26379 3.48891 0
M  V30 5891 H 553.58 0.444808 3.70238 0
M  V30 5892 N 555.766 -1.3263 0.851289 0
M  V30 5893 C 557.014 -1.96978 0.452128 0
M  V30 5894 C 557.335 -1.67715 -0.99482 0
M  V30 5895 O 556.605 -0.98259 -1.69476 0
M  V30 5896 H 555.185 -0.72873 0.164202 0
M  V30 5897 H 557.847 -1.61774 1.08698 0
M  V30 5898 H 556.943 -3.06387 0.594407 0
M  V30 5899 N 557.244 -0.608902 -1.45362 0
M  V30 5900 C 558.191 0.109172 -2.30542 0
M  V30 5901 C 559.161 0.858704 -1.42181 0
M  V30 5902 O 560.346 0.844178 -1.71109 0
M  V30 5903 C 557.486 1.09971 -3.27109 0
M  V30 5904 C 556.599 0.350911 -4.30572 0
M  V30 5905 C 555.734 1.33129 -5.14247 0
M  V30 5906 C 554.773 0.570377 -6.09437 0
M  V30 5907 N 553.91 1.5001 -6.85887 0
M  V30 5908 H 558.75 -0.623195 -2.91411 0
M  V30 5909 H 556.287 -0.319122 -1.43597 0
M  V30 5910 H 558.245 1.68714 -3.81564 0
M  V30 5911 H 556.875 1.79947 -2.67991 0
M  V30 5912 H 555.927 -0.352054 -3.78767 0
M  V30 5913 H 557.239 -0.242725 -4.98209 0
M  V30 5914 H 556.393 1.99074 -5.73109 0
M  V30 5915 H 555.132 1.95885 -4.46632 0
M  V30 5916 H 554.137 -0.102702 -5.49704 0
M  V30 5917 H 555.362 -0.0521607 -6.7908 0
M  V30 5918 H 553.308 2.11529 -6.2096 0
M  V30 5919 H 553.225 0.959934 -7.49881 0
M  V30 5920 H 554.493 2.14909 -7.49289 0
M  V30 5921 N 558.722 1.53707 -0.348139 0
M  V30 5922 C 559.632 2.28881 0.514857 0
M  V30 5923 C 560.648 1.34168 1.10793 0
M  V30 5924 O 561.824 1.6721 1.12262 0
M  V30 5925 C 558.889 3.05042 1.64774 0
M  V30 5926 C 557.95 4.15389 1.08398 0
M  V30 5927 C 557.183 4.87909 2.16287 0
M  V30 5928 O 557.406 4.60137 3.3709 0
M  V30 5929 O 556.34 5.74254 1.80323 0
M  V30 5930 H 560.166 3.03547 -0.0963699 0
M  V30 5931 H 557.751 1.48972 -0.113043 0
M  V30 5932 H 559.633 3.52656 2.30677 0
M  V30 5933 H 558.308 2.33228 2.24469 0
M  V30 5934 H 557.215 3.72068 0.389341 0
M  V30 5935 H 558.548 4.89318 0.531829 0
M  V30 5936 N 560.2 0.0768682 1.57412 0
M  V30 5937 C 561.446 -0.591961 1.93968 0
M  V30 5938 C 561.779 -1.68954 0.9575 0
M  V30 5939 O 561.054 -1.94496 -0.0124675 0
M  V30 5940 C 561.337 -1.16418 3.40762 0
M  V30 5941 C 561.19 -0.0728933 4.49741 0
M  V30 5942 C 562.509 -2.06814 3.88479 0
M  V30 5943 H 559.628 -0.213716 0.705333 0
M  V30 5944 H 562.27 0.14387 1.89455 0
M  V30 5945 H 560.42 -1.79128 3.4474 0
M  V30 5946 H 562.092 0.560446 4.57883 0
M  V30 5947 H 560.335 0.595859 4.29688 0
M  V30 5948 H 561.006 -0.513755 5.49604 0
M  V30 5949 H 563.482 -1.54033 3.8654 0
M  V30 5950 H 562.358 -2.43785 4.91793 0
M  V30 5951 H 562.619 -2.97844 3.26713 0
M  V30 5952 N 561.678 -1.56367 -0.196722 0
M  V30 5953 C 562.903 -1.84991 -0.937714 0
M  V30 5954 C 563.328 -0.660244 -1.76132 0
M  V30 5955 O 562.686 0.390967 -1.77034 0
M  V30 5956 C 562.734 -3.11828 -1.81096 0
M  V30 5957 O 561.838 -2.92266 -2.90955 0
M  V30 5958 H 561.179 -0.609193 -0.264159 0
M  V30 5959 H 563.709 -2.03595 -0.202529 0
M  V30 5960 H 563.719 -3.42579 -2.21594 0
M  V30 5961 H 562.394 -3.98037 -1.2058 0
M  V30 5962 H 560.971 -2.72809 -2.54224 0
M  V30 5963 N 563.156 0.464375 -1.50603 0
M  V30 5964 C 564.088 1.57916 -1.66118 0
M  V30 5965 C 565.101 1.53497 -0.54246 0
M  V30 5966 O 566.29 1.58763 -0.815877 0
M  V30 5967 C 563.39 2.96809 -1.63577 0
M  V30 5968 C 562.563 3.26026 -2.91592 0
M  V30 5969 C 561.622 4.44506 -2.81604 0
M  V30 5970 O 560.648 4.44484 -3.55559 0
M  V30 5971 N 561.85 5.46549 -1.95614 0
M  V30 5972 H 564.615 1.45022 -2.62276 0
M  V30 5973 H 562.176 0.652903 -1.48151 0
M  V30 5974 H 564.168 3.74048 -1.54499 0
M  V30 5975 H 562.738 3.03438 -0.751262 0
M  V30 5976 H 561.958 2.37337 -3.14746 0
M  V30 5977 H 563.246 3.42361 -3.76386 0
M  V30 5978 H 562.644 5.49391 -1.34854 0
M  V30 5979 H 561.201 6.22746 -1.92435 0
M  V30 5980 N 564.634 1.40294 0.718013 0
M  V30 5981 C 565.88 1.38645 1.48005 0
M  V30 5982 C 566.213 -0.0121202 1.94196 0
M  V30 5983 O 565.488 -0.980309 1.67989 0
M  V30 5984 C 565.771 2.37379 2.70782 0
M  V30 5985 C 565.624 3.8625 2.30501 0
M  V30 5986 C 566.943 2.33685 3.72933 0
M  V30 5987 H 564.062 0.504928 0.536858 0
M  V30 5988 H 566.704 1.71411 0.819649 0
M  V30 5989 H 564.854 2.09568 3.27129 0
M  V30 5990 H 566.526 4.24879 1.79655 0
M  V30 5991 H 564.769 4.02202 1.6253 0
M  V30 5992 H 565.44 4.50847 3.18498 0
M  V30 5993 H 567.916 2.58314 3.2621 0
M  V30 5994 H 566.792 3.0482 4.56482 0
M  V30 5995 H 567.053 1.34765 4.21059 0
M  V30 5996 N 566.112 -0.949982 1.2575 0
M  V30 5997 C 567.358 -1.69766 1.10938 0
M  V30 5998 C 567.691 -1.91056 -0.348028 0
M  V30 5999 O 566.966 -1.48488 -1.25625 0
M  V30 6000 C 567.249 -3.07779 1.86933 0
M  V30 6001 C 567.102 -2.9387 3.4053 0
M  V30 6002 C 568.421 -4.07749 1.65616 0
M  V30 6003 H 565.54 -0.616144 0.404396 0
M  V30 6004 H 568.182 -1.10394 1.54639 0
M  V30 6005 H 566.332 -3.58462 1.4979 0
M  V30 6006 H 568.004 -2.50476 3.87375 0
M  V30 6007 H 566.247 -2.29686 3.68004 0
M  V30 6008 H 566.918 -3.91719 3.88922 0
M  V30 6009 H 569.394 -3.65994 1.97959 0
M  V30 6010 H 568.27 -5.02348 2.21218 0
M  V30 6011 H 568.531 -4.38029 0.598595 0
M  V30 6012 N 567.59 -1.07411 -1.15328 0
M  V30 6013 C 568.537 -0.694995 -2.20087 0
M  V30 6014 C 569.507 0.313904 -1.63107 0
M  V30 6015 O 570.692 0.200216 -1.89747 0
M  V30 6016 C 567.832 -0.0996218 -3.44956 0
M  V30 6017 C 566.945 -1.16007 -4.16133 0
M  V30 6018 C 566.08 -0.529636 -5.28553 0
M  V30 6019 C 565.119 -1.57283 -5.91548 0
M  V30 6020 N 564.256 -0.964932 -6.95438 0
M  V30 6021 H 569.096 -1.5927 -2.51867 0
M  V30 6022 H 566.633 -0.796115 -1.23695 0
M  V30 6023 H 568.591 0.263197 -4.16369 0
M  V30 6024 H 567.221 0.761435 -3.13691 0
M  V30 6025 H 566.273 -1.64045 -3.4321 0
M  V30 6026 H 567.585 -1.95101 -4.59061 0
M  V30 6027 H 566.739 -0.114487 -6.06592 0
M  V30 6028 H 565.478 0.29307 -4.86819 0
M  V30 6029 H 564.483 -1.99775 -5.12221 0
M  V30 6030 H 565.708 -2.39783 -6.35359 0
M  V30 6031 H 563.654 -0.16314 -6.55797 0
M  V30 6032 H 563.571 -1.69311 -7.36797 0
M  V30 6033 H 564.839 -0.575305 -7.77374 0
M  V30 6034 N 569.068 1.32177 -0.85831 0
M  V30 6035 C 570.293 2.01847 -0.476718 0
M  V30 6036 C 570.718 1.64065 0.920021 0
M  V30 6037 O 570.076 0.843189 1.60499 0
M  V30 6038 C 570.124 3.55097 -0.627578 0
M  V30 6039 O 569.228 4.11012 0.338086 0
M  V30 6040 H 568.569 0.635907 -0.191099 0
M  V30 6041 H 571.099 1.68641 -1.15851 0
M  V30 6042 H 571.109 4.04718 -0.516476 0
M  V30 6043 H 569.784 3.81938 -1.64609 0
M  V30 6044 H 568.361 3.72451 0.182917 0
M  V30 6045 N 570.547 0.616602 1.45037 0
M  V30 6046 C 571.795 0.115103 2.01772 0
M  V30 6047 C 572.116 -1.2622 1.48639 0
M  V30 6048 O 571.386 -1.83563 0.684199 0
M  V30 6049 H 569.966 0.0395607 0.745952 0
M  V30 6050 H 572.628 0.800032 1.77723 0
M  V30 6051 H 571.724 0.0717274 3.12018 0
M  V30 6052 N 572.025 -1.5352 0.356285 0
M  V30 6053 C 573.272 -2.01117 -0.236303 0
M  V30 6054 C 573.6 -1.24381 -1.49531 0
M  V30 6055 O 572.855 -0.323057 -1.93015 0
M  V30 6056 C 573.154 -3.52607 -0.583369 0
M  V30 6057 C 572.82 -4.47151 0.58023 0
M  V30 6058 C 571.482 -4.72718 0.899528 0
M  V30 6059 C 573.834 -5.03137 1.36024 0
M  V30 6060 C 571.162 -5.51523 2.00098 0
M  V30 6061 C 573.514 -5.83145 2.45204 0
M  V30 6062 C 572.178 -6.07001 2.77679 0
M  V30 6063 H 571.448 -0.735938 -0.0864695 0
M  V30 6064 H 574.095 -1.85209 0.48683 0
M  V30 6065 H 572.4 -3.66413 -1.38739 0
M  V30 6066 H 574.097 -3.86901 -1.05397 0
M  V30 6067 H 570.687 -4.27394 0.321322 0
M  V30 6068 H 574.871 -4.83339 1.12682 0
M  V30 6069 H 570.127 -5.68229 2.25668 0
M  V30 6070 H 574.301 -6.25537 3.06067 0
M  V30 6071 H 571.928 -6.67851 3.63151 0
M  V30 6072 N 573.503 -0.0852151 -1.57369 0
M  V30 6073 C 574.78 0.622534 -1.85429 0
M  V30 6074 C 575.16 1.86962 -0.980229 0
M  V30 6075 O 574.508 2.28445 -0.0500219 0
M  V30 6076 C 574.718 0.947374 -3.35896 0
M  V30 6077 C 576.066 1.31509 -4.03721 0
M  V30 6078 O 577.09 1.03869 -3.40719 0
M  V30 6079 O 575.949 1.83231 -5.14868 0
M  V30 6080 H 573.043 0.310513 -0.766492 0
M  V30 6081 H 575.589 -0.117164 -1.69295 0
M  V30 6082 H 574.361 0.0622264 -3.91251 0
M  V30 6083 H 573.984 1.74338 -3.5734 0
M  V30 6084 N 574.981 1.5647 0.188427 0
M  V30 6085 C 575.911 1.98101 1.23606 0
M  V30 6086 C 576.892 0.853961 1.47111 0
M  V30 6087 O 578.077 1.11879 1.58735 0
M  V30 6088 C 575.207 2.32624 2.57882 0
M  V30 6089 C 574.161 3.48129 2.48978 0
M  V30 6090 C 573.487 3.68347 3.87588 0
M  V30 6091 C 574.787 4.82112 2.00911 0
M  V30 6092 H 576.481 2.85864 0.890068 0
M  V30 6093 H 574.027 1.37532 0.426714 0
M  V30 6094 H 575.98 2.60343 3.3136 0
M  V30 6095 H 574.704 1.41751 2.94235 0
M  V30 6096 H 573.363 3.20511 1.77956 0
M  V30 6097 H 573.011 2.74793 4.21305 0
M  V30 6098 H 572.711 4.46055 3.82503 0
M  V30 6099 H 574.235 3.98449 4.62678 0
M  V30 6100 H 575.649 5.08819 2.64151 0
M  V30 6101 H 574.046 5.63337 2.06814 0
M  V30 6102 H 575.116 4.75249 0.96262 0
M  V30 6103 N 576.459 -0.456382 1.50847 0
M  V30 6104 C 577.422 -1.53493 1.70213 0
M  V30 6105 C 578.422 -1.50264 0.572481 0
M  V30 6106 O 579.612 -1.52623 0.839751 0
M  V30 6107 C 576.744 -2.93091 1.741 0
M  V30 6108 H 577.937 -1.37633 2.66453 0
M  V30 6109 H 575.49 -0.683776 1.4055 0
M  V30 6110 H 576.225 -3.14378 0.796063 0
M  V30 6111 H 576.01 -2.9684 2.5618 0
M  V30 6112 H 577.5 -3.71368 1.90987 0
M  V30 6113 N 577.937 -1.40673 -0.710563 0
M  V30 6114 C 579.184 -1.39222 -1.47049 0
M  V30 6115 C 579.512 0.0037691 -1.945 0
M  V30 6116 O 578.767 0.989224 -1.68857 0
M  V30 6117 C 579.066 -2.33253 -2.70791 0
M  V30 6118 C 578.732 -3.80406 -2.42079 0
M  V30 6119 C 577.394 -4.20496 -2.33959 0
M  V30 6120 C 579.746 -4.73375 -2.18094 0
M  V30 6121 C 577.074 -5.51584 -1.99929 0
M  V30 6122 C 579.426 -6.04768 -1.85576 0
M  V30 6123 C 578.09 -6.43895 -1.75941 0
M  V30 6124 H 577.36 -0.509449 -0.538092 0
M  V30 6125 H 580.007 -1.73363 -0.81348 0
M  V30 6126 H 578.312 -1.92314 -3.41354 0
M  V30 6127 H 580.009 -2.29412 -3.28894 0
M  V30 6128 H 576.599 -3.48645 -2.49288 0
M  V30 6129 H 580.783 -4.43217 -2.23321 0
M  V30 6130 H 576.039 -5.80797 -1.91011 0
M  V30 6131 H 580.213 -6.76318 -1.66033 0
M  V30 6132 H 577.84 -7.45387 -1.4934 0
M  V30 6133 N 579.415 0.9433 -1.26252 0
M  V30 6134 C 580.664 1.68369 -1.11062 0
M  V30 6135 C 580.977 1.92514 0.346104 0
M  V30 6136 O 582.183 2.64358 0.618646 0
M  V30 6137 C 580.639 3.03171 -1.93946 0
M  V30 6138 C 580.247 2.86782 -3.4418 0
M  V30 6139 C 581.991 3.80916 -1.87359 0
M  V30 6140 C 579.898 4.17044 -4.19319 0
M  V30 6141 H 578.828 0.631469 -0.412023 0
M  V30 6142 H 581.479 1.04922 -1.50544 0
M  V30 6143 H 579.861 3.67587 -1.47296 0
M  V30 6144 H 581.035 2.31229 -3.98585 0
M  V30 6145 H 579.35 2.22482 -3.51981 0
M  V30 6146 H 581.947 4.77417 -2.40784 0
M  V30 6147 H 582.29 4.07658 -0.843857 0
M  V30 6148 H 582.823 3.2327 -2.31821 0
M  V30 6149 H 579.562 3.95487 -5.22753 0
M  V30 6150 H 579.082 4.72319 -3.69696 0
M  V30 6151 H 580.761 4.85513 -4.27651 0
M  V30 6152 N 580.893 1.08022 1.14757 0
M  V30 6153 C 581.856 0.71048 2.1791 0
M  V30 6154 C 582.856 -0.252731 1.58801 0
M  V30 6155 O 584.046 -0.0327915 1.74169 0
M  V30 6156 C 581.178 0.0483203 3.40866 0
M  V30 6157 H 582.371 1.62384 2.52134 0
M  V30 6158 H 579.924 0.877595 1.29337 0
M  V30 6159 H 580.659 -0.876959 3.12218 0
M  V30 6160 H 580.444 0.741189 3.85031 0
M  V30 6161 H 581.934 -0.195471 4.17142 0
M  V30 6162 N 582.371 -1.3172 0.865308 0
M  V30 6163 C 583.601 -2.00765 0.487543 0
M  V30 6164 C 584.009 -1.65145 -0.92325 0
M  V30 6165 O 583.352 -0.874294 -1.61561 0
M  V30 6166 C 583.414 -3.55122 0.559369 0
M  V30 6167 C 583.078 -4.14202 1.93095 0
M  V30 6168 C 584.075 -4.3165 2.89784 0
M  V30 6169 C 581.76 -4.50036 2.23099 0
M  V30 6170 C 583.754 -4.84114 4.14623 0
M  V30 6171 C 581.441 -5.02203 3.48189 0
M  V30 6172 C 582.439 -5.19192 4.43767 0
M  V30 6173 O 582.127 -5.70241 5.6664 0
M  V30 6174 H 581.859 -0.649066 0.188915 0
M  V30 6175 H 584.413 -1.69032 1.16694 0
M  V30 6176 H 582.643 -3.86295 -0.176926 0
M  V30 6177 H 584.332 -4.05428 0.195694 0
M  V30 6178 H 585.098 -4.04288 2.6791 0
M  V30 6179 H 580.977 -4.36091 1.49485 0
M  V30 6180 H 584.521 -4.9729 4.89233 0
M  V30 6181 H 580.418 -5.28997 3.69908 0
M  V30 6182 H 581.186 -5.88617 5.68746 0
M  V30 6183 N 583.85 -0.624285 -1.44708 0
M  V30 6184 C 585.26 -0.2092 -1.85524 0
M  V30 6185 C 585.611 1.23783 -1.52225 0
M  V30 6186 O 584.736 1.94089 -0.956986 0
M  V30 6187 C 585.332 -0.372897 -3.36742 0
M  V30 6188 C 583.891 -0.012374 -3.76398 0
M  V30 6189 C 583.038 -0.68951 -2.68591 0
M  V30 6190 H 585.989 -0.829894 -1.35272 0
M  V30 6191 H 586.01 0.390134 -3.78495 0
M  V30 6192 H 585.522 -1.42615 -3.60947 0
M  V30 6193 H 583.623 1.03941 -3.57809 0
M  V30 6194 H 583.736 -0.417663 -4.77276 0
M  V30 6195 H 582.1 -0.125484 -2.54391 0
M  V30 6196 H 582.883 -1.74522 -2.9563 0
M  V30 6197 N 585.328 1.53329 -0.364422 0
M  V30 6198 C 586.238 2.29414 0.490552 0
M  V30 6199 C 587.254 1.35335 1.09363 0
M  V30 6200 O 588.43 1.68391 1.10483 0
M  V30 6201 C 585.495 3.06772 1.61529 0
M  V30 6202 C 584.556 4.16516 1.03986 0
M  V30 6203 C 583.789 4.90176 2.111 0
M  V30 6204 O 584.012 4.63687 3.32191 0
M  V30 6205 O 582.946 5.76134 1.74222 0
M  V30 6206 H 586.772 3.03428 -0.12856 0
M  V30 6207 H 584.357 1.48843 -0.128837 0
M  V30 6208 H 586.239 3.55082 2.26924 0
M  V30 6209 H 584.914 2.35596 2.21983 0
M  V30 6210 H 583.821 3.7246 0.349856 0
M  V30 6211 H 585.154 4.89855 0.4799 0
M  V30 6212 N 586.806 0.0935595 1.57322 0
M  V30 6213 C 587.769 -0.851426 2.12799 0
M  V30 6214 C 588.769 -1.21187 1.0569 0
M  V30 6215 O 589.959 -1.14156 1.31583 0
M  V30 6216 C 587.091 -2.14779 2.64731 0
M  V30 6217 H 588.284 -0.369733 2.97612 0
M  V30 6218 H 585.837 -0.155417 1.55525 0
M  V30 6219 H 586.572 -2.67437 1.83434 0
M  V30 6220 H 586.357 -1.89907 3.43042 0
M  V30 6221 H 587.847 -2.82383 3.07651 0
M  V30 6222 N 588.284 -1.56567 -0.180126 0
M  V30 6223 C 589.214 -1.98753 -1.22553 0
M  V30 6224 C 590.195 -0.86175 -1.46656 0
M  V30 6225 O 591.38 -1.12719 -1.58139 0
M  V30 6226 C 588.51 -2.33988 -2.56645 0
M  V30 6227 C 587.464 -3.49445 -2.47128 0
M  V30 6228 C 586.79 -3.70397 -3.8563 0
M  V30 6229 C 588.09 -4.83171 -1.98352 0
M  V30 6230 H 589.784 -2.86332 -0.874896 0
M  V30 6231 H 587.33 -1.37757 -0.419414 0
M  V30 6232 H 589.283 -2.62097 -3.29974 0
M  V30 6233 H 588.007 -1.43309 -2.93479 0
M  V30 6234 H 586.666 -3.2145 -1.76254 0
M  V30 6235 H 586.314 -2.77023 -4.19842 0
M  V30 6236 H 586.014 -4.48077 -3.80132 0
M  V30 6237 H 587.538 -4.00897 -4.60558 0
M  V30 6238 H 588.952 -5.10213 -2.61449 0
M  V30 6239 H 587.349 -5.64425 -2.03823 0
M  V30 6240 H 588.419 -4.75753 -0.937402 0
M  V30 6241 N 589.762 0.448376 -1.51087 0
M  V30 6242 C 590.725 1.52588 -1.71025 0
M  V30 6243 C 591.725 1.49958 -0.580442 0
M  V30 6244 O 592.915 1.52176 -0.847833 0
M  V30 6245 C 590.047 2.92163 -1.75652 0
M  V30 6246 H 591.24 1.36218 -2.67179 0
M  V30 6247 H 588.793 0.676313 -1.4091 0
M  V30 6248 H 589.528 3.13951 -0.812724 0
M  V30 6249 H 589.313 2.95478 -2.57751 0
M  V30 6250 H 590.803 3.70349 -1.92953 0
M  V30 6251 N 591.24 1.41047 0.703093 0
M  V30 6252 C 592.172 1.38228 1.82827 0
M  V30 6253 C 593.185 0.285637 1.60275 0
M  V30 6254 O 594.374 0.54685 1.69917 0
M  V30 6255 C 591.474 1.13136 3.19458 0
M  V30 6256 C 590.647 2.34695 3.69103 0
M  V30 6257 C 589.706 2.05574 4.84382 0
M  V30 6258 O 588.732 2.78549 4.96386 0
M  V30 6259 N 589.934 1.04135 5.71083 0
M  V30 6260 H 592.699 2.35203 1.85741 0
M  V30 6261 H 590.26 1.35562 0.885125 0
M  V30 6262 H 592.252 0.916183 3.94193 0
M  V30 6263 H 590.822 0.247836 3.11616 0
M  V30 6264 H 590.042 2.71963 2.85359 0
M  V30 6265 H 591.33 3.15705 3.99009 0
M  V30 6266 H 590.728 0.43722 5.64008 0
M  V30 6267 H 589.285 0.886078 6.45749 0
M  V30 6268 N 592.718 -0.936591 1.26751 0
M  V30 6269 C 593.648 -2.05315 1.11212 0
M  V30 6270 C 594.629 -1.70092 0.0160262 0
M  V30 6271 O 595.814 -1.93279 0.188894 0
M  V30 6272 C 592.944 -3.39123 0.749171 0
M  V30 6273 C 591.898 -3.88425 1.79751 0
M  V30 6274 C 591.224 -5.18936 1.28876 0
M  V30 6275 C 592.524 -4.12798 3.19992 0
M  V30 6276 H 594.218 -2.18573 2.04613 0
M  V30 6277 H 591.764 -1.05027 0.985159 0
M  V30 6278 H 593.717 -4.16704 0.627323 0
M  V30 6279 H 592.441 -3.25855 -0.220543 0
M  V30 6280 H 591.1 -3.13028 1.90811 0
M  V30 6281 H 590.748 -5.02051 0.308757 0
M  V30 6282 H 590.448 -5.52892 1.98958 0
M  V30 6283 H 591.972 -5.99096 1.17967 0
M  V30 6284 H 593.386 -4.80977 3.11983 0
M  V30 6285 H 591.783 -4.58044 3.87705 0
M  V30 6286 H 592.853 -3.18412 3.65707 0
M  V30 6287 N 594.196 -1.08629 -1.14182 0
M  V30 6288 C 595.607 -0.838003 -1.66836 0
M  V30 6289 C 595.958 0.634885 -1.85644 0
M  V30 6290 O 595.083 1.49008 -1.56926 0
M  V30 6291 C 595.678 -1.51465 -3.03058 0
M  V30 6292 C 594.237 -1.31355 -3.52736 0
M  V30 6293 C 593.384 -1.57599 -2.28162 0
M  V30 6294 H 596.335 -1.24656 -0.982165 0
M  V30 6295 H 596.356 -0.943134 -3.68626 0
M  V30 6296 H 595.868 -2.58661 -2.89337 0
M  V30 6297 H 593.969 -0.262384 -3.71675 0
M  V30 6298 H 594.082 -2.04275 -4.33369 0
M  V30 6299 H 592.446 -0.997659 -2.34348 0
M  V30 6300 H 593.229 -2.66006 -2.17015 0
M  V30 6301 N 595.674 1.31259 -0.872281 0
M  V30 6302 C 596.922 1.96233 -0.483409 0
M  V30 6303 C 597.243 1.69276 0.968012 0
M  V30 6304 O 596.513 1.00943 1.67891 0
M  V30 6305 H 595.093 0.726025 -0.175774 0
M  V30 6306 H 597.755 1.60024 -1.11258 0
M  V30 6307 H 596.851 3.05403 -0.643075 0
M  V30 6308 N 597.152 0.631951 1.44375 0
M  V30 6309 C 598.4 0.136497 2.01639 0
M  V30 6310 C 598.721 -1.24637 1.49969 0
M  V30 6311 O 597.991 -1.82827 0.70363 0
M  V30 6312 H 596.571 0.0474703 0.74549 0
M  V30 6313 H 599.233 0.818837 1.76865 0
M  V30 6314 H 598.329 0.104817 3.11924 0
M  V30 6315 N 598.631 -1.53133 0.372548 0
M  V30 6316 C 600.042 -1.86404 -0.105155 0
M  V30 6317 C 600.393 -1.29289 -1.47576 0
M  V30 6318 O 599.518 -0.617646 -2.07398 0
M  V30 6319 C 600.113 -3.38223 -0.197588 0
M  V30 6320 C 598.672 -3.71266 -0.619556 0
M  V30 6321 C 597.819 -2.76353 0.228919 0
M  V30 6322 H 600.77 -1.47282 0.591077 0
M  V30 6323 H 600.791 -3.66577 -1.01987 0
M  V30 6324 H 600.303 -3.79763 0.800099 0
M  V30 6325 H 598.404 -3.35287 -1.62522 0
M  V30 6326 H 598.517 -4.77515 -0.389332 0
M  V30 6327 H 596.881 -2.52888 -0.303271 0
M  V30 6328 H 597.664 -3.20728 1.22428 0
M  V30 6329 N 600.109 -0.101901 -1.5727 0
M  V30 6330 C 601.356 0.560197 -1.94597 0
M  V30 6331 C 601.684 1.67767 -0.984101 0
M  V30 6332 O 600.939 1.95699 -0.00489193 0
M  V30 6333 C 601.238 1.14898 -3.38427 0
M  V30 6334 C 600.904 0.154613 -4.50635 0
M  V30 6335 C 599.566 -0.118861 -4.81053 0
M  V30 6336 C 601.918 -0.523979 -5.18559 0
M  V30 6337 C 599.246 -1.0775 -5.76721 0
M  V30 6338 C 601.598 -1.47114 -6.15256 0
M  V30 6339 C 600.262 -1.75278 -6.44076 0
M  V30 6340 H 599.532 0.204991 -0.712081 0
M  V30 6341 H 602.179 -0.17918 -1.9066 0
M  V30 6342 H 600.484 1.96476 -3.38976 0
M  V30 6343 H 602.181 1.66909 -3.64613 0
M  V30 6344 H 598.771 0.377948 -4.2693 0
M  V30 6345 H 602.955 -0.325851 -4.95229 0
M  V30 6346 H 598.211 -1.30263 -5.97362 0
M  V30 6347 H 602.385 -2.00274 -6.66981 0
M  V30 6348 H 600.012 -2.49717 -7.18015 0
M  V30 6349 N 601.587 1.56661 0.17182 0
M  V30 6350 C 602.833 1.8313 0.88516 0
M  V30 6351 C 603.188 0.682376 1.79893 0
M  V30 6352 O 602.481 -0.321215 1.88888 0
M  V30 6353 C 602.675 3.13435 1.71736 0
M  V30 6354 C 602.504 4.40892 0.885659 0
M  V30 6355 C 601.274 5.02177 0.560939 0
M  V30 6356 C 603.472 5.13797 0.227454 0
M  V30 6357 N 601.454 6.13229 -0.286953 0
M  V30 6358 C 602.825 6.18127 -0.481625 0
M  V30 6359 C 604.88 4.97687 0.145567 0
M  V30 6360 C 603.583 7.08092 -1.26482 0
M  V30 6361 C 605.609 5.88096 -0.624298 0
M  V30 6362 C 604.971 6.91888 -1.32174 0
M  V30 6363 H 601.07 0.721107 0.302536 0
M  V30 6364 H 603.654 1.94104 0.152178 0
M  V30 6365 H 601.825 3.03653 2.42176 0
M  V30 6366 H 603.557 3.27903 2.37196 0
M  V30 6367 H 600.312 4.65145 0.890902 0
M  V30 6368 H 600.736 6.73359 -0.701193 0
M  V30 6369 H 605.378 4.17451 0.670426 0
M  V30 6370 H 603.096 7.87774 -1.80103 0
M  V30 6371 H 606.682 5.77702 -0.689321 0
M  V30 6372 H 605.562 7.60637 -1.90791 0
M  V30 6373 N 603.065 -0.440357 1.51323 0
M  V30 6374 C 604.29 -1.21716 1.67928 0
M  V30 6375 C 604.715 -1.84328 0.374826 0
M  V30 6376 O 604.073 -1.68675 -0.664706 0
M  V30 6377 C 604.121 -2.27914 2.79442 0
M  V30 6378 O 603.225 -3.33325 2.42834 0
M  V30 6379 H 602.566 -0.35674 0.560029 0
M  V30 6380 H 605.096 -0.520417 1.97871 0
M  V30 6381 H 605.106 -2.72746 3.03436 0
M  V30 6382 H 603.781 -1.8172 3.741 0
M  V30 6383 H 602.358 -2.9399 2.294 0
M  V30 6384 N 604.543 -1.41418 -0.695603 0
M  V30 6385 C 605.792 -1.40073 -1.4513 0
M  V30 6386 C 606.105 -0.0130439 -1.95596 0
M  V30 6387 O 607.311 0.123032 -2.71221 0
M  V30 6388 C 605.767 -2.46286 -2.62433 0
M  V30 6389 C 605.375 -3.90962 -2.18753 0
M  V30 6390 C 607.119 -2.54077 -3.40066 0
M  V30 6391 C 605.026 -4.88728 -3.33015 0
M  V30 6392 H 603.956 -0.520903 -0.545138 0
M  V30 6393 H 606.607 -1.67242 -0.75515 0
M  V30 6394 H 604.989 -2.12248 -3.34315 0
M  V30 6395 H 606.163 -4.34248 -1.54161 0
M  V30 6396 H 604.478 -3.86831 -1.54114 0
M  V30 6397 H 607.075 -3.24303 -4.25125 0
M  V30 6398 H 607.418 -1.5776 -3.8525 0
M  V30 6399 H 607.951 -2.87206 -2.75241 0
M  V30 6400 H 604.69 -5.86449 -2.92844 0
M  V30 6401 H 604.21 -4.50091 -3.96457 0
M  V30 6402 H 605.889 -5.09483 -3.98793 0
M  V30 6403 N 606.021 0.929856 -1.27246 0
M  V30 6404 C 606.951 2.04722 -1.12299 0
M  V30 6405 C 607.932 1.70082 -0.0250464 0
M  V30 6406 O 609.117 1.93176 -0.199141 0
M  V30 6407 C 606.247 3.38721 -0.767145 0
M  V30 6408 C 605.201 3.87466 -1.81808 0
M  V30 6409 C 604.527 5.18246 -1.31626 0
M  V30 6410 C 605.827 4.11095 -3.22177 0
M  V30 6411 H 607.521 2.17485 -2.05769 0
M  V30 6412 H 605.067 1.04503 -0.990715 0
M  V30 6413 H 607.02 4.16366 -0.649413 0
M  V30 6414 H 605.744 3.25967 0.203259 0
M  V30 6415 H 604.403 3.12012 -1.92468 0
M  V30 6416 H 604.051 5.01881 -0.335378 0
M  V30 6417 H 603.751 5.51829 -2.01887 0
M  V30 6418 H 605.275 5.98462 -1.21143 0
M  V30 6419 H 606.689 4.79316 -3.1453 0
M  V30 6420 H 605.086 4.55982 -3.90129 0
M  V30 6421 H 606.156 3.16468 -3.67391 0
M  V30 6422 N 607.499 1.09233 1.13605 0
M  V30 6423 C 608.746 0.827159 1.84836 0
M  V30 6424 C 609.074 -0.647199 1.83416 0
M  V30 6425 O 608.329 -1.49228 1.26608 0
M  V30 6426 C 608.628 1.305 3.32723 0
M  V30 6427 C 608.294 2.78864 3.54325 0
M  V30 6428 C 606.956 3.19382 3.59928 0
M  V30 6429 C 609.308 3.74532 3.62457 0
M  V30 6430 C 606.636 4.54346 3.71196 0
M  V30 6431 C 608.988 5.09283 3.75252 0
M  V30 6432 C 607.652 5.49394 3.79108 0
M  V30 6433 H 606.922 0.302679 0.676363 0
M  V30 6434 H 609.569 1.36676 1.34134 0
M  V30 6435 H 607.874 0.68517 3.85762 0
M  V30 6436 H 609.571 1.07648 3.86281 0
M  V30 6437 H 606.161 2.46507 3.50617 0
M  V30 6438 H 610.345 3.44343 3.57409 0
M  V30 6439 H 605.601 4.84864 3.72447 0
M  V30 6440 H 609.775 5.83269 3.80487 0
M  V30 6441 H 607.402 6.5397 3.87591 0
M  V30 6442 N 608.977 -1.30795 0.87923 0
M  V30 6443 C 610.224 -1.96362 0.494786 0
M  V30 6444 C 610.552 -1.69448 -0.954868 0
M  V30 6445 O 609.807 -0.988711 -1.68888 0
M  V30 6446 C 610.106 -3.50287 0.709476 0
M  V30 6447 C 609.772 -3.9724 2.13333 0
M  V30 6448 C 608.434 -4.09772 2.52271 0
M  V30 6449 C 610.786 -4.21807 3.06151 0
M  V30 6450 C 608.114 -4.44227 3.83248 0
M  V30 6451 C 610.466 -4.5773 4.36654 0
M  V30 6452 C 609.13 -4.68469 4.75492 0
M  V30 6453 H 608.4 -0.71854 0.181055 0
M  V30 6454 H 611.047 -1.55764 1.11399 0
M  V30 6455 H 609.352 -3.91799 0.0072 0
M  V30 6456 H 611.049 -3.99082 0.391703 0
M  V30 6457 H 607.639 -3.87988 1.82107 0
M  V30 6458 H 611.823 -4.11611 2.77291 0
M  V30 6459 H 607.079 -4.50741 4.13089 0
M  V30 6460 H 611.253 -4.7569 5.08617 0
M  V30 6461 H 608.88 -4.94923 5.77022 0
M  V30 6462 N 610.455 -0.639598 -1.44038 0
M  V30 6463 C 611.702 -0.14748 -2.01962 0
M  V30 6464 C 612.03 1.23372 -1.50365 0
M  V30 6465 O 611.285 1.8345 -0.681501 0
M  V30 6466 C 611.584 -0.0925348 -3.5728 0
M  V30 6467 C 611.25 -1.41365 -4.28167 0
M  V30 6468 C 609.912 -1.77545 -4.47248 0
M  V30 6469 C 612.264 -2.2853 -4.68427 0
M  V30 6470 C 609.592 -3.00583 -5.03852 0
M  V30 6471 C 611.944 -3.50846 -5.26393 0
M  V30 6472 C 610.608 -3.8724 -5.43692 0
M  V30 6473 H 609.878 -0.0539666 -0.739032 0
M  V30 6474 H 612.525 -0.827599 -1.72694 0
M  V30 6475 H 610.83 0.670987 -3.86012 0
M  V30 6476 H 612.527 0.304891 -3.99839 0
M  V30 6477 H 609.117 -1.1221 -4.13651 0
M  V30 6478 H 613.301 -2.0187 -4.5339 0
M  V30 6479 H 608.557 -3.28846 -5.15432 0
M  V30 6480 H 612.731 -4.18616 -5.56537 0
M  V30 6481 H 610.358 -4.8266 -5.87319 0
M  V30 6482 N 611.933 1.52934 -0.380664 0
M  V30 6483 C 612.866 2.22597 0.502564 0
M  V30 6484 C 613.844 1.22345 1.071 0
M  V30 6485 O 615.028 1.51302 1.12428 0
M  V30 6486 C 612.155 2.93246 1.69482 0
M  V30 6487 C 611.201 4.07696 1.25244 0
M  V30 6488 S 612.034 5.34957 0.241159 0
M  V30 6489 C 613.19 6.09124 1.4394 0
M  V30 6490 H 613.423 2.97167 -0.089029 0
M  V30 6491 H 610.956 1.53518 -0.164817 0
M  V30 6492 H 612.914 3.34562 2.37863 0
M  V30 6493 H 611.575 2.18373 2.2577 0
M  V30 6494 H 610.768 4.56199 2.1424 0
M  V30 6495 H 610.37 3.68349 0.647664 0
M  V30 6496 H 612.662 6.34771 2.36794 0
M  V30 6497 H 613.605 7.01068 0.995464 0
M  V30 6498 H 614.013 5.39777 1.65229 0
M  V30 6499 N 613.412 0.11024 1.57214 0
M  V30 6500 C 614.342 -0.840002 2.17867 0
M  V30 6501 C 615.323 -1.28352 1.11624 0
M  V30 6502 O 616.508 -1.3477 1.39824 0
M  V30 6503 C 613.638 -2.09349 2.77111 0
M  V30 6504 C 612.592 -1.78807 3.8886 0
M  V30 6505 C 611.918 -3.11112 4.34872 0
M  V30 6506 C 613.218 -1.0632 5.11364 0
M  V30 6507 H 614.912 -0.334608 2.97524 0
M  V30 6508 H 612.458 -0.159502 1.43114 0
M  V30 6509 H 614.411 -2.76275 3.18198 0
M  V30 6510 H 613.135 -2.62198 1.9473 0
M  V30 6511 H 611.794 -1.14273 3.48335 0
M  V30 6512 H 611.442 -3.61877 3.49362 0
M  V30 6513 H 611.142 -2.91453 5.10224 0
M  V30 6514 H 612.666 -3.79171 4.78604 0
M  V30 6515 H 614.08 -1.63383 5.49526 0
M  V30 6516 H 612.477 -0.967876 5.92243 0
M  V30 6517 H 613.547 -0.0484569 4.84876 0
M  V30 6518 N 614.89 -1.56749 -0.16351 0
M  V30 6519 C 615.82 -2.00042 -1.20438 0
M  V30 6520 C 616.801 -0.877256 -1.45733 0
M  V30 6521 O 617.986 -1.1439 -1.56935 0
M  V30 6522 C 615.116 -2.36697 -2.54149 0
M  V30 6523 C 614.07 -3.52046 -2.43408 0
M  V30 6524 C 613.396 -3.74466 -3.81679 0
M  V30 6525 C 614.696 -4.85247 -1.93216 0
M  V30 6526 H 616.39 -2.87244 -0.844477 0
M  V30 6527 H 613.936 -1.38194 -0.40478 0
M  V30 6528 H 615.889 -2.65582 -3.27176 0
M  V30 6529 H 614.613 -1.46414 -2.91943 0
M  V30 6530 H 613.272 -3.23301 -1.72834 0
M  V30 6531 H 612.92 -2.81461 -4.1688 0
M  V30 6532 H 612.62 -4.52084 -3.75359 0
M  V30 6533 H 614.144 -4.0576 -4.5628 0
M  V30 6534 H 615.558 -5.12957 -2.56023 0
M  V30 6535 H 613.955 -5.66556 -1.97825 0
M  V30 6536 H 615.025 -4.7672 -0.88689 0
M  V30 6537 N 616.368 0.432326 -1.51554 0
M  V30 6538 C 617.596 1.20364 -1.68286 0
M  V30 6539 C 618.011 1.84888 -0.38233 0
M  V30 6540 O 617.368 1.70924 0.639627 0
M  V30 6541 C 617.419 2.28398 -2.80208 0
M  V30 6542 O 617.14 1.66512 -4.05223 0
M  V30 6543 C 618.641 3.18584 -3.08251 0
M  V30 6544 H 615.861 0.36259 -0.564596 0
M  V30 6545 H 618.405 0.511647 -1.97996 0
M  V30 6546 H 616.56 2.93305 -2.53083 0
M  V30 6547 H 616.974 2.37951 -4.67418 0
M  V30 6548 H 618.448 3.90511 -3.90135 0
M  V30 6549 H 618.925 3.79628 -2.2086 0
M  V30 6550 H 619.531 2.59372 -3.37055 0
M  V30 6551 N 617.846 1.41785 0.688094 0
M  V30 6552 C 618.776 1.47 1.8142 0
M  V30 6553 C 619.757 0.327881 1.6691 0
M  V30 6554 O 620.942 0.540362 1.86531 0
M  V30 6555 C 618.072 1.35876 3.19617 0
M  V30 6556 C 617.026 2.47976 3.48844 0
M  V30 6557 C 616.352 2.21915 4.86475 0
M  V30 6558 C 617.652 3.90309 3.47068 0
M  V30 6559 H 619.346 2.41247 1.77314 0
M  V30 6560 H 616.892 1.16116 0.851651 0
M  V30 6561 H 618.845 1.38134 3.98117 0
M  V30 6562 H 617.569 0.38116 3.24368 0
M  V30 6563 H 616.228 2.45013 2.72698 0
M  V30 6564 H 615.876 1.2248 4.8786 0
M  V30 6565 H 615.576 2.97037 5.06994 0
M  V30 6566 H 617.1 2.25901 5.67275 0
M  V30 6567 H 618.514 3.94947 4.1556 0
M  V30 6568 H 616.911 4.65175 3.7912 0
M  V30 6569 H 617.981 4.17927 2.45896 0
M  V30 6570 N 619.324 -0.923095 1.27737 0
M  V30 6571 C 620.572 -1.66797 1.14119 0
M  V30 6572 C 620.893 -1.92479 -0.312541 0
M  V30 6573 O 620.163 -1.53432 -1.218 0
M  V30 6574 H 618.743 -0.618196 0.419336 0
M  V30 6575 H 621.405 -1.10815 1.60331 0
M  V30 6576 H 620.501 -2.63424 1.67374 0
M  V30 6577 N 620.802 -1.09834 -1.13024 0
M  V30 6578 C 621.732 -0.763451 -2.20666 0
M  V30 6579 C 622.713 0.260778 -1.68089 0
M  V30 6580 O 623.898 0.127915 -1.93778 0
M  V30 6581 C 621.028 -0.187744 -3.46792 0
M  V30 6582 C 619.982 -1.14196 -4.12484 0
M  V30 6583 C 619.308 -0.427755 -5.32986 0
M  V30 6584 C 620.608 -2.48607 -4.59338 0
M  V30 6585 H 622.302 -1.66347 -2.48936 0
M  V30 6586 H 619.848 -0.801261 -1.19649 0
M  V30 6587 H 621.801 0.0586375 -4.21359 0
M  V30 6588 H 620.525 0.747485 -3.17931 0
M  V30 6589 H 619.184 -1.37369 -3.3989 0
M  V30 6590 H 618.832 0.511747 -5.0039 0
M  V30 6591 H 618.532 -1.06403 -5.77886 0
M  V30 6592 H 620.056 -0.189772 -6.10305 0
M  V30 6593 H 621.47 -2.29618 -5.25308 0
M  V30 6594 H 619.867 -3.08062 -5.14993 0
M  V30 6595 H 620.937 -3.09062 -3.73642 0
M  V30 6596 N 622.28 1.30327 -0.886154 0
M  V30 6597 C 623.557 1.90922 -0.425217 0
M  V30 6598 C 623.937 1.80533 1.09413 0
M  V30 6599 O 623.285 1.2233 1.92996 0
M  V30 6600 C 623.495 3.36529 -0.924638 0
M  V30 6601 C 624.843 4.13598 -0.960305 0
M  V30 6602 O 625.867 3.45377 -0.871382 0
M  V30 6603 O 624.726 5.35482 -1.09184 0
M  V30 6604 H 621.82 0.81668 -0.130238 0
M  V30 6605 H 624.366 1.38886 -0.975132 0
M  V30 6606 H 623.138 3.38181 -1.96849 0
M  V30 6607 H 622.761 3.96021 -0.353955 0
M  V30 6608 N 623.758 0.647228 1.43697 0
M  V30 6609 C 624.983 0.164083 2.0675 0
M  V30 6610 C 625.408 -1.15892 1.48158 0
M  V30 6611 O 624.766 -1.71459 0.589194 0
M  V30 6612 C 624.814 0.0800368 3.60511 0
M  V30 6613 O 623.918 -0.959453 4.01084 0
M  V30 6614 H 623.259 0.0921288 0.657578 0
M  V30 6615 H 625.789 0.88846 1.84303 0
M  V30 6616 H 625.799 -0.105263 4.07864 0
M  V30 6617 H 624.474 1.04586 4.02535 0
M  V30 6618 H 623.051 -0.747425 3.65333 0
M  V30 6619 N 625.236 -1.5273 0.388769 0
M  V30 6620 C 626.168 -2.24081 -0.481704 0
M  V30 6621 C 627.181 -1.26307 -1.02715 0
M  V30 6622 O 628.37 -1.52386 -0.929565 0
M  V30 6623 C 625.47 -2.94315 -1.68024 0
M  V30 6624 C 624.643 -4.18791 -1.26226 0
M  V30 6625 C 623.702 -4.72028 -2.32542 0
M  V30 6626 O 622.728 -5.35129 -1.93972 0
M  V30 6627 N 623.93 -4.51838 -3.64448 0
M  V30 6628 H 626.695 -2.9942 0.129591 0
M  V30 6629 H 624.256 -1.60465 0.2151 0
M  V30 6630 H 626.248 -3.26831 -2.38671 0
M  V30 6631 H 624.818 -2.22287 -2.19789 0
M  V30 6632 H 624.038 -3.92318 -0.384703 0
M  V30 6633 H 625.326 -4.99668 -0.959647 0
M  V30 6634 H 624.724 -4.01468 -3.98547 0
M  V30 6635 H 623.281 -4.88845 -4.31131 0
M  V30 6636 N 626.714 -0.118576 -1.57153 0
M  V30 6637 C 627.961 0.539526 -1.9518 0
M  V30 6638 C 628.289 1.66714 -1.00184 0
M  V30 6639 O 627.544 1.95683 -0.0256482 0
M  V30 6640 C 627.843 1.11303 -3.39627 0
M  V30 6641 C 627.509 0.106809 -4.50773 0
M  V30 6642 C 626.171 -0.169876 -4.809 0
M  V30 6643 C 628.523 -0.57895 -5.17975 0
M  V30 6644 C 625.851 -1.13861 -5.75545 0
M  V30 6645 C 628.203 -1.53631 -6.13661 0
M  V30 6646 C 626.867 -1.82099 -6.42181 0
M  V30 6647 H 626.137 0.197427 -0.714215 0
M  V30 6648 H 628.784 -0.199391 -1.90459 0
M  V30 6649 H 627.089 1.92869 -3.4104 0
M  V30 6650 H 628.786 1.63032 -3.66363 0
M  V30 6651 H 625.376 0.332645 -4.27307 0
M  V30 6652 H 629.56 -0.378359 -4.94856 0
M  V30 6653 H 624.816 -1.36592 -5.95947 0
M  V30 6654 H 628.99 -2.07337 -6.64819 0
M  V30 6655 H 626.617 -2.57319 -7.15326 0
M  V30 6656 N 628.193 1.56834 0.155195 0
M  V30 6657 C 629.156 1.96748 1.17571 0
M  V30 6658 C 630.156 0.853006 1.3631 0
M  V30 6659 O 631.346 1.11978 1.33441 0
M  V30 6660 C 628.478 2.27631 2.53765 0
M  V30 6661 H 629.671 2.88085 0.833498 0
M  V30 6662 H 627.224 1.51141 0.398242 0
M  V30 6663 H 627.959 1.39059 2.92973 0
M  V30 6664 H 627.744 3.0888 2.41527 0
M  V30 6665 H 629.234 2.59377 3.27282 0
M  V30 6666 N 629.671 -0.424282 1.51781 0
M  V30 6667 C 630.896 -1.19928 1.6921 0
M  V30 6668 C 631.321 -1.8392 0.394355 0
M  V30 6669 O 630.679 -1.69371 -0.646778 0
M  V30 6670 C 630.727 -2.24937 2.81843 0
M  V30 6671 O 629.831 -3.3073 2.46356 0
M  V30 6672 H 629.172 -0.35078 0.563781 0
M  V30 6673 H 631.702 -0.499401 1.98412 0
M  V30 6674 H 631.712 -2.69512 3.06312 0
M  V30 6675 H 630.387 -1.77742 3.76006 0
M  V30 6676 H 628.964 -2.9154 2.32505 0
M  V30 6677 N 631.149 -1.42148 -0.680565 0
M  V30 6678 C 632.398 -1.41604 -1.43636 0
M  V30 6679 C 632.711 -0.0337887 -1.95571 0
M  V30 6680 O 633.917 0.0942588 -2.71336 0
M  V30 6681 C 632.373 -2.49056 -2.59806 0
M  V30 6682 C 631.981 -3.9326 -2.14594 0
M  V30 6683 C 633.725 -2.5767 -3.37352 0
M  V30 6684 C 631.632 -4.92232 -3.27813 0
M  V30 6685 H 630.562 -0.526656 -0.539583 0
M  V30 6686 H 633.213 -1.68033 -0.737369 0
M  V30 6687 H 631.595 -2.15782 -3.32045 0
M  V30 6688 H 632.769 -4.35858 -1.49546 0
M  V30 6689 H 631.084 -3.88443 -1.50002 0
M  V30 6690 H 633.681 -3.28794 -4.21662 0
M  V30 6691 H 634.024 -1.61837 -3.83555 0
M  V30 6692 H 634.557 -2.90109 -2.72179 0
M  V30 6693 H 631.296 -5.89522 -2.86607 0
M  V30 6694 H 630.816 -4.5427 -3.91661 0
M  V30 6695 H 632.495 -5.13684 -3.93367 0
M  V30 6696 N 632.627 0.916307 -1.28225 0
M  V30 6697 C 633.537 2.05165 -1.13775 0
M  V30 6698 C 634.553 1.73879 -0.0649418 0
M  V30 6699 O 635.729 1.99531 -0.273722 0
M  V30 6700 C 632.794 3.37385 -0.798267 0
M  V30 6701 C 631.855 3.82296 -1.95316 0
M  V30 6702 C 631.088 5.08206 -1.62978 0
M  V30 6703 O 631.311 5.6781 -0.542948 0
M  V30 6704 O 630.245 5.48768 -2.47261 0
M  V30 6705 H 634.071 2.20273 -2.09078 0
M  V30 6706 H 631.656 1.0373 -1.07519 0
M  V30 6707 H 633.538 4.16773 -0.62278 0
M  V30 6708 H 632.213 3.23458 0.125139 0
M  V30 6709 H 631.12 3.03746 -2.18378 0
M  V30 6710 H 632.453 4.00782 -2.85718 0
M  V30 6711 N 634.105 1.10431 1.1244 0
M  V30 6712 C 635.333 0.868872 1.87772 0
M  V30 6713 C 635.748 -0.580645 1.7965 0
M  V30 6714 O 635.105 -1.40031 1.17036 0
M  V30 6715 C 635.156 1.30855 3.36986 0
M  V30 6716 O 634.877 2.70123 3.44914 0
M  V30 6717 C 636.378 1.107 4.29256 0
M  V30 6718 H 633.598 0.311868 0.59412 0
M  V30 6719 H 636.142 1.46897 1.42273 0
M  V30 6720 H 634.297 0.752126 3.80029 0
M  V30 6721 H 634.711 2.88923 4.37748 0
M  V30 6722 H 636.185 1.46378 5.32238 0
M  V30 6723 H 636.662 0.0456228 4.39176 0
M  V30 6724 H 637.268 1.64988 3.91994 0
M  V30 6725 N 635.583 -1.29855 0.893053 0
M  V30 6726 C 636.832 -1.95104 0.511597 0
M  V30 6727 C 637.145 -1.71226 -0.945567 0
M  V30 6728 O 638.351 -2.30525 -1.43424 0
M  V30 6729 C 636.807 -3.49374 0.864034 0
M  V30 6730 C 636.415 -3.82061 2.33952 0
M  V30 6731 C 638.159 -4.20894 0.552167 0
M  V30 6732 C 636.066 -5.29546 2.63316 0
M  V30 6733 H 634.996 -0.73029 0.187597 0
M  V30 6734 H 637.647 -1.47682 1.08914 0
M  V30 6735 H 636.029 -3.95413 0.215493 0
M  V30 6736 H 637.203 -3.46904 3.03305 0
M  V30 6737 H 635.518 -3.23665 2.61973 0
M  V30 6738 H 638.115 -5.29435 0.748489 0
M  V30 6739 H 638.458 -4.13178 -0.508924 0
M  V30 6740 H 638.991 -3.80564 1.15825 0
M  V30 6741 H 635.73 -5.4232 3.68197 0
M  V30 6742 H 635.25 -5.65974 1.9858 0
M  V30 6743 H 636.929 -5.97068 2.49236 0
M  V30 6744 N 637.061 -0.65484 -1.43351 0
M  V30 6745 C 638.289 -0.176685 -2.06144 0
M  V30 6746 C 638.704 1.15831 -1.49093 0
M  V30 6747 O 638.061 1.71542 -0.622868 0
M  V30 6748 C 638.112 -0.0813326 -3.61408 0
M  V30 6749 O 637.833 -1.36355 -4.1634 0
M  V30 6750 C 639.334 0.422706 -4.4128 0
M  V30 6751 H 636.554 -0.0906429 -0.66485 0
M  V30 6752 H 639.098 -0.895945 -1.83829 0
M  V30 6753 H 637.253 0.588496 -3.82904 0
M  V30 6754 H 637.667 -1.22381 -5.10023 0
M  V30 6755 H 639.141 0.438375 -5.50257 0
M  V30 6756 H 639.618 1.45432 -4.14423 0
M  V30 6757 H 640.224 -0.214687 -4.24758 0
M  V30 6758 N 638.539 1.52521 -0.396863 0
M  V30 6759 C 639.767 2.06091 0.18275 0
M  V30 6760 C 640.182 1.26796 1.39886 0
M  V30 6761 O 639.539 0.316585 1.79733 0
M  V30 6762 C 639.59 3.57362 0.545377 0
M  V30 6763 O 639.311 4.33656 -0.622428 0
M  V30 6764 C 640.812 4.27305 1.18004 0
M  V30 6765 H 638.032 0.670504 0.025789 0
M  V30 6766 H 640.576 1.96561 -0.564276 0
M  V30 6767 H 638.731 3.66941 1.2423 0
M  V30 6768 H 639.145 5.23507 -0.322662 0
M  V30 6769 H 640.619 5.34366 1.38408 0
M  V30 6770 H 641.096 3.83 2.1496 0
M  V30 6771 H 641.702 4.22064 0.523671 0
M  V30 6772 N 640.017 0.126909 1.57088 0
M  V30 6773 C 641.245 -0.53667 1.99819 0
M  V30 6774 C 641.66 -1.5972 1.00673 0
M  V30 6775 O 641.017 -1.825 0.000747365 0
M  V30 6776 C 641.068 -1.15563 3.42531 0
M  V30 6777 O 640.789 -0.137483 4.37884 0
M  V30 6778 C 642.29 -1.90176 4.00435 0
M  V30 6779 H 639.51 -0.141443 0.655923 0
M  V30 6780 H 642.054 0.215578 2.03361 0
M  V30 6781 H 640.209 -1.85861 3.39904 0
M  V30 6782 H 640.623 -0.588229 5.21191 0
M  V30 6783 H 642.097 -2.28801 5.02349 0
M  V30 6784 H 642.574 -2.78002 3.40017 0
M  V30 6785 H 643.18 -1.24623 4.06632 0
M  V30 6786 N 641.495 -1.56914 -0.146875 0
M  V30 6787 C 642.744 -1.82546 -0.857898 0
M  V30 6788 C 643.057 -0.708169 -1.8233 0
M  V30 6789 O 644.263 -0.850093 -2.57848 0
M  V30 6790 C 642.719 -3.23548 -1.57623 0
M  V30 6791 C 642.327 -4.43212 -0.653224 0
M  V30 6792 C 644.071 -3.58453 -2.27402 0
M  V30 6793 C 641.978 -5.75237 -1.37318 0
M  V30 6794 H 640.908 -0.680786 -0.32411 0
M  V30 6795 H 643.559 -1.83166 -0.110639 0
M  V30 6796 H 641.941 -3.17315 -2.36912 0
M  V30 6797 H 643.115 -4.60682 0.104452 0
M  V30 6798 H 641.43 -4.16351 -0.0638336 0
M  V30 6799 H 644.027 -4.54349 -2.81907 0
M  V30 6800 H 644.37 -2.84516 -3.03901 0
M  V30 6801 H 644.903 -3.66347 -1.55032 0
M  V30 6802 H 641.642 -6.52269 -0.650041 0
M  V30 6803 H 641.162 -5.61703 -2.10357 0
M  V30 6804 H 642.841 -6.18039 -1.91406 0
M  V30 6805 N 642.974 0.416227 -1.52004 0
M  V30 6806 C 643.906 1.52552 -1.71058 0
M  V30 6807 C 644.919 1.51693 -0.59102 0
M  V30 6808 O 646.108 1.56087 -0.865973 0
M  V30 6809 C 643.208 2.91455 -1.72937 0
M  V30 6810 C 642.381 3.16584 -3.01816 0
M  V30 6811 C 641.44 4.35322 -2.95603 0
M  V30 6812 O 640.466 4.32947 -3.6952 0
M  V30 6813 N 641.668 5.40049 -2.12903 0
M  V30 6814 H 644.433 1.36604 -2.66757 0
M  V30 6815 H 641.994 0.60544 -1.50153 0
M  V30 6816 H 643.986 3.68944 -1.66321 0
M  V30 6817 H 642.556 3.00895 -0.847418 0
M  V30 6818 H 641.776 2.27203 -3.22137 0
M  V30 6819 H 643.064 3.30213 -3.87088 0
M  V30 6820 H 642.462 5.44823 -1.52265 0
M  V30 6821 H 641.019 6.16308 -2.1215 0
M  V30 6822 N 644.452 1.42507 0.673017 0
M  V30 6823 C 645.729 1.33554 1.42908 0
M  V30 6824 C 646.109 -0.0262211 2.11084 0
M  V30 6825 O 645.457 -1.04181 2.03368 0
M  V30 6826 C 645.667 2.50498 2.43006 0
M  V30 6827 C 647.015 2.92694 3.07596 0
M  V30 6828 O 648.039 2.50401 2.53333 0
M  V30 6829 O 646.898 3.65899 4.05931 0
M  V30 6830 H 643.992 0.526785 0.637516 0
M  V30 6831 H 646.538 1.54518 0.701591 0
M  V30 6832 H 645.31 3.41272 1.9144 0
M  V30 6833 H 644.933 2.3153 3.23233 0
M  V30 6834 N 645.93 -0.909495 1.28709 0
M  V30 6835 C 646.86 -2.0291 1.15542 0
M  V30 6836 C 647.841 -1.7002 0.0521017 0
M  V30 6837 O 649.026 -1.92835 0.229849 0
M  V30 6838 C 646.156 -3.37458 0.820935 0
M  V30 6839 C 645.11 -3.84524 1.87949 0
M  V30 6840 C 644.436 -5.16086 1.39854 0
M  V30 6841 C 645.736 -4.05918 3.28676 0
M  V30 6842 H 647.43 -2.14183 2.09203 0
M  V30 6843 H 644.976 -1.02913 1.00722 0
M  V30 6844 H 646.929 -4.1528 0.715571 0
M  V30 6845 H 645.653 -3.26249 -0.151374 0
M  V30 6846 H 644.312 -3.08911 1.97408 0
M  V30 6847 H 643.96 -5.01284 0.41518 0
M  V30 6848 H 643.66 -5.48547 2.1064 0
M  V30 6849 H 645.184 -5.96459 1.30649 0
M  V30 6850 H 646.598 -4.74252 3.22115 0
M  V30 6851 H 644.995 -4.49717 3.97334 0
M  V30 6852 H 646.065 -3.10583 3.72379 0
M  V30 6853 N 647.408 -1.11026 -1.11852 0
M  V30 6854 C 648.655 -0.85646 -1.83497 0
M  V30 6855 C 648.983 0.617938 -1.84423 0
M  V30 6856 O 648.238 1.47194 -1.28966 0
M  V30 6857 C 648.537 -1.35777 -3.30604 0
M  V30 6858 C 648.203 -2.84465 -3.49843 0
M  V30 6859 C 646.865 -3.25068 -3.54802 0
M  V30 6860 C 649.217 -3.80251 -3.56453 0
M  V30 6861 C 646.545 -4.60194 -3.63921 0
M  V30 6862 C 648.897 -5.15188 -3.67102 0
M  V30 6863 C 647.561 -5.55356 -3.70319 0
M  V30 6864 H 646.831 -0.313401 -0.671462 0
M  V30 6865 H 649.478 -1.38792 -1.31943 0
M  V30 6866 H 647.783 -0.746455 -3.84624 0
M  V30 6867 H 649.48 -1.13779 -3.8452 0
M  V30 6868 H 646.07 -2.52054 -3.46651 0
M  V30 6869 H 650.254 -3.49986 -3.51886 0
M  V30 6870 H 645.51 -4.90728 -3.64686 0
M  V30 6871 H 649.684 -5.89248 -3.71159 0
M  V30 6872 H 647.311 -6.60054 -3.77138 0
M  V30 6873 N 648.886 1.2938 -0.899927 0
M  V30 6874 C 650.297 1.77644 -0.574427 0
M  V30 6875 C 650.648 1.73824 0.909928 0
M  V30 6876 O 649.773 1.32429 1.71147 0
M  V30 6877 C 650.368 3.22573 -1.03595 0
M  V30 6878 C 648.927 3.68614 -0.76161 0
M  V30 6879 C 648.074 2.49483 -1.21052 0
M  V30 6880 H 651.025 1.16038 -1.08263 0
M  V30 6881 H 651.046 3.78684 -0.371337 0
M  V30 6882 H 650.558 3.25321 -2.11631 0
M  V30 6883 H 648.659 3.7134 0.306127 0
M  V30 6884 H 648.772 4.59402 -1.35965 0
M  V30 6885 H 647.136 2.46798 -0.629515 0
M  V30 6886 H 647.919 2.54959 -2.29893 0
M  V30 6887 N 650.364 0.662433 1.43002 0
M  V30 6888 C 651.311 -0.0235324 2.30788 0
M  V30 6889 C 652.281 -0.805342 1.4527 0
M  V30 6890 O 653.466 -0.78009 1.74124 0
M  V30 6891 C 650.606 -0.977545 3.30965 0
M  V30 6892 C 649.719 -0.190865 4.31578 0
M  V30 6893 C 648.854 -1.13951 5.18834 0
M  V30 6894 C 647.893 -0.343796 6.11134 0
M  V30 6895 N 647.03 -1.2445 6.90982 0
M  V30 6896 H 651.87 0.730921 2.88897 0
M  V30 6897 H 649.407 0.372197 1.42313 0
M  V30 6898 H 651.365 -1.54437 3.87563 0
M  V30 6899 H 649.995 -1.69877 2.74484 0
M  V30 6900 H 649.047 0.492388 3.772 0
M  V30 6901 H 650.359 0.427464 4.96965 0
M  V30 6902 H 649.513 -1.77666 5.80103 0
M  V30 6903 H 648.252 -1.79174 4.53595 0
M  V30 6904 H 647.257 0.30665 5.48944 0
M  V30 6905 H 648.482 0.304161 6.78419 0
M  V30 6906 H 646.428 -1.88336 6.28383 0
M  V30 6907 H 646.345 -0.680959 7.52927 0
M  V30 6908 H 647.613 -1.86952 7.56749 0
M  V30 6909 N 651.842 -1.52309 0.404946 0
M  V30 6910 C 653.088 -2.02065 -0.172455 0
M  V30 6911 C 653.421 -1.29022 -1.45145 0
M  V30 6912 O 652.696 -0.395284 -1.90441 0
M  V30 6913 C 652.979 -3.5759 -0.424433 0
M  V30 6914 C 652.832 -4.41287 0.870945 0
M  V30 6915 C 654.151 -4.23186 -1.20837 0
M  V30 6916 H 651.27 -0.734454 -0.0612035 0
M  V30 6917 H 653.912 -1.82236 0.53759 0
M  V30 6918 H 652.062 -3.74617 -1.02929 0
M  V30 6919 H 653.734 -4.3598 1.50729 0
M  V30 6920 H 651.977 -4.07669 1.48284 0
M  V30 6921 H 652.648 -5.48171 0.649083 0
M  V30 6922 H 655.124 -4.10232 -0.696338 0
M  V30 6923 H 654 -5.31953 -1.35343 0
M  V30 6924 H 654.261 -3.81862 -2.22786 0
M  V30 6925 N 653.32 -0.135238 -1.57019 0
M  V30 6926 C 654.253 0.846618 -2.11914 0
M  V30 6927 C 655.231 1.25019 -1.03966 0
M  V30 6928 O 656.415 1.34838 -1.31723 0
M  V30 6929 C 653.542 2.1352 -2.6292 0
M  V30 6930 C 652.588 1.87846 -3.82905 0
M  V30 6931 S 653.421 1.08005 -5.24495 0
M  V30 6932 C 654.577 2.38008 -5.78881 0
M  V30 6933 H 654.81 0.379752 -2.94865 0
M  V30 6934 H 652.343 0.0788387 -1.54199 0
M  V30 6935 H 654.301 2.87551 -2.92958 0
M  V30 6936 H 652.962 2.57323 -1.80121 0
M  V30 6937 H 652.155 2.83365 -4.16797 0
M  V30 6938 H 651.757 1.21929 -3.53567 0
M  V30 6939 H 654.049 3.33742 -5.89595 0
M  V30 6940 H 654.992 2.08638 -6.76665 0
M  V30 6941 H 655.4 2.48119 -5.07048 0
M  V30 6942 N 654.798 1.5699 0.138552 0
M  V30 6943 C 655.745 1.98899 1.17081 0
M  V30 6944 C 656.715 0.857922 1.42228 0
M  V30 6945 O 657.9 1.12065 1.54422 0
M  V30 6946 C 655.04 2.38189 2.4972 0
M  V30 6947 C 654.153 3.64624 2.31674 0
M  V30 6948 C 653.288 3.9298 3.57407 0
M  V30 6949 C 652.327 5.1266 3.34435 0
M  V30 6950 N 651.464 5.36983 4.5232 0
M  V30 6951 H 656.304 2.86881 0.80642 0
M  V30 6952 H 653.841 1.41925 0.386727 0
M  V30 6953 H 655.799 2.59 3.2707 0
M  V30 6954 H 654.429 1.53275 2.84089 0
M  V30 6955 H 653.481 3.51542 1.45337 0
M  V30 6956 H 654.793 4.52131 2.10664 0
M  V30 6957 H 653.947 4.14335 4.43183 0
M  V30 6958 H 652.686 3.03912 3.8143 0
M  V30 6959 H 651.691 4.9117 2.47048 0
M  V30 6960 H 652.916 6.03288 3.11802 0
M  V30 6961 H 650.862 4.50871 4.76499 0
M  V30 6962 H 650.779 6.18775 4.34343 0
M  V30 6963 H 652.047 5.62842 5.39285 0
M  V30 6964 N 656.276 -0.40816 1.52223 0
M  V30 6965 C 657.223 -1.49737 1.75635 0
M  V30 6966 C 658.193 -1.5493 0.598824 0
M  V30 6967 O 659.378 -1.71487 0.83648 0
M  V30 6968 C 656.518 -2.87174 1.91376 0
M  V30 6969 C 655.631 -2.91283 3.19027 0
M  V30 6970 C 654.766 -4.20026 3.25195 0
M  V30 6971 C 653.805 -4.18113 4.47044 0
M  V30 6972 N 652.942 -5.38429 4.50598 0
M  V30 6973 H 657.782 -1.29075 2.68596 0
M  V30 6974 H 655.319 -0.626518 1.33091 0
M  V30 6975 H 657.277 -3.66959 1.98486 0
M  V30 6976 H 655.907 -3.06329 1.01795 0
M  V30 6977 H 654.959 -2.03984 3.21084 0
M  V30 6978 H 656.271 -2.85734 4.08849 0
M  V30 6979 H 655.425 -5.08204 3.31382 0
M  V30 6980 H 654.164 -4.28271 2.33313 0
M  V30 6981 H 653.169 -3.28325 4.41002 0
M  V30 6982 H 654.394 -4.11507 5.40221 0
M  V30 6983 H 652.34 -5.4734 3.616 0
M  V30 6984 H 652.257 -5.34879 5.34266 0
M  V30 6985 H 653.525 -6.28557 4.61016 0
M  V30 6986 N 657.755 -1.42862 -0.66545 0
M  V30 6987 C 658.688 -1.41509 -1.79026 0
M  V30 6988 C 659.666 -0.278106 -1.60204 0
M  V30 6989 O 660.85 -0.469792 -1.82552 0
M  V30 6990 C 657.977 -1.21494 -3.1616 0
M  V30 6991 C 657.023 -2.38308 -3.53711 0
M  V30 6992 S 657.856 -4.00852 -3.55075 0
M  V30 6993 C 659.012 -3.83197 -4.94885 0
M  V30 6994 H 659.245 -2.36691 -1.79902 0
M  V30 6995 H 656.778 -1.29746 -0.836977 0
M  V30 6996 H 658.736 -1.10633 -3.95311 0
M  V30 6997 H 657.397 -0.27881 -3.1286 0
M  V30 6998 H 656.59 -2.20076 -4.53412 0
M  V30 6999 H 656.192 -2.45732 -2.81943 0
M  V30 7000 H 658.484 -3.44765 -5.83218 0
M  V30 7001 H 659.427 -4.82607 -5.18166 0
M  V30 7002 H 659.835 -3.15884 -4.67843 0
M  V30 7003 N 659.233 0.902656 -1.29189 0
M  V30 7004 C 660.649 1.18296 -1.07137 0
M  V30 7005 C 660.849 2.00701 0.179223 0
M  V30 7006 O 659.905 2.3675 0.877812 0
M  V30 7007 C 661.218 1.90677 -2.32514 0
M  V30 7008 C 662.766 2.03515 -2.37804 0
M  V30 7009 C 663.241 2.79307 -3.62976 0
M  V30 7010 N 664.732 2.86862 -3.63681 0
M  V30 7011 C 665.467 3.46035 -4.57217 0
M  V30 7012 N 664.963 4.06399 -5.61081 0
M  V30 7013 N 666.756 3.43681 -4.44792 0
M  V30 7014 H 658.907 0.352765 -2.0945 0
M  V30 7015 H 661.17 0.21876 -0.922414 0
M  V30 7016 H 660.876 1.3756 -3.23682 0
M  V30 7017 H 660.75 2.91169 -2.39793 0
M  V30 7018 H 663.137 2.55809 -1.47125 0
M  V30 7019 H 663.218 1.02166 -2.34512 0
M  V30 7020 H 662.862 2.2769 -4.54004 0
M  V30 7021 H 662.792 3.80995 -3.63525 0
M  V30 7022 H 665.283 2.43987 -2.88581 0
M  V30 7023 H 665.596 4.49564 -6.2858 0
M  V30 7024 H 663.941 4.0487 -5.64894 0
M  V30 7025 H 667.132 2.9574 -3.62843 0
M  V30 7026 H 667.305 3.89503 -5.17872 0
M  V30 7027 N 660.711 1.11618 1.11262 0
M  V30 7028 C 661.957 0.867463 1.83311 0
M  V30 7029 C 662.29 -0.605366 1.84524 0
M  V30 7030 O 661.565 -1.44704 1.29965 0
M  V30 7031 C 661.848 1.43207 3.30399 0
M  V30 7032 C 661.701 2.97265 3.3757 0
M  V30 7033 C 663.02 1.08454 4.26528 0
M  V30 7034 H 660.139 0.316578 0.665543 0
M  V30 7035 H 662.781 1.38137 1.30454 0
M  V30 7036 H 660.931 0.994982 3.75543 0
M  V30 7037 H 662.603 3.49591 3.00971 0
M  V30 7038 H 660.846 3.33237 2.77733 0
M  V30 7039 H 661.517 3.31859 4.41105 0
M  V30 7040 H 663.993 1.4619 3.89574 0
M  V30 7041 H 662.869 1.50633 5.27826 0
M  V30 7042 H 663.13 -0.00444568 4.421 0
M  V30 7043 N 662.189 -1.289 0.906776 0
M  V30 7044 C 663.6 -1.77336 0.58384 0
M  V30 7045 C 663.951 -1.74304 -0.900697 0
M  V30 7046 O 663.076 -1.33335 -1.70443 0
M  V30 7047 C 663.671 -3.22019 1.05304 0
M  V30 7048 C 662.23 -3.68205 0.781148 0
M  V30 7049 C 661.377 -2.48837 1.22373 0
M  V30 7050 H 664.328 -1.15462 1.08877 0
M  V30 7051 H 664.349 -3.78481 0.391414 0
M  V30 7052 H 663.861 -3.24194 2.13353 0
M  V30 7053 H 661.962 -3.71497 -0.28643 0
M  V30 7054 H 662.075 -4.58675 1.384 0
M  V30 7055 H 660.439 -2.46461 0.642594 0
M  V30 7056 H 661.222 -2.53736 2.31242 0
M  V30 7057 N 663.667 -0.670007 -1.42649 0
M  V30 7058 C 664.916 -0.187526 -2.00826 0
M  V30 7059 C 665.229 1.21142 -1.53571 0
M  V30 7060 O 666.435 1.79001 -2.04134 0
M  V30 7061 C 664.891 -0.284409 -3.58774 0
M  V30 7062 C 664.499 -1.6871 -4.15019 0
M  V30 7063 C 666.243 0.139605 -4.2427 0
M  V30 7064 C 664.15 -1.73701 -5.65316 0
M  V30 7065 H 663.08 -0.0663468 -0.751075 0
M  V30 7066 H 665.731 -0.834492 -1.63427 0
M  V30 7067 H 664.113 0.430364 -3.93655 0
M  V30 7068 H 665.287 -2.42857 -3.91608 0
M  V30 7069 H 663.602 -2.05855 -3.61957 0
M  V30 7070 H 666.199 0.122398 -5.3456 0
M  V30 7071 H 666.542 1.17403 -3.99402 0
M  V30 7072 H 667.075 -0.523995 -3.94334 0
M  V30 7073 H 663.814 -2.75109 -5.94975 0
M  V30 7074 H 663.334 -1.03903 -5.90732 0
M  V30 7075 H 665.013 -1.48829 -6.2965 0
M  V30 7076 N 665.145 1.52092 -0.413018 0
M  V30 7077 C 666.373 2.06274 0.160881 0
M  V30 7078 C 666.788 1.28273 1.38533 0
M  V30 7079 O 666.145 0.33563 1.79387 0
M  V30 7080 C 666.196 3.57921 0.507443 0
M  V30 7081 O 665.917 4.32971 -0.668388 0
M  V30 7082 C 667.418 4.28533 1.13465 0
M  V30 7083 H 664.638 0.67074 0.0186759 0
M  V30 7084 H 667.182 1.95951 -0.585092 0
M  V30 7085 H 665.337 3.68238 1.20331 0
M  V30 7086 H 665.751 5.23135 -0.378169 0
M  V30 7087 H 667.225 5.35804 1.32732 0
M  V30 7088 H 667.702 3.85258 2.10886 0
M  V30 7089 H 668.308 4.22595 0.478876 0
M  V30 7090 N 666.623 0.143563 1.56945 0
M  V30 7091 C 667.553 -0.7936 2.196 0
M  V30 7092 C 668.534 -1.25955 1.14321 0
M  V30 7093 O 669.719 -1.31773 1.42651 0
M  V30 7094 C 666.849 -2.03424 2.81489 0
M  V30 7095 C 665.803 -1.70519 3.92565 0
M  V30 7096 C 665.129 -3.01817 4.41373 0
M  V30 7097 C 666.429 -0.95449 5.13504 0
M  V30 7098 H 668.123 -0.271423 2.98167 0
M  V30 7099 H 665.669 -0.12911 1.4342 0
M  V30 7100 H 667.622 -2.69463 3.23987 0
M  V30 7101 H 666.346 -2.58008 2.00248 0
M  V30 7102 H 665.005 -1.06859 3.5068 0
M  V30 7103 H 664.653 -3.54386 3.56959 0
M  V30 7104 H 664.353 -2.80565 5.16292 0
M  V30 7105 H 665.877 -3.68934 4.86539 0
M  V30 7106 H 667.291 -1.5169 5.52868 0
M  V30 7107 H 665.688 -0.842035 5.94163 0
M  V30 7108 H 666.758 0.0544033 4.84869 0
M  V30 7109 N 668.101 -1.57061 -0.130224 0
M  V30 7110 C 669.349 -1.83893 -0.838313 0
M  V30 7111 C 669.67 -0.727046 -1.80939 0
M  V30 7112 O 668.94 0.249927 -1.94299 0
M  V30 7113 H 667.52 -0.67846 -0.312573 0
M  V30 7114 H 670.182 -1.94529 -0.120224 0
M  V30 7115 H 669.278 -2.79419 -1.39038 0
M  V30 7116 N 669.579 0.400081 -1.52437 0
M  V30 7117 C 670.819 1.15526 -1.68622 0
M  V30 7118 C 671.183 1.87533 -0.411744 0
M  V30 7119 O 672.384 2.6501 -0.449804 0
M  V30 7120 C 670.655 2.11618 -2.88015 0
M  V30 7121 S 672.214 2.95121 -3.24729 0
M  V30 7122 H 669.032 0.39123 -0.593683 0
M  V30 7123 H 671.634 0.441255 -1.90455 0
M  V30 7124 H 670.338 1.5742 -3.79008 0
M  V30 7125 H 669.869 2.87544 -2.68481 0
M  V30 7126 H 671.884 4.13653 -2.74055 0
M  V30 7127 N 671.057 1.43213 0.657864 0
M  V30 7128 C 672.297 1.46083 1.42965 0
M  V30 7129 C 672.661 0.0809712 1.91829 0
M  V30 7130 O 673.862 -0.0156305 2.68795 0
M  V30 7131 C 672.133 2.47044 2.58271 0
M  V30 7132 S 673.692 2.68753 3.46868 0
M  V30 7133 H 670.51 0.517015 0.488074 0
M  V30 7134 H 673.112 1.79945 0.764213 0
M  V30 7135 H 671.816 3.46044 2.20639 0
M  V30 7136 H 671.347 2.14665 3.2967 0
M  V30 7137 H 673.362 1.98329 4.54841 0
M  V30 7138 N 672.536 -0.895792 1.29666 0
M  V30 7139 C 673.466 -2.01673 1.17688 0
M  V30 7140 C 674.447 -1.69955 0.0701317 0
M  V30 7141 O 675.632 -1.9258 0.250289 0
M  V30 7142 C 672.762 -3.36568 0.856681 0
M  V30 7143 C 671.716 -3.82509 1.92017 0
M  V30 7144 C 671.042 -5.14574 1.4532 0
M  V30 7145 C 672.342 -4.02409 3.32963 0
M  V30 7146 H 674.036 -2.11953 2.11463 0
M  V30 7147 H 671.582 -1.01839 1.01807 0
M  V30 7148 H 673.535 -4.14498 0.759577 0
M  V30 7149 H 672.259 -3.26391 -0.116763 0
M  V30 7150 H 670.918 -3.068 2.00673 0
M  V30 7151 H 670.566 -5.00815 0.468325 0
M  V30 7152 H 670.266 -5.46283 2.16447 0
M  V30 7153 H 671.79 -5.9504 1.36968 0
M  V30 7154 H 673.204 -4.70808 3.27127 0
M  V30 7155 H 671.601 -4.45478 4.02082 0
M  V30 7156 H 672.671 -3.06616 3.75652 0
M  V30 7157 N 674.014 -1.12206 -1.10668 0
M  V30 7158 C 675.26 -0.877172 -1.82848 0
M  V30 7159 C 675.593 0.595571 -1.84842 0
M  V30 7160 O 674.868 1.44013 -1.30731 0
M  V30 7161 C 675.151 -1.44957 -3.29635 0
M  V30 7162 C 675.004 -2.99051 -3.35989 0
M  V30 7163 C 676.323 -1.10714 -4.25946 0
M  V30 7164 H 673.442 -0.320103 -0.663854 0
M  V30 7165 H 676.084 -1.38827 -1.2972 0
M  V30 7166 H 674.234 -1.01488 -3.7501 0
M  V30 7167 H 675.906 -3.51182 -2.99113 0
M  V30 7168 H 674.149 -3.34705 -2.75962 0
M  V30 7169 H 674.82 -3.34194 -4.39339 0
M  V30 7170 H 677.296 -1.48254 -3.88793 0
M  V30 7171 H 676.172 -1.5343 -5.2702 0
M  V30 7172 H 676.433 -0.019 -4.42096 0
M  V30 7173 N 675.492 1.28418 -0.913599 0
M  V30 7174 C 676.422 2.29713 -0.418847 0
M  V30 7175 C 677.403 1.62165 0.513469 0
M  V30 7176 O 678.588 1.89576 0.421235 0
M  V30 7177 C 675.718 3.45612 0.342042 0
M  V30 7178 C 674.672 4.25056 -0.501123 0
M  V30 7179 C 673.998 5.3329 0.388097 0
M  V30 7180 C 675.298 4.91814 -1.75831 0
M  V30 7181 H 676.992 2.71346 -1.26538 0
M  V30 7182 H 674.538 1.30446 -0.609903 0
M  V30 7183 H 676.491 4.15562 0.699 0
M  V30 7184 H 675.215 3.02858 1.22248 0
M  V30 7185 H 673.874 3.56833 -0.840598 0
M  V30 7186 H 673.522 4.8678 1.26707 0
M  V30 7187 H 673.222 5.87347 -0.172459 0
M  V30 7188 H 674.746 6.06088 0.74094 0
M  V30 7189 H 676.16 5.54126 -1.47026 0
M  V30 7190 H 674.557 5.55866 -2.26126 0
M  V30 7191 H 675.627 4.16313 -2.4862 0
M  V30 7192 N 676.97 0.677563 1.42291 0
M  V30 7193 C 678.217 0.200975 2.015 0
M  V30 7194 C 678.545 -1.19342 1.53583 0
M  V30 7195 O 677.8 -1.81579 0.7299 0
M  V30 7196 C 678.099 0.187229 3.56909 0
M  V30 7197 C 677.765 1.52667 4.24268 0
M  V30 7198 C 676.427 1.89341 4.42384 0
M  V30 7199 C 678.779 2.40869 4.62203 0
M  V30 7200 C 676.107 3.13836 4.95705 0
M  V30 7201 C 678.459 3.64679 5.16906 0
M  V30 7202 C 677.123 4.01519 5.33234 0
M  V30 7203 H 676.393 0.0735418 0.737342 0
M  V30 7204 H 679.04 0.873095 1.70439 0
M  V30 7205 H 677.345 -0.568407 3.87655 0
M  V30 7206 H 679.042 -0.198773 4.00507 0
M  V30 7207 H 675.632 1.23138 4.1053 0
M  V30 7208 H 679.816 2.1382 4.47878 0
M  V30 7209 H 675.072 3.42396 5.06532 0
M  V30 7210 H 679.246 4.33224 5.45243 0
M  V30 7211 H 676.873 4.98062 5.74316 0
M  V30 7212 N 678.448 -1.51871 0.421078 0
M  V30 7213 C 679.378 -2.30231 -0.389363 0
M  V30 7214 C 680.359 -1.34946 -1.03555 0
M  V30 7215 O 681.544 -1.63859 -1.04229 0
M  V30 7216 C 678.674 -3.13247 -1.49979 0
M  V30 7217 C 677.628 -4.16677 -0.977966 0
M  V30 7218 C 676.954 -4.88112 -2.1829 0
M  V30 7219 C 678.254 -5.22295 -0.0236775 0
M  V30 7220 H 679.948 -2.98229 0.264524 0
M  V30 7221 H 677.494 -1.43424 0.12866 0
M  V30 7222 H 679.447 -3.66838 -2.07383 0
M  V30 7223 H 678.171 -2.4304 -2.18173 0
M  V30 7224 H 676.83 -3.64114 -0.426245 0
M  V30 7225 H 676.478 -4.14423 -2.85066 0
M  V30 7226 H 676.178 -5.58041 -1.84021 0
M  V30 7227 H 677.702 -5.44521 -2.76278 0
M  V30 7228 H 679.116 -5.71055 -0.506899 0
M  V30 7229 H 677.513 -5.99656 0.230782 0
M  V30 7230 H 678.583 -4.76131 0.917999 0
M  V30 7231 N 679.926 -0.151884 -1.56866 0
M  V30 7232 C 680.856 0.781943 -2.20018 0
M  V30 7233 C 681.837 1.25347 -1.14987 0
M  V30 7234 O 683.022 1.31015 -1.43348 0
M  V30 7235 C 680.152 2.01928 -2.82564 0
M  V30 7236 C 679.106 1.68434 -3.93464 0
M  V30 7237 C 678.432 2.99472 -4.42968 0
M  V30 7238 C 679.732 0.927244 -5.14003 0
M  V30 7239 H 681.426 0.255607 -2.98307 0
M  V30 7240 H 678.972 0.121502 -1.43486 0
M  V30 7241 H 680.925 2.67741 -3.25411 0
M  V30 7242 H 679.649 2.56943 -2.01614 0
M  V30 7243 H 678.308 1.04998 -3.51242 0
M  V30 7244 H 677.956 3.52488 -3.58834 0
M  V30 7245 H 677.656 2.77823 -5.17772 0
M  V30 7246 H 679.18 3.66348 -4.88489 0
M  V30 7247 H 680.594 1.48756 -5.53665 0
M  V30 7248 H 678.991 0.810513 -5.94601 0
M  V30 7249 H 680.061 -0.0801163 -4.84834 0
M  V30 7250 N 681.404 1.57128 0.121893 0
M  V30 7251 C 682.652 1.84335 0.828548 0
M  V30 7252 C 682.973 0.736632 1.80551 0
M  V30 7253 O 682.243 -0.23962 1.94429 0
M  V30 7254 H 680.823 0.680108 0.30897 0
M  V30 7255 H 683.485 1.9459 0.109906 0
M  V30 7256 H 682.581 2.80152 1.37554 0
M  V30 7257 N 682.882 -0.391992 1.52647 0
M  V30 7258 C 683.812 -1.48517 1.8018 0
M  V30 7259 C 684.793 -1.57039 0.653667 0
M  V30 7260 O 685.978 -1.72036 0.900962 0
M  V30 7261 C 683.108 -2.86161 1.96797 0
M  V30 7262 C 682.062 -2.92481 3.12472 0
M  V30 7263 C 681.388 -4.32546 3.14338 0
M  V30 7264 C 682.688 -2.624 4.51601 0
M  V30 7265 H 684.382 -1.25726 2.71723 0
M  V30 7266 H 681.928 -0.603387 1.30749 0
M  V30 7267 H 683.881 -3.62639 2.14641 0
M  V30 7268 H 682.605 -3.10283 1.01941 0
M  V30 7269 H 681.264 -2.18451 2.94406 0
M  V30 7270 H 680.912 -4.53703 2.1717 0
M  V30 7271 H 680.612 -4.37695 3.92042 0
M  V30 7272 H 682.136 -5.10934 3.34333 0
M  V30 7273 H 683.55 -3.28596 4.69785 0
M  V30 7274 H 681.947 -2.78903 5.3135 0
M  V30 7275 H 683.017 -1.57754 4.58521 0
M  V30 7276 N 684.36 -1.4356 -0.65026 0
M  V30 7277 C 685.606 -1.45549 -1.41221 0
M  V30 7278 C 685.939 -0.0805472 -1.94033 0
M  V30 7279 O 685.214 0.899043 -1.72475 0
M  V30 7280 C 685.497 -2.50028 -2.59148 0
M  V30 7281 C 685.35 -3.96808 -2.1181 0
M  V30 7282 C 686.669 -2.51212 -3.61359 0
M  V30 7283 H 683.788 -0.529967 -0.512156 0
M  V30 7284 H 686.43 -1.75127 -0.736933 0
M  V30 7285 H 684.58 -2.24937 -3.16758 0
M  V30 7286 H 686.252 -4.32966 -1.59178 0
M  V30 7287 H 684.495 -4.09498 -1.43156 0
M  V30 7288 H 685.166 -4.6553 -2.96625 0
M  V30 7289 H 687.642 -2.73583 -3.13515 0
M  V30 7290 H 686.518 -3.26252 -4.41419 0
M  V30 7291 H 686.779 -1.54701 -4.1415 0
M  V30 7292 N 685.838 0.888903 -1.30139 0
M  V30 7293 C 687.078 1.65456 -1.20015 0
M  V30 7294 C 687.442 1.90467 0.242148 0
M  V30 7295 O 688.643 2.6472 0.466561 0
M  V30 7296 C 686.914 2.96071 -2.00191 0
M  V30 7297 S 688.473 3.87055 -2.06721 0
M  V30 7298 H 685.291 0.567927 -0.427761 0
M  V30 7299 H 687.893 1.05539 -1.64565 0
M  V30 7300 H 686.597 2.7559 -3.04103 0
M  V30 7301 H 686.128 3.61023 -1.56288 0
M  V30 7302 H 688.143 4.81676 -1.19174 0
M  V30 7303 N 687.317 1.12792 1.10072 0
M  V30 7304 C 688.563 0.886857 1.82381 0
M  V30 7305 C 688.896 -0.58576 1.85155 0
M  V30 7306 O 688.171 -1.43317 1.31493 0
M  V30 7307 C 688.454 1.46703 3.28862 0
M  V30 7308 C 688.307 3.00829 3.34398 0
M  V30 7309 C 689.626 1.12971 4.25353 0
M  V30 7310 H 686.745 0.32362 0.662148 0
M  V30 7311 H 689.387 1.39513 1.28982 0
M  V30 7312 H 687.537 1.03476 3.74466 0
M  V30 7313 H 689.209 3.52764 2.97247 0
M  V30 7314 H 687.452 3.36164 2.74183 0
M  V30 7315 H 688.123 3.36519 4.3756 0
M  V30 7316 H 690.599 1.50313 3.88001 0
M  V30 7317 H 689.475 1.56223 5.26199 0
M  V30 7318 H 689.736 0.0424452 4.4208 0
M  V30 7319 N 688.795 -1.27931 0.920396 0
M  V30 7320 C 690.023 -1.98805 0.573087 0
M  V30 7321 C 690.438 -1.68724 -0.847201 0
M  V30 7322 O 689.795 -0.943699 -1.56207 0
M  V30 7323 C 689.846 -3.52971 0.780633 0
M  V30 7324 O 689.567 -3.81994 2.14504 0
M  V30 7325 C 691.068 -4.411 0.44105 0
M  V30 7326 H 688.288 -0.634651 0.21785 0
M  V30 7327 H 690.832 -1.62965 1.23542 0
M  V30 7328 H 688.987 -3.87048 0.165204 0
M  V30 7329 H 689.401 -4.76609 2.18962 0
M  V30 7330 H 690.875 -5.48312 0.637006 0
M  V30 7331 H 691.352 -4.34758 -0.62306 0
M  V30 7332 H 691.958 -4.12532 1.0343 0
M  V30 7333 N 690.273 -0.685099 -1.4193 0
M  V30 7334 C 691.205 0.0258679 -2.29185 0
M  V30 7335 C 692.218 0.755076 -1.44231 0
M  V30 7336 O 693.407 0.60752 -1.67844 0
M  V30 7337 C 690.507 1.06055 -3.21878 0
M  V30 7338 C 689.68 0.403088 -4.35539 0
M  V30 7339 C 688.739 1.33895 -5.0888 0
M  V30 7340 O 687.765 0.835326 -5.63037 0
M  V30 7341 N 688.967 2.6718 -5.15359 0
M  V30 7342 H 691.732 -0.723201 -2.90843 0
M  V30 7343 H 689.293 -0.53031 -1.52968 0
M  V30 7344 H 691.285 1.68813 -3.6781 0
M  V30 7345 H 689.855 1.71126 -2.616 0
M  V30 7346 H 689.075 -0.404185 -3.92122 0
M  V30 7347 H 690.363 -0.0545098 -5.08771 0
M  V30 7348 H 689.761 3.10626 -4.72788 0
M  V30 7349 H 688.318 3.25159 -5.64903 0
M  V30 7350 N 691.751 1.51645 -0.429126 0
M  V30 7351 C 692.714 2.26116 0.374726 0
M  V30 7352 C 693.714 1.29242 0.956714 0
M  V30 7353 O 694.904 1.53022 0.832452 0
M  V30 7354 C 692.036 3.04669 1.52937 0
M  V30 7355 H 693.229 2.9861 -0.277818 0
M  V30 7356 H 690.782 1.55236 -0.182097 0
M  V30 7357 H 691.517 2.36571 2.21821 0
M  V30 7358 H 691.302 3.75814 1.11833 0
M  V30 7359 H 692.792 3.61102 2.09751 0
M  V30 7360 N 693.229 0.160201 1.56784 0
M  V30 7361 C 694.477 -0.486625 1.96154 0
M  V30 7362 C 694.798 -1.64525 1.04673 0
M  V30 7363 O 694.068 -1.95586 0.110864 0
M  V30 7364 H 692.648 -0.182764 0.724297 0
M  V30 7365 H 695.31 0.238787 1.93432 0
M  V30 7366 H 694.406 -0.854025 3.00188 0
M  V30 7367 N 694.707 -1.5719 -0.113559 0
M  V30 7368 C 695.956 -1.84325 -0.818984 0
M  V30 7369 C 696.269 -0.746685 -1.80787 0
M  V30 7370 O 697.475 -0.904596 -2.55987 0
M  V30 7371 C 695.931 -3.26818 -1.50724 0
M  V30 7372 C 695.539 -4.44498 -0.559065 0
M  V30 7373 C 697.283 -3.63196 -2.19748 0
M  V30 7374 C 695.19 -5.7802 -1.25086 0
M  V30 7375 H 694.12 -0.687507 -0.309596 0
M  V30 7376 H 696.771 -1.8336 -0.0717621 0
M  V30 7377 H 695.153 -3.22269 -2.30128 0
M  V30 7378 H 696.327 -4.60356 0.202146 0
M  V30 7379 H 694.642 -4.16393 0.024495 0
M  V30 7380 H 697.239 -4.60226 -2.72206 0
M  V30 7381 H 697.582 -2.90899 -2.97798 0
M  V30 7382 H 698.115 -3.69553 -1.47226 0
M  V30 7383 H 694.854 -6.53501 -0.511539 0
M  V30 7384 H 694.374 -5.66038 -1.98395 0
M  V30 7385 H 696.053 -6.2196 -1.78253 0
M  V30 7386 N 696.185 0.383891 -1.52853 0
M  V30 7387 C 697.415 1.14783 -1.7178 0
M  V30 7388 C 697.823 1.84055 -0.438211 0
M  V30 7389 O 697.166 1.73713 0.597465 0
M  V30 7390 C 697.228 2.23543 -2.81547 0
M  V30 7391 C 696.892 1.74195 -4.22499 0
M  V30 7392 C 697.889 1.21591 -5.05481 0
M  V30 7393 C 695.574 1.80262 -4.6884 0
M  V30 7394 C 697.568 0.757104 -6.32888 0
M  V30 7395 C 695.255 1.33993 -5.96229 0
M  V30 7396 C 696.253 0.818049 -6.78083 0
M  V30 7397 O 695.941 0.362123 -8.03084 0
M  V30 7398 H 695.673 0.349908 -0.578395 0
M  V30 7399 H 698.227 0.454377 -2.00311 0
M  V30 7400 H 696.457 2.96328 -2.48449 0
M  V30 7401 H 698.146 2.8519 -2.88828 0
M  V30 7402 H 698.912 1.16257 -4.7086 0
M  V30 7403 H 694.791 2.19825 -4.05213 0
M  V30 7404 H 698.335 0.34908 -6.96726 0
M  V30 7405 H 694.232 1.39015 -6.30353 0
M  V30 7406 H 695 0.483134 -8.17073 0
M  V30 7407 N 697.663 1.43903 0.642637 0
M  V30 7408 C 698.909 1.47291 1.40275 0
M  V30 7409 C 699.264 0.0996024 1.92142 0
M  V30 7410 O 698.557 -0.883423 1.70018 0
M  V30 7411 C 698.751 2.45907 2.59354 0
M  V30 7412 C 698.58 3.92691 2.19143 0
M  V30 7413 C 697.35 4.6097 2.06966 0
M  V30 7414 C 699.548 4.82231 1.78768 0
M  V30 7415 N 697.53 5.9263 1.60196 0
M  V30 7416 C 698.901 6.03246 1.43159 0
M  V30 7417 C 700.956 4.69397 1.66045 0
M  V30 7418 C 699.659 7.12851 0.961014 0
M  V30 7419 C 701.685 5.79016 1.20392 0
M  V30 7420 C 701.047 6.99164 0.857271 0
M  V30 7421 H 697.146 0.594055 0.50855 0
M  V30 7422 H 699.73 1.80153 0.738434 0
M  V30 7423 H 697.901 2.15054 3.23429 0
M  V30 7424 H 699.633 2.39665 3.26102 0
M  V30 7425 H 696.388 4.15622 2.27058 0
M  V30 7426 H 696.812 6.62547 1.39143 0
M  V30 7427 H 701.454 3.76954 1.91482 0
M  V30 7428 H 699.172 8.05113 0.694148 0
M  V30 7429 H 702.758 5.71109 1.11023 0
M  V30 7430 H 701.638 7.82544 0.509408 0
M  V30 7431 N 699.141 -0.881989 1.30609 0
M  V30 7432 C 700.387 -1.63647 1.19781 0
M  V30 7433 C 700.72 -1.92632 -0.246265 0
M  V30 7434 O 699.995 -1.54938 -1.17577 0
M  V30 7435 C 700.278 -2.97437 2.02985 0
M  V30 7436 C 700.131 -2.75406 3.55628 0
M  V30 7437 C 701.45 -3.98397 1.86997 0
M  V30 7438 H 698.569 -0.593841 0.436488 0
M  V30 7439 H 701.211 -1.02041 1.60273 0
M  V30 7440 H 699.361 -3.50018 1.68581 0
M  V30 7441 H 701.033 -2.2959 4.00107 0
M  V30 7442 H 699.276 -2.09856 3.79662 0
M  V30 7443 H 699.947 -3.70552 4.09139 0
M  V30 7444 H 702.423 -3.54986 2.17081 0
M  V30 7445 H 701.299 -4.89916 2.47536 0
M  V30 7446 H 701.56 -4.3424 0.829943 0
M  V30 7447 N 700.619 -1.13374 -1.09472 0
M  V30 7448 C 701.569 -0.77946 -2.14263 0
M  V30 7449 C 702.553 0.226271 -1.59301 0
M  V30 7450 O 703.745 0.0302581 -1.76974 0
M  V30 7451 C 700.874 -0.246635 -3.42413 0
M  V30 7452 C 699.96 -1.28124 -4.04283 0
M  V30 7453 N 700.351 -2.48201 -4.40715 0
M  V30 7454 C 698.649 -1.12892 -4.31476 0
M  V30 7455 C 699.35 -3.14347 -4.8945 0
M  V30 7456 N 698.326 -2.41771 -4.86876 0
M  V30 7457 H 702.128 -1.69305 -2.40235 0
M  V30 7458 H 699.642 -1.01598 -1.26695 0
M  V30 7459 H 701.639 0.0254131 -4.16892 0
M  V30 7460 H 700.299 0.661287 -3.17895 0
M  V30 7461 H 701.31 -2.85511 -4.32093 0
M  V30 7462 H 697.987 -0.279117 -4.16566 0
M  V30 7463 H 699.377 -4.16663 -5.27107 0
M  V30 7464 N 702.098 1.27442 -0.927168 0
M  V30 7465 C 703.028 2.29256 -0.443188 0
M  V30 7466 C 704.009 1.62701 0.49624 0
M  V30 7467 O 705.194 1.90013 0.401105 0
M  V30 7468 C 702.324 3.45955 0.305366 0
M  V30 7469 C 701.278 4.24501 -0.546178 0
M  V30 7470 C 700.604 5.33671 0.331512 0
M  V30 7471 C 701.904 4.89921 -1.81037 0
M  V30 7472 H 703.598 2.69988 -1.29409 0
M  V30 7473 H 701.144 1.29792 -0.623705 0
M  V30 7474 H 703.097 4.1628 0.654885 0
M  V30 7475 H 701.821 3.04138 1.19029 0
M  V30 7476 H 700.48 3.55921 -0.878398 0
M  V30 7477 H 700.128 4.88096 1.21537 0
M  V30 7478 H 699.828 5.87131 -0.234746 0
M  V30 7479 H 701.352 6.0684 0.676614 0
M  V30 7480 H 702.766 5.52536 -1.52895 0
M  V30 7481 H 701.163 5.53436 -2.32009 0
M  V30 7482 H 702.233 4.13652 -2.53021 0
M  V30 7483 N 703.576 0.692616 1.41565 0
M  V30 7484 C 704.825 0.219452 2.00503 0
M  V30 7485 C 705.138 -1.18683 1.55479 0
M  V30 7486 O 706.344 -1.75731 2.06956 0
M  V30 7487 C 704.8 0.341451 3.58277 0
M  V30 7488 C 704.408 1.75291 4.12283 0
M  V30 7489 C 706.152 -0.0720899 4.24439 0
M  V30 7490 C 704.059 1.82673 5.62481 0
M  V30 7491 H 702.989 0.0782874 0.749925 0
M  V30 7492 H 705.64 0.860386 1.62079 0
M  V30 7493 H 704.022 -0.367683 3.94289 0
M  V30 7494 H 705.196 2.49057 3.87695 0
M  V30 7495 H 703.511 2.11587 3.58636 0
M  V30 7496 H 706.108 -0.0373385 5.34687 0
M  V30 7497 H 706.451 -1.11034 4.0122 0
M  V30 7498 H 706.984 0.586663 3.9345 0
M  V30 7499 H 703.723 2.84539 5.90523 0
M  V30 7500 H 703.243 1.13288 5.89004 0
M  V30 7501 H 704.922 1.58827 6.27203 0
M  V30 7502 N 705.054 -1.51416 0.437162 0
M  V30 7503 C 706.331 -1.94682 -0.189292 0
M  V30 7504 C 706.711 -1.37581 -1.60108 0
M  V30 7505 O 706.059 -0.562815 -2.2146 0
M  V30 7506 C 706.269 -3.48599 -0.167201 0
M  V30 7507 C 707.617 -4.2296 -0.372856 0
M  V30 7508 O 708.641 -3.55354 -0.245323 0
M  V30 7509 O 707.5 -5.42895 -0.626693 0
M  V30 7510 H 704.594 -0.816708 -0.130063 0
M  V30 7511 H 707.14 -1.62316 0.495128 0
M  V30 7512 H 705.912 -3.82616 0.81981 0
M  V30 7513 H 705.535 -3.87406 -0.894537 0
M  V30 7514 N 706.532 -0.168513 -1.56696 0
M  V30 7515 C 707.482 0.7751 -2.14421 0
M  V30 7516 C 708.466 1.19476 -1.07769 0
M  V30 7517 O 709.658 1.15759 -1.33898 0
M  V30 7518 C 706.787 2.00549 -2.7863 0
M  V30 7519 C 705.873 1.60795 -3.92436 0
M  V30 7520 N 706.264 0.919812 -4.97366 0
M  V30 7521 C 704.562 1.89917 -4.03544 0
M  V30 7522 C 705.263 0.724485 -5.77171 0
M  V30 7523 N 704.239 1.26505 -5.28675 0
M  V30 7524 H 708.041 0.240349 -2.92916 0
M  V30 7525 H 705.555 0.0322675 -1.62368 0
M  V30 7526 H 707.552 2.6917 -3.1836 0
M  V30 7527 H 706.212 2.54522 -2.01615 0
M  V30 7528 H 707.223 0.578169 -5.14663 0
M  V30 7529 H 703.9 2.45587 -3.37629 0
M  V30 7530 H 705.29 0.180521 -6.71657 0
M  V30 7531 N 708.01 1.57248 0.105221 0
M  V30 7532 C 709.257 1.8557 0.810552 0
M  V30 7533 C 709.585 0.755595 1.79223 0
M  V30 7534 O 708.84 -0.251788 1.94073 0
M  V30 7535 C 709.139 3.20437 1.58287 0
M  V30 7536 C 708.805 4.44716 0.744235 0
M  V30 7537 C 707.467 4.78458 0.513013 0
M  V30 7538 C 709.819 5.20953 0.160578 0
M  V30 7539 C 707.147 5.8587 -0.311894 0
M  V30 7540 C 709.499 6.29235 -0.651596 0
M  V30 7541 C 708.163 6.615 -0.893005 0
M  V30 7542 H 707.433 0.67905 0.296602 0
M  V30 7543 H 710.08 1.91363 0.0723968 0
M  V30 7544 H 708.385 3.10283 2.39232 0
M  V30 7545 H 710.082 3.39576 2.13282 0
M  V30 7546 H 706.672 4.18287 0.934555 0
M  V30 7547 H 710.856 4.95226 0.3264 0
M  V30 7548 H 706.112 6.09286 -0.508012 0
M  V30 7549 H 710.286 6.87484 -1.11077 0
M  V30 7550 H 707.913 7.44562 -1.53401 0
M  V30 7551 N 709.488 -0.375779 1.53054 0
M  V30 7552 C 710.728 -1.12828 1.70438 0
M  V30 7553 C 711.092 -1.86854 0.441527 0
M  V30 7554 O 712.293 -2.64261 0.491908 0
M  V30 7555 C 710.564 -2.07009 2.91345 0
M  V30 7556 S 712.123 -2.89917 3.29383 0
M  V30 7557 H 708.941 -0.381736 0.599832 0
M  V30 7558 H 711.543 -0.4109 1.91133 0
M  V30 7559 H 710.247 -1.51371 3.81464 0
M  V30 7560 H 709.778 -2.83236 2.73022 0
M  V30 7561 H 711.793 -4.0924 2.80601 0
M  V30 7562 N 710.966 -1.44241 -0.634997 0
M  V30 7563 C 711.929 -1.50457 -1.72903 0
M  V30 7564 C 712.929 -0.387058 -1.56072 0
M  V30 7565 O 714.119 -0.649531 -1.61638 0
M  V30 7566 C 711.251 -1.37477 -3.1195 0
M  V30 7567 H 712.444 -2.47907 -1.68767 0
M  V30 7568 H 709.997 -1.31276 -0.84831 0
M  V30 7569 H 710.732 -0.41106 -3.21684 0
M  V30 7570 H 710.517 -2.18506 -3.25573 0
M  V30 7571 H 712.007 -1.44799 -3.91692 0
M  V30 7572 N 712.444 0.87505 -1.31075 0
M  V30 7573 C 713.692 1.62447 -1.20231 0
M  V30 7574 C 714.013 1.93506 0.240888 0
M  V30 7575 O 713.283 1.57847 1.16022 0
M  V30 7576 H 711.863 0.602207 -0.441991 0
M  V30 7577 H 714.525 1.04788 -1.64334 0
M  V30 7578 H 713.621 2.57031 -1.77036 0
M  V30 7579 N 713.922 1.13953 1.08869 0
M  V30 7580 C 715.168 0.916103 1.81602 0
M  V30 7581 C 715.523 -0.551633 1.84322 0
M  V30 7582 O 714.816 -1.40322 1.30462 0
M  V30 7583 C 715.01 1.44495 3.26888 0
M  V30 7584 C 714.839 2.96257 3.38322 0
M  V30 7585 C 713.609 3.64658 3.49789 0
M  V30 7586 C 715.807 3.94156 3.30372 0
M  V30 7587 N 713.789 5.04379 3.49965 0
M  V30 7588 C 715.16 5.20101 3.37484 0
M  V30 7589 C 717.215 3.86342 3.14077 0
M  V30 7590 C 715.918 6.39145 3.29979 0
M  V30 7591 C 717.944 5.04927 3.07901 0
M  V30 7592 C 717.306 6.29738 3.1561 0
M  V30 7593 H 713.405 0.388701 0.678554 0
M  V30 7594 H 715.989 1.44879 1.3007 0
M  V30 7595 H 714.16 0.939102 3.76876 0
M  V30 7596 H 715.892 1.16193 3.87661 0
M  V30 7597 H 712.647 3.15196 3.5348 0
M  V30 7598 H 713.071 5.77305 3.53622 0
M  V30 7599 H 717.713 2.90726 3.06982 0
M  V30 7600 H 715.431 7.3501 3.35836 0
M  V30 7601 H 719.017 5.00626 2.9642 0
M  V30 7602 H 717.897 7.19958 3.10854 0
M  V30 7603 N 715.4 -1.26948 0.933913 0
M  V30 7604 C 716.648 -1.93704 0.576484 0
M  V30 7605 C 716.969 -1.73702 -0.886145 0
M  V30 7606 O 716.239 -1.08838 -1.62884 0
M  V30 7607 H 714.819 -0.716812 0.210214 0
M  V30 7608 H 717.481 -1.54534 1.18766 0
M  V30 7609 H 716.577 -3.01987 0.788055 0
M  V30 7610 N 716.879 -0.700114 -1.41195 0
M  V30 7611 C 718.128 -0.230082 -2.00383 0
M  V30 7612 C 718.441 1.17857 -1.56106 0
M  V30 7613 O 719.647 1.74631 -2.07885 0
M  V30 7614 C 718.103 -0.360447 -3.5809 0
M  V30 7615 C 717.711 -1.77475 -4.11347 0
M  V30 7616 C 719.455 0.0495799 -4.24471 0
M  V30 7617 C 717.362 -1.85653 -5.61504 0
M  V30 7618 H 716.292 -0.0822633 -0.749499 0
M  V30 7619 H 718.943 -0.868969 -1.6162 0
M  V30 7620 H 717.325 0.346768 -3.94479 0
M  V30 7621 H 718.499 -2.51109 -3.86369 0
M  V30 7622 H 716.814 -2.13486 -3.57509 0
M  V30 7623 H 719.411 0.00898219 -5.34699 0
M  V30 7624 H 719.754 1.08904 -4.01803 0
M  V30 7625 H 720.287 -0.607521 -3.93134 0
M  V30 7626 H 717.026 -2.87667 -5.89006 0
M  V30 7627 H 716.546 -1.1641 -5.88395 0
M  V30 7628 H 718.225 -1.62151 -6.26351 0
M  V30 7629 N 718.357 1.51182 -0.445186 0
M  V30 7630 C 719.287 2.30821 0.352686 0
M  V30 7631 C 720.268 1.36576 1.01395 0
M  V30 7632 O 721.453 1.65497 1.01609 0
M  V30 7633 C 718.583 3.15593 1.44976 0
M  V30 7634 C 717.537 4.1818 0.911553 0
M  V30 7635 C 716.863 4.91523 2.10497 0
M  V30 7636 C 718.163 5.22266 -0.059418 0
M  V30 7637 H 719.857 2.97771 -0.311936 0
M  V30 7638 H 717.403 1.43201 -0.151461 0
M  V30 7639 H 719.356 3.70091 2.01521 0
M  V30 7640 H 718.08 2.4648 2.14278 0
M  V30 7641 H 716.739 3.64746 0.368264 0
M  V30 7642 H 716.387 4.18906 2.78437 0
M  V30 7643 H 716.087 5.60898 1.7512 0
M  V30 7644 H 717.611 5.48847 2.6758 0
M  V30 7645 H 719.025 5.71789 0.415985 0
M  V30 7646 H 717.422 5.99213 -0.326152 0
M  V30 7647 H 718.492 4.7461 -0.993631 0
M  V30 7648 N 719.835 0.176821 1.56605 0
M  V30 7649 C 721.084 -0.466833 1.96223 0
M  V30 7650 C 721.397 -1.64015 1.06576 0
M  V30 7651 O 722.603 -2.3504 1.35898 0
M  V30 7652 C 721.059 -0.881921 3.48927 0
M  V30 7653 C 720.667 0.266102 4.47209 0
M  V30 7654 C 722.411 -1.49368 3.97353 0
M  V30 7655 C 720.318 -0.168923 5.91159 0
M  V30 7656 H 719.248 -0.178178 0.732645 0
M  V30 7657 H 721.899 0.265929 1.81563 0
M  V30 7658 H 720.281 -1.67082 3.59026 0
M  V30 7659 H 721.455 1.04349 4.4883 0
M  V30 7660 H 719.77 0.788178 4.08872 0
M  V30 7661 H 722.367 -1.8313 5.02362 0
M  V30 7662 H 722.71 -2.3936 3.40606 0
M  V30 7663 H 723.243 -0.769114 3.90294 0
M  V30 7664 H 719.982 0.696351 6.51791 0
M  V30 7665 H 719.502 -0.911552 5.92833 0
M  V30 7666 H 721.181 -0.610938 6.44109 0
M  V30 7667 N 721.313 -1.57302 -0.09688 0
M  V30 7668 C 722.276 -2.00976 -1.10188 0
M  V30 7669 C 723.276 -0.903009 -1.3305 0
M  V30 7670 O 724.466 -1.16853 -1.29194 0
M  V30 7671 C 721.598 -2.36893 -2.45142 0
M  V30 7672 H 722.791 -2.9098 -0.726003 0
M  V30 7673 H 720.344 -1.52515 -0.341872 0
M  V30 7674 H 721.079 -1.49837 -2.8761 0
M  V30 7675 H 720.864 -3.17632 -2.29897 0
M  V30 7676 H 722.354 -2.71345 -3.1743 0
M  V30 7677 N 722.791 0.367657 -1.53252 0
M  V30 7678 C 723.754 1.43308 -1.78873 0
M  V30 7679 C 724.754 1.46671 -0.659115 0
M  V30 7680 O 725.944 1.47468 -0.927306 0
M  V30 7681 C 723.076 2.82442 -1.90892 0
M  V30 7682 H 724.269 1.21864 -2.74024 0
M  V30 7683 H 721.822 0.600668 -1.44297 0
M  V30 7684 H 722.557 3.09202 -0.978 0
M  V30 7685 H 722.342 2.81399 -2.73051 0
M  V30 7686 H 723.832 3.59601 -2.12314 0
M  V30 7687 N 724.269 1.44576 0.627338 0
M  V30 7688 C 725.518 1.46837 1.38281 0
M  V30 7689 C 725.831 0.10635 1.95311 0
M  V30 7690 O 727.037 0.00651084 2.71499 0
M  V30 7691 C 725.493 2.58527 2.50384 0
M  V30 7692 C 725.101 4.00953 1.99851 0
M  V30 7693 C 726.845 2.70013 3.27557 0
M  V30 7694 C 724.752 5.0406 3.09318 0
M  V30 7695 H 723.682 0.546319 0.519664 0
M  V30 7696 H 726.333 1.70654 0.674497 0
M  V30 7697 H 724.715 2.27957 3.23808 0
M  V30 7698 H 725.889 4.41108 1.33267 0
M  V30 7699 H 724.204 3.93743 1.35482 0
M  V30 7700 H 726.801 3.44217 4.09168 0
M  V30 7701 H 727.144 1.75961 3.77284 0
M  V30 7702 H 727.677 3.00011 2.61224 0
M  V30 7703 H 724.416 5.99753 2.6453 0
M  V30 7704 H 723.936 4.68493 3.74532 0
M  V30 7705 H 725.615 5.2793 3.74031 0
M  V30 7706 N 725.747 -0.868086 1.31537 0
M  V30 7707 C 726.677 -1.99131 1.21939 0
M  V30 7708 C 727.658 -1.69768 0.106166 0
M  V30 7709 O 728.843 -1.92006 0.291081 0
M  V30 7710 C 725.973 -3.34676 0.927879 0
M  V30 7711 C 724.927 -3.7835 2.00088 0
M  V30 7712 C 724.253 -5.11375 1.56203 0
M  V30 7713 C 725.553 -3.95256 3.41424 0
M  V30 7714 H 727.247 -2.07419 2.15911 0
M  V30 7715 H 724.793 -0.996569 1.03945 0
M  V30 7716 H 726.746 -4.12793 0.847327 0
M  V30 7717 H 725.47 -3.26565 -0.0475042 0
M  V30 7718 H 724.129 -3.02474 2.07135 0
M  V30 7719 H 723.777 -4.99709 0.57445 0
M  V30 7720 H 723.477 -5.41568 2.27985 0
M  V30 7721 H 725.001 -5.92001 1.49558 0
M  V30 7722 H 726.415 -4.63764 3.3704 0
M  V30 7723 H 724.812 -4.36849 4.1144 0
M  V30 7724 H 725.882 -2.98579 3.82072 0
M  V30 7725 N 727.225 -1.14528 -1.08264 0
M  V30 7726 C 728.135 -0.84728 -2.18765 0
M  V30 7727 C 729.151 0.172826 -1.7314 0
M  V30 7728 O 730.327 0.000985336 -2.014 0
M  V30 7729 C 727.392 -0.330633 -3.4512 0
M  V30 7730 C 726.453 -1.41348 -4.05363 0
M  V30 7731 C 725.686 -0.921387 -5.25686 0
M  V30 7732 O 725.909 0.236587 -5.69909 0
M  V30 7733 O 724.843 -1.70101 -5.77364 0
M  V30 7734 H 728.669 -1.7708 -2.46731 0
M  V30 7735 H 726.254 -0.923661 -1.17426 0
M  V30 7736 H 728.136 -0.0485053 -4.21372 0
M  V30 7737 H 726.811 0.565147 -3.18728 0
M  V30 7738 H 725.718 -1.74908 -3.30693 0
M  V30 7739 H 727.051 -2.28383 -4.36007 0
M  V30 7740 N 728.703 1.26451 -0.940633 0
M  V30 7741 C 729.633 2.28773 -0.467479 0
M  V30 7742 C 730.614 1.63218 0.478955 0
M  V30 7743 O 731.799 1.90427 0.380929 0
M  V30 7744 C 728.929 3.46259 0.268656 0
M  V30 7745 C 727.883 4.23898 -0.591171 0
M  V30 7746 C 727.209 5.33993 0.274891 0
M  V30 7747 C 728.509 4.87974 -1.86223 0
M  V30 7748 H 730.203 2.68601 -1.32265 0
M  V30 7749 H 727.749 1.29123 -0.637436 0
M  V30 7750 H 729.702 4.16951 0.610696 0
M  V30 7751 H 728.426 3.05383 1.15796 0
M  V30 7752 H 727.085 3.54969 -0.916098 0
M  V30 7753 H 726.733 4.89358 1.16353 0
M  V30 7754 H 726.433 5.86849 -0.297006 0
M  V30 7755 H 727.957 6.07523 0.612213 0
M  V30 7756 H 729.371 5.50883 -1.58747 0
M  V30 7757 H 727.768 5.50945 -2.37866 0
M  V30 7758 H 728.838 4.10945 -2.57394 0
M  V30 7759 N 730.181 0.707592 1.40822 0
M  V30 7760 C 731.427 0.244031 2.01326 0
M  V30 7761 C 731.76 -1.15722 1.55955 0
M  V30 7762 O 731.035 -1.78347 0.776044 0
M  V30 7763 C 731.318 0.315128 3.58718 0
M  V30 7764 C 731.171 1.75419 4.14184 0
M  V30 7765 C 732.49 -0.318251 4.38948 0
M  V30 7766 H 729.609 0.0901471 0.731466 0
M  V30 7767 H 732.251 0.898584 1.67408 0
M  V30 7768 H 730.401 -0.242176 3.87744 0
M  V30 7769 H 732.073 2.36626 3.95987 0
M  V30 7770 H 730.316 2.28449 3.68773 0
M  V30 7771 H 730.987 1.75538 5.23345 0
M  V30 7772 H 733.463 0.156514 4.15806 0
M  V30 7773 H 732.339 -0.238019 5.48384 0
M  V30 7774 H 732.6 -1.40067 4.19325 0
M  V30 7775 N 731.66 -1.50943 0.453197 0
M  V30 7776 C 732.908 -2.01813 -0.107709 0
M  V30 7777 C 733.229 -1.33841 -1.41816 0
M  V30 7778 O 732.499 -0.477973 -1.8998 0
M  V30 7779 H 731.079 -0.745773 -0.0427948 0
M  V30 7780 H 733.741 -1.8545 0.599531 0
M  V30 7781 H 732.837 -3.10911 -0.27218 0
M  V30 7782 N 733.138 -0.185124 -1.56509 0
M  V30 7783 C 734.387 0.456421 -1.96468 0
M  V30 7784 C 734.7 1.63448 -1.07444 0
M  V30 7785 O 735.906 2.34316 -1.37143 0
M  V30 7786 C 734.362 0.863404 -3.4939 0
M  V30 7787 C 733.97 -0.289815 -4.47062 0
M  V30 7788 C 735.714 1.47259 -3.98139 0
M  V30 7789 C 733.621 0.137571 -5.9124 0
M  V30 7790 H 732.551 0.17429 -0.733579 0
M  V30 7791 H 735.202 -0.275554 -1.81419 0
M  V30 7792 H 733.584 1.65176 -3.59907 0
M  V30 7793 H 734.758 -1.06728 -4.4827 0
M  V30 7794 H 733.073 -0.809851 -4.08449 0
M  V30 7795 H 735.67 1.80463 -5.03326 0
M  V30 7796 H 736.013 2.3755 -3.41871 0
M  V30 7797 H 736.546 0.748405 -3.90696 0
M  V30 7798 H 733.285 -0.730907 -6.51412 0
M  V30 7799 H 732.805 0.8801 -5.93308 0
M  V30 7800 H 734.484 0.576771 -6.44424 0
M  V30 7801 N 734.616 1.57351 0.0885366 0
M  V30 7802 C 735.865 1.85604 0.789556 0
M  V30 7803 C 736.178 0.775352 1.79576 0
M  V30 7804 O 737.384 0.945206 2.54515 0
M  V30 7805 C 735.84 3.29175 1.45506 0
M  V30 7806 C 735.448 4.45331 0.488278 0
M  V30 7807 C 737.192 3.66646 2.13942 0
M  V30 7808 C 735.099 5.79937 1.15874 0
M  V30 7809 H 734.029 0.692346 0.298619 0
M  V30 7810 H 736.68 1.83451 0.0425821 0
M  V30 7811 H 735.062 3.25889 2.24972 0
M  V30 7812 H 736.236 4.59977 -0.275359 0
M  V30 7813 H 734.551 4.16301 -0.0907363 0
M  V30 7814 H 737.148 4.64498 2.6485 0
M  V30 7815 H 737.491 2.956 2.93132 0
M  V30 7816 H 738.024 3.71848 1.41328 0
M  V30 7817 H 734.763 6.54232 0.407508 0
M  V30 7818 H 734.283 5.69123 1.89364 0
M  V30 7819 H 735.962 6.24718 1.68336 0
M  V30 7820 N 736.094 -0.359525 1.53444 0
M  V30 7821 C 737.34 -1.09958 1.71116 0
M  V30 7822 C 737.695 -1.8681 0.460414 0
M  V30 7823 O 736.988 -1.83635 -0.5467 0
M  V30 7824 C 737.182 -2.08287 2.90433 0
M  V30 7825 C 737.011 -1.41098 4.26991 0
M  V30 7826 C 735.781 -1.16255 4.91745 0
M  V30 7827 C 737.979 -0.845517 5.07302 0
M  V30 7828 N 735.961 -0.454798 6.12213 0
M  V30 7829 C 737.332 -0.267455 6.19423 0
M  V30 7830 C 739.387 -0.744797 4.92298 0
M  V30 7831 C 738.09 0.401511 7.18179 0
M  V30 7832 C 740.116 -0.0896013 5.91332 0
M  V30 7833 C 739.478 0.47756 7.02779 0
M  V30 7834 H 735.577 -0.387305 0.679352 0
M  V30 7835 H 738.161 -0.38519 1.90852 0
M  V30 7836 H 736.332 -2.77034 2.72226 0
M  V30 7837 H 738.064 -2.75015 2.96899 0
M  V30 7838 H 734.819 -1.44544 4.51003 0
M  V30 7839 H 735.243 -0.116108 6.769 0
M  V30 7840 H 739.885 -1.16905 4.06317 0
M  V30 7841 H 737.603 0.837694 8.03746 0
M  V30 7842 H 741.189 -0.0125162 5.81799 0
M  V30 7843 H 740.069 0.976522 7.78096 0
M  V30 7844 N 737.572 -1.44907 -0.619662 0
M  V30 7845 C 738.821 -1.47569 -1.37501 0
M  V30 7846 C 739.134 -0.116707 -1.95252 0
M  V30 7847 O 740.34 -0.020909 -2.71492 0
M  V30 7848 C 738.796 -2.59851 -2.49009 0
M  V30 7849 C 738.404 -4.02008 -1.97722 0
M  V30 7850 C 740.148 -2.71746 -3.2612 0
M  V30 7851 C 738.055 -5.05693 -3.0664 0
M  V30 7852 H 736.985 -0.549068 -0.51676 0
M  V30 7853 H 739.636 -1.71009 -0.665437 0
M  V30 7854 H 738.018 -2.29671 -3.22594 0
M  V30 7855 H 739.192 -4.41809 -1.30925 0
M  V30 7856 H 737.507 -3.94456 -1.33392 0
M  V30 7857 H 740.104 -3.46382 -4.07337 0
M  V30 7858 H 740.447 -1.77959 -3.76346 0
M  V30 7859 H 740.98 -3.01392 -2.5963 0
M  V30 7860 H 737.719 -6.01148 -2.61345 0
M  V30 7861 H 737.239 -4.70473 -3.72042 0
M  V30 7862 H 738.918 -5.29906 -3.71226 0
M  V30 7863 N 739.05 0.861098 -1.31996 0
M  V30 7864 C 740.28 1.64501 -1.24992 0
M  V30 7865 C 740.688 1.88288 0.185576 0
M  V30 7866 O 740.031 1.44756 1.131 0
M  V30 7867 C 740.093 3.03098 -1.93319 0
M  V30 7868 C 739.757 3.02381 -3.42658 0
M  V30 7869 C 740.754 2.79696 -4.38254 0
M  V30 7870 C 738.439 3.23221 -3.84491 0
M  V30 7871 C 740.433 2.77843 -5.73657 0
M  V30 7872 C 738.12 3.20996 -5.20005 0
M  V30 7873 C 739.118 2.98335 -6.14398 0
M  V30 7874 O 738.806 2.95971 -7.47433 0
M  V30 7875 H 738.538 0.519309 -0.432775 0
M  V30 7876 H 741.092 1.08241 -1.74565 0
M  V30 7877 H 739.322 3.61121 -1.38306 0
M  V30 7878 H 741.011 3.63751 -1.8011 0
M  V30 7879 H 741.777 2.63368 -4.07262 0
M  V30 7880 H 737.656 3.39887 -3.11445 0
M  V30 7881 H 741.2 2.60074 -6.47308 0
M  V30 7882 H 737.097 3.36865 -5.50629 0
M  V30 7883 H 737.865 3.1197 -7.56714 0
M  V30 7884 N 740.528 1.15101 1.07655 0
M  V30 7885 C 741.776 0.922149 1.79836 0
M  V30 7886 C 742.097 -0.552346 1.87014 0
M  V30 7887 O 741.367 -1.40145 1.3688 0
M  V30 7888 H 739.947 0.338182 0.666064 0
M  V30 7889 H 742.609 1.45107 1.30115 0
M  V30 7890 H 741.705 1.32883 2.82398 0
M  V30 7891 N 742.006 -1.2595 0.947325 0
M  V30 7892 C 743.254 -1.93081 0.596996 0
M  V30 7893 C 743.575 -1.74632 -0.867672 0
M  V30 7894 O 742.845 -1.1056 -1.6172 0
M  V30 7895 H 741.425 -0.714542 0.217805 0
M  V30 7896 H 744.087 -1.53265 1.20398 0
M  V30 7897 H 743.183 -3.01134 0.82004 0
M  V30 7898 N 743.484 -0.715051 -1.40445 0
M  V30 7899 C 744.432 -0.0509974 -2.32544 0
M  V30 7900 C 745.426 0.747602 -1.52011 0
M  V30 7901 O 746.632 0.651031 -1.67814 0
M  V30 7902 H 743.007 0.00231113 -0.751996 0
M  V30 7903 H 744.978 -0.84449 -2.86201 0
M  V30 7904 C 743.727 0.857101 -3.3697 0
M  V30 7905 H 743.05 0.252 -3.99005 0
M  V30 7906 H 744.49 1.28971 -4.03909 0
M  V30 7907 C 742.949 1.98231 -2.72408 0
M  V30 7908 O 743.479 3.07309 -2.58697 0
M  V30 7909 N 741.685 1.76577 -2.308 0
M  V30 7910 H 741.232 0.878641 -2.42152 0
M  V30 7911 H 741.19 2.52043 -1.87941 0
M  V30 7912 N 744.962 1.50701 -0.461195 0
M  V30 7913 C 746.378 1.59187 -0.114786 0
M  V30 7914 C 746.578 1.4702 1.37794 0
M  V30 7915 O 745.634 1.32361 2.15027 0
M  V30 7916 C 746.947 2.93453 -0.656167 0
M  V30 7917 C 748.495 3.06824 -0.618715 0
M  V30 7918 C 748.97 4.4365 -1.13747 0
M  V30 7919 N 750.461 4.50035 -1.09646 0
M  V30 7920 C 751.196 5.54278 -1.46846 0
M  V30 7921 N 750.692 6.65822 -1.91448 0
M  V30 7922 N 752.485 5.44767 -1.38512 0
M  V30 7923 H 744.636 1.56853 -1.43216 0
M  V30 7924 H 746.899 0.740712 -0.59165 0
M  V30 7925 H 746.605 3.07802 -1.7015 0
M  V30 7926 H 746.479 3.77082 -0.0942261 0
M  V30 7927 H 748.866 2.92129 0.417685 0
M  V30 7928 H 748.947 2.24976 -1.21734 0
M  V30 7929 H 748.591 4.59093 -2.17245 0
M  V30 7930 H 748.521 5.24074 -0.515153 0
M  V30 7931 H 751.012 3.69988 -0.769217 0
M  V30 7932 H 751.325 7.41413 -2.18007 0
M  V30 7933 H 749.67 6.66968 -1.95393 0
M  V30 7934 H 752.861 4.56511 -1.03516 0
M  V30 7935 H 753.034 6.25889 -1.6783 0
M  V30 7936 N 746.441 0.193421 1.56409 0
M  V30 7937 C 747.688 -0.445789 1.97532 0
M  V30 7938 C 748.016 -1.61744 1.08024 0
M  V30 7939 O 747.271 -1.95338 0.118982 0
M  V30 7940 C 747.57 -0.949718 3.44551 0
M  V30 7941 C 747.236 0.108383 4.5077 0
M  V30 7942 C 745.898 0.399126 4.79542 0
M  V30 7943 C 748.25 0.825423 5.14622 0
M  V30 7944 C 745.578 1.41192 5.69457 0
M  V30 7945 C 747.93 1.82735 6.05632 0
M  V30 7946 C 746.594 2.12531 6.32761 0
M  V30 7947 H 745.864 -0.163126 0.722822 0
M  V30 7948 H 748.511 0.290035 1.89291 0
M  V30 7949 H 746.816 -1.76378 3.49854 0
M  V30 7950 H 748.513 -1.45367 3.73724 0
M  V30 7951 H 745.103 -0.128392 4.28408 0
M  V30 7952 H 749.287 0.61403 4.92487 0
M  V30 7953 H 744.543 1.6487 5.88751 0
M  V30 7954 H 748.717 2.3882 6.5417 0
M  V30 7955 H 746.344 2.91155 7.02234 0
M  V30 7956 N 747.919 -1.57396 -0.0801906 0
M  V30 7957 C 749.168 -1.8602 -0.779702 0
M  V30 7958 C 749.481 -0.784864 -1.79163 0
M  V30 7959 O 750.687 -0.958691 -2.54011 0
M  V30 7960 C 749.143 -3.29942 -1.43758 0
M  V30 7961 C 748.751 -4.45584 -0.464654 0
M  V30 7962 C 750.495 -3.67775 -2.11995 0
M  V30 7963 C 748.402 -5.80544 -1.12797 0
M  V30 7964 H 747.332 -0.69392 -0.294943 0
M  V30 7965 H 749.983 -1.83471 -0.0328527 0
M  V30 7966 H 748.365 -3.27078 -2.2324 0
M  V30 7967 H 749.539 -4.59824 0.299749 0
M  V30 7968 H 747.854 -4.16247 0.112813 0
M  V30 7969 H 750.451 -4.65896 -2.62383 0
M  V30 7970 H 750.794 -2.9715 -2.91561 0
M  V30 7971 H 751.327 -3.72593 -1.39354 0
M  V30 7972 H 748.066 -6.54439 -0.372807 0
M  V30 7973 H 747.586 -5.70119 -1.86344 0
M  V30 7974 H 749.265 -6.25602 -1.6502 0
M  V30 7975 N 749.397 0.351382 -1.53633 0
M  V30 7976 C 750.307 1.45471 -1.84052 0
M  V30 7977 C 751.323 1.57945 -0.730015 0
M  V30 7978 O 752.499 1.73571 -1.02153 0
M  V30 7979 C 749.564 2.80562 -2.03681 0
M  V30 7980 C 748.625 2.77497 -3.27558 0
M  V30 7981 C 747.858 4.06144 -3.46241 0
M  V30 7982 O 748.081 5.03028 -2.68922 0
M  V30 7983 O 747.015 4.11092 -4.39645 0
M  V30 7984 H 750.841 1.22684 -2.77817 0
M  V30 7985 H 748.426 0.542827 -1.3919 0
M  V30 7986 H 750.308 3.6058 -2.18082 0
M  V30 7987 H 748.983 3.03296 -1.13106 0
M  V30 7988 H 747.89 1.96126 -3.18568 0
M  V30 7989 H 749.223 2.59716 -4.18101 0
M  V30 7990 N 750.875 1.45233 0.611969 0
M  V30 7991 C 752.152 1.39495 1.37115 0
M  V30 7992 C 752.532 0.0633303 2.11005 0
M  V30 7993 O 751.88 -0.954617 2.07604 0
M  V30 7994 C 752.09 2.60579 2.32163 0
M  V30 7995 C 753.438 3.05477 2.94905 0
M  V30 7996 O 754.462 2.60921 2.42485 0
M  V30 7997 O 753.321 3.82787 3.90047 0
M  V30 7998 H 750.415 0.55335 0.614599 0
M  V30 7999 H 752.961 1.57355 0.635423 0
M  V30 8000 H 751.733 3.49085 1.76793 0
M  V30 8001 H 751.356 2.45031 3.13122 0
M  V30 8002 N 752.353 -0.854086 1.3245 0
M  V30 8003 C 753.581 -1.64074 1.26045 0
M  V30 8004 C 753.996 -1.8802 -0.171456 0
M  V30 8005 O 753.353 -1.4496 -1.10873 0
M  V30 8006 C 753.404 -2.9997 2.01743 0
M  V30 8007 O 753.125 -2.77084 3.39346 0
M  V30 8008 C 754.626 -3.94414 2.02368 0
M  V30 8009 H 751.846 -0.511015 0.434862 0
M  V30 8010 H 754.39 -1.06494 1.74583 0
M  V30 8011 H 752.545 -3.54193 1.56926 0
M  V30 8012 H 752.959 -3.63514 3.78098 0
M  V30 8013 H 754.433 -4.87032 2.59815 0
M  V30 8014 H 754.91 -4.27427 1.01009 0
M  V30 8015 H 755.516 -3.46127 2.47135 0
M  V30 8016 N 753.831 -1.1567 -1.07043 0
M  V30 8017 C 754.741 -0.870435 -2.17855 0
M  V30 8018 C 755.757 0.154452 -1.73313 0
M  V30 8019 O 756.933 -0.0203759 -2.0139 0
M  V30 8020 C 753.998 -0.367219 -3.4475 0
M  V30 8021 C 753.059 -1.45639 -4.03841 0
M  V30 8022 C 752.292 -0.977092 -5.2468 0
M  V30 8023 O 752.515 0.176127 -5.70128 0
M  V30 8024 O 751.449 -1.76215 -5.75527 0
M  V30 8025 H 755.275 -1.79687 -2.44839 0
M  V30 8026 H 752.86 -0.936064 -1.1644 0
M  V30 8027 H 754.742 -0.0931947 -4.21297 0
M  V30 8028 H 753.417 0.53131 -3.1931 0
M  V30 8029 H 752.324 -1.78406 -3.28819 0
M  V30 8030 H 753.657 -2.32995 -4.3356 0
M  V30 8031 N 755.309 1.25446 -0.953992 0
M  V30 8032 C 756.242 2.24341 -0.417912 0
M  V30 8033 C 757.22 1.54709 0.5004 0
M  V30 8034 O 758.404 1.83414 0.434923 0
M  V30 8035 C 755.531 3.36352 0.398155 0
M  V30 8036 C 754.577 4.24007 -0.460461 0
M  V30 8037 S 755.41 5.00951 -1.89231 0
M  V30 8038 C 756.566 6.1643 -1.08465 0
M  V30 8039 H 756.799 2.69465 -1.25602 0
M  V30 8040 H 754.332 1.34512 -0.758018 0
M  V30 8041 H 756.29 4.01325 0.863059 0
M  V30 8042 H 754.951 2.89813 1.21108 0
M  V30 8043 H 754.144 5.03728 0.165415 0
M  V30 8044 H 753.746 3.63965 -0.860549 0
M  V30 8045 H 756.038 6.76681 -0.333017 0
M  V30 8046 H 756.981 6.8335 -1.85577 0
M  V30 8047 H 757.389 5.61139 -0.615062 0
M  V30 8048 N 756.787 0.722489 1.40064 0
M  V30 8049 C 757.72 0.0233443 2.28188 0
M  V30 8050 C 758.698 -0.7606 1.43714 0
M  V30 8051 O 759.882 -0.745791 1.73119 0
M  V30 8052 C 757.009 -0.974264 3.24385 0
M  V30 8053 C 756.055 -0.280307 4.25578 0
M  V30 8054 S 756.888 0.996769 5.26141 0
M  V30 8055 C 758.044 0.00143923 6.259 0
M  V30 8056 H 758.277 0.770705 2.87137 0
M  V30 8057 H 755.81 0.513783 1.45601 0
M  V30 8058 H 757.768 -1.5446 3.80332 0
M  V30 8059 H 756.429 -1.69438 2.6448 0
M  V30 8060 H 755.622 -1.03471 4.93264 0
M  V30 8061 H 755.224 0.217657 3.73366 0
M  V30 8062 H 757.516 -0.843126 6.72233 0
M  V30 8063 H 758.459 0.645104 7.05155 0
M  V30 8064 H 758.867 -0.365371 5.63316 0
M  V30 8065 N 758.265 -1.50454 0.469181 0
M  V30 8066 C 759.514 -2.01507 -0.0881425 0
M  V30 8067 C 759.827 -1.35613 -1.40956 0
M  V30 8068 O 761.033 -1.77812 -2.05171 0
M  V30 8069 C 759.489 -3.59301 -0.207596 0
M  V30 8070 C 759.097 -4.34152 1.10527 0
M  V30 8071 C 760.841 -4.18401 -0.716981 0
M  V30 8072 C 758.748 -5.83725 0.949717 0
M  V30 8073 H 757.678 -0.753106 -0.0367156 0
M  V30 8074 H 760.329 -1.73282 0.603788 0
M  V30 8075 H 758.711 -3.84106 -0.963265 0
M  V30 8076 H 759.885 -4.21073 1.87175 0
M  V30 8077 H 758.2 -3.86652 1.54562 0
M  V30 8078 H 760.797 -5.27895 -0.850363 0
M  V30 8079 H 761.14 -3.79657 -1.70782 0
M  V30 8080 H 761.673 -3.97796 -0.0187511 0
M  V30 8081 H 758.412 -6.26938 1.91387 0
M  V30 8082 H 757.932 -5.99383 0.223591 0
M  V30 8083 H 759.611 -6.44065 0.61557 0
M  V30 8084 N 759.743 -0.201713 -1.56304 0
M  V30 8085 C 760.991 0.434447 -1.97375 0
M  V30 8086 C 761.312 1.61692 -1.08998 0
M  V30 8087 O 760.582 1.95223 -0.162682 0
M  V30 8088 H 759.162 0.163497 -0.728888 0
M  V30 8089 H 761.824 -0.289988 -1.92731 0
M  V30 8090 H 760.92 0.774136 -3.02347 0
M  V30 8091 N 761.222 1.57436 0.0718424 0
M  V30 8092 C 762.185 2.02703 1.06977 0
M  V30 8093 C 763.185 0.924062 1.31597 0
M  V30 8094 O 764.375 1.18894 1.27318 0
M  V30 8095 C 761.507 2.40763 2.41342 0
M  V30 8096 H 762.7 2.92098 0.679619 0
M  V30 8097 H 760.253 1.5304 0.317565 0
M  V30 8098 H 760.988 1.54394 2.8519 0
M  V30 8099 H 760.773 3.21249 2.24814 0
M  V30 8100 H 762.263 2.76361 3.13073 0
M  V30 8101 N 762.7 -0.34323 1.53817 0
M  V30 8102 C 763.647 -1.42153 1.81827 0
M  V30 8103 C 764.617 -1.52251 0.663996 0
M  V30 8104 O 765.802 -1.67784 0.908461 0
M  V30 8105 C 762.942 -2.78799 2.03384 0
M  V30 8106 C 762.055 -2.7749 3.31094 0
M  V30 8107 C 761.19 -4.05856 3.42717 0
M  V30 8108 C 760.229 -3.98776 4.64375 0
M  V30 8109 N 759.366 -5.18833 4.73029 0
M  V30 8110 H 764.206 -1.17567 2.73829 0
M  V30 8111 H 761.743 -0.569506 1.35628 0
M  V30 8112 H 763.701 -3.58211 2.13872 0
M  V30 8113 H 762.331 -3.01736 1.14696 0
M  V30 8114 H 761.383 -1.90182 3.29446 0
M  V30 8115 H 762.695 -2.68137 4.206 0
M  V30 8116 H 761.849 -4.93691 3.52638 0
M  V30 8117 H 760.588 -4.1799 2.51267 0
M  V30 8118 H 759.593 -3.09325 4.5453 0
M  V30 8119 H 760.818 -3.88224 5.57189 0
M  V30 8120 H 758.764 -5.31511 3.84489 0
M  V30 8121 H 758.681 -5.11737 5.56472 0
M  V30 8122 H 759.949 -6.08439 4.87261 0
M  V30 8123 N 764.178 -1.45556 -0.604258 0
M  V30 8124 C 765.594 -1.30035 -0.925368 0
M  V30 8125 C 765.794 -0.255833 -1.99869 0
M  V30 8126 O 764.85 0.349076 -2.50075 0
M  V30 8127 C 766.163 -2.68028 -1.36314 0
M  V30 8128 C 767.711 -2.75951 -1.47717 0
M  V30 8129 C 768.186 -4.14476 -1.94868 0
M  V30 8130 N 769.677 -4.16787 -2.02097 0
M  V30 8131 C 770.412 -5.20845 -2.39809 0
M  V30 8132 N 769.908 -6.35246 -2.76467 0
M  V30 8133 N 771.701 -5.08204 -2.40177 0
M  V30 8134 H 763.852 -2.1214 0.10512 0
M  V30 8135 H 766.115 -0.947871 -0.0156303 0
M  V30 8136 H 765.821 -3.45667 -0.648628 0
M  V30 8137 H 765.695 -2.96711 -2.329 0
M  V30 8138 H 768.082 -1.98613 -2.18258 0
M  V30 8139 H 768.163 -2.50977 -0.494371 0
M  V30 8140 H 767.807 -4.923 -1.24912 0
M  V30 8141 H 767.737 -4.36843 -2.94068 0
M  V30 8142 H 770.228 -3.34233 -1.76343 0
M  V30 8143 H 770.541 -7.10438 -3.04134 0
M  V30 8144 H 768.886 -6.38642 -2.74155 0
M  V30 8145 H 772.077 -4.17874 -2.10947 0
M  V30 8146 H 772.25 -5.89417 -2.69242 0
M  V30 8147 N 765.656 0.84705 -1.32902 0
M  V30 8148 C 766.902 1.60389 -1.25088 0
M  V30 8149 C 767.257 1.91521 0.183723 0
M  V30 8150 O 766.55 1.55197 1.12359 0
M  V30 8151 C 766.744 2.92663 -2.05142 0
M  V30 8152 C 766.573 2.74449 -3.56241 0
M  V30 8153 C 765.343 2.72434 -4.25567 0
M  V30 8154 C 767.541 2.47666 -4.5074 0
M  V30 8155 N 765.523 2.45512 -5.62669 0
M  V30 8156 C 766.894 2.30219 -5.75673 0
M  V30 8157 C 768.949 2.33196 -4.39914 0
M  V30 8158 C 767.652 1.99772 -6.91002 0
M  V30 8159 C 769.678 2.0414 -5.5505 0
M  V30 8160 C 769.04 1.875 -6.78987 0
M  V30 8161 H 765.139 0.590296 -0.512908 0
M  V30 8162 H 767.723 0.995058 -1.67352 0
M  V30 8163 H 765.894 3.51511 -1.65211 0
M  V30 8164 H 767.626 3.5777 -1.89163 0
M  V30 8165 H 764.381 2.85647 -3.7776 0
M  V30 8166 H 764.805 2.34958 -6.3492 0
M  V30 8167 H 769.447 2.44777 -3.44738 0
M  V30 8168 H 767.165 1.86928 -7.86183 0
M  V30 8169 H 770.751 1.93711 -5.48605 0
M  V30 8170 H 769.631 1.65339 -7.66572 0
M  V30 8171 N 767.134 1.16236 1.06428 0
M  V30 8172 C 768.383 0.937523 1.78587 0
M  V30 8173 C 768.696 -0.536 1.88113 0
M  V30 8174 O 769.902 -0.878697 2.56887 0
M  V30 8175 C 768.358 1.62808 3.2097 0
M  V30 8176 C 767.966 3.13927 3.19615 0
M  V30 8177 C 769.71 1.48515 3.97673 0
M  V30 8178 C 767.617 3.75727 4.56709 0
M  V30 8179 H 766.547 0.347125 0.669343 0
M  V30 8180 H 769.198 1.39353 1.19385 0
M  V30 8181 H 767.58 1.09977 3.80422 0
M  V30 8182 H 768.754 3.7359 2.69753 0
M  V30 8183 H 767.069 3.28089 2.56411 0
M  V30 8184 H 769.666 1.92069 4.99013 0
M  V30 8185 H 770.009 0.433913 4.14032 0
M  V30 8186 H 770.542 1.98494 3.44739 0
M  V30 8187 H 767.281 4.80793 4.45554 0
M  V30 8188 H 766.801 3.20849 5.0677 0
M  V30 8189 H 768.48 3.77203 5.25668 0
M  V30 8190 N 768.612 -1.24939 0.960631 0
M  V30 8191 C 769.859 -1.92818 0.618663 0
M  V30 8192 C 770.187 -1.75177 -0.845173 0
M  V30 8193 O 769.442 -1.09412 -1.62258 0
M  V30 8194 C 769.741 -3.45066 0.930809 0
M  V30 8195 C 769.407 -3.82869 2.38164 0
M  V30 8196 C 768.069 -3.92899 2.7782 0
M  V30 8197 C 770.421 -4.01483 3.32356 0
M  V30 8198 C 767.749 -4.18955 4.10723 0
M  V30 8199 C 770.101 -4.29033 4.6488 0
M  V30 8200 C 768.765 -4.37282 5.04322 0
M  V30 8201 H 768.035 -0.705571 0.226385 0
M  V30 8202 H 770.682 -1.48365 1.21079 0
M  V30 8203 H 768.987 -3.9096 0.256355 0
M  V30 8204 H 770.684 -3.95783 0.644712 0
M  V30 8205 H 767.274 -3.75622 2.06413 0
M  V30 8206 H 771.458 -3.93143 3.02907 0
M  V30 8207 H 766.714 -4.23558 4.40918 0
M  V30 8208 H 770.888 -4.42381 5.3784 0
M  V30 8209 H 768.515 -4.57225 6.0733 0
M  V30 8210 N 770.09 -0.729906 -1.39679 0
M  V30 8211 C 771.336 -0.284905 -2.01395 0
M  V30 8212 C 771.691 1.11394 -1.56873 0
M  V30 8213 O 770.984 1.74765 -0.785342 0
M  V30 8214 C 771.178 -0.319564 -3.55968 0
M  V30 8215 C 771.007 -1.72024 -4.15497 0
M  V30 8216 C 769.777 -2.33128 -4.48307 0
M  V30 8217 C 771.975 -2.67296 -4.39383 0
M  V30 8218 N 769.957 -3.65403 -4.93309 0
M  V30 8219 C 771.328 -3.84298 -4.86534 0
M  V30 8220 C 773.383 -2.65124 -4.21442 0
M  V30 8221 C 772.086 -4.99455 -5.17627 0
M  V30 8222 C 774.112 -3.7942 -4.53646 0
M  V30 8223 C 773.474 -4.95156 -5.00999 0
M  V30 8224 H 769.573 -0.1504 -0.767401 0
M  V30 8225 H 772.157 -0.954783 -1.69682 0
M  V30 8226 H 770.328 0.319938 -3.8708 0
M  V30 8227 H 772.06 0.143504 -4.04445 0
M  V30 8228 H 768.815 -1.85097 -4.35931 0
M  V30 8229 H 769.239 -4.33298 -5.20175 0
M  V30 8230 H 773.881 -1.76842 -3.8404 0
M  V30 8231 H 771.599 -5.88371 -5.53937 0
M  V30 8232 H 775.185 -3.79031 -4.41392 0
M  V30 8233 H 774.065 -5.82131 -5.25446 0
M  V30 8234 N 771.568 1.50203 -0.477153 0
M  V30 8235 C 772.498 2.31517 0.303646 0
M  V30 8236 C 773.479 1.38696 0.984753 0
M  V30 8237 O 774.664 1.67615 0.980758 0
M  V30 8238 C 771.794 3.18598 1.38249 0
M  V30 8239 C 770.748 4.2002 0.822645 0
M  V30 8240 C 770.074 4.95878 2.00024 0
M  V30 8241 C 771.374 5.22023 -0.170185 0
M  V30 8242 H 773.068 2.97042 -0.375027 0
M  V30 8243 H 770.614 1.42848 -0.181802 0
M  V30 8244 H 772.567 3.74282 1.93625 0
M  V30 8245 H 771.291 2.5097 2.09002 0
M  V30 8246 H 769.95 3.65445 0.290813 0
M  V30 8247 H 769.598 4.24717 2.69489 0
M  V30 8248 H 769.298 5.64487 1.63183 0
M  V30 8249 H 770.822 5.54399 2.55878 0
M  V30 8250 H 772.236 5.72543 0.294606 0
M  V30 8251 H 770.633 5.98386 -0.453181 0
M  V30 8252 H 771.703 4.72396 -1.09408 0
M  V30 8253 N 773.046 0.209999 1.56195 0
M  V30 8254 C 774.292 -0.418742 1.99043 0
M  V30 8255 C 774.647 -1.58201 1.095 0
M  V30 8256 O 773.94 -1.91069 0.1425 0
M  V30 8257 C 774.134 -0.91312 3.45539 0
M  V30 8258 C 773.963 0.200706 4.49252 0
M  V30 8259 C 772.733 0.663287 5.00928 0
M  V30 8260 C 774.931 1.01493 5.04186 0
M  V30 8261 N 772.913 1.75338 5.88328 0
M  V30 8262 C 774.284 1.95411 5.884 0
M  V30 8263 C 776.339 1.05567 4.8658 0
M  V30 8264 C 775.042 2.93069 6.56889 0
M  V30 8265 C 777.068 2.02037 5.55819 0
M  V30 8266 C 776.43 2.94697 6.39791 0
M  V30 8267 H 772.529 -0.120226 0.772703 0
M  V30 8268 H 775.113 0.319119 1.92067 0
M  V30 8269 H 773.284 -1.62038 3.52985 0
M  V30 8270 H 775.016 -1.51371 3.75325 0
M  V30 8271 H 771.771 0.253945 4.72919 0
M  V30 8272 H 772.195 2.30007 6.3673 0
M  V30 8273 H 776.837 0.353242 4.21322 0
M  V30 8274 H 774.555 3.6428 7.21336 0
M  V30 8275 H 778.141 2.05849 5.44167 0
M  V30 8276 H 777.021 3.68128 6.92425 0
M  V30 8277 N 774.524 -1.57472 -0.0634922 0
M  V30 8278 C 775.77 -1.88792 -0.756903 0
M  V30 8279 C 776.125 -0.804679 -1.74765 0
M  V30 8280 O 775.418 0.19033 -1.90652 0
M  V30 8281 C 775.612 -3.24521 -1.49736 0
M  V30 8282 C 775.441 -4.45946 -0.579833 0
M  V30 8283 C 774.211 -5.04848 -0.213667 0
M  V30 8284 C 776.409 -5.14143 0.12703 0
M  V30 8285 N 774.391 -6.09795 0.708712 0
M  V30 8286 C 775.762 -6.1334 0.906295 0
M  V30 8287 C 777.817 -4.97508 0.197625 0
M  V30 8288 C 776.52 -6.97697 1.74961 0
M  V30 8289 C 778.546 -5.82398 1.02794 0
M  V30 8290 C 777.908 -6.81139 1.79523 0
M  V30 8291 H 774.007 -0.740235 -0.252142 0
M  V30 8292 H 776.591 -1.94692 -0.0181026 0
M  V30 8293 H 774.762 -3.19615 -2.20683 0
M  V30 8294 H 776.494 -3.43464 -2.14044 0
M  V30 8295 H 773.249 -4.70177 -0.568357 0
M  V30 8296 H 773.673 -6.66929 1.16339 0
M  V30 8297 H 778.315 -4.21077 -0.381261 0
M  V30 8298 H 776.033 -7.73496 2.33943 0
M  V30 8299 H 779.619 -5.71581 1.08565 0
M  V30 8300 H 778.499 -7.45687 2.42736 0
M  V30 8301 N 776.003 0.335068 -1.53997 0
M  V30 8302 C 777.419 0.678704 -1.4445 0
M  V30 8303 C 777.619 1.92106 -0.608078 0
M  V30 8304 O 776.675 2.52292 -0.102373 0
M  V30 8305 C 777.988 0.863435 -2.88037 0
M  V30 8306 C 779.536 0.961513 -2.97866 0
M  V30 8307 C 780.011 1.1785 -4.42578 0
M  V30 8308 N 781.502 1.2455 -4.46141 0
M  V30 8309 C 782.237 1.43106 -5.55255 0
M  V30 8310 N 781.733 1.5878 -6.74359 0
M  V30 8311 N 783.526 1.45722 -5.42883 0
M  V30 8312 H 775.677 -0.481656 -2.06867 0
M  V30 8313 H 777.94 -0.153615 -0.935471 0
M  V30 8314 H 777.646 0.0219511 -3.51693 0
M  V30 8315 H 777.52 1.76268 -3.33481 0
M  V30 8316 H 779.907 1.79351 -2.34344 0
M  V30 8317 H 779.988 0.0389862 -2.5577 0
M  V30 8318 H 779.632 0.351397 -5.06683 0
M  V30 8319 H 779.562 2.11472 -4.82273 0
M  V30 8320 H 782.053 1.13928 -3.60318 0
M  V30 8321 H 782.366 1.72599 -7.53279 0
M  V30 8322 H 780.711 1.559 -6.77289 0
M  V30 8323 H 783.902 1.33065 -4.48789 0
M  V30 8324 H 784.075 1.59841 -6.27977 0
M  V30 8325 N 777.481 1.45874 0.596531 0
M  V30 8326 C 778.444 1.54988 1.68853 0
M  V30 8327 C 779.444 0.428302 1.54991 0
M  V30 8328 O 780.634 0.692158 1.59859 0
M  V30 8329 C 777.766 1.457 3.08195 0
M  V30 8330 H 778.959 2.52294 1.62135 0
M  V30 8331 H 776.512 1.33479 0.813206 0
M  V30 8332 H 777.247 0.496204 3.20481 0
M  V30 8333 H 777.032 2.27061 3.19665 0
M  V30 8334 H 778.522 1.55133 3.87716 0
M  V30 8335 N 778.959 -0.83999 1.33349 0
M  V30 8336 C 780.199 -1.60888 1.26073 0
M  V30 8337 C 780.563 -1.91234 -0.17129 0
M  V30 8338 O 781.764 -2.66269 -0.36799 0
M  V30 8339 C 780.035 -2.88438 2.11042 0
M  V30 8340 S 781.594 -3.79116 2.20944 0
M  V30 8341 H 778.412 -0.55166 0.448545 0
M  V30 8342 H 781.014 -0.99359 1.68369 0
M  V30 8343 H 779.718 -2.64113 3.14121 0
M  V30 8344 H 779.249 -3.54974 1.69579 0
M  V30 8345 H 781.264 -4.76921 1.36969 0
M  V30 8346 N 780.437 -1.16799 -1.0581 0
M  V30 8347 C 781.683 -0.963929 -1.79109 0
M  V30 8348 C 782.038 0.502569 -1.8572 0
M  V30 8349 O 781.331 1.36813 -1.34137 0
M  V30 8350 C 781.525 -1.53111 -3.22942 0
M  V30 8351 C 781.354 -3.05123 -3.30348 0
M  V30 8352 C 780.124 -3.73804 -3.39998 0
M  V30 8353 C 782.322 -4.02777 -3.19805 0
M  V30 8354 N 780.304 -5.1348 -3.36469 0
M  V30 8355 C 781.675 -5.28866 -3.23576 0
M  V30 8356 C 783.73 -3.94533 -3.03724 0
M  V30 8357 C 782.433 -6.47669 -3.12918 0
M  V30 8358 C 784.459 -5.12913 -2.94405 0
M  V30 8359 C 783.821 -6.37884 -2.98803 0
M  V30 8360 H 779.92 -0.406555 -0.66801 0
M  V30 8361 H 782.504 -1.48277 -1.26183 0
M  V30 8362 H 780.675 -1.03869 -3.74254 0
M  V30 8363 H 782.407 -1.2643 -3.84444 0
M  V30 8364 H 779.162 -3.24457 -3.44999 0
M  V30 8365 H 779.586 -5.86477 -3.38191 0
M  V30 8366 H 784.228 -2.98763 -2.99166 0
M  V30 8367 H 781.946 -7.43656 -3.16231 0
M  V30 8368 H 785.532 -5.08309 -2.83042 0
M  V30 8369 H 784.412 -7.27946 -2.91657 0
M  V30 8370 N 781.915 1.24427 -0.967243 0
M  V30 8371 C 783.162 1.92487 -0.62888 0
M  V30 8372 C 783.49 1.75623 0.835871 0
M  V30 8373 O 782.745 1.1027 1.61675 0
M  V30 8374 C 783.044 3.44568 -0.949096 0
M  V30 8375 C 782.71 3.816 -2.40192 0
M  V30 8376 C 781.372 3.9142 -2.799 0
M  V30 8377 C 783.724 3.99715 -3.34481 0
M  V30 8378 C 781.052 4.16771 -4.12939 0
M  V30 8379 C 783.404 4.26562 -4.67148 0
M  V30 8380 C 782.068 4.34601 -5.06634 0
M  V30 8381 H 781.338 0.704361 -0.230124 0
M  V30 8382 H 783.985 1.4772 -1.21864 0
M  V30 8383 H 782.29 3.90819 -0.277085 0
M  V30 8384 H 783.987 3.95436 -0.665692 0
M  V30 8385 H 780.577 3.74522 -2.08402 0
M  V30 8386 H 784.761 3.91531 -3.04987 0
M  V30 8387 H 780.017 4.21214 -4.43158 0
M  V30 8388 H 784.191 4.39523 -5.40178 0
M  V30 8389 H 781.818 4.53998 -6.09746 0
M  V30 8390 N 783.393 0.737304 1.3929 0
M  V30 8391 C 784.639 0.286681 2.00763 0
M  V30 8392 C 784.972 -1.12388 1.58375 0
M  V30 8393 O 784.247 -1.76661 0.813699 0
M  V30 8394 C 784.53 0.391147 3.57969 0
M  V30 8395 C 784.383 1.84165 4.1037 0
M  V30 8396 C 785.702 -0.225072 4.39524 0
M  V30 8397 H 782.821 0.105642 0.729389 0
M  V30 8398 H 785.463 0.933892 1.65464 0
M  V30 8399 H 783.613 -0.159875 3.88171 0
M  V30 8400 H 785.285 2.44972 3.90879 0
M  V30 8401 H 783.528 2.3622 3.63844 0
M  V30 8402 H 784.199 1.866 5.19504 0
M  V30 8403 H 786.675 0.244677 4.1538 0
M  V30 8404 H 785.551 -0.121646 5.48765 0
M  V30 8405 H 785.812 -1.31141 4.22202 0
M  V30 8406 N 784.871 -1.49948 0.485112 0
M  V30 8407 C 786.12 -2.01589 -0.066765 0
M  V30 8408 C 786.433 -1.371 -1.39509 0
M  V30 8409 O 787.639 -1.79978 -2.03274 0
M  V30 8410 C 786.095 -3.59501 -0.169476 0
M  V30 8411 C 785.703 -4.32955 1.15126 0
M  V30 8412 C 787.447 -4.19138 -0.672564 0
M  V30 8413 C 785.354 -5.82684 1.01158 0
M  V30 8414 H 784.284 -0.753453 -0.0287259 0
M  V30 8415 H 786.935 -1.72632 0.622132 0
M  V30 8416 H 785.317 -3.85106 -0.922471 0
M  V30 8417 H 786.491 -4.19064 1.9163 0
M  V30 8418 H 784.806 -3.84991 1.58654 0
M  V30 8419 H 787.403 -5.28767 -0.794325 0
M  V30 8420 H 787.746 -3.81447 -1.66745 0
M  V30 8421 H 788.279 -3.97793 0.0234415 0
M  V30 8422 H 785.018 -6.24873 1.98025 0
M  V30 8423 H 784.538 -5.99112 0.287151 0
M  V30 8424 H 786.217 -6.43376 0.683847 0
M  V30 8425 N 786.349 -0.21828 -1.56081 0
M  V30 8426 C 787.577 0.419258 -2.02608 0
M  V30 8427 C 787.992 1.53578 -1.09814 0
M  V30 8428 O 787.349 1.82185 -0.107149 0
M  V30 8429 C 787.4 0.953955 -3.48686 0
M  V30 8430 O 787.121 -0.11805 -4.37941 0
M  V30 8431 C 788.622 1.66506 -4.10841 0
M  V30 8432 H 785.842 0.10296 -0.663054 0
M  V30 8433 H 788.386 -0.333776 -2.01758 0
M  V30 8434 H 786.541 1.65727 -3.50162 0
M  V30 8435 H 786.955 0.283359 -5.23734 0
M  V30 8436 H 788.429 1.99123 -5.14834 0
M  V30 8437 H 788.906 2.57705 -3.55647 0
M  V30 8438 H 789.512 1.00703 -4.13206 0
M  V30 8439 N 787.827 1.57504 0.0551401 0
M  V30 8440 C 789.238 1.76626 0.604979 0
M  V30 8441 C 789.589 0.845978 1.77024 0
M  V30 8442 O 788.714 0.0341936 2.16373 0
M  V30 8443 C 789.309 3.203 1.10425 0
M  V30 8444 C 787.868 3.4071 1.59981 0
M  V30 8445 C 787.015 2.72258 0.526414 0
M  V30 8446 H 789.966 1.57775 -0.171072 0
M  V30 8447 H 789.987 3.25377 1.97256 0
M  V30 8448 H 789.499 3.87255 0.255939 0
M  V30 8449 H 787.6 2.78892 2.47083 0
M  V30 8450 H 787.713 4.49227 1.66528 0
M  V30 8451 H 786.077 2.35283 0.97539 0
M  V30 8452 H 786.86 3.41879 -0.311991 0
M  V30 8453 N 789.305 -0.326896 1.54172 0
M  V30 8454 C 790.554 -1.06274 1.71431 0
M  V30 8455 C 790.867 -1.89282 0.493123 0
M  V30 8456 O 792.073 -2.65933 0.54699 0
M  V30 8457 C 790.529 -1.93892 3.03206 0
M  V30 8458 C 790.137 -1.16011 4.32719 0
M  V30 8459 C 791.881 -2.67232 3.29829 0
M  V30 8460 C 789.788 -2.02755 5.55558 0
M  V30 8461 H 788.718 -0.400475 0.638855 0
M  V30 8462 H 791.369 -0.321184 1.80667 0
M  V30 8463 H 789.751 -2.71933 2.87869 0
M  V30 8464 H 790.925 -0.427643 4.58811 0
M  V30 8465 H 789.24 -0.54367 4.12836 0
M  V30 8466 H 791.837 -3.32434 4.18798 0
M  V30 8467 H 792.18 -3.34692 2.47562 0
M  V30 8468 H 792.713 -1.96255 3.46018 0
M  V30 8469 H 789.452 -1.3981 6.40417 0
M  V30 8470 H 788.972 -2.73745 5.33689 0
M  V30 8471 H 790.651 -2.61419 5.91835 0
M  V30 8472 N 790.784 -1.46188 -0.588786 0
M  V30 8473 C 791.714 -1.59148 -1.70863 0
M  V30 8474 C 792.695 -0.442083 -1.64255 0
M  V30 8475 O 793.88 -0.667575 -1.82365 0
M  V30 8476 C 791.01 -1.5757 -3.09498 0
M  V30 8477 C 789.964 -2.71418 -3.30932 0
M  V30 8478 C 789.29 -2.549 -4.70032 0
M  V30 8479 C 790.59 -4.1329 -3.19356 0
M  V30 8480 H 792.284 -2.52889 -1.60274 0
M  V30 8481 H 789.83 -1.21707 -0.769638 0
M  V30 8482 H 791.783 -1.65231 -3.87655 0
M  V30 8483 H 790.507 -0.603705 -3.20972 0
M  V30 8484 H 789.166 -2.63216 -2.55172 0
M  V30 8485 H 788.814 -1.55797 -4.78264 0
M  V30 8486 H 788.514 -3.31257 -4.85327 0
M  V30 8487 H 790.038 -2.64443 -5.50366 0
M  V30 8488 H 791.452 -4.22636 -3.87365 0
M  V30 8489 H 789.849 -4.90187 -3.46175 0
M  V30 8490 H 790.919 -4.33874 -2.16522 0
M  V30 8491 N 792.262 0.832906 -1.33792 0
M  V30 8492 C 793.192 1.95828 -1.27176 0
M  V30 8493 C 794.173 1.69427 -0.15114 0
M  V30 8494 O 795.358 1.91167 -0.341886 0
M  V30 8495 C 792.488 3.32098 -1.01629 0
M  V30 8496 C 791.442 3.72912 -2.10049 0
M  V30 8497 C 790.768 5.07054 -1.69706 0
M  V30 8498 C 792.068 3.86064 -3.51783 0
M  V30 8499 H 793.762 2.01622 -2.21334 0
M  V30 8500 H 791.308 0.96866 -1.0655 0
M  V30 8501 H 793.261 4.10402 -0.956474 0
M  V30 8502 H 791.985 3.26577 -0.0390956 0
M  V30 8503 H 790.644 2.96876 -2.15082 0
M  V30 8504 H 790.292 4.9801 -0.706737 0
M  V30 8505 H 789.992 5.35333 -2.42264 0
M  V30 8506 H 791.516 5.87827 -1.65202 0
M  V30 8507 H 792.93 4.54665 -3.49218 0
M  V30 8508 H 791.327 4.25787 -4.22878 0
M  V30 8509 H 792.397 2.88344 -3.89854 0
M  V30 8510 N 793.74 1.17359 1.05189 0
M  V30 8511 C 794.989 0.956412 1.77583 0
M  V30 8512 C 795.302 -0.516018 1.88671 0
M  V30 8513 O 796.508 -0.851401 2.57805 0
M  V30 8514 C 794.964 1.66203 3.19225 0
M  V30 8515 C 794.572 3.17299 3.16267 0
M  V30 8516 C 796.316 1.52725 3.96075 0
M  V30 8517 C 794.223 3.8055 4.52698 0
M  V30 8518 H 793.153 0.354204 0.665624 0
M  V30 8519 H 795.804 1.40612 1.17901 0
M  V30 8520 H 794.186 1.14006 3.79234 0
M  V30 8521 H 795.36 3.76431 2.65776 0
M  V30 8522 H 793.675 3.3079 2.52917 0
M  V30 8523 H 796.272 1.97351 4.96947 0
M  V30 8524 H 796.615 0.477803 4.13549 0
M  V30 8525 H 797.148 2.02139 3.42614 0
M  V30 8526 H 793.887 4.85492 4.4043 0
M  V30 8527 H 793.407 3.26206 5.03339 0
M  V30 8528 H 795.086 3.82757 5.21638 0
M  V30 8529 N 795.218 -1.23913 0.973828 0
M  V30 8530 C 796.181 -2.23367 0.51378 0
M  V30 8531 C 797.181 -1.55923 -0.39302 0
M  V30 8532 O 798.371 -1.73187 -0.187626 0
M  V30 8533 C 795.503 -3.39944 -0.255152 0
M  V30 8534 H 796.696 -2.65581 1.39307 0
M  V30 8535 H 794.249 -1.36632 0.759039 0
M  V30 8536 H 794.984 -3.03177 -1.15127 0
M  V30 8537 H 794.769 -3.90098 0.395673 0
M  V30 8538 H 796.259 -4.13749 -0.565842 0
M  V30 8539 N 796.696 -0.74468 -1.38897 0
M  V30 8540 C 797.945 -0.293716 -1.9955 0
M  V30 8541 C 798.258 1.12831 -1.59777 0
M  V30 8542 O 799.464 1.67929 -2.13336 0
M  V30 8543 C 797.92 -0.474188 -3.56762 0
M  V30 8544 C 797.528 -1.90472 -4.05493 0
M  V30 8545 C 799.272 -0.0854875 -4.24414 0
M  V30 8546 C 797.179 -2.03423 -5.55314 0
M  V30 8547 H 796.109 -0.106066 -0.746502 0
M  V30 8548 H 798.76 -0.919948 -1.58774 0
M  V30 8549 H 797.142 0.221092 -3.95382 0
M  V30 8550 H 798.316 -2.63274 -3.78184 0
M  V30 8551 H 796.631 -2.24752 -3.50536 0
M  V30 8552 H 799.228 -0.161133 -5.34457 0
M  V30 8553 H 799.571 0.96066 -4.05064 0
M  V30 8554 H 800.104 -0.732286 -3.91002 0
M  V30 8555 H 796.843 -3.0626 -5.79556 0
M  V30 8556 H 796.363 -1.3507 -5.84394 0
M  V30 8557 H 798.042 -1.81996 -6.20876 0
M  V30 8558 N 798.174 1.49689 -0.493057 0
M  V30 8559 C 799.421 2.02427 0.0542714 0
M  V30 8560 C 799.749 1.37339 1.37725 0
M  V30 8561 O 799.004 0.495523 1.89323 0
M  V30 8562 C 799.303 3.56427 0.263536 0
M  V30 8563 C 798.969 4.40111 -0.98046 0
M  V30 8564 C 797.631 4.62699 -1.32148 0
M  V30 8565 C 799.983 4.88847 -1.80771 0
M  V30 8566 C 797.311 5.31268 -2.48941 0
M  V30 8567 C 799.663 5.587 -2.96711 0
M  V30 8568 C 798.327 5.79536 -3.31202 0
M  V30 8569 H 797.597 0.740734 0.0198593 0
M  V30 8570 H 800.244 1.80073 -0.651603 0
M  V30 8571 H 798.549 3.77416 1.05186 0
M  V30 8572 H 800.246 3.94819 0.701348 0
M  V30 8573 H 796.836 4.22765 -0.704814 0
M  V30 8574 H 801.02 4.71231 -1.55741 0
M  V30 8575 H 796.276 5.45603 -2.75911 0
M  V30 8576 H 800.45 5.9544 -3.61143 0
M  V30 8577 H 798.077 6.32443 -4.21805 0
M  V30 8578 N 799.652 0.226554 1.55963 0
M  V30 8579 C 800.901 -0.40417 1.97609 0
M  V30 8580 C 801.214 -1.60541 1.1174 0
M  V30 8581 O 802.42 -2.30598 1.43307 0
M  V30 8582 C 800.876 -0.770466 3.51556 0
M  V30 8583 C 800.484 0.408244 4.46136 0
M  V30 8584 C 802.228 -1.36651 4.01904 0
M  V30 8585 C 800.135 0.0192347 5.91397 0
M  V30 8586 H 799.065 -0.15478 0.737943 0
M  V30 8587 H 801.716 0.323558 1.80625 0
M  V30 8588 H 800.098 -1.55575 3.6416 0
M  V30 8589 H 801.272 1.18575 4.45283 0
M  V30 8590 H 799.587 0.917859 4.06158 0
M  V30 8591 H 802.184 -1.67055 5.07934 0
M  V30 8592 H 802.527 -2.28403 3.48049 0
M  V30 8593 H 803.06 -0.644556 3.92543 0
M  V30 8594 H 799.799 0.90336 6.49245 0
M  V30 8595 H 799.319 -0.722485 5.95433 0
M  V30 8596 H 800.998 -0.405711 6.45727 0
M  V30 8597 N 801.13 -1.57531 -0.0467866 0
M  V30 8598 C 802.376 -1.89584 -0.736837 0
M  V30 8599 C 802.731 -0.82317 -1.73901 0
M  V30 8600 O 802.024 0.170098 -1.90843 0
M  V30 8601 C 802.218 -3.26091 -1.46285 0
M  V30 8602 C 802.047 -4.46536 -0.532502 0
M  V30 8603 C 800.817 -5.05046 -0.160109 0
M  V30 8604 C 803.015 -5.13979 0.181555 0
M  V30 8605 N 800.997 -6.09009 0.773349 0
M  V30 8606 C 802.368 -6.12345 0.971297 0
M  V30 8607 C 804.423 -4.9727 0.250382 0
M  V30 8608 C 803.126 -6.95802 1.82351 0
M  V30 8609 C 805.152 -5.81275 1.08965 0
M  V30 8610 C 804.514 -6.79197 1.86737 0
M  V30 8611 H 800.613 -0.742868 -0.244277 0
M  V30 8612 H 803.197 -1.947 0.0025481 0
M  V30 8613 H 801.368 -3.21938 -2.1728 0
M  V30 8614 H 803.1 -3.45715 -2.10389 0
M  V30 8615 H 799.855 -4.70754 -0.518457 0
M  V30 8616 H 800.279 -6.65658 1.23406 0
M  V30 8617 H 804.921 -4.21458 -0.336578 0
M  V30 8618 H 802.639 -7.70971 2.42134 0
M  V30 8619 H 806.225 -5.70397 1.14621 0
M  V30 8620 H 805.105 -7.4307 2.50631 0
M  V30 8621 N 802.608 0.318715 -1.54344 0
M  V30 8622 C 803.833 1.07987 -1.77069 0
M  V30 8623 C 804.258 1.80766 -0.520117 0
M  V30 8624 O 803.616 1.73424 0.528566 0
M  V30 8625 C 803.664 2.04987 -2.96669 0
M  V30 8626 O 802.768 3.12974 -2.68554 0
M  V30 8627 H 802.109 0.311109 -0.586606 0
M  V30 8628 H 804.639 0.361533 -2.0138 0
M  V30 8629 H 804.649 2.47771 -3.2415 0
M  V30 8630 H 803.324 1.51417 -3.87357 0
M  V30 8631 H 801.901 2.74831 -2.52037 0
M  V30 8632 N 804.086 1.46499 0.581025 0
M  V30 8633 C 805.016 1.60052 1.70017 0
M  V30 8634 C 805.997 0.450788 1.64018 0
M  V30 8635 O 807.182 0.677237 1.82009 0
M  V30 8636 C 804.312 1.5921 3.08658 0
M  V30 8637 C 803.266 2.73169 3.29488 0
M  V30 8638 C 802.592 2.57389 4.68674 0
M  V30 8639 C 803.892 4.14978 3.1716 0
M  V30 8640 H 805.586 2.53735 1.5893 0
M  V30 8641 H 803.132 1.22113 0.763173 0
M  V30 8642 H 805.085 1.67285 3.86773 0
M  V30 8643 H 803.809 0.620718 3.20647 0
M  V30 8644 H 802.468 2.64566 2.53773 0
M  V30 8645 H 802.116 1.58331 4.77431 0
M  V30 8646 H 801.816 3.33826 4.83564 0
M  V30 8647 H 803.34 2.67358 5.48956 0
M  V30 8648 H 804.754 4.24684 3.85119 0
M  V30 8649 H 803.151 4.92016 3.4357 0
M  V30 8650 H 804.221 4.35016 2.14218 0
M  V30 8651 N 805.565 -0.825799 1.34232 0
M  V30 8652 C 806.811 -1.58419 1.26614 0
M  V30 8653 C 807.144 -1.93503 -0.164341 0
M  V30 8654 O 806.419 -1.59785 -1.109 0
M  V30 8655 C 806.702 -2.8856 2.15418 0
M  V30 8656 C 806.555 -2.60075 3.66989 0
M  V30 8657 C 807.874 -3.90107 2.03726 0
M  V30 8658 H 804.993 -0.574794 0.461282 0
M  V30 8659 H 807.635 -0.951519 1.64457 0
M  V30 8660 H 805.785 -3.42553 1.83275 0
M  V30 8661 H 807.457 -2.12414 4.09485 0
M  V30 8662 H 805.7 -1.93565 3.88221 0
M  V30 8663 H 806.371 -3.52866 4.24488 0
M  V30 8664 H 808.847 -3.45459 2.31942 0
M  V30 8665 H 807.723 -4.78976 2.68092 0
M  V30 8666 H 807.984 -4.30329 1.01337 0
M  V30 8667 N 807.043 -1.17915 -1.04565 0
M  V30 8668 C 807.975 -0.859359 -2.1248 0
M  V30 8669 C 808.988 0.140922 -1.62189 0
M  V30 8670 O 810.177 -0.0862361 -1.78292 0
M  V30 8671 C 807.277 -0.261811 -3.37887 0
M  V30 8672 C 806.45 -1.30651 -4.17431 0
M  V30 8673 C 805.509 -0.725575 -5.21174 0
M  V30 8674 O 804.535 -1.39901 -5.51739 0
M  V30 8675 N 805.737 0.479351 -5.78517 0
M  V30 8676 H 808.502 -1.78818 -2.40508 0
M  V30 8677 H 806.063 -1.07885 -1.20716 0
M  V30 8678 H 808.055 0.14028 -4.04457 0
M  V30 8679 H 806.625 0.570929 -3.07342 0
M  V30 8680 H 805.845 -1.88412 -3.46258 0
M  V30 8681 H 807.133 -2.01099 -4.67372 0
M  V30 8682 H 806.531 1.04431 -5.55977 0
M  V30 8683 H 805.088 0.823427 -6.46578 0
M  V30 8684 N 808.521 1.23394 -0.980386 0
M  V30 8685 C 809.768 1.91809 -0.649261 0
M  V30 8686 C 810.096 1.765 0.817197 0
M  V30 8687 O 809.351 1.11979 1.60497 0
M  V30 8688 C 809.65 3.43542 -0.985588 0
M  V30 8689 C 809.316 3.79031 -2.44225 0
M  V30 8690 C 807.978 3.88429 -2.84035 0
M  V30 8691 C 810.33 3.96145 -3.38702 0
M  V30 8692 C 807.658 4.12368 -4.17336 0
M  V30 8693 C 810.01 4.21583 -4.71646 0
M  V30 8694 C 808.674 4.29203 -5.11215 0
M  V30 8695 H 807.944 0.70188 -0.237581 0
M  V30 8696 H 810.591 1.4642 -1.23424 0
M  V30 8697 H 808.896 3.90503 -0.318521 0
M  V30 8698 H 810.593 3.94708 -0.707596 0
M  V30 8699 H 807.183 3.7229 -2.12362 0
M  V30 8700 H 811.367 3.88274 -3.09123 0
M  V30 8701 H 806.623 4.1649 -4.47601 0
M  V30 8702 H 810.797 4.33769 -5.4481 0
M  V30 8703 H 808.424 4.47505 -6.14527 0
M  V30 8704 N 809.999 0.752036 1.385 0
M  V30 8705 C 810.949 0.0990189 2.27785 0
M  V30 8706 C 811.933 -0.694867 1.45122 0
M  V30 8707 O 813.125 -0.561077 1.67872 0
M  V30 8708 C 810.254 -0.794531 3.33979 0
M  V30 8709 C 809.34 0.00611984 4.241 0
M  V30 8710 N 809.731 1.04174 4.94956 0
M  V30 8711 C 808.029 -0.220934 4.45452 0
M  V30 8712 C 808.73 1.52601 5.61327 0
M  V30 8713 N 807.706 0.84159 5.37046 0
M  V30 8714 H 811.508 0.892208 2.8003 0
M  V30 8715 H 809.022 0.587934 1.51384 0
M  V30 8716 H 811.019 -1.27797 3.96829 0
M  V30 8717 H 809.679 -1.58669 2.83292 0
M  V30 8718 H 810.69 1.42349 4.97953 0
M  V30 8719 H 807.367 -0.986556 4.05676 0
M  V30 8720 H 808.757 2.38857 6.2801 0
M  V30 8721 N 811.477 -1.49425 0.500989 0
M  V30 8722 C 812.893 -1.58826 0.156951 0
M  V30 8723 C 813.093 -1.50622 -1.33848 0
M  V30 8724 O 812.149 -1.38016 -2.11442 0
M  V30 8725 C 813.462 -2.91611 0.73374 0
M  V30 8726 C 815.01 -3.05076 0.699846 0
M  V30 8727 C 815.485 -4.40479 1.2547 0
M  V30 8728 N 816.976 -4.4697 1.2154 0
M  V30 8729 C 817.711 -5.50189 1.6149 0
M  V30 8730 N 817.207 -6.60512 2.09034 0
M  V30 8731 N 819 -5.40903 1.52907 0
M  V30 8732 H 811.151 -1.53001 1.47324 0
M  V30 8733 H 813.414 -0.724765 0.61108 0
M  V30 8734 H 813.12 -3.03182 1.78251 0
M  V30 8735 H 812.994 -3.767 0.19417 0
M  V30 8736 H 815.381 -2.93134 -0.340085 0
M  V30 8737 H 815.462 -2.2167 1.27656 0
M  V30 8738 H 815.106 -4.53172 2.29341 0
M  V30 8739 H 815.036 -5.22524 0.653921 0
M  V30 8740 H 817.527 -3.67819 0.867043 0
M  V30 8741 H 817.84 -7.35372 2.37588 0
M  V30 8742 H 816.185 -6.61553 2.13008 0
M  V30 8743 H 819.376 -4.53606 1.15583 0
M  V30 8744 H 819.549 -6.21219 1.84365 0
M  V30 8745 N 812.955 -0.234822 -1.55841 0
M  V30 8746 C 814.366 0.270588 -1.84729 0
M  V30 8747 C 814.717 1.58494 -1.15646 0
M  V30 8748 O 813.842 2.12071 -0.430667 0
M  V30 8749 C 814.437 0.497733 -3.35124 0
M  V30 8750 C 812.996 0.947428 -3.64281 0
M  V30 8751 C 812.143 0.01787 -2.77294 0
M  V30 8752 H 815.094 -0.457691 -1.51957 0
M  V30 8753 H 815.115 1.34199 -3.56049 0
M  V30 8754 H 814.627 -0.459037 -3.85376 0
M  V30 8755 H 812.728 1.91709 -3.19497 0
M  V30 8756 H 812.841 0.812651 -4.72158 0
M  V30 8757 H 811.205 0.527071 -2.49187 0
M  V30 8758 H 811.988 -0.934056 -3.30349 0
M  V30 8759 N 814.433 1.57553 0.0384317 0
M  V30 8760 C 815.381 2.07021 1.06043 0
M  V30 8761 C 816.375 0.982078 1.38028 0
M  V30 8762 O 817.581 1.16702 1.37042 0
M  V30 8763 H 813.956 0.660522 0.359464 0
M  V30 8764 H 815.927 2.91944 0.617339 0
M  V30 8765 C 814.676 2.55734 2.35574 0
M  V30 8766 H 813.999 3.39074 2.11822 0
M  V30 8767 H 815.439 2.94066 3.05452 0
M  V30 8768 C 813.898 1.45449 3.03885 0
M  V30 8769 O 814.428 0.815402 3.93337 0
M  V30 8770 N 812.634 1.19134 2.65058 0
M  V30 8771 H 812.181 1.71288 1.92401 0
M  V30 8772 H 812.139 0.455554 3.11082 0
M  V30 8773 N 815.911 -0.310526 1.54511 0
M  V30 8774 C 817.141 -1.06456 1.77061 0
M  V30 8775 C 817.549 -1.81755 0.525528 0
M  V30 8776 O 816.892 -1.76365 -0.513904 0
M  V30 8777 C 816.954 -2.09856 2.91892 0
M  V30 8778 C 816.618 -1.53838 4.30329 0
M  V30 8779 C 817.615 -0.973358 5.10707 0
M  V30 8780 C 815.3 -1.57688 4.76906 0
M  V30 8781 C 817.294 -0.454283 6.35779 0
M  V30 8782 C 814.981 -1.05393 6.01943 0
M  V30 8783 C 815.979 -0.493595 6.81214 0
M  V30 8784 O 815.667 0.0214506 8.03897 0
M  V30 8785 H 815.399 -0.321913 0.594431 0
M  V30 8786 H 817.953 -0.358289 2.02251 0
M  V30 8787 H 816.183 -2.84137 2.62304 0
M  V30 8788 H 817.872 -2.71085 3.02106 0
M  V30 8789 H 818.638 -0.936588 4.75871 0
M  V30 8790 H 814.517 -2.00242 4.1524 0
M  V30 8791 H 818.061 -0.0162657 6.97598 0
M  V30 8792 H 813.958 -1.08782 6.36268 0
M  V30 8793 H 814.726 -0.0927478 8.18447 0
M  V30 8794 N 817.389 -1.46805 -0.573248 0
M  V30 8795 C 818.637 -1.52302 -1.32847 0
M  V30 8796 C 818.958 -0.180159 -1.94166 0
M  V30 8797 O 818.228 0.794291 -1.79075 0
M  V30 8798 H 816.808 -0.56097 -0.493276 0
M  V30 8799 H 819.47 -1.82998 -0.670642 0
M  V30 8800 H 818.566 -2.28089 -2.13031 0
M  V30 8801 N 818.867 0.818669 -1.34668 0
M  V30 8802 C 819.83 1.9114 -1.26483 0
M  V30 8803 C 820.83 1.598 -0.179044 0
M  V30 8804 O 822.02 1.6876 -0.431952 0
M  V30 8805 C 819.152 3.27285 -0.95381 0
M  V30 8806 H 820.345 1.9982 -2.23634 0
M  V30 8807 H 817.898 1.01314 -1.19018 0
M  V30 8808 H 818.633 3.24297 0.0143428 0
M  V30 8809 H 818.418 3.51416 -1.73924 0
M  V30 8810 H 819.908 4.07299 -0.921827 0
M  V30 8811 N 820.346 1.18468 1.03938 0
M  V30 8812 C 821.595 0.975193 1.76558 0
M  V30 8813 C 821.908 -0.495978 1.89207 0
M  V30 8814 O 823.114 -0.824009 2.58694 0
M  V30 8815 C 821.57 1.69579 3.17444 0
M  V30 8816 C 821.178 3.20636 3.12884 0
M  V30 8817 C 822.922 1.56917 3.94433 0
M  V30 8818 C 820.829 3.8533 4.48636 0
M  V30 8819 H 819.759 0.361244 0.66183 0
M  V30 8820 H 822.41 1.41854 1.16403 0
M  V30 8821 H 820.792 1.18022 3.78004 0
M  V30 8822 H 821.966 3.79228 2.61768 0
M  V30 8823 H 820.281 3.33454 2.49394 0
M  V30 8824 H 822.878 2.02611 4.94826 0
M  V30 8825 H 823.221 0.521638 4.13019 0
M  V30 8826 H 823.754 2.05762 3.40451 0
M  V30 8827 H 820.493 4.90136 4.35255 0
M  V30 8828 H 820.013 3.31526 4.99851 0
M  V30 8829 H 821.692 3.88269 5.17549 0
M  V30 8830 N 821.824 -1.22873 0.986916 0
M  V30 8831 C 823.235 -1.73264 0.695438 0
M  V30 8832 C 823.586 -1.79679 -0.788023 0
M  V30 8833 O 822.711 -1.43905 -1.61618 0
M  V30 8834 C 823.306 -3.14671 1.2557 0
M  V30 8835 C 821.865 -3.62492 1.01373 0
M  V30 8836 C 821.012 -2.40551 1.37951 0
M  V30 8837 H 823.963 -1.08304 1.15999 0
M  V30 8838 H 823.984 -3.75226 0.631322 0
M  V30 8839 H 823.496 -3.0997 2.33539 0
M  V30 8840 H 821.597 -3.72567 -0.0495917 0
M  V30 8841 H 821.71 -4.48944 1.67289 0
M  V30 8842 H 820.074 -2.41875 0.798033 0
M  V30 8843 H 820.857 -2.38516 2.46911 0
M  V30 8844 N 823.302 -0.75937 -1.38099 0
M  V30 8845 C 824.532 -0.328634 -2.0397 0
M  V30 8846 C 824.94 1.04989 -1.57398 0
M  V30 8847 O 824.283 1.67918 -0.744932 0
M  V30 8848 C 824.345 -0.279216 -3.58414 0
M  V30 8849 C 824.009 -1.60025 -4.28067 0
M  V30 8850 C 825.006 -2.55048 -4.53041 0
M  V30 8851 C 822.691 -1.87128 -4.66142 0
M  V30 8852 C 824.685 -3.7539 -5.15132 0
M  V30 8853 C 822.372 -3.07742 -5.27956 0
M  V30 8854 C 823.37 -4.01694 -5.52387 0
M  V30 8855 O 823.058 -5.20186 -6.12912 0
M  V30 8856 H 822.79 -0.137443 -0.66188 0
M  V30 8857 H 825.344 -1.03082 -1.77661 0
M  V30 8858 H 823.574 0.479254 -3.83719 0
M  V30 8859 H 825.263 0.122781 -4.05714 0
M  V30 8860 H 826.029 -2.35387 -4.24049 0
M  V30 8861 H 821.908 -1.14833 -4.46469 0
M  V30 8862 H 825.452 -4.48737 -5.34117 0
M  V30 8863 H 821.349 -3.27294 -5.56371 0
M  V30 8864 H 822.117 -5.20846 -6.31397 0
M  V30 8865 N 824.78 1.49157 -0.508906 0
M  V30 8866 C 826.191 1.86593 -0.0630975 0
M  V30 8867 C 826.542 1.42051 1.35337 0
M  V30 8868 O 825.667 0.801866 2.00995 0
M  V30 8869 C 826.262 3.38629 -0.107729 0
M  V30 8870 C 824.821 3.75336 0.282776 0
M  V30 8871 C 823.968 2.7317 -0.4768 0
M  V30 8872 H 826.919 1.41362 -0.72128 0
M  V30 8873 H 826.94 3.74271 0.685689 0
M  V30 8874 H 826.452 3.71017 -1.13876 0
M  V30 8875 H 824.553 3.48558 1.31675 0
M  V30 8876 H 824.666 4.79081 -0.0421728 0
M  V30 8877 H 823.03 2.54591 0.0743552 0
M  V30 8878 H 823.813 3.08403 -1.50807 0
M  V30 8879 N 826.258 0.243083 1.55714 0
M  V30 8880 C 827.535 -0.432851 1.90751 0
M  V30 8881 C 827.915 -1.76153 1.16333 0
M  V30 8882 O 827.263 -2.26783 0.279565 0
M  V30 8883 C 827.473 -0.604685 3.43722 0
M  V30 8884 C 828.821 -0.90231 4.14902 0
M  V30 8885 O 829.845 -0.690689 3.49439 0
M  V30 8886 O 828.704 -1.3051 5.30688 0
M  V30 8887 H 825.798 -0.231835 0.79384 0
M  V30 8888 H 828.344 0.286867 1.67258 0
M  V30 8889 H 827.116 0.331655 3.89892 0
M  V30 8890 H 826.739 -1.37509 3.73065 0
M  V30 8891 N 827.736 -1.57571 -0.0300757 0
M  V30 8892 C 828.982 -1.90355 -0.716687 0
M  V30 8893 C 829.337 -0.841568 -1.73018 0
M  V30 8894 O 828.63 0.149847 -1.91013 0
M  V30 8895 C 828.824 -3.27624 -1.42818 0
M  V30 8896 C 828.653 -4.47076 -0.485111 0
M  V30 8897 C 827.423 -5.05188 -0.106533 0
M  V30 8898 C 829.621 -5.13758 0.236059 0
M  V30 8899 N 827.603 -6.08155 0.837899 0
M  V30 8900 C 828.974 -6.1128 1.03619 0
M  V30 8901 C 831.029 -4.96977 0.30311 0
M  V30 8902 C 829.732 -6.93829 1.89721 0
M  V30 8903 C 831.758 -5.80086 1.15125 0
M  V30 8904 C 831.12 -6.77178 1.9393 0
M  V30 8905 H 827.219 -0.745417 -0.236384 0
M  V30 8906 H 829.803 -1.94686 0.0231985 0
M  V30 8907 H 827.974 -3.24224 -2.13854 0
M  V30 8908 H 829.706 -3.47927 -2.0671 0
M  V30 8909 H 826.461 -4.71277 -0.468498 0
M  V30 8910 H 826.885 -6.64311 1.30459 0
M  V30 8911 H 831.527 -4.21791 -0.291858 0
M  V30 8912 H 829.245 -7.6836 2.50298 0
M  V30 8913 H 832.831 -5.6915 1.20665 0
M  V30 8914 H 831.711 -7.4037 2.58499 0
M  V30 8915 N 829.214 0.302327 -1.54673 0
M  V30 8916 C 830.462 1.03565 -1.73547 0
M  V30 8917 C 830.783 1.87843 -0.523448 0
M  V30 8918 O 830.053 1.90367 0.462295 0
M  V30 8919 H 828.633 0.385358 -0.639928 0
M  V30 8920 H 831.295 0.333632 -1.92023 0
M  V30 8921 H 830.391 1.68952 -2.62415 0
M  V30 8922 N 830.692 1.47107 0.565454 0
M  V30 8923 C 831.938 1.53535 1.32495 0
M  V30 8924 C 832.271 0.193537 1.93233 0
M  V30 8925 O 831.546 -0.796956 1.77423 0
M  V30 8926 C 831.829 2.64712 2.4413 0
M  V30 8927 C 831.682 4.08482 1.88314 0
M  V30 8928 C 833.001 2.71853 3.46098 0
M  V30 8929 H 830.12 0.558926 0.480386 0
M  V30 8930 H 832.762 1.79125 0.633575 0
M  V30 8931 H 830.912 2.43023 3.03104 0
M  V30 8932 H 832.584 4.4151 1.33665 0
M  V30 8933 H 830.827 4.17148 1.19037 0
M  V30 8934 H 831.498 4.82032 2.68978 0
M  V30 8935 H 833.974 2.91397 2.97031 0
M  V30 8936 H 832.85 3.51433 4.21646 0
M  V30 8937 H 833.111 1.78584 4.04426 0
M  V30 8938 N 832.17 -0.811516 1.35101 0
M  V30 8939 C 833.133 -1.90467 1.27495 0
M  V30 8940 C 834.133 -1.59703 0.187516 0
M  V30 8941 O 835.323 -1.68528 0.440896 0
M  V30 8942 C 832.455 -3.26774 0.971154 0
M  V30 8943 H 833.648 -1.98631 2.2469 0
M  V30 8944 H 831.201 -1.00681 1.19553 0
M  V30 8945 H 831.936 -3.243 0.0028557 0
M  V30 8946 H 831.721 -3.50488 1.75785 0
M  V30 8947 H 833.211 -4.06804 0.943414 0
M  V30 8948 N 833.648 -1.19017 -1.03309 0
M  V30 8949 C 834.578 -0.94772 -2.13402 0
M  V30 8950 C 835.559 0.117383 -1.69694 0
M  V30 8951 O 836.744 -0.0367733 -1.94165 0
M  V30 8952 C 833.874 -0.480977 -3.43953 0
M  V30 8953 C 832.828 -1.48743 -4.01322 0
M  V30 8954 C 832.154 -0.877924 -5.27443 0
M  V30 8955 C 833.454 -2.86642 -4.36616 0
M  V30 8956 H 835.148 -1.86846 -2.33942 0
M  V30 8957 H 832.694 -0.899781 -1.12427 0
M  V30 8958 H 834.647 -0.298677 -4.2034 0
M  V30 8959 H 833.371 0.475348 -3.23122 0
M  V30 8960 H 832.03 -1.65681 -3.27025 0
M  V30 8961 H 831.678 0.0858232 -5.02927 0
M  V30 8962 H 831.378 -1.54996 -5.66789 0
M  V30 8963 H 832.902 -0.706326 -6.06501 0
M  V30 8964 H 834.316 -2.73312 -5.03958 0
M  V30 8965 H 832.713 -3.50599 -4.87032 0
M  V30 8966 H 833.783 -3.39617 -3.46105 0
M  V30 8967 N 835.127 1.22348 -0.993418 0
M  V30 8968 C 836.375 1.90733 -0.668246 0
M  V30 8969 C 836.696 1.77732 0.802261 0
M  V30 8970 O 835.966 1.16486 1.57505 0
M  V30 8971 H 834.546 0.705966 -0.244174 0
M  V30 8972 H 837.208 1.48691 -1.26004 0
M  V30 8973 H 836.304 2.97883 -0.931239 0
M  V30 8974 N 836.605 0.766683 1.37694 0
M  V30 8975 C 837.851 0.338201 2.00569 0
M  V30 8976 C 838.206 -1.07196 1.59771 0
M  V30 8977 O 837.499 -1.72622 0.831402 0
M  V30 8978 C 837.693 0.413831 3.54996 0
M  V30 8979 C 837.522 1.8298 4.1079 0
M  V30 8980 C 836.292 2.44932 4.41969 0
M  V30 8981 C 838.49 2.78852 4.32141 0
M  V30 8982 N 836.472 3.78353 4.83448 0
M  V30 8983 C 837.843 3.97063 4.76174 0
M  V30 8984 C 839.898 2.76205 4.14265 0
M  V30 8985 C 838.601 5.13003 5.04203 0
M  V30 8986 C 840.627 3.91314 4.43427 0
M  V30 8987 C 839.989 5.08265 4.87694 0
M  V30 8988 H 836.088 0.170693 0.763143 0
M  V30 8989 H 838.672 0.999435 1.67091 0
M  V30 8990 H 836.843 -0.217198 3.87792 0
M  V30 8991 H 838.575 -0.036222 4.04684 0
M  V30 8992 H 835.33 1.9659 4.3087 0
M  V30 8993 H 835.754 4.46937 5.08504 0
M  V30 8994 H 840.396 1.86962 3.79216 0
M  V30 8995 H 838.114 6.0285 5.38142 0
M  V30 8996 H 841.7 3.906 4.31187 0
M  V30 8997 H 840.58 5.95858 5.09827 0
M  V30 8998 N 838.083 -1.48885 0.516809 0
M  V30 8999 C 839.323 -2.0439 -0.0202232 0
M  V30 9000 C 839.687 -1.38652 -1.32814 0
M  V30 9001 O 840.888 -1.84968 -1.95039 0
M  V30 9002 C 839.159 -3.57071 -0.153257 0
M  V30 9003 S 840.718 -4.34074 -0.642256 0
M  V30 9004 H 837.536 -0.710977 0.00576322 0
M  V30 9005 H 840.138 -1.82753 0.694376 0
M  V30 9006 H 838.842 -4.02454 0.803695 0
M  V30 9007 H 838.373 -3.83139 -0.892627 0
M  V30 9008 H 840.388 -4.58011 -1.90893 0
M  V30 9009 N 839.561 -0.251338 -1.55583 0
M  V30 9010 C 840.494 0.687092 -2.1761 0
M  V30 9011 C 841.472 1.16963 -1.12953 0
M  V30 9012 O 842.656 1.24696 -1.41362 0
M  V30 9013 C 839.783 1.93429 -2.78034 0
M  V30 9014 C 838.829 1.58925 -3.95784 0
M  V30 9015 S 839.662 0.688019 -5.31062 0
M  V30 9016 C 840.818 1.94413 -5.94941 0
M  V30 9017 H 841.051 0.159982 -2.96869 0
M  V30 9018 H 838.584 -0.0357593 -1.54359 0
M  V30 9019 H 840.542 2.65028 -3.13481 0
M  V30 9020 H 839.203 2.43253 -1.98713 0
M  V30 9021 H 838.396 2.51668 -4.36668 0
M  V30 9022 H 837.998 0.953664 -3.61637 0
M  V30 9023 H 840.29 2.89087 -6.12727 0
M  V30 9024 H 841.233 1.5787 -6.90277 0
M  V30 9025 H 841.641 2.09824 -5.24056 0
M  V30 9026 N 841.039 1.57585 0.0217189 0
M  V30 9027 C 842.288 1.88786 0.710125 0
M  V30 9028 C 842.601 0.850819 1.76126 0
M  V30 9029 O 843.807 1.0523 2.50277 0
M  V30 9030 C 842.263 3.3505 1.31413 0
M  V30 9031 C 841.871 4.47001 0.298959 0
M  V30 9032 C 843.615 3.7539 1.98199 0
M  V30 9033 C 841.522 5.8433 0.911727 0
M  V30 9034 H 840.452 0.704388 0.268986 0
M  V30 9035 H 843.103 1.83466 -0.0352638 0
M  V30 9036 H 841.485 3.35138 2.10947 0
M  V30 9037 H 842.659 4.58395 -0.470203 0
M  V30 9038 H 840.974 4.15542 -0.267222 0
M  V30 9039 H 843.571 4.75314 2.4491 0
M  V30 9040 H 843.914 3.07766 2.80331 0
M  V30 9041 H 844.447 3.77508 1.2543 0
M  V30 9042 H 841.186 6.55372 0.129659 0
M  V30 9043 H 840.706 5.76643 1.65056 0
M  V30 9044 H 842.385 6.31295 1.41688 0
M  V30 9045 N 842.517 -0.29412 1.54831 0
M  V30 9046 C 843.763 -1.02999 1.74697 0
M  V30 9047 C 844.096 -1.86687 0.534949 0
M  V30 9048 O 843.371 -1.88789 -0.467863 0
M  V30 9049 C 843.654 -1.93024 3.03996 0
M  V30 9050 C 843.507 -1.1247 4.35512 0
M  V30 9051 C 844.826 -2.92085 3.29203 0
M  V30 9052 H 841.945 -0.373039 0.635618 0
M  V30 9053 H 844.587 -0.304065 1.87551 0
M  V30 9054 H 842.737 -2.5492 2.93169 0
M  V30 9055 H 844.409 -0.528067 4.58268 0
M  V30 9056 H 842.652 -0.427574 4.31688 0
M  V30 9057 H 843.323 -1.78728 5.22265 0
M  V30 9058 H 845.799 -2.40319 3.39685 0
M  V30 9059 H 844.675 -3.52234 4.20978 0
M  V30 9060 H 844.936 -3.66107 2.47827 0
M  V30 9061 N 843.995 -1.47404 -0.557645 0
M  V30 9062 C 845.242 -1.54007 -1.31484 0
M  V30 9063 C 845.57 -0.202162 -1.93447 0
M  V30 9064 O 844.825 0.804901 -1.78381 0
M  V30 9065 C 845.124 -2.6061 -2.44575 0
M  V30 9066 C 844.79 -4.03896 -2.00446 0
M  V30 9067 C 843.452 -4.42901 -1.88127 0
M  V30 9068 C 845.804 -4.93804 -1.66754 0
M  V30 9069 C 843.132 -5.6965 -1.40411 0
M  V30 9070 C 845.484 -6.21016 -1.20509 0
M  V30 9071 C 844.148 -6.58903 -1.06786 0
M  V30 9072 H 843.418 -0.563552 -0.481134 0
M  V30 9073 H 846.065 -1.81001 -0.625375 0
M  V30 9074 H 844.37 -2.27371 -3.19076 0
M  V30 9075 H 846.067 -2.62941 -3.02759 0
M  V30 9076 H 842.657 -3.73077 -2.10977 0
M  V30 9077 H 846.841 -4.64369 -1.75144 0
M  V30 9078 H 842.097 -5.97755 -1.2845 0
M  V30 9079 H 846.271 -6.90095 -0.935001 0
M  V30 9080 H 843.898 -7.57008 -0.695891 0
M  V30 9081 N 845.473 0.80434 -1.35529 0
M  V30 9082 C 846.713 1.57489 -1.30295 0
M  V30 9083 C 847.077 1.91621 0.120528 0
M  V30 9084 O 848.278 2.67151 0.297265 0
M  V30 9085 C 846.549 2.82741 -2.18615 0
M  V30 9086 S 848.108 3.73125 -2.30918 0
M  V30 9087 H 844.926 0.539573 -0.463014 0
M  V30 9088 H 847.528 0.948601 -1.70944 0
M  V30 9089 H 846.232 2.55692 -3.21014 0
M  V30 9090 H 845.763 3.50353 -1.78931 0
M  V30 9091 H 847.778 4.73122 -1.49566 0
M  V30 9092 N 846.951 1.19563 1.02676 0
M  V30 9093 C 848.2 0.993864 1.75514 0
M  V30 9094 C 848.513 -0.475882 1.89723 0
M  V30 9095 O 849.719 -0.796525 2.59553 0
M  V30 9096 C 848.175 1.72937 3.15628 0
M  V30 9097 C 847.783 3.23937 3.09466 0
M  V30 9098 C 849.527 1.61092 3.92746 0
M  V30 9099 C 847.434 3.90067 4.44524 0
M  V30 9100 H 846.364 0.368244 0.657961 0
M  V30 9101 H 849.015 1.43081 1.14891 0
M  V30 9102 H 847.397 1.22025 3.76731 0
M  V30 9103 H 848.571 3.81983 2.57731 0
M  V30 9104 H 846.886 3.3608 2.45843 0
M  V30 9105 H 849.483 2.07848 4.92649 0
M  V30 9106 H 849.826 0.565415 4.12442 0
M  V30 9107 H 850.359 2.09361 3.3825 0
M  V30 9108 H 847.098 4.94725 4.30032 0
M  V30 9109 H 846.618 3.36809 4.96306 0
M  V30 9110 H 848.297 3.93736 5.13401 0
M  V30 9111 N 848.429 -1.21819 0.999893 0
M  V30 9112 C 849.678 -1.90066 0.675108 0
M  V30 9113 C 849.991 -1.78624 -0.79705 0
M  V30 9114 O 851.197 -2.41851 -1.23371 0
M  V30 9115 C 849.653 -3.40795 1.15702 0
M  V30 9116 C 849.261 -3.60859 2.6549 0
M  V30 9117 C 851.005 -4.147 0.906889 0
M  V30 9118 C 848.912 -5.05324 3.07248 0
M  V30 9119 H 847.842 -0.711763 0.248815 0
M  V30 9120 H 850.493 -1.3792 1.21038 0
M  V30 9121 H 848.875 -3.92164 0.549832 0
M  V30 9122 H 850.049 -3.19951 3.31614 0
M  V30 9123 H 848.364 -3.00298 2.88461 0
M  V30 9124 H 850.961 -5.21187 1.1945 0
M  V30 9125 H 851.304 -4.16004 -0.156923 0
M  V30 9126 H 851.837 -3.69379 1.47662 0
M  V30 9127 H 848.576 -5.09164 4.12834 0
M  V30 9128 H 848.096 -5.47108 2.45832 0
M  V30 9129 H 849.775 -5.73797 2.98941 0
M  V30 9130 N 849.908 -0.773975 -1.37286 0
M  V30 9131 C 851.154 -0.348833 -2.00386 0
M  V30 9132 C 851.509 1.06347 -1.60337 0
M  V30 9133 O 850.802 1.72178 -0.840545 0
M  V30 9134 C 850.996 -0.432651 -3.54772 0
M  V30 9135 C 850.825 -1.85155 -4.09814 0
M  V30 9136 C 849.595 -2.47272 -4.40664 0
M  V30 9137 C 851.793 -2.8114 -4.30656 0
M  V30 9138 N 849.775 -3.80912 -4.81435 0
M  V30 9139 C 851.146 -3.99582 -4.74061 0
M  V30 9140 C 853.201 -2.78398 -4.12794 0
M  V30 9141 C 851.904 -5.1567 -5.01475 0
M  V30 9142 C 853.93 -3.9366 -4.41345 0
M  V30 9143 C 853.292 -5.10844 -4.84992 0
M  V30 9144 H 849.391 -0.174738 -0.762227 0
M  V30 9145 H 851.975 -1.00828 -1.66559 0
M  V30 9146 H 850.146 0.19663 -3.87902 0
M  V30 9147 H 851.878 0.0147601 -4.04697 0
M  V30 9148 H 848.633 -1.98872 -4.29822 0
M  V30 9149 H 849.057 -4.49628 -5.06126 0
M  V30 9150 H 853.699 -1.8897 -3.7822 0
M  V30 9151 H 851.417 -6.05696 -5.34938 0
M  V30 9152 H 855.003 -3.92882 -4.2911 0
M  V30 9153 H 853.883 -5.98553 -5.0666 0
M  V30 9154 N 851.386 1.48609 -0.524698 0
M  V30 9155 C 852.635 2.01696 0.0132937 0
M  V30 9156 C 852.948 1.40751 1.35825 0
M  V30 9157 O 854.154 1.85304 1.9843 0
M  V30 9158 C 852.61 3.59824 0.0741012 0
M  V30 9159 C 852.218 4.2975 -1.26564 0
M  V30 9160 C 853.962 4.20774 0.5612 0
M  V30 9161 C 851.869 5.79798 -1.16571 0
M  V30 9162 H 850.799 0.753949 0.00873931 0
M  V30 9163 H 853.45 1.70922 -0.667684 0
M  V30 9164 H 851.832 3.87416 0.820043 0
M  V30 9165 H 853.006 4.13836 -2.02674 0
M  V30 9166 H 851.321 3.80649 -1.68806 0
M  V30 9167 H 853.918 5.30687 0.653853 0
M  V30 9168 H 854.261 3.85734 1.56573 0
M  V30 9169 H 854.794 3.97591 -0.128901 0
M  V30 9170 H 851.533 6.19403 -2.14523 0
M  V30 9171 H 851.053 5.9814 -0.445894 0
M  V30 9172 H 852.732 6.41337 -0.854186 0
M  V30 9173 N 852.864 0.259585 1.55447 0
M  V30 9174 C 854.275 -0.241165 1.85136 0
M  V30 9175 C 854.626 -1.56634 1.18153 0
M  V30 9176 O 853.751 -2.11359 0.464351 0
M  V30 9177 C 854.346 -0.444355 3.35873 0
M  V30 9178 C 852.905 -0.889354 3.65742 0
M  V30 9179 C 852.052 0.0262474 2.77288 0
M  V30 9180 H 855.003 0.481808 1.51209 0
M  V30 9181 H 855.024 -1.28517 3.58139 0
M  V30 9182 H 854.536 0.520289 3.84597 0
M  V30 9183 H 852.637 -1.86602 3.22507 0
M  V30 9184 H 852.75 -0.737432 4.73391 0
M  V30 9185 H 851.114 -0.487361 2.49994 0
M  V30 9186 H 851.897 0.986494 3.28821 0
M  V30 9187 N 854.342 -1.57594 -0.0133615 0
M  V30 9188 C 855.591 -1.8916 -0.700103 0
M  V30 9189 C 855.904 -0.860147 -1.75673 0
M  V30 9190 O 857.11 -1.06556 -2.49716 0
M  V30 9191 C 855.566 -3.35742 -1.29635 0
M  V30 9192 C 855.174 -4.47154 -0.275249 0
M  V30 9193 C 856.918 -3.76436 -1.96205 0
M  V30 9194 C 854.825 -5.84805 -0.880726 0
M  V30 9195 H 853.755 -0.705805 -0.265247 0
M  V30 9196 H 856.406 -1.83445 0.044993 0
M  V30 9197 H 854.788 -3.36252 -2.09167 0
M  V30 9198 H 855.962 -4.58139 0.494506 0
M  V30 9199 H 854.277 -4.15394 0.289256 0
M  V30 9200 H 856.874 -4.76606 -2.42386 0
M  V30 9201 H 857.217 -3.09249 -2.78695 0
M  V30 9202 H 857.75 -3.78168 -1.23426 0
M  V30 9203 H 854.489 -6.55431 -0.0949013 0
M  V30 9204 H 854.009 -5.7751 -1.61995 0
M  V30 9205 H 855.688 -6.32038 -1.38338 0
M  V30 9206 N 855.82 0.285905 -1.54985 0
M  V30 9207 C 856.753 1.37817 -1.81884 0
M  V30 9208 C 857.731 1.4811 -0.670988 0
M  V30 9209 O 858.915 1.64936 -0.912595 0
M  V30 9210 C 856.042 2.75587 -1.969 0
M  V30 9211 C 855.088 2.82643 -3.19398 0
M  V30 9212 S 855.921 2.43199 -4.7709 0
M  V30 9213 C 857.077 3.82969 -4.95061 0
M  V30 9214 H 857.31 1.14794 -2.74244 0
M  V30 9215 H 854.843 0.484843 -1.4659 0
M  V30 9216 H 856.801 3.54932 -2.06236 0
M  V30 9217 H 855.462 2.9587 -1.05451 0
M  V30 9218 H 854.655 3.8373 -3.26753 0
M  V30 9219 H 854.257 2.11306 -3.08586 0
M  V30 9220 H 856.549 4.78117 -4.80011 0
M  V30 9221 H 857.492 3.80575 -5.97133 0
M  V30 9222 H 857.9 3.73673 -4.23118 0
M  V30 9223 N 857.298 1.47698 0.54982 0
M  V30 9224 C 858.261 1.60282 1.63837 0
M  V30 9225 C 859.261 0.477394 1.5355 0
M  V30 9226 O 860.451 0.742665 1.57576 0
M  V30 9227 C 857.583 1.55431 3.03404 0
M  V30 9228 H 858.776 2.57325 1.54026 0
M  V30 9229 H 856.329 1.35999 0.770329 0
M  V30 9230 H 857.064 0.597912 3.1874 0
M  V30 9231 H 856.849 2.37116 3.12279 0
M  V30 9232 H 858.339 1.6739 3.82584 0
M  V30 9233 N 858.776 -0.797141 1.35954 0
M  V30 9234 C 860.025 -1.54983 1.29086 0
M  V30 9235 C 860.338 -1.95167 -0.130003 0
M  V30 9236 O 861.544 -2.69596 -0.32101 0
M  V30 9237 C 860 -2.79738 2.26439 0
M  V30 9238 C 859.608 -2.46753 3.73921 0
M  V30 9239 C 861.352 -3.57733 2.28533 0
M  V30 9240 C 859.259 -3.67858 4.63071 0
M  V30 9241 H 858.189 -0.581766 0.479651 0
M  V30 9242 H 860.84 -0.87541 1.61273 0
M  V30 9243 H 859.222 -3.48939 1.87236 0
M  V30 9244 H 860.396 -1.85499 4.21814 0
M  V30 9245 H 858.711 -1.81985 3.74527 0
M  V30 9246 H 861.308 -4.47699 2.92351 0
M  V30 9247 H 861.651 -3.95754 1.29169 0
M  V30 9248 H 862.184 -2.95504 2.66313 0
M  V30 9249 H 858.923 -3.34939 5.63468 0
M  V30 9250 H 858.443 -4.28305 4.19898 0
M  V30 9251 H 860.122 -4.34977 4.78961 0
M  V30 9252 N 860.254 -1.20106 -1.0204 0
M  V30 9253 C 861.503 -1.00316 -1.74985 0
M  V30 9254 C 861.816 0.465814 -1.89972 0
M  V30 9255 O 863.022 0.782749 -2.59972 0
M  V30 9256 C 861.478 -1.74608 -3.14706 0
M  V30 9257 C 861.086 -3.25573 -3.07744 0
M  V30 9258 C 862.83 -1.63172 -3.91887 0
M  V30 9259 C 860.737 -3.92419 -4.42449 0
M  V30 9260 H 859.667 -0.371728 -0.655999 0
M  V30 9261 H 862.318 -1.43688 -1.14131 0
M  V30 9262 H 860.7 -1.24021 -3.76078 0
M  V30 9263 H 861.874 -3.83345 -2.55702 0
M  V30 9264 H 860.189 -3.3738 -2.44057 0
M  V30 9265 H 862.786 -2.10457 -4.9154 0
M  V30 9266 H 863.129 -0.58728 -4.12137 0
M  V30 9267 H 863.662 -2.11152 -3.37135 0
M  V30 9268 H 860.401 -4.96998 -4.27403 0
M  V30 9269 H 859.921 -3.39436 -4.94513 0
M  V30 9270 H 861.6 -3.96453 -5.11306 0
M  V30 9271 N 861.732 1.21287 -1.00634 0
M  V30 9272 C 862.679 2.23705 -0.567876 0
M  V30 9273 C 863.649 1.61043 0.406753 0
M  V30 9274 O 864.834 1.88289 0.308499 0
M  V30 9275 C 861.974 3.44961 0.097996 0
M  V30 9276 C 861.087 4.22091 -0.919972 0
M  V30 9277 C 860.222 5.30718 -0.226222 0
M  V30 9278 C 859.261 5.99581 -1.23165 0
M  V30 9279 N 858.398 6.99821 -0.565278 0
M  V30 9280 H 863.238 2.60571 -1.44592 0
M  V30 9281 H 860.775 1.28049 -0.724006 0
M  V30 9282 H 862.733 4.1418 0.501097 0
M  V30 9283 H 861.363 3.08818 0.939744 0
M  V30 9284 H 860.415 3.52038 -1.44131 0
M  V30 9285 H 861.727 4.69476 -1.68505 0
M  V30 9286 H 860.881 6.06253 0.232917 0
M  V30 9287 H 859.62 4.84343 0.571247 0
M  V30 9288 H 858.625 5.22816 -1.70128 0
M  V30 9289 H 859.85 6.48042 -2.03022 0
M  V30 9290 H 857.796 6.55656 0.212508 0
M  V30 9291 H 857.713 7.4528 -1.26858 0
M  V30 9292 H 858.981 7.79393 -0.129389 0
M  V30 9293 N 863.21 0.781244 1.36873 0
M  V30 9294 C 864.459 0.34652 1.98701 0
M  V30 9295 C 864.772 -1.08555 1.62712 0
M  V30 9296 O 865.978 -1.62213 2.17713 0
M  V30 9297 C 864.434 0.568611 3.5538 0
M  V30 9298 C 864.042 2.01156 4.003 0
M  V30 9299 C 865.786 0.197983 4.24038 0
M  V30 9300 C 863.693 2.18074 5.49725 0
M  V30 9301 H 862.623 0.125821 0.743428 0
M  V30 9302 H 865.274 0.961721 1.56279 0
M  V30 9303 H 863.656 -0.116185 3.9583 0
M  V30 9304 H 864.83 2.73209 3.71071 0
M  V30 9305 H 863.145 2.33967 3.44454 0
M  V30 9306 H 865.742 0.302778 5.33842 0
M  V30 9307 H 866.085 -0.852927 4.07469 0
M  V30 9308 H 866.618 0.835696 3.88923 0
M  V30 9309 H 863.357 3.21519 5.71232 0
M  V30 9310 H 862.877 1.50517 5.80607 0
M  V30 9311 H 864.556 1.98393 6.15832 0
M  V30 9312 N 864.689 -1.48329 0.532571 0
M  V30 9313 C 865.938 -2.017 -0.00259705 0
M  V30 9314 C 866.251 -1.41469 -1.35077 0
M  V30 9315 O 867.457 -1.86354 -1.97445 0
M  V30 9316 C 865.913 -3.59858 -0.0550179 0
M  V30 9317 C 865.521 -4.29073 1.28842 0
M  V30 9318 C 867.265 -4.21066 -0.538878 0
M  V30 9319 C 865.172 -5.79171 1.19644 0
M  V30 9320 H 864.102 -0.753985 -0.00474081 0
M  V30 9321 H 866.753 -1.70565 0.676739 0
M  V30 9322 H 865.135 -3.87846 -0.799486 0
M  V30 9323 H 866.309 -4.12755 2.04865 0
M  V30 9324 H 864.624 -3.79748 1.70822 0
M  V30 9325 H 867.221 -5.31026 -0.6257 0
M  V30 9326 H 867.564 -3.86559 -1.54525 0
M  V30 9327 H 868.097 -3.97517 0.149984 0
M  V30 9328 H 864.836 -6.18257 2.17805 0
M  V30 9329 H 864.356 -5.97895 0.477609 0
M  V30 9330 H 866.035 -6.40875 0.888186 0
M  V30 9331 N 866.167 -0.267825 -1.55308 0
M  V30 9332 C 867.099 0.65591 -2.19614 0
M  V30 9333 C 868.112 1.12302 -1.17865 0
M  V30 9334 O 869.301 1.04618 -1.44628 0
M  V30 9335 C 866.401 1.90582 -2.80235 0
M  V30 9336 C 865.574 1.58673 -4.07605 0
M  V30 9337 C 864.633 2.68836 -4.52343 0
M  V30 9338 O 863.659 2.35331 -5.18274 0
M  V30 9339 N 864.861 3.98752 -4.21873 0
M  V30 9340 H 867.626 0.105566 -2.99514 0
M  V30 9341 H 865.187 -0.0886263 -1.61657 0
M  V30 9342 H 867.179 2.63561 -3.07112 0
M  V30 9343 H 865.749 2.3654 -2.04371 0
M  V30 9344 H 864.969 0.691113 -3.88094 0
M  V30 9345 H 866.257 1.34845 -4.90606 0
M  V30 9346 H 865.655 4.28797 -3.68985 0
M  V30 9347 H 864.212 4.68131 -4.53537 0
M  V30 9348 N 867.645 1.57599 0.00500368 0
M  V30 9349 C 868.608 2.07058 0.982832 0
M  V30 9350 C 869.608 0.979045 1.27559 0
M  V30 9351 O 870.798 1.24187 1.22161 0
M  V30 9352 C 867.93 2.50782 2.30914 0
M  V30 9353 H 869.123 2.94718 0.555119 0
M  V30 9354 H 866.676 1.54249 0.25237 0
M  V30 9355 H 867.411 1.66351 2.78385 0
M  V30 9356 H 867.196 3.30495 2.10987 0
M  V30 9357 H 868.686 2.89391 3.0107 0
M  V30 9358 N 869.123 -0.277682 1.55134 0
M  V30 9359 C 870.07 -1.34313 1.87693 0
M  V30 9360 C 871.04 -1.49298 0.727973 0
M  V30 9361 O 872.225 -1.6378 0.978807 0
M  V30 9362 C 869.365 -2.69922 2.15026 0
M  V30 9363 C 868.478 -2.63197 3.42565 0
M  V30 9364 C 867.613 -3.90955 3.59622 0
M  V30 9365 C 866.652 -3.78722 4.8087 0
M  V30 9366 N 865.789 -4.98303 4.94609 0
M  V30 9367 H 870.629 -1.05847 2.78569 0
M  V30 9368 H 868.166 -0.511469 1.37922 0
M  V30 9369 H 870.124 -3.48817 2.28872 0
M  V30 9370 H 868.754 -2.966 1.2739 0
M  V30 9371 H 867.806 -1.76038 3.37216 0
M  V30 9372 H 869.118 -2.50056 4.31594 0
M  V30 9373 H 868.272 -4.78291 3.7326 0
M  V30 9374 H 867.011 -4.06957 2.6877 0
M  V30 9375 H 866.016 -2.89769 4.67241 0
M  V30 9376 H 867.241 -3.64242 5.73153 0
M  V30 9377 H 865.187 -5.14725 4.06687 0
M  V30 9378 H 865.104 -4.87675 5.77676 0
M  V30 9379 H 866.372 -5.87225 5.12628 0
M  V30 9380 N 870.601 -1.47988 -0.541979 0
M  V30 9381 C 871.849 -1.55086 -1.29587 0
M  V30 9382 C 872.17 -0.221304 -1.9374 0
M  V30 9383 O 871.44 0.756128 -1.80719 0
M  V30 9384 H 870.02 -0.571307 -0.481266 0
M  V30 9385 H 872.682 -1.8438 -0.631675 0
M  V30 9386 H 871.778 -2.32556 -2.08144 0
M  V30 9387 N 872.079 0.78992 -1.36375 0
M  V30 9388 C 873.027 1.92394 -1.30719 0
M  V30 9389 C 874.021 1.68226 -0.199076 0
M  V30 9390 O 875.227 1.76239 -0.366051 0
M  V30 9391 H 871.602 0.632382 -0.406936 0
M  V30 9392 H 873.573 1.94282 -2.26488 0
M  V30 9393 C 872.322 3.2941 -1.11284 0
M  V30 9394 H 871.645 3.48573 -1.95798 0
M  V30 9395 H 873.085 4.09111 -1.11373 0
M  V30 9396 C 871.544 3.36405 0.182543 0
M  V30 9397 O 872.074 3.84206 1.17255 0
M  V30 9398 N 870.28 2.89712 0.227046 0
M  V30 9399 H 869.827 2.51004 -0.579217 0
M  V30 9400 H 869.785 2.94773 1.09344 0
M  V30 9401 N 873.557 1.20646 1.01402 0
M  V30 9402 C 874.806 1.01242 1.7445 0
M  V30 9403 C 875.119 -0.455732 1.90217 0
M  V30 9404 O 876.325 -0.768951 2.60383 0
M  V30 9405 C 874.781 1.76275 3.13776 0
M  V30 9406 C 874.389 3.27201 3.06013 0
M  V30 9407 C 876.133 1.65248 3.91016 0
M  V30 9408 C 874.04 3.9476 4.40362 0
M  V30 9409 H 872.97 0.375202 0.654018 0
M  V30 9410 H 875.621 1.44292 1.13367 0
M  V30 9411 H 874.003 1.26013 3.75415 0
M  V30 9412 H 875.177 3.84695 2.53665 0
M  V30 9413 H 873.492 3.38669 2.42265 0
M  V30 9414 H 876.089 2.13061 4.90417 0
M  V30 9415 H 876.432 0.609128 4.1182 0
M  V30 9416 H 876.965 2.12937 3.3601 0
M  V30 9417 H 873.704 4.99258 4.24761 0
M  V30 9418 H 873.224 3.42054 4.92706 0
M  V30 9419 H 874.903 3.99159 5.09196 0
M  V30 9420 N 875.035 -1.20752 1.01276 0
M  V30 9421 C 876.282 -1.90021 0.699887 0
M  V30 9422 C 876.61 -1.78604 -0.770113 0
M  V30 9423 O 875.865 -1.16195 -1.57471 0
M  V30 9424 C 876.164 -3.40808 1.07633 0
M  V30 9425 C 875.83 -3.72423 2.54189 0
M  V30 9426 C 874.492 -3.80762 2.94234 0
M  V30 9427 C 876.844 -3.87025 3.49086 0
M  V30 9428 C 874.172 -4.01158 4.28123 0
M  V30 9429 C 876.524 -4.0893 4.82658 0
M  V30 9430 C 875.188 -4.15498 5.22415 0
M  V30 9431 H 874.458 -0.695335 0.256107 0
M  V30 9432 H 877.105 -1.43096 1.27263 0
M  V30 9433 H 875.41 -3.89521 0.421944 0
M  V30 9434 H 877.107 -3.92693 0.811997 0
M  V30 9435 H 873.697 -3.66529 2.22158 0
M  V30 9436 H 877.881 -3.79942 3.19309 0
M  V30 9437 H 873.137 -4.04476 4.58486 0
M  V30 9438 H 877.311 -4.19172 5.56119 0
M  V30 9439 H 874.938 -4.31055 6.26176 0
M  V30 9440 N 876.513 -0.788492 -1.36457 0
M  V30 9441 C 877.445 -0.144208 -2.28746 0
M  V30 9442 C 878.458 0.646009 -1.49434 0
M  V30 9443 O 879.647 0.481344 -1.71888 0
M  V30 9444 C 876.747 0.818869 -3.28858 0
M  V30 9445 C 875.92 0.0789055 -4.37329 0
M  V30 9446 C 874.979 0.957791 -5.1741 0
M  V30 9447 O 874.005 0.415378 -5.67682 0
M  V30 9448 N 875.207 2.28216 -5.33758 0
M  V30 9449 H 877.972 -0.936949 -2.84678 0
M  V30 9450 H 875.533 -0.642317 -1.48613 0
M  V30 9451 H 877.525 1.41065 -3.79319 0
M  V30 9452 H 876.095 1.51249 -2.73573 0
M  V30 9453 H 875.315 -0.693939 -3.88044 0
M  V30 9454 H 876.603 -0.431753 -5.06965 0
M  V30 9455 H 876.001 2.747 -4.94527 0
M  V30 9456 H 874.558 2.8236 -5.87466 0
M  V30 9457 N 877.991 1.48044 -0.54043 0
M  V30 9458 C 879.407 1.58354 -0.199006 0
M  V30 9459 C 879.607 1.54118 1.29807 0
M  V30 9460 O 878.663 1.43573 2.07709 0
M  V30 9461 C 879.976 2.89563 -0.810797 0
M  V30 9462 C 881.524 3.03113 -0.780486 0
M  V30 9463 C 881.999 4.36997 -1.37104 0
M  V30 9464 N 883.49 4.43591 -1.33347 0
M  V30 9465 C 884.225 5.45714 -1.76021 0
M  V30 9466 N 883.721 6.54738 -2.26473 0
M  V30 9467 N 885.514 5.36659 -1.67194 0
M  V30 9468 H 877.665 1.49041 -1.51329 0
M  V30 9469 H 879.928 0.708309 -0.630081 0
M  V30 9470 H 879.634 2.9835 -1.86227 0
M  V30 9471 H 879.508 3.76053 -0.293977 0
M  V30 9472 H 881.895 2.93932 0.262246 0
M  V30 9473 H 881.976 2.18207 -1.33489 0
M  V30 9474 H 881.62 4.46932 -2.41276 0
M  V30 9475 H 881.55 5.20607 -0.792229 0
M  V30 9476 H 884.041 3.65391 -0.964259 0
M  V30 9477 H 884.354 7.28814 -2.57002 0
M  V30 9478 H 882.699 6.55673 -2.30473 0
M  V30 9479 H 885.89 4.50382 -1.27569 0
M  V30 9480 H 886.063 6.16113 -2.00771 0
M  V30 9481 N 879.47 0.276058 1.55163 0
M  V30 9482 C 880.4 -0.604633 2.25536 0
M  V30 9483 C 881.381 -1.15813 1.24585 0
M  V30 9484 O 882.566 -1.1921 1.53306 0
M  V30 9485 C 879.696 -1.78836 2.97716 0
M  V30 9486 C 878.65 -1.36635 4.05604 0
M  V30 9487 C 877.976 -2.63325 4.65364 0
M  V30 9488 C 879.276 -0.515858 5.19746 0
M  V30 9489 H 880.97 -0.0177483 2.99395 0
M  V30 9490 H 878.516 -0.00709627 1.43998 0
M  V30 9491 H 880.469 -2.41036 3.45658 0
M  V30 9492 H 879.193 -2.40109 2.21394 0
M  V30 9493 H 877.852 -0.767541 3.58475 0
M  V30 9494 H 877.5 -3.22858 3.85709 0
M  V30 9495 H 877.2 -2.358 5.38212 0
M  V30 9496 H 878.724 -3.26372 5.16056 0
M  V30 9497 H 880.138 -1.04289 5.63735 0
M  V30 9498 H 878.535 -0.335449 5.99162 0
M  V30 9499 H 879.605 0.465137 4.82664 0
M  V30 9500 N 880.948 -1.576 0.00335426 0
M  V30 9501 C 882.197 -1.89892 -0.680001 0
M  V30 9502 C 882.51 -0.878731 -1.7475 0
M  V30 9503 O 883.716 -1.09199 -2.48572 0
M  V30 9504 C 882.172 -3.37098 -1.26066 0
M  V30 9505 C 881.78 -4.4742 -0.227807 0
M  V30 9506 C 883.524 -3.78495 -1.92202 0
M  V30 9507 C 881.431 -5.85706 -0.81865 0
M  V30 9508 H 880.361 -0.708578 -0.257746 0
M  V30 9509 H 883.012 -1.83387 0.0644472 0
M  V30 9510 H 881.394 -3.38451 -2.05589 0
M  V30 9511 H 882.568 -4.57589 0.54307 0
M  V30 9512 H 880.883 -4.15064 0.333297 0
M  V30 9513 H 883.48 -4.7915 -2.37318 0
M  V30 9514 H 883.823 -3.12187 -2.75399 0
M  V30 9515 H 884.356 -3.79456 -1.19408 0
M  V30 9516 H 881.095 -6.55495 -0.0253787 0
M  V30 9517 H 880.615 -5.79196 -1.55861 0
M  V30 9518 H 882.294 -6.33469 -1.31627 0
M  V30 9519 N 882.426 0.269451 -1.5528 0
M  V30 9520 C 883.651 1.02299 -1.80415 0
M  V30 9521 C 884.076 1.7902 -0.577363 0
M  V30 9522 O 883.434 1.75018 0.473125 0
M  V30 9523 C 883.482 1.95445 -3.0304 0
M  V30 9524 O 882.586 3.04271 -2.78375 0
M  V30 9525 H 881.927 0.292289 -0.596207 0
M  V30 9526 H 884.457 0.297282 -2.02429 0
M  V30 9527 H 884.467 2.37333 -3.31869 0
M  V30 9528 H 883.142 1.39017 -3.91978 0
M  V30 9529 H 881.719 2.66673 -2.60653 0
M  V30 9530 N 883.904 1.48273 0.534124 0
M  V30 9531 C 885.144 1.57674 1.3007 0
M  V30 9532 C 885.508 0.243256 1.90453 0
M  V30 9533 O 886.709 0.212231 2.67961 0
M  V30 9534 C 884.98 2.68044 2.36405 0
M  V30 9535 S 886.539 2.97183 3.22843 0
M  V30 9536 H 883.357 0.55652 0.442501 0
M  V30 9537 H 885.959 1.85774 0.60896 0
M  V30 9538 H 884.663 3.63498 1.90518 0
M  V30 9539 H 884.194 2.41833 3.10291 0
M  V30 9540 H 886.209 2.36164 4.36396 0
M  V30 9541 N 885.382 -0.782676 1.36792 0
M  V30 9542 C 886.622 -1.55396 1.32784 0
M  V30 9543 C 886.986 -1.91789 -0.0900272 0
M  V30 9544 O 888.187 -2.6759 -0.254725 0
M  V30 9545 C 886.458 -2.79227 2.23085 0
M  V30 9546 S 888.017 -3.69404 2.36825 0
M  V30 9547 H 884.835 -0.532139 0.471539 0
M  V30 9548 H 887.437 -0.921285 1.72431 0
M  V30 9549 H 886.141 -2.50553 3.25041 0
M  V30 9550 H 885.672 -3.47462 1.84482 0
M  V30 9551 H 887.687 -4.70683 1.57074 0
M  V30 9552 N 886.86 -1.21182 -1.00761 0
M  V30 9553 C 888.276 -0.968607 -1.26847 0
M  V30 9554 C 888.476 0.346561 -1.98497 0
M  V30 9555 O 887.532 1.07287 -2.28573 0
M  V30 9556 C 888.845 -2.1574 -2.09467 0
M  V30 9557 C 890.393 -2.19937 -2.22703 0
M  V30 9558 C 890.868 -3.38328 -3.08704 0
M  V30 9559 N 892.359 -3.38398 -3.16293 0
M  V30 9560 C 893.094 -4.26653 -3.83086 0
M  V30 9561 N 892.59 -5.25101 -4.5193 0
M  V30 9562 N 894.383 -4.14469 -3.797 0
M  V30 9563 H 886.534 -2.05763 -0.526816 0
M  V30 9564 H 888.797 -0.90087 -0.29519 0
M  V30 9565 H 888.503 -3.11034 -1.64167 0
M  V30 9566 H 888.377 -2.14584 -3.10216 0
M  V30 9567 H 890.764 -1.25201 -2.67224 0
M  V30 9568 H 890.845 -2.25139 -1.21433 0
M  V30 9569 H 890.489 -4.33356 -2.64886 0
M  V30 9570 H 890.419 -3.30364 -4.10082 0
M  V30 9571 H 892.91 -2.67149 -2.67282 0
M  V30 9572 H 893.223 -5.8875 -5.00592 0
M  V30 9573 H 891.568 -5.29029 -4.50726 0
M  V30 9574 H 894.759 -3.3682 -3.25069 0
M  V30 9575 H 894.932 -4.83458 -4.31477 0
M  V30 9576 N 888.338 1.20213 -1.01915 0
M  V30 9577 C 889.749 1.7136 -0.741131 0
M  V30 9578 C 890.1 1.81705 0.740107 0
M  V30 9579 O 889.225 1.48139 1.57746 0
M  V30 9580 C 889.82 3.11231 -1.33869 0
M  V30 9581 C 888.379 3.59677 -1.10948 0
M  V30 9582 C 887.526 2.36809 -1.4428 0
M  V30 9583 H 890.477 1.05191 -1.1883 0
M  V30 9584 H 890.498 3.7342 -0.730585 0
M  V30 9585 H 890.01 3.03669 -2.41675 0
M  V30 9586 H 888.111 3.72568 -0.0492052 0
M  V30 9587 H 888.224 4.44351 -1.79134 0
M  V30 9588 H 886.588 2.39674 -0.861881 0
M  V30 9589 H 887.371 2.31886 -2.53148 0
M  V30 9590 N 889.816 0.795718 1.36037 0
M  V30 9591 C 890.779 0.204318 2.28287 0
M  V30 9592 C 891.779 -0.602017 1.49105 0
M  V30 9593 O 892.969 -0.422089 1.69009 0
M  V30 9594 C 890.101 -0.716431 3.33287 0
M  V30 9595 H 891.294 1.01781 2.821 0
M  V30 9596 H 888.847 0.565588 1.45708 0
M  V30 9597 H 889.582 -1.55403 2.84641 0
M  V30 9598 H 889.367 -0.140096 3.9185 0
M  V30 9599 H 890.857 -1.12488 4.02164 0
M  V30 9600 N 891.294 -1.47756 0.548274 0
M  V30 9601 C 892.519 -2.07387 0.023475 0
M  V30 9602 C 892.944 -1.39956 -1.25674 0
M  V30 9603 O 892.302 -0.471543 -1.7506 0
M  V30 9604 C 892.35 -3.60224 -0.164669 0
M  V30 9605 O 891.454 -3.93653 -1.22928 0
M  V30 9606 H 890.795 -0.662312 0.0473156 0
M  V30 9607 H 893.325 -1.89905 0.761409 0
M  V30 9608 H 893.335 -4.06211 -0.38166 0
M  V30 9609 H 892.01 -4.08702 0.770425 0
M  V30 9610 H 890.587 -3.59422 -0.993495 0
M  V30 9611 N 892.772 -0.284283 -1.55015 0
M  V30 9612 C 893.72 0.615091 -2.2432 0
M  V30 9613 C 894.714 1.15051 -1.24337 0
M  V30 9614 O 895.92 1.10308 -1.4224 0
M  V30 9615 H 892.295 0.216927 -0.720033 0
M  V30 9616 H 894.266 0.00783216 -2.98399 0
M  V30 9617 C 893.015 1.78355 -2.98471 0
M  V30 9618 H 892.338 1.38076 -3.752 0
M  V30 9619 H 893.778 2.38927 -3.50271 0
M  V30 9620 C 892.237 2.67757 -2.04469 0
M  V30 9621 O 892.767 3.6838 -1.60185 0
M  V30 9622 N 890.973 2.35125 -1.70776 0
M  V30 9623 H 890.52 1.53346 -2.06985 0
M  V30 9624 H 890.478 2.95212 -1.08153 0
M  V30 9625 N 894.251 1.57596 -0.0117121 0
M  V30 9626 C 895.497 1.92189 0.665966 0
M  V30 9627 C 895.852 0.887145 1.70726 0
M  V30 9628 O 895.145 -0.099151 1.91343 0
M  V30 9629 C 895.339 3.31296 1.34082 0
M  V30 9630 C 895.168 4.48205 0.366406 0
M  V30 9631 C 893.938 5.05293 -0.0274458 0
M  V30 9632 C 896.136 5.12951 -0.37219 0
M  V30 9633 N 894.118 6.0572 -0.998846 0
M  V30 9634 C 895.489 6.08318 -1.1979 0
M  V30 9635 C 897.544 4.95998 -0.434768 0
M  V30 9636 C 896.247 6.88555 -2.0805 0
M  V30 9637 C 898.273 5.7683 -1.30464 0
M  V30 9638 C 897.635 6.71798 -2.11816 0
M  V30 9639 H 893.734 0.751422 0.216537 0
M  V30 9640 H 896.318 1.94556 -0.0748079 0
M  V30 9641 H 894.489 3.2978 2.05182 0
M  V30 9642 H 896.221 3.53285 1.97413 0
M  V30 9643 H 892.976 4.72354 0.343382 0
M  V30 9644 H 893.4 6.60619 -1.48027 0
M  V30 9645 H 898.042 4.22417 0.179925 0
M  V30 9646 H 895.76 7.61453 -2.70581 0
M  V30 9647 H 899.346 5.6575 -1.35712 0
M  V30 9648 H 898.226 7.33256 -2.78037 0
M  V30 9649 N 895.729 -0.261212 1.5542 0
M  V30 9650 C 896.977 -0.989272 1.76232 0
M  V30 9651 C 897.298 -1.86389 0.573067 0
M  V30 9652 O 896.568 -1.91526 -0.41166 0
M  V30 9653 H 895.148 -0.368256 0.64992 0
M  V30 9654 H 897.81 -0.282603 1.9284 0
M  V30 9655 H 896.906 -1.61935 2.66802 0
M  V30 9656 N 897.207 -1.48554 -0.526253 0
M  V30 9657 C 898.618 -1.50256 -1.10815 0
M  V30 9658 C 898.969 -0.274445 -1.94271 0
M  V30 9659 O 898.094 0.618094 -2.07385 0
M  V30 9660 C 898.689 -2.72264 -2.01638 0
M  V30 9661 C 897.248 -2.76826 -2.55038 0
M  V30 9662 C 896.395 -2.43823 -1.32081 0
M  V30 9663 H 899.346 -1.55616 -0.31133 0
M  V30 9664 H 899.367 -2.50993 -2.85977 0
M  V30 9665 H 898.879 -3.61632 -1.4087 0
M  V30 9666 H 896.98 -1.91676 -3.19517 0
M  V30 9667 H 897.093 -3.78351 -2.93917 0
M  V30 9668 H 895.457 -1.95058 -1.63781 0
M  V30 9669 H 896.24 -3.35436 -0.730596 0
M  V30 9670 N 898.685 0.775411 -1.37205 0
M  V30 9671 C 899.915 1.56219 -1.352 0
M  V30 9672 C 900.323 1.89087 0.065456 0
M  V30 9673 O 899.666 1.51655 1.03665 0
M  V30 9674 C 899.728 2.9019 -2.12203 0
M  V30 9675 C 899.392 2.79978 -3.61195 0
M  V30 9676 C 900.389 2.51258 -4.55154 0
M  V30 9677 C 898.074 2.98115 -4.04268 0
M  V30 9678 C 900.068 2.40798 -5.90165 0
M  V30 9679 C 897.755 2.87276 -5.39366 0
M  V30 9680 C 898.753 2.58657 -6.32128 0
M  V30 9681 O 898.441 2.47838 -7.64743 0
M  V30 9682 H 898.173 0.490735 -0.464925 0
M  V30 9683 H 900.727 0.969201 -1.81096 0
M  V30 9684 H 898.957 3.51594 -1.60992 0
M  V30 9685 H 900.646 3.51561 -2.02879 0
M  V30 9686 H 901.412 2.36935 -4.23186 0
M  V30 9687 H 897.291 3.19392 -3.3243 0
M  V30 9688 H 900.835 2.18381 -6.62537 0
M  V30 9689 H 896.732 3.01166 -5.70937 0
M  V30 9690 H 897.5 2.63215 -7.75023 0
M  V30 9691 N 900.163 1.21714 1.00117 0
M  V30 9692 C 901.093 1.00397 2.10815 0
M  V30 9693 C 902.074 -0.0723502 1.69946 0
M  V30 9694 O 903.259 0.0882398 1.93999 0
M  V30 9695 C 900.389 0.572001 3.42557 0
M  V30 9696 C 899.343 1.59331 3.97237 0
M  V30 9697 C 898.669 1.01746 5.2493 0
M  V30 9698 C 899.969 2.98117 4.28863 0
M  V30 9699 H 901.663 1.92983 2.28906 0
M  V30 9700 H 899.209 0.929273 1.10002 0
M  V30 9701 H 901.162 0.410018 4.19401 0
M  V30 9702 H 899.886 -0.38951 3.24269 0
M  V30 9703 H 898.545 1.74293 3.22518 0
M  V30 9704 H 898.193 0.0475491 5.02978 0
M  V30 9705 H 897.893 1.69969 5.62481 0
M  V30 9706 H 899.417 0.866881 6.04415 0
M  V30 9707 H 900.831 2.86578 4.96534 0
M  V30 9708 H 899.228 3.63389 4.77565 0
M  V30 9709 H 900.298 3.48674 3.36979 0
M  V30 9710 N 901.641 -1.19671 1.02551 0
M  V30 9711 C 902.551 -2.26441 0.613329 0
M  V30 9712 C 903.567 -1.70375 -0.353339 0
M  V30 9713 O 904.743 -2.0028 -0.212064 0
M  V30 9714 C 901.808 -3.46684 -0.0329028 0
M  V30 9715 C 900.869 -4.17945 0.980837 0
M  V30 9716 C 900.102 -5.32448 0.36535 0
M  V30 9717 O 900.325 -5.64291 -0.832596 0
M  V30 9718 O 899.259 -5.92012 1.08652 0
M  V30 9719 H 903.085 -2.63932 1.50246 0
M  V30 9720 H 900.67 -1.2646 0.795502 0
M  V30 9721 H 902.552 -4.1956 -0.393395 0
M  V30 9722 H 901.227 -3.1105 -0.896089 0
M  V30 9723 H 900.134 -3.47204 1.39286 0
M  V30 9724 H 901.467 -4.57542 1.81428 0
M  V30 9725 N 903.119 -0.802921 -1.35613 0
M  V30 9726 C 904.051 -0.168461 -2.2858 0
M  V30 9727 C 905.064 0.630123 -1.50111 0
M  V30 9728 O 906.253 0.463086 -1.72388 0
M  V30 9729 C 903.353 0.783943 -3.29708 0
M  V30 9730 C 902.526 0.0325165 -4.37388 0
M  V30 9731 C 901.585 0.902859 -5.18396 0
M  V30 9732 O 900.611 0.355144 -5.68091 0
M  V30 9733 N 901.813 2.22542 -5.36149 0
M  V30 9734 H 904.578 -0.96709 -2.83668 0
M  V30 9735 H 902.139 -0.658043 -1.47924 0
M  V30 9736 H 904.131 1.37034 -3.80794 0
M  V30 9737 H 902.701 1.48339 -2.75162 0
M  V30 9738 H 901.921 -0.735057 -3.87286 0
M  V30 9739 H 903.209 -0.485499 -5.06478 0
M  V30 9740 H 902.607 2.69439 -4.97412 0
M  V30 9741 H 901.164 2.76113 -5.90428 0
M  V30 9742 N 904.597 1.47463 -0.556102 0
M  V30 9743 C 905.547 2.27007 0.212592 0
M  V30 9744 C 906.531 1.34288 0.886312 0
M  V30 9745 O 907.723 1.5865 0.784801 0
M  V30 9746 C 904.852 3.20021 1.24263 0
M  V30 9747 C 903.938 4.2022 0.572385 0
M  V30 9748 N 904.329 5.04539 -0.35691 0
M  V30 9749 C 902.627 4.38276 0.826441 0
M  V30 9750 C 903.328 5.76895 -0.746134 0
M  V30 9751 N 902.304 5.43506 -0.101225 0
M  V30 9752 H 906.106 2.89582 -0.501925 0
M  V30 9753 H 903.62 1.57988 -0.375961 0
M  V30 9754 H 905.617 3.7569 1.80728 0
M  V30 9755 H 904.277 2.59003 1.95826 0
M  V30 9756 H 905.288 5.12715 -0.731012 0
M  V30 9757 H 901.965 3.88429 1.53066 0
M  V30 9758 H 903.355 6.5472 -1.50967 0
M  V30 9759 N 906.075 0.2925 1.54862 0
M  V30 9760 C 907.491 -0.0611461 1.59483 0
M  V30 9761 C 907.691 -1.53141 1.30958 0
M  V30 9762 O 906.747 -2.28291 1.07887 0
M  V30 9763 C 908.06 0.329143 2.98893 0
M  V30 9764 C 909.608 0.2772 3.1177 0
M  V30 9765 C 910.083 0.642185 4.53475 0
M  V30 9766 N 911.574 0.594396 4.5937 0
M  V30 9767 C 912.309 0.849385 5.67074 0
M  V30 9768 N 911.805 1.1699 6.82851 0
M  V30 9769 N 913.598 0.777016 5.56704 0
M  V30 9770 H 905.749 1.25079 1.71665 0
M  V30 9771 H 908.012 0.506516 0.80134 0
M  V30 9772 H 907.718 1.35233 3.24661 0
M  V30 9773 H 907.592 -0.321442 3.75828 0
M  V30 9774 H 909.979 -0.736725 2.85756 0
M  V30 9775 H 910.06 0.962289 2.3701 0
M  V30 9776 H 909.704 1.65388 4.80218 0
M  V30 9777 H 909.634 -0.0648831 5.2656 0
M  V30 9778 H 912.125 0.357256 3.76208 0
M  V30 9779 H 912.438 1.35067 7.60905 0
M  V30 9780 H 910.783 1.20785 6.84424 0
M  V30 9781 H 913.974 0.526333 4.65132 0
M  V30 9782 H 914.147 0.979113 6.4056 0
M  V30 9783 N 907.553 -1.57587 0.0200696 0
M  V30 9784 C 908.801 -1.91046 -0.65922 0
M  V30 9785 C 909.122 -0.896197 -1.73186 0
M  V30 9786 O 908.392 0.0635952 -1.95797 0
M  V30 9787 H 906.972 -0.705163 -0.246483 0
M  V30 9788 H 909.634 -1.94789 0.0657368 0
M  V30 9789 H 908.73 -2.91399 -1.11773 0
M  V30 9790 N 909.032 0.252966 -1.55557 0
M  V30 9791 C 909.942 1.33472 -1.92931 0
M  V30 9792 C 910.958 1.52983 -0.828985 0
M  V30 9793 O 912.134 1.66723 -1.12984 0
M  V30 9794 C 909.199 2.6704 -2.21112 0
M  V30 9795 C 908.26 2.56103 -3.44542 0
M  V30 9796 C 907.493 3.83302 -3.71369 0
M  V30 9797 O 907.716 4.84907 -3.00368 0
M  V30 9798 O 906.65 3.823 -4.64898 0
M  V30 9799 H 910.476 1.04768 -2.85057 0
M  V30 9800 H 908.061 0.453208 -1.4236 0
M  V30 9801 H 909.943 3.45981 -2.40572 0
M  V30 9802 H 908.618 2.95489 -1.32166 0
M  V30 9803 H 907.525 1.7547 -3.30396 0
M  V30 9804 H 908.858 2.32601 -4.33772 0
M  V30 9805 N 910.51 1.48831 0.518367 0
M  V30 9806 C 911.926 1.35209 0.847979 0
M  V30 9807 C 912.126 0.371927 1.98038 0
M  V30 9808 O 911.182 -0.202681 2.51685 0
M  V30 9809 C 912.495 2.7552 1.20455 0
M  V30 9810 C 914.043 2.84094 1.31377 0
M  V30 9811 C 914.518 4.25132 1.70372 0
M  V30 9812 N 916.009 4.27861 1.77453 0
M  V30 9813 C 916.744 5.3394 2.09035 0
M  V30 9814 N 916.24 6.50285 2.3896 0
M  V30 9815 N 918.033 5.21343 2.10139 0
M  V30 9816 H 910.184 2.11166 -0.228624 0
M  V30 9817 H 912.447 0.94717 -0.0396599 0
M  V30 9818 H 912.153 3.48861 0.445991 0
M  V30 9819 H 912.027 3.09785 2.15204 0
M  V30 9820 H 914.414 2.11001 2.06307 0
M  V30 9821 H 914.495 2.53433 0.347203 0
M  V30 9822 H 914.139 4.98745 0.959975 0
M  V30 9823 H 914.069 4.53245 2.68098 0
M  V30 9824 H 916.56 3.43945 1.56557 0
M  V30 9825 H 916.873 7.26961 2.62196 0
M  V30 9826 H 915.218 6.5354 2.36454 0
M  V30 9827 H 918.409 4.29462 1.86225 0
M  V30 9828 H 918.582 6.04112 2.34419 0
M  V30 9829 N 911.988 -0.768124 1.37614 0
M  V30 9830 C 913.218 -1.555 1.36027 0
M  V30 9831 C 913.626 -1.89119 -0.0554273 0
M  V30 9832 O 912.969 -1.52203 -1.02859 0
M  V30 9833 C 913.031 -2.8906 2.13739 0
M  V30 9834 C 912.695 -2.78058 3.62674 0
M  V30 9835 C 913.692 -2.48841 4.5648 0
M  V30 9836 C 911.377 -2.95966 4.05844 0
M  V30 9837 C 913.371 -2.37665 5.91434 0
M  V30 9838 C 911.058 -2.84411 5.40882 0
M  V30 9839 C 912.056 -2.55301 6.33491 0
M  V30 9840 O 911.744 -2.43779 7.66046 0
M  V30 9841 H 911.476 -0.488263 0.467521 0
M  V30 9842 H 914.03 -0.959583 1.81607 0
M  V30 9843 H 912.26 -3.50735 1.62854 0
M  V30 9844 H 913.949 -3.5048 2.04741 0
M  V30 9845 H 914.715 -2.34687 4.24437 0
M  V30 9846 H 910.594 -3.17625 3.34119 0
M  V30 9847 H 914.138 -2.14865 6.63686 0
M  V30 9848 H 910.035 -2.98134 5.72527 0
M  V30 9849 H 910.803 -2.59101 7.76408 0
M  V30 9850 N 913.466 -1.22244 -0.994698 0
M  V30 9851 C 914.413 -0.990906 -2.08446 0
M  V30 9852 C 915.383 0.086737 -1.65873 0
M  V30 9853 O 916.568 -0.0624882 -1.90698 0
M  V30 9854 C 913.708 -0.572813 -3.40313 0
M  V30 9855 C 912.821 -1.72103 -3.96238 0
M  V30 9856 C 911.956 -1.2511 -5.16257 0
M  V30 9857 C 910.995 -2.37098 -5.64315 0
M  V30 9858 N 910.132 -1.91164 -6.75574 0
M  V30 9859 H 914.972 -1.92377 -2.27585 0
M  V30 9860 H 912.509 -0.958576 -1.11578 0
M  V30 9861 H 914.467 -0.311594 -4.16035 0
M  V30 9862 H 913.097 0.323044 -3.21179 0
M  V30 9863 H 912.149 -2.09662 -3.17405 0
M  V30 9864 H 913.461 -2.56347 -4.27888 0
M  V30 9865 H 912.615 -0.947152 -5.99261 0
M  V30 9866 H 911.354 -0.378836 -4.86226 0
M  V30 9867 H 910.359 -2.68283 -4.799 0
M  V30 9868 H 911.584 -3.24837 -5.96371 0
M  V30 9869 H 909.53 -1.06298 -6.47331 0
M  V30 9870 H 909.447 -2.68975 -7.06533 0
M  V30 9871 H 910.715 -1.63833 -7.62088 0
M  V30 9872 N 914.944 1.19125 -1.03184 0
M  V30 9873 C 916.221 1.84674 -0.644574 0
M  V30 9874 C 916.601 1.92042 0.876534 0
M  V30 9875 O 915.949 1.43965 1.77444 0
M  V30 9876 C 916.159 3.23477 -1.3101 0
M  V30 9877 C 917.507 3.99608 -1.43524 0
M  V30 9878 O 918.531 3.32886 -1.2675 0
M  V30 9879 O 917.39 5.19132 -1.70776 0
M  V30 9880 H 914.484 0.795968 -0.22442 0
M  V30 9881 H 917.03 1.2659 -1.13018 0
M  V30 9882 H 915.802 3.12967 -2.34878 0
M  V30 9883 H 915.425 3.89209 -0.812547 0
M  V30 9884 N 916.422 0.810101 1.35185 0
M  V30 9885 C 917.355 0.168416 2.27578 0
M  V30 9886 C 918.333 -0.667664 1.4826 0
M  V30 9887 O 919.517 -0.634184 1.77512 0
M  V30 9888 C 916.644 -0.765994 3.29925 0
M  V30 9889 C 915.69 -0.00908802 4.26499 0
M  V30 9890 S 916.523 1.32936 5.18737 0
M  V30 9891 C 917.679 0.399485 6.24624 0
M  V30 9892 H 917.912 0.951753 2.81654 0
M  V30 9893 H 915.445 0.60534 1.42039 0
M  V30 9894 H 917.403 -1.2996 3.89385 0
M  V30 9895 H 916.064 -1.52275 2.7472 0
M  V30 9896 H 915.257 -0.718919 4.98846 0
M  V30 9897 H 914.859 0.454663 3.71226 0
M  V30 9898 H 917.151 -0.413904 6.76234 0
M  V30 9899 H 918.094 1.09225 6.99625 0
M  V30 9900 H 918.502 -0.00638358 5.645 0
M  V30 9901 N 917.9 -1.47166 0.563914 0
M  V30 9902 C 919.146 -2.02756 0.0424338 0
M  V30 9903 C 919.479 -1.43662 -1.3067 0
M  V30 9904 O 918.754 -0.594676 -1.85186 0
M  V30 9905 C 919.037 -3.60074 -0.0434793 0
M  V30 9906 C 918.89 -4.29587 1.33323 0
M  V30 9907 C 920.209 -4.336 -0.753568 0
M  V30 9908 H 917.328 -0.736806 0.0168946 0
M  V30 9909 H 919.97 -1.75521 0.727496 0
M  V30 9910 H 918.12 -3.83409 -0.626906 0
M  V30 9911 H 919.792 -4.17573 1.96037 0
M  V30 9912 H 918.035 -3.8968 1.9061 0
M  V30 9913 H 918.706 -5.38218 1.22576 0
M  V30 9914 H 921.182 -4.15299 -0.258126 0
M  V30 9915 H 920.058 -5.43291 -0.782659 0
M  V30 9916 H 920.319 -4.03302 -1.81108 0
M  V30 9917 N 919.378 -0.300708 -1.54705 0
M  V30 9918 C 920.655 0.361757 -1.92226 0
M  V30 9919 C 921.035 1.71714 -1.2279 0
M  V30 9920 O 920.383 2.2559 -0.363542 0
M  V30 9921 C 920.593 0.476699 -3.45729 0
M  V30 9922 C 921.941 0.7477 -4.17965 0
M  V30 9923 O 922.965 0.560521 -3.51762 0
M  V30 9924 O 921.824 1.10724 -5.35166 0
M  V30 9925 H 918.918 0.202213 -0.801897 0
M  V30 9926 H 921.464 -0.348746 -1.66078 0
M  V30 9927 H 920.236 -0.476132 -3.88392 0
M  V30 9928 H 919.859 1.23568 -3.77911 0
M  V30 9929 N 920.856 1.57574 -0.0284266 0
M  V30 9930 C 922.267 1.79585 0.510502 0
M  V30 9931 C 922.618 0.938625 1.72291 0
M  V30 9932 O 921.743 0.14884 2.15888 0
M  V30 9933 C 922.338 3.25703 0.932912 0
M  V30 9934 C 920.897 3.48711 1.41696 0
M  V30 9935 C 920.044 2.74665 0.381356 0
M  V30 9936 H 922.995 1.56647 -0.254464 0
M  V30 9937 H 923.016 3.35376 1.79731 0
M  V30 9938 H 922.528 3.88067 0.0503036 0
M  V30 9939 H 920.629 2.91597 2.31952 0
M  V30 9940 H 920.742 4.57423 1.42481 0
M  V30 9941 H 919.106 2.40123 0.8493 0
M  V30 9942 H 919.889 3.39745 -0.492775 0
M  V30 9943 N 922.334 -0.244713 1.55689 0
M  V30 9944 C 923.281 -1.30301 1.905 0
M  V30 9945 C 924.251 -1.4772 0.759478 0
M  V30 9946 O 925.436 -1.61667 1.01333 0
M  V30 9947 C 922.576 -2.653 2.20703 0
M  V30 9948 C 921.689 -2.55872 3.48071 0
M  V30 9949 C 920.824 -3.83238 3.67834 0
M  V30 9950 C 919.863 -3.68436 4.88796 0
M  V30 9951 N 919 -4.877 5.05068 0
M  V30 9952 H 923.84 -0.999143 2.80751 0
M  V30 9953 H 921.377 -0.482099 1.38976 0
M  V30 9954 H 923.335 -3.43884 2.36219 0
M  V30 9955 H 921.965 -2.93831 1.33653 0
M  V30 9956 H 921.017 -1.68846 3.40874 0
M  V30 9957 H 922.329 -2.40845 4.36801 0
M  V30 9958 H 921.483 -4.70266 3.83321 0
M  V30 9959 H 920.222 -4.01165 2.77341 0
M  V30 9960 H 919.227 -2.79793 4.73282 0
M  V30 9961 H 920.452 -3.52003 5.8075 0
M  V30 9962 H 918.398 -5.05983 4.17513 0
M  V30 9963 H 918.315 -4.75312 5.8789 0
M  V30 9964 H 919.583 -5.76219 5.24969 0
M  V30 9965 N 923.813 -1.49104 -0.510467 0
M  V30 9966 C 924.76 -1.65074 -1.61305 0
M  V30 9967 C 925.73 -0.492362 -1.58635 0
M  V30 9968 O 926.915 -0.718241 -1.76765 0
M  V30 9969 C 924.055 -1.71457 -2.99493 0
M  V30 9970 C 923.168 -2.98536 -3.12251 0
M  V30 9971 C 922.303 -2.95957 -4.41116 0
M  V30 9972 C 921.342 -4.17655 -4.47471 0
M  V30 9973 N 920.479 -4.13041 -5.67751 0
M  V30 9974 H 925.319 -2.59222 -1.46996 0
M  V30 9975 H 922.856 -1.28535 -0.715346 0
M  V30 9976 H 924.814 -1.7314 -3.79577 0
M  V30 9977 H 923.444 -0.807834 -3.12528 0
M  V30 9978 H 922.496 -3.06509 -2.25292 0
M  V30 9979 H 923.808 -3.88527 -3.12807 0
M  V30 9980 H 922.962 -2.96149 -5.2951 0
M  V30 9981 H 921.701 -2.03728 -4.4311 0
M  V30 9982 H 920.706 -4.17717 -3.57481 0
M  V30 9983 H 921.931 -5.11066 -4.472 0
M  V30 9984 H 919.877 -3.23643 -5.70606 0
M  V30 9985 H 919.794 -4.96757 -5.69884 0
M  V30 9986 H 921.062 -4.17322 -6.58379 0
M  V30 9987 N 925.291 0.760815 -1.38019 0
M  V30 9988 C 926.201 1.90526 -1.36884 0
M  V30 9989 C 927.217 1.71941 -0.266908 0
M  V30 9990 O 928.393 1.94988 -0.50413 0
M  V30 9991 C 925.458 3.25799 -1.18558 0
M  V30 9992 C 924.519 3.56961 -2.3849 0
M  V30 9993 C 923.752 4.8578 -2.21029 0
M  V30 9994 O 923.975 5.57629 -1.20023 0
M  V30 9995 O 922.909 5.16254 -3.0946 0
M  V30 9996 H 926.735 1.94437 -2.33298 0
M  V30 9997 H 924.32 0.905091 -1.18863 0
M  V30 9998 H 926.202 4.0669 -1.1037 0
M  V30 9999 H 924.877 3.22716 -0.252241 0
M  V30 10000 H 923.784 2.7626 -2.52252 0
M  V30 10001 H 925.117 3.64798 -3.30429 0
M  V30 10002 N 926.769 1.22769 0.988202 0
M  V30 10003 C 927.732 1.00325 2.06076 0
M  V30 10004 C 928.732 -0.0320618 1.60768 0
M  V30 10005 O 929.922 0.206912 1.72967 0
M  V30 10006 C 927.054 0.516376 3.36966 0
M  V30 10007 H 928.247 1.95499 2.27421 0
M  V30 10008 H 925.8 1.04704 1.16047 0
M  V30 10009 H 926.535 -0.439498 3.21308 0
M  V30 10010 H 926.32 1.26337 3.71189 0
M  V30 10011 H 927.81 0.37974 4.1587 0
M  V30 10012 N 928.247 -1.18576 1.03814 0
M  V30 10013 C 929.524 -1.8433 0.654358 0
M  V30 10014 C 929.904 -1.92504 -0.866338 0
M  V30 10015 O 929.252 -1.44904 -1.76678 0
M  V30 10016 C 929.462 -3.22778 1.32723 0
M  V30 10017 C 930.81 -3.98841 1.45641 0
M  V30 10018 O 931.834 -3.32209 1.28514 0
M  V30 10019 O 930.693 -5.18219 1.73526 0
M  V30 10020 H 927.787 -0.794766 0.228638 0
M  V30 10021 H 930.333 -1.25989 1.13687 0
M  V30 10022 H 929.105 -3.11717 2.36534 0
M  V30 10023 H 928.728 -3.88772 0.833176 0
M  V30 10024 N 929.725 -0.817259 -1.34754 0
M  V30 10025 C 930.675 -0.207585 -2.27053 0
M  V30 10026 C 931.659 0.624836 -1.48272 0
M  V30 10027 O 932.851 0.480344 -1.70358 0
M  V30 10028 C 929.98 0.634281 -3.3739 0
M  V30 10029 C 929.066 -0.208456 -4.23587 0
M  V30 10030 N 929.457 -1.2767 -4.89422 0
M  V30 10031 C 927.755 0.00815096 -4.45999 0
M  V30 10032 C 928.456 -1.79209 -5.53407 0
M  V30 10033 N 927.432 -1.09686 -5.32419 0
M  V30 10034 H 931.234 -1.0248 -2.75454 0
M  V30 10035 H 928.748 -0.659492 -1.48406 0
M  V30 10036 H 930.745 1.08718 -4.02475 0
M  V30 10037 H 929.405 1.44972 -2.90539 0
M  V30 10038 H 930.416 -1.65945 -4.90594 0
M  V30 10039 H 927.093 0.791879 -4.09921 0
M  V30 10040 H 928.483 -2.68548 -6.15899 0
M  V30 10041 N 931.203 1.46865 -0.571711 0
M  V30 10042 C 932.113 2.33979 0.170571 0
M  V30 10043 C 933.129 1.49083 0.897239 0
M  V30 10044 O 934.305 1.81979 0.862888 0
M  V30 10045 C 931.37 3.26063 1.17831 0
M  V30 10046 C 930.431 4.26855 0.457499 0
M  V30 10047 C 929.664 5.14539 1.41722 0
M  V30 10048 O 929.887 5.04945 2.65305 0
M  V30 10049 O 928.821 5.94612 0.9338 0
M  V30 10050 H 932.647 2.98781 -0.544396 0
M  V30 10051 H 930.232 1.4566 -0.332198 0
M  V30 10052 H 932.114 3.82903 1.75965 0
M  V30 10053 H 930.789 2.63871 1.87493 0
M  V30 10054 H 929.696 3.73734 -0.165406 0
M  V30 10055 H 931.029 4.91802 -0.197953 0
M  V30 10056 N 932.681 0.308908 1.54543 0
M  V30 10057 C 933.93 -0.298854 1.99474 0
M  V30 10058 C 934.243 -1.54393 1.20093 0
M  V30 10059 O 935.449 -2.22677 1.55329 0
M  V30 10060 C 933.905 -0.58303 3.55146 0
M  V30 10061 C 933.513 0.644157 4.43345 0
M  V30 10062 C 935.257 -1.15155 4.08582 0
M  V30 10063 C 933.164 0.332694 5.90463 0
M  V30 10064 H 932.094 -0.115445 0.74511 0
M  V30 10065 H 934.745 0.418848 1.78656 0
M  V30 10066 H 933.127 -1.36053 3.71894 0
M  V30 10067 H 934.301 1.42012 4.38371 0
M  V30 10068 H 932.616 1.13186 4.00722 0
M  V30 10069 H 935.213 -1.39896 5.16075 0
M  V30 10070 H 935.556 -2.09632 3.59667 0
M  V30 10071 H 936.089 -0.435571 3.95408 0
M  V30 10072 H 932.828 1.24624 6.43544 0
M  V30 10073 H 932.348 -0.405844 5.98425 0
M  V30 10074 H 934.027 -0.0628545 6.46969 0
M  V30 10075 N 934.159 -1.57557 0.0367827 0
M  V30 10076 C 935.57 -1.79853 -0.500971 0
M  V30 10077 C 935.921 -0.947749 -1.71791 0
M  V30 10078 O 935.046 -0.160287 -2.15806 0
M  V30 10079 C 935.641 -3.26193 -0.915626 0
M  V30 10080 C 934.2 -3.49457 -1.39845 0
M  V30 10081 C 933.347 -2.74864 -0.366784 0
M  V30 10082 H 936.298 -1.56509 0.262768 0
M  V30 10083 H 936.319 -3.36324 -1.7795 0
M  V30 10084 H 935.831 -3.88089 -0.0297227 0
M  V30 10085 H 933.932 -2.92823 -2.30402 0
M  V30 10086 H 934.045 -4.58172 -1.40054 0
M  V30 10087 H 932.409 -2.4057 -0.836554 0
M  V30 10088 H 933.192 -3.39479 0.510785 0
M  V30 10089 N 935.637 0.236453 -1.55816 0
M  V30 10090 C 936.865 0.980295 -1.82203 0
M  V30 10091 C 937.28 1.7854 -0.613926 0
M  V30 10092 O 936.637 1.77661 0.417491 0
M  V30 10093 C 936.688 1.90982 -3.06933 0
M  V30 10094 O 936.409 1.13728 -4.23081 0
M  V30 10095 C 937.91 2.76879 -3.46198 0
M  V30 10096 H 935.13 0.28799 -0.606055 0
M  V30 10097 H 937.674 0.256182 -2.02889 0
M  V30 10098 H 935.829 2.58808 -2.88266 0
M  V30 10099 H 936.243 1.76694 -4.93842 0
M  V30 10100 H 937.717 3.37831 -4.36548 0
M  V30 10101 H 938.194 3.48522 -2.67262 0
M  V30 10102 H 938.8 2.1449 -3.67252 0
M  V30 10103 N 937.115 1.49373 0.502552 0
M  V30 10104 C 938.361 1.59016 1.25864 0
M  V30 10105 C 938.694 0.27532 1.92238 0
M  V30 10106 O 937.969 -0.720988 1.80643 0
M  V30 10107 C 938.252 2.74828 2.32683 0
M  V30 10108 C 938.105 4.16102 1.7082 0
M  V30 10109 C 939.424 2.86288 3.34256 0
M  V30 10110 H 936.543 0.578798 0.456248 0
M  V30 10111 H 939.185 1.81651 0.557032 0
M  V30 10112 H 937.335 2.5566 2.92524 0
M  V30 10113 H 939.007 4.46782 1.14818 0
M  V30 10114 H 937.25 4.21822 1.01238 0
M  V30 10115 H 937.921 4.93006 2.48292 0
M  V30 10116 H 940.397 3.03733 2.84404 0
M  V30 10117 H 939.273 3.69001 4.06362 0
M  V30 10118 H 939.534 1.95576 3.96488 0
M  V30 10119 N 938.594 -0.753485 1.38421 0
M  V30 10120 C 939.819 -1.54783 1.38047 0
M  V30 10121 C 940.244 -1.8808 -0.0276371 0
M  V30 10122 O 939.602 -1.5058 -1.00973 0
M  V30 10123 C 939.65 -2.82353 2.24297 0
M  V30 10124 O 938.754 -3.77509 1.66014 0
M  V30 10125 H 938.095 -0.468151 0.470883 0
M  V30 10126 H 940.625 -0.931144 1.82184 0
M  V30 10127 H 940.635 -3.31277 2.38159 0
M  V30 10128 H 939.31 -2.57449 3.26639 0
M  V30 10129 H 937.887 -3.36212 1.61294 0
M  V30 10130 N 940.072 -1.23292 -0.981677 0
M  V30 10131 C 941.32 -1.06214 -1.71939 0
M  V30 10132 C 941.641 0.401989 -1.90812 0
M  V30 10133 O 940.911 1.28825 -1.47584 0
M  V30 10134 H 939.491 -0.390042 -0.637084 0
M  V30 10135 H 942.153 -1.54988 -1.18173 0
M  V30 10136 H 941.249 -1.54904 -2.70945 0
M  V30 10137 N 941.55 1.18024 -1.04442 0
M  V30 10138 C 942.775 1.92573 -0.770097 0
M  V30 10139 C 943.2 1.75871 0.667169 0
M  V30 10140 O 942.558 1.07136 1.46258 0
M  V30 10141 C 942.606 3.41904 -1.14602 0
M  V30 10142 O 941.71 4.11491 -0.273712 0
M  V30 10143 H 941.051 0.600636 -0.283076 0
M  V30 10144 H 943.581 1.49645 -1.39526 0
M  V30 10145 H 943.591 3.92623 -1.10956 0
M  V30 10146 H 942.266 3.53382 -2.19304 0
M  V30 10147 H 940.843 3.71059 -0.370124 0
M  V30 10148 N 943.028 0.824394 1.34319 0
M  V30 10149 C 944.444 0.510336 1.51221 0
M  V30 10150 C 944.644 -0.965201 1.76879 0
M  V30 10151 O 943.7 -1.74961 1.82057 0
M  V30 10152 C 945.013 1.37114 2.6762 0
M  V30 10153 C 946.561 1.36842 2.81502 0
M  V30 10154 C 947.036 2.21374 4.00946 0
M  V30 10155 N 948.527 2.19005 4.08156 0
M  V30 10156 C 949.262 2.81159 4.99737 0
M  V30 10157 N 948.758 3.52309 5.96532 0
M  V30 10158 N 950.551 2.70706 4.9262 0
M  V30 10159 H 942.702 1.77976 1.15924 0
M  V30 10160 H 944.965 0.758503 0.568663 0
M  V30 10161 H 944.671 2.41905 2.55294 0
M  V30 10162 H 944.545 1.03689 3.62669 0
M  V30 10163 H 946.932 0.328284 2.93268 0
M  V30 10164 H 947.013 1.74265 1.87257 0
M  V30 10165 H 946.657 3.25437 3.8994 0
M  V30 10166 H 946.587 1.813 4.94407 0
M  V30 10167 H 949.078 1.67252 3.38874 0
M  V30 10168 H 949.391 3.96977 6.63045 0
M  V30 10169 H 947.736 3.56415 5.96652 0
M  V30 10170 H 950.927 2.14694 4.15962 0
M  V30 10171 H 951.1 3.19431 5.63798 0
M  V30 10172 N 944.506 -1.46559 0.579492 0
M  V30 10173 C 945.453 -2.30275 -0.155598 0
M  V30 10174 C 946.423 -1.40422 -0.887175 0
M  V30 10175 O 947.608 -1.69373 -0.878481 0
M  V30 10176 C 944.748 -3.24827 -1.16539 0
M  V30 10177 C 943.861 -4.29778 -0.43759 0
M  V30 10178 C 942.996 -5.11461 -1.43462 0
M  V30 10179 C 942.035 -6.08164 -0.693048 0
M  V30 10180 N 941.172 -6.82726 -1.63799 0
M  V30 10181 H 946.012 -2.92607 0.564356 0
M  V30 10182 H 943.549 -1.44211 0.290126 0
M  V30 10183 H 945.507 -3.78088 -1.76368 0
M  V30 10184 H 944.137 -2.64311 -1.8531 0
M  V30 10185 H 943.189 -3.794 0.27567 0
M  V30 10186 H 944.501 -4.98597 0.142298 0
M  V30 10187 H 943.655 -5.68982 -2.1058 0
M  V30 10188 H 942.394 -4.42595 -2.04844 0
M  V30 10189 H 941.399 -5.49799 -0.00807093 0
M  V30 10190 H 942.624 -6.79047 -0.0846678 0
M  V30 10191 H 940.57 -6.16572 -2.23997 0
M  V30 10192 H 940.487 -7.47795 -1.11082 0
M  V30 10193 H 941.755 -7.44807 -2.29962 0
M  V30 10194 N 945.984 -0.3171 -1.54377 0
M  V30 10195 C 947.395 0.172287 -1.85903 0
M  V30 10196 C 947.746 1.52141 -1.23885 0
M  V30 10197 O 946.871 2.0949 -0.542476 0
M  V30 10198 C 947.466 0.319392 -3.37291 0
M  V30 10199 C 946.025 0.752998 -3.68791 0
M  V30 10200 C 945.172 -0.129143 -2.76999 0
M  V30 10201 H 948.123 -0.537597 -1.49317 0
M  V30 10202 H 948.144 1.15137 -3.62662 0
M  V30 10203 H 947.656 -0.662671 -3.82401 0
M  V30 10204 H 945.757 1.74504 -3.2921 0
M  V30 10205 H 945.87 0.561228 -4.75801 0
M  V30 10206 H 944.234 0.394242 -2.5163 0
M  V30 10207 H 945.017 -1.10785 -3.24933 0
M  V30 10208 N 947.462 1.57535 -0.0451378 0
M  V30 10209 C 948.372 2.14653 0.946646 0
M  V30 10210 C 949.388 1.10279 1.3459 0
M  V30 10211 O 950.564 1.42417 1.42405 0
M  V30 10212 C 947.629 2.67533 2.20515 0
M  V30 10213 C 946.69 3.86682 1.86481 0
M  V30 10214 C 945.923 4.37031 3.06332 0
M  V30 10215 O 946.146 3.86481 4.1951 0
M  V30 10216 O 945.08 5.28691 2.87697 0
M  V30 10217 H 948.906 2.99706 0.49091 0
M  V30 10218 H 946.491 1.48355 0.17641 0
M  V30 10219 H 948.373 3.01542 2.94365 0
M  V30 10220 H 947.048 1.85554 2.65238 0
M  V30 10221 H 945.955 3.57573 1.09966 0
M  V30 10222 H 947.288 4.69873 1.46562 0
M  V30 10223 O 948.979 -0.0961309 1.61214 0
M  V30 10224 H 949.67 -0.72487 1.79625 0
M  V30 END ATOM
M  V30 BEGIN BOND
M  V30 END BOND
M  V30 END CTAB
M  END
$$$$
