drugbank_target|Q9UNP4 Lactosylceramide alpha-2,3-sialyltransferase (DB05867)
 OpenBabel12092120563D

  0  0  0     0  0            999 V3000
M  V30 BEGIN CTAB
M  V30 COUNTS 6802 6888 0 0 0
M  V30 BEGIN ATOM
M  V30 1 H -0.908 1.98254 -0.117106 0
M  V30 2 N 0 1.576 0 0
M  V30 3 C 0.933 2.03868 1.02534 0
M  V30 4 C 1.911 0.928543 1.3348 0
M  V30 5 O 3.095 1.19667 1.45644 0
M  V30 6 C 0.222 2.43627 2.35294 0
M  V30 7 C -0.732 3.65373 2.2001 0
M  V30 8 S 0.101 5.13292 1.52614 0
M  V30 9 C 1.257 5.56322 2.86805 0
M  V30 10 H 1.49 2.90518 0.631377 0
M  V30 11 H -0.977 1.52953 0.210867 0
M  V30 12 H 0.981 2.67203 3.11629 0
M  V30 13 H -0.358 1.57376 2.7183 0
M  V30 14 H -1.165 3.90944 3.18086 0
M  V30 15 H -1.563 3.418 1.51819 0
M  V30 16 H 0.729 5.58782 3.83104 0
M  V30 17 H 1.672 6.56266 2.65933 0
M  V30 18 H 2.08 4.83886 2.90714 0
M  V30 19 N 1.4781 -0.272755 1.55222 0
M  V30 20 C 2.8941 -0.619959 1.47067 0
M  V30 21 C 3.0941 -1.895 0.684978 0
M  V30 22 O 2.1501 -2.51675 0.203931 0
M  V30 23 C 3.4631 -0.746693 2.91282 0
M  V30 24 C 5.0111 -0.840731 3.01497 0
M  V30 25 C 5.4861 -0.99924 4.46967 0
M  V30 26 N 6.9771 -1.06476 4.50796 0
M  V30 27 C 7.7121 -1.20621 5.6057 0
M  V30 28 N 7.2081 -1.31483 6.80209 0
M  V30 29 N 9.0011 -1.23733 5.48312 0
M  V30 30 H 1.1521 0.564606 2.04758 0
M  V30 31 H 3.4151 0.191177 0.928523 0
M  V30 32 H 3.1211 0.119753 3.51496 0
M  V30 33 H 2.9951 -1.6269 3.40311 0
M  V30 34 H 5.3821 -1.69764 2.41379 0
M  V30 35 H 5.4631 0.0640874 2.5572 0
M  V30 36 H 5.1071 -0.146984 5.07687 0
M  V30 37 H 5.0371 -1.91871 4.90401 0
M  V30 38 H 7.5281 -0.993196 3.64615 0
M  V30 39 H 7.8411 -1.42111 7.59621 0
M  V30 40 H 6.1861 -1.28487 6.8302 0
M  V30 41 H 9.3771 -1.14877 4.53785 0
M  V30 42 H 9.5501 -1.34412 6.33906 0
M  V30 43 N 2.9562 -1.48159 -0.537278 0
M  V30 44 C 4.1842 -1.59454 -1.31841 0
M  V30 45 C 4.5992 -0.252065 -1.8711 0
M  V30 46 O 3.9562 0.757621 -1.66031 0
M  V30 47 C 4.0072 -2.63546 -2.47439 0
M  V30 48 O 3.7282 -3.92583 -1.94449 0
M  V30 49 C 5.2292 -2.85212 -3.39366 0
M  V30 50 H 2.4492 -0.53785 -0.401196 0
M  V30 51 H 4.9932 -1.93932 -0.648891 0
M  V30 52 H 3.1482 -2.31946 -3.1029 0
M  V30 53 H 3.5622 -4.49629 -2.70063 0
M  V30 54 H 5.0362 -3.61863 -4.16844 0
M  V30 55 H 5.5132 -1.93765 -3.94147 0
M  V30 56 H 6.1192 -3.18086 -2.82314 0
M  V30 57 N 4.4343 0.785586 -1.36625 0
M  V30 58 C 5.3813 1.89838 -1.31264 0
M  V30 59 C 6.3513 1.65115 -0.180633 0
M  V30 60 O 7.5363 1.87222 -0.36777 0
M  V30 61 C 4.6763 3.26706 -1.11163 0
M  V30 62 C 3.7893 3.63476 -2.33472 0
M  V30 63 C 2.9243 4.89481 -2.06353 0
M  V30 64 C 1.9633 5.18941 -3.24602 0
M  V30 65 N 1.1003 6.36131 -2.97123 0
M  V30 66 H 5.9403 1.93756 -2.26413 0
M  V30 67 H 3.4773 0.947454 -1.12524 0
M  V30 68 H 5.4353 4.05639 -0.975337 0
M  V30 69 H 4.0653 3.222 -0.196674 0
M  V30 70 H 3.1173 2.79636 -2.57891 0
M  V30 71 H 4.4293 3.81193 -3.21704 0
M  V30 72 H 3.5833 5.76288 -1.89675 0
M  V30 73 H 2.3223 4.73841 -1.15437 0
M  V30 74 H 1.3273 4.30615 -3.41834 0
M  V30 75 H 2.5523 5.36498 -4.16349 0
M  V30 76 H 0.4983 6.21875 -2.08823 0
M  V30 77 H 0.4153 6.54198 -3.78894 0
M  V30 78 H 1.6833 7.2591 -2.84033 0
M  V30 79 N 5.9124 1.20967 1.01018 0
M  V30 80 C 6.8754 0.965918 2.07853 0
M  V30 81 C 7.8754 -0.0610545 1.60684 0
M  V30 82 O 9.0654 0.175681 1.73312 0
M  V30 83 C 6.1974 0.455513 3.37843 0
M  V30 84 H 7.3904 1.91365 2.3091 0
M  V30 85 H 4.9434 1.02594 1.17916 0
M  V30 86 H 5.6784 -0.497381 3.20463 0
M  V30 87 H 5.4634 1.19622 3.73407 0
M  V30 88 H 6.9534 0.304667 4.16487 0
M  V30 89 N 7.3905 -1.2043 1.01659 0
M  V30 90 C 8.3535 -2.21433 0.591616 0
M  V30 91 C 9.3535 -1.57203 -0.338226 0
M  V30 92 O 10.5435 -1.73737 -0.126918 0
M  V30 93 C 7.6755 -3.40628 -0.136058 0
M  V30 94 H 8.8685 -2.60545 1.48514 0
M  V30 95 H 6.4215 -1.33893 0.806379 0
M  V30 96 H 7.1565 -3.07019 -1.04449 0
M  V30 97 H 6.9415 -3.88475 0.531917 0
M  V30 98 H 8.4315 -4.15475 -0.420735 0
M  V30 99 N 8.8686 -0.792821 -1.36206 0
M  V30 100 C 10.1166 -0.366062 -1.98757 0
M  V30 101 C 10.4376 1.0668 -1.63231 0
M  V30 102 O 9.7076 1.73587 -0.907978 0
M  V30 103 H 8.2876 -0.132364 -0.735179 0
M  V30 104 H 10.9496 -1.01562 -1.66347 0
M  V30 105 H 10.0456 -0.460638 -3.08682 0
M  V30 106 N 10.3467 1.47872 -0.545128 0
M  V30 107 C 11.5867 2.04391 -0.0187854 0
M  V30 108 C 11.9507 1.41162 1.30144 0
M  V30 109 O 13.1517 1.88656 1.91474 0
M  V30 110 C 11.4227 3.57299 0.0850867 0
M  V30 111 S 12.9817 4.35221 0.559302 0
M  V30 112 H 9.7997 0.710737 -0.0193301 0
M  V30 113 H 12.4017 1.81395 -0.729125 0
M  V30 114 H 11.1057 4.00847 -0.880351 0
M  V30 115 H 10.6367 3.84773 0.819348 0
M  V30 116 H 12.6517 4.61571 1.82118 0
M  V30 117 N 11.8248 0.280983 1.55075 0
M  V30 118 C 12.7878 -0.590896 2.21452 0
M  V30 119 C 13.7878 -1.07682 1.19421 0
M  V30 120 O 14.9778 -0.97605 1.44288 0
M  V30 121 C 12.1098 -1.81587 2.88511 0
M  V30 122 H 13.3028 -0.0112554 2.99898 0
M  V30 123 H 10.8558 0.0316438 1.56268 0
M  V30 124 H 11.5908 -2.43587 2.14093 0
M  V30 125 H 11.3758 -1.4753 3.63287 0
M  V30 126 H 12.8658 -2.43575 3.39206 0
M  V30 127 N 13.3029 -1.57598 0.00835791 0
M  V30 128 C 14.2129 -2.12385 -0.996487 0
M  V30 129 C 15.2289 -1.07108 -1.37127 0
M  V30 130 O 16.4049 -1.39055 -1.4569 0
M  V30 131 C 13.4699 -2.62314 -2.26699 0
M  V30 132 C 12.5309 -3.82225 -1.95456 0
M  V30 133 C 11.7639 -4.29763 -3.16449 0
M  V30 134 O 11.9869 -3.76584 -4.28416 0
M  V30 135 O 10.9209 -5.21832 -2.99958 0
M  V30 136 H 14.7469 -2.98479 -0.560725 0
M  V30 137 H 12.3319 -1.47903 -0.210987 0
M  V30 138 H 14.2139 -2.94589 -3.01322 0
M  V30 139 H 12.8889 -1.79313 -2.69497 0
M  V30 140 H 11.7959 -3.54909 -1.18282 0
M  V30 141 H 13.1289 -4.66324 -1.57489 0
M  V30 142 N 14.781 0.264519 -1.55364 0
M  V30 143 C 16.197 0.61215 -1.47394 0
M  V30 144 C 16.397 1.89134 -0.695018 0
M  V30 145 O 15.453 2.51563 -0.217275 0
M  V30 146 C 16.766 0.731235 -2.91674 0
M  V30 147 C 18.314 0.82473 -3.01939 0
M  V30 148 C 18.789 0.975522 -4.4749 0
M  V30 149 N 20.28 1.04083 -4.51354 0
M  V30 150 C 21.015 1.17646 -5.61201 0
M  V30 151 N 20.511 1.27874 -6.80896 0
M  V30 152 N 22.304 1.20823 -5.48961 0
M  V30 153 H 14.455 -0.575456 -2.04456 0
M  V30 154 H 16.718 -0.196099 -0.927496 0
M  V30 155 H 16.424 -0.138392 -3.51428 0
M  V30 156 H 16.298 1.60883 -3.41169 0
M  V30 157 H 18.685 1.68482 -2.42276 0
M  V30 158 H 18.766 -0.0776479 -2.55682 0
M  V30 159 H 18.41 0.120058 -5.07758 0
M  V30 160 H 18.34 1.89268 -4.91412 0
M  V30 161 H 20.831 0.973846 -3.65136 0
M  V30 162 H 21.144 1.38081 -7.60364 0
M  V30 163 H 19.489 1.24863 -6.83692 0
M  V30 164 H 22.68 1.12469 -4.54388 0
M  V30 165 H 22.853 1.31049 -6.3461 0
M  V30 166 N 16.2591 1.48442 0.529413 0
M  V30 167 C 17.6751 1.34575 0.858004 0
M  V30 168 C 17.8751 0.3572 1.98309 0
M  V30 169 O 16.9311 -0.221379 2.51528 0
M  V30 170 C 18.2441 2.74617 1.22499 0
M  V30 171 C 19.7921 2.83109 1.33484 0
M  V30 172 C 20.2671 4.23854 1.73526 0
M  V30 173 N 21.7581 4.2653 1.80628 0
M  V30 174 C 22.4931 5.32372 2.12997 0
M  V30 175 N 21.9891 6.48491 2.43786 0
M  V30 176 N 23.7821 5.19766 2.14008 0
M  V30 177 H 15.9331 2.1133 -0.212925 0
M  V30 178 H 18.1961 0.947439 -0.0326199 0
M  V30 179 H 17.9021 3.4852 0.471905 0
M  V30 180 H 17.7761 3.08177 2.17501 0
M  V30 181 H 20.1631 2.09462 2.0787 0
M  V30 182 H 20.2441 2.53168 0.366027 0
M  V30 183 H 19.8881 4.98018 0.997013 0
M  V30 184 H 19.8181 4.5124 2.71459 0
M  V30 185 H 22.3091 3.42772 1.59108 0
M  V30 186 H 22.6221 7.24993 2.67592 0
M  V30 187 H 20.9671 6.51765 2.41304 0
M  V30 188 H 24.1581 4.28066 1.89412 0
M  V30 189 H 24.3311 6.02354 2.38902 0
M  V30 190 N 17.7372 -0.778329 1.37039 0
M  V30 191 C 19.1482 -1.35421 1.28523 0
M  V30 192 C 19.4992 -1.96075 -0.0700901 0
M  V30 193 O 18.6242 -1.93352 -0.971801 0
M  V30 194 C 19.2192 -2.46211 2.32735 0
M  V30 195 C 17.7782 -2.99585 2.27873 0
M  V30 196 C 16.9252 -1.72748 2.16918 0
M  V30 197 H 19.8762 -0.5791 1.47757 0
M  V30 198 H 19.8972 -3.2552 1.9702 0
M  V30 199 H 19.4092 -2.02036 3.31365 0
M  V30 200 H 17.5102 -3.48152 1.32745 0
M  V30 201 H 17.6232 -3.55646 3.21018 0
M  V30 202 H 15.9872 -1.95416 1.63354 0
M  V30 203 H 16.7702 -1.30686 3.17452 0
M  V30 204 N 19.2153 -1.21501 -1.00376 0
M  V30 205 C 20.1453 -0.999478 -2.11028 0
M  V30 206 C 21.1263 0.0759671 -1.6993 0
M  V30 207 O 22.3113 -0.0841106 -1.94018 0
M  V30 208 C 19.4413 -0.564709 -3.42678 0
M  V30 209 C 18.3953 -1.58486 -3.97576 0
M  V30 210 C 17.7213 -1.00628 -5.25146 0
M  V30 211 C 19.0213 -2.97204 -4.29496 0
M  V30 212 H 20.7153 -1.92495 -2.29317 0
M  V30 213 H 18.2613 -0.92693 -1.102 0
M  V30 214 H 20.2143 -0.401091 -4.19487 0
M  V30 215 H 18.9383 0.396411 -3.24185 0
M  V30 216 H 17.5973 -1.73606 -3.22888 0
M  V30 217 H 17.2453 -0.0368439 -5.02987 0
M  V30 218 H 16.9453 -1.68771 -5.62841 0
M  V30 219 H 18.4693 -0.854015 -6.04598 0
M  V30 220 H 19.8833 -2.8552 -4.97143 0
M  V30 221 H 18.2803 -3.62372 -4.78338 0
M  V30 222 H 19.3503 -3.47956 -3.3772 0
M  V30 223 N 20.6934 1.19889 -1.02296 0
M  V30 224 C 21.6254 2.22334 -0.556787 0
M  V30 225 C 22.6384 1.58674 0.364199 0
M  V30 226 O 23.8274 1.77768 0.161533 0
M  V30 227 C 20.9274 3.38257 0.208694 0
M  V30 228 C 20.1004 4.31504 -0.71577 0
M  V30 229 C 19.1594 5.262 0.00325597 0
M  V30 230 O 18.1854 5.65798 -0.621357 0
M  V30 231 N 19.3874 5.66303 1.27599 0
M  V30 232 H 22.1524 2.62957 -1.43784 0
M  V30 233 H 19.7134 1.34495 -0.901261 0
M  V30 234 H 21.7054 3.98616 0.699111 0
M  V30 235 H 20.2754 2.96472 0.991102 0
M  V30 236 H 19.4954 3.69016 -1.38638 0
M  V30 237 H 20.7834 4.9072 -1.34428 0
M  V30 238 H 20.1814 5.36155 1.80429 0
M  V30 239 H 18.7384 6.28942 1.71102 0
M  V30 240 N 22.1715 0.800033 1.35784 0
M  V30 241 C 23.5825 0.439142 1.81462 0
M  V30 242 C 23.9335 -1.03813 1.66485 0
M  V30 243 O 23.0585 -1.80626 1.19177 0
M  V30 244 C 23.6535 0.790314 3.29453 0
M  V30 245 C 22.2125 0.482111 3.733 0
M  V30 246 C 21.3595 1.01938 2.57883 0
M  V30 247 H 24.3105 0.992254 1.23855 0
M  V30 248 H 24.3315 0.0853677 3.80404 0
M  V30 249 H 23.8435 1.86554 3.40322 0
M  V30 250 H 21.9445 -0.584652 3.67984 0
M  V30 251 H 22.0575 1.01015 4.6833 0
M  V30 252 H 20.4215 0.442043 2.50835 0
M  V30 253 H 21.2045 2.10059 2.71533 0
M  V30 254 N 23.6496 -1.47581 0.552962 0
M  V30 255 C 25.0656 -1.5818 0.212424 0
M  V30 256 C 25.2656 -1.55213 -1.28496 0
M  V30 257 O 24.3216 -1.45329 -2.06484 0
M  V30 258 C 25.6346 -2.88865 0.835318 0
M  V30 259 C 27.1826 -3.0244 0.806156 0
M  V30 260 C 27.6576 -4.35819 1.40804 0
M  V30 261 N 29.1486 -4.42444 1.37103 0
M  V30 262 C 29.8836 -5.44202 1.80641 0
M  V30 263 N 29.3796 -6.52795 2.32015 0
M  V30 264 N 31.1726 -5.35222 1.71738 0
M  V30 265 H 23.3236 -1.47753 1.52587 0
M  V30 266 H 25.5866 -0.702941 0.636064 0
M  V30 267 H 25.2926 -2.9676 1.88749 0
M  V30 268 H 25.1666 -3.7579 0.325848 0
M  V30 269 H 27.5536 -2.94144 -0.237317 0
M  V30 270 H 27.6346 -2.17068 1.35334 0
M  V30 271 H 27.2786 -4.44871 2.45056 0
M  V30 272 H 27.2086 -5.19916 0.836338 0
M  V30 273 H 29.6996 -3.6456 0.995202 0
M  V30 274 H 30.0126 -7.26609 2.63171 0
M  V30 275 H 28.3576 -6.53696 2.36023 0
M  V30 276 H 31.5486 -4.49284 1.31382 0
M  V30 277 H 31.7216 -6.14389 2.05987 0
M  V30 278 N 25.1277 -0.289203 -1.54924 0
M  V30 279 C 26.3557 0.326463 -2.04308 0
M  V30 280 C 26.7707 1.48413 -1.16701 0
M  V30 281 O 26.1277 1.81507 -0.190087 0
M  V30 282 C 26.1787 0.794014 -3.52672 0
M  V30 283 O 25.8997 -0.317564 -4.36948 0
M  V30 284 C 27.4007 1.47605 -4.18004 0
M  V30 285 H 24.6207 0.0726272 -0.667058 0
M  V30 286 H 27.1647 -0.425401 -2.00026 0
M  V30 287 H 25.3197 1.49593 -3.57352 0
M  V30 288 H 25.7337 0.0443186 -5.24481 0
M  V30 289 H 27.2077 1.75447 -5.23376 0
M  V30 290 H 27.6847 2.41224 -3.67025 0
M  V30 291 H 28.2907 0.81762 -4.17367 0
M  V30 292 N 26.6058 1.57591 -0.0167156 0
M  V30 293 C 27.5158 2.1291 0.98521 0
M  V30 294 C 28.5318 1.07834 1.36557 0
M  V30 295 O 29.7078 1.39826 1.44951 0
M  V30 296 C 26.7728 2.63512 2.25305 0
M  V30 297 C 25.8338 3.83256 1.93426 0
M  V30 298 C 25.0668 4.31435 3.14165 0
M  V30 299 O 25.2898 3.78851 4.26413 0
M  V30 300 O 24.2238 5.23416 2.97186 0
M  V30 301 H 28.0498 2.98772 0.544888 0
M  V30 302 H 25.6348 1.48012 0.203141 0
M  V30 303 H 27.5168 2.96183 2.99756 0
M  V30 304 H 26.1918 1.8074 2.68542 0
M  V30 305 H 25.0988 3.55531 1.16398 0
M  V30 306 H 26.4318 4.67153 1.55013 0
M  V30 307 N 28.0839 -0.256276 1.55502 0
M  V30 308 C 29.0469 -1.30047 1.88734 0
M  V30 309 C 30.0469 -1.4154 0.763086 0
M  V30 310 O 31.2369 -1.40403 1.03115 0
M  V30 311 C 28.3689 -2.67953 2.10747 0
M  V30 312 H 29.5619 -1.01802 2.82093 0
M  V30 313 H 27.1149 -0.495134 1.4825 0
M  V30 314 H 27.8499 -3.01351 1.19825 0
M  V30 315 H 27.6349 -2.60993 2.92617 0
M  V30 316 H 29.1249 -3.43368 2.37673 0
M  V30 317 N 29.562 -1.4872 -0.521534 0
M  V30 318 C 30.525 -1.63379 -1.60748 0
M  V30 319 C 31.525 -0.50661 -1.52611 0
M  V30 320 O 32.715 -0.772601 -1.5613 0
M  V30 321 C 29.847 -1.61192 -3.00383 0
M  V30 322 H 31.04 -2.60217 -1.49087 0
M  V30 323 H 28.593 -1.37444 -0.744235 0
M  V30 324 H 29.328 -0.65863 -3.17541 0
M  V30 325 H 29.113 -2.43032 -3.07698 0
M  V30 326 H 30.603 -1.7466 -3.7932 0
M  V30 327 N 31.0401 0.771051 -1.3745 0
M  V30 328 C 32.0031 1.86598 -1.33093 0
M  V30 329 C 33.0031 1.59076 -0.234845 0
M  V30 330 O 34.1931 1.67145 -0.490732 0
M  V30 331 C 31.3251 3.23747 -1.06773 0
M  V30 332 H 32.5181 1.91873 -2.30488 0
M  V30 333 H 30.0711 0.970876 -1.2249 0
M  V30 334 H 30.8061 3.24148 -0.099129 0
M  V30 335 H 30.5911 3.45115 -1.86112 0
M  V30 336 H 32.0811 4.03824 -1.06377 0
M  V30 337 N 32.5182 1.22032 0.997298 0
M  V30 338 C 33.4812 0.987909 2.06816 0
M  V30 339 C 34.4812 -0.0440084 1.6074 0
M  V30 340 O 35.6712 0.194053 1.73116 0
M  V30 341 C 32.8032 0.49132 3.37341 0
M  V30 342 H 33.9962 1.93803 2.28868 0
M  V30 343 H 31.5492 1.03838 1.16822 0
M  V30 344 H 32.2842 -0.463364 3.20973 0
M  V30 345 H 32.0692 1.23575 3.72118 0
M  V30 346 H 33.5592 0.348824 4.16141 0
M  V30 347 N 33.9963 -1.19345 1.0293 0
M  V30 348 C 35.4073 -1.70725 0.755633 0
M  V30 349 C 35.7583 -1.82326 -0.724676 0
M  V30 350 O 34.8833 -1.49471 -1.56484 0
M  V30 351 C 35.4783 -3.10084 1.36503 0
M  V30 352 C 34.0373 -3.58723 1.13994 0
M  V30 353 C 33.1843 -2.35577 1.46283 0
M  V30 354 H 36.1353 -1.0418 1.19718 0
M  V30 355 H 36.1563 -3.72787 0.762217 0
M  V30 356 H 35.6683 -3.01609 2.44241 0
M  V30 357 H 33.7693 -3.72512 0.0807901 0
M  V30 358 H 33.8823 -4.42816 1.82894 0
M  V30 359 H 32.2463 -2.38935 0.88217 0
M  V30 360 H 33.0293 -2.29731 2.55105 0
M  V30 361 N 35.4744 -0.807222 -1.35358 0
M  V30 362 C 36.4374 -0.223665 -2.28106 0
M  V30 363 C 37.4374 0.589354 -1.4961 0
M  V30 364 O 38.6274 0.407745 -1.69361 0
M  V30 365 C 35.7594 0.688149 -3.33882 0
M  V30 366 H 36.9524 -1.04169 -2.81227 0
M  V30 367 H 34.5054 -0.577921 -1.45223 0
M  V30 368 H 35.2404 1.52984 -2.85948 0
M  V30 369 H 35.0254 0.10687 -3.91954 0
M  V30 370 H 36.5154 1.09075 -4.03104 0
M  V30 371 N 36.9525 1.47285 -0.560781 0
M  V30 372 C 38.2005 2.02064 -0.0379868 0
M  V30 373 C 38.5215 1.43711 1.31803 0
M  V30 374 O 37.7915 0.61362 1.86042 0
M  V30 375 H 36.3715 0.746918 -0.0110531 0
M  V30 376 H 39.0335 1.80648 -0.731598 0
M  V30 377 H 38.1295 3.12064 0.0474463 0
M  V30 378 N 38.4306 0.297415 1.54768 0
M  V30 379 C 39.8466 -0.0560823 1.59501 0
M  V30 380 C 40.0466 -1.52725 1.31444 0
M  V30 381 O 39.1026 -2.27947 1.08611 0
M  V30 382 C 40.4156 0.338631 2.98787 0
M  V30 383 C 41.9636 0.287097 3.11681 0
M  V30 384 C 42.4386 0.656579 4.53269 0
M  V30 385 N 43.9296 0.608977 4.59179 0
M  V30 386 C 44.6646 0.867385 5.66802 0
M  V30 387 N 44.1606 1.19157 6.82476 0
M  V30 388 N 45.9536 0.794687 5.56454 0
M  V30 389 H 38.1046 1.25624 1.71267 0
M  V30 390 H 40.3676 0.509057 0.799728 0
M  V30 391 H 40.0736 1.36263 3.2423 0
M  V30 392 H 39.9476 -0.309508 3.75928 0
M  V30 393 H 42.3346 -0.727649 2.85988 0
M  V30 394 H 42.4156 0.969809 2.36703 0
M  V30 395 H 42.0596 1.66912 4.7969 0
M  V30 396 H 41.9896 -0.0481649 5.26578 0
M  V30 397 H 44.4806 0.369198 3.76092 0
M  V30 398 H 44.7936 1.37482 7.60473 0
M  V30 399 H 43.1386 1.22958 6.84037 0
M  V30 400 H 46.3296 0.541098 4.64962 0
M  V30 401 H 46.5026 0.999445 6.40246 0
M  V30 402 N 39.9087 -1.5758 0.0250728 0
M  V30 403 C 40.8717 -2.08896 -0.943139 0
M  V30 404 C 41.8717 -1.00321 -1.25668 0
M  V30 405 O 43.0617 -1.26495 -1.19769 0
M  V30 406 C 40.1937 -2.55143 -2.26086 0
M  V30 407 H 41.3867 -2.95723 -0.498775 0
M  V30 408 H 38.9397 -1.54703 -0.222888 0
M  V30 409 H 39.6747 -1.71633 -2.75159 0
M  V30 410 H 39.4597 -3.34461 -2.04641 0
M  V30 411 H 40.9497 -2.95083 -2.95492 0
M  V30 412 N 41.3868 0.248026 -1.55636 0
M  V30 413 C 42.3198 1.3334 -1.85191 0
M  V30 414 C 43.2978 1.46429 -0.706906 0
M  V30 415 O 44.4818 1.62662 -0.952544 0
M  V30 416 C 41.6088 2.70703 -2.03562 0
M  V30 417 C 40.6548 2.7477 -3.26196 0
M  V30 418 S 41.4878 2.31493 -4.82878 0
M  V30 419 C 42.6438 3.70783 -5.04253 0
M  V30 420 H 42.8768 1.08072 -2.76962 0
M  V30 421 H 40.4098 0.448952 -1.47729 0
M  V30 422 H 42.3678 3.49798 -2.1483 0
M  V30 423 H 41.0288 2.9321 -1.12635 0
M  V30 424 H 40.2218 3.75648 -3.36013 0
M  V30 425 H 39.8238 2.03719 -3.13647 0
M  V30 426 H 42.1158 4.6627 -4.91527 0
M  V30 427 H 43.0588 3.65901 -6.06236 0
M  V30 428 H 43.4668 3.63244 -4.32105 0
M  V30 429 N 42.8649 1.48995 0.513639 0
M  V30 430 C 44.2759 1.5119 1.09537 0
M  V30 431 C 44.6269 0.290906 1.94031 0
M  V30 432 O 43.7519 -0.60049 2.07902 0
M  V30 433 C 44.3469 2.73964 1.99322 0
M  V30 434 C 42.9059 2.78978 2.52682 0
M  V30 435 C 42.0529 2.44934 1.30009 0
M  V30 436 H 45.0039 1.55875 0.298125 0
M  V30 437 H 45.0249 2.53409 2.83838 0
M  V30 438 H 44.5369 3.62813 1.37799 0
M  V30 439 H 42.6379 1.94378 3.1788 0
M  V30 440 H 42.7509 3.8083 2.90698 0
M  V30 441 H 41.1149 1.9644 1.62122 0
M  V30 442 H 41.8979 3.36043 0.702131 0
M  V30 443 N 44.343 -0.763751 1.37857 0
M  V30 444 C 45.568 -1.55805 1.36893 0
M  V30 445 C 45.993 -1.88054 -0.0416135 0
M  V30 446 O 45.351 -1.49825 -1.02089 0
M  V30 447 C 45.399 -2.84012 2.22192 0
M  V30 448 O 44.503 -3.78732 1.63204 0
M  V30 449 H 43.844 -0.471638 0.46739 0
M  V30 450 H 46.374 -0.944657 1.81487 0
M  V30 451 H 46.384 -3.33037 2.35691 0
M  V30 452 H 45.059 -2.59869 3.24716 0
M  V30 453 H 43.636 -3.37402 1.58791 0
M  V30 454 N 45.8211 -1.22559 -0.990812 0
M  V30 455 C 46.7311 -1.01394 -2.11557 0
M  V30 456 C 47.7471 0.0383962 -1.73958 0
M  V30 457 O 48.9231 -0.154787 -2.00804 0
M  V30 458 C 45.9881 -0.596569 -3.41529 0
M  V30 459 C 45.0491 -1.72276 -3.93217 0
M  V30 460 C 44.2821 -1.32521 -5.16985 0
M  V30 461 O 44.5051 -0.204909 -5.70032 0
M  V30 462 O 43.4391 -2.14247 -5.62478 0
M  V30 463 H 47.2651 -1.95633 -2.32296 0
M  V30 464 H 44.8501 -1.01172 -1.0993 0
M  V30 465 H 46.7321 -0.374263 -4.19735 0
M  V30 466 H 45.4071 0.316939 -3.22145 0
M  V30 467 H 44.3141 -1.99961 -3.16174 0
M  V30 468 H 45.6471 -2.61421 -4.17037 0
M  V30 469 N 47.2992 1.18797 -1.03562 0
M  V30 470 C 48.5292 1.92319 -0.754773 0
M  V30 471 C 48.9372 1.7612 0.691248 0
M  V30 472 O 48.2802 1.08491 1.48241 0
M  V30 473 C 48.3422 3.44284 -1.03484 0
M  V30 474 C 48.0062 3.84258 -2.47376 0
M  V30 475 C 49.0032 3.88459 -3.45537 0
M  V30 476 C 46.6882 4.15701 -2.81954 0
M  V30 477 C 48.6822 4.23545 -4.76328 0
M  V30 478 C 46.3692 4.50458 -4.12954 0
M  V30 479 C 47.3672 4.54356 -5.09951 0
M  V30 480 O 47.0552 4.88305 -6.38603 0
M  V30 481 H 46.7872 0.617527 -0.275021 0
M  V30 482 H 49.3412 1.51683 -1.38497 0
M  V30 483 H 47.5712 3.85135 -0.347513 0
M  V30 484 H 49.2602 3.99049 -0.7426 0
M  V30 485 H 50.0262 3.6431 -3.20162 0
M  V30 486 H 45.9052 4.11847 -2.0713 0
M  V30 487 H 49.4492 4.26502 -5.52035 0
M  V30 488 H 45.3462 4.74067 -4.38099 0
M  V30 489 H 46.1142 5.06227 -6.43177 0
M  V30 490 N 48.7773 0.814389 1.34928 0
M  V30 491 C 50.0053 0.411136 2.02774 0
M  V30 492 C 50.4203 -0.980316 1.61354 0
M  V30 493 O 49.7773 -1.63299 0.814847 0
M  V30 494 C 49.8283 0.493865 3.58111 0
M  V30 495 O 49.5493 1.83047 3.98027 0
M  V30 496 C 51.0503 0.0844174 4.4322 0
M  V30 497 H 48.2703 0.166037 0.650133 0
M  V30 498 H 50.8143 1.10018 1.72384 0
M  V30 499 H 48.9693 -0.147006 3.87121 0
M  V30 500 H 49.3833 1.79872 4.92693 0
M  V30 501 H 50.8573 0.193404 5.51661 0
M  V30 502 H 51.3343 -0.97113 4.28329 0
M  V30 503 H 51.9403 0.69875 4.19521 0
M  V30 504 N 50.2554 -1.46986 0.568584 0
M  V30 505 C 51.4854 -2.0653 0.0539173 0
M  V30 506 C 51.8934 -1.42004 -1.25026 0
M  V30 507 O 51.2364 -0.514541 -1.76347 0
M  V30 508 C 51.2984 -3.58938 -0.200854 0
M  V30 509 C 50.9624 -4.45572 1.01559 0
M  V30 510 C 51.9594 -4.82986 1.92407 0
M  V30 511 C 49.6444 -4.8692 1.23346 0
M  V30 512 C 51.6384 -5.60559 3.03402 0
M  V30 513 C 49.3254 -5.64255 2.34649 0
M  V30 514 C 50.3234 -6.00986 3.24507 0
M  V30 515 O 50.0114 -6.76761 4.33878 0
M  V30 516 H 49.7434 -0.674292 0.0480234 0
M  V30 517 H 52.2974 -1.89812 0.784896 0
M  V30 518 H 50.5274 -3.73911 -0.986279 0
M  V30 519 H 52.2164 -4.0046 -0.662294 0
M  V30 520 H 52.9824 -4.51633 1.76785 0
M  V30 521 H 48.8614 -4.57789 0.543178 0
M  V30 522 H 52.4054 -5.89147 3.73565 0
M  V30 523 H 48.3024 -5.95021 2.5024 0
M  V30 524 H 49.0704 -6.95168 4.32068 0
M  V30 525 N 51.7335 -0.305618 -1.54608 0
M  V30 526 C 52.9795 0.302746 -2.00528 0
M  V30 527 C 53.3125 1.53184 -1.19367 0
M  V30 528 O 52.5875 1.92598 -0.271321 0
M  V30 529 C 52.8705 0.654756 -3.54097 0
M  V30 530 C 52.7235 -0.583793 -4.45995 0
M  V30 531 C 54.0425 1.47947 -4.14487 0
M  V30 532 H 51.1615 0.108564 -0.72896 0
M  V30 533 H 53.8035 -0.418634 -1.85331 0
M  V30 534 H 51.9535 1.26935 -3.67178 0
M  V30 535 H 53.6255 -1.22224 -4.44814 0
M  V30 536 H 51.8685 -1.21615 -4.16404 0
M  V30 537 H 52.5395 -0.293287 -5.5122 0
M  V30 538 H 55.0155 0.96013 -4.04871 0
M  V30 539 H 53.8915 1.69454 -5.22088 0
M  V30 540 H 54.1525 2.47011 -3.66658 0
M  V30 541 N 53.2116 1.57565 -0.0334293 0
M  V30 542 C 54.1586 2.10478 0.946981 0
M  V30 543 C 55.1286 1.00787 1.32027 0
M  V30 544 O 56.3136 1.28232 1.41284 0
M  V30 545 C 53.4536 2.63994 2.22263 0
M  V30 546 C 52.5666 3.87709 1.90541 0
M  V30 547 C 51.7016 4.29604 3.12433 0
M  V30 548 C 50.7406 5.46065 2.76549 0
M  V30 549 N 49.8776 5.83096 3.9108 0
M  V30 550 H 54.7176 2.93963 0.488846 0
M  V30 551 H 52.2546 1.45296 0.22969 0
M  V30 552 H 54.2126 2.93114 2.96884 0
M  V30 553 H 52.8426 1.83333 2.65685 0
M  V30 554 H 51.8946 3.65291 1.06144 0
M  V30 555 H 53.2066 4.72403 1.60116 0
M  V30 556 H 52.3606 4.60182 3.9537 0
M  V30 557 H 51.0996 3.43685 3.46023 0
M  V30 558 H 50.1046 5.15176 1.92026 0
M  V30 559 H 51.3296 6.33685 2.44171 0
M  V30 560 H 49.2756 5.00132 4.24504 0
M  V30 561 H 49.1926 6.6244 3.64293 0
M  V30 562 H 50.4606 6.18282 4.74708 0
M  V30 563 N 54.6897 -0.239769 1.55765 0
M  V30 564 C 55.6197 -1.30052 1.9393 0
M  V30 565 C 56.6007 -1.49839 0.805132 0
M  V30 566 O 57.7857 -1.62328 1.06599 0
M  V30 567 C 54.9157 -2.65391 2.2402 0
M  V30 568 C 53.8697 -2.60289 3.39755 0
M  V30 569 C 53.1957 -3.99489 3.55405 0
M  V30 570 C 54.4957 -2.16654 4.75246 0
M  V30 571 H 56.1897 -0.983573 2.82783 0
M  V30 572 H 53.7357 -0.471701 1.36055 0
M  V30 573 H 55.6887 -3.3974 2.49308 0
M  V30 574 H 54.4127 -2.98736 1.32 0
M  V30 575 H 53.0717 -1.88398 3.14487 0
M  V30 576 H 52.7197 -4.30112 2.60793 0
M  V30 577 H 52.4197 -3.96962 4.33238 0
M  V30 578 H 53.9437 -4.75528 3.83022 0
M  V30 579 H 55.3577 -2.80737 4.99859 0
M  V30 580 H 53.7547 -2.25223 5.56232 0
M  V30 581 H 54.8247 -1.11835 4.71827 0
M  V30 582 N 56.1678 -1.49265 -0.50573 0
M  V30 583 C 57.5838 -1.35923 -0.836486 0
M  V30 584 C 57.7838 -0.388704 -1.97715 0
M  V30 585 O 56.8398 0.181336 -2.51848 0
M  V30 586 C 58.1528 -2.76531 -1.18115 0
M  V30 587 C 59.7008 -2.85197 -1.28964 0
M  V30 588 C 60.1758 -4.26561 -1.66761 0
M  V30 589 N 61.6668 -4.2935 -1.73819 0
M  V30 590 C 62.4018 -5.35693 -2.045 0
M  V30 591 N 61.8978 -6.52287 -2.33438 0
M  V30 592 N 63.6908 -5.23105 -2.05711 0
M  V30 593 H 55.8418 -2.10965 0.246519 0
M  V30 594 H 58.1048 -0.9468 0.0476887 0
M  V30 595 H 57.8108 -3.49226 -0.416398 0
M  V30 596 H 57.6848 -3.11599 -2.1257 0
M  V30 597 H 60.0718 -2.12742 -2.04511 0
M  V30 598 H 60.1528 -2.53718 -0.325704 0
M  V30 599 H 59.7968 -4.99541 -0.917656 0
M  V30 600 H 59.7268 -4.55502 -2.64246 0
M  V30 601 H 62.2178 -3.4526 -1.53635 0
M  V30 602 H 62.5308 -7.29158 -2.56024 0
M  V30 603 H 60.8758 -6.55521 -2.30905 0
M  V30 604 H 64.0668 -4.31026 -1.82577 0
M  V30 605 H 64.2398 -6.06078 -2.29289 0
M  V30 606 N 57.6459 0.756429 -1.3826 0
M  V30 607 C 58.8709 1.55077 -1.37717 0
M  V30 608 C 59.2959 1.88073 0.03164 0
M  V30 609 O 58.6539 1.50364 1.01293 0
M  V30 610 C 58.7019 2.8283 -2.23695 0
M  V30 611 O 57.8059 3.77862 -1.6521 0
M  V30 612 H 57.1469 0.469152 -0.469885 0
M  V30 613 H 59.6769 0.935019 -1.81985 0
M  V30 614 H 59.6869 3.31783 -2.37453 0
M  V30 615 H 58.3619 2.58144 -3.2609 0
M  V30 616 H 56.9389 3.36555 -1.60578 0
M  V30 617 N 59.124 1.23083 0.984299 0
M  V30 618 C 60.401 0.9689 1.69917 0
M  V30 619 C 60.781 -0.513604 2.04757 0
M  V30 620 O 60.129 -1.48383 1.73767 0
M  V30 621 C 60.339 1.87518 2.94343 0
M  V30 622 C 61.687 2.13636 3.6694 0
M  V30 623 O 62.711 1.85036 3.04368 0
M  V30 624 O 61.57 2.62119 4.79537 0
M  V30 625 H 58.664 0.365095 0.742048 0
M  V30 626 H 61.21 1.34107 1.03987 0
M  V30 627 H 59.982 2.87756 2.65164 0
M  V30 628 H 59.605 1.50514 3.6801 0
M  V30 629 N 60.6021 -1.18246 1.0419 0
M  V30 630 C 61.8421 -1.89948 0.754916 0
M  V30 631 C 62.2061 -1.78608 -0.70451 0
M  V30 632 O 63.4071 -2.4503 -1.10516 0
M  V30 633 C 61.6781 -3.36305 1.20969 0
M  V30 634 S 63.2371 -4.26088 1.04854 0
M  V30 635 H 60.0551 -0.655897 0.274446 0
M  V30 636 H 62.6571 -1.42873 1.33445 0
M  V30 637 H 61.3611 -3.42089 2.26722 0
M  V30 638 H 60.8921 -3.8842 0.624004 0
M  V30 639 H 62.9071 -4.96189 -0.0332896 0
M  V30 640 N 62.0802 -0.821533 -1.34494 0
M  V30 641 C 63.3052 -0.420873 -2.03085 0
M  V30 642 C 63.7302 0.964915 -1.61465 0
M  V30 643 O 63.0882 1.62763 -0.798607 0
M  V30 644 C 63.1362 -0.529414 -3.56693 0
M  V30 645 O 62.2402 0.451302 -4.09923 0
M  V30 646 H 61.5812 -0.173489 -0.640935 0
M  V30 647 H 64.1112 -1.11157 -1.71771 0
M  V30 648 H 64.1212 -0.404671 -4.05988 0
M  V30 649 H 62.7962 -1.54014 -3.86332 0
M  V30 650 H 61.3732 0.285558 -3.71805 0
M  V30 651 N 63.5583 1.46682 -0.576371 0
M  V30 652 C 64.9743 1.57822 -0.237562 0
M  V30 653 C 65.1743 1.57237 1.26011 0
M  V30 654 O 64.2303 1.48596 2.04146 0
M  V30 655 C 65.5433 2.87499 -0.881168 0
M  V30 656 C 67.0913 3.01119 -0.85417 0
M  V30 657 C 67.5663 4.33524 -1.4772 0
M  V30 658 N 69.0573 4.40207 -1.44125 0
M  V30 659 C 69.7923 5.4126 -1.89276 0
M  V30 660 N 69.2883 6.49021 -2.42371 0
M  V30 661 N 71.0813 5.32422 -1.80231 0
M  V30 662 H 63.2323 1.45306 -1.54919 0
M  V30 663 H 65.4953 0.692733 -0.647167 0
M  V30 664 H 65.2013 2.9372 -1.93447 0
M  V30 665 H 65.0753 3.75224 -0.385592 0
M  V30 666 H 67.4623 2.94485 0.190491 0
M  V30 667 H 67.5433 2.14887 -1.3877 0
M  V30 668 H 67.1873 4.40916 -2.52103 0
M  V30 669 H 67.1173 5.1852 -0.918947 0
M  V30 670 H 69.6083 3.62931 -1.05307 0
M  V30 671 H 69.9213 7.2233 -2.74698 0
M  V30 672 H 68.2663 6.49858 -2.46393 0
M  V30 673 H 71.4573 4.47137 -1.38514 0
M  V30 674 H 71.6303 6.11034 -2.15735 0
M  V30 675 N 65.0364 0.313813 1.54444 0
M  V30 676 C 66.4474 -0.176243 1.85866 0
M  V30 677 C 66.7984 -1.52405 1.23561 0
M  V30 678 O 65.9234 -2.09605 0.538016 0
M  V30 679 C 66.5184 -0.32657 3.37222 0
M  V30 680 C 65.0774 -0.760846 3.6863 0
M  V30 681 C 64.2244 0.123247 2.77026 0
M  V30 682 H 67.1754 0.534418 1.49431 0
M  V30 683 H 67.1964 -1.15908 3.62416 0
M  V30 684 H 66.7084 0.654531 3.82541 0
M  V30 685 H 64.8094 -1.75204 3.28838 0
M  V30 686 H 64.9224 -0.571353 4.75681 0
M  V30 687 H 63.2864 -0.399597 2.51546 0
M  V30 688 H 64.0694 1.10094 3.25168 0
M  V30 689 N 66.5145 -1.57545 0.0417849 0
M  V30 690 C 67.7395 -1.97035 -0.647455 0
M  V30 691 C 68.1645 -0.918775 -1.64135 0
M  V30 692 O 67.5225 0.119006 -1.80909 0
M  V30 693 C 67.5705 -3.35609 -1.31905 0
M  V30 694 O 66.6745 -3.3287 -2.43457 0
M  V30 695 H 66.0155 -0.64211 -0.169086 0
M  V30 696 H 68.5455 -2.04318 0.107399 0
M  V30 697 H 68.5555 -3.72126 -1.67291 0
M  V30 698 H 67.2305 -4.11685 -0.590586 0
M  V30 699 H 65.8075 -3.08087 -2.10088 0
M  V30 700 N 67.9926 0.231505 -1.5589 0
M  V30 701 C 68.9226 1.29022 -1.94617 0
M  V30 702 C 69.9036 1.4941 -0.813067 0
M  V30 703 O 71.0886 1.6176 -1.07459 0
M  V30 704 C 68.2186 2.64199 -2.25424 0
M  V30 705 C 67.1726 2.58484 -3.41131 0
M  V30 706 C 66.4986 3.97599 -3.57518 0
M  V30 707 C 67.7986 2.1413 -4.76388 0
M  V30 708 H 69.4926 0.968563 -2.83301 0
M  V30 709 H 67.0386 0.464479 -1.36303 0
M  V30 710 H 68.9916 3.38413 -2.51107 0
M  V30 711 H 67.7156 2.98032 -1.33583 0
M  V30 712 H 66.3746 1.86727 -3.15481 0
M  V30 713 H 66.0226 4.28723 -2.6307 0
M  V30 714 H 65.7226 3.94659 -4.35337 0
M  V30 715 H 67.2466 4.7349 -3.85538 0
M  V30 716 H 68.6606 2.78083 -5.01341 0
M  V30 717 H 67.0576 2.2227 -5.57419 0
M  V30 718 H 68.1276 1.09331 -4.72414 0
M  V30 719 N 69.4707 1.49531 0.497807 0
M  V30 720 C 70.4027 1.62559 1.61578 0
M  V30 721 C 71.4157 0.508134 1.54667 0
M  V30 722 O 72.6047 0.780309 1.60541 0
M  V30 723 C 69.7047 1.56925 3.00379 0
M  V30 724 C 68.8777 2.84257 3.3244 0
M  V30 725 C 67.9367 2.71632 4.50669 0
M  V30 726 O 66.9627 3.4557 4.52294 0
M  V30 727 N 68.1647 1.83391 5.5077 0
M  V30 728 H 70.9297 2.58981 1.50828 0
M  V30 729 H 68.4907 1.4666 0.685743 0
M  V30 730 H 70.4827 1.46129 3.77397 0
M  V30 731 H 69.0527 0.683483 3.05037 0
M  V30 732 H 68.2727 3.09381 2.44289 0
M  V30 733 H 69.5607 3.68666 3.5066 0
M  V30 734 H 68.9587 1.22583 5.52259 0
M  V30 735 H 67.5157 1.78515 6.26878 0
M  V30 736 N 70.9488 -0.749086 1.3866 0
M  V30 737 C 72.1948 -1.50959 1.36319 0
M  V30 738 C 72.5498 -1.92347 -0.0452451 0
M  V30 739 O 71.8428 -1.6289 -1.00884 0
M  V30 740 C 72.0368 -2.7712 2.25697 0
M  V30 741 C 71.8658 -2.48067 3.7509 0
M  V30 742 C 70.6358 -2.41062 4.44091 0
M  V30 743 C 72.8338 -2.14544 4.67414 0
M  V30 744 N 70.8158 -2.04331 5.78897 0
M  V30 745 C 72.1868 -1.88141 5.90765 0
M  V30 746 C 74.2418 -2.00892 4.55573 0
M  V30 747 C 72.9448 -1.49463 7.036 0
M  V30 748 C 74.9708 -1.63616 5.68317 0
M  V30 749 C 74.3328 -1.38088 6.90732 0
M  V30 750 H 70.4318 -0.551804 0.554108 0
M  V30 751 H 73.0158 -0.871886 1.74087 0
M  V30 752 H 71.1868 -3.38693 1.9011 0
M  V30 753 H 72.9188 -3.4321 2.1445 0
M  V30 754 H 69.6738 -2.57685 3.9736 0
M  V30 755 H 70.0978 -1.88598 6.502 0
M  V30 756 H 74.7398 -2.19301 3.61479 0
M  V30 757 H 72.4578 -1.29794 7.97608 0
M  V30 758 H 76.0438 -1.53678 5.61137 0
M  V30 759 H 74.9238 -1.09674 7.76493 0
M  V30 760 N 72.4269 -1.23603 -0.977757 0
M  V30 761 C 73.6569 -1.09487 -1.75203 0
M  V30 762 C 74.0649 0.356321 -1.85814 0
M  V30 763 O 73.4079 1.25816 -1.33851 0
M  V30 764 C 73.4699 -1.64905 -3.19447 0
M  V30 765 C 73.1339 -3.13688 -3.32338 0
M  V30 766 C 74.1309 -4.10953 -3.18455 0
M  V30 767 C 71.8159 -3.53449 -3.56902 0
M  V30 768 C 73.8099 -5.45962 -3.28944 0
M  V30 769 C 71.4969 -4.88602 -3.6703 0
M  V30 770 C 72.4949 -5.84668 -3.53062 0
M  V30 771 O 72.1829 -7.17365 -3.62826 0
M  V30 772 H 71.9149 -0.38367 -0.556573 0
M  V30 773 H 74.4689 -1.6398 -1.23693 0
M  V30 774 H 72.6989 -1.04835 -3.72218 0
M  V30 775 H 74.3879 -1.46226 -3.78646 0
M  V30 776 H 75.1539 -3.81577 -2.99372 0
M  V30 777 H 71.0329 -2.79188 -3.66844 0
M  V30 778 H 74.5769 -6.20925 -3.17958 0
M  V30 779 H 70.4739 -5.17653 -3.85623 0
M  V30 780 H 71.2419 -7.2515 -3.79605 0
M  V30 781 N 73.905 1.17692 -1.04816 0
M  V30 782 C 75.133 1.91786 -0.776254 0
M  V30 783 C 75.548 1.76604 0.667577 0
M  V30 784 O 74.905 1.10067 1.45573 0
M  V30 785 C 74.956 3.42967 -1.14263 0
M  V30 786 O 74.677 3.57678 -2.52978 0
M  V30 787 C 76.178 4.34144 -0.896311 0
M  V30 788 H 73.398 0.608624 -0.282519 0
M  V30 789 H 75.942 1.49268 -1.39783 0
M  V30 790 H 74.097 3.83245 -0.565874 0
M  V30 791 H 74.511 4.51319 -2.67229 0
M  V30 792 H 75.985 5.38744 -1.20244 0
M  V30 793 H 76.462 4.38876 0.168636 0
M  V30 794 H 77.068 3.99574 -1.45672 0
M  V30 795 N 75.3831 0.828654 1.34056 0
M  V30 796 C 76.7991 0.515135 1.51058 0
M  V30 797 C 76.9991 -0.959581 1.77184 0
M  V30 798 O 76.0551 -1.74382 1.82612 0
M  V30 799 C 77.3681 1.37963 2.67183 0
M  V30 800 C 78.9161 1.37735 2.81066 0
M  V30 801 C 79.3911 2.22645 4.00241 0
M  V30 802 N 80.8821 2.203 4.07458 0
M  V30 803 C 81.6171 2.82744 4.98842 0
M  V30 804 N 81.1131 3.54201 5.9541 0
M  V30 805 N 82.9061 2.72268 4.91759 0
M  V30 806 H 75.0571 1.78343 1.15358 0
M  V30 807 H 77.3201 0.760304 0.566252 0
M  V30 808 H 77.0261 2.42714 2.54525 0
M  V30 809 H 76.9001 1.0484 3.62338 0
M  V30 810 H 79.2871 0.337593 2.93163 0
M  V30 811 H 79.3681 1.74859 1.86703 0
M  V30 812 H 79.0121 3.26674 3.88905 0
M  V30 813 H 78.9421 1.82869 4.93829 0
M  V30 814 H 81.4331 1.68327 3.38341 0
M  V30 815 H 81.7461 3.9908 6.61782 0
M  V30 816 H 80.0911 3.58308 5.95517 0
M  V30 817 H 83.2821 2.16014 4.15278 0
M  V30 818 H 83.4551 3.21219 5.62781 0
M  V30 819 N 76.8612 -1.46375 0.584142 0
M  V30 820 C 77.8242 -2.28784 -0.138108 0
M  V30 821 C 78.8242 -1.38471 -0.817462 0
M  V30 822 O 80.0142 -1.60833 -0.669199 0
M  V30 823 C 77.1462 -3.18892 -1.20503 0
M  V30 824 H 78.3392 -2.94117 0.586127 0
M  V30 825 H 75.8922 -1.52509 0.342171 0
M  V30 826 H 76.6272 -2.58309 -1.96079 0
M  V30 827 H 76.4122 -3.85388 -0.722384 0
M  V30 828 H 77.9022 -3.80914 -1.71155 0
M  V30 829 N 78.3393 -0.321999 -1.54275 0
M  V30 830 C 79.2713 0.578671 -2.21775 0
M  V30 831 C 80.2843 1.08109 -1.21722 0
M  V30 832 O 81.4733 0.994938 -1.482 0
M  V30 833 C 78.5733 1.80661 -2.86731 0
M  V30 834 C 77.7463 1.44314 -4.12907 0
M  V30 835 C 76.8053 2.52845 -4.61472 0
M  V30 836 O 75.8313 2.17054 -5.2619 0
M  V30 837 N 77.0333 3.83748 -4.35566 0
M  V30 838 H 79.7983 0.000709447 -2.997 0
M  V30 839 H 77.3593 -0.145132 -1.61248 0
M  V30 840 H 79.3513 2.52655 -3.16145 0
M  V30 841 H 77.9213 2.29245 -2.12521 0
M  V30 842 H 77.1413 0.554906 -3.90275 0
M  V30 843 H 78.4293 1.17598 -4.95023 0
M  V30 844 H 77.8273 4.15625 -3.83761 0
M  V30 845 H 76.3843 4.51977 -4.69638 0
M  V30 846 N 79.8174 1.5752 -0.0501392 0
M  V30 847 C 81.0424 1.97376 0.636997 0
M  V30 848 C 81.4674 0.927466 1.63645 0
M  V30 849 O 80.8254 -0.10941 1.8097 0
M  V30 850 C 80.8734 3.36304 1.30123 0
M  V30 851 O 79.9774 3.34156 2.41689 0
M  V30 852 H 79.3184 0.642998 0.165679 0
M  V30 853 H 81.8484 2.04258 -0.118233 0
M  V30 854 H 81.8584 3.73008 1.65315 0
M  V30 855 H 80.5334 4.11993 0.568746 0
M  V30 856 H 79.1104 3.09196 2.08451 0
M  V30 857 N 81.2955 -0.223234 1.56011 0
M  V30 858 C 82.2425 -1.27664 1.92277 0
M  V30 859 C 83.2125 -1.46659 0.779763 0
M  V30 860 O 84.3975 -1.60256 1.03551 0
M  V30 861 C 81.5375 -2.62234 2.24338 0
M  V30 862 C 80.6505 -2.51051 3.51564 0
M  V30 863 C 79.7855 -3.78133 3.7308 0
M  V30 864 C 78.8245 -3.61665 4.93827 0
M  V30 865 N 77.9615 -4.80693 5.11741 0
M  V30 866 H 82.8015 -0.960358 2.82101 0
M  V30 867 H 80.3385 -0.462901 1.39627 0
M  V30 868 H 82.2965 -3.40596 2.40936 0
M  V30 869 H 80.9265 -2.91961 1.3769 0
M  V30 870 H 79.9785 -1.64132 3.43169 0
M  V30 871 H 81.2905 -2.34803 4.40079 0
M  V30 872 H 80.4445 -4.64938 3.89766 0
M  V30 873 H 79.1835 -3.97304 2.82844 0
M  V30 874 H 78.1885 -2.73244 4.77093 0
M  V30 875 H 79.4135 -3.43966 5.85546 0
M  V30 876 H 77.3595 -5.00181 4.24446 0
M  V30 877 H 77.2765 -4.67165 5.94384 0
M  V30 878 H 78.5445 -5.6893 5.3286 0
M  V30 879 N 82.7736 -1.49793 -0.48987 0
M  V30 880 C 83.7066 -1.61898 -1.60823 0
M  V30 881 C 84.6846 -0.467651 -1.5573 0
M  V30 882 O 85.8686 -0.684682 -1.75626 0
M  V30 883 C 82.9956 -1.58422 -2.99366 0
M  V30 884 C 82.0416 -2.78889 -3.22682 0
M  V30 885 S 82.8746 -4.40429 -3.04602 0
M  V30 886 C 84.0306 -4.39617 -4.4552 0
M  V30 887 H 84.2636 -2.56502 -1.50312 0
M  V30 888 H 81.7966 -1.38822 -0.675849 0
M  V30 889 H 83.7546 -1.57103 -3.79248 0
M  V30 890 H 82.4156 -0.650866 -3.07283 0
M  V30 891 H 81.6086 -2.72708 -4.23847 0
M  V30 892 H 81.2106 -2.77678 -2.50541 0
M  V30 893 H 83.5026 -4.12022 -5.37814 0
M  V30 894 H 84.4456 -5.41097 -4.56749 0
M  V30 895 H 84.8536 -3.69554 -4.2672 0
M  V30 896 N 84.2517 0.741722 -1.39055 0
M  V30 897 C 85.6677 1.04638 -1.20512 0
M  V30 898 C 85.8677 2.01405 -0.0620218 0
M  V30 899 O 84.9237 2.45547 0.588457 0
M  V30 900 C 86.2367 1.6151 -2.53643 0
M  V30 901 C 87.7847 1.73623 -2.6043 0
M  V30 902 C 88.2597 2.33906 -3.93767 0
M  V30 903 N 89.7507 2.41323 -3.9537 0
M  V30 904 C 90.4857 2.88888 -4.95309 0
M  V30 905 N 89.9817 3.36401 -6.05645 0
M  V30 906 N 91.7747 2.88037 -4.82692 0
M  V30 907 H 83.9257 0.0998155 -2.12165 0
M  V30 908 H 86.1887 0.106907 -0.941953 0
M  V30 909 H 85.8947 0.978739 -3.37807 0
M  V30 910 H 85.7687 2.60411 -2.72885 0
M  V30 911 H 88.1557 2.36384 -1.76655 0
M  V30 912 H 88.2367 0.733945 -2.45045 0
M  V30 913 H 87.8807 1.71776 -4.7797 0
M  V30 914 H 87.8107 3.34799 -4.06469 0
M  V30 915 H 90.3017 2.07734 -3.15682 0
M  V30 916 H 90.6147 3.71186 -6.77821 0
M  V30 917 H 88.9597 3.34427 -6.09248 0
M  V30 918 H 92.1507 2.50237 -3.95599 0
M  V30 919 H 92.3237 3.24792 -5.60726 0
M  V30 920 N 85.7298 1.2412 0.971189 0
M  V30 921 C 87.1458 1.00584 1.23916 0
M  V30 922 C 87.3458 -0.287481 1.99439 0
M  V30 923 O 86.4018 -1.00454 2.31658 0
M  V30 924 C 87.7148 2.21864 2.0297 0
M  V30 925 C 89.2628 2.26452 2.16076 0
M  V30 926 C 89.7378 3.47343 2.98524 0
M  V30 927 N 91.2288 3.47639 3.06107 0
M  V30 928 C 91.9638 4.37837 3.70251 0
M  V30 929 N 91.4598 5.38286 4.36142 0
M  V30 930 N 93.2528 4.25558 3.67228 0
M  V30 931 H 85.4038 2.07236 0.465499 0
M  V30 932 H 87.6668 0.909236 0.268315 0
M  V30 933 H 87.3728 3.15771 1.54861 0
M  V30 934 H 87.2468 2.23698 3.03709 0
M  V30 935 H 89.6338 1.33078 2.6339 0
M  V30 936 H 89.7148 2.28645 1.14696 0
M  V30 937 H 89.3588 4.41029 2.51905 0
M  V30 938 H 89.2888 3.42393 4.00093 0
M  V30 939 H 91.7798 2.74966 2.59233 0
M  V30 940 H 92.0928 6.03352 4.82894 0
M  V30 941 H 90.4378 5.42176 4.34822 0
M  V30 942 H 93.6288 3.46322 3.14927 0
M  V30 943 H 93.8018 4.96054 4.16935 0
M  V30 944 N 87.2079 -1.17134 1.05439 0
M  V30 945 C 88.6189 -1.69084 0.791676 0
M  V30 946 C 88.9699 -1.83822 -0.685839 0
M  V30 947 O 88.0949 -1.52757 -1.53278 0
M  V30 948 C 88.6899 -3.07119 1.4305 0
M  V30 949 C 87.2489 -3.56225 1.21577 0
M  V30 950 C 86.3959 -2.32421 1.51247 0
M  V30 951 H 89.3469 -1.01617 1.219 0
M  V30 952 H 89.3679 -3.71087 0.84112 0
M  V30 953 H 88.8799 -2.9636 2.50584 0
M  V30 954 H 86.9809 -3.72257 0.159787 0
M  V30 955 H 87.0939 -4.38837 1.92246 0
M  V30 956 H 85.4579 -2.3701 0.932653 0
M  V30 957 H 86.2409 -2.24268 2.5992 0
M  V30 958 N 88.686 -0.835752 -1.33615 0
M  V30 959 C 89.911 -0.442389 -2.02627 0
M  V30 960 C 90.336 0.947735 -1.62479 0
M  V30 961 O 89.694 1.61907 -0.815826 0
M  V30 962 C 89.742 -0.567216 -3.56111 0
M  V30 963 O 88.846 0.407799 -4.10379 0
M  V30 964 H 88.187 -0.180278 -0.639059 0
M  V30 965 H 90.717 -1.12972 -1.70583 0
M  V30 966 H 90.727 -0.447708 -4.05536 0
M  V30 967 H 89.402 -1.58103 -3.84677 0
M  V30 968 H 87.979 0.246107 -3.72087 0
M  V30 969 N 90.1641 1.46063 -0.591896 0
M  V30 970 C 91.0941 2.33172 0.123673 0
M  V30 971 C 92.0751 1.45897 0.87453 0
M  V30 972 O 93.2601 1.74698 0.848181 0
M  V30 973 C 90.3901 3.28336 1.13194 0
M  V30 974 C 89.3441 4.25124 0.495324 0
M  V30 975 C 88.6701 5.09863 1.61071 0
M  V30 976 C 89.9701 5.19143 -0.573425 0
M  V30 977 H 91.6641 2.93252 -0.603646 0
M  V30 978 H 89.2101 1.41014 -0.291741 0
M  V30 979 H 91.1631 3.88137 1.64097 0
M  V30 980 H 89.8871 2.66383 1.88965 0
M  V30 981 H 88.5461 3.66599 0.00729452 0
M  V30 982 H 88.1941 4.44288 2.35832 0
M  V30 983 H 87.8941 5.75417 1.19035 0
M  V30 984 H 89.4181 5.72529 2.12233 0
M  V30 985 H 90.8321 5.73106 -0.1491 0
M  V30 986 H 89.2291 5.93089 -0.914636 0
M  V30 987 H 90.2991 4.62519 -1.45617 0
M  V30 988 N 91.6422 0.330177 1.54103 0
M  V30 989 C 92.5722 -0.525353 2.27513 0
M  V30 990 C 93.5532 -1.11383 1.2856 0
M  V30 991 O 94.7382 -1.13773 1.57383 0
M  V30 992 C 91.8682 -1.6831 3.03791 0
M  V30 993 C 90.8222 -1.2236 4.10137 0
M  V30 994 C 90.1482 -2.46882 4.74293 0
M  V30 995 C 91.4482 -0.333697 5.21233 0
M  V30 996 H 93.1422 0.087013 2.99274 0
M  V30 997 H 90.6882 0.0432893 1.43935 0
M  V30 998 H 92.6412 -2.28795 3.5388 0
M  V30 999 H 91.3652 -2.32216 2.29659 0
M  V30 1000 H 90.0242 -0.64165 3.60941 0
M  V30 1001 H 89.6722 -3.09165 3.96769 0
M  V30 1002 H 89.3722 -2.16825 5.46133 0
M  V30 1003 H 90.8962 -3.08117 5.27159 0
M  V30 1004 H 92.3102 -0.845013 5.67038 0
M  V30 1005 H 90.7072 -0.125612 5.99969 0
M  V30 1006 H 91.7772 0.633724 4.80741 0
M  V30 1007 N 93.1203 -1.57491 0.0584922 0
M  V30 1008 C 94.0503 -2.14988 -0.911178 0
M  V30 1009 C 95.0313 -1.07343 -1.31952 0
M  V30 1010 O 96.2163 -1.35318 -1.39294 0
M  V30 1011 C 93.3463 -2.70078 -2.18347 0
M  V30 1012 C 92.3003 -3.82771 -1.91495 0
M  V30 1013 C 91.6263 -4.24408 -3.25241 0
M  V30 1014 C 92.9263 -5.07592 -1.23075 0
M  V30 1015 H 94.6203 -2.96263 -0.432246 0
M  V30 1016 H 92.1663 -1.42512 -0.206469 0
M  V30 1017 H 94.1193 -3.08943 -2.86587 0
M  V30 1018 H 92.8433 -1.86005 -2.68458 0
M  V30 1019 H 91.5023 -3.44389 -1.25664 0
M  V30 1020 H 91.1503 -3.37275 -3.73168 0
M  V30 1021 H 90.8503 -5.00366 -3.08071 0
M  V30 1022 H 92.3743 -4.65879 -3.94701 0
M  V30 1023 H 93.7883 -5.43857 -1.81362 0
M  V30 1024 H 92.1853 -5.88741 -1.16207 0
M  V30 1025 H 93.2553 -4.84454 -0.207847 0
M  V30 1026 N 94.5984 0.214957 -1.56127 0
M  V30 1027 C 95.5454 1.26642 -1.92952 0
M  V30 1028 C 96.5154 1.46244 -0.78753 0
M  V30 1029 O 97.7004 1.59704 -1.04399 0
M  V30 1030 C 94.8404 2.6104 -2.25726 0
M  V30 1031 C 93.9534 2.49183 -3.52891 0
M  V30 1032 C 93.0884 3.76149 -3.7508 0
M  V30 1033 C 92.1274 3.59041 -4.95738 0
M  V30 1034 N 91.2644 4.77972 -5.14283 0
M  V30 1035 H 96.1044 0.945384 -2.82607 0
M  V30 1036 H 93.6414 0.455489 -1.3987 0
M  V30 1037 H 95.5994 3.39313 -2.42739 0
M  V30 1038 H 94.2294 2.91227 -1.39236 0
M  V30 1039 H 93.2814 1.6231 -3.44034 0
M  V30 1040 H 94.5934 2.32466 -4.41318 0
M  V30 1041 H 93.7474 4.62865 -3.92226 0
M  V30 1042 H 92.4864 3.95799 -2.84947 0
M  V30 1043 H 91.4914 2.7071 -4.78535 0
M  V30 1044 H 92.7164 3.40856 -5.87362 0
M  V30 1045 H 90.6624 4.97923 -4.27093 0
M  V30 1046 H 90.5794 4.64006 -5.96853 0
M  V30 1047 H 91.8474 5.66096 -5.35869 0
M  V30 1048 N 96.0765 1.50051 0.48192 0
M  V30 1049 C 97.3535 1.51009 1.2432 0
M  V30 1050 C 97.7335 0.248587 2.09631 0
M  V30 1051 O 97.0815 -0.768409 2.15192 0
M  V30 1052 C 97.2915 2.79981 2.08355 0
M  V30 1053 C 98.6395 3.3022 2.66908 0
M  V30 1054 O 99.6635 2.81228 2.18607 0
M  V30 1055 O 98.5225 4.15595 3.54884 0
M  V30 1056 H 95.6165 0.605239 0.563573 0
M  V30 1057 H 98.1625 1.62332 0.494627 0
M  V30 1058 H 96.9345 3.63275 1.45419 0
M  V30 1059 H 96.5575 2.7161 2.90368 0
M  V30 1060 N 97.5546 -0.734337 1.39446 0
M  V30 1061 C 98.8036 -1.48937 1.36017 0
M  V30 1062 C 99.1166 -1.95557 -0.0409005 0
M  V30 1063 O 100.323 -2.70779 -0.19778 0
M  V30 1064 C 98.7786 -2.69125 2.38955 0
M  V30 1065 C 98.3866 -2.29452 3.8478 0
M  V30 1066 C 100.131 -3.46944 2.44603 0
M  V30 1067 C 98.0376 -3.46366 4.79358 0
M  V30 1068 H 96.9676 -0.559296 0.505672 0
M  V30 1069 H 99.6186 -0.800983 1.65095 0
M  V30 1070 H 98.0006 -3.40041 2.02948 0
M  V30 1071 H 99.1746 -1.66077 4.29831 0
M  V30 1072 H 97.4896 -1.64723 3.82433 0
M  V30 1073 H 100.087 -4.33907 3.12456 0
M  V30 1074 H 100.43 -3.89454 1.47076 0
M  V30 1075 H 100.963 -2.83056 2.79507 0
M  V30 1076 H 97.7016 -3.08905 5.78151 0
M  V30 1077 H 97.2216 -4.08719 4.38986 0
M  V30 1078 H 98.9006 -4.12691 4.98292 0
M  V30 1079 N 99.0327 -1.24633 -0.964593 0
M  V30 1080 C 99.9627 -1.06611 -2.07741 0
M  V30 1081 C 100.944 0.0218666 -1.70086 0
M  V30 1082 O 102.129 -0.145793 -1.93652 0
M  V30 1083 C 99.2587 -0.673444 -3.40708 0
M  V30 1084 C 98.2127 -1.71054 -3.92332 0
M  V30 1085 C 97.5387 -1.17285 -5.21678 0
M  V30 1086 C 98.8387 -3.10718 -4.19824 0
M  V30 1087 H 100.533 -1.99693 -2.23076 0
M  V30 1088 H 98.0787 -0.96152 -1.07195 0
M  V30 1089 H 100.032 -0.534345 -4.17998 0
M  V30 1090 H 98.7557 0.293073 -3.25282 0
M  V30 1091 H 97.4147 -1.83791 -3.17201 0
M  V30 1092 H 97.0627 -0.196847 -5.02615 0
M  V30 1093 H 96.7627 -1.86592 -5.57187 0
M  V30 1094 H 98.2867 -1.04593 -6.01575 0
M  V30 1095 H 99.7007 -3.01192 -4.87808 0
M  V30 1096 H 98.0977 -3.77406 -4.66567 0
M  V30 1097 H 99.1677 -3.58524 -3.26479 0
M  V30 1098 N 100.511 1.16574 -1.06058 0
M  V30 1099 C 101.458 2.20883 -0.669263 0
M  V30 1100 C 102.428 1.62729 0.332918 0
M  V30 1101 O 103.613 1.895 0.222346 0
M  V30 1102 C 100.753 3.45049 -0.0593572 0
M  V30 1103 C 99.8658 4.17458 -1.11143 0
M  V30 1104 C 99.0008 5.29135 -0.467916 0
M  V30 1105 C 98.0398 5.93343 -1.50369 0
M  V30 1106 N 97.1768 6.96516 -0.883706 0
M  V30 1107 H 102.017 2.53709 -1.5632 0
M  V30 1108 H 99.5538 1.24616 -0.781625 0
M  V30 1109 H 101.512 4.16033 0.311771 0
M  V30 1110 H 100.142 3.12781 0.797992 0
M  V30 1111 H 99.1938 3.45101 -1.60029 0
M  V30 1112 H 100.506 4.61307 -1.89731 0
M  V30 1113 H 99.6598 6.06684 -0.0436871 0
M  V30 1114 H 98.3988 4.86443 0.349864 0
M  V30 1115 H 97.4038 5.14517 -1.93784 0
M  V30 1116 H 98.6288 6.38114 -2.32352 0
M  V30 1117 H 96.5748 6.55943 -0.086595 0
M  V30 1118 H 96.4918 7.38723 -1.607 0
M  V30 1119 H 97.7598 7.77993 -0.484543 0
M  V30 1120 N 101.989 0.842826 1.3317 0
M  V30 1121 C 103.229 0.446574 1.99462 0
M  V30 1122 C 103.593 -0.976818 1.65295 0
M  V30 1123 O 104.794 -1.477 2.24584 0
M  V30 1124 C 103.065 0.665353 3.51152 0
M  V30 1125 S 104.624 0.364911 4.3728 0
M  V30 1126 H 101.442 0.167803 0.690915 0
M  V30 1127 H 104.044 1.09297 1.62094 0
M  V30 1128 H 102.748 1.7006 3.73507 0
M  V30 1129 H 102.279 0.00494568 3.934 0
M  V30 1130 H 104.294 -0.813761 4.89482 0
M  V30 1131 N 103.467 -1.45747 0.599634 0
M  V30 1132 C 104.695 -2.06668 0.0978551 0
M  V30 1133 C 105.11 -1.44562 -1.21439 0
M  V30 1134 O 104.467 -0.556923 -1.73795 0
M  V30 1135 C 104.518 -3.61456 -0.0567044 0
M  V30 1136 O 104.239 -4.21242 1.20361 0
M  V30 1137 C 105.74 -4.39345 -0.590869 0
M  V30 1138 H 102.96 -0.667825 0.0651943 0
M  V30 1139 H 105.504 -1.87115 0.82511 0
M  V30 1140 H 103.659 -3.80378 -0.734251 0
M  V30 1141 H 104.073 -5.14323 1.02821 0
M  V30 1142 H 105.547 -5.48182 -0.648131 0
M  V30 1143 H 106.024 -4.08568 -1.61147 0
M  V30 1144 H 106.63 -4.25268 0.0523679 0
M  V30 1145 N 104.945 -0.338344 -1.53925 0
M  V30 1146 C 105.875 0.51328 -2.27789 0
M  V30 1147 C 106.856 1.107 -1.29149 0
M  V30 1148 O 108.041 1.12937 -1.57984 0
M  V30 1149 C 105.171 1.66697 -3.04679 0
M  V30 1150 C 104.125 1.20183 -4.1078 0
M  V30 1151 C 103.451 2.44363 -4.75595 0
M  V30 1152 C 104.751 0.30605 -5.21403 0
M  V30 1153 H 106.445 -0.102883 -2.99223 0
M  V30 1154 H 103.991 -0.0509219 -1.4391 0
M  V30 1155 H 105.944 2.26915 -3.55088 0
M  V30 1156 H 104.668 2.30995 -2.30887 0
M  V30 1157 H 103.327 0.622499 -3.61276 0
M  V30 1158 H 102.975 3.07057 -3.98403 0
M  V30 1159 H 102.675 2.13925 -5.47275 0
M  V30 1160 H 104.199 3.05317 -5.28786 0
M  V30 1161 H 105.613 0.814929 -5.67478 0
M  V30 1162 H 104.01 0.0937929 -6.00027 0
M  V30 1163 H 105.08 -0.65921 -4.80398 0
M  V30 1164 N 106.423 1.57458 -0.0668435 0
M  V30 1165 C 107.353 2.15468 0.899764 0
M  V30 1166 C 108.334 1.08042 1.31381 0
M  V30 1167 O 109.519 1.36054 1.38574 0
M  V30 1168 C 106.649 2.71232 2.16911 0
M  V30 1169 C 105.603 3.83781 1.89463 0
M  V30 1170 C 104.929 4.26127 3.22986 0
M  V30 1171 C 106.229 5.08238 1.20381 0
M  V30 1172 H 107.923 2.96488 0.416529 0
M  V30 1173 H 105.469 1.4262 0.198908 0
M  V30 1174 H 107.422 3.10458 2.84945 0
M  V30 1175 H 106.146 1.87426 2.67468 0
M  V30 1176 H 104.805 3.45051 1.23836 0
M  V30 1177 H 104.453 3.39249 3.71374 0
M  V30 1178 H 104.153 5.01993 3.05413 0
M  V30 1179 H 105.677 4.67966 3.92225 0
M  V30 1180 H 107.091 5.44811 1.78475 0
M  V30 1181 H 105.488 5.89349 1.13083 0
M  V30 1182 H 106.558 4.84558 0.182153 0
M  V30 1183 N 107.901 -0.206675 1.56239 0
M  V30 1184 C 109.147 -0.930218 1.80208 0
M  V30 1185 C 109.48 -1.83387 0.638981 0
M  V30 1186 O 108.755 -1.91119 -0.361066 0
M  V30 1187 C 109.038 -1.75641 3.1436 0
M  V30 1188 C 108.891 -0.878257 4.41142 0
M  V30 1189 C 110.21 -2.73129 3.45092 0
M  V30 1190 H 107.329 -0.336742 0.655571 0
M  V30 1191 H 109.971 -0.198222 1.88963 0
M  V30 1192 H 108.121 -2.38048 3.07027 0
M  V30 1193 H 109.793 -0.269787 4.6051 0
M  V30 1194 H 108.036 -0.184385 4.33408 0
M  V30 1195 H 108.707 -1.49106 5.3148 0
M  V30 1196 H 111.183 -2.20856 3.52649 0
M  V30 1197 H 110.059 -3.28028 4.40101 0
M  V30 1198 H 110.32 -3.51606 2.68003 0
M  V30 1199 N 109.379 -1.50304 -0.473955 0
M  V30 1200 C 110.626 -1.6115 -1.22625 0
M  V30 1201 C 110.954 -0.310517 -1.92005 0
M  V30 1202 O 110.209 0.703419 -1.82621 0
M  V30 1203 C 110.508 -2.73938 -2.29549 0
M  V30 1204 C 110.174 -4.14519 -1.7744 0
M  V30 1205 C 108.836 -4.5277 -1.62949 0
M  V30 1206 C 111.188 -5.02392 -1.3875 0
M  V30 1207 C 108.516 -5.76639 -1.08187 0
M  V30 1208 C 110.868 -6.26805 -0.854309 0
M  V30 1209 C 109.532 -6.63861 -0.696011 0
M  V30 1210 H 108.802 -0.589691 -0.448715 0
M  V30 1211 H 111.449 -1.84228 -0.522705 0
M  V30 1212 H 109.754 -2.44937 -3.05799 0
M  V30 1213 H 111.451 -2.79534 -2.87509 0
M  V30 1214 H 108.041 -3.8434 -1.89685 0
M  V30 1215 H 112.225 -4.73474 -1.4878 0
M  V30 1216 H 107.481 -6.04027 -0.946666 0
M  V30 1217 H 111.655 -6.94258 -0.545843 0
M  V30 1218 H 109.282 -7.59722 -0.26952 0
M  V30 1219 N 110.857 0.726932 -1.39834 0
M  V30 1220 C 112.105 1.4837 -1.37225 0
M  V30 1221 C 112.426 1.94979 0.0284857 0
M  V30 1222 O 111.696 1.69555 0.981213 0
M  V30 1223 H 110.276 0.55043 -0.505011 0
M  V30 1224 H 112.938 0.862468 -1.74778 0
M  V30 1225 H 112.034 2.36198 -2.04003 0
M  V30 1226 N 112.336 1.25143 0.95797 0
M  V30 1227 C 113.582 1.09855 1.70469 0
M  V30 1228 C 113.915 -0.360187 1.90831 0
M  V30 1229 O 113.19 -1.26568 1.47685 0
M  V30 1230 C 113.473 1.8497 3.08963 0
M  V30 1231 C 113.326 3.38652 2.96032 0
M  V30 1232 C 114.645 1.63016 4.08795 0
M  V30 1233 H 111.764 0.400465 0.618706 0
M  V30 1234 H 114.406 1.53933 1.11376 0
M  V30 1235 H 112.556 1.47505 3.59409 0
M  V30 1236 H 114.228 3.85772 2.52938 0
M  V30 1237 H 112.471 3.66534 2.32025 0
M  V30 1238 H 113.142 3.8642 3.94187 0
M  V30 1239 H 115.618 1.95625 3.67247 0
M  V30 1240 H 114.494 2.18015 5.03747 0
M  V30 1241 H 114.755 0.570692 4.38401 0
M  V30 1242 N 113.814 -1.1601 1.06675 0
M  V30 1243 C 115.06 -1.87145 0.796766 0
M  V30 1244 C 115.415 -1.8037 -0.669658 0
M  V30 1245 O 114.708 -1.21116 -1.48463 0
M  V30 1246 C 114.902 -3.35547 1.23057 0
M  V30 1247 C 114.731 -3.56769 2.73762 0
M  V30 1248 C 113.501 -3.72635 3.41279 0
M  V30 1249 C 115.699 -3.55166 3.7197 0
M  V30 1250 N 113.681 -3.81845 4.80695 0
M  V30 1251 C 115.052 -3.70406 4.97191 0
M  V30 1252 C 117.107 -3.384 3.65226 0
M  V30 1253 C 115.81 -3.70615 6.16471 0
M  V30 1254 C 117.836 -3.39904 4.83962 0
M  V30 1255 C 117.198 -3.55667 6.08013 0
M  V30 1256 H 113.297 -0.702267 0.344014 0
M  V30 1257 H 115.881 -1.39165 1.36166 0
M  V30 1258 H 114.052 -3.82159 0.693456 0
M  V30 1259 H 115.784 -3.94363 0.908844 0
M  V30 1260 H 112.539 -3.73121 2.91681 0
M  V30 1261 H 112.963 -3.90209 5.53232 0
M  V30 1262 H 117.605 -3.25138 2.70269 0
M  V30 1263 H 115.323 -3.82658 7.11757 0
M  V30 1264 H 118.909 -3.28169 4.80413 0
M  V30 1265 H 117.789 -3.56755 6.98352 0
M  V30 1266 N 115.292 -0.849877 -1.32721 0
M  V30 1267 C 116.541 -0.447175 -1.96681 0
M  V30 1268 C 116.854 1.00135 -1.68025 0
M  V30 1269 O 118.06 1.50926 -2.25685 0
M  V30 1270 C 116.516 -0.7487 -3.52026 0
M  V30 1271 C 116.124 -2.21264 -3.89546 0
M  V30 1272 C 117.868 -0.413487 -4.22481 0
M  V30 1273 C 115.775 -2.45763 -5.37917 0
M  V30 1274 H 114.705 -0.163486 -0.736063 0
M  V30 1275 H 117.356 -1.03999 -1.51183 0
M  V30 1276 H 115.738 -0.0853727 -3.95908 0
M  V30 1277 H 116.912 -2.91736 -3.56689 0
M  V30 1278 H 115.227 -2.5119 -3.32103 0
M  V30 1279 H 117.824 -0.574017 -5.3161 0
M  V30 1280 H 118.167 0.644492 -4.11281 0
M  V30 1281 H 118.7 -1.03251 -3.84167 0
M  V30 1282 H 115.439 -3.50168 -5.54132 0
M  V30 1283 H 114.959 -1.79864 -5.72197 0
M  V30 1284 H 116.638 -2.29471 -6.0494 0
M  V30 1285 N 116.77 1.45427 -0.607355 0
M  V30 1286 C 117.7 2.3329 0.0989352 0
M  V30 1287 C 118.681 1.46816 0.859007 0
M  V30 1288 O 119.866 1.75588 0.829604 0
M  V30 1289 C 116.996 3.29518 1.09705 0
M  V30 1290 C 115.95 4.25626 0.450206 0
M  V30 1291 C 115.276 5.11542 1.55655 0
M  V30 1292 C 116.576 5.18505 -0.628455 0
M  V30 1293 H 118.27 2.92595 -0.634716 0
M  V30 1294 H 115.816 1.40696 -0.306681 0
M  V30 1295 H 117.769 3.89855 1.59971 0
M  V30 1296 H 116.493 2.68372 1.86129 0
M  V30 1297 H 115.152 3.66586 -0.0315886 0
M  V30 1298 H 114.8 4.46765 2.31107 0
M  V30 1299 H 114.5 5.76647 1.12925 0
M  V30 1300 H 116.024 5.74748 2.06148 0
M  V30 1301 H 117.438 5.72916 -0.209877 0
M  V30 1302 H 115.835 5.92085 -0.977489 0
M  V30 1303 H 116.905 4.60948 -1.50514 0
M  V30 1304 N 118.248 0.346503 1.53744 0
M  V30 1305 C 119.478 -0.250047 2.05081 0
M  V30 1306 C 119.886 -1.44529 1.22098 0
M  V30 1307 O 119.229 -1.81992 0.249917 0
M  V30 1308 C 119.291 -0.725934 3.52094 0
M  V30 1309 C 118.955 0.350053 4.55657 0
M  V30 1310 C 119.952 1.19372 5.0601 0
M  V30 1311 C 117.637 0.504827 4.99757 0
M  V30 1312 C 119.631 2.17768 5.99046 0
M  V30 1313 C 117.318 1.49218 5.92602 0
M  V30 1314 C 118.316 2.32706 6.42135 0
M  V30 1315 O 118.004 3.2976 7.33153 0
M  V30 1316 H 117.736 -0.0515469 0.674032 0
M  V30 1317 H 120.29 0.497559 1.99282 0
M  V30 1318 H 118.52 -1.52483 3.55367 0
M  V30 1319 H 120.209 -1.24336 3.86388 0
M  V30 1320 H 120.975 1.08525 4.72702 0
M  V30 1321 H 116.854 -0.135178 4.60802 0
M  V30 1322 H 120.398 2.82971 6.37631 0
M  V30 1323 H 116.295 1.6012 6.25325 0
M  V30 1324 H 117.063 3.25265 7.51096 0
M  V30 1325 N 119.726 -1.57421 0.075193 0
M  V30 1326 C 120.975 -1.92794 -0.592731 0
M  V30 1327 C 121.288 -0.957478 -1.70563 0
M  V30 1328 O 122.494 -1.20417 -2.43335 0
M  V30 1329 C 120.95 -3.42495 -1.10569 0
M  V30 1330 C 120.558 -4.47994 -0.0236121 0
M  V30 1331 C 122.302 -3.86864 -1.74748 0
M  V30 1332 C 120.209 -5.88829 -0.550803 0
M  V30 1333 H 119.139 -0.719591 -0.225177 0
M  V30 1334 H 121.79 -1.82902 0.147978 0
M  V30 1335 H 120.172 -3.47471 -1.89947 0
M  V30 1336 H 121.346 -4.54637 0.751099 0
M  V30 1337 H 119.661 -4.13113 0.522159 0
M  V30 1338 H 122.258 -4.8947 -2.15229 0
M  V30 1339 H 122.601 -3.24417 -2.60882 0
M  V30 1340 H 123.134 -3.84504 -1.01986 0
M  V30 1341 H 119.873 -6.54929 0.273457 0
M  V30 1342 H 119.393 -5.85698 -1.29296 0
M  V30 1343 H 121.072 -6.38811 -1.02613 0
M  V30 1344 N 121.204 0.198386 -1.56346 0
M  V30 1345 C 122.134 1.24865 -1.9731 0
M  V30 1346 C 123.115 1.47651 -0.844576 0
M  V30 1347 O 124.3 1.59444 -1.10866 0
M  V30 1348 C 121.43 2.59358 -2.30977 0
M  V30 1349 C 120.384 2.5119 -3.46537 0
M  V30 1350 C 119.71 3.89926 -3.65871 0
M  V30 1351 C 121.01 2.03977 -4.80823 0
M  V30 1352 H 122.704 0.908252 -2.85291 0
M  V30 1353 H 120.25 0.435462 -1.37258 0
M  V30 1354 H 122.203 3.33011 -2.58228 0
M  V30 1355 H 120.927 2.95132 -1.39874 0
M  V30 1356 H 119.586 1.79993 -3.19371 0
M  V30 1357 H 119.234 4.23046 -2.72105 0
M  V30 1358 H 118.934 3.85336 -4.4361 0
M  V30 1359 H 120.458 4.65205 -3.95495 0
M  V30 1360 H 121.872 2.67386 -5.07127 0
M  V30 1361 H 120.269 2.10397 -5.62008 0
M  V30 1362 H 121.339 0.992861 -4.74626 0
M  V30 1363 N 122.682 1.50554 0.465978 0
M  V30 1364 C 123.629 1.6979 1.56333 0
M  V30 1365 C 124.599 0.539239 1.57103 0
M  V30 1366 O 125.784 0.770401 1.74555 0
M  V30 1367 C 122.924 1.80273 2.94271 0
M  V30 1368 C 122.037 3.07674 3.0325 0
M  V30 1369 C 121.172 3.08922 4.32135 0
M  V30 1370 C 120.211 4.30755 4.34875 0
M  V30 1371 N 119.348 4.29714 5.55239 0
M  V30 1372 H 124.188 2.63472 1.39235 0
M  V30 1373 H 121.725 1.30602 0.676873 0
M  V30 1374 H 123.683 1.84332 3.74269 0
M  V30 1375 H 122.313 0.900258 3.09992 0
M  V30 1376 H 121.365 3.13062 2.16094 0
M  V30 1377 H 122.677 3.97642 3.01135 0
M  V30 1378 H 121.831 3.11738 5.20485 0
M  V30 1379 H 120.57 2.16792 4.36866 0
M  V30 1380 H 119.575 4.28146 3.44922 0
M  V30 1381 H 120.8 5.24117 4.31831 0
M  V30 1382 H 118.746 3.4044 5.60746 0
M  V30 1383 H 118.663 5.13456 5.54886 0
M  V30 1384 H 119.931 4.36683 6.457 0
M  V30 1385 N 124.16 -0.719506 1.40217 0
M  V30 1386 C 125.09 -1.8465 1.42922 0
M  V30 1387 C 126.071 -1.67599 0.29062 0
M  V30 1388 O 127.256 -1.87688 0.498677 0
M  V30 1389 C 124.386 -3.22565 1.28722 0
M  V30 1390 C 123.34 -3.54281 2.40144 0
M  V30 1391 C 122.666 -4.91298 2.11023 0
M  V30 1392 C 123.966 -3.55676 3.82481 0
M  V30 1393 H 125.66 -1.82644 2.37237 0
M  V30 1394 H 123.206 -0.877305 1.1419 0
M  V30 1395 H 125.159 -4.01095 1.29232 0
M  V30 1396 H 123.883 -3.25137 0.308811 0
M  V30 1397 H 122.542 -2.78088 2.38877 0
M  V30 1398 H 122.19 -4.90468 1.11582 0
M  V30 1399 H 121.89 -5.13485 2.8567 0
M  V30 1400 H 123.414 -5.72166 2.13209 0
M  V30 1401 H 124.828 -4.24254 3.85592 0
M  V30 1402 H 123.225 -3.89388 4.56614 0
M  V30 1403 H 124.295 -2.55144 4.12346 0
M  V30 1404 N 125.638 -1.25649 -0.95132 0
M  V30 1405 C 126.586 -1.06118 -2.06982 0
M  V30 1406 C 127.58 0.00889169 -1.69398 0
M  V30 1407 O 128.786 -0.146988 -1.79399 0
M  V30 1408 H 125.161 -0.326248 -0.677544 0
M  V30 1409 H 127.132 -2.00932 -2.2061 0
M  V30 1410 C 125.881 -0.700145 -3.40578 0
M  V30 1411 H 125.204 -1.51537 -3.69968 0
M  V30 1412 H 126.644 -0.603211 -4.19687 0
M  V30 1413 C 125.103 0.59403 -3.31622 0
M  V30 1414 O 125.633 1.63522 -3.66911 0
M  V30 1415 N 123.839 0.58089 -2.84735 0
M  V30 1416 H 123.386 -0.266783 -2.56215 0
M  V30 1417 H 123.344 1.44695 -2.79125 0
M  V30 1418 N 127.117 1.15442 -1.07289 0
M  V30 1419 C 128.347 1.89821 -0.815576 0
M  V30 1420 C 128.755 1.7823 0.634867 0
M  V30 1421 O 128.098 1.13152 1.44715 0
M  V30 1422 C 128.16 3.40817 -1.14385 0
M  V30 1423 C 127.824 3.76193 -2.59476 0
M  V30 1424 C 128.821 3.77269 -3.57721 0
M  V30 1425 C 126.506 4.0652 -2.95037 0
M  V30 1426 C 128.5 4.08176 -4.89562 0
M  V30 1427 C 126.187 4.37092 -4.27076 0
M  V30 1428 C 127.185 4.37902 -5.24148 0
M  V30 1429 O 126.873 4.67741 -6.53815 0
M  V30 1430 H 126.605 0.608465 -0.294528 0
M  V30 1431 H 129.159 1.472 -1.43252 0
M  V30 1432 H 127.389 3.83835 -0.469865 0
M  V30 1433 H 129.078 3.96485 -0.869179 0
M  V30 1434 H 129.844 3.5394 -3.3159 0
M  V30 1435 H 125.723 4.05049 -2.20128 0
M  V30 1436 H 129.267 4.08723 -5.65324 0
M  V30 1437 H 125.164 4.59889 -4.5296 0
M  V30 1438 H 125.932 4.85509 -6.58957 0
M  V30 1439 N 128.595 0.856903 1.32268 0
M  V30 1440 C 129.823 0.475439 2.01363 0
M  V30 1441 C 130.238 -0.928486 1.64392 0
M  V30 1442 O 129.595 -1.60624 0.866387 0
M  V30 1443 C 129.646 0.607545 3.56358 0
M  V30 1444 O 129.367 1.95617 3.92002 0
M  V30 1445 C 130.868 0.225382 4.42727 0
M  V30 1446 H 128.088 0.186636 0.644521 0
M  V30 1447 H 130.632 1.15446 1.68797 0
M  V30 1448 H 128.787 -0.0237719 3.87393 0
M  V30 1449 H 129.201 1.95455 4.86721 0
M  V30 1450 H 130.675 0.368813 5.50767 0
M  V30 1451 H 131.152 -0.834369 4.31202 0
M  V30 1452 H 131.758 0.831864 4.17085 0
M  V30 1453 N 130.073 -1.45103 0.615059 0
M  V30 1454 C 131.301 -2.06553 0.11977 0
M  V30 1455 C 131.716 -1.45842 -1.19898 0
M  V30 1456 O 131.073 -0.575325 -1.73194 0
M  V30 1457 C 131.124 -3.61495 -0.018364 0
M  V30 1458 O 130.845 -4.19942 1.24822 0
M  V30 1459 C 132.346 -4.39947 -0.544237 0
M  V30 1460 H 129.566 -0.667096 0.0722739 0
M  V30 1461 H 132.11 -1.8623 0.84491 0
M  V30 1462 H 130.265 -3.81135 -0.693865 0
M  V30 1463 H 130.679 -5.13204 1.0827 0
M  V30 1464 H 132.153 -5.48838 -0.589953 0
M  V30 1465 H 132.63 -4.10255 -1.56805 0
M  V30 1466 H 133.236 -4.25188 0.0974703 0
M  V30 1467 N 131.551 -0.354651 -1.53558 0
M  V30 1468 C 132.461 0.50515 -2.29097 0
M  V30 1469 C 133.477 1.10223 -1.34636 0
M  V30 1470 O 134.653 1.11553 -1.67684 0
M  V30 1471 C 131.718 1.63479 -3.05738 0
M  V30 1472 C 130.779 1.06636 -4.15845 0
M  V30 1473 C 130.012 2.14217 -4.88822 0
M  V30 1474 O 130.235 3.35137 -4.61562 0
M  V30 1475 O 129.169 1.77887 -5.75013 0
M  V30 1476 H 132.995 -0.109237 -3.03503 0
M  V30 1477 H 130.58 -0.119357 -1.48922 0
M  V30 1478 H 132.462 2.2918 -3.5363 0
M  V30 1479 H 131.137 2.23478 -2.34178 0
M  V30 1480 H 130.044 0.373565 -3.7223 0
M  V30 1481 H 131.377 0.511081 -4.89539 0
M  V30 1482 N 133.029 1.57378 -0.0835403 0
M  V30 1483 C 133.939 2.16897 0.894021 0
M  V30 1484 C 134.955 1.13528 1.31861 0
M  V30 1485 O 136.131 1.45848 1.3889 0
M  V30 1486 C 133.196 2.72831 2.13925 0
M  V30 1487 C 132.257 3.91115 1.76997 0
M  V30 1488 C 131.49 4.44371 2.95584 0
M  V30 1489 O 131.713 3.96596 4.09961 0
M  V30 1490 O 130.647 5.35549 2.74719 0
M  V30 1491 H 134.473 3.00814 0.417679 0
M  V30 1492 H 132.058 1.48741 0.140181 0
M  V30 1493 H 133.94 3.0863 2.86924 0
M  V30 1494 H 132.615 1.91967 2.60635 0
M  V30 1495 H 131.522 3.60148 1.01214 0
M  V30 1496 H 132.855 4.73307 1.3506 0
M  V30 1497 N 134.507 -0.190092 1.56449 0
M  V30 1498 C 135.747 -0.916414 1.82705 0
M  V30 1499 C 136.111 -1.80235 0.661763 0
M  V30 1500 O 137.312 -2.56484 0.80433 0
M  V30 1501 C 135.583 -1.70691 3.14005 0
M  V30 1502 S 137.142 -2.48457 3.61683 0
M  V30 1503 H 133.96 -0.307281 0.64117 0
M  V30 1504 H 136.562 -0.179433 1.94675 0
M  V30 1505 H 135.266 -1.04677 3.96826 0
M  V30 1506 H 134.797 -2.48562 3.04927 0
M  V30 1507 H 136.812 -3.72756 3.27517 0
M  V30 1508 N 135.985 -1.50799 -0.457987 0
M  V30 1509 C 137.262 -1.52968 -1.21902 0
M  V30 1510 C 137.642 -0.281906 -2.09209 0
M  V30 1511 O 136.99 0.734076 -2.16388 0
M  V30 1512 C 137.2 -2.8326 -2.03875 0
M  V30 1513 C 138.548 -3.34425 -2.6162 0
M  V30 1514 O 139.572 -2.8467 -2.14106 0
M  V30 1515 O 138.431 -4.21188 -3.48228 0
M  V30 1516 H 135.525 -0.614129 -0.553873 0
M  V30 1517 H 138.071 -1.63098 -0.468739 0
M  V30 1518 H 136.843 -3.65543 -1.39621 0
M  V30 1519 H 136.466 -2.76195 -2.8601 0
M  V30 1520 N 137.463 0.71206 -1.40597 0
M  V30 1521 C 138.396 1.83582 -1.35546 0
M  V30 1522 C 139.374 1.61032 -0.225284 0
M  V30 1523 O 140.558 1.83998 -0.409519 0
M  V30 1524 C 137.685 3.19983 -1.11034 0
M  V30 1525 C 136.731 3.61355 -2.2655 0
M  V30 1526 S 137.564 3.68062 -3.88961 0
M  V30 1527 C 138.72 5.07216 -3.66719 0
M  V30 1528 H 138.953 1.87586 -2.30648 0
M  V30 1529 H 136.486 0.879182 -1.26924 0
M  V30 1530 H 138.444 3.98734 -0.975761 0
M  V30 1531 H 137.105 3.13608 -0.175798 0
M  V30 1532 H 136.298 4.60403 -2.0505 0
M  V30 1533 H 135.9 2.8987 -2.36329 0
M  V30 1534 H 138.192 5.94238 -3.25404 0
M  V30 1535 H 139.135 5.33753 -4.6531 0
M  V30 1536 H 139.543 4.77976 -3.00332 0
M  V30 1537 N 138.941 1.26152 0.944643 0
M  V30 1538 C 139.888 1.07408 2.04285 0
M  V30 1539 C 140.858 -0.0198413 1.66088 0
M  V30 1540 O 142.043 0.139264 1.90291 0
M  V30 1541 C 139.183 0.70945 3.37729 0
M  V30 1542 C 138.296 1.87926 3.88983 0
M  V30 1543 C 137.431 1.45807 5.10797 0
M  V30 1544 C 136.47 2.5964 5.54305 0
M  V30 1545 N 135.607 2.18226 6.67324 0
M  V30 1546 H 140.447 2.01389 2.1965 0
M  V30 1547 H 137.984 1.00275 1.07626 0
M  V30 1548 H 139.942 0.478948 4.14442 0
M  V30 1549 H 138.572 -0.193389 3.2222 0
M  V30 1550 H 137.624 2.22279 3.08701 0
M  V30 1551 H 138.936 2.73377 4.17213 0
M  V30 1552 H 138.09 1.18781 5.94959 0
M  V30 1553 H 136.829 0.574414 4.84305 0
M  V30 1554 H 135.834 2.87399 4.68702 0
M  V30 1555 H 137.059 3.48599 5.828 0
M  V30 1556 H 135.005 1.3229 6.42523 0
M  V30 1557 H 134.922 2.97221 6.95123 0
M  V30 1558 H 136.19 1.94403 7.54869 0
M  V30 1559 N 140.419 -1.14872 1.07899 0
M  V30 1560 C 141.366 -2.19791 0.704319 0
M  V30 1561 C 142.336 -1.63238 -0.306987 0
M  V30 1562 O 143.521 -1.8983 -0.192171 0
M  V30 1563 C 140.661 -3.44911 0.114244 0
M  V30 1564 C 139.774 -4.15637 1.1777 0
M  V30 1565 C 138.909 -5.28324 0.552037 0
M  V30 1566 C 137.948 -5.90875 1.59789 0
M  V30 1567 N 137.085 -6.95022 0.994404 0
M  V30 1568 H 141.925 -2.5119 1.60336 0
M  V30 1569 H 139.462 -1.23356 0.801352 0
M  V30 1570 H 141.42 -4.16477 -0.245544 0
M  V30 1571 H 140.05 -3.14011 -0.74813 0
M  V30 1572 H 139.102 -3.42512 1.65499 0
M  V30 1573 H 140.414 -4.5823 1.97046 0
M  V30 1574 H 139.568 -6.06538 0.1402 0
M  V30 1575 H 138.307 -4.86939 -0.272431 0
M  V30 1576 H 137.312 -5.11369 2.01945 0
M  V30 1577 H 138.537 -6.34337 2.42474 0
M  V30 1578 H 136.483 -6.55722 0.190939 0
M  V30 1579 H 136.4 -7.36073 1.72432 0
M  V30 1580 H 137.668 -7.77123 0.608253 0
M  V30 1581 N 141.898 -0.863906 -1.31812 0
M  V30 1582 C 142.831 -0.259963 -2.26714 0
M  V30 1583 C 143.809 0.607392 -1.50829 0
M  V30 1584 O 144.993 0.562155 -1.79922 0
M  V30 1585 C 142.12 0.632456 -3.32743 0
M  V30 1586 C 141.166 -0.162743 -4.26189 0
M  V30 1587 S 141.999 -1.53726 -5.12961 0
M  V30 1588 C 143.155 -0.650803 -6.22507 0
M  V30 1589 H 143.388 -1.06445 -2.77591 0
M  V30 1590 H 140.921 -0.662071 -1.39485 0
M  V30 1591 H 142.879 1.14167 -3.94305 0
M  V30 1592 H 141.54 1.41083 -2.80632 0
M  V30 1593 H 140.733 0.517366 -5.01338 0
M  V30 1594 H 140.335 -0.60385 -3.69093 0
M  V30 1595 H 142.627 0.141134 -6.77353 0
M  V30 1596 H 143.57 -1.37322 -6.94657 0
M  V30 1597 H 143.978 -0.221041 -5.64067 0
M  V30 1598 N 143.376 1.44774 -0.622745 0
M  V30 1599 C 144.326 2.2774 0.108889 0
M  V30 1600 C 145.31 1.38189 0.824175 0
M  V30 1601 O 146.502 1.62063 0.711664 0
M  V30 1602 C 143.631 3.25353 1.09546 0
M  V30 1603 C 142.717 4.22392 0.380232 0
M  V30 1604 N 143.108 5.02388 -0.586535 0
M  V30 1605 C 141.406 4.41588 0.625792 0
M  V30 1606 C 142.107 5.72894 -1.00834 0
M  V30 1607 N 141.083 5.42479 -0.348878 0
M  V30 1608 H 144.885 2.86993 -0.63341 0
M  V30 1609 H 142.399 1.5611 -0.447589 0
M  V30 1610 H 144.396 3.83538 1.63414 0
M  V30 1611 H 143.056 2.6766 1.83815 0
M  V30 1612 H 144.067 5.0885 -0.963975 0
M  V30 1613 H 140.744 3.95003 1.352 0
M  V30 1614 H 142.134 6.47158 -1.80656 0
M  V30 1615 N 144.854 0.36279 1.53368 0
M  V30 1616 C 146.084 -0.228281 2.05335 0
M  V30 1617 C 146.492 -1.43226 1.23625 0
M  V30 1618 O 145.835 -1.81717 0.269206 0
M  V30 1619 C 145.897 -0.688549 3.52845 0
M  V30 1620 C 145.561 0.398362 4.5526 0
M  V30 1621 C 146.558 1.24732 5.04716 0
M  V30 1622 C 144.243 0.557805 4.99193 0
M  V30 1623 C 146.237 2.2411 5.96702 0
M  V30 1624 C 143.924 1.55495 5.90986 0
M  V30 1625 C 144.922 2.39503 6.39631 0
M  V30 1626 O 144.61 3.37517 7.29615 0
M  V30 1627 H 144.342 -0.044395 0.674541 0
M  V30 1628 H 146.896 0.518668 1.98744 0
M  V30 1629 H 145.126 -1.48706 3.56964 0
M  V30 1630 H 146.815 -1.20231 3.87685 0
M  V30 1631 H 147.581 1.13532 4.71525 0
M  V30 1632 H 143.46 -0.0862959 4.60919 0
M  V30 1633 H 147.004 2.89718 6.34594 0
M  V30 1634 H 142.901 1.66744 6.23592 0
M  V30 1635 H 143.669 3.33213 7.47604 0
M  V30 1636 N 146.332 -1.57332 0.0918853 0
M  V30 1637 C 147.578 -1.94524 -0.573425 0
M  V30 1638 C 147.911 -0.973578 -1.68033 0
M  V30 1639 O 147.186 -0.00609226 -1.94499 0
M  V30 1640 C 147.469 -3.41858 -1.13161 0
M  V30 1641 C 147.322 -4.4979 -0.0299747 0
M  V30 1642 C 148.641 -3.90435 -2.03098 0
M  V30 1643 H 145.76 -0.70734 -0.206975 0
M  V30 1644 H 148.402 -1.89309 0.161942 0
M  V30 1645 H 146.552 -3.46433 -1.7583 0
M  V30 1646 H 148.224 -4.57327 0.604112 0
M  V30 1647 H 146.467 -4.291 0.636833 0
M  V30 1648 H 147.138 -5.50069 -0.461287 0
M  V30 1649 H 149.614 -3.87992 -1.50338 0
M  V30 1650 H 148.49 -4.94097 -2.39081 0
M  V30 1651 H 148.751 -3.29541 -2.94712 0
M  V30 1652 N 147.81 0.181792 -1.56548 0
M  V30 1653 C 149.087 0.926765 -1.72251 0
M  V30 1654 C 149.467 2.00831 -0.650386 0
M  V30 1655 O 148.815 2.26008 0.336521 0
M  V30 1656 C 149.025 1.50106 -3.1507 0
M  V30 1657 C 150.373 1.97805 -3.75711 0
M  V30 1658 O 151.397 1.59922 -3.18282 0
M  V30 1659 O 150.256 2.67555 -4.76525 0
M  V30 1660 H 147.35 0.435506 -0.703039 0
M  V30 1661 H 149.896 0.170443 -1.68842 0
M  V30 1662 H 148.668 0.72212 -3.84579 0
M  V30 1663 H 148.291 2.32186 -3.22763 0
M  V30 1664 N 149.288 1.51039 0.449983 0
M  V30 1665 C 150.699 1.557 1.03026 0
M  V30 1666 C 151.05 0.372939 1.92623 0
M  V30 1667 O 150.175 -0.511771 2.10261 0
M  V30 1668 C 150.77 2.82171 1.87523 0
M  V30 1669 C 149.329 2.89444 2.40622 0
M  V30 1670 C 148.476 2.50228 1.19504 0
M  V30 1671 H 151.427 1.56999 0.231745 0
M  V30 1672 H 151.448 2.65219 2.72835 0
M  V30 1673 H 150.96 3.68331 1.22286 0
M  V30 1674 H 149.061 2.07685 3.0935 0
M  V30 1675 H 149.174 3.92816 2.74285 0
M  V30 1676 H 147.538 2.03139 1.53644 0
M  V30 1677 H 148.321 3.38719 0.558972 0
M  V30 1678 N 150.766 -0.704594 1.40972 0
M  V30 1679 C 152.043 -1.45847 1.30338 0
M  V30 1680 C 152.423 -2.10973 -0.0732344 0
M  V30 1681 O 151.771 -2.00997 -1.08685 0
M  V30 1682 C 151.981 -2.48525 2.45023 0
M  V30 1683 C 153.329 -3.1404 2.8577 0
M  V30 1684 O 154.353 -2.58848 2.44696 0
M  V30 1685 O 153.212 -4.13981 3.56766 0
M  V30 1686 H 150.306 -0.649092 0.512454 0
M  V30 1687 H 152.852 -0.735836 1.52917 0
M  V30 1688 H 151.624 -1.98994 3.36923 0
M  V30 1689 H 151.247 -3.2831 2.24272 0
M  V30 1690 N 152.244 -1.26651 -0.937939 0
M  V30 1691 C 153.194 -1.05156 -2.02302 0
M  V30 1692 C 154.178 0.0171233 -1.60891 0
M  V30 1693 O 155.37 -0.200213 -1.75864 0
M  V30 1694 C 152.499 -0.689962 -3.36295 0
M  V30 1695 C 151.585 -1.79626 -3.84181 0
M  V30 1696 N 151.976 -3.03422 -4.04684 0
M  V30 1697 C 150.274 -1.6806 -4.13124 0
M  V30 1698 C 150.975 -3.75345 -4.444 0
M  V30 1699 N 149.951 -3.03051 -4.51288 0
M  V30 1700 H 153.753 -1.99117 -2.1617 0
M  V30 1701 H 151.267 -1.17216 -1.12402 0
M  V30 1702 H 153.264 -0.517112 -4.13681 0
M  V30 1703 H 151.924 0.242139 -3.23796 0
M  V30 1704 H 152.935 -3.39293 -3.91281 0
M  V30 1705 H 149.612 -0.818629 -4.09396 0
M  V30 1706 H 151.002 -4.81691 -4.68427 0
M  V30 1707 N 153.722 1.14298 -1.08507 0
M  V30 1708 C 154.968 1.85633 -0.816581 0
M  V30 1709 C 155.301 1.82784 0.656021 0
M  V30 1710 O 154.576 1.25926 1.48233 0
M  V30 1711 C 154.859 3.34223 -1.34041 0
M  V30 1712 C 154.712 3.45639 -2.87843 0
M  V30 1713 C 156.031 4.29356 -0.9665 0
M  V30 1714 H 153.15 0.67402 -0.298104 0
M  V30 1715 H 155.792 1.34214 -1.34487 0
M  V30 1716 H 153.942 3.78144 -0.89104 0
M  V30 1717 H 155.614 3.10498 -3.41158 0
M  V30 1718 H 153.857 2.86817 -3.25451 0
M  V30 1719 H 154.528 4.50089 -3.19569 0
M  V30 1720 H 157.004 3.93457 -1.35391 0
M  V30 1721 H 155.88 5.3178 -1.3602 0
M  V30 1722 H 156.141 4.41919 0.126362 0
M  V30 1723 N 155.201 0.870884 1.31352 0
M  V30 1724 C 156.148 0.325425 2.28494 0
M  V30 1725 C 157.118 -0.576615 1.5577 0
M  V30 1726 O 158.303 -0.508059 1.83911 0
M  V30 1727 C 155.443 -0.466283 3.41935 0
M  V30 1728 C 154.556 0.463378 4.29508 0
M  V30 1729 C 153.691 -0.342544 5.30094 0
M  V30 1730 C 152.73 0.583486 6.09313 0
M  V30 1731 N 151.867 -0.186244 7.01853 0
M  V30 1732 H 156.707 1.15901 2.74538 0
M  V30 1733 H 154.244 0.58294 1.35056 0
M  V30 1734 H 156.202 -0.941085 4.06447 0
M  V30 1735 H 154.832 -1.26456 2.97 0
M  V30 1736 H 153.884 1.05663 3.65431 0
M  V30 1737 H 155.196 1.1734 4.84802 0
M  V30 1738 H 154.35 -0.879816 6.00287 0
M  V30 1739 H 153.089 -1.08585 4.75458 0
M  V30 1740 H 152.094 1.13251 5.3801 0
M  V30 1741 H 153.319 1.32566 6.66035 0
M  V30 1742 H 151.265 -0.912348 6.49625 0
M  V30 1743 H 151.182 0.464422 7.54572 0
M  V30 1744 H 152.45 -0.704716 7.76308 0
M  V30 1745 N 156.679 -1.44442 0.630414 0
M  V30 1746 C 158.095 -1.56832 0.295973 0
M  V30 1747 C 158.295 -1.61806 -1.20088 0
M  V30 1748 O 157.351 -1.5607 -1.9849 0
M  V30 1749 C 158.664 -2.84031 0.987264 0
M  V30 1750 C 160.212 -2.97742 0.96534 0
M  V30 1751 C 160.687 -4.27743 1.63708 0
M  V30 1752 N 162.178 -4.34555 1.60364 0
M  V30 1753 C 162.913 -5.33862 2.09234 0
M  V30 1754 N 162.409 -6.39578 2.66292 0
M  V30 1755 N 164.202 -5.25366 1.99867 0
M  V30 1756 H 156.353 -1.39457 1.60205 0
M  V30 1757 H 158.616 -0.668237 0.672431 0
M  V30 1758 H 158.322 -2.86338 2.04215 0
M  V30 1759 H 158.196 -3.73534 0.524588 0
M  V30 1760 H 160.583 -2.94989 -0.0810639 0
M  V30 1761 H 160.664 -2.09589 1.4665 0
M  V30 1762 H 160.308 -4.31255 2.68293 0
M  V30 1763 H 160.238 -5.14752 1.11076 0
M  V30 1764 H 162.729 -3.58772 1.18705 0
M  V30 1765 H 163.042 -7.11637 3.01317 0
M  V30 1766 H 161.387 -6.40265 2.70343 0
M  V30 1767 H 164.578 -4.41688 1.55013 0
M  V30 1768 H 164.751 -6.02606 2.38265 0
M  V30 1769 N 158.157 -0.370918 -1.53173 0
M  V30 1770 C 159.12 0.460778 -2.24521 0
M  V30 1771 C 160.12 1.00536 -1.25496 0
M  V30 1772 O 161.31 0.890266 -1.49733 0
M  V30 1773 C 158.442 1.64457 -2.98608 0
M  V30 1774 H 159.635 -0.163613 -2.99453 0
M  V30 1775 H 157.188 -0.122699 -1.55818 0
M  V30 1776 H 157.923 2.30691 -2.2793 0
M  V30 1777 H 157.708 1.26099 -3.7127 0
M  V30 1778 H 159.198 2.23384 -3.5283 0
M  V30 1779 N 159.635 1.57281 -0.100228 0
M  V30 1780 C 160.567 2.11342 0.886972 0
M  V30 1781 C 161.58 1.05182 1.24261 0
M  V30 1782 O 162.769 1.32613 1.19483 0
M  V30 1783 C 159.869 2.5825 2.19454 0
M  V30 1784 C 159.042 3.88302 2.01346 0
M  V30 1785 C 158.101 4.21004 3.15661 0
M  V30 1786 O 157.127 4.9014 2.89398 0
M  V30 1787 N 158.329 3.76818 4.41575 0
M  V30 1788 H 161.094 2.96668 0.425216 0
M  V30 1789 H 158.655 1.61678 0.0847334 0
M  V30 1790 H 160.647 2.7717 2.94888 0
M  V30 1791 H 159.217 1.77907 2.57037 0
M  V30 1792 H 158.437 3.7848 1.10212 0
M  V30 1793 H 159.725 4.73375 1.8653 0
M  V30 1794 H 159.123 3.2102 4.65792 0
M  V30 1795 H 157.68 4.00882 5.13942 0
M  V30 1796 N 161.113 -0.173488 1.56642 0
M  V30 1797 C 162.06 -1.21482 1.96242 0
M  V30 1798 C 163.03 -1.44104 0.826027 0
M  V30 1799 O 164.215 -1.5688 1.08597 0
M  V30 1800 C 161.355 -2.54964 2.32567 0
M  V30 1801 C 160.468 -2.39739 3.59373 0
M  V30 1802 C 159.603 -3.66072 3.84921 0
M  V30 1803 C 158.642 -3.45771 5.05083 0
M  V30 1804 N 157.779 -4.64169 5.26775 0
M  V30 1805 H 162.619 -0.870123 2.85014 0
M  V30 1806 H 160.156 -0.418245 1.41029 0
M  V30 1807 H 162.114 -3.32758 2.5165 0
M  V30 1808 H 160.744 -2.87433 1.46908 0
M  V30 1809 H 159.796 -1.53131 3.48217 0
M  V30 1810 H 161.108 -2.20683 4.47326 0
M  V30 1811 H 160.262 -4.52303 4.0436 0
M  V30 1812 H 159.001 -3.88105 2.9534 0
M  V30 1813 H 158.006 -2.57927 4.85545 0
M  V30 1814 H 159.231 -3.25163 5.96193 0
M  V30 1815 H 157.177 -4.86425 4.40144 0
M  V30 1816 H 157.094 -4.48019 6.08946 0
M  V30 1817 H 158.362 -5.51689 5.5069 0
M  V30 1818 N 162.591 -1.51276 -0.441967 0
M  V30 1819 C 163.821 -1.67273 -1.21257 0
M  V30 1820 C 164.229 -0.367624 -1.85594 0
M  V30 1821 O 163.572 0.663349 -1.71305 0
M  V30 1822 C 163.634 -2.72807 -2.34129 0
M  V30 1823 C 163.298 -4.1554 -1.90198 0
M  V30 1824 C 164.295 -5.00471 -1.40801 0
M  V30 1825 C 161.98 -4.61616 -1.9803 0
M  V30 1826 C 163.974 -6.29536 -0.998174 0
M  V30 1827 C 161.661 -5.90679 -1.56658 0
M  V30 1828 C 162.659 -6.74466 -1.07633 0
M  V30 1829 O 162.347 -8.01116 -0.668459 0
M  V30 1830 H 162.079 -0.564614 -0.371734 0
M  V30 1831 H 164.633 -1.9843 -0.530521 0
M  V30 1832 H 162.863 -2.36954 -3.05597 0
M  V30 1833 H 164.552 -2.77729 -2.96009 0
M  V30 1834 H 165.318 -4.66079 -1.34148 0
M  V30 1835 H 161.197 -3.96526 -2.35135 0
M  V30 1836 H 164.741 -6.94885 -0.61482 0
M  V30 1837 H 160.638 -6.24586 -1.62979 0
M  V30 1838 H 161.406 -8.14633 -0.794722 0
M  V30 1839 N 164.069 0.697108 -1.41344 0
M  V30 1840 C 165.032 1.79281 -1.42797 0
M  V30 1841 C 166.032 1.57607 -0.318837 0
M  V30 1842 O 167.222 1.64309 -0.578642 0
M  V30 1843 C 164.354 3.17632 -1.23785 0
M  V30 1844 H 165.547 1.79385 -2.40335 0
M  V30 1845 H 163.1 0.904582 -1.27464 0
M  V30 1846 H 163.835 3.23167 -0.270814 0
M  V30 1847 H 163.62 3.34765 -2.04144 0
M  V30 1848 H 165.11 3.97617 -1.27633 0
M  V30 1849 N 165.547 1.27147 0.931209 0
M  V30 1850 C 166.479 1.05364 2.03546 0
M  V30 1851 C 167.492 0.0108438 1.62796 0
M  V30 1852 O 168.681 0.25202 1.76712 0
M  V30 1853 C 165.781 0.575566 3.33977 0
M  V30 1854 C 164.954 1.68985 4.03439 0
M  V30 1855 C 164.013 1.20813 5.12143 0
M  V30 1856 O 163.039 1.90712 5.363 0
M  V30 1857 N 164.241 0.0618851 5.80467 0
M  V30 1858 H 167.006 2.00454 2.22796 0
M  V30 1859 H 164.567 1.18666 1.10136 0
M  V30 1860 H 166.559 0.237264 4.04004 0
M  V30 1861 H 165.129 -0.282016 3.11325 0
M  V30 1862 H 164.349 2.19861 3.27192 0
M  V30 1863 H 165.637 2.4378 4.46597 0
M  V30 1864 H 165.035 -0.521621 5.6329 0
M  V30 1865 H 163.592 -0.217264 6.51438 0
M  V30 1866 N 167.025 -1.13721 1.09112 0
M  V30 1867 C 167.957 -2.1871 0.685467 0
M  V30 1868 C 168.97 -1.60527 -0.271068 0
M  V30 1869 O 170.159 -1.78407 -0.0576148 0
M  V30 1870 C 167.259 -3.38898 -0.0111255 0
M  V30 1871 C 166.432 -4.26597 0.966131 0
M  V30 1872 C 165.491 -5.25324 0.303539 0
M  V30 1873 O 164.517 -5.61213 0.950177 0
M  V30 1874 N 165.719 -5.72779 -0.943651 0
M  V30 1875 H 168.484 -2.54126 1.58871 0
M  V30 1876 H 166.045 -1.29012 0.978143 0
M  V30 1877 H 168.037 -4.02014 -0.465517 0
M  V30 1878 H 166.607 -3.01747 -0.816565 0
M  V30 1879 H 165.827 -3.60306 1.59917 0
M  V30 1880 H 167.115 -4.82048 1.6281 0
M  V30 1881 H 166.513 -5.45762 -1.48862 0
M  V30 1882 H 165.07 -6.37847 -1.34142 0
M  V30 1883 N 168.503 -0.877838 -1.30888 0
M  V30 1884 C 169.749 -0.493426 -1.96706 0
M  V30 1885 C 170.082 0.953504 -1.6918 0
M  V30 1886 O 169.357 1.67266 -0.992594 0
M  V30 1887 C 169.64 -0.760429 -3.51979 0
M  V30 1888 C 169.493 -2.25747 -3.89048 0
M  V30 1889 C 170.812 -0.232148 -4.39487 0
M  V30 1890 H 167.931 -0.180746 -0.714493 0
M  V30 1891 H 170.573 -1.10052 -1.54882 0
M  V30 1892 H 168.723 -0.243715 -3.87735 0
M  V30 1893 H 170.395 -2.84204 -3.63354 0
M  V30 1894 H 168.638 -2.72694 -3.37373 0
M  V30 1895 H 169.309 -2.39491 -4.97341 0
M  V30 1896 H 171.785 -0.674314 -4.106 0
M  V30 1897 H 170.661 -0.448355 -5.47066 0
M  V30 1898 H 170.922 0.866297 -4.33529 0
M  V30 1899 N 169.982 1.44106 -0.638065 0
M  V30 1900 C 170.912 2.33448 0.0494287 0
M  V30 1901 C 171.893 1.48606 0.827672 0
M  V30 1902 O 173.078 1.77308 0.792173 0
M  V30 1903 C 170.208 3.31771 1.02691 0
M  V30 1904 C 169.162 4.26485 0.359823 0
M  V30 1905 C 168.488 5.14729 1.44769 0
M  V30 1906 C 169.788 5.17056 -0.738296 0
M  V30 1907 H 171.482 2.91183 -0.696636 0
M  V30 1908 H 169.028 1.40014 -0.336456 0
M  V30 1909 H 170.981 3.93161 1.51666 0
M  V30 1910 H 169.705 2.7226 1.80395 0
M  V30 1911 H 168.364 3.66437 -0.10934 0
M  V30 1912 H 168.012 4.51566 2.21578 0
M  V30 1913 H 167.712 5.78913 1.00668 0
M  V30 1914 H 169.236 5.78991 1.93911 0
M  V30 1915 H 170.65 5.72342 -0.331354 0
M  V30 1916 H 169.047 5.89879 -1.10286 0
M  V30 1917 H 170.117 4.57652 -1.60258 0
M  V30 1918 N 171.46 0.379036 1.52974 0
M  V30 1919 C 172.392 -0.495963 2.2377 0
M  V30 1920 C 173.405 -1.03517 1.25651 0
M  V30 1921 O 174.594 -0.939249 1.51791 0
M  V30 1922 C 171.694 -1.69894 2.93239 0
M  V30 1923 C 170.867 -1.2889 4.17979 0
M  V30 1924 C 169.926 -2.35543 4.70538 0
M  V30 1925 O 168.952 -1.97375 5.33883 0
M  V30 1926 N 170.154 -3.67318 4.49508 0
M  V30 1927 H 172.919 0.110523 2.99496 0
M  V30 1928 H 170.48 0.204878 1.60598 0
M  V30 1929 H 172.472 -2.40747 3.25304 0
M  V30 1930 H 171.042 -2.212 2.20883 0
M  V30 1931 H 170.262 -0.409676 3.92065 0
M  V30 1932 H 171.55 -0.991443 4.99047 0
M  V30 1933 H 170.948 -4.01095 3.98923 0
M  V30 1934 H 169.505 -4.34235 4.8609 0
M  V30 1935 N 172.938 -1.57226 0.108567 0
M  V30 1936 C 173.885 -2.14756 -0.845481 0
M  V30 1937 C 174.855 -1.06971 -1.27068 0
M  V30 1938 O 176.04 -1.34827 -1.35005 0
M  V30 1939 C 173.18 -2.74298 -2.09415 0
M  V30 1940 C 172.293 -3.96358 -1.71826 0
M  V30 1941 C 171.428 -4.44021 -2.9158 0
M  V30 1942 C 170.467 -5.58637 -2.50181 0
M  V30 1943 N 169.604 -6.01091 -3.62814 0
M  V30 1944 H 174.444 -2.95961 -0.348035 0
M  V30 1945 H 171.981 -1.46226 -0.160106 0
M  V30 1946 H 173.939 -3.06945 -2.82561 0
M  V30 1947 H 172.569 -1.95801 -2.56636 0
M  V30 1948 H 171.621 -3.69939 -0.885947 0
M  V30 1949 H 172.933 -4.79504 -1.37394 0
M  V30 1950 H 172.087 -4.78522 -3.72963 0
M  V30 1951 H 170.826 -3.59803 -3.29231 0
M  V30 1952 H 169.831 -5.23751 -1.67228 0
M  V30 1953 H 171.056 -6.44613 -2.13659 0
M  V30 1954 H 169.002 -5.19817 -4.00158 0
M  V30 1955 H 168.919 -6.79066 -3.32273 0
M  V30 1956 H 170.187 -6.40227 -4.44668 0
M  V30 1957 N 174.416 0.165178 -1.56732 0
M  V30 1958 C 175.326 1.22423 -2.00125 0
M  V30 1959 C 176.342 1.48084 -0.913619 0
M  V30 1960 O 177.518 1.60112 -1.22172 0
M  V30 1961 C 174.583 2.54197 -2.35764 0
M  V30 1962 C 173.644 2.36343 -3.58386 0
M  V30 1963 C 172.877 3.61834 -3.92316 0
M  V30 1964 O 173.1 4.67267 -3.27135 0
M  V30 1965 O 172.034 3.55579 -4.85641 0
M  V30 1966 H 175.86 0.885886 -2.90492 0
M  V30 1967 H 173.445 0.372518 -1.44681 0
M  V30 1968 H 175.327 3.3192 -2.59629 0
M  V30 1969 H 174.002 2.87598 -1.48557 0
M  V30 1970 H 172.909 1.56632 -3.39731 0
M  V30 1971 H 174.242 2.07865 -4.46154 0
M  V30 1972 N 175.894 1.51508 0.433938 0
M  V30 1973 C 177.134 1.66006 1.19253 0
M  V30 1974 C 177.498 0.369868 1.88404 0
M  V30 1975 O 178.699 0.39066 2.65946 0
M  V30 1976 C 176.97 2.83229 2.17981 0
M  V30 1977 S 178.529 3.18075 3.02281 0
M  V30 1978 H 175.347 0.584821 0.404358 0
M  V30 1979 H 177.949 1.89425 0.48357 0
M  V30 1980 H 176.653 3.75407 1.65824 0
M  V30 1981 H 176.184 2.6201 2.93453 0
M  V30 1982 H 178.199 2.64772 4.19655 0
M  V30 1983 N 177.372 -0.689602 1.41712 0
M  V30 1984 C 178.788 -1.00093 1.24312 0
M  V30 1985 C 178.988 -2.01036 0.136729 0
M  V30 1986 O 178.044 -2.47562 -0.496918 0
M  V30 1987 C 179.357 -1.51985 2.59463 0
M  V30 1988 C 180.905 -1.63838 2.66695 0
M  V30 1989 C 181.38 -2.1913 4.02177 0
M  V30 1990 N 182.871 -2.26483 4.04054 0
M  V30 1991 C 183.606 -2.70306 5.0569 0
M  V30 1992 N 183.102 -3.13691 6.17713 0
M  V30 1993 N 184.895 -2.69923 4.9305 0
M  V30 1994 H 177.046 -0.0210029 2.1239 0
M  V30 1995 H 179.309 -0.0718733 0.945272 0
M  V30 1996 H 179.015 -0.85269 3.41207 0
M  V30 1997 H 178.889 -2.50103 2.82362 0
M  V30 1998 H 181.276 -2.29664 1.85306 0
M  V30 1999 H 181.357 -0.642492 2.476 0
M  V30 2000 H 181.001 -1.53918 4.84016 0
M  V30 2001 H 180.931 -3.19482 4.18615 0
M  V30 2002 H 183.422 -1.95874 3.23174 0
M  V30 2003 H 183.735 -3.45773 6.9113 0
M  V30 2004 H 182.08 -3.11585 6.21241 0
M  V30 2005 H 185.271 -2.35382 4.04614 0
M  V30 2006 H 185.444 -3.03758 5.72394 0
M  V30 2007 N 178.85 -1.27639 -0.924453 0
M  V30 2008 C 180.261 -1.12834 -1.48746 0
M  V30 2009 C 180.612 0.285505 -1.94112 0
M  V30 2010 O 179.737 1.17874 -1.81479 0
M  V30 2011 C 180.332 -2.04217 -2.70334 0
M  V30 2012 C 178.891 -1.93509 -3.22848 0
M  V30 2013 C 178.038 -1.96583 -1.95577 0
M  V30 2014 H 180.989 -1.40484 -0.738233 0
M  V30 2015 H 181.01 -1.59989 -3.4523 0
M  V30 2016 H 180.522 -3.07111 -2.37285 0
M  V30 2017 H 178.623 -0.936131 -3.60649 0
M  V30 2018 H 178.736 -2.79917 -3.88823 0
M  V30 2019 H 177.1 -1.4085 -2.12211 0
M  V30 2020 H 177.883 -3.01137 -1.64837 0
M  V30 2021 N 180.328 1.1314 -1.09713 0
M  V30 2022 C 181.275 2.18642 -0.739196 0
M  V30 2023 C 182.245 1.63706 0.280978 0
M  V30 2024 O 183.43 1.90111 0.161946 0
M  V30 2025 C 180.57 3.44685 -0.169102 0
M  V30 2026 C 179.683 4.13711 -1.24367 0
M  V30 2027 C 178.818 5.27379 -0.636019 0
M  V30 2028 C 177.857 5.88259 -1.69169 0
M  V30 2029 N 176.994 6.93352 -1.10485 0
M  V30 2030 H 181.834 2.48607 -1.64312 0
M  V30 2031 H 179.371 1.22066 -0.820875 0
M  V30 2032 H 181.329 4.16815 0.179256 0
M  V30 2033 H 179.959 3.15161 0.698079 0
M  V30 2034 H 179.011 3.39835 -1.70927 0
M  V30 2035 H 180.323 4.55037 -2.04311 0
M  V30 2036 H 179.477 6.06238 -0.236677 0
M  V30 2037 H 178.216 4.8731 0.194928 0
M  V30 2038 H 177.221 5.08092 -2.10055 0
M  V30 2039 H 178.446 6.30399 -2.52536 0
M  V30 2040 H 176.392 6.55335 -0.295234 0
M  V30 2041 H 176.309 7.33236 -1.84121 0
M  V30 2042 H 177.577 7.76057 -0.73181 0
M  V30 2043 N 181.806 0.884767 1.30421 0
M  V30 2044 C 183.053 0.503105 1.96151 0
M  V30 2045 C 183.381 -0.947676 1.69851 0
M  V30 2046 O 182.636 -1.68467 0.995861 0
M  V30 2047 C 182.935 0.724318 3.49983 0
M  V30 2048 C 182.601 2.15015 3.96332 0
M  V30 2049 C 181.263 2.54005 4.08699 0
M  V30 2050 C 183.615 3.07936 4.20505 0
M  V30 2051 C 180.943 3.85128 4.42599 0
M  V30 2052 C 183.295 4.3859 4.55874 0
M  V30 2053 C 181.959 4.77474 4.66449 0
M  V30 2054 H 181.229 0.184099 0.717766 0
M  V30 2055 H 183.876 1.12058 1.55291 0
M  V30 2056 H 182.181 0.0238086 3.91793 0
M  V30 2057 H 183.878 0.408617 3.98913 0
M  V30 2058 H 180.468 1.8375 3.87213 0
M  V30 2059 H 184.652 2.79033 4.10431 0
M  V30 2060 H 179.908 4.14996 4.48986 0
M  V30 2061 H 184.082 5.10629 4.7353 0
M  V30 2062 H 181.709 5.79115 4.92473 0
M  V30 2063 N 183.284 -1.43765 0.645699 0
M  V30 2064 C 184.247 -2.29163 -0.0409488 0
M  V30 2065 C 185.247 -1.41813 -0.757996 0
M  V30 2066 O 186.437 -1.63527 -0.600382 0
M  V30 2067 C 183.569 -3.23716 -1.06869 0
M  V30 2068 H 184.762 -2.91366 0.710345 0
M  V30 2069 H 182.315 -1.5092 0.406547 0
M  V30 2070 H 183.05 -2.66393 -1.84947 0
M  V30 2071 H 182.835 -3.88105 -0.558277 0
M  V30 2072 H 184.325 -3.87831 -1.54845 0
M  V30 2073 N 184.763 -0.387143 -1.52771 0
M  V30 2074 C 185.71 0.449048 -2.26389 0
M  V30 2075 C 186.68 1.05961 -1.27912 0
M  V30 2076 O 187.865 1.08804 -1.56737 0
M  V30 2077 C 185.005 1.57155 -3.0724 0
M  V30 2078 C 184.118 0.984066 -4.20643 0
M  V30 2079 C 183.253 2.07745 -4.88892 0
M  V30 2080 C 182.292 1.46574 -5.94292 0
M  V30 2081 N 181.429 2.49834 -6.56146 0
M  V30 2082 H 186.269 -0.185205 -2.97424 0
M  V30 2083 H 183.806 -0.103164 -1.46738 0
M  V30 2084 H 185.764 2.23309 -3.52405 0
M  V30 2085 H 184.394 2.17615 -2.38419 0
M  V30 2086 H 183.446 0.212193 -3.79808 0
M  V30 2087 H 184.758 0.497029 -4.96318 0
M  V30 2088 H 183.912 2.81673 -5.3735 0
M  V30 2089 H 182.651 2.59807 -4.12737 0
M  V30 2090 H 181.656 0.711696 -5.45174 0
M  V30 2091 H 182.881 0.953088 -6.72379 0
M  V30 2092 H 180.827 3.0107 -5.82832 0
M  V30 2093 H 180.744 2.05879 -7.27427 0
M  V30 2094 H 182.012 3.23399 -7.09249 0
M  V30 2095 N 186.241 1.57166 -0.116904 0
M  V30 2096 C 187.469 1.99473 0.549383 0
M  V30 2097 C 187.884 0.996541 1.60357 0
M  V30 2098 O 187.241 -0.0108731 1.82497 0
M  V30 2099 C 187.292 3.41788 1.17741 0
M  V30 2100 O 187.013 4.37788 0.165362 0
M  V30 2101 C 188.514 3.99216 1.92722 0
M  V30 2102 H 185.734 0.655009 0.145616 0
M  V30 2103 H 188.278 2.03494 -0.202625 0
M  V30 2104 H 186.433 3.38713 1.88021 0
M  V30 2105 H 186.847 5.20806 0.621403 0
M  V30 2106 H 188.321 5.00882 2.31995 0
M  V30 2107 H 188.798 3.3824 2.80161 0
M  V30 2108 H 189.404 4.0583 1.27209 0
M  V30 2109 N 187.719 -0.156864 1.56817 0
M  V30 2110 C 188.944 -0.890331 1.87318 0
M  V30 2111 C 189.369 -1.74394 0.704855 0
M  V30 2112 O 188.727 -1.77972 -0.345786 0
M  V30 2113 C 188.775 -1.73102 3.16336 0
M  V30 2114 O 187.879 -2.83422 2.99576 0
M  V30 2115 H 187.22 -0.24857 0.615718 0
M  V30 2116 H 189.75 -0.150649 2.04045 0
M  V30 2117 H 189.76 -2.12803 3.48107 0
M  V30 2118 H 188.435 -1.10412 4.00976 0
M  V30 2119 H 187.012 -2.47199 2.7919 0
M  V30 2120 N 189.197 -1.51736 -0.425897 0
M  V30 2121 C 190.13 -1.68574 -1.53812 0
M  V30 2122 C 191.108 -0.53328 -1.53606 0
M  V30 2123 O 192.292 -0.758555 -1.72564 0
M  V30 2124 C 189.419 -1.70977 -2.92377 0
M  V30 2125 C 188.465 -2.92324 -3.10563 0
M  V30 2126 S 189.298 -4.52952 -2.85648 0
M  V30 2127 C 190.454 -4.58117 -4.26474 0
M  V30 2128 H 190.687 -2.62647 -1.39298 0
M  V30 2129 H 188.22 -1.41564 -0.616361 0
M  V30 2130 H 190.178 -1.73047 -3.72243 0
M  V30 2131 H 188.839 -0.78061 -3.04245 0
M  V30 2132 H 188.032 -2.90439 -4.11899 0
M  V30 2133 H 187.634 -2.88055 -2.38538 0
M  V30 2134 H 189.926 -4.34462 -5.19855 0
M  V30 2135 H 190.869 -5.59983 -4.33388 0
M  V30 2136 H 191.277 -3.8732 -4.10662 0
M  V30 2137 N 190.675 0.682077 -1.42076 0
M  V30 2138 C 191.638 1.77756 -1.44691 0
M  V30 2139 C 192.638 1.5726 -0.335535 0
M  V30 2140 O 193.828 1.63686 -0.596037 0
M  V30 2141 C 190.96 3.16301 -1.27146 0
M  V30 2142 H 192.153 1.76826 -2.42224 0
M  V30 2143 H 189.706 0.891012 -1.28416 0
M  V30 2144 H 190.441 3.22862 -0.305075 0
M  V30 2145 H 190.226 3.32581 -2.07683 0
M  V30 2146 H 191.716 3.96241 -1.31843 0
M  V30 2147 N 192.153 1.28127 0.917671 0
M  V30 2148 C 193.083 1.14248 2.03641 0
M  V30 2149 C 194.064 0.0412748 1.7005 0
M  V30 2150 O 195.249 0.217566 1.92977 0
M  V30 2151 C 192.379 0.799431 3.37974 0
M  V30 2152 C 191.333 1.85497 3.85713 0
M  V30 2153 C 190.659 1.36565 5.16966 0
M  V30 2154 C 191.959 3.26085 4.08002 0
M  V30 2155 H 193.653 2.07835 2.15511 0
M  V30 2156 H 191.199 1.00064 1.03553 0
M  V30 2157 H 193.152 0.689114 4.15727 0
M  V30 2158 H 191.876 -0.172145 3.26146 0
M  V30 2159 H 190.535 1.95437 3.10161 0
M  V30 2160 H 190.183 0.383253 5.01538 0
M  V30 2161 H 189.883 2.07143 5.49878 0
M  V30 2162 H 191.407 1.26848 5.97279 0
M  V30 2163 H 192.821 3.19089 4.76293 0
M  V30 2164 H 191.218 3.94462 4.52238 0
M  V30 2165 H 192.288 3.70394 3.12948 0
M  V30 2166 N 193.631 -1.12557 1.10312 0
M  V30 2167 C 194.561 -2.20341 0.772798 0
M  V30 2168 C 195.542 -1.68198 -0.25365 0
M  V30 2169 O 196.727 -1.93831 -0.119699 0
M  V30 2170 C 193.857 -3.46709 0.202443 0
M  V30 2171 C 192.811 -4.11996 1.15943 0
M  V30 2172 C 192.137 -5.328 0.450345 0
M  V30 2173 C 193.437 -4.5828 2.50552 0
M  V30 2174 H 195.131 -2.48229 1.674 0
M  V30 2175 H 192.677 -1.19308 0.806326 0
M  V30 2176 H 194.63 -4.2138 -0.0407752 0
M  V30 2177 H 193.354 -3.18245 -0.734001 0
M  V30 2178 H 192.013 -3.39305 1.38808 0
M  V30 2179 H 191.661 -5.00602 -0.490531 0
M  V30 2180 H 191.361 -5.7743 1.08851 0
M  V30 2181 H 192.885 -6.10219 0.215642 0
M  V30 2182 H 194.299 -5.2433 2.31843 0
M  V30 2183 H 192.696 -5.13683 3.10242 0
M  V30 2184 H 193.766 -3.72329 3.10643 0
M  V30 2185 N 195.109 -0.891671 -1.2995 0
M  V30 2186 C 196.356 -0.513501 -1.95881 0
M  V30 2187 C 196.684 0.938655 -1.70351 0
M  V30 2188 O 195.939 1.67936 -1.00478 0
M  V30 2189 C 196.238 -0.742868 -3.49594 0
M  V30 2190 C 195.904 -2.17114 -3.95186 0
M  V30 2191 C 194.566 -2.56169 -4.07346 0
M  V30 2192 C 196.918 -3.10162 -4.18866 0
M  V30 2193 C 194.246 -3.87469 -4.4055 0
M  V30 2194 C 196.598 -4.41001 -4.53542 0
M  V30 2195 C 195.262 -4.79941 -4.63911 0
M  V30 2196 H 194.532 -0.187903 -0.71678 0
M  V30 2197 H 197.179 -1.1288 -1.54694 0
M  V30 2198 H 195.484 -0.044586 -3.91775 0
M  V30 2199 H 197.181 -0.429767 -3.9869 0
M  V30 2200 H 193.771 -1.85801 -3.86233 0
M  V30 2201 H 197.955 -2.81206 -4.08946 0
M  V30 2202 H 193.211 -4.17371 -4.46779 0
M  V30 2203 H 197.385 -5.13133 -4.70815 0
M  V30 2204 H 195.012 -5.81719 -4.89395 0
M  V30 2205 N 196.587 1.43421 -0.653314 0
M  V30 2206 C 197.497 2.34568 0.0388565 0
M  V30 2207 C 198.513 1.53888 0.81207 0
M  V30 2208 O 199.689 1.86539 0.759294 0
M  V30 2209 C 196.754 3.32167 0.993269 0
M  V30 2210 C 195.815 4.28751 0.216977 0
M  V30 2211 C 195.048 5.21688 1.12593 0
M  V30 2212 O 195.271 5.19052 2.36519 0
M  V30 2213 O 194.205 5.98919 0.598284 0
M  V30 2214 H 198.031 2.95251 -0.711386 0
M  V30 2215 H 195.616 1.43564 -0.413502 0
M  V30 2216 H 197.498 3.92183 1.54176 0
M  V30 2217 H 196.173 2.73987 1.72374 0
M  V30 2218 H 195.08 3.72215 -0.375101 0
M  V30 2219 H 196.413 4.89913 -0.473924 0
M  V30 2220 N 198.065 0.39524 1.52563 0
M  V30 2221 C 199.015 -0.4541 2.23432 0
M  V30 2222 C 199.999 -1.02482 1.24042 0
M  V30 2223 O 201.191 -0.949938 1.49349 0
M  V30 2224 C 198.32 -1.57769 3.049 0
M  V30 2225 C 197.406 -1.01842 4.1169 0
M  V30 2226 N 197.797 -0.184613 5.05463 0
M  V30 2227 C 196.095 -1.29033 4.26927 0
M  V30 2228 C 196.796 0.125013 5.81566 0
M  V30 2229 N 195.772 -0.480498 5.41472 0
M  V30 2230 H 199.574 0.189413 2.93289 0
M  V30 2231 H 197.088 0.204877 1.61102 0
M  V30 2232 H 199.085 -2.19862 3.54212 0
M  V30 2233 H 197.745 -2.22397 2.36579 0
M  V30 2234 H 198.756 0.178602 5.17592 0
M  V30 2235 H 195.433 -1.93721 3.69836 0
M  V30 2236 H 196.823 0.800962 6.67109 0
M  V30 2237 N 199.544 -1.57102 0.125237 0
M  V30 2238 C 200.96 -1.57915 -0.231322 0
M  V30 2239 C 201.16 -1.13833 -1.66266 0
M  V30 2240 O 200.216 -0.828581 -2.38518 0
M  V30 2241 C 201.529 -3.00699 0.00766489 0
M  V30 2242 C 203.077 -3.12947 -0.0577483 0
M  V30 2243 C 203.552 -4.57742 0.153626 0
M  V30 2244 N 205.043 -4.63092 0.0998073 0
M  V30 2245 C 205.778 -5.72905 0.238174 0
M  V30 2246 N 205.274 -6.91445 0.433057 0
M  V30 2247 N 207.067 -5.6182 0.177308 0
M  V30 2248 H 199.218 -1.84055 1.06007 0
M  V30 2249 H 201.481 -0.850905 0.417929 0
M  V30 2250 H 201.187 -3.3726 0.997431 0
M  V30 2251 H 201.061 -3.70236 -0.721452 0
M  V30 2252 H 203.448 -2.7624 -1.03804 0
M  V30 2253 H 203.529 -2.4594 0.70335 0
M  V30 2254 H 203.173 -4.95149 1.13092 0
M  V30 2255 H 203.103 -5.22848 -0.627534 0
M  V30 2256 H 205.594 -3.77871 -0.047051 0
M  V30 2257 H 205.907 -7.70985 0.529332 0
M  V30 2258 H 204.252 -6.93415 0.469109 0
M  V30 2259 H 207.443 -4.68093 0.0259748 0
M  V30 2260 H 207.616 -6.47357 0.288582 0
M  V30 2261 N 201.022 0.148545 -1.56898 0
M  V30 2262 C 202.252 0.875118 -1.8715 0
M  V30 2263 C 202.66 1.75322 -0.711262 0
M  V30 2264 O 202.003 1.80745 0.328151 0
M  V30 2265 C 202.065 1.7844 -3.12089 0
M  V30 2266 C 201.729 1.08361 -4.43967 0
M  V30 2267 C 202.726 0.438247 -5.1805 0
M  V30 2268 C 200.411 1.07358 -4.90693 0
M  V30 2269 C 202.405 -0.20779 -6.37061 0
M  V30 2270 C 200.092 0.42373 -6.09629 0
M  V30 2271 C 201.09 -0.215829 -6.82659 0
M  V30 2272 O 200.778 -0.855378 -7.99336 0
M  V30 2273 H 200.51 0.258504 -0.624621 0
M  V30 2274 H 203.064 0.14652 -2.04877 0
M  V30 2275 H 201.294 2.55389 -2.90367 0
M  V30 2276 H 202.983 2.38279 -3.286 0
M  V30 2277 H 203.749 0.437817 -4.8302 0
M  V30 2278 H 199.628 1.5608 -4.33774 0
M  V30 2279 H 203.172 -0.70758 -6.94002 0
M  V30 2280 H 199.069 0.421822 -6.4412 0
M  V30 2281 H 199.837 -0.756892 -8.14993 0
M  V30 2282 N 202.5 1.5196 0.417844 0
M  V30 2283 C 203.725 1.69717 1.1921 0
M  V30 2284 C 204.15 0.402148 1.83751 0
M  V30 2285 O 203.508 -0.639593 1.69643 0
M  V30 2286 C 203.556 2.82794 2.2374 0
M  V30 2287 O 202.66 2.47756 3.29683 0
M  V30 2288 H 202.001 0.565263 0.348387 0
M  V30 2289 H 204.531 1.98621 0.490985 0
M  V30 2290 H 204.541 3.07452 2.68212 0
M  V30 2291 H 203.216 3.76756 1.76146 0
M  V30 2292 H 201.793 2.33739 2.90552 0
M  V30 2293 N 203.978 -0.674533 1.42435 0
M  V30 2294 C 205.224 -1.43671 1.43131 0
M  V30 2295 C 205.557 -1.94142 0.0476021 0
M  V30 2296 O 204.832 -1.70924 -0.928188 0
M  V30 2297 C 205.115 -2.63355 2.45594 0
M  V30 2298 C 204.968 -2.18514 3.93156 0
M  V30 2299 C 206.287 -3.65571 2.45043 0
M  V30 2300 H 203.406 -0.521077 0.521198 0
M  V30 2301 H 206.048 -0.766551 1.7385 0
M  V30 2302 H 204.198 -3.2053 2.19528 0
M  V30 2303 H 205.87 -1.66504 4.30202 0
M  V30 2304 H 204.113 -1.50086 4.07009 0
M  V30 2305 H 204.784 -3.04484 4.60428 0
M  V30 2306 H 207.26 -3.18113 2.68223 0
M  V30 2307 H 206.136 -4.46893 3.18713 0
M  V30 2308 H 206.397 -4.16716 1.47649 0
M  V30 2309 N 205.456 -1.28612 -0.910864 0
M  V30 2310 C 206.733 -1.06632 -1.63979 0
M  V30 2311 C 207.113 0.393351 -2.07403 0
M  V30 2312 O 206.461 1.37999 -1.82122 0
M  V30 2313 C 206.671 -2.0436 -2.8291 0
M  V30 2314 C 208.019 -2.34666 -3.5386 0
M  V30 2315 O 209.043 -2.02467 -2.93062 0
M  V30 2316 O 207.902 -2.89631 -4.63439 0
M  V30 2317 H 204.996 -0.407737 -0.7195 0
M  V30 2318 H 207.542 -1.39942 -0.959914 0
M  V30 2319 H 206.314 -3.02727 -2.47936 0
M  V30 2320 H 205.937 -1.71714 -3.58609 0
M  V30 2321 N 206.934 1.1197 -1.10907 0
M  V30 2322 C 207.864 2.19928 -0.784473 0
M  V30 2323 C 208.845 1.6833 0.244726 0
M  V30 2324 O 210.03 1.93892 0.109418 0
M  V30 2325 C 207.16 3.46597 -0.220827 0
M  V30 2326 C 206.114 4.11376 -1.18127 0
M  V30 2327 C 205.44 5.32554 -0.478594 0
M  V30 2328 C 206.74 4.56945 -2.52979 0
M  V30 2329 H 208.434 2.47337 -1.68715 0
M  V30 2330 H 205.98 1.18879 -0.812642 0
M  V30 2331 H 207.933 4.21396 0.0184278 0
M  V30 2332 H 206.657 3.1863 0.717113 0
M  V30 2333 H 205.316 3.38564 -1.40606 0
M  V30 2334 H 204.964 5.00856 0.463976 0
M  V30 2335 H 204.664 5.76844 -1.11912 0
M  V30 2336 H 206.188 6.10096 -0.248 0
M  V30 2337 H 207.602 5.23093 -2.3462 0
M  V30 2338 H 205.999 5.1203 -3.12962 0
M  V30 2339 H 207.069 3.70676 -3.12614 0
M  V30 2340 N 208.412 0.89855 1.29475 0
M  V30 2341 C 209.342 0.39201 2.30186 0
M  V30 2342 C 210.323 -0.532359 1.61555 0
M  V30 2343 O 211.508 -0.443331 1.89072 0
M  V30 2344 C 208.638 -0.382353 3.45189 0
M  V30 2345 C 207.592 0.451483 4.25612 0
M  V30 2346 C 206.918 -0.450307 5.328 0
M  V30 2347 C 208.218 1.70079 4.93832 0
M  V30 2348 H 209.912 1.23362 2.72804 0
M  V30 2349 H 207.458 0.594638 1.31149 0
M  V30 2350 H 209.411 -0.747451 4.14718 0
M  V30 2351 H 208.135 -1.25774 3.01411 0
M  V30 2352 H 206.794 0.798897 3.57789 0
M  V30 2353 H 206.442 -1.32379 4.85268 0
M  V30 2354 H 206.142 0.103902 5.87508 0
M  V30 2355 H 207.666 -0.811623 6.05182 0
M  V30 2356 H 209.08 1.40549 5.55805 0
M  V30 2357 H 207.477 2.19623 5.58467 0
M  V30 2358 H 208.547 2.43744 4.19186 0
M  V30 2359 N 209.89 -1.43072 0.660911 0
M  V30 2360 C 211.301 -1.84932 0.256348 0
M  V30 2361 C 211.652 -1.55325 -1.19868 0
M  V30 2362 O 210.777 -1.00607 -1.91591 0
M  V30 2363 C 211.372 -3.35684 0.458475 0
M  V30 2364 C 209.931 -3.76245 0.108161 0
M  V30 2365 C 209.078 -2.66749 0.757641 0
M  V30 2366 H 212.029 -1.33116 0.864051 0
M  V30 2367 H 212.05 -3.79365 -0.293683 0
M  V30 2368 H 211.562 -3.572 1.51755 0
M  V30 2369 H 209.663 -3.60338 -0.948014 0
M  V30 2370 H 209.776 -4.76058 0.538992 0
M  V30 2371 H 208.14 -2.53989 0.190185 0
M  V30 2372 H 208.923 -2.91092 1.81989 0
M  V30 2373 N 211.368 -0.403325 -1.52352 0
M  V30 2374 C 212.615 0.174347 -2.01748 0
M  V30 2375 C 212.943 1.45636 -1.2892 0
M  V30 2376 O 212.198 1.9193 -0.382258 0
M  V30 2377 C 212.497 0.474665 -3.54234 0
M  V30 2378 C 212.163 -0.717458 -4.45155 0
M  V30 2379 C 210.825 -1.04447 -4.69728 0
M  V30 2380 C 213.177 -1.51432 -4.98716 0
M  V30 2381 C 210.505 -2.16963 -5.45109 0
M  V30 2382 C 212.857 -2.6302 -5.75329 0
M  V30 2383 C 211.521 -2.96213 -5.98175 0
M  V30 2384 H 210.791 0.0637981 -0.738248 0
M  V30 2385 H 213.438 -0.543553 -1.83624 0
M  V30 2386 H 211.743 1.27406 -3.70506 0
M  V30 2387 H 213.44 0.934496 -3.89959 0
M  V30 2388 H 210.03 -0.452596 -4.26204 0
M  V30 2389 H 214.214 -1.27491 -4.79645 0
M  V30 2390 H 209.47 -2.43034 -5.61021 0
M  V30 2391 H 213.644 -3.25158 -6.15829 0
M  V30 2392 H 211.271 -3.83516 -6.56368 0
M  V30 2393 N 212.846 1.57033 -0.133567 0
M  V30 2394 C 214.092 1.95976 0.521649 0
M  V30 2395 C 214.425 1.01779 1.65393 0
M  V30 2396 O 213.7 0.0576581 1.94415 0
M  V30 2397 C 213.983 3.44738 1.04057 0
M  V30 2398 C 213.836 4.49711 -0.0892897 0
M  V30 2399 C 215.155 3.95682 1.92675 0
M  V30 2400 H 212.274 0.712579 0.188149 0
M  V30 2401 H 214.916 1.88813 -0.212076 0
M  V30 2402 H 213.066 3.50973 1.66583 0
M  V30 2403 H 214.738 4.55565 -0.725152 0
M  V30 2404 H 212.981 4.27261 -0.750378 0
M  V30 2405 H 213.652 5.51099 0.315284 0
M  V30 2406 H 216.128 3.91841 1.39998 0
M  V30 2407 H 215.004 5.00262 2.25897 0
M  V30 2408 H 215.265 3.37239 2.85872 0
M  V30 2409 N 214.325 -0.140222 1.56975 0
M  V30 2410 C 215.257 -1.19818 1.95388 0
M  V30 2411 C 216.27 -1.38816 0.850525 0
M  V30 2412 O 217.459 -1.38267 1.12891 0
M  V30 2413 C 214.559 -2.56189 2.21857 0
M  V30 2414 C 213.732 -2.58077 3.5315 0
M  V30 2415 C 212.791 -3.76037 3.6808 0
M  V30 2416 O 211.817 -3.60598 4.40406 0
M  V30 2417 N 213.019 -4.93763 3.05251 0
M  V30 2418 H 215.784 -0.871609 2.86746 0
M  V30 2419 H 213.345 -0.32972 1.58507 0
M  V30 2420 H 215.337 -3.33623 2.2908 0
M  V30 2421 H 213.907 -2.81111 1.36731 0
M  V30 2422 H 213.127 -1.6651 3.57307 0
M  V30 2423 H 214.415 -2.56377 4.39486 0
M  V30 2424 H 213.813 -5.09209 2.46419 0
M  V30 2425 H 212.37 -5.68949 3.18026 0
M  V30 2426 N 215.803 -1.52179 -0.40978 0
M  V30 2427 C 216.75 -1.75475 -1.49924 0
M  V30 2428 C 217.72 -0.597175 -1.54994 0
M  V30 2429 O 218.905 -0.834655 -1.71575 0
M  V30 2430 C 216.045 -1.9107 -2.87378 0
M  V30 2431 C 215.158 -3.18717 -2.91622 0
M  V30 2432 C 214.293 -3.24747 -4.20372 0
M  V30 2433 C 213.332 -4.46598 -4.18588 0
M  V30 2434 N 212.469 -4.50025 -5.38908 0
M  V30 2435 H 217.309 -2.68458 -1.29361 0
M  V30 2436 H 214.846 -1.33024 -0.627934 0
M  V30 2437 H 216.804 -1.98096 -3.6717 0
M  V30 2438 H 215.434 -1.01469 -3.06437 0
M  V30 2439 H 214.486 -3.20866 -2.04326 0
M  V30 2440 H 215.798 -4.08544 -2.86169 0
M  V30 2441 H 214.952 -3.30841 -5.08556 0
M  V30 2442 H 213.691 -2.32857 -4.28519 0
M  V30 2443 H 212.696 -4.40652 -3.28794 0
M  V30 2444 H 213.921 -5.39783 -4.12081 0
M  V30 2445 H 211.867 -3.61017 -5.47725 0
M  V30 2446 H 211.784 -5.33697 -5.35447 0
M  V30 2447 H 213.052 -4.60347 -6.29048 0
M  V30 2448 N 217.281 0.66697 -1.42791 0
M  V30 2449 C 218.244 1.76211 -1.46568 0
M  V30 2450 C 219.244 1.56896 -0.352196 0
M  V30 2451 O 220.434 1.63044 -0.613364 0
M  V30 2452 C 217.566 3.14935 -1.30494 0
M  V30 2453 H 218.759 1.74247 -2.44086 0
M  V30 2454 H 216.312 0.877342 -1.29354 0
M  V30 2455 H 217.047 3.2252 -0.339301 0
M  V30 2456 H 216.832 3.30359 -2.11199 0
M  V30 2457 H 218.322 3.94821 -1.36038 0
M  V30 2458 N 218.759 1.29093 0.90403 0
M  V30 2459 C 220.17 1.15186 1.46932 0
M  V30 2460 C 220.521 -0.254587 1.94541 0
M  V30 2461 O 219.646 -1.14972 1.83332 0
M  V30 2462 C 220.241 2.08492 2.67051 0
M  V30 2463 C 218.8 1.98621 3.19729 0
M  V30 2464 C 217.947 1.9967 1.92425 0
M  V30 2465 H 220.898 1.41641 0.715789 0
M  V30 2466 H 220.919 1.65461 3.42641 0
M  V30 2467 H 220.431 3.10847 2.3237 0
M  V30 2468 H 218.532 0.993389 3.59114 0
M  V30 2469 H 218.645 2.86068 3.8432 0
M  V30 2470 H 217.009 1.44208 2.09943 0
M  V30 2471 H 217.792 3.03721 1.60026 0
M  V30 2472 N 220.237 -1.11381 1.11499 0
M  V30 2473 C 221.184 -2.17439 0.773887 0
M  V30 2474 C 222.154 -1.64132 -0.254899 0
M  V30 2475 O 223.339 -1.90345 -0.13168 0
M  V30 2476 C 220.479 -3.44373 0.223917 0
M  V30 2477 C 219.592 -4.1168 1.30934 0
M  V30 2478 C 218.727 -5.263 0.71984 0
M  V30 2479 C 217.766 -5.85493 1.78507 0
M  V30 2480 N 216.903 -6.91507 1.21502 0
M  V30 2481 H 221.743 -2.45962 1.68246 0
M  V30 2482 H 219.28 -1.20744 0.840191 0
M  V30 2483 H 221.238 -4.17047 -0.112921 0
M  V30 2484 H 219.868 -3.16232 -0.647851 0
M  V30 2485 H 218.92 -3.37073 1.76312 0
M  V30 2486 H 220.232 -4.51729 2.11524 0
M  V30 2487 H 219.386 -6.05785 0.333094 0
M  V30 2488 H 218.125 -4.87559 -0.117377 0
M  V30 2489 H 217.13 -5.04686 2.18111 0
M  V30 2490 H 218.355 -6.26301 2.62533 0
M  V30 2491 H 216.301 -6.54783 0.399455 0
M  V30 2492 H 216.218 -7.30214 1.95763 0
M  V30 2493 H 217.486 -7.74795 0.855181 0
M  V30 2494 N 221.715 -0.905404 -1.28997 0
M  V30 2495 C 222.992 -0.453513 -1.9027 0
M  V30 2496 C 223.372 1.06721 -1.82137 0
M  V30 2497 O 222.72 1.91159 -1.25182 0
M  V30 2498 C 222.93 -0.974494 -3.35119 0
M  V30 2499 C 224.278 -1.0216 -4.12127 0
M  V30 2500 O 225.302 -0.922557 -3.44046 0
M  V30 2501 O 224.161 -1.17121 -5.33802 0
M  V30 2502 H 221.255 -0.142347 -0.814657 0
M  V30 2503 H 223.801 -0.995642 -1.37423 0
M  V30 2504 H 222.573 -2.01848 -3.35221 0
M  V30 2505 H 222.196 -0.412706 -3.95452 0
M  V30 2506 N 223.193 1.4272 -0.668489 0
M  V30 2507 C 224.418 2.06484 -0.194758 0
M  V30 2508 C 224.843 1.49862 1.13679 0
M  V30 2509 O 224.201 0.614582 1.70565 0
M  V30 2510 C 224.249 3.60353 -0.133546 0
M  V30 2511 O 223.353 4.02464 0.899806 0
M  V30 2512 H 222.694 0.656137 -0.10188 0
M  V30 2513 H 225.224 1.82964 -0.915722 0
M  V30 2514 H 225.234 4.07976 0.0447041 0
M  V30 2515 H 223.909 4.00938 -1.1055 0
M  V30 2516 H 222.486 3.66402 0.693109 0
M  V30 2517 N 224.671 0.411399 1.52136 0
M  V30 2518 C 225.581 -0.419774 2.30814 0
M  V30 2519 C 226.597 -1.0515 1.38634 0
M  V30 2520 O 227.773 -1.05252 1.71709 0
M  V30 2521 C 224.838 -1.52019 3.11594 0
M  V30 2522 C 223.899 -0.91129 4.19516 0
M  V30 2523 C 223.132 -1.95927 4.96436 0
M  V30 2524 O 223.355 -3.17775 4.73683 0
M  V30 2525 O 222.289 -1.56423 5.81219 0
M  V30 2526 H 226.115 0.221805 3.02889 0
M  V30 2527 H 223.7 0.174547 1.48377 0
M  V30 2528 H 225.582 -2.15898 3.61892 0
M  V30 2529 H 224.257 -2.14633 2.42311 0
M  V30 2530 H 223.164 -0.235157 3.7336 0
M  V30 2531 H 224.497 -0.32904 4.91099 0
M  V30 2532 N 226.149 -1.5696 0.141893 0
M  V30 2533 C 227.112 -2.15316 -0.785587 0
M  V30 2534 C 228.112 -1.09366 -1.1788 0
M  V30 2535 O 229.302 -1.35031 -1.10056 0
M  V30 2536 C 226.434 -2.71211 -2.06537 0
M  V30 2537 H 227.627 -2.98608 -0.278041 0
M  V30 2538 H 225.18 -1.5593 -0.107519 0
M  V30 2539 H 225.915 -1.91571 -2.6167 0
M  V30 2540 H 225.7 -3.4872 -1.79268 0
M  V30 2541 H 227.19 -3.16189 -2.72789 0
M  V30 2542 N 227.627 0.131896 -1.57047 0
M  V30 2543 C 228.537 1.1815 -2.02676 0
M  V30 2544 C 229.553 1.46113 -0.944824 0
M  V30 2545 O 230.729 1.57485 -1.25541 0
M  V30 2546 C 227.794 2.49139 -2.41103 0
M  V30 2547 C 226.855 2.28688 -3.63318 0
M  V30 2548 C 226.088 3.53431 -3.99903 0
M  V30 2549 O 226.311 4.60223 -3.36973 0
M  V30 2550 O 225.245 3.45198 -4.93074 0
M  V30 2551 H 229.071 0.824069 -2.92306 0
M  V30 2552 H 226.656 0.341745 -1.45439 0
M  V30 2553 H 228.538 3.26338 -2.66611 0
M  V30 2554 H 227.213 2.84382 -1.54624 0
M  V30 2555 H 226.12 1.4939 -3.42977 0
M  V30 2556 H 227.453 1.98355 -4.50462 0
M  V30 2557 N 229.106 1.52395 0.401703 0
M  V30 2558 C 230.331 1.70972 1.17403 0
M  V30 2559 C 230.756 0.421615 1.83314 0
M  V30 2560 O 230.114 -0.621564 1.70312 0
M  V30 2561 C 230.162 2.85151 2.20728 0
M  V30 2562 O 229.266 2.51238 3.27037 0
M  V30 2563 H 228.607 0.568927 0.342372 0
M  V30 2564 H 231.137 1.99131 0.469891 0
M  V30 2565 H 231.147 3.10279 2.64936 0
M  V30 2566 H 229.822 3.78603 1.7214 0
M  V30 2567 H 228.399 2.36808 2.88057 0
M  V30 2568 N 230.584 -0.659388 1.43143 0
M  V30 2569 C 231.531 -1.77249 1.47822 0
M  V30 2570 C 232.501 -1.62818 0.328558 0
M  V30 2571 O 233.686 -1.83151 0.534838 0
M  V30 2572 C 230.826 -3.15371 1.40126 0
M  V30 2573 C 229.939 -3.4098 2.65249 0
M  V30 2574 C 229.074 -4.68915 2.49584 0
M  V30 2575 C 228.113 -4.87608 3.70006 0
M  V30 2576 N 227.25 -6.06796 3.53189 0
M  V30 2577 H 232.09 -1.72584 2.42938 0
M  V30 2578 H 229.627 -0.842297 1.20598 0
M  V30 2579 H 231.585 -3.9521 1.33659 0
M  V30 2580 H 230.215 -3.19121 0.485964 0
M  V30 2581 H 229.267 -2.55282 2.8202 0
M  V30 2582 H 230.579 -3.50681 3.54717 0
M  V30 2583 H 229.733 -5.56871 2.4079 0
M  V30 2584 H 228.472 -4.61524 1.5763 0
M  V30 2585 H 227.477 -3.9809 3.79215 0
M  V30 2586 H 228.702 -4.96834 4.62961 0
M  V30 2587 H 226.648 -6.00549 2.63965 0
M  V30 2588 H 226.565 -6.17428 4.36255 0
M  V30 2589 H 227.833 -6.9739 3.48236 0
M  V30 2590 N 232.062 -1.29571 -0.897171 0
M  V30 2591 C 233.292 -1.20408 -1.67886 0
M  V30 2592 C 233.7 0.237429 -1.87704 0
M  V30 2593 O 233.043 1.17048 -1.41582 0
M  V30 2594 C 233.105 -1.84887 -3.08314 0
M  V30 2595 C 232.769 -3.34189 -3.11716 0
M  V30 2596 C 233.766 -4.30374 -2.91675 0
M  V30 2597 C 231.451 -3.75431 -3.33701 0
M  V30 2598 C 233.445 -5.65776 -2.93557 0
M  V30 2599 C 231.132 -5.10955 -3.35214 0
M  V30 2600 C 232.13 -6.05938 -3.15164 0
M  V30 2601 O 231.818 -7.38987 -3.1647 0
M  V30 2602 H 231.55 -0.418289 -0.531046 0
M  V30 2603 H 234.104 -1.71514 -1.13014 0
M  V30 2604 H 232.334 -1.28295 -3.64798 0
M  V30 2605 H 234.023 -1.70011 -3.6858 0
M  V30 2606 H 234.789 -3.99844 -2.74499 0
M  V30 2607 H 230.668 -3.01953 -3.48347 0
M  V30 2608 H 234.212 -6.39889 -2.77826 0
M  V30 2609 H 230.109 -5.4113 -3.51922 0
M  V30 2610 H 230.877 -7.47823 -3.3272 0
M  V30 2611 N 233.54 1.10788 -1.12088 0
M  V30 2612 C 234.817 1.79136 -0.785476 0
M  V30 2613 C 235.197 1.98246 0.725377 0
M  V30 2614 O 234.545 1.57258 1.65778 0
M  V30 2615 C 234.755 3.12375 -1.55636 0
M  V30 2616 C 236.103 3.8731 -1.74001 0
M  V30 2617 O 237.127 3.22085 -1.52117 0
M  V30 2618 O 235.986 5.04369 -2.10415 0
M  V30 2619 H 233.08 0.776226 -0.285311 0
M  V30 2620 H 235.626 1.1747 -1.2247 0
M  V30 2621 H 234.398 2.93863 -2.5838 0
M  V30 2622 H 234.021 3.81758 -1.11114 0
M  V30 2623 N 235.018 0.912232 1.28515 0
M  V30 2624 C 236.429 0.591352 1.77087 0
M  V30 2625 C 236.78 -0.8933 1.74684 0
M  V30 2626 O 235.905 -1.69876 1.34056 0
M  V30 2627 C 236.5 1.06668 3.2157 0
M  V30 2628 C 235.059 0.79675 3.67871 0
M  V30 2629 C 234.206 1.23427 2.48316 0
M  V30 2630 H 237.157 1.09365 1.15 0
M  V30 2631 H 237.178 0.407455 3.78312 0
M  V30 2632 H 236.69 2.14726 3.23287 0
M  V30 2633 H 234.791 -0.270679 3.71616 0
M  V30 2634 H 234.904 1.40343 4.58084 0
M  V30 2635 H 233.268 0.653036 2.46186 0
M  V30 2636 H 234.051 2.32316 2.52753 0
M  V30 2637 N 236.496 -1.42363 0.676048 0
M  V30 2638 C 237.907 -1.84649 0.275948 0
M  V30 2639 C 238.258 -1.56588 -1.18214 0
M  V30 2640 O 237.383 -1.02634 -1.90513 0
M  V30 2641 C 237.978 -3.35178 0.494053 0
M  V30 2642 C 236.537 -3.76109 0.148061 0
M  V30 2643 C 235.684 -2.65931 0.785891 0
M  V30 2644 H 238.635 -1.32192 0.878121 0
M  V30 2645 H 238.656 -3.79655 -0.25343 0
M  V30 2646 H 238.168 -3.55571 1.55535 0
M  V30 2647 H 236.269 -3.61323 -0.909742 0
M  V30 2648 H 236.382 -4.7546 0.589454 0
M  V30 2649 H 234.746 -2.53773 0.217113 0
M  V30 2650 H 235.529 -2.89146 1.85067 0
M  V30 2651 N 237.974 -0.419461 -1.51915 0
M  V30 2652 C 239.221 0.152939 -2.01922 0
M  V30 2653 C 239.549 1.4426 -1.30458 0
M  V30 2654 O 238.804 1.91514 -0.402593 0
M  V30 2655 C 239.103 0.437067 -3.54717 0
M  V30 2656 C 238.769 -0.764632 -4.44369 0
M  V30 2657 C 237.431 -1.09423 -4.68594 0
M  V30 2658 C 239.783 -1.56713 -4.97082 0
M  V30 2659 C 237.111 -2.22732 -5.42777 0
M  V30 2660 C 239.463 -2.69107 -5.72507 0
M  V30 2661 C 238.127 -3.02541 -5.95 0
M  V30 2662 H 237.397 0.0559644 -0.738884 0
M  V30 2663 H 240.044 -0.562998 -1.83037 0
M  V30 2664 H 238.349 1.23469 -3.71837 0
M  V30 2665 H 240.046 0.893083 -3.90928 0
M  V30 2666 H 236.636 -0.497775 -4.257 0
M  V30 2667 H 240.82 -1.32571 -4.78266 0
M  V30 2668 H 236.076 -2.48971 -5.58411 0
M  V30 2669 H 240.25 -3.31671 -6.12346 0
M  V30 2670 H 237.877 -3.90457 -6.52264 0
M  V30 2671 N 239.452 1.56882 -0.150215 0
M  V30 2672 C 240.7 1.9584 0.499105 0
M  V30 2673 C 241.021 1.03623 1.65188 0
M  V30 2674 O 240.291 0.0984084 1.95653 0
M  V30 2675 H 238.871 0.723119 0.187373 0
M  V30 2676 H 241.533 1.9358 -0.226466 0
M  V30 2677 H 240.629 2.99638 0.873122 0
M  V30 2678 N 240.93 -0.123565 1.57115 0
M  V30 2679 C 242.177 -0.832153 1.84612 0
M  V30 2680 C 242.505 -1.80093 0.734627 0
M  V30 2681 O 241.76 -1.93766 -0.27442 0
M  V30 2682 C 242.059 -1.62016 3.18568 0
M  V30 2683 C 241.725 -0.796084 4.43817 0
M  V30 2684 C 240.387 -0.568816 4.77826 0
M  V30 2685 C 242.739 -0.221364 5.2073 0
M  V30 2686 C 240.067 0.243499 5.86194 0
M  V30 2687 C 242.419 0.578117 6.29953 0
M  V30 2688 C 241.083 0.815744 6.62497 0
M  V30 2689 H 240.353 -0.304507 0.675542 0
M  V30 2690 H 243 -0.0947248 1.91266 0
M  V30 2691 H 241.305 -2.42837 3.0747 0
M  V30 2692 H 243.002 -2.17231 3.37064 0
M  V30 2693 H 239.592 -0.983307 4.17168 0
M  V30 2694 H 243.776 -0.384173 4.94811 0
M  V30 2695 H 239.032 0.436871 6.09837 0
M  V30 2696 H 243.206 1.03046 6.88734 0
M  V30 2697 H 240.833 1.44701 7.46301 0
M  V30 2698 N 242.408 -1.52605 -0.393616 0
M  V30 2699 C 243.824 -1.41753 -0.733357 0
M  V30 2700 C 244.024 -0.534293 -1.94287 0
M  V30 2701 O 243.08 -0.0059787 -2.52499 0
M  V30 2702 C 244.393 -2.84531 -0.972772 0
M  V30 2703 C 245.941 -2.93978 -1.07453 0
M  V30 2704 C 246.416 -4.37756 -1.3466 0
M  V30 2705 N 247.907 -4.4106 -1.41492 0
M  V30 2706 C 248.642 -5.49387 -1.642 0
M  V30 2707 N 248.138 -6.67806 -1.8441 0
M  V30 2708 N 249.931 -5.36923 -1.66342 0
M  V30 2709 H 242.082 -2.08555 0.402328 0
M  V30 2710 H 244.345 -0.940654 0.117789 0
M  V30 2711 H 244.051 -3.51353 -0.156204 0
M  V30 2712 H 243.925 -3.26508 -1.88871 0
M  V30 2713 H 246.312 -2.27326 -1.88167 0
M  V30 2714 H 246.393 -2.55435 -0.136605 0
M  V30 2715 H 246.037 -5.04972 -0.544581 0
M  V30 2716 H 245.967 -4.73848 -2.2973 0
M  V30 2717 H 248.458 -3.55705 -1.27601 0
M  V30 2718 H 248.771 -7.46141 -2.01231 0
M  V30 2719 H 247.116 -6.70843 -1.81644 0
M  V30 2720 H 250.307 -4.43381 -1.50102 0
M  V30 2721 H 250.48 -6.21416 -1.837 0
M  V30 2722 N 243.887 0.651787 -1.4349 0
M  V30 2723 C 244.834 1.76462 -1.4876 0
M  V30 2724 C 245.804 1.62641 -0.337189 0
M  V30 2725 O 246.989 1.82864 -0.544544 0
M  V30 2726 C 244.129 3.14623 -1.41796 0
M  V30 2727 C 243.242 3.39568 -2.67053 0
M  V30 2728 C 242.377 4.67585 -2.52068 0
M  V30 2729 C 241.416 4.85639 -3.72587 0
M  V30 2730 N 240.553 6.04915 -3.56402 0
M  V30 2731 H 245.393 1.71293 -2.43849 0
M  V30 2732 H 242.93 0.835889 -1.21043 0
M  V30 2733 H 244.888 3.94496 -1.35753 0
M  V30 2734 H 243.518 3.18859 -0.50288 0
M  V30 2735 H 242.57 2.53783 -2.8337 0
M  V30 2736 H 243.882 3.48795 -3.56572 0
M  V30 2737 H 243.036 5.55586 -2.4374 0
M  V30 2738 H 241.775 4.60681 -1.60075 0
M  V30 2739 H 240.78 3.96073 -3.81321 0
M  V30 2740 H 242.005 4.94372 -4.65589 0
M  V30 2741 H 239.951 5.9914 -2.67146 0
M  V30 2742 H 239.868 6.15106 -4.39524 0
M  V30 2743 H 241.136 6.95533 -3.51929 0
M  V30 2744 N 245.365 1.30045 0.890287 0
M  V30 2745 C 246.612 1.18561 1.64163 0
M  V30 2746 C 246.94 -0.260852 1.92743 0
M  V30 2747 O 246.195 -1.20376 1.54299 0
M  V30 2748 C 246.494 1.95409 2.99249 0
M  V30 2749 C 246.16 3.45066 2.90242 0
M  V30 2750 C 244.822 3.85878 2.87492 0
M  V30 2751 C 247.174 4.4039 2.78758 0
M  V30 2752 C 244.502 5.20314 2.7109 0
M  V30 2753 C 246.854 5.74928 2.63894 0
M  V30 2754 C 245.518 6.14986 2.59516 0
M  V30 2755 H 244.788 0.433846 0.600715 0
M  V30 2756 H 247.435 1.61088 1.03552 0
M  V30 2757 H 245.74 1.45501 3.63781 0
M  V30 2758 H 247.437 1.8392 3.56334 0
M  V30 2759 H 244.027 3.12631 2.93189 0
M  V30 2760 H 248.211 4.09806 2.79952 0
M  V30 2761 H 243.467 5.50449 2.66112 0
M  V30 2762 H 247.641 6.48434 2.53981 0
M  V30 2763 H 245.268 7.19104 2.46565 0
M  V30 2764 N 246.843 -1.10192 1.12674 0
M  V30 2765 C 248.068 -1.86523 0.906853 0
M  V30 2766 C 248.493 -1.80221 -0.538711 0
M  V30 2767 O 247.851 -1.17396 -1.38158 0
M  V30 2768 C 247.899 -3.32758 1.3894 0
M  V30 2769 O 247.003 -4.08449 0.5695 0
M  V30 2770 H 246.344 -0.578678 0.325619 0
M  V30 2771 H 248.874 -1.39203 1.49946 0
M  V30 2772 H 248.884 -3.83608 1.38958 0
M  V30 2773 H 247.559 -3.36661 2.44197 0
M  V30 2774 H 246.136 -3.67427 0.636528 0
M  V30 2775 N 248.321 -0.919034 -1.28029 0
M  V30 2776 C 249.546 -0.570357 -1.99403 0
M  V30 2777 C 249.971 0.842486 -1.68178 0
M  V30 2778 O 249.329 1.56391 -0.917141 0
M  V30 2779 C 249.377 -0.792541 -3.51783 0
M  V30 2780 O 248.481 0.145988 -4.12142 0
M  V30 2781 H 247.822 -0.220555 -0.6263 0
M  V30 2782 H 250.352 -1.23592 -1.63053 0
M  V30 2783 H 250.362 -0.704708 -4.01868 0
M  V30 2784 H 249.037 -1.82247 -3.73844 0
M  V30 2785 H 247.614 0.00897528 -3.72899 0
M  V30 2786 N 249.799 1.42003 -0.683588 0
M  V30 2787 C 250.746 2.30798 -0.0107309 0
M  V30 2788 C 251.716 1.4645 0.783688 0
M  V30 2789 O 252.901 1.75263 0.754156 0
M  V30 2790 C 250.041 3.3238 0.928306 0
M  V30 2791 C 249.154 4.31814 0.126776 0
M  V30 2792 C 248.289 5.20468 1.06236 0
M  V30 2793 C 247.328 6.11577 0.253035 0
M  V30 2794 N 246.465 6.92754 1.14179 0
M  V30 2795 H 251.305 2.8778 -0.773727 0
M  V30 2796 H 248.842 1.41745 -0.393283 0
M  V30 2797 H 250.8 3.89813 1.48666 0
M  V30 2798 H 249.43 2.76976 1.65783 0
M  V30 2799 H 248.482 3.76427 -0.54833 0
M  V30 2800 H 249.794 4.96276 -0.501192 0
M  V30 2801 H 248.948 5.82677 1.69035 0
M  V30 2802 H 247.687 4.56204 1.7242 0
M  V30 2803 H 246.692 5.48428 -0.388108 0
M  V30 2804 H 247.917 6.77892 -0.404839 0
M  V30 2805 H 245.863 6.3111 1.78987 0
M  V30 2806 H 245.78 7.53855 0.569111 0
M  V30 2807 H 247.048 7.59441 1.75697 0
M  V30 2808 N 251.277 0.427512 1.51691 0
M  V30 2809 C 252.523 -0.142439 2.02299 0
M  V30 2810 C 252.856 -1.43214 1.31162 0
M  V30 2811 O 252.131 -1.89833 0.423511 0
M  V30 2812 C 252.414 -0.371301 3.58181 0
M  V30 2813 C 252.267 0.936358 4.39946 0
M  V30 2814 C 253.586 -1.14542 4.24933 0
M  V30 2815 H 250.705 -0.0502937 0.735282 0
M  V30 2816 H 253.347 0.564584 1.81418 0
M  V30 2817 H 251.497 -0.973559 3.76104 0
M  V30 2818 H 253.169 1.57184 4.33694 0
M  V30 2819 H 251.412 1.5432 4.05423 0
M  V30 2820 H 252.083 0.730388 5.47147 0
M  V30 2821 H 254.559 -0.635362 4.11221 0
M  V30 2822 H 253.435 -1.27431 5.33903 0
M  V30 2823 H 253.696 -2.17093 3.85127 0
M  V30 2824 N 252.755 -1.56801 0.158532 0
M  V30 2825 C 253.687 -2.14488 -0.807923 0
M  V30 2826 C 254.7 -1.09721 -1.20271 0
M  V30 2827 O 255.889 -1.36956 -1.14478 0
M  V30 2828 C 252.989 -2.66217 -2.09718 0
M  V30 2829 C 252.162 -3.95507 -1.86796 0
M  V30 2830 C 251.221 -4.3243 -2.99818 0
M  V30 2831 O 250.247 -5.00543 -2.71008 0
M  V30 2832 N 251.449 -3.92947 -4.27285 0
M  V30 2833 H 254.214 -2.98042 -0.314816 0
M  V30 2834 H 251.775 -1.61881 -0.0246692 0
M  V30 2835 H 253.767 -2.87924 -2.84398 0
M  V30 2836 H 252.337 -1.87324 -2.50257 0
M  V30 2837 H 251.557 -3.82309 -0.96089 0
M  V30 2838 H 252.845 -4.79972 -1.68833 0
M  V30 2839 H 252.243 -3.38087 -4.53557 0
M  V30 2840 H 250.8 -4.19681 -4.9871 0
M  V30 2841 N 254.233 0.115231 -1.57178 0
M  V30 2842 C 255.461 0.836437 -1.89239 0
M  V30 2843 C 255.876 1.73256 -0.750175 0
M  V30 2844 O 255.233 1.80357 0.278832 0
M  V30 2845 C 255.284 1.66671 -3.20785 0
M  V30 2846 O 255.005 0.806652 -4.3061 0
M  V30 2847 C 256.506 2.49274 -3.66575 0
M  V30 2848 H 253.726 0.240253 -0.626514 0
M  V30 2849 H 256.27 0.0984932 -2.04263 0
M  V30 2850 H 254.425 2.35737 -3.0742 0
M  V30 2851 H 254.839 1.37969 -5.06028 0
M  V30 2852 H 256.313 3.03055 -4.6137 0
M  V30 2853 H 256.79 3.26807 -2.93417 0
M  V30 2854 H 257.396 1.85443 -3.82741 0
M  V30 2855 N 255.711 1.52812 0.385517 0
M  V30 2856 C 256.641 1.80808 1.47752 0
M  V30 2857 C 257.622 0.660318 1.5676 0
M  V30 2858 O 258.807 0.908246 1.71652 0
M  V30 2859 C 255.937 1.98008 2.85324 0
M  V30 2860 C 254.891 3.13709 2.91154 0
M  V30 2861 C 254.217 3.16169 4.31209 0
M  V30 2862 C 255.517 4.52709 2.60483 0
M  V30 2863 H 257.211 2.72253 1.24573 0
M  V30 2864 H 254.757 1.31003 0.597839 0
M  V30 2865 H 256.71 2.16176 3.61726 0
M  V30 2866 H 255.434 1.03255 3.09848 0
M  V30 2867 H 254.093 2.95329 2.17201 0
M  V30 2868 H 253.741 2.19092 4.52778 0
M  V30 2869 H 253.441 3.93894 4.36029 0
M  V30 2870 H 254.965 3.36496 5.09512 0
M  V30 2871 H 256.379 4.71173 3.26602 0
M  V30 2872 H 254.776 5.32528 2.76648 0
M  V30 2873 H 255.846 4.59186 1.55809 0
M  V30 2874 N 257.189 -0.644168 1.43834 0
M  V30 2875 C 258.119 -1.76814 1.52509 0
M  V30 2876 C 259.1 -1.65823 0.379052 0
M  V30 2877 O 260.285 -1.84781 0.597466 0
M  V30 2878 C 257.415 -3.15288 1.4564 0
M  V30 2879 C 256.369 -3.41053 2.58586 0
M  V30 2880 C 255.695 -4.79421 2.36769 0
M  V30 2881 C 256.995 -3.34902 4.00797 0
M  V30 2882 H 258.689 -1.69812 2.46586 0
M  V30 2883 H 256.235 -0.815542 1.1868 0
M  V30 2884 H 258.188 -3.93681 1.50311 0
M  V30 2885 H 256.912 -3.23043 0.480725 0
M  V30 2886 H 255.571 -2.65035 2.53282 0
M  V30 2887 H 255.219 -4.83863 1.37424 0
M  V30 2888 H 254.919 -4.9762 3.12487 0
M  V30 2889 H 256.443 -5.6006 2.43238 0
M  V30 2890 H 257.857 -4.03218 4.07539 0
M  V30 2891 H 256.254 -3.64637 4.76613 0
M  V30 2892 H 257.324 -2.32928 4.25291 0
M  V30 2893 N 258.668 -1.30515 -0.883378 0
M  V30 2894 C 259.578 -1.18959 -2.02203 0
M  V30 2895 C 260.594 -0.109172 -1.73657 0
M  V30 2896 O 261.77 -0.324413 -1.9877 0
M  V30 2897 C 258.835 -0.883871 -3.35244 0
M  V30 2898 C 257.896 -2.04982 -3.77201 0
M  V30 2899 C 257.129 -1.75859 -5.03894 0
M  V30 2900 O 257.352 -0.687276 -5.66244 0
M  V30 2901 O 256.286 -2.61146 -5.42297 0
M  V30 2902 H 260.112 -2.14616 -2.1488 0
M  V30 2903 H 257.697 -1.10124 -1.0096 0
M  V30 2904 H 259.579 -0.728644 -4.15053 0
M  V30 2905 H 258.254 0.0427798 -3.23672 0
M  V30 2906 H 257.161 -2.26038 -2.9809 0
M  V30 2907 H 258.494 -2.95825 -3.93381 0
M  V30 2908 N 260.146 1.09593 -1.13257 0
M  V30 2909 C 261.076 2.18214 -0.830946 0
M  V30 2910 C 262.057 1.68812 0.208966 0
M  V30 2911 O 263.242 1.9408 0.0682666 0
M  V30 2912 C 260.372 3.46051 -0.294296 0
M  V30 2913 C 259.326 4.08778 -1.26826 0
M  V30 2914 C 258.652 5.31419 -0.591449 0
M  V30 2915 C 259.952 4.51476 -2.62615 0
M  V30 2916 H 261.646 2.43703 -1.73923 0
M  V30 2917 H 259.192 1.17128 -0.837675 0
M  V30 2918 H 261.145 4.2134 -0.0709606 0
M  V30 2919 H 259.869 3.20079 0.649366 0
M  V30 2920 H 258.528 3.35505 -1.47756 0
M  V30 2921 H 258.176 5.01727 0.357633 0
M  V30 2922 H 257.876 5.74341 -1.24123 0
M  V30 2923 H 259.4 6.09433 -0.377355 0
M  V30 2924 H 260.814 5.17999 -2.45663 0
M  V30 2925 H 259.211 5.05277 -3.23752 0
M  V30 2926 H 260.281 3.63962 -3.20406 0
M  V30 2927 N 261.624 0.925811 1.2754 0
M  V30 2928 C 262.554 0.440748 2.29303 0
M  V30 2929 C 263.535 -0.497971 1.62648 0
M  V30 2930 O 264.72 -0.403126 1.8997 0
M  V30 2931 C 261.85 -0.309048 3.45922 0
M  V30 2932 C 260.804 0.54166 4.24559 0
M  V30 2933 C 260.13 -0.337191 5.33636 0
M  V30 2934 C 261.43 1.80516 4.90114 0
M  V30 2935 H 263.124 1.29121 2.70126 0
M  V30 2936 H 260.67 0.622323 1.29858 0
M  V30 2937 H 262.623 -0.659315 4.1621 0
M  V30 2938 H 261.347 -1.19352 3.04011 0
M  V30 2939 H 260.006 0.874609 3.56014 0
M  V30 2940 H 259.654 -1.22056 4.87966 0
M  V30 2941 H 259.354 0.228497 5.87156 0
M  V30 2942 H 260.878 -0.683072 6.06767 0
M  V30 2943 H 262.292 1.52307 5.52698 0
M  V30 2944 H 260.689 2.3142 5.53683 0
M  V30 2945 H 261.759 2.52581 4.13921 0
M  V30 2946 N 263.102 -1.41638 0.69111 0
M  V30 2947 C 264.513 -1.84346 0.295517 0
M  V30 2948 C 264.864 -1.57833 -1.16547 0
M  V30 2949 O 263.989 -1.04648 -1.89414 0
M  V30 2950 C 264.584 -3.34636 0.529575 0
M  V30 2951 C 263.143 -3.7593 0.187944 0
M  V30 2952 C 262.29 -2.65082 0.814052 0
M  V30 2953 H 265.241 -1.31253 0.892092 0
M  V30 2954 H 265.262 -3.79903 -0.213148 0
M  V30 2955 H 264.774 -3.53901 1.59297 0
M  V30 2956 H 262.875 -3.62268 -0.871367 0
M  V30 2957 H 262.988 -4.74808 0.63985 0
M  V30 2958 H 261.352 -2.53528 0.244017 0
M  V30 2959 H 262.135 -2.87167 1.88123 0
M  V30 2960 N 264.58 -0.43555 -1.51462 0
M  V30 2961 C 265.49 0.383001 -2.31453 0
M  V30 2962 C 266.506 1.02931 -1.4029 0
M  V30 2963 O 267.682 1.02507 -1.73362 0
M  V30 2964 C 264.747 1.47043 -3.13973 0
M  V30 2965 C 263.808 0.844433 -4.20913 0
M  V30 2966 C 263.041 1.88004 -4.9949 0
M  V30 2967 O 263.264 3.10199 -4.78678 0
M  V30 2968 O 262.198 1.47157 -5.83634 0
M  V30 2969 H 266.024 -0.269964 -3.02498 0
M  V30 2970 H 263.609 -0.19813 -1.4808 0
M  V30 2971 H 265.491 2.10113 -3.65281 0
M  V30 2972 H 264.166 2.10751 -2.45695 0
M  V30 2973 H 263.073 0.175729 -3.73687 0
M  V30 2974 H 264.406 0.250869 -4.9156 0
M  V30 2975 N 266.058 1.56714 -0.166846 0
M  V30 2976 C 267.008 2.14338 0.777382 0
M  V30 2977 C 267.992 1.07642 1.19591 0
M  V30 2978 O 269.184 1.33775 1.15902 0
M  V30 2979 C 266.313 2.78417 2.00846 0
M  V30 2980 C 265.399 3.92264 1.61212 0
M  V30 2981 N 265.79 4.97268 0.925104 0
M  V30 2982 C 264.088 4.03342 1.90346 0
M  V30 2983 C 264.789 5.77093 0.730627 0
M  V30 2984 N 263.765 5.2854 1.27067 0
M  V30 2985 H 267.567 2.9289 0.243466 0
M  V30 2986 H 265.081 1.62364 0.0339954 0
M  V30 2987 H 267.078 3.18073 2.69509 0
M  V30 2988 H 265.738 2.01344 2.54736 0
M  V30 2989 H 266.749 5.14601 0.583646 0
M  V30 2990 H 263.426 3.37368 2.45946 0
M  V30 2991 H 264.816 6.71638 0.187668 0
M  V30 2992 N 267.536 -0.106894 1.57237 0
M  V30 2993 C 268.813 -0.843526 1.76477 0
M  V30 2994 C 269.193 -1.97499 0.745464 0
M  V30 2995 O 268.541 -2.27357 -0.228306 0
M  V30 2996 C 268.751 -1.34903 3.21873 0
M  V30 2997 C 270.099 -1.79654 3.8472 0
M  V30 2998 O 271.123 -1.44554 3.2555 0
M  V30 2999 O 269.982 -2.44515 4.88748 0
M  V30 3000 H 267.076 -0.401468 0.723016 0
M  V30 3001 H 269.622 -0.0896927 1.69463 0
M  V30 3002 H 268.394 -0.53781 3.87586 0
M  V30 3003 H 268.017 -2.16522 3.33473 0
M  V30 3004 N 269.014 -1.53014 -0.377408 0
M  V30 3005 C 269.944 -1.81589 -1.46791 0
M  V30 3006 C 270.925 -0.668622 -1.56408 0
M  V30 3007 O 272.11 -0.917337 -1.71168 0
M  V30 3008 C 269.24 -1.99519 -2.8427 0
M  V30 3009 C 268.194 -3.15249 -2.89486 0
M  V30 3010 C 267.52 -3.18451 -4.29527 0
M  V30 3011 C 268.82 -4.54084 -2.58079 0
M  V30 3012 H 270.514 -2.7291 -1.23127 0
M  V30 3013 H 268.06 -1.31319 -0.590883 0
M  V30 3014 H 270.013 -2.18092 -3.60575 0
M  V30 3015 H 268.737 -1.04897 -3.09296 0
M  V30 3016 H 267.396 -2.96477 -2.15631 0
M  V30 3017 H 267.044 -2.2149 -4.5161 0
M  V30 3018 H 266.744 -3.962 -4.33934 0
M  V30 3019 H 268.268 -3.39193 -5.07721 0
M  V30 3020 H 269.682 -4.72899 -3.24098 0
M  V30 3021 H 268.079 -5.33987 -2.7382 0
M  V30 3022 H 269.149 -4.60006 -1.53372 0
M  V30 3023 N 270.492 0.636531 -1.44174 0
M  V30 3024 C 271.903 1.21806 -1.41493 0
M  V30 3025 C 272.254 1.95785 -0.1275 0
M  V30 3026 O 271.379 2.02147 0.772376 0
M  V30 3027 C 271.974 2.21551 -2.56321 0
M  V30 3028 C 270.533 2.75143 -2.56853 0
M  V30 3029 C 269.68 1.50052 -2.33195 0
M  V30 3030 H 272.631 0.427531 -1.52833 0
M  V30 3031 H 272.652 3.0405 -2.28765 0
M  V30 3032 H 272.164 1.67679 -3.50008 0
M  V30 3033 H 270.265 3.33033 -1.67093 0
M  V30 3034 H 270.378 3.2155 -3.55165 0
M  V30 3035 H 268.742 1.77993 -1.82183 0
M  V30 3036 H 269.525 0.980903 -3.28988 0
M  V30 3037 N 271.97 1.30982 0.876444 0
M  V30 3038 C 272.88 1.2003 2.01569 0
M  V30 3039 C 273.896 0.11838 1.73597 0
M  V30 3040 O 275.072 0.33495 1.98595 0
M  V30 3041 C 272.137 0.901637 3.34771 0
M  V30 3042 C 271.198 2.06979 3.76109 0
M  V30 3043 C 270.431 1.78529 5.02954 0
M  V30 3044 O 270.654 0.717296 5.65872 0
M  V30 3045 O 269.588 2.64019 5.40905 0
M  V30 3046 H 273.414 2.15753 2.13739 0
M  V30 3047 H 270.999 1.10658 1.00375 0
M  V30 3048 H 272.881 0.750645 4.1466 0
M  V30 3049 H 271.556 -0.0256141 3.2369 0
M  V30 3050 H 270.463 2.27616 2.96887 0
M  V30 3051 H 271.796 2.97907 3.91807 0
M  V30 3052 N 273.449 -1.08991 1.13837 0
M  V30 3053 C 274.399 -2.1393 0.788535 0
M  V30 3054 C 275.383 -1.59396 -0.219516 0
M  V30 3055 O 276.575 -1.76985 -0.0227557 0
M  V30 3056 C 273.704 -3.42305 0.261147 0
M  V30 3057 C 272.79 -4.03736 1.29837 0
M  V30 3058 N 273.181 -4.39659 2.50067 0
M  V30 3059 C 271.479 -4.30993 1.1472 0
M  V30 3060 C 272.18 -4.88113 3.16419 0
M  V30 3061 N 271.156 -4.85846 2.43832 0
M  V30 3062 H 274.958 -2.39516 1.70322 0
M  V30 3063 H 272.472 -1.26263 1.02134 0
M  V30 3064 H 274.469 -4.16899 -0.0077405 0
M  V30 3065 H 273.129 -3.18172 -0.647805 0
M  V30 3066 H 274.14 -4.30878 2.8734 0
M  V30 3067 H 270.817 -4.16444 0.296773 0
M  V30 3068 H 272.207 -5.25336 4.18894 0
M  V30 3069 N 274.927 -0.932562 -1.27047 0
M  V30 3070 C 275.857 -0.452902 -2.29066 0
M  V30 3071 C 276.838 0.489338 -1.62909 0
M  V30 3072 O 278.023 0.393046 -1.90181 0
M  V30 3073 C 275.153 0.290698 -3.46081 0
M  V30 3074 C 274.107 -0.564168 -4.24265 0
M  V30 3075 C 273.433 0.308886 -5.33807 0
M  V30 3076 C 274.733 -1.83112 -4.89149 0
M  V30 3077 H 276.427 -1.30552 -2.69437 0
M  V30 3078 H 273.973 -0.629201 -1.29526 0
M  V30 3079 H 275.926 0.637233 -4.16554 0
M  V30 3080 H 274.65 1.17738 -3.0464 0
M  V30 3081 H 273.309 -0.893477 -3.55545 0
M  V30 3082 H 272.957 1.19467 -4.88607 0
M  V30 3083 H 272.657 -0.259633 -5.87026 0
M  V30 3084 H 274.181 0.650884 -6.07121 0
M  V30 3085 H 275.595 -1.55236 -5.51883 0
M  V30 3086 H 273.992 -2.34353 -5.52448 0
M  V30 3087 H 275.062 -2.54772 -4.12576 0
M  V30 3088 N 276.405 1.4127 -0.698611 0
M  V30 3089 C 277.352 2.30773 -0.0352094 0
M  V30 3090 C 278.322 1.47273 0.768111 0
M  V30 3091 O 279.507 1.76053 0.735524 0
M  V30 3092 C 276.647 3.33346 0.893 0
M  V30 3093 C 275.76 4.31924 0.0809695 0
M  V30 3094 C 274.895 5.21566 1.0071 0
M  V30 3095 C 273.934 6.11811 0.188155 0
M  V30 3096 N 273.071 6.93926 1.06825 0
M  V30 3097 H 277.911 2.86943 -0.804207 0
M  V30 3098 H 275.448 1.4132 -0.408294 0
M  V30 3099 H 277.406 3.91368 1.44523 0
M  V30 3100 H 276.036 2.78719 1.62836 0
M  V30 3101 H 275.088 3.75825 -0.588224 0
M  V30 3102 H 276.4 4.95716 -0.553801 0
M  V30 3103 H 275.554 5.84437 1.62845 0
M  V30 3104 H 274.293 4.58008 1.67572 0
M  V30 3105 H 273.298 5.47986 -0.446254 0
M  V30 3106 H 274.523 6.77425 -0.476716 0
M  V30 3107 H 272.469 6.32973 1.72283 0
M  V30 3108 H 272.386 7.54416 0.489123 0
M  V30 3109 H 273.654 7.61262 1.67632 0
M  V30 3110 N 277.883 0.443576 1.51229 0
M  V30 3111 C 278.846 -0.353132 2.26463 0
M  V30 3112 C 279.846 -0.944338 1.3015 0
M  V30 3113 O 281.036 -0.817813 1.5381 0
M  V30 3114 C 278.168 -1.50023 3.06114 0
M  V30 3115 H 279.361 0.3063 2.98332 0
M  V30 3116 H 276.914 0.196902 1.55055 0
M  V30 3117 H 277.649 -2.19553 2.38677 0
M  V30 3118 H 277.434 -1.08241 3.76864 0
M  V30 3119 H 278.924 -2.06296 3.63087 0
M  V30 3120 N 279.361 -1.56624 0.175154 0
M  V30 3121 C 280.308 -2.18149 -0.753634 0
M  V30 3122 C 281.278 -1.12265 -1.22417 0
M  V30 3123 O 282.463 -1.40432 -1.29165 0
M  V30 3124 C 279.603 -2.82933 -1.97592 0
M  V30 3125 C 278.716 -4.03289 -1.5486 0
M  V30 3126 C 277.851 -4.55988 -2.72485 0
M  V30 3127 C 276.89 -5.68746 -2.26262 0
M  V30 3128 N 276.027 -6.15938 -3.36994 0
M  V30 3129 H 280.867 -2.9717 -0.222195 0
M  V30 3130 H 278.404 -1.46774 -0.0979422 0
M  V30 3131 H 280.362 -3.18653 -2.69288 0
M  V30 3132 H 278.992 -2.06509 -2.481 0
M  V30 3133 H 278.044 -3.73364 -0.728246 0
M  V30 3134 H 279.356 -4.849 -1.16933 0
M  V30 3135 H 278.51 -4.9391 -3.52332 0
M  V30 3136 H 277.249 -3.73443 -3.13674 0
M  V30 3137 H 276.254 -5.30372 -1.44863 0
M  V30 3138 H 277.479 -6.53095 -1.86127 0
M  V30 3139 H 275.425 -5.36321 -3.77751 0
M  V30 3140 H 275.342 -6.92548 -3.03172 0
M  V30 3141 H 276.61 -6.58511 -4.17114 0
M  V30 3142 N 280.839 0.0985539 -1.57292 0
M  V30 3143 C 282.067 0.816318 -1.90115 0
M  V30 3144 C 282.482 1.72451 -0.768509 0
M  V30 3145 O 281.839 1.80643 0.259687 0
M  V30 3146 C 281.89 1.63259 -3.22535 0
M  V30 3147 O 281.611 0.760934 -4.31441 0
M  V30 3148 C 283.112 2.45372 -3.69199 0
M  V30 3149 H 280.332 0.233595 -0.629027 0
M  V30 3150 H 282.876 0.0768229 -2.04356 0
M  V30 3151 H 281.031 2.32463 -3.09903 0
M  V30 3152 H 281.445 1.32595 -5.07463 0
M  V30 3153 H 282.919 2.98144 -4.64558 0
M  V30 3154 H 283.396 3.23677 -2.96867 0
M  V30 3155 H 284.002 1.81373 -3.84687 0
M  V30 3156 N 282.317 1.53212 0.369288 0
M  V30 3157 C 283.557 1.70915 1.12105 0
M  V30 3158 C 283.921 0.449444 1.86665 0
M  V30 3159 O 285.122 0.503105 2.6405 0
M  V30 3160 C 283.393 2.9222 2.05772 0
M  V30 3161 S 284.952 3.30609 2.88519 0
M  V30 3162 H 281.77 0.601445 0.379189 0
M  V30 3163 H 284.372 1.91306 0.402794 0
M  V30 3164 H 283.076 3.82103 1.49752 0
M  V30 3165 H 282.607 2.7422 2.82076 0
M  V30 3166 H 284.622 2.82333 4.08047 0
M  V30 3167 N 283.795 -0.628877 1.44509 0
M  V30 3168 C 285.211 -0.947305 1.28446 0
M  V30 3169 C 285.411 -2.00275 0.221872 0
M  V30 3170 O 284.467 -2.49447 -0.391471 0
M  V30 3171 C 285.78 -1.40843 2.65676 0
M  V30 3172 C 287.328 -1.52379 2.73404 0
M  V30 3173 C 287.803 -2.01875 4.11109 0
M  V30 3174 N 289.294 -2.09142 4.13296 0
M  V30 3175 C 290.029 -2.48615 5.16699 0
M  V30 3176 N 289.525 -2.87209 6.30462 0
M  V30 3177 N 291.318 -2.48768 5.04054 0
M  V30 3178 H 283.469 0.0690977 2.12288 0
M  V30 3179 H 285.732 -0.0317164 0.947469 0
M  V30 3180 H 285.438 -0.707206 3.44516 0
M  V30 3181 H 285.312 -2.37902 2.92716 0
M  V30 3182 H 287.699 -2.21598 1.9488 0
M  V30 3183 H 287.78 -0.536898 2.50102 0
M  V30 3184 H 287.424 -1.3325 4.90109 0
M  V30 3185 H 287.354 -3.0144 4.31789 0
M  V30 3186 H 289.845 -1.81991 3.31191 0
M  V30 3187 H 290.158 -3.16149 7.05174 0
M  V30 3188 H 288.503 -2.84955 6.33897 0
M  V30 3189 H 291.694 -2.18009 4.14234 0
M  V30 3190 H 291.867 -2.79207 5.84763 0
M  V30 3191 N 285.273 -1.31445 -0.869486 0
M  V30 3192 C 286.689 -1.10113 -1.15531 0
M  V30 3193 C 286.889 0.128087 -2.01092 0
M  V30 3194 O 285.945 0.817276 -2.38908 0
M  V30 3195 C 287.258 -2.37291 -1.84698 0
M  V30 3196 C 288.806 -2.42906 -1.97397 0
M  V30 3197 C 289.281 -3.69967 -2.69979 0
M  V30 3198 N 290.772 -3.70864 -2.77514 0
M  V30 3199 C 291.507 -4.65875 -3.34287 0
M  V30 3200 N 291.003 -5.71242 -3.91988 0
M  V30 3201 N 292.796 -4.53394 -3.3225 0
M  V30 3202 H 284.947 -2.1028 -0.299347 0
M  V30 3203 H 287.21 -0.927683 -0.195214 0
M  V30 3204 H 286.916 -3.27078 -1.29278 0
M  V30 3205 H 286.79 -2.47125 -2.84972 0
M  V30 3206 H 289.177 -1.53588 -2.51982 0
M  V30 3207 H 289.258 -2.37036 -0.961643 0
M  V30 3208 H 288.902 -4.59652 -2.16062 0
M  V30 3209 H 288.832 -3.73103 -3.7162 0
M  V30 3210 H 291.323 -2.94697 -2.36563 0
M  V30 3211 H 291.636 -6.39817 -4.33421 0
M  V30 3212 H 289.981 -5.75015 -3.90362 0
M  V30 3213 H 293.172 -3.70252 -2.8641 0
M  V30 3214 H 293.345 -5.27617 -3.76197 0
M  V30 3215 N 286.751 1.08385 -1.14413 0
M  V30 3216 C 287.991 1.8238 -0.922868 0
M  V30 3217 C 288.355 1.84225 0.540842 0
M  V30 3218 O 289.556 2.53985 0.880058 0
M  V30 3219 C 287.827 3.24048 -1.50757 0
M  V30 3220 S 289.386 4.14917 -1.4279 0
M  V30 3221 H 286.204 0.628524 -0.332384 0
M  V30 3222 H 288.806 1.30278 -1.45766 0
M  V30 3223 H 287.51 3.20288 -2.56601 0
M  V30 3224 H 287.041 3.81224 -0.971178 0
M  V30 3225 H 289.056 4.94473 -0.413582 0
M  V30 3226 N 288.23 0.939286 1.26551 0
M  V30 3227 C 289.476 0.586715 1.94128 0
M  V30 3228 C 289.809 -0.8717 1.73537 0
M  V30 3229 O 289.084 -1.62339 1.07127 0
M  V30 3230 C 289.367 0.927497 3.4795 0
M  V30 3231 C 289.22 2.44052 3.77834 0
M  V30 3232 C 290.539 0.441569 4.37879 0
M  V30 3233 H 287.658 0.21463 0.705055 0
M  V30 3234 H 290.3 1.17316 1.49455 0
M  V30 3235 H 288.45 0.428431 3.8613 0
M  V30 3236 H 290.122 3.01216 3.4938 0
M  V30 3237 H 288.365 2.8848 3.23978 0
M  V30 3238 H 289.036 2.62947 4.85348 0
M  V30 3239 H 291.512 0.869448 4.06915 0
M  V30 3240 H 290.388 0.708856 5.44304 0
M  V30 3241 H 290.649 -0.658467 4.37169 0
M  V30 3242 N 289.708 -1.40897 0.706093 0
M  V30 3243 C 290.954 -2.01352 0.241889 0
M  V30 3244 C 291.287 -1.55832 -1.15888 0
M  V30 3245 O 290.562 -0.774145 -1.7843 0
M  V30 3246 C 290.845 -3.58752 0.311311 0
M  V30 3247 C 290.698 -4.1437 1.74978 0
M  V30 3248 C 292.017 -4.38914 -0.322922 0
M  V30 3249 H 289.136 -0.731562 0.0893687 0
M  V30 3250 H 291.778 -1.67504 0.896802 0
M  V30 3251 H 289.928 -3.87718 -0.246302 0
M  V30 3252 H 291.6 -3.96239 2.36205 0
M  V30 3253 H 289.843 -3.69016 2.28057 0
M  V30 3254 H 290.514 -5.23532 1.74981 0
M  V30 3255 H 292.99 -4.15822 0.152089 0
M  V30 3256 H 291.866 -5.48358 -0.243855 0
M  V30 3257 H 292.127 -4.19176 -1.40513 0
M  V30 3258 N 291.186 -0.45159 -1.50991 0
M  V30 3259 C 292.435 0.111653 -2.01391 0
M  V30 3260 C 292.748 1.42529 -1.33959 0
M  V30 3261 O 293.954 2.07232 -1.75405 0
M  V30 3262 C 292.41 0.249514 -3.59034 0
M  V30 3263 C 292.018 -1.05453 -4.35412 0
M  V30 3264 C 293.762 0.765762 -4.17536 0
M  V30 3265 C 291.669 -0.881529 -5.84793 0
M  V30 3266 H 290.599 0.0455022 -0.752626 0
M  V30 3267 H 293.25 -0.583524 -1.73975 0
M  V30 3268 H 291.632 1.00803 -3.82955 0
M  V30 3269 H 292.806 -1.82248 -4.23229 0
M  V30 3270 H 291.121 -1.50039 -3.88429 0
M  V30 3271 H 293.718 0.911913 -5.26866 0
M  V30 3272 H 294.061 1.75201 -3.77638 0
M  V30 3273 H 294.594 0.0651744 -3.97747 0
M  V30 3274 H 291.333 -1.84057 -6.29129 0
M  V30 3275 H 290.853 -0.153625 -5.99603 0
M  V30 3276 H 292.532 -0.540363 -6.4474 0
M  V30 3277 N 292.664 1.56529 -0.183458 0
M  V30 3278 C 293.912 1.96855 0.457452 0
M  V30 3279 C 294.233 1.07104 1.62953 0
M  V30 3280 O 293.503 0.139887 1.954 0
M  V30 3281 H 292.083 0.72693 0.171992 0
M  V30 3282 H 294.745 1.93056 -0.267476 0
M  V30 3283 H 293.841 3.01423 0.809368 0
M  V30 3284 N 294.142 -0.090211 1.57342 0
M  V30 3285 C 295.367 -0.810082 1.90925 0
M  V30 3286 C 295.792 -1.71248 0.778187 0
M  V30 3287 O 295.15 -1.79278 -0.269991 0
M  V30 3288 C 295.198 -1.59529 3.23393 0
M  V30 3289 O 294.302 -2.70461 3.11327 0
M  V30 3290 H 293.643 -0.222231 0.625707 0
M  V30 3291 H 296.173 -0.0639716 2.045 0
M  V30 3292 H 296.183 -1.97847 3.5682 0
M  V30 3293 H 294.858 -0.933055 4.05299 0
M  V30 3294 H 293.435 -2.35135 2.89423 0
M  V30 3295 N 295.62 -1.53406 -0.361157 0
M  V30 3296 C 296.868 -1.69467 -1.10115 0
M  V30 3297 C 297.189 -0.451352 -1.89705 0
M  V30 3298 O 296.459 0.534636 -1.88463 0
M  V30 3299 H 295.039 -0.624749 -0.409508 0
M  V30 3300 H 297.701 -1.90609 -0.406699 0
M  V30 3301 H 296.797 -2.55774 -1.78847 0
M  V30 3302 N 297.098 0.621204 -1.44841 0
M  V30 3303 C 298.346 1.37783 -1.47852 0
M  V30 3304 C 298.667 1.94653 -0.116224 0
M  V30 3305 O 297.937 1.76367 0.852737 0
M  V30 3306 H 296.517 0.511453 -0.544449 0
M  V30 3307 H 299.179 0.730446 -1.80694 0
M  V30 3308 H 298.275 2.20414 -2.20961 0
M  V30 3309 N 298.576 1.31904 0.862503 0
M  V30 3310 C 299.825 1.21373 1.61094 0
M  V30 3311 C 300.138 -0.22504 1.94301 0
M  V30 3312 O 301.344 -0.452121 2.67709 0
M  V30 3313 C 299.8 2.12525 2.9045 0
M  V30 3314 C 299.408 3.61441 2.64697 0
M  V30 3315 C 301.152 2.10813 3.68454 0
M  V30 3316 C 299.059 4.44578 3.90006 0
M  V30 3317 H 297.989 0.450705 0.604468 0
M  V30 3318 H 300.64 1.56811 0.953027 0
M  V30 3319 H 299.022 1.69994 3.57656 0
M  V30 3320 H 300.196 4.12264 2.05851 0
M  V30 3321 H 298.511 3.65205 2.00036 0
M  V30 3322 H 301.108 2.70167 4.61426 0
M  V30 3323 H 301.451 1.09713 4.01583 0
M  V30 3324 H 301.984 2.51583 3.08141 0
M  V30 3325 H 298.723 5.46461 3.62023 0
M  V30 3326 H 298.243 3.98508 4.48276 0
M  V30 3327 H 299.922 4.57176 4.5782 0
M  V30 3328 N 300.054 -1.07777 1.14986 0
M  V30 3329 C 300.984 -2.16865 0.865557 0
M  V30 3330 C 301.965 -1.69123 -0.182083 0
M  V30 3331 O 303.15 -1.94164 -0.0373815 0
M  V30 3332 C 300.28 -3.45539 0.349313 0
M  V30 3333 C 299.234 -4.06708 1.33313 0
M  V30 3334 C 298.56 -5.30411 0.675918 0
M  V30 3335 C 299.86 -4.47241 2.69764 0
M  V30 3336 H 301.554 -2.40905 1.77778 0
M  V30 3337 H 299.1 -1.15781 0.856203 0
M  V30 3338 H 301.053 -4.21174 0.137983 0
M  V30 3339 H 299.777 -3.21072 -0.598362 0
M  V30 3340 H 298.436 -3.33112 1.53075 0
M  V30 3341 H 298.084 -5.02232 -0.277767 0
M  V30 3342 H 297.784 -5.72293 1.33244 0
M  V30 3343 H 299.308 -6.08755 0.474262 0
M  V30 3344 H 300.722 -5.14025 2.53873 0
M  V30 3345 H 299.119 -5.00062 3.3175 0
M  V30 3346 H 300.189 -3.58818 3.26156 0
M  V30 3347 N 301.532 -0.945985 -1.26051 0
M  V30 3348 C 302.482 -0.430164 -2.23905 0
M  V30 3349 C 303.466 0.47579 -1.53704 0
M  V30 3350 O 304.658 0.310252 -1.7426 0
M  V30 3351 C 301.787 0.298957 -3.41996 0
M  V30 3352 C 300.873 -0.624566 -4.19476 0
M  V30 3353 N 301.264 -1.75245 -4.74471 0
M  V30 3354 C 299.562 -0.431082 -4.43912 0
M  V30 3355 C 300.263 -2.32834 -5.3307 0
M  V30 3356 N 299.239 -1.61583 -5.1903 0
M  V30 3357 H 303.041 -1.29107 -2.64024 0
M  V30 3358 H 300.555 -0.802428 -1.41191 0
M  V30 3359 H 302.552 0.685565 -4.11225 0
M  V30 3360 H 301.212 1.15657 -3.03403 0
M  V30 3361 H 302.223 -2.13449 -4.71868 0
M  V30 3362 H 298.9 0.384364 -4.15727 0
M  V30 3363 H 300.29 -3.27893 -5.86461 0
M  V30 3364 N 303.011 1.40521 -0.713556 0
M  V30 3365 C 304.259 2.00527 -0.251692 0
M  V30 3366 C 304.58 1.56857 1.15848 0
M  V30 3367 O 303.85 0.807127 1.785 0
M  V30 3368 H 302.43 0.741551 -0.0900646 0
M  V30 3369 H 305.092 1.71887 -0.918733 0
M  V30 3370 H 304.188 3.10813 -0.283192 0
M  V30 3371 N 304.489 0.459591 1.5075 0
M  V30 3372 C 305.419 -0.330644 2.31147 0
M  V30 3373 C 306.4 -1.00087 1.37538 0
M  V30 3374 O 307.585 -1.00025 1.66459 0
M  V30 3375 C 304.715 -1.41958 3.16962 0
M  V30 3376 C 303.669 -0.871608 4.19031 0
M  V30 3377 C 302.995 -2.05797 4.9351 0
M  V30 3378 C 304.295 0.109251 5.22186 0
M  V30 3379 H 305.989 0.340336 2.97459 0
M  V30 3380 H 303.535 0.165119 1.4305 0
M  V30 3381 H 305.488 -1.9798 3.71997 0
M  V30 3382 H 304.212 -2.11917 2.48513 0
M  V30 3383 H 302.871 -0.333442 3.6508 0
M  V30 3384 H 302.519 -2.74427 4.21544 0
M  V30 3385 H 302.219 -1.6976 5.62544 0
M  V30 3386 H 303.743 -2.62331 5.51375 0
M  V30 3387 H 305.157 -0.361405 5.7216 0
M  V30 3388 H 303.554 0.383316 5.98875 0
M  V30 3389 H 304.624 1.03887 4.73641 0
M  V30 3390 N 305.967 -1.56429 0.191757 0
M  V30 3391 C 306.877 -2.22541 -0.742481 0
M  V30 3392 C 307.893 -1.22342 -1.23727 0
M  V30 3393 O 309.069 -1.55069 -1.28513 0
M  V30 3394 C 306.134 -2.8692 -1.94623 0
M  V30 3395 C 305.195 -4.02378 -1.49633 0
M  V30 3396 C 304.428 -4.63678 -2.6427 0
M  V30 3397 O 304.651 -4.23895 -3.81666 0
M  V30 3398 O 303.585 -5.53202 -2.37174 0
M  V30 3399 H 307.411 -3.02977 -0.209462 0
M  V30 3400 H 304.996 -1.49353 -0.0373832 0
M  V30 3401 H 306.878 -3.27663 -2.64982 0
M  V30 3402 H 305.553 -2.09466 -2.46791 0
M  V30 3403 H 304.46 -3.66265 -0.761636 0
M  V30 3404 H 305.793 -4.81487 -1.02134 0
M  V30 3405 N 307.445 0.0818655 -1.57387 0
M  V30 3406 C 308.375 1.09885 -2.06028 0
M  V30 3407 C 309.356 1.4098 -0.951774 0
M  V30 3408 O 310.541 1.50781 -1.22387 0
M  V30 3409 C 307.671 2.4151 -2.4958 0
M  V30 3410 C 306.625 2.24792 -3.64215 0
M  V30 3411 C 305.951 3.61712 -3.93787 0
M  V30 3412 C 307.251 1.67749 -4.94629 0
M  V30 3413 H 308.945 0.694128 -2.91243 0
M  V30 3414 H 306.491 0.332448 -1.4011 0
M  V30 3415 H 308.444 3.12939 -2.82219 0
M  V30 3416 H 307.168 2.83943 -1.61381 0
M  V30 3417 H 305.827 1.55807 -3.31843 0
M  V30 3418 H 305.475 4.01697 -3.02735 0
M  V30 3419 H 305.175 3.51368 -4.70971 0
M  V30 3420 H 306.699 4.34587 -4.28913 0
M  V30 3421 H 308.113 2.29032 -5.25564 0
M  V30 3422 H 306.51 1.68128 -5.76067 0
M  V30 3423 H 307.58 0.638059 -4.80684 0
M  V30 3424 N 308.923 1.53595 0.353017 0
M  V30 3425 C 310.171 1.70049 1.09215 0
M  V30 3426 C 310.492 0.461406 1.89463 0
M  V30 3427 O 309.762 -0.524633 1.88744 0
M  V30 3428 H 308.342 0.626912 0.40619 0
M  V30 3429 H 311.004 1.90822 0.396585 0
M  V30 3430 H 310.1 2.56718 1.77488 0
M  V30 3431 N 310.401 -0.613514 1.45168 0
M  V30 3432 C 311.351 -1.71871 1.49815 0
M  V30 3433 C 312.335 -1.56774 0.362021 0
M  V30 3434 O 313.527 -1.66212 0.608493 0
M  V30 3435 C 310.656 -3.1061 1.46207 0
M  V30 3436 C 309.742 -3.31114 2.64999 0
M  V30 3437 N 310.133 -3.21904 3.90143 0
M  V30 3438 C 308.431 -3.61966 2.6057 0
M  V30 3439 C 309.132 -3.43577 4.69393 0
M  V30 3440 N 308.108 -3.67287 4.00751 0
M  V30 3441 H 311.91 -1.63235 2.444 0
M  V30 3442 H 309.424 -0.816577 1.40377 0
M  V30 3443 H 311.421 -3.8989 1.4762 0
M  V30 3444 H 310.081 -3.20399 0.52673 0
M  V30 3445 H 311.092 -3.00436 4.21852 0
M  V30 3446 H 307.769 -3.78629 1.75916 0
M  V30 3447 H 309.159 -3.41901 5.78406 0
M  V30 3448 N 311.879 -1.3236 -0.855495 0
M  V30 3449 C 313.107 -1.2587 -1.64208 0
M  V30 3450 C 313.522 0.173457 -1.88002 0
M  V30 3451 O 312.879 1.11027 -1.44842 0
M  V30 3452 C 312.93 -2.01424 -3.00184 0
M  V30 3453 O 312.651 -3.39051 -2.77445 0
M  V30 3454 C 314.152 -2.01948 -3.94629 0
M  V30 3455 H 311.372 -0.434318 -0.511477 0
M  V30 3456 H 313.916 -1.74469 -1.0668 0
M  V30 3457 H 312.071 -1.56549 -3.5436 0
M  V30 3458 H 312.485 -3.77711 -3.63916 0
M  V30 3459 H 313.959 -2.59297 -4.87308 0
M  V30 3460 H 314.436 -1.00554 -4.27534 0
M  V30 3461 H 315.042 -2.46767 -3.4639 0
M  V30 3462 N 313.357 1.07166 -1.15556 0
M  V30 3463 C 314.287 2.16403 -0.877046 0
M  V30 3464 C 315.268 1.69217 0.173111 0
M  V30 3465 O 316.453 1.94181 0.027084 0
M  V30 3466 C 313.583 3.45349 -0.367632 0
M  V30 3467 C 312.537 4.05995 -1.35468 0
M  V30 3468 C 311.863 5.30045 -0.704038 0
M  V30 3469 C 313.163 4.45804 -2.72132 0
M  V30 3470 H 314.857 2.39959 -1.79053 0
M  V30 3471 H 312.403 1.15325 -0.862331 0
M  V30 3472 H 314.356 4.21095 -0.160317 0
M  V30 3473 H 313.08 3.21385 0.581326 0
M  V30 3474 H 311.739 3.32296 -1.54839 0
M  V30 3475 H 311.387 5.02373 0.251128 0
M  V30 3476 H 311.087 5.71579 -1.36277 0
M  V30 3477 H 312.611 6.08495 -0.50654 0
M  V30 3478 H 314.025 5.12671 -2.56595 0
M  V30 3479 H 312.422 4.98296 -3.34397 0
M  V30 3480 H 313.492 3.57083 -3.28054 0
M  V30 3481 N 314.835 0.952656 1.25548 0
M  V30 3482 C 315.783 0.462354 2.27958 0
M  V30 3483 C 316.777 -0.46634 1.62855 0
M  V30 3484 O 317.983 -0.343287 1.76696 0
M  V30 3485 H 314.358 0.13101 0.7405 0
M  V30 3486 H 316.329 1.33839 2.66702 0
M  V30 3487 C 315.078 -0.24628 3.46827 0
M  V30 3488 H 314.401 0.459192 3.97154 0
M  V30 3489 H 315.841 -0.553393 4.20373 0
M  V30 3490 C 314.3 -1.4681 3.0323 0
M  V30 3491 O 314.83 -2.56591 3.09069 0
M  V30 3492 N 313.036 -1.32874 2.58443 0
M  V30 3493 H 312.583 -0.435536 2.53891 0
M  V30 3494 H 312.541 -2.14742 2.29637 0
M  V30 3495 N 316.313 -1.40141 0.720998 0
M  V30 3496 C 317.245 -2.29177 0.0324669 0
M  V30 3497 C 318.258 -1.46105 -0.718126 0
M  V30 3498 O 319.447 -1.69335 -0.564608 0
M  V30 3499 C 316.547 -3.24473 -0.978292 0
M  V30 3500 C 315.72 -4.36423 -0.292115 0
M  V30 3501 C 314.779 -5.12122 -1.20901 0
M  V30 3502 O 313.805 -5.64981 -0.691766 0
M  V30 3503 N 315.007 -5.21992 -2.53978 0
M  V30 3504 H 317.772 -2.88909 0.796984 0
M  V30 3505 H 315.333 -1.51569 0.569068 0
M  V30 3506 H 317.325 -3.71987 -1.59398 0
M  V30 3507 H 315.895 -2.65871 -1.64413 0
M  V30 3508 H 315.115 -3.90967 0.503847 0
M  V30 3509 H 316.403 -5.08467 0.183971 0
M  V30 3510 H 315.801 -4.8054 -2.98493 0
M  V30 3511 H 314.358 -5.72995 -3.10677 0
M  V30 3512 N 317.792 -0.46758 -1.50504 0
M  V30 3513 C 319.039 0.0886219 -2.02306 0
M  V30 3514 C 319.367 1.40037 -1.34981 0
M  V30 3515 O 318.622 1.90136 -0.463318 0
M  V30 3516 C 318.921 0.323995 -3.55928 0
M  V30 3517 C 318.587 -0.905618 -4.41712 0
M  V30 3518 C 317.249 -1.24275 -4.64875 0
M  V30 3519 C 319.601 -1.72448 -4.91845 0
M  V30 3520 C 316.929 -2.39888 -5.35417 0
M  V30 3521 C 319.281 -2.87185 -5.63656 0
M  V30 3522 C 317.945 -3.21317 -5.85074 0
M  V30 3523 H 317.215 0.0324291 -0.74029 0
M  V30 3524 H 319.862 -0.620945 -1.81153 0
M  V30 3525 H 318.167 1.11577 -3.75577 0
M  V30 3526 H 319.864 0.76826 -3.93572 0
M  V30 3527 H 316.454 -0.632956 -4.239 0
M  V30 3528 H 320.638 -1.4772 -4.73806 0
M  V30 3529 H 315.894 -2.66611 -5.50208 0
M  V30 3530 H 320.068 -3.50985 -6.01484 0
M  V30 3531 H 317.695 -4.1101 -6.39511 0
M  V30 3532 N 319.27 1.56325 -0.20005 0
M  V30 3533 C 320.547 1.89484 0.48529 0
M  V30 3534 C 320.927 1.1143 1.79294 0
M  V30 3535 O 320.275 0.216919 2.27468 0
M  V30 3536 C 320.485 3.41923 0.699243 0
M  V30 3537 C 321.833 4.12256 1.01638 0
M  V30 3538 O 322.857 3.47402 0.786792 0
M  V30 3539 O 321.716 5.26887 1.45095 0
M  V30 3540 H 318.81 0.787144 0.253639 0
M  V30 3541 H 321.356 1.67985 -0.240633 0
M  V30 3542 H 320.128 3.90658 -0.224008 0
M  V30 3543 H 319.751 3.69131 1.47744 0
M  V30 3544 N 320.748 -0.0735177 1.57428 0
M  V30 3545 C 321.994 -0.774145 1.87443 0
M  V30 3546 C 322.327 -1.77311 0.792103 0
M  V30 3547 O 321.602 -1.93492 -0.197793 0
M  V30 3548 C 321.885 -1.48367 3.28115 0
M  V30 3549 C 321.738 -0.501227 4.46999 0
M  V30 3550 C 323.057 -2.429 3.66998 0
M  V30 3551 H 320.176 -0.279971 0.681752 0
M  V30 3552 H 322.818 -0.0373616 1.89963 0
M  V30 3553 H 320.968 -2.11171 3.26097 0
M  V30 3554 H 322.64 0.121468 4.6114 0
M  V30 3555 H 320.883 0.183593 4.33411 0
M  V30 3556 H 321.554 -1.03526 5.42205 0
M  V30 3557 H 324.03 -1.90175 3.70098 0
M  V30 3558 H 322.906 -2.89549 4.66318 0
M  V30 3559 H 323.167 -3.27628 2.96837 0
M  V30 3560 N 322.226 -1.5378 -0.344866 0
M  V30 3561 C 323.472 -1.71216 -1.08687 0
M  V30 3562 C 323.805 -0.473281 -1.88345 0
M  V30 3563 O 323.08 0.52968 -1.87149 0
M  V30 3564 C 323.363 -2.97486 -2.02914 0
M  V30 3565 C 323.216 -4.31579 -1.26727 0
M  V30 3566 C 324.535 -3.19422 -3.0275 0
M  V30 3567 H 321.654 -0.62301 -0.393735 0
M  V30 3568 H 324.296 -1.8645 -0.365563 0
M  V30 3569 H 322.446 -2.84629 -2.64421 0
M  V30 3570 H 324.118 -4.56284 -0.67845 0
M  V30 3571 H 322.361 -4.30049 -0.569273 0
M  V30 3572 H 323.032 -5.16106 -1.95803 0
M  V30 3573 H 325.508 -3.316 -2.51357 0
M  V30 3574 H 324.384 -4.09169 -3.65885 0
M  V30 3575 H 324.645 -2.35656 -3.74057 0
M  V30 3576 N 323.704 0.605807 -1.45491 0
M  V30 3577 C 324.953 1.36086 -1.48874 0
M  V30 3578 C 325.266 1.95131 -0.135333 0
M  V30 3579 O 326.472 2.7146 -0.0468144 0
M  V30 3580 C 324.928 2.46518 -2.62215 0
M  V30 3581 C 324.536 1.93877 -4.03876 0
M  V30 3582 C 326.28 3.23512 -2.74846 0
M  V30 3583 C 324.187 3.01801 -5.08596 0
M  V30 3584 H 323.117 0.511497 -0.553974 0
M  V30 3585 H 325.768 0.649089 -1.71636 0
M  V30 3586 H 324.15 3.20388 -2.32739 0
M  V30 3587 H 325.324 1.26704 -4.43038 0
M  V30 3588 H 323.639 1.29622 -3.95711 0
M  V30 3589 H 326.236 4.04013 -3.50253 0
M  V30 3590 H 326.579 3.74631 -1.81542 0
M  V30 3591 H 327.112 2.56742 -3.03856 0
M  V30 3592 H 323.851 2.55597 -6.03614 0
M  V30 3593 H 323.371 3.67535 -4.74002 0
M  V30 3594 H 325.05 3.66152 -5.33424 0
M  V30 3595 N 325.182 1.32811 0.848464 0
M  V30 3596 C 326.598 1.11937 1.13764 0
M  V30 3597 C 326.798 -0.0960789 2.01271 0
M  V30 3598 O 325.854 -0.779165 2.40178 0
M  V30 3599 C 327.167 2.402 1.809 0
M  V30 3600 C 328.715 2.46016 1.93508 0
M  V30 3601 C 329.19 3.74215 2.64059 0
M  V30 3602 N 330.681 3.75232 2.71579 0
M  V30 3603 C 331.416 4.71134 3.26833 0
M  V30 3604 N 330.912 5.77406 3.8285 0
M  V30 3605 N 332.705 4.58623 3.24995 0
M  V30 3606 H 324.856 2.1073 0.265855 0
M  V30 3607 H 327.119 0.930671 0.180431 0
M  V30 3608 H 326.825 3.29093 1.24058 0
M  V30 3609 H 326.699 2.51628 2.81004 0
M  V30 3610 H 329.086 1.57577 2.49506 0
M  V30 3611 H 329.167 2.38536 0.923811 0
M  V30 3612 H 328.811 4.63031 2.08722 0
M  V30 3613 H 328.741 3.78968 3.65637 0
M  V30 3614 H 331.232 2.98423 2.31845 0
M  V30 3615 H 331.545 6.46632 4.23187 0
M  V30 3616 H 329.89 5.81152 3.81165 0
M  V30 3617 H 333.081 3.74762 2.80484 0
M  V30 3618 H 333.254 5.33535 3.67756 0
M  V30 3619 N 326.66 -1.06551 1.16123 0
M  V30 3620 C 327.59 -2.15935 0.88851 0
M  V30 3621 C 328.571 -1.69306 -0.164135 0
M  V30 3622 O 329.756 -1.94193 -0.0167857 0
M  V30 3623 C 326.886 -3.45149 0.385942 0
M  V30 3624 C 325.84 -4.05271 1.3762 0
M  V30 3625 C 325.166 -5.29664 0.732137 0
M  V30 3626 C 326.466 -4.44355 2.74493 0
M  V30 3627 H 328.16 -2.39006 1.80323 0
M  V30 3628 H 325.706 -1.14866 0.868435 0
M  V30 3629 H 327.659 -4.21004 0.182647 0
M  V30 3630 H 326.383 -3.21689 -0.564274 0
M  V30 3631 H 325.042 -3.3147 1.56599 0
M  V30 3632 H 324.69 -5.02499 -0.224483 0
M  V30 3633 H 324.39 -5.70848 1.39307 0
M  V30 3634 H 325.914 -6.08218 0.538802 0
M  V30 3635 H 327.328 -5.11303 2.59311 0
M  V30 3636 H 325.725 -4.96515 3.37035 0
M  V30 3637 H 326.795 -3.55339 3.29943 0
M  V30 3638 N 328.138 -0.959301 -1.25041 0
M  V30 3639 C 329.086 -0.474437 -2.2771 0
M  V30 3640 C 330.08 0.457697 -1.631 0
M  V30 3641 O 331.286 0.333912 -1.76876 0
M  V30 3642 H 327.661 -0.134936 -0.739795 0
M  V30 3643 H 329.632 -1.35251 -2.65988 0
M  V30 3644 C 328.381 0.227884 -3.46952 0
M  V30 3645 H 327.704 -0.480248 -3.96905 0
M  V30 3646 H 329.144 0.531091 -4.20661 0
M  V30 3647 C 327.603 1.452 -3.04004 0
M  V30 3648 O 328.133 2.54949 -3.10426 0
M  V30 3649 N 326.339 1.31502 -2.59144 0
M  V30 3650 H 325.886 0.422065 -2.54119 0
M  V30 3651 H 325.844 2.13521 -2.30773 0
M  V30 3652 N 329.616 1.39756 -0.72842 0
M  V30 3653 C 330.841 2.05472 -0.282159 0
M  V30 3654 C 331.266 1.54549 1.07221 0
M  V30 3655 O 330.624 0.686372 1.67805 0
M  V30 3656 C 330.672 3.59462 -0.286264 0
M  V30 3657 O 329.776 4.05918 0.728298 0
M  V30 3658 H 329.117 0.651226 -0.129618 0
M  V30 3659 H 331.647 1.78915 -0.992499 0
M  V30 3660 H 331.657 4.07798 -0.128373 0
M  V30 3661 H 330.332 3.95889 -1.27456 0
M  V30 3662 H 328.909 3.69012 0.537081 0
M  V30 3663 N 331.094 0.475555 1.50254 0
M  V30 3664 C 332.057 -0.305016 2.27161 0
M  V30 3665 C 333.057 -0.916519 1.32123 0
M  V30 3666 O 334.247 -0.785003 1.5551 0
M  V30 3667 C 331.379 -1.43496 3.09227 0
M  V30 3668 H 332.572 0.369511 2.97615 0
M  V30 3669 H 330.125 0.229747 1.54602 0
M  V30 3670 H 330.86 -2.14441 2.43281 0
M  V30 3671 H 330.645 -1.00223 3.79075 0
M  V30 3672 H 332.135 -1.98548 3.67381 0
M  V30 3673 N 332.573 -1.56217 0.208337 0
M  V30 3674 C 333.984 -1.84243 -0.301904 0
M  V30 3675 C 334.335 -1.12939 -1.60434 0
M  V30 3676 O 333.46 -0.39461 -2.12772 0
M  V30 3677 C 334.055 -3.34231 -0.554543 0
M  V30 3678 C 332.614 -3.62621 -1.00912 0
M  V30 3679 C 331.761 -2.77224 -0.064933 0
M  V30 3680 H 334.712 -1.52712 0.431833 0
M  V30 3681 H 334.733 -3.5372 -1.40223 0
M  V30 3682 H 334.245 -3.86099 0.393561 0
M  V30 3683 H 332.346 -3.16197 -1.97104 0
M  V30 3684 H 332.459 -4.7071 -0.892674 0
M  V30 3685 H 330.823 -2.48256 -0.56929 0
M  V30 3686 H 331.606 -3.31887 0.877851 0
M  V30 3687 N 334.051 0.0651679 -1.57465 0
M  V30 3688 C 335.297 0.764193 -1.87851 0
M  V30 3689 C 335.63 1.76889 -0.801495 0
M  V30 3690 O 334.905 1.93594 0.187528 0
M  V30 3691 C 335.188 1.46625 -3.28897 0
M  V30 3692 C 335.041 0.477515 -4.47258 0
M  V30 3693 C 336.36 2.4095 -3.68281 0
M  V30 3694 H 333.479 0.276351 -0.683227 0
M  V30 3695 H 336.121 0.0272868 -1.8998 0
M  V30 3696 H 334.271 2.09438 -3.27212 0
M  V30 3697 H 335.943 -0.145922 -4.61069 0
M  V30 3698 H 334.186 -0.206576 -4.33308 0
M  V30 3699 H 334.857 1.0065 -5.42746 0
M  V30 3700 H 337.333 1.88209 -3.71102 0
M  V30 3701 H 336.209 2.87072 -4.67847 0
M  V30 3702 H 336.47 3.26049 -2.98571 0
M  V30 3703 N 335.529 1.53961 0.336706 0
M  V30 3704 C 336.439 1.85432 1.43708 0
M  V30 3705 C 337.455 0.745053 1.57242 0
M  V30 3706 O 338.631 1.03804 1.72588 0
M  V30 3707 C 335.696 2.06349 2.78605 0
M  V30 3708 C 334.757 3.30191 2.74358 0
M  V30 3709 C 333.99 3.50101 4.02822 0
M  V30 3710 O 334.213 2.7371 5.00439 0
M  V30 3711 O 333.147 4.43547 4.06878 0
M  V30 3712 H 336.973 2.78975 1.20028 0
M  V30 3713 H 334.558 1.39701 0.52952 0
M  V30 3714 H 336.44 2.21513 3.58483 0
M  V30 3715 H 335.115 1.15995 3.02203 0
M  V30 3716 H 334.022 3.20425 1.93078 0
M  V30 3717 H 335.355 4.2056 2.55715 0
M  V30 3718 N 337.007 -0.598083 1.45811 0
M  V30 3719 C 338.255 -1.35413 1.50026 0
M  V30 3720 C 338.576 -1.94444 0.147177 0
M  V30 3721 O 337.846 -1.77701 -0.824571 0
M  V30 3722 H 336.426 -0.502727 0.552517 0
M  V30 3723 H 339.088 -0.701606 1.81834 0
M  V30 3724 H 338.184 -2.16871 2.2444 0
M  V30 3725 N 338.485 -1.33259 -0.841409 0
M  V30 3726 C 339.715 -1.2742 -1.62628 0
M  V30 3727 C 340.123 0.157604 -1.88542 0
M  V30 3728 O 339.466 1.10938 -1.46419 0
M  V30 3729 C 339.528 -1.97797 -3.00194 0
M  V30 3730 C 339.192 -3.47109 -2.97261 0
M  V30 3731 C 340.189 -4.42358 -2.73159 0
M  V30 3732 C 337.874 -3.89247 -3.17478 0
M  V30 3733 C 339.868 -5.77718 -2.69296 0
M  V30 3734 C 337.555 -5.24713 -3.13241 0
M  V30 3735 C 338.553 -6.1876 -2.89181 0
M  V30 3736 O 338.241 -7.51745 -2.84843 0
M  V30 3737 H 337.973 -0.440436 -0.512827 0
M  V30 3738 H 340.527 -1.76153 -1.05638 0
M  V30 3739 H 338.757 -1.43652 -3.59028 0
M  V30 3740 H 340.446 -1.8549 -3.61038 0
M  V30 3741 H 341.212 -4.11127 -2.57294 0
M  V30 3742 H 337.091 -3.16456 -3.35226 0
M  V30 3743 H 340.635 -6.51097 -2.50436 0
M  V30 3744 H 336.532 -5.55569 -3.28654 0
M  V30 3745 H 337.3 -7.61262 -3.00702 0
M  V30 3746 N 339.963 1.05934 -1.16686 0
M  V30 3747 C 341.188 1.83029 -0.975455 0
M  V30 3748 C 341.613 1.82096 0.471452 0
M  V30 3749 O 340.971 1.22443 1.33706 0
M  V30 3750 C 341.019 3.27372 -1.51195 0
M  V30 3751 O 340.123 4.06054 -0.720701 0
M  V30 3752 H 339.464 0.566194 -0.346872 0
M  V30 3753 H 341.994 1.33541 -1.55009 0
M  V30 3754 H 342.004 3.78186 -1.53099 0
M  V30 3755 H 340.679 3.27366 -2.56523 0
M  V30 3756 H 339.256 3.64812 -0.772458 0
M  V30 3757 N 341.441 0.965919 1.2453 0
M  V30 3758 C 342.351 0.502154 2.29163 0
M  V30 3759 C 343.367 -0.436017 1.68448 0
M  V30 3760 O 344.543 -0.309497 1.99008 0
M  V30 3761 C 341.608 -0.201956 3.46111 0
M  V30 3762 C 340.669 0.775821 4.22232 0
M  V30 3763 C 339.902 0.105217 5.33596 0
M  V30 3764 O 340.125 -1.10683 5.59558 0
M  V30 3765 O 339.059 0.796475 5.96607 0
M  V30 3766 H 342.885 1.37194 2.70946 0
M  V30 3767 H 340.47 0.732875 1.30189 0
M  V30 3768 H 342.352 -0.597564 4.17142 0
M  V30 3769 H 341.027 -1.04673 3.06309 0
M  V30 3770 H 339.934 1.22185 3.53584 0
M  V30 3771 H 341.267 1.58896 4.65846 0
M  V30 3772 N 342.919 -1.39368 0.735821 0
M  V30 3773 C 343.869 -2.27885 0.0724287 0
M  V30 3774 C 344.853 -1.44301 -0.711756 0
M  V30 3775 O 346.045 -1.67206 -0.58063 0
M  V30 3776 C 343.174 -3.33029 -0.833454 0
M  V30 3777 C 342.26 -4.24078 -0.0433749 0
M  V30 3778 N 342.651 -4.96138 0.983903 0
M  V30 3779 C 340.949 -4.45164 -0.272905 0
M  V30 3780 C 341.65 -5.63069 1.4604 0
M  V30 3781 N 340.626 -5.37991 0.778857 0
M  V30 3782 H 344.428 -2.81052 0.859467 0
M  V30 3783 H 341.942 -1.5206 0.570227 0
M  V30 3784 H 343.939 -3.95311 -1.32419 0
M  V30 3785 H 342.599 -2.81421 -1.61964 0
M  V30 3786 H 343.61 -4.9958 1.36528 0
M  V30 3787 H 340.287 -4.04497 -1.03383 0
M  V30 3788 H 341.677 -6.30755 2.31511 0
M  V30 3789 N 344.397 -0.483516 -1.5 0
M  V30 3790 C 345.643 0.0672592 -2.02688 0
M  V30 3791 C 345.976 1.38247 -1.36387 0
M  V30 3792 O 345.251 1.88131 -0.493675 0
M  V30 3793 C 345.534 0.238109 -3.59312 0
M  V30 3794 C 345.387 -1.099 -4.36168 0
M  V30 3795 C 346.706 0.986916 -4.28892 0
M  V30 3796 H 343.825 0.0229696 -0.736642 0
M  V30 3797 H 346.467 -0.631527 -1.79197 0
M  V30 3798 H 344.617 0.8333 -3.79458 0
M  V30 3799 H 346.289 -1.73172 -4.27562 0
M  V30 3800 H 344.532 -1.69261 -3.99416 0
M  V30 3801 H 345.203 -0.932954 -5.44059 0
M  V30 3802 H 347.679 0.482302 -4.13295 0
M  V30 3803 H 346.555 1.07527 -5.38265 0
M  V30 3804 H 346.816 2.0265 -3.92919 0
M  V30 3805 N 345.875 1.56104 -0.216619 0
M  V30 3806 C 347.123 1.97781 0.415593 0
M  V30 3807 C 347.444 1.10536 1.60645 0
M  V30 3808 O 346.714 0.181303 1.95059 0
M  V30 3809 H 345.294 0.730415 0.156534 0
M  V30 3810 H 347.956 1.92445 -0.308366 0
M  V30 3811 H 347.052 3.03072 0.74525 0
M  V30 3812 N 347.353 -0.0568162 1.57498 0
M  V30 3813 C 348.301 -1.08452 2.05769 0
M  V30 3814 C 349.295 -1.39164 0.965903 0
M  V30 3815 O 350.501 -1.38395 1.15095 0
M  V30 3816 H 346.876 -0.367148 0.656282 0
M  V30 3817 H 348.847 -0.651368 2.91204 0
M  V30 3818 C 347.596 -2.38543 2.52968 0
M  V30 3819 H 346.919 -2.15765 3.36579 0
M  V30 3820 H 348.359 -3.08863 2.90481 0
M  V30 3821 C 346.818 -3.05562 1.41893 0
M  V30 3822 O 347.348 -3.94262 0.769442 0
M  V30 3823 N 345.554 -2.6643 1.16032 0
M  V30 3824 H 345.101 -1.94387 1.6903 0
M  V30 3825 H 345.059 -3.11593 0.419219 0
M  V30 3826 N 348.832 -1.54138 -0.328536 0
M  V30 3827 C 349.779 -1.83176 -1.40411 0
M  V30 3828 C 350.749 -0.678494 -1.5161 0
M  V30 3829 O 351.934 -0.92443 -1.6691 0
M  V30 3830 C 349.074 -2.06035 -2.76846 0
M  V30 3831 C 348.187 -3.33727 -2.74318 0
M  V30 3832 C 347.322 -3.46574 -4.02567 0
M  V30 3833 C 346.361 -4.68159 -3.94327 0
M  V30 3834 N 345.498 -4.77959 -5.14296 0
M  V30 3835 H 350.338 -2.74938 -1.14948 0
M  V30 3836 H 347.875 -1.36166 -0.556538 0
M  V30 3837 H 349.833 -2.1728 -3.56153 0
M  V30 3838 H 348.463 -1.1757 -3.00628 0
M  V30 3839 H 347.515 -3.31246 -1.8703 0
M  V30 3840 H 348.827 -4.23139 -2.64111 0
M  V30 3841 H 347.981 -3.57333 -4.90304 0
M  V30 3842 H 346.72 -2.55245 -4.15574 0
M  V30 3843 H 345.725 -4.57461 -3.04974 0
M  V30 3844 H 346.95 -5.60868 -3.82889 0
M  V30 3845 H 344.896 -3.89544 -5.27818 0
M  V30 3846 H 344.813 -5.6133 -5.06404 0
M  V30 3847 H 346.081 -4.93044 -6.03761 0
M  V30 3848 N 350.31 0.590341 -1.46126 0
M  V30 3849 C 351.538 1.37504 -1.54597 0
M  V30 3850 C 351.953 1.87897 -0.184447 0
M  V30 3851 O 351.31 1.63192 0.816984 0
M  V30 3852 C 351.361 2.56779 -2.54454 0
M  V30 3853 O 351.082 2.08476 -3.85317 0
M  V30 3854 C 352.583 3.49427 -2.72792 0
M  V30 3855 H 349.803 0.420325 -0.523037 0
M  V30 3856 H 352.347 0.718383 -1.91467 0
M  V30 3857 H 350.502 3.1845 -2.20609 0
M  V30 3858 H 350.916 2.86097 -4.396 0
M  V30 3859 H 352.39 4.29619 -3.466 0
M  V30 3860 H 352.867 4.00876 -1.79429 0
M  V30 3861 H 353.473 2.93598 -3.07702 0
M  V30 3862 N 351.788 1.33704 0.83433 0
M  V30 3863 C 353.016 1.28467 1.62185 0
M  V30 3864 C 353.431 -0.143526 1.88254 0
M  V30 3865 O 352.788 -1.08709 1.4659 0
M  V30 3866 C 352.839 2.06174 2.96942 0
M  V30 3867 O 352.56 3.43422 2.72016 0
M  V30 3868 C 354.061 2.08201 3.91366 0
M  V30 3869 H 351.281 0.4424 0.504503 0
M  V30 3870 H 353.825 1.76145 1.03891 0
M  V30 3871 H 351.98 1.62167 3.51825 0
M  V30 3872 H 352.394 3.83453 3.57861 0
M  V30 3873 H 353.868 2.67017 4.83121 0
M  V30 3874 H 354.345 1.07343 4.2588 0
M  V30 3875 H 354.951 2.52246 3.42421 0
M  V30 3876 N 353.266 -1.05314 1.17247 0
M  V30 3877 C 354.515 -1.77685 0.954521 0
M  V30 3878 C 354.828 -1.88616 -0.518025 0
M  V30 3879 O 356.034 -2.57714 -0.854144 0
M  V30 3880 C 354.49 -3.19402 1.65863 0
M  V30 3881 C 354.098 -3.16605 3.16963 0
M  V30 3882 C 355.842 -3.96237 1.52303 0
M  V30 3883 C 353.749 -4.53103 3.80068 0
M  V30 3884 H 352.679 -0.666 0.353496 0
M  V30 3885 H 355.33 -1.1805 1.40486 0
M  V30 3886 H 353.712 -3.79355 1.13602 0
M  V30 3887 H 354.886 -2.66176 3.76148 0
M  V30 3888 H 353.201 -2.53268 3.30521 0
M  V30 3889 H 355.798 -4.97157 1.96822 0
M  V30 3890 H 356.141 -4.136 0.473401 0
M  V30 3891 H 356.674 -3.42829 2.01775 0
M  V30 3892 H 353.413 -4.40946 4.85023 0
M  V30 3893 H 352.933 -5.03686 3.2567 0
M  V30 3894 H 354.612 -5.22045 3.82202 0
M  V30 3895 N 354.744 -0.972509 -1.24016 0
M  V30 3896 C 356.16 -0.679827 -1.44397 0
M  V30 3897 C 356.36 0.756716 -1.86751 0
M  V30 3898 O 355.416 1.53007 -2.00861 0
M  V30 3899 C 356.729 -1.66803 -2.50195 0
M  V30 3900 C 358.277 -1.68119 -2.64017 0
M  V30 3901 C 358.752 -2.65748 -3.73017 0
M  V30 3902 N 360.243 -2.64219 -3.8045 0
M  V30 3903 C 360.978 -3.36433 -4.64328 0
M  V30 3904 N 360.474 -4.1818 -5.52356 0
M  V30 3905 N 362.267 -3.25235 -4.58453 0
M  V30 3906 H 354.418 -1.90059 -0.948228 0
M  V30 3907 H 356.681 -0.818527 -0.478245 0
M  V30 3908 H 356.387 -2.69498 -2.25973 0
M  V30 3909 H 356.261 -1.4446 -3.48441 0
M  V30 3910 H 358.648 -0.661319 -2.87594 0
M  V30 3911 H 358.729 -1.94525 -1.66113 0
M  V30 3912 H 358.373 -3.67872 -3.50189 0
M  V30 3913 H 358.303 -2.36619 -4.70446 0
M  V30 3914 H 360.794 -2.04887 -3.17537 0
M  V30 3915 H 361.107 -4.70157 -6.13329 0
M  V30 3916 H 359.452 -4.22273 -5.52006 0
M  V30 3917 H 362.643 -2.60829 -3.88698 0
M  V30 3918 H 362.816 -3.81776 -5.23594 0
M  V30 3919 N 356.222 1.38976 -0.743202 0
M  V30 3920 C 357.155 2.28128 -0.0572165 0
M  V30 3921 C 358.133 1.44827 0.739182 0
M  V30 3922 O 359.317 1.74207 0.720009 0
M  V30 3923 C 356.444 3.25796 0.926001 0
M  V30 3924 C 355.49 4.25947 0.217099 0
M  V30 3925 S 356.323 5.24604 -1.07477 0
M  V30 3926 C 357.479 6.25829 -0.0943545 0
M  V30 3927 H 357.712 2.85961 -0.813246 0
M  V30 3928 H 355.245 1.44822 -0.535341 0
M  V30 3929 H 357.203 3.82583 1.48797 0
M  V30 3930 H 355.864 2.66966 1.65493 0
M  V30 3931 H 355.057 4.94746 0.961372 0
M  V30 3932 H 354.659 3.73002 -0.273059 0
M  V30 3933 H 356.951 6.73411 0.743239 0
M  V30 3934 H 357.894 7.0412 -0.749713 0
M  V30 3935 H 358.302 5.63797 0.281706 0
M  V30 3936 N 357.7 0.491464 1.49741 0
M  V30 3937 C 358.928 -0.0535151 2.06831 0
M  V30 3938 C 359.343 -1.31683 1.35296 0
M  V30 3939 O 358.7 -1.77402 0.42836 0
M  V30 3940 C 358.751 -0.320835 3.60073 0
M  V30 3941 O 358.472 0.892394 4.28915 0
M  V30 3942 C 359.973 -0.910519 4.33848 0
M  V30 3943 H 357.193 0.0161909 0.670805 0
M  V30 3944 H 359.737 0.68609 1.92647 0
M  V30 3945 H 357.892 -1.0104 3.73991 0
M  V30 3946 H 358.306 0.649401 5.20464 0
M  V30 3947 H 359.78 -1.04721 5.41976 0
M  V30 3948 H 360.257 -1.90589 3.95692 0
M  V30 3949 H 360.863 -0.258712 4.24512 0
M  V30 3950 N 359.178 -1.55987 0.224894 0
M  V30 3951 C 360.408 -2.02489 -0.41007 0
M  V30 3952 C 360.816 -1.10391 -1.53657 0
M  V30 3953 O 360.159 -0.106458 -1.83391 0
M  V30 3954 C 360.221 -3.45319 -0.999757 0
M  V30 3955 C 359.885 -4.56999 -0.00827976 0
M  V30 3956 C 360.882 -5.13812 0.793314 0
M  V30 3957 C 358.567 -5.02176 0.111442 0
M  V30 3958 C 360.561 -6.14276 1.7013 0
M  V30 3959 C 358.248 -6.02477 1.02296 0
M  V30 3960 C 359.246 -6.58403 1.81643 0
M  V30 3961 O 358.934 -7.56751 2.71262 0
M  V30 3962 H 358.666 -0.667915 -0.104235 0
M  V30 3963 H 361.22 -2.0257 0.339782 0
M  V30 3964 H 359.45 -3.42318 -1.79876 0
M  V30 3965 H 361.139 -3.7545 -1.54248 0
M  V30 3966 H 361.905 -4.79756 0.711288 0
M  V30 3967 H 357.784 -4.58323 -0.49605 0
M  V30 3968 H 361.328 -6.57854 2.32107 0
M  V30 3969 H 357.225 -6.35954 1.10599 0
M  V30 3970 H 357.993 -7.74286 2.65375 0
M  V30 3971 N 360.656 0.0484629 -1.57525 0
M  V30 3972 C 362.067 0.597486 -1.76881 0
M  V30 3973 C 362.418 1.76664 -0.853475 0
M  V30 3974 O 361.543 2.16357 -0.0433656 0
M  V30 3975 C 362.138 1.09066 -3.20765 0
M  V30 3976 C 360.697 1.58535 -3.41385 0
M  V30 3977 C 359.844 0.514868 -2.72478 0
M  V30 3978 H 362.795 -0.177758 -1.57701 0
M  V30 3979 H 362.816 1.95875 -3.2621 0
M  V30 3980 H 362.328 0.239521 -3.8736 0
M  V30 3981 H 360.429 2.45898 -2.79937 0
M  V30 3982 H 360.542 1.64622 -4.49929 0
M  V30 3983 H 358.906 0.965407 -2.35695 0
M  V30 3984 H 359.689 -0.32648 -3.41744 0
M  V30 3985 N 362.134 1.5431 0.320358 0
M  V30 3986 C 363.044 1.86946 1.41734 0
M  V30 3987 C 364.06 0.761689 1.56443 0
M  V30 3988 O 365.236 1.05629 1.71477 0
M  V30 3989 C 362.301 2.09293 2.76401 0
M  V30 3990 C 361.362 3.33082 2.70841 0
M  V30 3991 C 360.595 3.54353 3.99086 0
M  V30 3992 O 360.818 2.79002 4.97508 0
M  V30 3993 O 359.752 4.47838 4.0215 0
M  V30 3994 H 363.578 2.80232 1.17062 0
M  V30 3995 H 361.163 1.40255 0.514673 0
M  V30 3996 H 363.045 2.25303 3.56113 0
M  V30 3997 H 361.72 1.19194 3.00956 0
M  V30 3998 H 360.627 3.22454 1.89668 0
M  V30 3999 H 361.96 4.23249 2.5124 0
M  V30 4000 N 363.613 -0.582584 1.46437 0
M  V30 4001 C 364.861 -1.33814 1.51453 0
M  V30 4002 C 365.182 -1.94277 0.167792 0
M  V30 4003 O 364.452 -1.78566 -0.805677 0
M  V30 4004 H 363.032 -0.496838 0.557818 0
M  V30 4005 H 365.694 -0.682281 1.82568 0
M  V30 4006 H 364.79 -2.14479 2.26728 0
M  V30 4007 N 365.091 -1.34144 -0.827227 0
M  V30 4008 C 366.054 -1.25264 -1.91942 0
M  V30 4009 C 367.054 -0.168866 -1.59911 0
M  V30 4010 O 368.244 -0.421198 -1.69031 0
M  V30 4011 C 365.376 -0.932952 -3.27885 0
M  V30 4012 H 366.569 -2.22357 -2.0124 0
M  V30 4013 H 364.122 -1.1837 -1.0207 0
M  V30 4014 H 364.857 0.0349917 -3.24281 0
M  V30 4015 H 364.642 -1.71682 -3.52516 0
M  V30 4016 H 366.132 -0.895874 -4.07877 0
M  V30 4017 N 366.569 1.04691 -1.17803 0
M  V30 4018 C 367.98 1.59238 -0.974689 0
M  V30 4019 C 368.331 1.90306 0.477292 0
M  V30 4020 O 367.456 1.68846 1.35352 0
M  V30 4021 C 368.051 2.89318 -1.76296 0
M  V30 4022 C 366.61 3.40506 -1.60414 0
M  V30 4023 C 365.757 2.14172 -1.76141 0
M  V30 4024 H 368.708 0.874395 -1.32439 0
M  V30 4025 H 368.729 3.5944 -1.24833 0
M  V30 4026 H 368.241 2.66675 -2.81968 0
M  V30 4027 H 366.342 3.68175 -0.572519 0
M  V30 4028 H 366.455 4.14753 -2.39827 0
M  V30 4029 H 364.819 2.25176 -1.19028 0
M  V30 4030 H 365.602 1.93992 -2.83235 0
M  V30 4031 N 368.047 0.979072 1.23499 0
M  V30 4032 C 368.977 0.537606 2.27227 0
M  V30 4033 C 369.958 -0.428539 1.64613 0
M  V30 4034 O 371.143 -0.322191 1.91509 0
M  V30 4035 C 368.273 -0.162052 3.46922 0
M  V30 4036 C 367.227 0.721242 4.21879 0
M  V30 4037 C 366.553 -0.110555 5.34586 0
M  V30 4038 C 367.853 2.01141 4.82016 0
M  V30 4039 H 369.547 1.40462 2.64406 0
M  V30 4040 H 367.093 0.67684 1.27102 0
M  V30 4041 H 369.046 -0.482192 4.18632 0
M  V30 4042 H 367.77 -1.06351 3.08799 0
M  V30 4043 H 366.429 1.02482 3.51984 0
M  V30 4044 H 366.077 -1.0125 4.92704 0
M  V30 4045 H 365.777 0.477325 5.85658 0
M  V30 4046 H 367.301 -0.425107 6.09118 0
M  V30 4047 H 368.715 1.75612 5.45741 0
M  V30 4048 H 367.112 2.54695 5.43369 0
M  V30 4049 H 368.182 2.69909 4.02836 0
M  V30 4050 N 369.525 -1.3858 0.750561 0
M  V30 4051 C 370.75 -2.04997 0.314812 0
M  V30 4052 C 371.175 -1.56235 -1.04749 0
M  V30 4053 O 370.533 -0.712981 -1.66692 0
M  V30 4054 C 370.581 -3.58961 0.343415 0
M  V30 4055 O 369.685 -4.07025 -0.663628 0
M  V30 4056 H 369.026 -0.649081 0.139962 0
M  V30 4057 H 371.556 -1.77313 1.02084 0
M  V30 4058 H 371.566 -4.07542 0.193233 0
M  V30 4059 H 370.241 -3.93811 1.33738 0
M  V30 4060 H 368.818 -3.6982 -0.478307 0
M  V30 4061 N 371.003 -0.499398 -1.49478 0
M  V30 4062 C 372.28 0.108629 -1.95298 0
M  V30 4063 C 372.66 1.54282 -1.44084 0
M  V30 4064 O 372.008 2.18944 -0.653908 0
M  V30 4065 C 372.218 0.0229111 -3.48992 0
M  V30 4066 C 373.566 0.197643 -4.2414 0
M  V30 4067 O 374.59 0.0981735 -3.56065 0
M  V30 4068 O 373.449 0.401669 -5.45022 0
M  V30 4069 H 370.543 0.096181 -0.821388 0
M  V30 4070 H 373.089 -0.561822 -1.6013 0
M  V30 4071 H 371.861 -0.977321 -3.78899 0
M  V30 4072 H 371.484 0.733579 -3.90774 0
M  V30 4073 N 372.481 1.55866 -0.233164 0
M  V30 4074 C 373.411 2.23783 0.666599 0
M  V30 4075 C 374.392 1.21343 1.19205 0
M  V30 4076 O 375.577 1.4996 1.23392 0
M  V30 4077 C 372.707 2.92671 1.86978 0
M  V30 4078 C 371.661 4.01682 1.47768 0
M  V30 4079 C 370.987 4.57926 2.76058 0
M  V30 4080 C 372.287 5.18126 0.658993 0
M  V30 4081 H 373.981 2.99232 0.100306 0
M  V30 4082 H 371.527 1.43924 0.046804 0
M  V30 4083 H 373.48 3.3888 2.50476 0
M  V30 4084 H 372.204 2.14688 2.46123 0
M  V30 4085 H 370.863 3.56222 0.866106 0
M  V30 4086 H 370.511 3.76659 3.33372 0
M  V30 4087 H 370.211 5.31505 2.50552 0
M  V30 4088 H 371.735 5.06859 3.40479 0
M  V30 4089 H 373.149 5.60644 1.19795 0
M  V30 4090 H 371.546 5.98009 0.500552 0
M  V30 4091 H 372.616 4.83763 -0.331856 0
M  V30 4092 N 373.959 -0.0401083 1.57549 0
M  V30 4093 C 374.869 -1.06133 2.0922 0
M  V30 4094 C 375.885 -1.40356 1.0284 0
M  V30 4095 O 377.061 -1.49897 1.34509 0
M  V30 4096 C 374.126 -2.34658 2.55218 0
M  V30 4097 C 373.187 -2.07117 3.76033 0
M  V30 4098 C 372.42 -3.29514 4.19829 0
M  V30 4099 O 372.643 -4.39794 3.63232 0
M  V30 4100 O 371.577 -3.15863 5.12362 0
M  V30 4101 H 375.403 -0.652244 2.96613 0
M  V30 4102 H 372.988 -0.256368 1.47184 0
M  V30 4103 H 374.87 -3.10239 2.85184 0
M  V30 4104 H 373.545 -2.74883 1.70941 0
M  V30 4105 H 372.452 -1.29139 3.51104 0
M  V30 4106 H 373.785 -1.71754 4.61261 0
M  V30 4107 N 375.437 -1.54477 -0.31217 0
M  V30 4108 C 376.667 -1.76948 -1.06645 0
M  V30 4109 C 377.075 -0.523593 -1.81811 0
M  V30 4110 O 376.418 0.51578 -1.76311 0
M  V30 4111 C 376.48 -2.91668 -2.10166 0
M  V30 4112 C 376.144 -4.30165 -1.54296 0
M  V30 4113 C 377.141 -5.10603 -0.978793 0
M  V30 4114 C 374.826 -4.76738 -1.58196 0
M  V30 4115 C 376.82 -6.3573 -0.461048 0
M  V30 4116 C 374.507 -6.01831 -1.06034 0
M  V30 4117 C 375.505 -6.81161 -0.500844 0
M  V30 4118 O 375.193 -8.03899 0.0128958 0
M  V30 4119 H 374.925 -0.594088 -0.322546 0
M  V30 4120 H 377.479 -2.02213 -0.360441 0
M  V30 4121 H 375.709 -2.62001 -2.84416 0
M  V30 4122 H 377.398 -3.01817 -2.71406 0
M  V30 4123 H 378.164 -4.75771 -0.941651 0
M  V30 4124 H 374.043 -4.15027 -2.00683 0
M  V30 4125 H 377.587 -6.97596 -0.0236894 0
M  V30 4126 H 373.484 -6.36152 -1.09459 0
M  V30 4127 H 374.252 -8.18437 -0.101457 0
M  V30 4128 N 376.915 0.57481 -1.46744 0
M  V30 4129 C 378.145 1.35659 -1.55821 0
M  V30 4130 C 378.553 1.88129 -0.201036 0
M  V30 4131 O 377.896 1.64723 0.813134 0
M  V30 4132 C 377.958 2.57473 -2.50894 0
M  V30 4133 C 377.622 2.26415 -3.9697 0
M  V30 4134 C 378.619 1.84771 -4.85958 0
M  V30 4135 C 376.304 2.38316 -4.42166 0
M  V30 4136 C 378.298 1.55434 -6.18158 0
M  V30 4137 C 375.985 2.08591 -5.74398 0
M  V30 4138 C 376.983 1.67216 -6.62214 0
M  V30 4139 O 376.671 1.37859 -7.91991 0
M  V30 4140 H 376.403 0.420496 -0.529301 0
M  V30 4141 H 378.957 0.704967 -1.92923 0
M  V30 4142 H 377.187 3.25468 -2.08824 0
M  V30 4143 H 378.876 3.19546 -2.50291 0
M  V30 4144 H 379.642 1.75085 -4.52295 0
M  V30 4145 H 375.521 2.69483 -3.74032 0
M  V30 4146 H 379.065 1.23065 -6.86659 0
M  V30 4147 H 374.962 2.17905 -6.07608 0
M  V30 4148 H 375.73 1.51638 -8.04331 0
M  V30 4149 N 378.394 1.34581 0.820102 0
M  V30 4150 C 379.619 1.30333 1.61332 0
M  V30 4151 C 380.044 -0.119339 1.87721 0
M  V30 4152 O 379.402 -1.08197 1.45475 0
M  V30 4153 C 379.45 2.10258 2.92957 0
M  V30 4154 O 378.554 1.47404 3.85157 0
M  V30 4155 H 377.895 0.447488 0.490561 0
M  V30 4156 H 380.425 1.77425 1.01889 0
M  V30 4157 H 380.435 2.21718 3.42498 0
M  V30 4158 H 379.11 3.13693 2.73074 0
M  V30 4159 H 377.687 1.44703 3.43679 0
M  V30 4160 N 379.872 -1.04064 1.18357 0
M  V30 4161 C 380.82 -2.14187 0.907007 0
M  V30 4162 C 381.814 -1.68879 -0.132725 0
M  V30 4163 O 383.02 -1.79993 0.0154248 0
M  V30 4164 H 379.395 -0.699585 0.275835 0
M  V30 4165 H 381.366 -2.34711 1.84264 0
M  V30 4166 C 380.115 -3.44785 0.449254 0
M  V30 4167 H 379.438 -3.80058 1.24081 0
M  V30 4168 H 380.878 -4.22974 0.294737 0
M  V30 4169 C 379.337 -3.26391 -0.834909 0
M  V30 4170 O 379.867 -3.53973 -1.89911 0
M  V30 4171 N 378.073 -2.79726 -0.787523 0
M  V30 4172 H 377.62 -2.5748 0.0787347 0
M  V30 4173 H 377.578 -2.67798 -1.64716 0
M  V30 4174 N 381.35 -0.985608 -1.22978 0
M  V30 4175 C 382.627 -0.573599 -1.87001 0
M  V30 4176 C 383.007 0.949213 -1.88555 0
M  V30 4177 O 382.355 1.82811 -1.37086 0
M  V30 4178 C 382.565 -1.18564 -3.28243 0
M  V30 4179 C 383.913 -1.28163 -4.04796 0
M  V30 4180 O 384.937 -1.13949 -3.37482 0
M  V30 4181 O 383.796 -1.50832 -5.25273 0
M  V30 4182 H 380.89 -0.193868 -0.803955 0
M  V30 4183 H 383.436 -1.08102 -1.30813 0
M  V30 4184 H 382.208 -2.22758 -3.21706 0
M  V30 4185 H 381.831 -0.663363 -3.92027 0
M  V30 4186 N 382.828 1.3818 -0.7579 0
M  V30 4187 C 383.758 2.33027 -0.148597 0
M  V30 4188 C 384.739 1.55085 0.69875 0
M  V30 4189 O 385.924 1.83384 0.639053 0
M  V30 4190 C 383.054 3.3928 0.742034 0
M  V30 4191 C 382.008 4.28 -0.00291946 0
M  V30 4192 C 381.334 5.25146 1.00625 0
M  V30 4193 C 382.634 5.08938 -1.17385 0
M  V30 4194 H 384.328 2.84231 -0.940909 0
M  V30 4195 H 381.874 1.36659 -0.453908 0
M  V30 4196 H 383.827 4.046 1.17799 0
M  V30 4197 H 382.551 2.86569 1.56671 0
M  V30 4198 H 381.21 3.64192 -0.419504 0
M  V30 4199 H 380.858 4.68721 1.8251 0
M  V30 4200 H 380.558 5.85361 0.512428 0
M  V30 4201 H 382.082 5.93342 1.44143 0
M  V30 4202 H 383.496 5.67474 -0.815224 0
M  V30 4203 H 381.893 5.7841 -1.59882 0
M  V30 4204 H 382.963 4.42424 -1.98468 0
M  V30 4205 N 384.306 0.507319 1.49211 0
M  V30 4206 C 385.553 -0.0349529 2.0247 0
M  V30 4207 C 385.881 -1.36409 1.38647 0
M  V30 4208 O 385.136 -1.88841 0.513566 0
M  V30 4209 C 385.435 -0.229513 3.56662 0
M  V30 4210 C 385.101 1.02241 4.39156 0
M  V30 4211 C 383.763 1.36557 4.61417 0
M  V30 4212 C 386.115 1.85428 4.871 0
M  V30 4213 C 383.443 2.53999 5.28868 0
M  V30 4214 C 385.795 3.02028 5.55843 0
M  V30 4215 C 384.459 3.36717 5.76349 0
M  V30 4216 H 383.729 -0.0127902 0.74089 0
M  V30 4217 H 386.376 0.668756 1.79443 0
M  V30 4218 H 384.681 -1.0158 3.78403 0
M  V30 4219 H 386.378 -0.663641 3.9547 0
M  V30 4220 H 382.968 0.745124 4.22073 0
M  V30 4221 H 387.152 1.6023 4.69723 0
M  V30 4222 H 382.408 2.81105 5.42946 0
M  V30 4223 H 386.582 3.66808 5.91967 0
M  V30 4224 H 384.209 4.27821 6.28389 0
M  V30 4225 N 385.784 -1.5574 0.241426 0
M  V30 4226 C 387.03 -1.99104 -0.385406 0
M  V30 4227 C 387.363 -1.1293 -1.57988 0
M  V30 4228 O 386.638 -0.191449 -1.93555 0
M  V30 4229 C 386.921 -3.51087 -0.800616 0
M  V30 4230 C 386.774 -4.48028 0.398874 0
M  V30 4231 C 388.093 -4.08015 -1.64959 0
M  V30 4232 H 385.212 -0.723848 -0.138614 0
M  V30 4233 H 387.854 -1.86903 0.341642 0
M  V30 4234 H 386.004 -3.61615 -1.4201 0
M  V30 4235 H 387.676 -4.49487 1.03726 0
M  V30 4236 H 385.919 -4.21077 1.04293 0
M  V30 4237 H 386.59 -5.51962 0.0651056 0
M  V30 4238 H 389.066 -4.00555 -1.12672 0
M  V30 4239 H 387.942 -5.14635 -1.90898 0
M  V30 4240 H 388.203 -3.56131 -2.61961 0
M  V30 4241 N 387.262 0.0317525 -1.57568 0
M  V30 4242 C 388.225 1.01783 -2.0536 0
M  V30 4243 C 389.225 1.29203 -0.957253 0
M  V30 4244 O 390.415 1.24251 -1.22095 0
M  V30 4245 C 387.547 2.35137 -2.46827 0
M  V30 4246 H 388.74 0.605062 -2.93733 0
M  V30 4247 H 386.293 0.278514 -1.53799 0
M  V30 4248 H 387.028 2.81168 -1.61602 0
M  V30 4249 H 386.813 2.16566 -3.26866 0
M  V30 4250 H 388.303 3.05938 -2.84239 0
M  V30 4251 N 388.74 1.54641 0.303973 0
M  V30 4252 C 389.986 1.74038 1.04109 0
M  V30 4253 C 390.319 0.523051 1.87024 0
M  V30 4254 O 389.594 -0.479874 1.88487 0
M  V30 4255 C 389.877 3.02761 1.94955 0
M  V30 4256 C 389.73 4.34787 1.1524 0
M  V30 4257 C 391.049 3.27336 2.94175 0
M  V30 4258 H 388.168 0.63323 0.377079 0
M  V30 4259 H 390.81 1.87354 0.316001 0
M  V30 4260 H 388.96 2.9154 2.56782 0
M  V30 4261 H 390.632 4.57922 0.557236 0
M  V30 4262 H 388.875 4.31407 0.455053 0
M  V30 4263 H 389.546 5.21116 1.8205 0
M  V30 4264 H 392.022 3.38148 2.42477 0
M  V30 4265 H 390.898 4.18726 3.54908 0
M  V30 4266 H 391.159 2.45491 3.67677 0
M  V30 4267 N 390.218 -0.567019 1.47046 0
M  V30 4268 C 391.148 -1.68482 1.61667 0
M  V30 4269 C 392.129 -1.6358 0.466418 0
M  V30 4270 O 393.314 -1.81354 0.694574 0
M  V30 4271 C 390.444 -3.07124 1.62148 0
M  V30 4272 C 389.398 -3.26867 2.76301 0
M  V30 4273 C 388.724 -4.66196 2.61849 0
M  V30 4274 C 390.024 -3.13186 4.17986 0
M  V30 4275 H 391.718 -1.56502 2.5524 0
M  V30 4276 H 389.264 -0.751486 1.22836 0
M  V30 4277 H 391.217 -3.8516 1.70968 0
M  V30 4278 H 389.941 -3.2004 0.651287 0
M  V30 4279 H 388.6 -2.51237 2.66975 0
M  V30 4280 H 388.248 -4.75898 1.62879 0
M  V30 4281 H 387.948 -4.80356 3.38425 0
M  V30 4282 H 389.472 -5.46379 2.72584 0
M  V30 4283 H 390.886 -3.81049 4.2834 0
M  V30 4284 H 389.283 -3.3886 4.95272 0
M  V30 4285 H 390.353 -2.10057 4.3704 0
M  V30 4286 N 391.696 -1.35014 -0.812953 0
M  V30 4287 C 392.943 -1.27931 -1.56971 0
M  V30 4288 C 393.271 0.148034 -1.93936 0
M  V30 4289 O 392.526 1.11175 -1.61054 0
M  V30 4290 C 392.825 -2.12524 -2.87347 0
M  V30 4291 C 392.491 -3.61401 -2.6963 0
M  V30 4292 C 391.153 -4.01983 -2.64506 0
M  V30 4293 C 393.505 -4.55894 -2.52607 0
M  V30 4294 C 390.833 -5.35235 -2.40293 0
M  V30 4295 C 393.185 -5.89336 -2.29925 0
M  V30 4296 C 391.849 -6.2907 -2.23219 0
M  V30 4297 H 391.119 -0.468131 -0.574399 0
M  V30 4298 H 393.766 -1.66851 -0.939836 0
M  V30 4299 H 392.071 -1.66463 -3.54679 0
M  V30 4300 H 393.768 -2.04383 -3.45005 0
M  V30 4301 H 390.358 -3.29193 -2.74463 0
M  V30 4302 H 394.542 -4.25431 -2.55583 0
M  V30 4303 H 389.798 -5.65028 -2.33566 0
M  V30 4304 H 393.972 -6.62139 -2.15743 0
M  V30 4305 H 391.599 -7.32256 -2.04219 0
M  V30 4306 N 393.175 1.03435 -1.18907 0
M  V30 4307 C 394.122 2.11591 -0.921837 0
M  V30 4308 C 395.092 1.65499 0.141226 0
M  V30 4309 O 396.277 1.908 0.000242829 0
M  V30 4310 C 393.417 3.42012 -0.460616 0
M  V30 4311 C 392.53 4.01682 -1.58982 0
M  V30 4312 C 391.665 5.20091 -1.08069 0
M  V30 4313 C 390.704 5.71805 -2.18416 0
M  V30 4314 N 389.841 6.81494 -1.68849 0
M  V30 4315 H 394.681 2.33787 -1.8479 0
M  V30 4316 H 392.218 1.1467 -0.921373 0
M  V30 4317 H 394.176 4.16834 -0.174642 0
M  V30 4318 H 392.806 3.19944 0.428467 0
M  V30 4319 H 391.858 3.24127 -1.99113 0
M  V30 4320 H 393.17 4.36084 -2.4214 0
M  V30 4321 H 392.324 6.02051 -0.749615 0
M  V30 4322 H 391.063 4.87209 -0.218771 0
M  V30 4323 H 390.068 4.88461 -2.5236 0
M  V30 4324 H 391.293 6.06728 -3.05054 0
M  V30 4325 H 389.239 6.50475 -0.849572 0
M  V30 4326 H 389.156 7.14994 -2.45601 0
M  V30 4327 H 390.424 7.67063 -1.38689 0
M  V30 4328 N 394.653 0.992116 1.22453 0
M  V30 4329 C 395.878 0.685644 1.95739 0
M  V30 4330 C 396.303 -0.743 1.72804 0
M  V30 4331 O 395.661 -1.50778 1.00676 0
M  V30 4332 C 395.709 0.996293 3.46564 0
M  V30 4333 O 394.813 0.0945512 4.12292 0
M  V30 4334 H 394.154 0.256694 0.612376 0
M  V30 4335 H 396.684 1.32888 1.5557 0
M  V30 4336 H 396.694 0.93781 3.97076 0
M  V30 4337 H 395.369 2.03733 3.62582 0
M  V30 4338 H 393.946 0.208451 3.72317 0
M  V30 4339 N 396.131 -1.37776 0.765217 0
M  V30 4340 C 397.377 -2.00145 0.327072 0
M  V30 4341 C 397.71 -1.60607 -1.09175 0
M  V30 4342 O 396.985 -0.849127 -1.74986 0
M  V30 4343 C 397.268 -3.57109 0.46319 0
M  V30 4344 C 397.121 -4.06576 1.92395 0
M  V30 4345 C 398.44 -4.39888 -0.136473 0
M  V30 4346 H 395.559 -0.727113 0.120316 0
M  V30 4347 H 398.201 -1.63549 0.967039 0
M  V30 4348 H 396.351 -3.88414 -0.0816358 0
M  V30 4349 H 398.023 -3.85864 2.52798 0
M  V30 4350 H 396.266 -3.59011 2.43503 0
M  V30 4351 H 396.937 -5.15639 1.97028 0
M  V30 4352 H 399.413 -4.14803 0.328317 0
M  V30 4353 H 398.289 -5.48899 -0.0110582 0
M  V30 4354 H 398.55 -4.24758 -1.22608 0
M  V30 4355 N 397.609 -0.515225 -1.4894 0
M  V30 4356 C 398.886 0.0879088 -1.95402 0
M  V30 4357 C 399.266 1.52745 -1.45712 0
M  V30 4358 O 398.614 2.18238 -0.677093 0
M  V30 4359 C 398.824 -0.0141055 -3.48997 0
M  V30 4360 C 400.172 0.152646 -4.24326 0
M  V30 4361 O 401.196 0.0604025 -3.56149 0
M  V30 4362 O 400.055 0.34384 -5.45417 0
M  V30 4363 H 397.149 0.0874636 -0.822362 0
M  V30 4364 H 399.695 -0.578775 -1.59525 0
M  V30 4365 H 398.467 -1.01745 -3.77841 0
M  V30 4366 H 398.09 0.692091 -3.9153 0
M  V30 4367 N 399.087 1.5561 -0.249682 0
M  V30 4368 C 400.334 1.99011 0.374287 0
M  V30 4369 C 400.662 1.13785 1.57744 0
M  V30 4370 O 399.917 0.189326 1.94782 0
M  V30 4371 C 400.216 3.4775 0.824887 0
M  V30 4372 C 399.882 4.50086 -0.270819 0
M  V30 4373 C 398.544 4.77791 -0.571746 0
M  V30 4374 C 400.896 5.11312 -1.01041 0
M  V30 4375 C 398.224 5.63997 -1.61629 0
M  V30 4376 C 400.576 5.98651 -2.0445 0
M  V30 4377 C 399.24 6.24688 -2.35204 0
M  V30 4378 H 398.51 0.728233 0.136961 0
M  V30 4379 H 401.157 1.88122 -0.358087 0
M  V30 4380 H 399.462 3.55985 1.63651 0
M  V30 4381 H 401.159 3.78721 1.31799 0
M  V30 4382 H 397.749 4.28592 -0.026136 0
M  V30 4383 H 401.933 4.89953 -0.791177 0
M  V30 4384 H 397.189 5.82425 -1.85988 0
M  V30 4385 H 401.363 6.45135 -2.62248 0
M  V30 4386 H 398.99 6.91281 -3.16282 0
M  V30 4387 N 400.565 -0.0233959 1.57583 0
M  V30 4388 C 401.513 -1.04063 2.08023 0
M  V30 4389 C 402.507 -1.37084 0.995204 0
M  V30 4390 O 403.713 -1.35923 1.18004 0
M  V30 4391 H 400.088 -0.353144 0.663922 0
M  V30 4392 H 402.059 -0.589453 2.9252 0
M  V30 4393 C 400.808 -2.33123 2.57971 0
M  V30 4394 H 400.131 -2.08577 3.4108 0
M  V30 4395 H 401.571 -3.02632 2.96967 0
M  V30 4396 C 400.03 -3.02483 1.48342 0
M  V30 4397 O 400.56 -3.92541 0.852898 0
M  V30 4398 N 398.766 -2.63909 1.21658 0
M  V30 4399 H 398.313 -1.90758 1.73116 0
M  V30 4400 H 398.271 -3.10633 0.485218 0
M  V30 4401 N 402.043 -1.548 -0.295768 0
M  V30 4402 C 403.289 -1.75517 -1.02789 0
M  V30 4403 C 403.644 -0.537266 -1.84746 0
M  V30 4404 O 402.937 0.470299 -1.85738 0
M  V30 4405 C 403.131 -2.98797 -1.961 0
M  V30 4406 C 402.96 -4.3246 -1.23321 0
M  V30 4407 C 401.73 -4.96131 -0.95822 0
M  V30 4408 C 403.928 -5.10365 -0.635024 0
M  V30 4409 N 401.91 -6.1357 -0.201257 0
M  V30 4410 C 403.281 -6.19999 -0.0110937 0
M  V30 4411 C 405.336 -4.94957 -0.540594 0
M  V30 4412 C 404.039 -7.15904 0.698136 0
M  V30 4413 C 406.065 -5.91197 0.154992 0
M  V30 4414 C 405.427 -7.00203 0.767752 0
M  V30 4415 H 401.526 -0.694786 -0.358882 0
M  V30 4416 H 404.11 -1.92281 -0.305943 0
M  V30 4417 H 402.281 -2.83448 -2.6554 0
M  V30 4418 H 404.013 -3.08017 -2.62502 0
M  V30 4419 H 400.768 -4.56595 -1.25771 0
M  V30 4420 H 401.192 -6.76802 0.16389 0
M  V30 4421 H 405.834 -4.10803 -1.00003 0
M  V30 4422 H 403.552 -7.99595 1.16933 0
M  V30 4423 H 407.138 -5.81353 0.228069 0
M  V30 4424 H 406.018 -7.73393 1.29743 0
M  V30 4425 N 403.521 0.559213 -1.47345 0
M  V30 4426 C 404.451 1.67622 -1.62558 0
M  V30 4427 C 405.432 1.63331 -0.475087 0
M  V30 4428 O 406.617 1.80983 -0.704182 0
M  V30 4429 C 403.747 3.0626 -1.63774 0
M  V30 4430 C 402.701 3.25397 -2.7803 0
M  V30 4431 C 402.027 4.64801 -2.64318 0
M  V30 4432 C 403.327 3.10965 -4.19641 0
M  V30 4433 H 405.021 1.55146 -2.56067 0
M  V30 4434 H 402.567 0.744961 -1.23233 0
M  V30 4435 H 404.52 3.84247 -1.73008 0
M  V30 4436 H 403.244 3.1969 -0.66825 0
M  V30 4437 H 401.903 2.49817 -2.68304 0
M  V30 4438 H 401.551 4.75028 -1.65401 0
M  V30 4439 H 401.251 4.78555 -3.40968 0
M  V30 4440 H 402.775 5.44926 -2.75478 0
M  V30 4441 H 404.189 3.78772 -4.30354 0
M  V30 4442 H 402.586 3.36229 -4.97062 0
M  V30 4443 H 403.656 2.07736 -4.38148 0
M  V30 4444 N 404.999 1.35443 0.805782 0
M  V30 4445 C 405.931 1.24285 1.92577 0
M  V30 4446 C 406.944 0.165962 1.61952 0
M  V30 4447 O 408.133 0.419303 1.73505 0
M  V30 4448 C 405.233 0.891272 3.2697 0
M  V30 4449 C 404.406 2.06669 3.85495 0
M  V30 4450 C 403.465 1.69077 4.98297 0
M  V30 4451 O 402.491 2.4096 5.15681 0
M  V30 4452 N 403.693 0.614869 5.77234 0
M  V30 4453 H 406.458 2.20777 2.02676 0
M  V30 4454 H 404.019 1.28623 0.983243 0
M  V30 4455 H 406.011 0.621256 3.99903 0
M  V30 4456 H 404.581 0.016004 3.12596 0
M  V30 4457 H 403.801 2.50046 3.04747 0
M  V30 4458 H 405.089 2.85237 4.21328 0
M  V30 4459 H 404.487 0.017648 5.65697 0
M  V30 4460 H 403.044 0.404636 6.50543 0
M  V30 4461 N 406.477 -1.02803 1.19454 0
M  V30 4462 C 407.44 -2.09264 0.934955 0
M  V30 4463 C 408.44 -1.60576 -0.0849015 0
M  V30 4464 O 409.63 -1.73554 0.149933 0
M  V30 4465 C 406.762 -3.38482 0.40531 0
M  V30 4466 H 407.955 -2.33726 1.87916 0
M  V30 4467 H 405.508 -1.19426 1.00832 0
M  V30 4468 H 406.243 -3.19689 -0.544899 0
M  V30 4469 H 406.028 -3.75142 1.14065 0
M  V30 4470 H 407.518 -4.16894 0.242806 0
M  V30 4471 N 407.956 -0.998596 -1.21925 0
M  V30 4472 C 408.889 -0.498517 -2.22688 0
M  V30 4473 C 409.867 0.444301 -1.56412 0
M  V30 4474 O 411.051 0.368518 -1.84863 0
M  V30 4475 C 408.178 0.276639 -3.37568 0
M  V30 4476 C 407.224 -0.61302 -4.22071 0
M  V30 4477 S 408.057 -2.07168 -4.93803 0
M  V30 4478 C 409.213 -1.30617 -6.12119 0
M  V30 4479 H 409.446 -1.35234 -2.64762 0
M  V30 4480 H 406.979 -0.806018 -1.31692 0
M  V30 4481 H 408.937 0.717817 -4.04175 0
M  V30 4482 H 407.598 1.10581 -2.93991 0
M  V30 4483 H 406.791 -0.0162909 -5.03997 0
M  V30 4484 H 406.393 -0.991202 -3.60626 0
M  V30 4485 H 408.685 -0.57675 -6.75041 0
M  V30 4486 H 409.628 -2.10091 -6.76215 0
M  V30 4487 H 410.036 -0.816957 -5.58557 0
M  V30 4488 N 409.434 1.37368 -0.772513 0
M  V30 4489 C 410.68 1.99969 -0.337681 0
M  V30 4490 C 411.013 1.61184 1.08321 0
M  V30 4491 O 410.288 0.858395 1.74533 0
M  V30 4492 C 410.571 3.56858 -0.482121 0
M  V30 4493 C 410.424 4.0555 -1.94549 0
M  V30 4494 C 411.743 4.39955 0.113143 0
M  V30 4495 H 408.862 0.726464 -0.124171 0
M  V30 4496 H 411.504 1.63034 -0.975699 0
M  V30 4497 H 409.654 3.88452 0.0610361 0
M  V30 4498 H 411.326 3.84518 -2.54841 0
M  V30 4499 H 409.569 3.57715 -2.45403 0
M  V30 4500 H 410.24 5.14587 -1.9976 0
M  V30 4501 H 412.716 4.14623 -0.35031 0
M  V30 4502 H 411.592 5.48897 -0.0180514 0
M  V30 4503 H 411.853 4.25403 1.20354 0
M  V30 4504 N 410.912 0.523116 1.48665 0
M  V30 4505 C 411.859 -0.243398 2.29513 0
M  V30 4506 C 412.829 -0.940139 1.36933 0
M  V30 4507 O 414.014 -0.942503 1.65896 0
M  V30 4508 C 411.154 -1.28855 3.20141 0
M  V30 4509 C 410.267 -0.60135 4.27794 0
M  V30 4510 C 409.402 -1.62884 5.05611 0
M  V30 4511 C 408.441 -0.924726 6.05075 0
M  V30 4512 N 407.578 -1.89744 6.75975 0
M  V30 4513 H 412.418 0.452234 2.94549 0
M  V30 4514 H 409.955 0.234858 1.45213 0
M  V30 4515 H 411.913 -1.90674 3.71079 0
M  V30 4516 H 410.543 -1.95266 2.57043 0
M  V30 4517 H 409.595 0.130623 3.80176 0
M  V30 4518 H 410.907 -0.0481585 4.98777 0
M  V30 4519 H 410.061 -2.32149 5.60528 0
M  V30 4520 H 408.8 -2.21592 4.34452 0
M  V30 4521 H 407.805 -0.217966 5.49368 0
M  V30 4522 H 409.03 -0.343851 6.78229 0
M  V30 4523 H 406.976 -2.47373 6.07571 0
M  V30 4524 H 406.893 -1.3955 7.43009 0
M  V30 4525 H 408.161 -2.58229 7.35485 0
M  V30 4526 N 412.39 -1.55475 0.257931 0
M  V30 4527 C 413.337 -2.21837 -0.636939 0
M  V30 4528 C 414.307 -1.18596 -1.16294 0
M  V30 4529 O 415.492 -1.47081 -1.21539 0
M  V30 4530 C 412.632 -2.9301 -1.82317 0
M  V30 4531 C 411.745 -4.10931 -1.33265 0
M  V30 4532 C 410.88 -4.69791 -2.47931 0
M  V30 4533 C 409.919 -5.7994 -1.95796 0
M  V30 4534 N 409.056 -6.32935 -3.0387 0
M  V30 4535 H 413.896 -2.9793 -0.0643591 0
M  V30 4536 H 411.433 -1.47086 -0.0200031 0
M  V30 4537 H 413.391 -3.3248 -2.52018 0
M  V30 4538 H 412.021 -2.1937 -2.36805 0
M  V30 4539 H 411.073 -3.76699 -0.52931 0
M  V30 4540 H 412.385 -4.90417 -0.910654 0
M  V30 4541 H 411.539 -5.11892 -3.25656 0
M  V30 4542 H 410.278 -3.89545 -2.93438 0
M  V30 4543 H 409.283 -5.37305 -1.16546 0
M  V30 4544 H 410.508 -6.62043 -1.51246 0
M  V30 4545 H 408.454 -5.55591 -3.48791 0
M  V30 4546 H 408.371 -7.07645 -2.66035 0
M  V30 4547 H 409.639 -6.79695 -3.81621 0
M  V30 4548 N 413.868 0.0150385 -1.57593 0
M  V30 4549 C 414.778 1.02791 -2.10882 0
M  V30 4550 C 415.794 1.38702 -1.0506 0
M  V30 4551 O 416.97 1.47739 -1.36877 0
M  V30 4552 C 414.035 2.30568 -2.58919 0
M  V30 4553 C 413.096 2.01108 -3.79281 0
M  V30 4554 C 412.329 3.22794 -4.25018 0
M  V30 4555 O 412.552 4.33959 -3.70183 0
M  V30 4556 O 411.486 3.07672 -5.17322 0
M  V30 4557 H 415.312 0.604973 -2.97613 0
M  V30 4558 H 412.897 0.23292 -1.47573 0
M  V30 4559 H 414.779 3.05662 -2.90084 0
M  V30 4560 H 413.454 2.72129 -1.75293 0
M  V30 4561 H 412.361 1.23537 -3.53114 0
M  V30 4562 H 413.694 1.64394 -4.63935 0
M  V30 4563 N 415.346 1.54954 0.287554 0
M  V30 4564 C 416.574 1.78881 1.03967 0
M  V30 4565 C 416.989 0.554894 1.80462 0
M  V30 4566 O 416.346 -0.475676 1.76192 0
M  V30 4567 C 416.397 3.00488 2.0097 0
M  V30 4568 O 416.118 4.19113 1.27577 0
M  V30 4569 C 417.619 3.36907 2.88112 0
M  V30 4570 H 414.839 0.596259 0.307761 0
M  V30 4571 H 417.383 2.01937 0.322749 0
M  V30 4572 H 415.538 2.79601 2.68145 0
M  V30 4573 H 415.952 4.87765 1.92835 0
M  V30 4574 H 417.426 4.25205 3.52001 0
M  V30 4575 H 417.903 2.55659 3.57121 0
M  V30 4576 H 418.509 3.60001 2.26449 0
M  V30 4577 N 416.824 -0.551391 1.4764 0
M  V30 4578 C 417.754 -1.66757 1.63445 0
M  V30 4579 C 418.735 -1.63077 0.483742 0
M  V30 4580 O 419.92 -1.80607 0.71377 0
M  V30 4581 C 417.05 -3.05387 1.65396 0
M  V30 4582 C 416.004 -3.23918 2.79752 0
M  V30 4583 C 415.33 -4.63393 2.66779 0
M  V30 4584 C 416.63 -3.08735 4.21284 0
M  V30 4585 H 418.324 -1.53786 2.56886 0
M  V30 4586 H 415.87 -0.738415 1.23626 0
M  V30 4587 H 417.823 -3.83325 1.75043 0
M  V30 4588 H 416.547 -3.19332 0.685195 0
M  V30 4589 H 415.206 -2.48391 2.69625 0
M  V30 4590 H 414.854 -4.74144 1.67918 0
M  V30 4591 H 414.554 -4.7674 3.43501 0
M  V30 4592 H 416.078 -5.43458 2.78364 0
M  V30 4593 H 417.492 -3.76484 4.32357 0
M  V30 4594 H 415.889 -3.33588 4.98838 0
M  V30 4595 H 416.959 -2.0541 4.39243 0
M  V30 4596 N 418.302 -1.35869 -0.798587 0
M  V30 4597 C 419.713 -1.26498 -1.37314 0
M  V30 4598 C 420.064 0.0991899 -1.95949 0
M  V30 4599 O 419.189 1.0004 -1.91888 0
M  V30 4600 C 419.784 -2.29054 -2.49639 0
M  V30 4601 C 418.343 -2.234 -3.02935 0
M  V30 4602 C 417.49 -2.14329 -1.75949 0
M  V30 4603 H 420.441 -1.46881 -0.600971 0
M  V30 4604 H 420.462 -1.92166 -3.28409 0
M  V30 4605 H 419.974 -3.2833 -2.06933 0
M  V30 4606 H 418.075 -1.27562 -3.50084 0
M  V30 4607 H 418.188 -3.15703 -3.60372 0
M  V30 4608 H 416.552 -1.60435 -1.9782 0
M  V30 4609 H 417.335 -3.15477 -1.35384 0
M  V30 4610 N 419.78 1.02168 -1.19998 0
M  V30 4611 C 421.027 1.75685 -1.00702 0
M  V30 4612 C 421.355 1.88947 0.461426 0
M  V30 4613 O 420.61 1.40832 1.35885 0
M  V30 4614 C 420.909 3.18081 -1.62969 0
M  V30 4615 C 420.575 3.24809 -3.12746 0
M  V30 4616 C 419.237 3.26352 -3.53621 0
M  V30 4617 C 421.589 3.23379 -4.08749 0
M  V30 4618 C 418.917 3.2413 -4.89036 0
M  V30 4619 C 421.269 3.22698 -5.44104 0
M  V30 4620 C 419.933 3.22542 -5.84399 0
M  V30 4621 H 419.203 0.642877 -0.368496 0
M  V30 4622 H 421.85 1.19865 -1.49348 0
M  V30 4623 H 420.155 3.77027 -1.06573 0
M  V30 4624 H 421.852 3.73648 -1.45561 0
M  V30 4625 H 418.442 3.2434 -2.80181 0
M  V30 4626 H 422.626 3.21361 -3.78207 0
M  V30 4627 H 417.882 3.22338 -5.19527 0
M  V30 4628 H 422.056 3.20543 -6.18244 0
M  V30 4629 H 419.683 3.20575 -6.89301 0
M  V30 4630 N 421.258 1.00505 1.21394 0
M  V30 4631 C 422.504 0.698477 1.91031 0
M  V30 4632 C 422.859 -0.762448 1.76648 0
M  V30 4633 O 422.152 -1.54554 1.13241 0
M  V30 4634 C 422.346 1.0546 3.41486 0
M  V30 4635 C 422.175 2.5486 3.70508 0
M  V30 4636 C 420.945 3.21461 3.8986 0
M  V30 4637 C 423.143 3.53019 3.74008 0
M  V30 4638 N 421.125 4.60211 4.06299 0
M  V30 4639 C 422.496 4.77279 3.95733 0
M  V30 4640 C 424.551 3.47154 3.56915 0
M  V30 4641 C 423.254 5.96388 4.02137 0
M  V30 4642 C 425.28 4.65652 3.64585 0
M  V30 4643 C 424.642 5.88717 3.86771 0
M  V30 4644 H 420.741 0.30707 0.719189 0
M  V30 4645 H 423.325 1.28753 1.46051 0
M  V30 4646 H 421.496 0.494007 3.85246 0
M  V30 4647 H 423.228 0.702765 3.98552 0
M  V30 4648 H 419.983 2.71906 3.87768 0
M  V30 4649 H 420.407 5.32216 4.1842 0
M  V30 4650 H 425.049 2.53015 3.38738 0
M  V30 4651 H 422.767 6.90919 4.19114 0
M  V30 4652 H 426.353 4.62717 3.52681 0
M  V30 4653 H 425.233 6.78877 3.92549 0
M  V30 4654 N 422.737 -1.36956 0.779787 0
M  V30 4655 C 423.983 -1.99787 0.348281 0
M  V30 4656 C 424.316 -1.61756 -1.07465 0
M  V30 4657 O 423.591 -0.867639 -1.74075 0
M  V30 4658 C 423.874 -3.56597 0.50104 0
M  V30 4659 C 423.727 -4.04513 1.96697 0
M  V30 4660 C 425.046 -4.40008 -0.0898097 0
M  V30 4661 H 422.165 -0.725796 0.128022 0
M  V30 4662 H 424.807 -1.62514 0.984331 0
M  V30 4663 H 422.957 -3.88479 -0.0404347 0
M  V30 4664 H 424.629 -3.83161 2.56876 0
M  V30 4665 H 422.872 -3.56408 2.47297 0
M  V30 4666 H 423.543 -5.1352 2.02486 0
M  V30 4667 H 426.019 -4.14431 0.372293 0
M  V30 4668 H 424.895 -5.4888 0.0471605 0
M  V30 4669 H 425.156 -4.26035 -1.18096 0
M  V30 4670 N 424.215 -0.530993 -1.48385 0
M  V30 4671 C 425.631 -0.188919 -1.58478 0
M  V30 4672 C 425.831 1.30786 -1.53288 0
M  V30 4673 O 424.887 2.08619 -1.42248 0
M  V30 4674 C 426.2 -0.792343 -2.90073 0
M  V30 4675 C 427.748 -0.76117 -3.03604 0
M  V30 4676 C 428.223 -1.34319 -4.37861 0
M  V30 4677 N 429.714 -1.3052 -4.44431 0
M  V30 4678 C 430.449 -1.72543 -5.46824 0
M  V30 4679 N 429.945 -2.22299 -6.56167 0
M  V30 4680 N 431.738 -1.63773 -5.37712 0
M  V30 4681 H 423.889 -1.50377 -1.50002 0
M  V30 4682 H 426.152 -0.625559 -0.712306 0
M  V30 4683 H 425.858 -1.84323 -2.99529 0
M  V30 4684 H 425.732 -0.270026 -3.76232 0
M  V30 4685 H 428.119 0.280957 -2.93759 0
M  V30 4686 H 428.2 -1.32097 -2.19053 0
M  V30 4687 H 427.844 -2.38425 -4.4846 0
M  V30 4688 H 427.774 -0.759064 -5.21101 0
M  V30 4689 H 430.265 -0.940973 -3.65997 0
M  V30 4690 H 430.578 -2.52356 -7.30436 0
M  V30 4691 H 428.923 -2.26293 -6.57127 0
M  V30 4692 H 432.114 -1.24698 -4.51185 0
M  V30 4693 H 432.287 -1.96844 -6.17379 0
M  V30 4694 N 425.693 1.55336 -0.266172 0
M  V30 4695 C 426.623 2.25146 0.618981 0
M  V30 4696 C 427.604 1.23845 1.16604 0
M  V30 4697 O 428.789 1.52544 1.20183 0
M  V30 4698 C 425.919 2.96572 1.80728 0
M  V30 4699 C 424.873 4.04726 1.39215 0
M  V30 4700 C 424.199 4.63678 2.66283 0
M  V30 4701 C 425.499 5.19407 0.548942 0
M  V30 4702 H 427.193 2.99377 0.0368116 0
M  V30 4703 H 424.739 1.43991 0.0162651 0
M  V30 4704 H 426.692 3.44116 2.43232 0
M  V30 4705 H 425.416 2.19861 2.41514 0
M  V30 4706 H 424.075 3.57979 0.790351 0
M  V30 4707 H 423.723 3.83646 3.25308 0
M  V30 4708 H 423.423 5.367 2.39222 0
M  V30 4709 H 424.947 5.13967 3.29651 0
M  V30 4710 H 426.361 5.63059 1.07876 0
M  V30 4711 H 424.758 5.98936 0.373593 0
M  V30 4712 H 425.828 4.8295 -0.434394 0
M  V30 4713 N 427.171 -0.0066808 1.57599 0
M  V30 4714 C 428.418 -0.69292 1.90276 0
M  V30 4715 C 428.746 -1.74148 0.866192 0
M  V30 4716 O 428.001 -1.95268 -0.129933 0
M  V30 4717 C 428.3 -1.37939 3.29708 0
M  V30 4718 C 427.966 -0.464679 4.48499 0
M  V30 4719 C 426.628 -0.212809 4.80729 0
M  V30 4720 C 428.98 0.16551 5.20937 0
M  V30 4721 C 426.308 0.677653 5.82773 0
M  V30 4722 C 428.66 1.04381 6.23929 0
M  V30 4723 C 427.324 1.30492 6.54621 0
M  V30 4724 H 426.594 -0.253558 0.696268 0
M  V30 4725 H 429.241 0.0474123 1.91441 0
M  V30 4726 H 427.546 -2.1936 3.24636 0
M  V30 4727 H 429.243 -1.9163 3.52249 0
M  V30 4728 H 425.833 -0.671153 4.23313 0
M  V30 4729 H 430.017 -0.0160756 4.96297 0
M  V30 4730 H 425.273 0.88803 6.04917 0
M  V30 4731 H 429.447 1.53851 6.79193 0
M  V30 4732 H 427.074 1.99662 7.33512 0
M  V30 4733 N 428.649 -1.55105 -0.279332 0
M  V30 4734 C 429.896 -1.75412 -1.01177 0
M  V30 4735 C 430.224 -0.551728 -1.86511 0
M  V30 4736 O 429.479 0.465919 -1.90073 0
M  V30 4737 C 429.778 -3.0086 -1.92919 0
M  V30 4738 C 429.444 -4.33689 -1.23387 0
M  V30 4739 C 428.106 -4.69792 -1.04159 0
M  V30 4740 C 430.458 -5.15941 -0.738562 0
M  V30 4741 C 427.786 -5.85707 -0.341166 0
M  V30 4742 C 430.138 -6.32579 -0.0517636 0
M  V30 4743 C 428.802 -6.67326 0.152292 0
M  V30 4744 H 428.072 -0.641879 -0.370233 0
M  V30 4745 H 430.719 -1.89373 -0.284627 0
M  V30 4746 H 429.024 -2.81773 -2.72234 0
M  V30 4747 H 430.721 -3.13768 -2.49701 0
M  V30 4748 H 427.311 -4.05309 -1.39364 0
M  V30 4749 H 431.495 -4.8853 -0.874764 0
M  V30 4750 H 426.751 -6.11157 -0.172287 0
M  V30 4751 H 430.925 -6.9557 0.339828 0
M  V30 4752 H 428.552 -7.56998 0.697014 0
M  V30 4753 N 430.127 0.543554 -1.4793 0
M  V30 4754 C 431.373 1.29961 -1.56466 0
M  V30 4755 C 431.728 1.91024 -0.229696 0
M  V30 4756 O 431.021 1.75619 0.766072 0
M  V30 4757 C 431.215 2.42078 -2.62932 0
M  V30 4758 C 431.044 1.92003 -4.06651 0
M  V30 4759 C 429.814 1.75223 -4.73946 0
M  V30 4760 C 432.012 1.45648 -4.93245 0
M  V30 4761 N 429.994 1.19632 -6.02131 0
M  V30 4762 C 431.365 1.01914 -6.11566 0
M  V30 4763 C 433.42 1.33826 -4.79578 0
M  V30 4764 C 432.123 0.475301 -7.17728 0
M  V30 4765 C 434.149 0.808427 -5.85848 0
M  V30 4766 C 433.511 0.381081 -7.03368 0
M  V30 4767 H 429.61 0.467086 -0.62718 0
M  V30 4768 H 432.194 0.614543 -1.84747 0
M  V30 4769 H 430.365 3.08098 -2.36496 0
M  V30 4770 H 432.097 3.09096 -2.61231 0
M  V30 4771 H 428.852 1.98345 -4.30065 0
M  V30 4772 H 429.276 0.93885 -6.70458 0
M  V30 4773 H 433.918 1.65474 -3.89074 0
M  V30 4774 H 431.636 0.146472 -8.07967 0
M  V30 4775 H 435.222 0.720315 -5.77324 0
M  V30 4776 H 434.102 -0.0225344 -7.84197 0
M  V30 4777 N 431.605 1.3629 0.791371 0
M  V30 4778 C 432.552 1.30458 1.90393 0
M  V30 4779 C 433.522 0.173632 1.6519 0
M  V30 4780 O 434.707 0.35983 1.87376 0
M  V30 4781 C 431.847 1.09777 3.27174 0
M  V30 4782 C 430.96 2.31929 3.64462 0
M  V30 4783 C 430.095 2.04276 4.90352 0
M  V30 4784 C 429.134 3.224 5.20312 0
M  V30 4785 N 428.271 2.94424 6.37385 0
M  V30 4786 H 433.111 2.25589 1.94714 0
M  V30 4787 H 430.648 1.12122 0.952216 0
M  V30 4788 H 432.606 0.958133 4.06049 0
M  V30 4789 H 431.236 0.183014 3.22281 0
M  V30 4790 H 430.288 2.56703 2.80727 0
M  V30 4791 H 431.6 3.20085 3.82553 0
M  V30 4792 H 430.754 1.87231 5.77087 0
M  V30 4793 H 429.493 1.13428 4.74326 0
M  V30 4794 H 428.498 3.40005 4.32061 0
M  V30 4795 H 429.723 4.14071 5.38258 0
M  V30 4796 H 427.669 2.06185 6.22755 0
M  V30 4797 H 427.586 3.76118 6.55798 0
M  V30 4798 H 428.854 2.80953 7.27108 0
M  V30 4799 N 433.083 -1.0153 1.20538 0
M  V30 4800 C 434.015 -2.10224 0.913155 0
M  V30 4801 C 435.028 -1.62495 -0.0995998 0
M  V30 4802 O 436.217 -1.78014 0.131582 0
M  V30 4803 C 433.317 -3.37111 0.347717 0
M  V30 4804 C 432.49 -4.13971 1.41233 0
M  V30 4805 C 431.549 -5.19158 0.857976 0
M  V30 4806 O 430.575 -5.48 1.53897 0
M  V30 4807 N 431.777 -5.7955 -0.331966 0
M  V30 4808 H 434.542 -2.35879 1.84881 0
M  V30 4809 H 432.103 -1.17931 1.10923 0
M  V30 4810 H 434.095 -4.04683 -0.0373026 0
M  V30 4811 H 432.665 -3.08696 -0.492527 0
M  V30 4812 H 431.885 -3.41351 1.97163 0
M  V30 4813 H 433.173 -4.62103 2.12928 0
M  V30 4814 H 432.571 -5.58455 -0.902478 0
M  V30 4815 H 431.128 -6.48464 -0.65861 0
M  V30 4816 N 434.561 -1.01147 -1.20859 0
M  V30 4817 C 435.807 -0.698899 -1.90377 0
M  V30 4818 C 436.14 0.76904 -1.78324 0
M  V30 4819 O 435.415 1.55817 -1.16409 0
M  V30 4820 C 435.698 -1.12878 -3.41951 0
M  V30 4821 C 435.551 -2.65665 -3.62963 0
M  V30 4822 C 436.87 -0.696114 -4.3456 0
M  V30 4823 H 433.989 -0.255372 -0.691342 0
M  V30 4824 H 436.631 -1.25831 -1.42361 0
M  V30 4825 H 434.781 -0.652827 -3.82976 0
M  V30 4826 H 436.453 -3.21074 -3.31224 0
M  V30 4827 H 434.696 -3.06878 -3.06608 0
M  V30 4828 H 435.367 -2.90797 -4.69192 0
M  V30 4829 H 437.843 -1.10521 -4.01154 0
M  V30 4830 H 436.719 -1.025 -5.39245 0
M  V30 4831 H 436.98 0.402465 -4.40264 0
M  V30 4832 N 436.039 1.36541 -0.78704 0
M  V30 4833 C 437.002 2.28413 -0.189778 0
M  V30 4834 C 438.002 1.48719 0.611499 0
M  V30 4835 O 439.192 1.68737 0.432842 0
M  V30 4836 C 436.324 3.32824 0.737638 0
M  V30 4837 H 437.517 2.82743 -0.999831 0
M  V30 4838 H 435.07 1.46065 -0.556298 0
M  V30 4839 H 435.805 2.83646 1.57212 0
M  V30 4840 H 435.59 3.91752 0.165044 0
M  V30 4841 H 437.08 4.0144 1.15047 0
M  V30 4842 N 437.518 0.538854 1.48102 0
M  V30 4843 C 438.428 -0.222648 2.33541 0
M  V30 4844 C 439.444 -0.930225 1.47047 0
M  V30 4845 O 440.62 -0.903211 1.80011 0
M  V30 4846 C 437.685 -1.25064 3.23357 0
M  V30 4847 C 436.746 -0.552469 4.2573 0
M  V30 4848 C 435.979 -1.53149 5.11254 0
M  V30 4849 O 436.202 -2.76487 4.9891 0
M  V30 4850 O 435.136 -1.06602 5.92385 0
M  V30 4851 H 438.962 0.477707 2.99919 0
M  V30 4852 H 436.547 0.299669 1.46364 0
M  V30 4853 H 438.429 -1.8445 3.78888 0
M  V30 4854 H 437.104 -1.93325 2.59629 0
M  V30 4855 H 436.011 0.082114 3.7401 0
M  V30 4856 H 437.344 0.0883526 4.92121 0
M  V30 4857 N 438.996 -1.55193 0.274407 0
M  V30 4858 C 439.943 -2.225 -0.613374 0
M  V30 4859 C 440.913 -1.19823 -1.15029 0
M  V30 4860 O 442.098 -1.48362 -1.19973 0
M  V30 4861 C 439.238 -2.94927 -1.79199 0
M  V30 4862 C 438.351 -4.12322 -1.28899 0
M  V30 4863 C 437.486 -4.72394 -2.42934 0
M  V30 4864 C 436.525 -5.81984 -1.89634 0
M  V30 4865 N 435.662 -6.36123 -2.9714 0
M  V30 4866 H 440.502 -2.97982 -0.032756 0
M  V30 4867 H 438.039 -1.47099 -0.00440146 0
M  V30 4868 H 439.997 -3.35134 -2.48478 0
M  V30 4869 H 438.627 -2.2187 -2.34465 0
M  V30 4870 H 437.679 -3.7724 -0.489327 0
M  V30 4871 H 438.991 -4.91355 -0.858587 0
M  V30 4872 H 438.145 -5.15317 -3.20208 0
M  V30 4873 H 436.884 -3.92636 -2.8929 0
M  V30 4874 H 435.889 -5.38511 -1.1084 0
M  V30 4875 H 437.114 -6.6361 -1.44215 0
M  V30 4876 H 435.06 -5.59259 -3.42878 0
M  V30 4877 H 434.977 -7.10427 -2.58515 0
M  V30 4878 H 436.245 -6.83704 -3.74391 0
M  V30 4879 N 440.474 -0.00167713 -1.576 0
M  V30 4880 C 441.723 0.682021 -1.89819 0
M  V30 4881 C 442.036 1.74844 -0.876871 0
M  V30 4882 O 443.242 2.48688 -1.08934 0
M  V30 4883 C 441.698 1.26425 -3.36964 0
M  V30 4884 C 441.306 0.232568 -4.47396 0
M  V30 4885 C 443.05 1.92604 -3.78291 0
M  V30 4886 C 440.957 0.824882 -5.85619 0
M  V30 4887 H 439.887 0.258499 -0.708304 0
M  V30 4888 H 442.538 -0.0624957 -1.83394 0
M  V30 4889 H 440.92 2.05949 -3.38232 0
M  V30 4890 H 442.094 -0.5382 -4.57646 0
M  V30 4891 H 440.409 -0.32888 -4.15099 0
M  V30 4892 H 443.006 2.37827 -4.78897 0
M  V30 4893 H 443.349 2.75732 -3.11894 0
M  V30 4894 H 443.882 1.19812 -3.79328 0
M  V30 4895 H 440.621 0.0323542 -6.55492 0
M  V30 4896 H 440.141 1.56477 -5.79029 0
M  V30 4897 H 441.82 1.32301 -6.33329 0
M  V30 4898 N 441.952 1.55251 0.271103 0
M  V30 4899 C 443.363 1.66635 0.842007 0
M  V30 4900 C 443.714 0.594631 1.86972 0
M  V30 4901 O 442.839 -0.263532 2.14789 0
M  V30 4902 C 443.434 3.02082 1.53401 0
M  V30 4903 C 441.993 3.15487 2.05293 0
M  V30 4904 C 441.14 2.62438 0.895631 0
M  V30 4905 H 444.091 1.58629 0.0474117 0
M  V30 4906 H 444.112 2.95176 2.40107 0
M  V30 4907 H 443.624 3.80062 0.785786 0
M  V30 4908 H 441.725 2.42284 2.83071 0
M  V30 4909 H 441.838 4.22075 2.26693 0
M  V30 4910 H 440.202 2.19644 1.28953 0
M  V30 4911 H 440.985 3.42923 0.160878 0
M  V30 4912 N 443.43 -0.535701 1.48216 0
M  V30 4913 C 444.36 -1.65014 1.65204 0
M  V30 4914 C 445.341 -1.62554 0.501011 0
M  V30 4915 O 446.526 -1.7984 0.732886 0
M  V30 4916 C 443.656 -3.03616 1.68626 0
M  V30 4917 C 442.61 -3.20932 2.83172 0
M  V30 4918 C 441.936 -4.60537 2.71679 0
M  V30 4919 C 443.236 -3.04249 4.24535 0
M  V30 4920 H 444.93 -1.51053 2.58502 0
M  V30 4921 H 442.476 -0.725262 1.24402 0
M  V30 4922 H 444.429 -3.81446 1.79099 0
M  V30 4923 H 443.153 -3.18587 0.719026 0
M  V30 4924 H 441.812 -2.45517 2.72244 0
M  V30 4925 H 441.46 -4.72336 1.72937 0
M  V30 4926 H 441.16 -4.73069 3.48538 0
M  V30 4927 H 442.684 -5.40475 2.84112 0
M  V30 4928 H 444.098 -3.71877 4.36326 0
M  V30 4929 H 442.495 -3.28278 5.02348 0
M  V30 4930 H 443.565 -2.00739 4.41397 0
M  V30 4931 N 444.908 -1.36708 -0.784132 0
M  V30 4932 C 445.84 -1.27333 -1.90575 0
M  V30 4933 C 446.853 -0.191706 -1.61667 0
M  V30 4934 O 448.042 -0.446854 -1.72816 0
M  V30 4935 C 445.142 -0.943177 -3.25511 0
M  V30 4936 C 444.315 -2.12776 -3.82158 0
M  V30 4937 C 443.374 -1.76983 -4.95544 0
M  V30 4938 O 442.4 -2.49134 -5.11782 0
M  V30 4939 N 443.602 -0.706624 -5.76183 0
M  V30 4940 H 446.367 -2.23974 -1.99138 0
M  V30 4941 H 443.928 -1.30171 -0.962656 0
M  V30 4942 H 445.92 -0.684799 -3.98864 0
M  V30 4943 H 444.49 -0.0657333 -3.12531 0
M  V30 4944 H 443.71 -2.54863 -3.0073 0
M  V30 4945 H 444.998 -2.91904 -4.16737 0
M  V30 4946 H 444.396 -0.107643 -5.65598 0
M  V30 4947 H 442.953 -0.50808 -6.49817 0
M  V30 4948 N 446.386 1.0089 -1.21074 0
M  V30 4949 C 447.797 1.56056 -1.02486 0
M  V30 4950 C 448.148 1.91728 0.416506 0
M  V30 4951 O 447.273 1.73066 1.29912 0
M  V30 4952 C 447.868 2.83563 -1.85411 0
M  V30 4953 C 446.427 3.3523 -1.71166 0
M  V30 4954 C 445.574 2.0846 -1.82865 0
M  V30 4955 H 448.525 0.831818 -1.35154 0
M  V30 4956 H 448.546 3.55286 -1.36205 0
M  V30 4957 H 448.058 2.57569 -2.9031 0
M  V30 4958 H 446.159 3.66167 -0.689361 0
M  V30 4959 H 446.272 4.06913 -2.52901 0
M  V30 4960 H 444.636 2.21275 -1.26132 0
M  V30 4961 H 445.419 1.84883 -2.89263 0
M  V30 4962 N 447.864 1.01787 1.20321 0
M  V30 4963 C 448.811 0.589197 2.23153 0
M  V30 4964 C 449.781 -0.391367 1.61423 0
M  V30 4965 O 450.966 -0.290518 1.88575 0
M  V30 4966 C 448.106 -0.0650747 3.45039 0
M  V30 4967 C 447.219 0.960207 4.21194 0
M  V30 4968 C 446.354 0.276854 5.30478 0
M  V30 4969 C 445.393 1.2888 5.98378 0
M  V30 4970 N 444.53 0.632031 6.99249 0
M  V30 4971 H 449.37 1.47071 2.59179 0
M  V30 4972 H 446.907 0.736192 1.27352 0
M  V30 4973 H 448.865 -0.461552 4.14639 0
M  V30 4974 H 447.495 -0.910233 3.09701 0
M  V30 4975 H 446.547 1.47484 3.50646 0
M  V30 4976 H 447.859 1.72977 4.67847 0
M  V30 4977 H 447.013 -0.175056 6.06447 0
M  V30 4978 H 445.752 -0.525004 4.84866 0
M  V30 4979 H 444.757 1.75109 5.21169 0
M  V30 4980 H 445.982 2.09196 6.46076 0
M  V30 4981 H 443.928 -0.149935 6.55829 0
M  V30 4982 H 443.845 1.33964 7.44036 0
M  V30 4983 H 445.113 0.203755 7.79234 0
M  V30 4984 N 449.342 -1.36122 0.79427 0
M  V30 4985 C 450.292 -2.27373 0.169017 0
M  V30 4986 C 451.276 -1.4719 -0.649913 0
M  V30 4987 O 452.468 -1.69518 -0.50919 0
M  V30 4988 C 449.597 -3.36264 -0.691455 0
M  V30 4989 C 448.683 -4.2388 0.13653 0
M  V30 4990 N 449.074 -4.91519 1.19345 0
M  V30 4991 C 447.372 -4.45921 -0.0838499 0
M  V30 4992 C 448.073 -5.56369 1.6979 0
M  V30 4993 N 447.049 -5.34204 1.00634 0
M  V30 4994 H 450.851 -2.77154 0.977897 0
M  V30 4995 H 448.365 -1.49504 0.634208 0
M  V30 4996 H 450.362 -4.00572 -1.15534 0
M  V30 4997 H 449.022 -2.88037 -1.49883 0
M  V30 4998 H 450.033 -4.9334 1.57594 0
M  V30 4999 H 446.71 -4.08518 -0.861341 0
M  V30 5000 H 448.1 -6.20368 2.58055 0
M  V30 5001 N 450.82 -0.546701 -1.47814 0
M  V30 5002 C 452.067 -0.0187407 -2.02491 0
M  V30 5003 C 452.395 1.32685 -1.42215 0
M  V30 5004 O 451.65 1.87413 -0.563454 0
M  V30 5005 C 451.949 0.134869 -3.57145 0
M  V30 5006 C 451.615 -1.13849 -4.3629 0
M  V30 5007 C 450.277 -1.48743 -4.57634 0
M  V30 5008 C 452.629 -1.98277 -4.82012 0
M  V30 5009 C 449.957 -2.67932 -5.21948 0
M  V30 5010 C 452.309 -3.16659 -5.4764 0
M  V30 5011 C 450.973 -3.51879 -5.67219 0
M  V30 5012 H 450.243 -0.0068577 -0.740968 0
M  V30 5013 H 452.89 -0.716097 -1.77607 0
M  V30 5014 H 451.195 0.915118 -3.80963 0
M  V30 5015 H 452.892 0.558556 -3.97091 0
M  V30 5016 H 449.482 -0.856767 -4.19949 0
M  V30 5017 H 453.666 -1.72628 -4.6531 0
M  V30 5018 H 448.922 -2.95401 -5.35302 0
M  V30 5019 H 453.096 -3.82374 -5.82033 0
M  V30 5020 H 450.723 -4.44331 -6.16825 0
M  V30 5021 N 452.299 1.55045 -0.282633 0
M  V30 5022 C 453.715 1.59441 0.0712997 0
M  V30 5023 C 453.915 1.2998 1.53972 0
M  V30 5024 O 452.971 1.06431 2.28973 0
M  V30 5025 C 454.284 2.99097 -0.310104 0
M  V30 5026 C 455.832 3.1194 -0.257343 0
M  V30 5027 C 456.307 4.53875 -0.613297 0
M  V30 5028 N 457.798 4.5974 -0.565134 0
M  V30 5029 C 458.533 5.67603 -0.81326 0
M  V30 5030 N 458.029 6.83582 -1.1264 0
M  V30 5031 N 459.822 5.57187 -0.741553 0
M  V30 5032 H 451.973 1.72458 -1.23984 0
M  V30 5033 H 454.236 0.804549 -0.501403 0
M  V30 5034 H 453.942 3.25516 -1.33163 0
M  V30 5035 H 453.816 3.75616 0.345366 0
M  V30 5036 H 456.203 2.85281 0.754905 0
M  V30 5037 H 456.284 2.37618 -0.947178 0
M  V30 5038 H 455.928 4.81261 -1.62327 0
M  V30 5039 H 455.858 5.26508 0.09841 0
M  V30 5040 H 458.349 3.76427 -0.333294 0
M  V30 5041 H 458.662 7.6175 -1.30219 0
M  V30 5042 H 457.007 6.85179 -1.16425 0
M  V30 5043 H 460.198 4.65457 -0.496705 0
M  V30 5044 H 460.371 6.41171 -0.938306 0
M  V30 5045 N 453.777 0.010035 1.57597 0
M  V30 5046 C 455.026 -0.671945 1.90178 0
M  V30 5047 C 455.339 -1.74376 0.886131 0
M  V30 5048 O 456.545 -2.48107 1.10252 0
M  V30 5049 C 455.001 -1.24636 3.3763 0
M  V30 5050 C 454.609 -0.208838 4.47513 0
M  V30 5051 C 456.353 -1.90595 3.79307 0
M  V30 5052 C 454.26 -0.793814 5.86048 0
M  V30 5053 H 453.19 -0.25474 0.709665 0
M  V30 5054 H 455.841 0.0722206 1.83358 0
M  V30 5055 H 454.223 -2.04152 3.3932 0
M  V30 5056 H 455.397 0.562463 4.57354 0
M  V30 5057 H 453.712 0.350889 4.14919 0
M  V30 5058 H 456.309 -2.35284 4.80151 0
M  V30 5059 H 456.652 -2.74074 3.13352 0
M  V30 5060 H 457.185 -1.17798 3.79958 0
M  V30 5061 H 453.924 0.00240855 6.555 0
M  V30 5062 H 453.444 -1.53404 5.79851 0
M  V30 5063 H 455.123 -1.2894 6.34022 0
M  V30 5064 N 455.255 -1.55392 -0.262866 0
M  V30 5065 C 456.185 -1.91978 -1.32917 0
M  V30 5066 C 457.166 -0.7828 -1.51017 0
M  V30 5067 O 458.351 -1.04178 -1.63892 0
M  V30 5068 C 455.481 -2.20055 -2.68687 0
M  V30 5069 C 454.435 -3.35854 -2.65304 0
M  V30 5070 C 453.761 -3.49435 -4.04721 0
M  V30 5071 C 455.061 -4.71977 -2.23685 0
M  V30 5072 H 456.755 -2.81292 -1.02544 0
M  V30 5073 H 454.301 -1.3534 -0.491846 0
M  V30 5074 H 456.254 -2.44237 -3.43404 0
M  V30 5075 H 454.978 -1.27551 -3.00663 0
M  V30 5076 H 453.637 -3.11655 -1.93045 0
M  V30 5077 H 453.285 -2.54379 -4.33936 0
M  V30 5078 H 452.985 -4.27297 -4.0335 0
M  V30 5079 H 454.509 -3.7592 -4.81161 0
M  V30 5080 H 455.923 -4.95637 -2.88127 0
M  V30 5081 H 454.32 -5.52828 -2.33456 0
M  V30 5082 H 455.39 -4.70115 -1.18827 0
M  V30 5083 N 456.733 0.527833 -1.48498 0
M  V30 5084 C 457.681 1.65313 -1.63628 0
M  V30 5085 C 458.675 1.6177 -0.502676 0
M  V30 5086 O 459.881 1.66601 -0.681469 0
M  V30 5087 H 456.256 0.547518 -0.515488 0
M  V30 5088 H 458.227 1.49696 -2.58135 0
M  V30 5089 C 456.976 3.03576 -1.6952 0
M  V30 5090 H 456.299 3.06997 -2.56111 0
M  V30 5091 H 457.739 3.81923 -1.84149 0
M  V30 5092 C 456.198 3.34089 -0.43432 0
M  V30 5093 O 456.728 3.99151 0.451852 0
M  V30 5094 N 454.934 2.88991 -0.305368 0
M  V30 5095 H 454.481 2.36222 -1.02747 0
M  V30 5096 H 454.439 3.09776 0.537249 0
M  V30 5097 N 458.211 1.37122 0.776871 0
M  V30 5098 C 459.622 1.28667 1.35284 0
M  V30 5099 C 459.973 -0.0680035 1.96082 0
M  V30 5100 O 459.098 -0.969743 1.93455 0
M  V30 5101 C 459.693 2.32997 2.45963 0
M  V30 5102 C 458.252 2.28191 2.99342 0
M  V30 5103 C 457.399 2.17101 1.72517 0
M  V30 5104 H 460.35 1.47819 0.577527 0
M  V30 5105 H 460.371 1.97366 3.2531 0
M  V30 5106 H 459.883 3.3158 2.01684 0
M  V30 5107 H 457.984 1.33115 3.4801 0
M  V30 5108 H 458.097 3.21397 3.55304 0
M  V30 5109 H 456.461 1.63562 1.95242 0
M  V30 5110 H 457.244 3.17591 1.30348 0
M  V30 5111 N 459.689 -1.00246 1.21608 0
M  V30 5112 C 460.935 -1.74319 1.03638 0
M  V30 5113 C 461.268 -1.89408 -0.428749 0
M  V30 5114 O 460.543 -1.43026 -1.3181 0
M  V30 5115 C 460.826 -3.15431 1.73711 0
M  V30 5116 C 460.679 -3.08049 3.27759 0
M  V30 5117 C 461.998 -4.14407 1.48173 0
M  V30 5118 H 459.117 -0.632741 0.377899 0
M  V30 5119 H 461.759 -1.16853 1.49818 0
M  V30 5120 H 459.909 -3.64493 1.34452 0
M  V30 5121 H 461.581 -2.66681 3.76403 0
M  V30 5122 H 459.824 -2.45088 3.57931 0
M  V30 5123 H 460.495 -4.07862 3.71958 0
M  V30 5124 H 462.971 -3.74061 1.82258 0
M  V30 5125 H 461.847 -5.11279 1.99713 0
M  V30 5126 H 462.108 -4.40174 0.412273 0
M  V30 5127 N 461.167 -1.02423 -1.1978 0
M  V30 5128 C 462.416 -0.713265 -1.88667 0
M  V30 5129 C 462.729 0.7609 -1.80193 0
M  V30 5130 O 463.935 1.18473 -2.44288 0
M  V30 5131 C 462.391 -1.22545 -3.38394 0
M  V30 5132 C 461.999 -2.72706 -3.55437 0
M  V30 5133 C 463.743 -0.990257 -4.12788 0
M  V30 5134 C 461.65 -3.17367 -4.99031 0
M  V30 5135 H 460.58 -0.263105 -0.706606 0
M  V30 5136 H 463.231 -1.23792 -1.35454 0
M  V30 5137 H 461.613 -0.628732 -3.90977 0
M  V30 5138 H 462.787 -3.37993 -3.13205 0
M  V30 5139 H 461.102 -2.94453 -2.94425 0
M  V30 5140 H 463.699 -1.29926 -5.18675 0
M  V30 5141 H 464.042 0.0730761 -4.16236 0
M  V30 5142 H 464.575 -1.55074 -3.66329 0
M  V30 5143 H 461.314 -4.23009 -5.00743 0
M  V30 5144 H 460.834 -2.56805 -5.42044 0
M  V30 5145 H 462.513 -3.10441 -5.67658 0
M  V30 5146 N 462.645 1.35699 -0.801477 0
M  V30 5147 C 463.894 1.98165 -0.375979 0
M  V30 5148 C 464.207 1.64306 1.06127 0
M  V30 5149 O 465.413 2.20097 1.58964 0
M  V30 5150 C 463.869 3.54497 -0.621305 0
M  V30 5151 C 463.477 3.9727 -2.07076 0
M  V30 5152 C 465.221 4.23697 -0.26091 0
M  V30 5153 C 463.128 5.46427 -2.26211 0
M  V30 5154 H 462.058 0.741478 -0.136844 0
M  V30 5155 H 464.709 1.54834 -0.984814 0
M  V30 5156 H 463.091 3.95958 0.0574112 0
M  V30 5157 H 464.265 3.66974 -2.78687 0
M  V30 5158 H 462.58 3.40943 -2.39054 0
M  V30 5159 H 465.177 5.33334 -0.381994 0
M  V30 5160 H 465.52 4.0869 0.792344 0
M  V30 5161 H 466.053 3.87639 -0.893339 0
M  V30 5162 H 462.792 5.66396 -3.29963 0
M  V30 5163 H 462.312 5.78309 -1.59119 0
M  V30 5164 H 463.991 6.12819 -2.07513 0
M  V30 5165 N 464.123 0.554532 1.47522 0
M  V30 5166 C 465.07 -0.19466 2.29978 0
M  V30 5167 C 466.04 -0.910882 1.38896 0
M  V30 5168 O 467.225 -0.907102 1.67858 0
M  V30 5169 C 464.365 -1.22035 3.22802 0
M  V30 5170 C 463.478 -0.510474 4.28973 0
M  V30 5171 C 462.613 -1.52123 5.08952 0
M  V30 5172 C 461.652 -0.796173 6.069 0
M  V30 5173 N 460.789 -1.75363 6.79847 0
M  V30 5174 H 465.629 0.51461 2.93523 0
M  V30 5175 H 463.166 0.265607 1.44682 0
M  V30 5176 H 465.124 -1.8276 3.7504 0
M  V30 5177 H 463.754 -1.89769 2.61127 0
M  V30 5178 H 462.806 0.211234 3.79813 0
M  V30 5179 H 464.118 0.0576503 4.98767 0
M  V30 5180 H 463.272 -2.20207 5.65326 0
M  V30 5181 H 462.011 -2.12327 4.39054 0
M  V30 5182 H 461.016 -0.101388 5.49707 0
M  V30 5183 H 462.241 -0.199911 6.78806 0
M  V30 5184 H 460.187 -2.3443 6.12682 0
M  V30 5185 H 460.104 -1.23759 7.45801 0
M  V30 5186 H 461.372 -2.4257 7.40797 0
M  V30 5187 N 465.601 -1.54893 0.290851 0
M  V30 5188 C 466.511 -2.26812 -0.59945 0
M  V30 5189 C 467.527 -1.29963 -1.15696 0
M  V30 5190 O 468.703 -1.62928 -1.18391 0
M  V30 5191 C 465.768 -2.98716 -1.75982 0
M  V30 5192 C 464.829 -4.1108 -1.2374 0
M  V30 5193 C 464.062 -4.79546 -2.34246 0
M  V30 5194 O 464.285 -4.47309 -3.53936 0
M  V30 5195 O 463.219 -5.67165 -2.01512 0
M  V30 5196 H 467.045 -3.03696 -0.0163561 0
M  V30 5197 H 464.63 -1.49289 0.0576755 0
M  V30 5198 H 466.512 -3.43851 -2.43607 0
M  V30 5199 H 465.187 -2.24737 -2.3297 0
M  V30 5200 H 464.094 -3.70367 -0.527163 0
M  V30 5201 H 465.427 -4.87007 -0.71307 0
M  V30 5202 N 467.08 -0.0183926 -1.57589 0
M  V30 5203 C 468.308 0.673046 -1.95647 0
M  V30 5204 C 468.723 1.66275 -0.894312 0
M  V30 5205 O 468.08 1.82072 0.124975 0
M  V30 5206 C 468.131 1.38884 -3.33756 0
M  V30 5207 O 467.852 0.438806 -4.35897 0
M  V30 5208 C 469.353 2.1731 -3.86383 0
M  V30 5209 H 466.573 0.186292 -0.644621 0
M  V30 5210 H 469.117 -0.0749748 -2.04363 0
M  V30 5211 H 467.272 2.08835 -3.26293 0
M  V30 5212 H 467.686 0.945869 -5.15901 0
M  V30 5213 H 469.16 2.62863 -4.85394 0
M  V30 5214 H 469.637 3.00764 -3.20059 0
M  V30 5215 H 470.243 1.52339 -3.97081 0
M  V30 5216 N 468.558 1.5553 0.254621 0
M  V30 5217 C 469.521 1.88872 1.29846 0
M  V30 5218 C 470.521 0.764591 1.41459 0
M  V30 5219 O 471.711 1.03265 1.40293 0
M  V30 5220 C 468.843 2.11032 2.67728 0
M  V30 5221 H 470.036 2.82201 1.01502 0
M  V30 5222 H 467.589 1.48303 0.493556 0
M  V30 5223 H 468.324 1.20146 3.01223 0
M  V30 5224 H 468.109 2.92895 2.60682 0
M  V30 5225 H 469.599 2.38038 3.43115 0
M  V30 5226 N 470.036 -0.519951 1.48776 0
M  V30 5227 C 471.283 -1.27522 1.57303 0
M  V30 5228 C 471.611 -1.92869 0.251328 0
M  V30 5229 O 470.866 -1.80372 -0.759243 0
M  V30 5230 C 471.165 -2.37864 2.6675 0
M  V30 5231 C 470.831 -1.90103 4.08867 0
M  V30 5232 C 469.493 -1.76795 4.47546 0
M  V30 5233 C 471.845 -1.54133 4.97888 0
M  V30 5234 C 469.173 -1.25868 5.73039 0
M  V30 5235 C 471.525 -1.04665 6.23881 0
M  V30 5236 C 470.189 -0.899823 6.61407 0
M  V30 5237 H 469.459 -0.466636 0.575614 0
M  V30 5238 H 472.106 -0.579109 1.82534 0
M  V30 5239 H 470.411 -3.13186 2.35418 0
M  V30 5240 H 472.108 -2.95969 2.70561 0
M  V30 5241 H 468.698 -2.01414 3.78326 0
M  V30 5242 H 472.882 -1.6327 4.68675 0
M  V30 5243 H 468.138 -1.13196 6.0083 0
M  V30 5244 H 472.312 -0.759074 6.92251 0
M  V30 5245 H 469.939 -0.503011 7.58534 0
M  V30 5246 N 471.514 -1.37532 -0.769588 0
M  V30 5247 C 472.791 -1.23392 -1.51768 0
M  V30 5248 C 473.171 0.17157 -2.10402 0
M  V30 5249 O 472.519 1.17943 -1.95708 0
M  V30 5250 C 472.729 -2.33163 -2.59685 0
M  V30 5251 C 474.077 -2.70809 -3.27028 0
M  V30 5252 O 475.101 -2.32355 -2.69981 0
M  V30 5253 O 473.96 -3.37066 -4.30173 0
M  V30 5254 H 471.054 -0.481617 -0.67229 0
M  V30 5255 H 473.6 -1.49318 -0.806368 0
M  V30 5256 H 472.372 -3.27273 -2.14494 0
M  V30 5257 H 471.995 -2.08713 -3.38415 0
M  V30 5258 N 472.992 0.995999 -1.22138 0
M  V30 5259 C 474.241 1.72928 -1.03821 0
M  V30 5260 C 474.554 1.90872 0.427444 0
M  V30 5261 O 475.76 2.61496 0.730212 0
M  V30 5262 C 474.216 3.11124 -1.80913 0
M  V30 5263 C 473.824 3.01122 -3.31707 0
M  V30 5264 C 475.568 3.8852 -1.71035 0
M  V30 5265 C 473.475 4.34453 -4.01253 0
M  V30 5266 H 472.405 0.648376 -0.384869 0
M  V30 5267 H 475.056 1.11213 -1.45959 0
M  V30 5268 H 473.438 3.73503 -1.31573 0
M  V30 5269 H 474.612 2.47926 -3.88419 0
M  V30 5270 H 472.927 2.3721 -3.42228 0
M  V30 5271 H 475.524 4.872 -2.20318 0
M  V30 5272 H 475.867 4.1087 -0.670196 0
M  V30 5273 H 476.4 3.32812 -2.17902 0
M  V30 5274 H 473.139 4.17303 -5.05508 0
M  V30 5275 H 472.659 4.87574 -3.49331 0
M  V30 5276 H 474.338 5.03215 -4.06674 0
M  V30 5277 N 474.47 1.03057 1.19235 0
M  V30 5278 C 475.4 0.633497 2.24742 0
M  V30 5279 C 476.381 -0.358335 1.66283 0
M  V30 5280 O 477.566 -0.240676 1.92703 0
M  V30 5281 C 474.696 -0.0147648 3.47297 0
M  V30 5282 C 473.65 0.899527 4.18441 0
M  V30 5283 C 472.976 0.116281 5.34574 0
M  V30 5284 C 474.276 2.21404 4.73051 0
M  V30 5285 H 475.97 1.5155 2.58211 0
M  V30 5286 H 473.516 0.73014 1.24117 0
M  V30 5287 H 475.469 -0.304202 4.20301 0
M  V30 5288 H 474.193 -0.931577 3.13032 0
M  V30 5289 H 472.852 1.17319 3.47321 0
M  V30 5290 H 472.5 -0.802619 4.96555 0
M  V30 5291 H 472.2 0.725293 5.83107 0
M  V30 5292 H 473.724 -0.166376 6.10373 0
M  V30 5293 H 475.138 1.98601 5.37802 0
M  V30 5294 H 473.535 2.77512 5.32078 0
M  V30 5295 H 474.605 2.86752 3.91026 0
M  V30 5296 N 475.948 -1.35272 0.808662 0
M  V30 5297 C 476.88 -2.28507 0.178149 0
M  V30 5298 C 477.893 -1.50377 -0.623754 0
M  V30 5299 O 479.082 -1.72583 -0.455774 0
M  V30 5300 C 476.182 -3.30038 -0.769959 0
M  V30 5301 C 475.355 -4.37398 -0.0139749 0
M  V30 5302 C 474.414 -5.18775 -0.880875 0
M  V30 5303 O 473.44 -5.68236 -0.331059 0
M  V30 5304 N 474.642 -5.37087 -2.20267 0
M  V30 5305 H 477.407 -2.83255 0.979106 0
M  V30 5306 H 474.968 -1.47643 0.664308 0
M  V30 5307 H 476.96 -3.81371 -1.35418 0
M  V30 5308 H 475.53 -2.75789 -1.47171 0
M  V30 5309 H 474.75 -3.86971 0.751468 0
M  V30 5310 H 476.038 -5.06268 0.506965 0
M  V30 5311 H 475.436 -4.9855 -2.67328 0
M  V30 5312 H 473.993 -5.91593 -2.73608 0
M  V30 5313 N 477.426 -0.562348 -1.47226 0
M  V30 5314 C 478.656 -0.0451619 -2.06551 0
M  V30 5315 C 479.064 1.25626 -1.41473 0
M  V30 5316 O 478.407 1.76563 -0.507061 0
M  V30 5317 C 478.469 0.216068 -3.5885 0
M  V30 5318 C 478.133 -0.996691 -4.45999 0
M  V30 5319 C 479.13 -1.90358 -4.83797 0
M  V30 5320 C 476.815 -1.21281 -4.87438 0
M  V30 5321 C 478.809 -3.01023 -5.6184 0
M  V30 5322 C 476.496 -2.32255 -5.65244 0
M  V30 5323 C 477.494 -3.21956 -6.02356 0
M  V30 5324 O 477.182 -4.31005 -6.78594 0
M  V30 5325 H 476.914 -0.0451646 -0.67449 0
M  V30 5326 H 479.468 -0.776842 -1.90143 0
M  V30 5327 H 477.698 1.00212 -3.7349 0
M  V30 5328 H 479.387 0.679264 -4.00176 0
M  V30 5329 H 480.153 -1.74868 -4.52378 0
M  V30 5330 H 476.032 -0.523767 -4.58015 0
M  V30 5331 H 479.576 -3.71064 -5.90726 0
M  V30 5332 H 475.473 -2.47715 -5.96077 0
M  V30 5333 H 476.241 -4.29118 -6.96994 0
M  V30 5334 N 478.904 1.54736 -0.299062 0
M  V30 5335 C 480.129 2.04975 0.316254 0
M  V30 5336 C 480.554 1.17501 1.46885 0
M  V30 5337 O 479.912 0.178678 1.80417 0
M  V30 5338 C 479.96 3.52672 0.751997 0
M  V30 5339 O 479.064 3.68226 1.85697 0
M  V30 5340 H 478.405 0.661126 0.0617175 0
M  V30 5341 H 480.935 1.99805 -0.440341 0
M  V30 5342 H 480.945 3.94488 1.04133 0
M  V30 5343 H 479.62 4.158 -0.0911482 0
M  V30 5344 H 478.197 3.38316 1.56834 0
M  V30 5345 N 480.382 0.0267497 1.57577 0
M  V30 5346 C 481.292 -0.971633 2.13533 0
M  V30 5347 C 482.308 -1.35868 1.08701 0
M  V30 5348 O 483.484 -1.44058 1.40746 0
M  V30 5349 C 480.549 -2.23622 2.64941 0
M  V30 5350 C 479.61 -1.90982 3.8448 0
M  V30 5351 C 478.843 -3.11411 4.33427 0
M  V30 5352 O 479.066 -4.23992 3.81558 0
M  V30 5353 O 478 -2.93848 5.25297 0
M  V30 5354 H 481.826 -0.525853 2.99113 0
M  V30 5355 H 479.411 -0.193712 1.48139 0
M  V30 5356 H 481.293 -2.97864 2.98086 0
M  V30 5357 H 479.968 -2.67386 1.82446 0
M  V30 5358 H 478.875 -1.14132 3.56265 0
M  V30 5359 H 480.208 -1.52036 4.6813 0
M  V30 5360 N 481.861 -1.55662 -0.24637 0
M  V30 5361 C 483.272 -1.67953 -0.81539 0
M  V30 5362 C 483.623 -0.624302 -1.86002 0
M  V30 5363 O 482.748 0.229328 -2.15181 0
M  V30 5364 C 483.343 -3.04484 -1.48576 0
M  V30 5365 C 481.902 -3.18713 -2.00248 0
M  V30 5366 C 481.049 -2.6383 -0.853766 0
M  V30 5367 H 484 -1.58685 -0.0221692 0
M  V30 5368 H 484.021 -2.98959 -2.3538 0
M  V30 5369 H 483.533 -3.81264 -0.725222 0
M  V30 5370 H 481.634 -2.46757 -2.79181 0
M  V30 5371 H 481.747 -4.25628 -2.1995 0
M  V30 5372 H 480.111 -2.21667 -1.25442 0
M  V30 5373 H 480.894 -3.43135 -0.106302 0
M  V30 5374 N 483.339 0.512053 -1.4905 0
M  V30 5375 C 484.271 1.63121 -1.6101 0
M  V30 5376 C 485.284 1.55145 -0.493352 0
M  V30 5377 O 486.473 1.61278 -0.764955 0
M  V30 5378 C 483.573 3.01863 -1.54052 0
M  V30 5379 C 482.746 3.35138 -2.81072 0
M  V30 5380 C 481.805 4.5324 -2.67319 0
M  V30 5381 O 480.831 4.55571 -3.41238 0
M  V30 5382 N 482.033 5.52495 -1.78127 0
M  V30 5383 H 484.798 1.53292 -2.5753 0
M  V30 5384 H 482.359 0.699706 -1.45999 0
M  V30 5385 H 484.351 3.78774 -1.42521 0
M  V30 5386 H 482.921 3.05675 -0.654345 0
M  V30 5387 H 482.141 2.4723 -3.07036 0
M  V30 5388 H 483.429 3.54162 -3.65304 0
M  V30 5389 H 482.827 5.53403 -1.17308 0
M  V30 5390 H 481.384 6.28553 -1.72525 0
M  V30 5391 N 484.817 1.37938 0.762283 0
M  V30 5392 C 486.042 1.37059 1.55659 0
M  V30 5393 C 486.467 -0.0396123 1.88058 0
M  V30 5394 O 485.825 -1.01929 1.49934 0
M  V30 5395 C 485.873 2.22494 2.83776 0
M  V30 5396 O 484.977 1.63607 3.78559 0
M  V30 5397 H 484.318 0.467892 0.47114 0
M  V30 5398 H 486.848 1.81587 0.942725 0
M  V30 5399 H 486.858 2.36045 3.32786 0
M  V30 5400 H 485.533 3.24993 2.59524 0
M  V30 5401 H 484.11 1.5915 3.37233 0
M  V30 5402 N 486.295 -0.989507 1.22664 0
M  V30 5403 C 487.711 -1.25395 0.987331 0
M  V30 5404 C 487.911 -1.9899 -0.317056 0
M  V30 5405 O 486.967 -2.30141 -1.03882 0
M  V30 5406 C 488.28 -2.06242 2.18826 0
M  V30 5407 C 489.828 -2.19413 2.23219 0
M  V30 5408 C 490.303 -3.03648 3.42873 0
M  V30 5409 N 491.794 -3.11234 3.43056 0
M  V30 5410 C 492.529 -3.7671 4.32293 0
M  V30 5411 N 492.025 -4.44085 5.31752 0
M  V30 5412 N 493.818 -3.73505 4.2006 0
M  V30 5413 H 485.969 -0.496212 2.06522 0
M  V30 5414 H 488.232 -0.281784 0.905153 0
M  V30 5415 H 487.938 -1.59531 3.13437 0
M  V30 5416 H 487.812 -3.06996 2.19165 0
M  V30 5417 H 490.199 -2.65336 1.29154 0
M  V30 5418 H 490.28 -1.18078 2.26917 0
M  V30 5419 H 489.924 -2.58424 4.37241 0
M  V30 5420 H 489.854 -4.05132 3.36416 0
M  V30 5421 H 492.345 -2.63287 2.71088 0
M  V30 5422 H 492.658 -4.91797 5.96117 0
M  V30 5423 H 491.003 -4.42822 5.35662 0
M  V30 5424 H 494.194 -3.20033 3.41609 0
M  V30 5425 H 494.367 -4.24253 4.8981 0
M  V30 5426 N 487.773 -1.03688 -1.18687 0
M  V30 5427 C 489.02 -0.73803 -1.88572 0
M  V30 5428 C 489.348 0.733973 -1.8012 0
M  V30 5429 O 488.603 1.55098 -1.19344 0
M  V30 5430 C 488.902 -1.14477 -3.3857 0
M  V30 5431 C 488.568 -2.61641 -3.67226 0
M  V30 5432 C 487.23 -3.01846 -3.74757 0
M  V30 5433 C 489.582 -3.56812 -3.79914 0
M  V30 5434 C 486.91 -4.36118 -3.92451 0
M  V30 5435 C 489.262 -4.90799 -3.99123 0
M  V30 5436 C 487.926 -5.3068 -4.04888 0
M  V30 5437 H 487.196 -0.270064 -0.690034 0
M  V30 5438 H 489.843 -1.3012 -1.40503 0
M  V30 5439 H 488.148 -0.500337 -3.88592 0
M  V30 5440 H 489.845 -0.89095 -3.90977 0
M  V30 5441 H 486.435 -2.29498 -3.61979 0
M  V30 5442 H 490.619 -3.26899 -3.73431 0
M  V30 5443 H 485.875 -4.66542 -3.95157 0
M  V30 5444 H 490.049 -5.64451 -4.07882 0
M  V30 5445 H 487.676 -6.34733 -4.18351 0
M  V30 5446 N 489.251 1.34841 -0.815825 0
M  V30 5447 C 490.497 1.99219 -0.410288 0
M  V30 5448 C 490.852 1.63532 1.01366 0
M  V30 5449 O 490.145 0.893093 1.69512 0
M  V30 5450 C 490.339 3.53273 -0.541541 0
M  V30 5451 C 490.168 4.03927 -1.9767 0
M  V30 5452 C 488.938 4.32852 -2.60706 0
M  V30 5453 C 491.136 4.21808 -2.9425 0
M  V30 5454 N 489.118 4.69494 -3.95536 0
M  V30 5455 C 490.489 4.6155 -4.13971 0
M  V30 5456 C 492.544 4.04038 -2.9096 0
M  V30 5457 C 491.247 4.85381 -5.30847 0
M  V30 5458 C 493.273 4.29031 -4.07046 0
M  V30 5459 C 492.635 4.69054 -5.25517 0
M  V30 5460 H 488.734 0.756494 -0.198094 0
M  V30 5461 H 491.318 1.63379 -1.05902 0
M  V30 5462 H 489.489 3.88323 0.0772544 0
M  V30 5463 H 491.221 4.04551 -0.109694 0
M  V30 5464 H 487.976 4.23503 -2.11995 0
M  V30 5465 H 488.4 4.92061 -4.64979 0
M  V30 5466 H 493.042 3.7223 -2.00512 0
M  V30 5467 H 490.76 5.16059 -6.21859 0
M  V30 5468 H 494.346 4.16826 -4.05891 0
M  V30 5469 H 493.226 4.88014 -6.1385 0
M  V30 5470 N 490.729 0.570148 1.46925 0
M  V30 5471 C 491.977 0.0508523 2.02036 0
M  V30 5472 C 492.298 -1.30885 1.44548 0
M  V30 5473 O 491.568 -1.85647 0.625453 0
M  V30 5474 H 490.148 0.0158088 0.746833 0
M  V30 5475 H 492.81 0.743086 1.80178 0
M  V30 5476 H 491.906 -0.027575 3.12088 0
M  V30 5477 N 492.207 -1.54576 0.307264 0
M  V30 5478 C 493.623 -1.59534 -0.0459251 0
M  V30 5479 C 493.823 -1.32414 -1.51884 0
M  V30 5480 O 492.879 -1.1006 -2.27251 0
M  V30 5481 C 494.192 -2.98566 0.357649 0
M  V30 5482 C 495.74 -3.11491 0.306937 0
M  V30 5483 C 496.215 -4.52842 0.685427 0
M  V30 5484 N 497.706 -4.58782 0.638203 0
M  V30 5485 C 498.441 -5.66238 0.903458 0
M  V30 5486 N 497.937 -6.81703 1.23501 0
M  V30 5487 N 499.73 -5.55937 0.830102 0
M  V30 5488 H 491.881 -1.70464 1.26712 0
M  V30 5489 H 494.144 -0.79647 0.514139 0
M  V30 5490 H 493.85 -3.23356 1.38325 0
M  V30 5491 H 493.724 -3.76117 -0.285565 0
M  V30 5492 H 496.111 -2.86446 -0.709424 0
M  V30 5493 H 496.192 -2.36081 0.984861 0
M  V30 5494 H 495.836 -4.78618 1.69963 0
M  V30 5495 H 495.766 -5.26598 -0.0146346 0
M  V30 5496 H 498.257 -3.75849 0.393138 0
M  V30 5497 H 498.57 -7.59582 1.42322 0
M  V30 5498 H 496.915 -6.8324 1.27311 0
M  V30 5499 H 500.106 -4.64608 0.570693 0
M  V30 5500 H 500.279 -6.39597 1.04019 0
M  V30 5501 N 493.685 -0.035106 -1.57561 0
M  V30 5502 C 494.962 0.681212 -1.83354 0
M  V30 5503 C 495.342 1.89986 -0.920252 0
M  V30 5504 O 494.69 2.28489 0.0226815 0
M  V30 5505 C 494.9 1.05376 -3.32712 0
M  V30 5506 C 496.248 1.44286 -3.99333 0
M  V30 5507 O 497.272 1.14656 -3.37242 0
M  V30 5508 O 496.131 1.99518 -5.08778 0
M  V30 5509 H 493.225 0.334741 -0.756226 0
M  V30 5510 H 495.771 -0.0632448 -1.69582 0
M  V30 5511 H 494.543 0.186668 -3.90854 0
M  V30 5512 H 494.166 1.85619 -3.51613 0
M  V30 5513 N 495.163 1.55791 0.238111 0
M  V30 5514 C 496.11 1.9105 1.29493 0
M  V30 5515 C 497.08 0.765733 1.47397 0
M  V30 5516 O 498.265 1.02017 1.61236 0
M  V30 5517 C 495.405 2.21826 2.64362 0
M  V30 5518 C 494.518 3.49153 2.54394 0
M  V30 5519 C 493.653 3.69455 3.81676 0
M  V30 5520 C 492.692 4.90353 3.66361 0
M  V30 5521 N 491.829 5.07131 4.85554 0
M  V30 5522 H 496.669 2.81172 0.987233 0
M  V30 5523 H 494.206 1.39179 0.476203 0
M  V30 5524 H 496.164 2.37675 3.4288 0
M  V30 5525 H 494.794 1.34897 2.93262 0
M  V30 5526 H 493.846 3.41587 1.67399 0
M  V30 5527 H 495.158 4.37818 2.38991 0
M  V30 5528 H 494.312 3.85311 4.68636 0
M  V30 5529 H 493.051 2.7904 3.99985 0
M  V30 5530 H 492.056 4.74464 2.77784 0
M  V30 5531 H 493.281 5.82237 3.49538 0
M  V30 5532 H 491.227 4.19654 5.04209 0
M  V30 5533 H 491.144 5.89899 4.72816 0
M  V30 5534 H 492.412 5.27407 5.73988 0
M  V30 5535 N 496.642 -0.504142 1.49319 0
M  V30 5536 C 497.59 -1.62689 1.66238 0
M  V30 5537 C 498.584 -1.6095 0.528349 0
M  V30 5538 O 499.79 -1.65496 0.707887 0
M  V30 5539 H 496.165 -0.539247 0.524134 0
M  V30 5540 H 498.136 -1.45571 2.60484 0
M  V30 5541 C 496.885 -3.00841 1.74328 0
M  V30 5542 H 496.208 -3.02884 2.60963 0
M  V30 5543 H 497.648 -3.78945 1.90202 0
M  V30 5544 C 496.107 -3.33355 0.487416 0
M  V30 5545 O 496.637 -3.99819 -0.388294 0
M  V30 5546 N 494.843 -2.88469 0.351306 0
M  V30 5547 H 494.39 -2.34557 1.06492 0
M  V30 5548 H 494.348 -3.10591 -0.487899 0
M  V30 5549 N 498.12 -1.38341 -0.754957 0
M  V30 5550 C 499.366 -1.34672 -1.51628 0
M  V30 5551 C 499.699 0.0636036 -1.94096 0
M  V30 5552 O 498.974 1.0245 -1.6533 0
M  V30 5553 C 499.257 -2.30116 -2.76981 0
M  V30 5554 C 499.11 -3.80003 -2.4066 0
M  V30 5555 C 500.429 -2.23715 -3.78998 0
M  V30 5556 H 497.548 -0.490517 -0.550056 0
M  V30 5557 H 500.19 -1.69178 -0.864807 0
M  V30 5558 H 498.34 -2.00821 -3.3257 0
M  V30 5559 H 500.012 -4.19966 -1.90856 0
M  V30 5560 H 498.255 -3.97751 -1.73137 0
M  V30 5561 H 498.926 -4.42244 -3.30339 0
M  V30 5562 H 501.402 -2.49574 -3.32945 0
M  V30 5563 H 500.278 -2.9261 -4.64403 0
M  V30 5564 H 500.539 -1.23554 -4.24484 0
M  V30 5565 N 499.598 0.982988 -1.23187 0
M  V30 5566 C 501.009 1.53847 -1.05773 0
M  V30 5567 C 501.36 1.92568 0.375744 0
M  V30 5568 O 500.485 1.75783 1.26211 0
M  V30 5569 C 501.08 2.79567 -1.91384 0
M  V30 5570 C 499.639 3.31524 -1.78238 0
M  V30 5571 C 498.786 2.04534 -1.87246 0
M  V30 5572 H 501.737 0.802962 -1.36888 0
M  V30 5573 H 501.758 3.52317 -1.43711 0
M  V30 5574 H 501.27 2.51353 -2.95708 0
M  V30 5575 H 499.371 3.64623 -0.766875 0
M  V30 5576 H 499.484 4.01457 -2.61475 0
M  V30 5577 H 497.848 2.1855 -1.30797 0
M  V30 5578 H 498.631 1.78706 -2.9312 0
M  V30 5579 N 501.076 1.04316 1.18135 0
M  V30 5580 C 502.304 0.768117 1.92113 0
M  V30 5581 C 502.719 -0.675057 1.76319 0
M  V30 5582 O 502.076 -1.46038 1.09449 0
M  V30 5583 C 502.127 1.12808 3.43448 0
M  V30 5584 O 501.848 2.5146 3.58747 0
M  V30 5585 C 503.349 0.8779 4.3452 0
M  V30 5586 H 500.569 0.279937 0.609817 0
M  V30 5587 H 503.113 1.39149 1.49859 0
M  V30 5588 H 501.268 0.549623 3.83481 0
M  V30 5589 H 501.682 2.65313 4.52448 0
M  V30 5590 H 503.156 1.17959 5.39249 0
M  V30 5591 H 503.633 -0.187239 4.38801 0
M  V30 5592 H 504.239 1.43977 4.00188 0
M  V30 5593 N 502.554 -1.34406 0.822964 0
M  V30 5594 C 503.803 -1.97542 0.407458 0
M  V30 5595 C 504.116 -1.65973 -1.035 0
M  V30 5596 O 505.322 -2.22598 -1.55442 0
M  V30 5597 C 503.778 -3.53463 0.677623 0
M  V30 5598 C 503.386 -3.93925 2.1337 0
M  V30 5599 C 505.13 -4.23229 0.328284 0
M  V30 5600 C 503.037 -5.42759 2.34876 0
M  V30 5601 H 501.967 -0.739207 0.148623 0
M  V30 5602 H 504.618 -1.53248 1.00932 0
M  V30 5603 H 503 -3.96 0.00558965 0
M  V30 5604 H 504.174 -3.62494 2.8449 0
M  V30 5605 H 502.489 -3.37097 2.44448 0
M  V30 5606 H 505.086 -5.32659 0.466794 0
M  V30 5607 H 505.429 -4.09899 -0.727224 0
M  V30 5608 H 505.962 -3.86169 0.954896 0
M  V30 5609 H 502.701 -5.61075 3.38932 0
M  V30 5610 H 502.221 -5.75704 1.68299 0
M  V30 5611 H 503.9 -6.0944 2.17236 0
M  V30 5612 N 504.032 -0.577932 -1.46621 0
M  V30 5613 C 505.28 -0.061566 -2.02006 0
M  V30 5614 C 505.601 1.30117 -1.4524 0
M  V30 5615 O 504.871 1.85313 -0.63529 0
M  V30 5616 H 503.451 -0.0197692 -0.746738 0
M  V30 5617 H 506.113 -0.752631 -1.79782 0
M  V30 5618 H 505.209 0.0110238 -3.12098 0
M  V30 5619 N 505.51 1.54411 -0.315457 0
M  V30 5620 C 506.756 2.00716 0.289972 0
M  V30 5621 C 507.089 1.2034 1.5242 0
M  V30 5622 O 506.364 0.283579 1.92422 0
M  V30 5623 C 506.647 3.54507 0.632196 0
M  V30 5624 C 506.5 4.45615 -0.61218 0
M  V30 5625 C 507.819 4.15421 1.45305 0
M  V30 5626 H 504.938 0.729637 0.10392 0
M  V30 5627 H 507.58 1.8506 -0.430427 0
M  V30 5628 H 505.73 3.67979 1.24595 0
M  V30 5629 H 507.402 4.44026 -1.25053 0
M  V30 5630 H 505.645 4.15621 -1.24264 0
M  V30 5631 H 506.316 5.51022 -0.328379 0
M  V30 5632 H 508.792 4.05474 0.934331 0
M  V30 5633 H 507.668 5.23157 1.66127 0
M  V30 5634 H 507.929 3.68223 2.44671 0
M  V30 5635 N 506.988 0.0434614 1.5754 0
M  V30 5636 C 508.237 -0.631454 1.91561 0
M  V30 5637 C 508.55 -1.72457 0.92292 0
M  V30 5638 O 509.756 -2.45712 1.15489 0
M  V30 5639 C 508.212 -1.17447 3.40197 0
M  V30 5640 C 507.82 -0.113867 4.47855 0
M  V30 5641 C 509.564 -1.82507 3.83264 0
M  V30 5642 C 507.471 -0.669326 5.876 0
M  V30 5643 H 506.401 -0.239629 0.714908 0
M  V30 5644 H 509.052 0.111097 1.83163 0
M  V30 5645 H 507.434 -1.96909 3.43574 0
M  V30 5646 H 508.608 0.659348 4.56058 0
M  V30 5647 H 506.923 0.438821 4.14081 0
M  V30 5648 H 509.52 -2.25047 4.85034 0
M  V30 5649 H 509.863 -2.67365 3.19095 0
M  V30 5650 H 510.396 -1.09712 3.82372 0
M  V30 5651 H 507.135 0.141449 6.55347 0
M  V30 5652 H 506.655 -1.4107 5.82974 0
M  V30 5653 H 508.334 -1.15463 6.36614 0
M  V30 5654 N 508.466 -1.55915 -0.229846 0
M  V30 5655 C 509.429 -1.90914 -1.26824 0
M  V30 5656 C 510.429 -0.786999 -1.40225 0
M  V30 5657 O 511.619 -1.05484 -1.38632 0
M  V30 5658 C 508.751 -2.15264 -2.64337 0
M  V30 5659 H 509.944 -2.8378 -0.969998 0
M  V30 5660 H 507.497 -1.49069 -0.4699 0
M  V30 5661 H 508.232 -1.24923 -2.99274 0
M  V30 5662 H 508.017 -2.97005 -2.55989 0
M  V30 5663 H 509.507 -2.43467 -3.39284 0
M  V30 5664 N 509.944 0.496216 -1.49584 0
M  V30 5665 C 511.19 1.25189 -1.59548 0
M  V30 5666 C 511.523 1.9212 -0.283466 0
M  V30 5667 O 510.798 1.80947 0.713324 0
M  V30 5668 C 511.081 2.31516 -2.75812 0
M  V30 5669 C 510.934 1.69054 -4.16822 0
M  V30 5670 C 512.253 3.3304 -2.87702 0
M  V30 5671 H 509.372 0.45379 -0.580727 0
M  V30 5672 H 512.014 0.549327 -1.81886 0
M  V30 5673 H 510.164 2.91438 -2.56897 0
M  V30 5674 H 511.836 1.12923 -4.47265 0
M  V30 5675 H 510.079 0.994485 -4.22247 0
M  V30 5676 H 510.75 2.462 -4.94054 0
M  V30 5677 H 513.226 2.83114 -3.04936 0
M  V30 5678 H 512.102 4.04794 -3.7072 0
M  V30 5679 H 512.363 3.95655 -1.97255 0
M  V30 5680 N 511.423 1.38739 0.74761 0
M  V30 5681 C 512.669 1.35475 1.50912 0
M  V30 5682 C 513.002 -0.0533093 1.94127 0
M  V30 5683 O 512.277 -1.01572 1.65871 0
M  V30 5684 C 512.56 2.31582 2.75757 0
M  V30 5685 C 512.413 3.81274 2.38642 0
M  V30 5686 C 513.732 2.25722 3.77806 0
M  V30 5687 H 510.851 0.493427 0.547447 0
M  V30 5688 H 513.493 1.69634 0.855823 0
M  V30 5689 H 511.643 2.02582 3.31501 0
M  V30 5690 H 513.315 4.20972 1.88626 0
M  V30 5691 H 511.558 3.98664 1.71025 0
M  V30 5692 H 512.229 4.4399 3.27989 0
M  V30 5693 H 514.705 2.51336 3.31616 0
M  V30 5694 H 513.581 2.95069 4.62845 0
M  V30 5695 H 513.842 1.25803 4.23823 0
M  V30 5696 N 512.901 -0.976442 1.23707 0
M  V30 5697 C 513.831 -2.08749 1.04624 0
M  V30 5698 C 514.812 -1.70057 -0.0380956 0
M  V30 5699 O 515.997 -1.93782 0.127308 0
M  V30 5700 C 513.127 -3.41335 0.640902 0
M  V30 5701 C 512.081 -3.93947 1.67302 0
M  V30 5702 C 511.407 -5.22774 1.12301 0
M  V30 5703 C 512.707 -4.22769 3.06697 0
M  V30 5704 H 514.401 -2.24972 1.97555 0
M  V30 5705 H 511.947 -1.08108 0.951247 0
M  V30 5706 H 513.9 -4.18489 0.494434 0
M  V30 5707 H 512.624 -3.24988 -0.324099 0
M  V30 5708 H 511.283 -3.18941 1.80755 0
M  V30 5709 H 510.931 -5.0278 0.148877 0
M  V30 5710 H 510.631 -5.58942 1.81267 0
M  V30 5711 H 512.155 -6.02546 0.988479 0
M  V30 5712 H 513.569 -4.90659 2.96524 0
M  V30 5713 H 511.966 -4.70147 3.72937 0
M  V30 5714 H 513.036 -3.29885 3.55392 0
M  V30 5715 N 514.379 -1.04941 -1.1758 0
M  V30 5716 C 515.342 -0.652456 -2.19717 0
M  V30 5717 C 516.342 0.294745 -1.58076 0
M  V30 5718 O 517.532 0.0789579 -1.74021 0
M  V30 5719 C 514.664 0.0420712 -3.40874 0
M  V30 5720 H 515.857 -1.55642 -2.5635 0
M  V30 5721 H 513.41 -0.842995 -1.31618 0
M  V30 5722 H 514.145 0.95943 -3.09783 0
M  V30 5723 H 513.93 -0.638844 -3.86861 0
M  V30 5724 H 515.42 0.306 -4.16477 0
M  V30 5725 N 515.857 1.33968 -0.830081 0
M  V30 5726 C 517.085 2.0228 -0.434773 0
M  V30 5727 C 517.5 1.62487 0.961419 0
M  V30 5728 O 516.857 0.833849 1.62337 0
M  V30 5729 C 516.908 3.5751 -0.535625 0
M  V30 5730 O 516.629 3.95864 -1.87679 0
M  V30 5731 C 518.13 4.43091 -0.136137 0
M  V30 5732 H 515.35 0.648151 -0.173613 0
M  V30 5733 H 517.894 1.71089 -1.12022 0
M  V30 5734 H 516.049 3.87266 0.101817 0
M  V30 5735 H 516.463 4.9056 -1.85609 0
M  V30 5736 H 517.937 5.51398 -0.257772 0
M  V30 5737 H 518.414 4.29433 0.921076 0
M  V30 5738 H 519.02 4.18677 -0.747662 0
M  V30 5739 N 517.335 0.585699 1.46312 0
M  V30 5740 C 518.285 -0.166813 2.27389 0
M  V30 5741 C 519.269 -0.859076 1.36047 0
M  V30 5742 O 520.461 -0.752678 1.60199 0
M  V30 5743 C 517.59 -1.17791 3.2246 0
M  V30 5744 C 516.676 -0.487605 4.21288 0
M  V30 5745 N 517.067 0.45849 5.03718 0
M  V30 5746 C 515.365 -0.737971 4.39852 0
M  V30 5747 C 516.066 0.862213 5.75275 0
M  V30 5748 N 515.042 0.210707 5.43191 0
M  V30 5749 H 518.844 0.560167 2.88512 0
M  V30 5750 H 516.358 0.407715 1.57199 0
M  V30 5751 H 518.355 -1.73122 3.79255 0
M  V30 5752 H 517.015 -1.90568 2.62896 0
M  V30 5753 H 518.026 0.834163 5.11138 0
M  V30 5754 H 514.703 -1.45209 3.91434 0
M  V30 5755 H 516.093 1.64128 6.51546 0
M  V30 5756 N 518.813 -1.54241 0.323641 0
M  V30 5757 C 519.743 -2.27289 -0.534993 0
M  V30 5758 C 520.724 -1.28087 -1.11927 0
M  V30 5759 O 521.909 -1.56899 -1.14439 0
M  V30 5760 C 519.039 -3.03075 -1.69596 0
M  V30 5761 C 517.993 -4.09614 -1.24098 0
M  V30 5762 C 517.319 -4.73242 -2.4889 0
M  V30 5763 C 518.619 -5.21087 -0.355789 0
M  V30 5764 H 520.313 -2.99308 0.0743257 0
M  V30 5765 H 517.859 -1.43952 0.0371874 0
M  V30 5766 H 519.812 -3.52907 -2.30293 0
M  V30 5767 H 518.536 -2.28673 -2.33187 0
M  V30 5768 H 517.195 -3.60666 -0.656945 0
M  V30 5769 H 516.843 -3.95455 -3.10845 0
M  V30 5770 H 516.543 -5.45209 -2.19138 0
M  V30 5771 H 518.067 -5.25848 -3.10348 0
M  V30 5772 H 519.481 -5.66675 -0.869042 0
M  V30 5773 H 517.878 -5.9991 -0.151045 0
M  V30 5774 H 518.948 -4.81005 0.613339 0
M  V30 5775 N 520.291 -0.0518155 -1.57515 0
M  V30 5776 C 521.531 0.625712 -1.94587 0
M  V30 5777 C 521.895 1.6797 -0.930053 0
M  V30 5778 O 523.096 2.41135 -1.18774 0
M  V30 5779 C 521.367 1.20574 -3.36447 0
M  V30 5780 S 522.926 1.90118 -3.95475 0
M  V30 5781 H 519.744 0.205434 -0.680675 0
M  V30 5782 H 522.346 -0.120906 -1.95126 0
M  V30 5783 H 521.05 0.426521 -4.08178 0
M  V30 5784 H 520.581 1.98916 -3.39405 0
M  V30 5785 H 522.596 3.18184 -3.80753 0
M  V30 5786 N 521.769 1.56035 0.221574 0
M  V30 5787 C 523.046 1.69837 0.970301 0
M  V30 5788 C 523.426 0.599065 2.02421 0
M  V30 5789 O 522.774 -0.393929 2.25079 0
M  V30 5790 C 522.984 3.11148 1.58076 0
M  V30 5791 C 524.332 3.70555 2.07302 0
M  V30 5792 O 525.356 3.14109 1.6797 0
M  V30 5793 O 524.215 4.69562 2.79596 0
M  V30 5794 H 521.309 0.691727 0.453257 0
M  V30 5795 H 523.855 1.68353 0.213358 0
M  V30 5796 H 522.627 3.82617 0.819759 0
M  V30 5797 H 522.25 3.16749 2.40324 0
M  V30 5798 N 523.247 -0.488276 1.49845 0
M  V30 5799 C 524.157 -1.61451 1.70207 0
M  V30 5800 C 525.173 -1.63877 0.584846 0
M  V30 5801 O 526.349 -1.82063 0.861107 0
M  V30 5802 C 523.414 -2.9776 1.77594 0
M  V30 5803 C 522.475 -3.05861 3.01243 0
M  V30 5804 C 521.708 -4.35668 3.08268 0
M  V30 5805 O 521.931 -5.25197 2.22541 0
M  V30 5806 O 520.865 -4.49005 4.00847 0
M  V30 5807 H 524.691 -1.47199 2.65643 0
M  V30 5808 H 522.276 -0.665939 1.33737 0
M  V30 5809 H 524.158 -3.7875 1.84732 0
M  V30 5810 H 522.833 -3.12248 0.8534 0
M  V30 5811 H 521.74 -2.24012 2.99616 0
M  V30 5812 H 523.073 -2.96304 3.9302 0
M  V30 5813 N 524.725 -1.39134 -0.740242 0
M  V30 5814 C 525.971 -1.36273 -1.50192 0
M  V30 5815 C 526.304 0.0430136 -1.94152 0
M  V30 5816 O 525.579 1.00691 -1.66408 0
M  V30 5817 C 525.862 -2.33041 -2.74525 0
M  V30 5818 C 525.715 -3.82535 -2.36617 0
M  V30 5819 C 527.034 -2.27723 -3.76604 0
M  V30 5820 H 524.153 -0.496323 -0.544823 0
M  V30 5821 H 526.795 -1.70085 -0.846815 0
M  V30 5822 H 524.945 -2.04337 -3.30422 0
M  V30 5823 H 526.617 -4.21967 -1.86391 0
M  V30 5824 H 524.86 -3.99565 -1.68909 0
M  V30 5825 H 525.531 -4.45723 -3.2563 0
M  V30 5826 H 528.007 -2.53091 -3.30279 0
M  V30 5827 H 526.883 -2.97519 -4.61274 0
M  V30 5828 H 527.144 -1.28049 -4.2315 0
M  V30 5829 N 526.204 0.969867 -1.24223 0
M  V30 5830 C 527.429 1.75289 -1.10853 0
M  V30 5831 C 527.854 1.85091 0.335079 0
M  V30 5832 O 527.212 1.32024 1.24255 0
M  V30 5833 C 527.26 3.15255 -1.75062 0
M  V30 5834 O 526.364 3.99589 -1.01992 0
M  V30 5835 H 525.705 0.538904 -0.387915 0
M  V30 5836 H 528.235 1.21675 -1.64488 0
M  V30 5837 H 528.245 3.65787 -1.80731 0
M  V30 5838 H 526.92 3.07436 -2.801 0
M  V30 5839 H 525.497 3.58077 -1.04094 0
M  V30 5840 N 527.682 1.05563 1.17022 0
M  V30 5841 C 528.612 0.681026 2.23348 0
M  V30 5842 C 529.593 -0.322983 1.67005 0
M  V30 5843 O 530.778 -0.199746 1.9317 0
M  V30 5844 C 527.908 0.0589053 3.4725 0
M  V30 5845 C 526.862 0.988082 4.16438 0
M  V30 5846 C 526.188 0.229646 5.34207 0
M  V30 5847 C 527.488 2.31388 4.68249 0
M  V30 5848 H 529.182 1.56993 2.54938 0
M  V30 5849 H 526.728 0.756302 1.2254 0
M  V30 5850 H 528.681 -0.214982 4.20851 0
M  V30 5851 H 527.405 -0.864968 3.14938 0
M  V30 5852 H 526.064 1.24659 3.44754 0
M  V30 5853 H 525.712 -0.697111 4.98146 0
M  V30 5854 H 525.412 0.848815 5.81437 0
M  V30 5855 H 526.936 -0.0368694 6.10589 0
M  V30 5856 H 528.35 2.09964 5.33468 0
M  V30 5857 H 526.747 2.88736 5.26072 0
M  V30 5858 H 527.817 2.94982 3.84855 0
M  V30 5859 N 529.16 -1.33526 0.837174 0
M  V30 5860 C 530.123 -2.27551 0.274421 0
M  V30 5861 C 531.123 -1.50886 -0.555881 0
M  V30 5862 O 532.313 -1.70227 -0.369918 0
M  V30 5863 C 529.445 -3.35332 -0.613605 0
M  V30 5864 H 530.638 -2.78837 1.10408 0
M  V30 5865 H 528.191 -1.439 0.610126 0
M  V30 5866 H 528.926 -2.89285 -1.46577 0
M  V30 5867 H 528.711 -3.92095 -0.0195341 0
M  V30 5868 H 530.201 -4.05433 -1.00068 0
M  V30 5869 N 530.638 -0.59345 -1.46 0
M  V30 5870 C 531.886 -0.082988 -2.0193 0
M  V30 5871 C 532.207 1.28569 -1.46612 0
M  V30 5872 O 531.477 1.84629 -0.654909 0
M  V30 5873 H 530.057 -0.0276882 -0.746487 0
M  V30 5874 H 532.719 -0.771657 -1.78973 0
M  V30 5875 H 531.815 -0.022079 -3.12092 0
M  V30 5876 N 532.116 1.54067 -0.331816 0
M  V30 5877 C 533.363 2.00715 0.268269 0
M  V30 5878 C 533.691 1.21986 1.51491 0
M  V30 5879 O 532.946 0.292309 1.93505 0
M  V30 5880 C 533.245 3.51634 0.639392 0
M  V30 5881 C 532.911 4.48018 -0.509019 0
M  V30 5882 C 531.573 4.74089 -0.824209 0
M  V30 5883 C 533.925 5.05237 -1.28003 0
M  V30 5884 C 531.253 5.54637 -1.91298 0
M  V30 5885 C 533.605 5.86972 -2.35895 0
M  V30 5886 C 532.269 6.11342 -2.67987 0
M  V30 5887 H 531.539 0.734469 0.0981667 0
M  V30 5888 H 534.186 1.8596 -0.457304 0
M  V30 5889 H 532.491 3.6416 1.44551 0
M  V30 5890 H 534.188 3.85175 1.11539 0
M  V30 5891 H 530.778 4.27851 -0.253287 0
M  V30 5892 H 534.962 4.8507 -1.04978 0
M  V30 5893 H 530.218 5.71747 -2.16599 0
M  V30 5894 H 534.392 6.30327 -2.96076 0
M  V30 5895 H 532.019 6.73544 -3.5248 0
M  V30 5896 N 533.594 0.0601682 1.57485 0
M  V30 5897 C 534.842 -0.610386 1.92662 0
M  V30 5898 C 535.163 -1.70849 0.939981 0
M  V30 5899 O 534.433 -1.95895 -0.0137455 0
M  V30 5900 H 533.013 -0.228457 0.711208 0
M  V30 5901 H 535.675 0.115288 1.94559 0
M  V30 5902 H 534.771 -1.0432 2.94149 0
M  V30 5903 N 535.072 -1.5615 -0.213296 0
M  V30 5904 C 536.302 -1.83372 -0.951757 0
M  V30 5905 C 536.71 -0.638158 -1.78113 0
M  V30 5906 O 536.053 0.402609 -1.79234 0
M  V30 5907 C 536.115 -3.04444 -1.91192 0
M  V30 5908 C 535.779 -4.39107 -1.26627 0
M  V30 5909 C 536.776 -5.15794 -0.652087 0
M  V30 5910 C 534.461 -4.85834 -1.27556 0
M  V30 5911 C 536.455 -6.37376 -0.055814 0
M  V30 5912 C 534.142 -6.07356 -0.675451 0
M  V30 5913 C 535.14 -6.82967 -0.0666367 0
M  V30 5914 O 534.828 -8.0219 0.524119 0
M  V30 5915 H 534.56 -0.613398 -0.284111 0
M  V30 5916 H 537.114 -2.04096 -0.231112 0
M  V30 5917 H 535.344 -2.79559 -2.67178 0
M  V30 5918 H 537.033 -3.18466 -2.51662 0
M  V30 5919 H 537.799 -4.80796 -0.637172 0
M  V30 5920 H 533.678 -4.26949 -1.73883 0
M  V30 5921 H 537.222 -6.96334 0.420004 0
M  V30 5922 H 533.119 -6.41825 -0.687806 0
M  V30 5923 H 533.887 -8.17426 0.419243 0
M  V30 5924 N 536.55 0.480323 -1.50102 0
M  V30 5925 C 537.827 1.24159 -1.51142 0
M  V30 5926 C 538.207 2.09605 -0.250818 0
M  V30 5927 O 537.555 2.15274 0.766118 0
M  V30 5928 C 537.765 2.08057 -2.80202 0
M  V30 5929 C 539.113 2.66556 -3.30504 0
M  V30 5930 O 540.137 2.18308 -2.81461 0
M  V30 5931 O 538.996 3.54442 -4.15973 0
M  V30 5932 H 536.09 0.562928 -0.605839 0
M  V30 5933 H 538.636 0.492899 -1.62384 0
M  V30 5934 H 537.408 1.45032 -3.6343 0
M  V30 5935 H 537.031 2.90079 -2.71919 0
M  V30 5936 N 538.028 1.39524 0.732853 0
M  V30 5937 C 538.958 1.41153 1.86005 0
M  V30 5938 C 539.939 0.274614 1.67869 0
M  V30 5939 O 541.124 0.480745 1.88155 0
M  V30 5940 C 538.254 1.25638 3.23778 0
M  V30 5941 C 537.208 2.36752 3.56556 0
M  V30 5942 C 536.534 2.06326 4.93289 0
M  V30 5943 C 537.834 3.79069 3.5931 0
M  V30 5944 H 539.528 2.35484 1.84899 0
M  V30 5945 H 537.074 1.13348 0.888162 0
M  V30 5946 H 539.027 1.25398 4.0231 0
M  V30 5947 H 537.751 0.277772 3.25417 0
M  V30 5948 H 536.41 2.36213 2.80355 0
M  V30 5949 H 536.058 1.06897 4.9151 0
M  V30 5950 H 535.758 2.80757 5.16187 0
M  V30 5951 H 537.282 2.07739 5.74175 0
M  V30 5952 H 538.696 3.81526 4.27914 0
M  V30 5953 H 537.093 4.52878 3.93728 0
M  V30 5954 H 538.163 4.09893 2.59068 0
M  V30 5955 N 539.506 -0.963266 1.24736 0
M  V30 5956 C 540.454 -2.07985 1.04139 0
M  V30 5957 C 541.448 -1.69381 -0.0250556 0
M  V30 5958 O 542.654 -1.79531 0.129863 0
M  V30 5959 H 539.029 -0.680627 0.319768 0
M  V30 5960 H 541 -2.22517 1.98818 0
M  V30 5961 C 539.749 -3.4123 0.667615 0
M  V30 5962 H 539.072 -3.71397 1.48 0
M  V30 5963 H 540.512 -4.20244 0.563136 0
M  V30 5964 C 538.971 -3.3104 -0.625647 0
M  V30 5965 O 539.501 -3.65334 -1.67016 0
M  V30 5966 N 537.707 -2.84168 -0.608033 0
M  V30 5967 H 537.254 -2.56458 0.242323 0
M  V30 5968 H 537.212 -2.77732 -1.47352 0
M  V30 5969 N 540.985 -1.06182 -1.16461 0
M  V30 5970 C 541.917 -0.629584 -2.20383 0
M  V30 5971 C 542.93 0.311834 -1.59786 0
M  V30 5972 O 544.119 0.103 -1.78203 0
M  V30 5973 C 541.219 0.0973695 -3.3876 0
M  V30 5974 C 540.392 -0.857252 -4.28917 0
M  V30 5975 C 539.451 -0.169749 -5.25926 0
M  V30 5976 O 538.477 -0.807044 -5.6345 0
M  V30 5977 N 539.679 1.08911 -5.70192 0
M  V30 5978 H 542.444 -1.52352 -2.58087 0
M  V30 5979 H 540.005 -0.944993 -1.31459 0
M  V30 5980 H 541.997 0.567676 -4.00699 0
M  V30 5981 H 540.567 0.893093 -2.99571 0
M  V30 5982 H 539.787 -1.50696 -3.64259 0
M  V30 5983 H 541.075 -1.50489 -4.86035 0
M  V30 5984 H 540.473 1.62703 -5.41797 0
M  V30 5985 H 539.03 1.50331 -6.34227 0
M  V30 5986 N 542.463 1.3308 -0.844243 0
M  V30 5987 C 543.874 1.7992 -0.498566 0
M  V30 5988 C 544.225 1.69808 0.982834 0
M  V30 5989 O 543.35 1.25051 1.7661 0
M  V30 5990 C 543.945 3.26677 -0.898204 0
M  V30 5991 C 542.504 3.71513 -0.604583 0
M  V30 5992 C 541.651 2.54393 -1.10362 0
M  V30 5993 H 544.602 1.20526 -1.03244 0
M  V30 5994 H 544.623 3.79918 -0.21039 0
M  V30 5995 H 544.135 3.34004 -1.97643 0
M  V30 5996 H 542.236 3.69708 0.46335 0
M  V30 5997 H 542.349 4.64755 -1.16358 0
M  V30 5998 H 540.713 2.49246 -0.524273 0
M  V30 5999 H 541.496 2.6448 -2.18873 0
M  V30 6000 N 543.941 0.601185 1.45683 0
M  V30 6001 C 545.357 0.264315 1.57396 0
M  V30 6002 C 545.557 -1.23324 1.59353 0
M  V30 6003 O 544.613 -2.01594 1.52039 0
M  V30 6004 C 545.926 0.929839 2.85962 0
M  V30 6005 C 547.474 0.905156 2.99626 0
M  V30 6006 C 547.949 1.55057 4.30954 0
M  V30 6007 N 549.44 1.51576 4.37697 0
M  V30 6008 C 550.175 1.98436 5.37969 0
M  V30 6009 N 549.671 2.53352 6.44813 0
M  V30 6010 N 551.464 1.89242 5.29286 0
M  V30 6011 H 543.615 1.57363 1.42656 0
M  V30 6012 H 545.878 0.658831 0.681649 0
M  V30 6013 H 545.584 1.98404 2.90394 0
M  V30 6014 H 545.458 0.449224 3.74515 0
M  V30 6015 H 547.845 -0.14048 2.94765 0
M  V30 6016 H 547.926 1.42397 2.12501 0
M  V30 6017 H 547.57 2.5955 4.36573 0
M  V30 6018 H 547.5 1.00682 5.16886 0
M  V30 6019 H 549.991 1.11452 3.61091 0
M  V30 6020 H 550.304 2.86918 7.17564 0
M  V30 6021 H 548.649 2.57388 6.45582 0
M  V30 6022 H 551.84 1.46083 4.44722 0
M  V30 6023 H 552.013 2.26075 6.07284 0
M  V30 6024 N 545.419 -1.53889 0.339982 0
M  V30 6025 C 546.647 -2.05271 -0.259114 0
M  V30 6026 C 547.062 -1.21517 -1.44496 0
M  V30 6027 O 546.419 -0.24966 -1.80784 0
M  V30 6028 C 546.47 -3.55092 -0.677634 0
M  V30 6029 O 546.191 -4.35667 0.461051 0
M  V30 6030 C 547.692 -4.22631 -1.33782 0
M  V30 6031 H 544.912 -0.669085 -0.0506566 0
M  V30 6032 H 547.456 -1.9852 0.490935 0
M  V30 6033 H 545.611 -3.62077 -1.37763 0
M  V30 6034 H 546.025 -5.24343 0.128144 0
M  V30 6035 H 547.499 -5.28861 -1.58145 0
M  V30 6036 H 547.976 -3.74758 -2.29027 0
M  V30 6037 H 548.582 -4.19829 -0.679957 0
M  V30 6038 N 546.897 -0.0685191 -1.57451 0
M  V30 6039 C 548.308 0.464634 -1.80826 0
M  V30 6040 C 548.659 1.69847 -0.982169 0
M  V30 6041 O 547.784 2.15439 -0.203734 0
M  V30 6042 C 548.379 0.849721 -3.27971 0
M  V30 6043 C 546.938 1.32776 -3.52204 0
M  V30 6044 C 546.085 0.311332 -2.75547 0
M  V30 6045 H 549.036 -0.294248 -1.55948 0
M  V30 6046 H 549.057 1.71138 -3.39841 0
M  V30 6047 H 548.569 -0.0484736 -3.8807 0
M  V30 6048 H 546.67 2.24456 -2.97406 0
M  V30 6049 H 546.783 1.30794 -4.60901 0
M  V30 6050 H 545.147 0.787915 -2.42206 0
M  V30 6051 H 545.93 -0.579078 -3.38381 0
M  V30 6052 N 548.375 1.56261 0.205012 0
M  V30 6053 C 549.305 1.96779 1.257 0
M  V30 6054 C 550.286 0.838309 1.48008 0
M  V30 6055 O 551.471 1.10189 1.59913 0
M  V30 6056 C 548.601 2.29876 2.60335 0
M  V30 6057 C 547.555 3.45469 2.52656 0
M  V30 6058 C 546.881 3.64215 3.91473 0
M  V30 6059 C 548.181 4.79954 2.06014 0
M  V30 6060 H 549.875 2.84904 0.920338 0
M  V30 6061 H 547.421 1.37072 0.441277 0
M  V30 6062 H 549.374 2.56814 3.34102 0
M  V30 6063 H 548.098 1.38622 2.95722 0
M  V30 6064 H 546.757 3.18605 1.81345 0
M  V30 6065 H 546.405 2.70309 4.24196 0
M  V30 6066 H 546.105 4.41973 3.87213 0
M  V30 6067 H 547.629 3.93519 4.66878 0
M  V30 6068 H 549.043 5.05989 2.69533 0
M  V30 6069 H 547.44 5.61111 2.12777 0
M  V30 6070 H 548.51 4.74201 1.01297 0
M  V30 6071 N 549.853 -0.472356 1.50355 0
M  V30 6072 C 550.803 -1.56809 1.65514 0
M  V30 6073 C 551.787 -1.5261 0.509801 0
M  V30 6074 O 552.979 -1.59655 0.764145 0
M  V30 6075 C 550.108 -2.9526 1.75146 0
M  V30 6076 C 549.194 -3.04348 2.95353 0
M  V30 6077 N 549.585 -2.83253 4.19048 0
M  V30 6078 C 547.883 -3.35482 2.93884 0
M  V30 6079 C 548.584 -2.97273 5.00003 0
M  V30 6080 N 547.56 -3.27418 4.33934 0
M  V30 6081 H 551.362 -1.39197 2.58846 0
M  V30 6082 H 548.876 -0.67906 1.47521 0
M  V30 6083 H 550.873 -3.74044 1.8411 0
M  V30 6084 H 549.533 -3.1392 0.829717 0
M  V30 6085 H 550.544 -2.5886 4.48567 0
M  V30 6086 H 547.221 -3.60138 2.11204 0
M  V30 6087 H 548.611 -2.85214 6.08361 0
M  V30 6088 N 551.331 -1.39911 -0.725443 0
M  V30 6089 C 552.561 -1.40744 -1.51244 0
M  V30 6090 C 552.969 -0.00275403 -1.892 0
M  V30 6091 O 552.312 0.981299 -1.55294 0
M  V30 6092 C 552.374 -2.22527 -2.82351 0
M  V30 6093 C 552.038 -3.71053 -2.66774 0
M  V30 6094 C 553.035 -4.63916 -2.34686 0
M  V30 6095 C 550.72 -4.14753 -2.83347 0
M  V30 6096 C 552.714 -5.98463 -2.19366 0
M  V30 6097 C 550.401 -5.49372 -2.67644 0
M  V30 6098 C 551.399 -6.41042 -2.357 0
M  V30 6099 O 551.087 -7.73181 -2.20107 0
M  V30 6100 H 550.819 -0.482314 -0.473655 0
M  V30 6101 H 553.373 -1.84472 -0.903284 0
M  V30 6102 H 551.603 -1.73563 -3.45562 0
M  V30 6103 H 553.292 -2.15421 -3.44018 0
M  V30 6104 H 554.058 -4.31453 -2.21525 0
M  V30 6105 H 549.937 -3.43728 -3.072 0
M  V30 6106 H 553.481 -6.69979 -1.94354 0
M  V30 6107 H 549.378 -5.81424 -2.80387 0
M  V30 6108 H 550.146 -7.84008 -2.35103 0
M  V30 6109 N 552.809 0.956637 -1.25245 0
M  V30 6110 C 554.056 1.701 -1.09874 0
M  V30 6111 C 554.384 1.91128 0.36062 0
M  V30 6112 O 553.639 1.47837 1.28229 0
M  V30 6113 C 553.938 3.08996 -1.79601 0
M  V30 6114 C 553.604 3.07774 -3.29523 0
M  V30 6115 C 552.266 3.07149 -3.70423 0
M  V30 6116 C 554.618 3.01257 -4.25316 0
M  V30 6117 C 551.946 2.97752 -5.0553 0
M  V30 6118 C 554.298 2.93403 -5.60444 0
M  V30 6119 C 552.962 2.91111 -6.00675 0
M  V30 6120 H 552.232 0.62244 -0.402056 0
M  V30 6121 H 554.879 1.1178 -1.55491 0
M  V30 6122 H 553.184 3.70848 -1.26408 0
M  V30 6123 H 554.881 3.65407 -1.65162 0
M  V30 6124 H 551.471 3.09032 -2.9698 0
M  V30 6125 H 555.655 3.00861 -3.9471 0
M  V30 6126 H 550.911 2.94346 -5.35883 0
M  V30 6127 H 555.085 2.87321 -6.34366 0
M  V30 6128 H 552.712 2.83586 -7.05325 0
M  V30 6129 N 554.287 1.06798 1.15896 0
M  V30 6130 C 555.564 0.701057 1.82605 0
M  V30 6131 C 555.944 -0.817066 1.94646 0
M  V30 6132 O 555.292 -1.72933 1.49353 0
M  V30 6133 C 555.502 1.40895 3.19296 0
M  V30 6134 C 556.85 1.55744 3.95005 0
M  V30 6135 O 557.874 1.36927 3.28831 0
M  V30 6136 O 556.733 1.86658 5.13635 0
M  V30 6137 H 553.827 0.248791 0.78869 0
M  V30 6138 H 556.373 1.16857 1.23055 0
M  V30 6139 H 555.145 2.4439 3.05596 0
M  V30 6140 H 554.768 0.931847 3.86526 0
M  V30 6141 N 555.766 -1.3263 0.851289 0
M  V30 6142 C 556.991 -2.02097 0.466006 0
M  V30 6143 C 557.416 -1.63574 -0.928709 0
M  V30 6144 O 556.774 -0.834665 -1.60944 0
M  V30 6145 C 556.822 -3.55425 0.608737 0
M  V30 6146 O 555.926 -4.10827 -0.359878 0
M  V30 6147 H 555.267 -0.636911 0.187724 0
M  V30 6148 H 557.797 -1.69253 1.14955 0
M  V30 6149 H 557.807 -4.04986 0.495006 0
M  V30 6150 H 556.482 -3.82806 1.62581 0
M  V30 6151 H 555.059 -3.72349 -0.202666 0
M  V30 6152 N 557.244 -0.608902 -1.45362 0
M  V30 6153 C 558.176 0.147318 -2.28726 0
M  V30 6154 C 559.189 0.830468 -1.40025 0
M  V30 6155 O 560.378 0.695636 -1.64387 0
M  V30 6156 C 557.478 1.22968 -3.15804 0
M  V30 6157 C 556.651 0.633391 -4.3279 0
M  V30 6158 C 555.71 1.60682 -5.01067 0
M  V30 6159 O 554.736 1.13261 -5.57818 0
M  V30 6160 N 555.938 2.94123 -5.00472 0
M  V30 6161 H 558.703 -0.568014 -2.94268 0
M  V30 6162 H 556.264 -0.448479 -1.55564 0
M  V30 6163 H 558.256 1.88072 -3.58345 0
M  V30 6164 H 556.826 1.84752 -2.52162 0
M  V30 6165 H 556.046 -0.195762 -3.93714 0
M  V30 6166 H 557.334 0.215255 -5.08344 0
M  V30 6167 H 556.732 3.3525 -4.55657 0
M  V30 6168 H 555.289 3.54646 -5.46872 0
M  V30 6169 N 558.722 1.53707 -0.348139 0
M  V30 6170 C 559.962 2.02899 0.247254 0
M  V30 6171 C 560.326 1.23033 1.47401 0
M  V30 6172 O 561.527 1.62146 2.14388 0
M  V30 6173 C 559.798 3.53156 0.549151 0
M  V30 6174 S 561.357 4.24247 1.1207 0
M  V30 6175 H 558.175 0.707213 0.0732894 0
M  V30 6176 H 560.777 1.89338 -0.486965 0
M  V30 6177 H 559.481 4.08893 -0.351435 0
M  V30 6178 H 559.012 3.70845 1.31291 0
M  V30 6179 H 561.027 4.33958 2.40613 0
M  V30 6180 N 560.2 0.0768682 1.57412 0
M  V30 6181 C 561.133 -0.924685 2.08626 0
M  V30 6182 C 562.111 -1.28792 0.992542 0
M  V30 6183 O 563.295 -1.39634 1.26628 0
M  V30 6184 C 560.422 -2.23131 2.54814 0
M  V30 6185 C 559.468 -2.01928 3.75669 0
M  V30 6186 S 560.301 -1.27397 5.20125 0
M  V30 6187 C 561.457 -2.59329 5.69648 0
M  V30 6188 H 561.69 -0.488928 2.93252 0
M  V30 6189 H 559.223 -0.136014 1.538 0
M  V30 6190 H 561.181 -2.98226 2.82084 0
M  V30 6191 H 559.842 -2.63831 1.70447 0
M  V30 6192 H 559.035 -2.98639 4.05993 0
M  V30 6193 H 558.637 -1.34967 3.48798 0
M  V30 6194 H 560.929 -3.55394 5.76803 0
M  V30 6195 H 561.872 -2.33608 6.68456 0
M  V30 6196 H 562.28 -2.66767 4.9749 0
M  V30 6197 N 561.678 -1.56367 -0.196722 0
M  V30 6198 C 562.641 -1.93561 -1.22746 0
M  V30 6199 C 563.641 -0.816566 -1.38524 0
M  V30 6200 O 564.831 -1.084 -1.36363 0
M  V30 6201 C 561.963 -2.20823 -2.59712 0
M  V30 6202 H 563.156 -2.85774 -0.909586 0
M  V30 6203 H 560.709 -1.50032 -0.438174 0
M  V30 6204 H 561.444 -1.31243 -2.96557 0
M  V30 6205 H 561.229 -3.02368 -2.49632 0
M  V30 6206 H 562.719 -2.50608 -3.34044 0
M  V30 6207 N 563.156 0.464375 -1.50603 0
M  V30 6208 C 564.119 1.54393 -1.69397 0
M  V30 6209 C 565.119 1.50566 -0.564504 0
M  V30 6210 O 566.309 1.53066 -0.831645 0
M  V30 6211 C 563.441 2.9401 -1.72543 0
M  V30 6212 H 564.634 1.39044 -2.65719 0
M  V30 6213 H 562.187 0.69122 -1.40185 0
M  V30 6214 H 562.922 3.14795 -0.77938 0
M  V30 6215 H 562.707 2.98195 -2.54602 0
M  V30 6216 H 564.197 3.72375 -1.89015 0
M  V30 6217 N 564.634 1.40294 0.718013 0
M  V30 6218 C 565.567 1.34767 1.84155 0
M  V30 6219 C 566.545 0.218455 1.61126 0
M  V30 6220 O 567.729 0.401716 1.8417 0
M  V30 6221 C 564.856 1.09676 3.20451 0
M  V30 6222 C 563.902 2.25016 3.62312 0
M  V30 6223 S 564.735 3.87397 3.69707 0
M  V30 6224 C 565.891 3.64565 5.08766 0
M  V30 6225 H 566.124 2.29851 1.88562 0
M  V30 6226 H 563.657 1.2655 0.884555 0
M  V30 6227 H 565.615 0.95885 3.99144 0
M  V30 6228 H 564.276 0.162502 3.13679 0
M  V30 6229 H 563.469 2.03097 4.61268 0
M  V30 6230 H 563.071 2.35098 2.90869 0
M  V30 6231 H 565.363 3.22882 5.95612 0
M  V30 6232 H 566.306 4.63043 5.35721 0
M  V30 6233 H 566.714 2.98303 4.79245 0
M  V30 6234 N 566.112 -0.949982 1.2575 0
M  V30 6235 C 567.06 -2.06869 1.06339 0
M  V30 6236 C 568.054 -1.69399 -0.00708901 0
M  V30 6237 O 569.26 -1.79383 0.148897 0
M  V30 6238 H 565.635 -0.677197 0.326969 0
M  V30 6239 H 567.606 -2.20396 2.01167 0
M  V30 6240 C 566.355 -3.40503 0.703769 0
M  V30 6241 H 565.678 -3.69807 1.51931 0
M  V30 6242 H 567.118 -4.19623 0.607677 0
M  V30 6243 C 565.577 -3.31685 -0.5905 0
M  V30 6244 O 566.107 -3.67085 -1.63131 0
M  V30 6245 N 564.313 -2.84797 -0.577859 0
M  V30 6246 H 563.86 -2.56186 0.26951 0
M  V30 6247 H 563.818 -2.79279 -1.44398 0
M  V30 6248 N 567.59 -1.07411 -1.15328 0
M  V30 6249 C 568.837 -0.797649 -1.86128 0
M  V30 6250 C 569.165 0.676298 -1.82364 0
M  V30 6251 O 568.42 1.51223 -1.24218 0
M  V30 6252 C 568.719 -1.25191 -3.34757 0
M  V30 6253 C 568.385 -2.73191 -3.58716 0
M  V30 6254 C 567.047 -3.13616 -3.64964 0
M  V30 6255 C 569.399 -3.68718 -3.6837 0
M  V30 6256 C 566.727 -4.48383 -3.78377 0
M  V30 6257 C 569.079 -5.03248 -3.83306 0
M  V30 6258 C 567.743 -5.43293 -3.878 0
M  V30 6259 H 567.013 -0.29188 -0.681092 0
M  V30 6260 H 569.66 -1.34524 -1.36292 0
M  V30 6261 H 567.965 -0.623712 -3.86804 0
M  V30 6262 H 569.662 -1.01489 -3.87945 0
M  V30 6263 H 566.252 -2.40898 -3.54494 0
M  V30 6264 H 570.436 -3.38614 -3.62842 0
M  V30 6265 H 565.692 -4.78877 -3.80114 0
M  V30 6266 H 569.866 -5.77142 -3.89718 0
M  V30 6267 H 567.493 -6.47721 -3.97946 0
M  V30 6268 N 569.068 1.32177 -0.85831 0
M  V30 6269 C 570 2.27688 -0.262835 0
M  V30 6270 C 571.013 1.52588 0.567513 0
M  V30 6271 O 572.202 1.74156 0.391407 0
M  V30 6272 C 569.302 3.32668 0.646937 0
M  V30 6273 C 568.475 4.37148 -0.148372 0
M  V30 6274 C 567.534 5.21686 0.687728 0
M  V30 6275 O 566.56 5.69074 0.119934 0
M  V30 6276 N 567.762 5.44892 2.00182 0
M  V30 6277 H 570.527 2.79426 -1.08356 0
M  V30 6278 H 568.088 1.45076 -0.718647 0
M  V30 6279 H 570.08 3.86134 1.2117 0
M  V30 6280 H 568.65 2.81061 1.36834 0
M  V30 6281 H 567.87 3.83915 -0.894572 0
M  V30 6282 H 569.158 5.04038 -0.694514 0
M  V30 6283 H 568.556 5.08128 2.4864 0
M  V30 6284 H 567.113 6.0134 2.51463 0
M  V30 6285 N 570.547 0.616602 1.45037 0
M  V30 6286 C 571.775 0.121968 2.0654 0
M  V30 6287 C 572.19 -1.19743 1.45969 0
M  V30 6288 O 571.547 -1.73133 0.577168 0
M  V30 6289 C 571.598 -0.0145171 3.61497 0
M  V30 6290 O 571.319 1.25269 4.19809 0
M  V30 6291 C 572.82 -0.539555 4.40004 0
M  V30 6292 H 570.04 0.0729837 0.667019 0
M  V30 6293 H 572.584 0.846891 1.8614 0
M  V30 6294 H 570.739 -0.689809 3.81209 0
M  V30 6295 H 571.153 1.08816 5.13088 0
M  V30 6296 H 572.627 -0.584112 5.48901 0
M  V30 6297 H 573.104 -1.56368 4.10421 0
M  V30 6298 H 573.71 0.101995 4.25178 0
M  V30 6299 N 572.025 -1.5352 0.356285 0
M  V30 6300 C 572.958 -2.2177 -0.537913 0
M  V30 6301 C 573.936 -1.20626 -1.09033 0
M  V30 6302 O 575.12 -1.49494 -1.1482 0
M  V30 6303 C 572.247 -2.90513 -1.74126 0
M  V30 6304 C 571.293 -4.05652 -1.31715 0
M  V30 6305 S 572.126 -5.34505 -0.326236 0
M  V30 6306 C 573.282 -6.06757 -1.53612 0
M  V30 6307 H 573.515 -2.97271 0.0417411 0
M  V30 6308 H 571.048 -1.53761 0.140372 0
M  V30 6309 H 573.006 -3.30735 -2.43155 0
M  V30 6310 H 571.667 -2.14754 -2.29215 0
M  V30 6311 H 570.86 -4.52733 -2.21471 0
M  V30 6312 H 570.462 -3.67272 -0.706183 0
M  V30 6313 H 572.754 -6.30924 -2.46863 0
M  V30 6314 H 573.697 -6.99395 -1.10687 0
M  V30 6315 H 574.105 -5.3708 -1.73796 0
M  V30 6316 N 573.503 -0.0852151 -1.57369 0
M  V30 6317 C 574.453 0.88767 -2.10011 0
M  V30 6318 C 575.437 1.25021 -1.01285 0
M  V30 6319 O 576.629 1.22694 -1.27574 0
M  V30 6320 C 573.758 2.15037 -2.67608 0
M  V30 6321 C 572.844 1.81371 -3.83361 0
M  V30 6322 N 573.235 1.18216 -4.91791 0
M  V30 6323 C 571.533 2.11041 -3.92909 0
M  V30 6324 C 572.234 1.02941 -5.72519 0
M  V30 6325 N 571.21 1.54351 -5.21226 0
M  V30 6326 H 575.012 0.395279 -2.9123 0
M  V30 6327 H 572.526 0.11829 -1.61969 0
M  V30 6328 H 574.523 2.85667 -3.03644 0
M  V30 6329 H 573.183 2.64851 -1.8784 0
M  V30 6330 H 574.194 0.850168 -5.10874 0
M  V30 6331 H 570.871 2.63138 -3.24136 0
M  V30 6332 H 572.261 0.536298 -6.69756 0
M  V30 6333 N 574.981 1.5647 0.188427 0
M  V30 6334 C 575.929 1.95971 1.25293 0
M  V30 6335 C 576.923 0.846047 1.4676 0
M  V30 6336 O 578.129 1.03109 1.47542 0
M  V30 6337 H 574.504 0.623253 0.420784 0
M  V30 6338 H 576.475 2.84731 0.892792 0
M  V30 6339 C 575.224 2.32116 2.58877 0
M  V30 6340 H 574.547 3.17341 2.43176 0
M  V30 6341 H 575.987 2.63613 3.3209 0
M  V30 6342 C 574.446 1.15823 3.16365 0
M  V30 6343 O 574.976 0.436785 3.99318 0
M  V30 6344 N 573.182 0.933278 2.75206 0
M  V30 6345 H 572.729 1.52169 2.07852 0
M  V30 6346 H 572.687 0.156976 3.14008 0
M  V30 6347 N 576.459 -0.456382 1.50847 0
M  V30 6348 C 577.705 -1.20914 1.62811 0
M  V30 6349 C 578.038 -1.91301 0.334304 0
M  V30 6350 O 577.313 -1.82775 -0.665098 0
M  V30 6351 C 577.596 -2.24122 2.81853 0
M  V30 6352 C 577.449 -1.57944 4.21158 0
M  V30 6353 C 578.768 -3.25295 2.96431 0
M  V30 6354 H 575.887 -0.438233 0.592554 0
M  V30 6355 H 578.529 -0.50091 1.83278 0
M  V30 6356 H 576.679 -2.84524 2.64534 0
M  V30 6357 H 578.351 -1.01025 4.50102 0
M  V30 6358 H 576.594 -0.882185 4.24735 0
M  V30 6359 H 577.265 -2.33014 5.00408 0
M  V30 6360 H 579.741 -2.7493 3.12335 0
M  V30 6361 H 578.617 -3.94822 3.81322 0
M  V30 6362 H 578.878 -3.90286 2.07676 0
M  V30 6363 N 577.937 -1.40673 -0.710563 0
M  V30 6364 C 579.165 -1.42547 -1.4996 0
M  V30 6365 C 579.58 -0.0265485 -1.88781 0
M  V30 6366 O 578.937 0.950694 -1.55782 0
M  V30 6367 C 578.988 -2.32071 -2.77173 0
M  V30 6368 O 578.709 -3.66518 -2.39992 0
M  V30 6369 C 580.21 -2.42591 -3.71032 0
M  V30 6370 H 577.43 -0.486025 -0.462623 0
M  V30 6371 H 579.974 -1.84783 -0.876102 0
M  V30 6372 H 578.129 -1.93184 -3.35795 0
M  V30 6373 H 578.543 -4.14115 -3.21884 0
M  V30 6374 H 580.017 -3.09429 -4.57119 0
M  V30 6375 H 580.494 -1.4525 -4.14486 0
M  V30 6376 H 581.1 -2.82051 -3.18319 0
M  V30 6377 N 579.415 0.9433 -1.26252 0
M  V30 6378 C 580.643 1.72367 -1.14443 0
M  V30 6379 C 581.058 1.86392 0.300572 0
M  V30 6380 O 580.415 1.36978 1.20596 0
M  V30 6381 C 580.466 3.13155 -1.806 0
M  V30 6382 O 580.187 2.99803 -3.19452 0
M  V30 6383 C 581.688 4.07417 -1.74717 0
M  V30 6384 H 578.908 0.539758 -0.398626 0
M  V30 6385 H 581.452 1.18268 -1.66832 0
M  V30 6386 H 579.607 3.64162 -1.32154 0
M  V30 6387 H 580.021 3.88697 -3.52158 0
M  V30 6388 H 581.495 5.03773 -2.25647 0
M  V30 6389 H 581.972 4.3337 -0.713244 0
M  V30 6390 H 582.578 3.6233 -2.22704 0
M  V30 6391 N 580.893 1.08022 1.14757 0
M  V30 6392 C 581.803 0.718292 2.23333 0
M  V30 6393 C 582.819 -0.273477 1.71837 0
M  V30 6394 O 583.995 -0.118406 2.01052 0
M  V30 6395 C 581.06 0.128855 3.4646 0
M  V30 6396 C 580.121 1.17473 4.12915 0
M  V30 6397 C 579.354 0.61333 5.30164 0
M  V30 6398 O 579.577 -0.568458 5.6756 0
M  V30 6399 O 578.511 1.3615 5.86299 0
M  V30 6400 H 582.337 1.62394 2.56636 0
M  V30 6401 H 579.922 0.853628 1.22611 0
M  V30 6402 H 581.804 -0.197249 4.20938 0
M  V30 6403 H 580.479 -0.750014 3.14891 0
M  V30 6404 H 579.386 1.5533 3.40328 0
M  V30 6405 H 580.719 2.02574 4.48581 0
M  V30 6406 N 582.371 -1.3172 0.865308 0
M  V30 6407 C 583.599 -2.01057 0.488251 0
M  V30 6408 C 584.014 -1.64979 -0.918 0
M  V30 6409 O 583.371 -0.876597 -1.60069 0
M  V30 6410 C 583.422 -3.55964 0.630224 0
M  V30 6411 O 583.143 -3.90749 1.98109 0
M  V30 6412 C 584.644 -4.42574 0.253567 0
M  V30 6413 H 581.864 -0.64332 0.190736 0
M  V30 6414 H 584.408 -1.68058 1.16519 0
M  V30 6415 H 582.563 -3.874 0.000895422 0
M  V30 6416 H 582.977 -4.85467 1.9855 0
M  V30 6417 H 584.451 -5.50521 0.403875 0
M  V30 6418 H 584.928 -4.31724 -0.806895 0
M  V30 6419 H 585.534 -4.16547 0.858404 0
M  V30 6420 N 583.85 -0.624285 -1.44708 0
M  V30 6421 C 584.797 0.0847135 -2.30644 0
M  V30 6422 C 585.767 0.843575 -1.43084 0
M  V30 6423 O 586.952 0.825982 -1.71995 0
M  V30 6424 C 584.091 1.06495 -3.28257 0
M  V30 6425 C 583.205 0.305224 -4.3092 0
M  V30 6426 C 582.34 1.27667 -5.1563 0
M  V30 6427 C 581.379 0.505706 -6.10007 0
M  V30 6428 N 580.516 1.42727 -6.8744 0
M  V30 6429 H 585.356 -0.654068 -2.90733 0
M  V30 6430 H 582.893 -0.334334 -1.4325 0
M  V30 6431 H 584.851 1.64658 -3.83332 0
M  V30 6432 H 583.481 1.77094 -2.69884 0
M  V30 6433 H 582.533 -0.392207 -3.78373 0
M  V30 6434 H 583.845 -0.295553 -4.97924 0
M  V30 6435 H 582.999 1.92984 -5.75189 0
M  V30 6436 H 581.738 1.91137 -4.48685 0
M  V30 6437 H 580.743 -0.160999 -5.49564 0
M  V30 6438 H 581.968 -0.124183 -6.78986 0
M  V30 6439 H 579.913 2.04931 -6.23169 0
M  V30 6440 H 579.831 0.880345 -7.50857 0
M  V30 6441 H 581.099 2.0695 -7.51526 0
M  V30 6442 N 585.328 1.53329 -0.364422 0
M  V30 6443 C 586.575 2.01239 0.225634 0
M  V30 6444 C 586.903 1.25172 1.48869 0
M  V30 6445 O 586.158 0.333289 1.92841 0
M  V30 6446 C 586.457 3.52911 0.564661 0
M  V30 6447 C 586.123 4.46837 -0.603936 0
M  V30 6448 C 584.785 4.72234 -0.924585 0
M  V30 6449 C 587.137 5.02409 -1.38691 0
M  V30 6450 C 584.465 5.50454 -2.0302 0
M  V30 6451 C 586.817 5.81836 -2.48293 0
M  V30 6452 C 585.481 6.0552 -2.80894 0
M  V30 6453 H 584.751 0.736386 0.0825654 0
M  V30 6454 H 587.398 1.84948 -0.496645 0
M  V30 6455 H 585.703 3.67144 1.36794 0
M  V30 6456 H 587.4 3.87455 1.03344 0
M  V30 6457 H 583.99 4.27217 -0.343983 0
M  V30 6458 H 588.174 4.82735 -1.15243 0
M  V30 6459 H 583.43 5.67024 -2.28678 0
M  V30 6460 H 587.604 6.23905 -3.0938 0
M  V30 6461 H 585.231 6.65916 -3.66688 0
M  V30 6462 N 586.806 0.0935595 1.57322 0
M  V30 6463 C 587.736 -0.863062 2.16964 0
M  V30 6464 C 588.717 -1.29528 1.10256 0
M  V30 6465 O 589.902 -1.36245 1.38387 0
M  V30 6466 C 587.032 -2.12276 2.74875 0
M  V30 6467 C 585.986 -1.82921 3.86942 0
M  V30 6468 C 585.312 -3.15707 4.31548 0
M  V30 6469 C 586.612 -1.11737 5.10208 0
M  V30 6470 H 588.306 -0.366145 2.97153 0
M  V30 6471 H 585.852 -0.174673 1.42937 0
M  V30 6472 H 587.805 -2.79634 3.1525 0
M  V30 6473 H 586.529 -2.64248 1.91938 0
M  V30 6474 H 585.188 -1.17961 3.47103 0
M  V30 6475 H 584.836 -3.65563 3.45504 0
M  V30 6476 H 584.536 -2.96849 5.07104 0
M  V30 6477 H 586.06 -3.84226 4.74555 0
M  V30 6478 H 587.474 -1.69203 5.47762 0
M  V30 6479 H 585.871 -1.03064 5.91183 0
M  V30 6480 H 586.941 -0.0998818 4.84797 0
M  V30 6481 N 588.284 -1.56567 -0.180126 0
M  V30 6482 C 589.214 -1.98753 -1.22553 0
M  V30 6483 C 590.195 -0.86175 -1.46656 0
M  V30 6484 O 591.38 -1.12719 -1.58139 0
M  V30 6485 C 588.51 -2.33988 -2.56645 0
M  V30 6486 C 587.464 -3.49445 -2.47128 0
M  V30 6487 C 586.79 -3.70397 -3.8563 0
M  V30 6488 C 588.09 -4.83171 -1.98352 0
M  V30 6489 H 589.784 -2.86332 -0.874896 0
M  V30 6490 H 587.33 -1.37757 -0.419414 0
M  V30 6491 H 589.283 -2.62097 -3.29974 0
M  V30 6492 H 588.007 -1.43309 -2.93479 0
M  V30 6493 H 586.666 -3.2145 -1.76254 0
M  V30 6494 H 586.314 -2.77023 -4.19842 0
M  V30 6495 H 586.014 -4.48077 -3.80132 0
M  V30 6496 H 587.538 -4.00897 -4.60558 0
M  V30 6497 H 588.952 -5.10213 -2.61449 0
M  V30 6498 H 587.349 -5.64425 -2.03823 0
M  V30 6499 H 588.419 -4.75753 -0.937402 0
M  V30 6500 N 589.762 0.448376 -1.51087 0
M  V30 6501 C 590.709 1.54341 -1.71603 0
M  V30 6502 C 591.679 1.56463 -0.557536 0
M  V30 6503 O 592.864 1.73644 -0.79072 0
M  V30 6504 C 590.004 2.92148 -1.83695 0
M  V30 6505 C 589.117 2.99639 -3.11192 0
M  V30 6506 C 588.252 4.285 -3.13944 0
M  V30 6507 C 587.291 4.29819 -4.35801 0
M  V30 6508 N 586.428 5.50186 -4.36164 0
M  V30 6509 H 591.268 1.36151 -2.65079 0
M  V30 6510 H 588.805 0.661585 -1.31383 0
M  V30 6511 H 590.763 3.72093 -1.88687 0
M  V30 6512 H 589.393 3.0892 -0.936374 0
M  V30 6513 H 588.445 2.12425 -3.15562 0
M  V30 6514 H 589.757 2.96474 -4.01129 0
M  V30 6515 H 588.911 5.16811 -3.17791 0
M  V30 6516 H 587.65 4.34307 -2.21876 0
M  V30 6517 H 586.655 3.39902 -4.32142 0
M  V30 6518 H 587.88 4.25685 -5.29121 0
M  V30 6519 H 585.826 5.56735 -3.46961 0
M  V30 6520 H 585.743 5.48856 -5.19897 0
M  V30 6521 H 587.011 6.40559 -4.44189 0
M  V30 6522 N 591.24 1.41047 0.703093 0
M  V30 6523 C 592.17 1.45067 1.82969 0
M  V30 6524 C 593.151 0.31016 1.67248 0
M  V30 6525 O 594.336 0.520548 1.87093 0
M  V30 6526 C 591.466 1.32478 3.2104 0
M  V30 6527 C 590.42 2.44262 3.51454 0
M  V30 6528 C 589.746 2.16742 4.88801 0
M  V30 6529 C 591.046 3.86606 3.51189 0
M  V30 6530 H 592.74 2.39353 1.79863 0
M  V30 6531 H 590.286 1.15206 0.863919 0
M  V30 6532 H 592.239 1.33904 3.99559 0
M  V30 6533 H 590.963 0.346735 3.24754 0
M  V30 6534 H 589.622 2.42107 2.75282 0
M  V30 6535 H 589.27 1.17299 4.89132 0
M  V30 6536 H 588.97 2.91643 5.10116 0
M  V30 6537 H 590.494 2.19872 5.69639 0
M  V30 6538 H 591.908 3.90517 4.19725 0
M  V30 6539 H 590.305 4.61128 3.84033 0
M  V30 6540 H 591.375 4.15296 2.50315 0
M  V30 6541 N 592.718 -0.936591 1.26751 0
M  V30 6542 C 593.964 -1.6858 1.12733 0
M  V30 6543 C 594.297 -1.91414 -0.327745 0
M  V30 6544 O 593.572 -1.49812 -1.24043 0
M  V30 6545 C 593.855 -3.05779 1.90187 0
M  V30 6546 C 593.708 -2.90242 3.43627 0
M  V30 6547 C 595.027 -4.0597 1.69931 0
M  V30 6548 H 592.146 -0.61182 0.410908 0
M  V30 6549 H 594.788 -1.08747 1.55801 0
M  V30 6550 H 592.938 -3.56853 1.53584 0
M  V30 6551 H 594.61 -2.46354 3.9001 0
M  V30 6552 H 592.853 -2.2577 3.70419 0
M  V30 6553 H 593.524 -3.87572 3.93055 0
M  V30 6554 H 596 -3.63874 2.0183 0
M  V30 6555 H 594.876 -4.99974 2.26534 0
M  V30 6556 H 595.137 -4.37369 0.64502 0
M  V30 6557 N 594.196 -1.08629 -1.14182 0
M  V30 6558 C 595.143 -0.718299 -2.19338 0
M  V30 6559 C 596.113 0.296587 -1.63431 0
M  V30 6560 O 597.298 0.180079 -1.89948 0
M  V30 6561 C 594.438 -0.136203 -3.44831 0
M  V30 6562 C 593.551 -1.20414 -4.14879 0
M  V30 6563 C 592.686 -0.585666 -5.27962 0
M  V30 6564 C 591.725 -1.63548 -5.89846 0
M  V30 6565 N 590.862 -1.03864 -6.94375 0
M  V30 6566 H 595.702 -1.61932 -2.50164 0
M  V30 6567 H 593.239 -0.80919 -1.22844 0
M  V30 6568 H 595.197 0.219021 -4.16625 0
M  V30 6569 H 593.827 0.728121 -3.14481 0
M  V30 6570 H 592.879 -1.67676 -3.41451 0
M  V30 6571 H 594.191 -1.99959 -4.56966 0
M  V30 6572 H 593.345 -0.178818 -6.06436 0
M  V30 6573 H 592.084 0.24142 -4.87102 0
M  V30 6574 H 591.089 -2.05197 -5.10073 0
M  V30 6575 H 592.314 -2.46509 -6.3278 0
M  V30 6576 H 590.26 -0.232687 -6.55587 0
M  V30 6577 H 590.177 -1.77116 -7.3496 0
M  V30 6578 H 591.445 -0.657724 -7.7672 0
M  V30 6579 N 595.674 1.31259 -0.872281 0
M  V30 6580 C 596.584 2.32221 -0.333255 0
M  V30 6581 C 597.6 1.6481 0.558013 0
M  V30 6582 O 598.776 1.96212 0.454175 0
M  V30 6583 C 595.841 3.43708 0.454479 0
M  V30 6584 C 594.902 4.26774 -0.465024 0
M  V30 6585 C 594.135 5.32937 0.28521 0
M  V30 6586 O 594.358 5.49968 1.513 0
M  V30 6587 O 593.292 6.00834 -0.358126 0
M  V30 6588 H 597.118 2.80252 -1.17016 0
M  V30 6589 H 594.703 1.352 -0.635724 0
M  V30 6590 H 596.585 4.11656 0.900963 0
M  V30 6591 H 595.26 2.97836 1.26789 0
M  V30 6592 H 594.167 3.61571 -0.960055 0
M  V30 6593 H 595.5 4.76217 -1.2441 0
M  V30 6594 N 597.152 0.631951 1.44375 0
M  V30 6595 C 598.4 0.136497 2.01639 0
M  V30 6596 C 598.721 -1.24637 1.49969 0
M  V30 6597 O 597.991 -1.82827 0.70363 0
M  V30 6598 H 596.571 0.0474703 0.74549 0
M  V30 6599 H 599.233 0.818837 1.76865 0
M  V30 6600 H 598.329 0.104817 3.11924 0
M  V30 6601 N 598.631 -1.53133 0.372548 0
M  V30 6602 C 599.877 -2.01654 -0.215277 0
M  V30 6603 C 600.21 -1.25914 -1.47849 0
M  V30 6604 O 599.485 -0.3548 -1.91237 0
M  V30 6605 C 599.768 -3.56609 -0.500187 0
M  V30 6606 C 599.621 -4.43036 0.777145 0
M  V30 6607 C 600.94 -4.20528 -1.29786 0
M  V30 6608 H 598.059 -0.732991 -0.0767686 0
M  V30 6609 H 600.701 -1.83335 0.498814 0
M  V30 6610 H 598.851 -3.7235 -1.10852 0
M  V30 6611 H 600.523 -4.39079 1.41447 0
M  V30 6612 H 598.766 -4.10723 1.39604 0
M  V30 6613 H 599.437 -5.49424 0.532662 0
M  V30 6614 H 601.913 -4.08663 -0.783198 0
M  V30 6615 H 600.789 -5.28962 -1.46596 0
M  V30 6616 H 601.05 -3.77051 -2.30836 0
M  V30 6617 N 600.109 -0.101901 -1.5727 0
M  V30 6618 C 601.355 0.561027 -1.94885 0
M  V30 6619 C 601.688 1.6741 -0.984258 0
M  V30 6620 O 600.963 1.94491 -0.0184767 0
M  V30 6621 C 601.246 1.10982 -3.42571 0
M  V30 6622 C 601.099 0.00133418 -4.498 0
M  V30 6623 C 602.418 2.00608 -3.9172 0
M  V30 6624 H 599.537 0.202467 -0.708644 0
M  V30 6625 H 602.179 -0.173992 -1.89202 0
M  V30 6626 H 600.329 1.73621 -3.47546 0
M  V30 6627 H 602.001 -0.63322 -4.56933 0
M  V30 6628 H 600.244 -0.664143 -4.28686 0
M  V30 6629 H 600.915 0.426253 -5.50352 0
M  V30 6630 H 603.391 1.47864 -3.88941 0
M  V30 6631 H 602.267 2.3593 -4.95609 0
M  V30 6632 H 602.528 2.92608 -3.3141 0
M  V30 6633 N 601.587 1.56661 0.17182 0
M  V30 6634 C 602.534 1.96371 1.21273 0
M  V30 6635 C 603.504 0.82756 1.44016 0
M  V30 6636 O 604.689 1.08764 1.56764 0
M  V30 6637 C 601.829 2.32838 2.54716 0
M  V30 6638 C 600.942 3.59628 2.39356 0
M  V30 6639 C 600.077 3.85311 3.65662 0
M  V30 6640 C 599.116 5.0545 3.45234 0
M  V30 6641 N 598.253 5.27268 4.63608 0
M  V30 6642 H 603.093 2.85106 0.86709 0
M  V30 6643 H 600.63 1.41073 0.416744 0
M  V30 6644 H 602.588 2.52004 3.3249 0
M  V30 6645 H 601.218 1.47214 2.87277 0
M  V30 6646 H 600.27 3.4838 1.52761 0
M  V30 6647 H 601.582 4.4756 2.20207 0
M  V30 6648 H 600.736 4.04841 4.51872 0
M  V30 6649 H 599.475 2.95753 3.8779 0
M  V30 6650 H 598.48 4.85819 2.5741 0
M  V30 6651 H 599.705 5.96538 3.24529 0
M  V30 6652 H 597.651 4.40662 4.85956 0
M  V30 6653 H 597.568 6.09422 4.4737 0
M  V30 6654 H 598.836 5.51277 5.51103 0
M  V30 6655 N 603.065 -0.440357 1.51323 0
M  V30 6656 C 604.342 -1.20109 1.5438 0
M  V30 6657 C 604.722 -2.08866 0.306303 0
M  V30 6658 O 604.07 -2.1723 -0.708773 0
M  V30 6659 C 604.28 -2.00555 2.8562 0
M  V30 6660 C 605.628 -2.577 3.37455 0
M  V30 6661 O 606.652 -2.10769 2.8715 0
M  V30 6662 O 605.511 -3.43289 4.25224 0
M  V30 6663 H 602.605 -0.546668 0.620551 0
M  V30 6664 H 605.151 -0.449672 1.63634 0
M  V30 6665 H 603.923 -1.35346 3.67147 0
M  V30 6666 H 603.546 -2.82768 2.79514 0
M  V30 6667 N 604.543 -1.41418 -0.695603 0
M  V30 6668 C 605.473 -1.46035 -1.82197 0
M  V30 6669 C 606.454 -0.319025 -1.67082 0
M  V30 6670 O 607.639 -0.530462 -1.86815 0
M  V30 6671 C 604.769 -1.34179 -3.20333 0
M  V30 6672 C 603.723 -2.46123 -3.50154 0
M  V30 6673 C 603.049 -2.19332 -4.87645 0
M  V30 6674 C 604.349 -3.88463 -3.49133 0
M  V30 6675 H 606.043 -2.40303 -1.78591 0
M  V30 6676 H 603.589 -1.15663 -0.857797 0
M  V30 6677 H 605.542 -1.36021 -3.98844 0
M  V30 6678 H 604.266 -0.363952 -3.24566 0
M  V30 6679 H 602.925 -2.43563 -2.73994 0
M  V30 6680 H 602.573 -1.19891 -4.88503 0
M  V30 6681 H 602.273 -2.94344 -5.08562 0
M  V30 6682 H 603.797 -2.22889 -5.68465 0
M  V30 6683 H 605.211 -3.92738 -4.17648 0
M  V30 6684 H 603.608 -4.63158 -3.81582 0
M  V30 6685 H 604.678 -4.16617 -2.48109 0
M  V30 6686 N 606.021 0.929856 -1.27246 0
M  V30 6687 C 607.246 1.71674 -1.16374 0
M  V30 6688 C 607.671 1.86064 0.276024 0
M  V30 6689 O 607.029 1.3591 1.19992 0
M  V30 6690 C 607.077 3.09526 -1.85003 0
M  V30 6691 O 606.181 3.96142 -1.14653 0
M  V30 6692 H 605.522 0.52629 -0.404863 0
M  V30 6693 H 608.052 1.16381 -1.68276 0
M  V30 6694 H 608.062 3.59852 -1.92276 0
M  V30 6695 H 606.737 2.98369 -2.89739 0
M  V30 6696 H 605.314 3.54584 -1.15433 0
M  V30 6697 N 607.499 1.09233 1.13605 0
M  V30 6698 C 608.747 0.825525 1.84471 0
M  V30 6699 C 609.068 -0.650702 1.83823 0
M  V30 6700 O 608.338 -1.47204 1.29259 0
M  V30 6701 H 606.918 0.3024 0.683054 0
M  V30 6702 H 609.58 1.38006 1.37624 0
M  V30 6703 H 608.676 1.17727 2.89045 0
M  V30 6704 N 608.977 -1.30795 0.87923 0
M  V30 6705 C 610.225 -1.95974 0.493809 0
M  V30 6706 C 610.546 -1.69787 -0.959021 0
M  V30 6707 O 609.816 -1.01832 -1.67353 0
M  V30 6708 H 608.396 -0.725083 0.179622 0
M  V30 6709 H 611.058 -1.59432 1.12105 0
M  V30 6710 H 610.154 -3.05058 0.659263 0
M  V30 6711 N 610.455 -0.639598 -1.44038 0
M  V30 6712 C 611.704 -0.144885 -2.01179 0
M  V30 6713 C 612.017 1.24372 -1.50967 0
M  V30 6714 O 613.223 1.83291 -2.00292 0
M  V30 6715 C 611.679 -0.208244 -3.59297 0
M  V30 6716 C 611.287 -1.59869 -4.18504 0
M  V30 6717 C 613.031 0.229568 -4.23879 0
M  V30 6718 C 610.938 -1.61671 -5.68873 0
M  V30 6719 H 609.868 -0.0504005 -0.752314 0
M  V30 6720 H 612.519 -0.799639 -1.65161 0
M  V30 6721 H 610.901 0.513767 -3.92653 0
M  V30 6722 H 612.075 -2.34496 -3.96671 0
M  V30 6723 H 610.39 -1.98131 -3.66242 0
M  V30 6724 H 612.987 0.235758 -5.3418 0
M  V30 6725 H 613.33 1.25848 -3.96822 0
M  V30 6726 H 613.863 -0.440233 -3.95357 0
M  V30 6727 H 610.602 -2.62427 -6.00677 0
M  V30 6728 H 610.122 -0.913489 -5.92803 0
M  V30 6729 H 611.801 -1.35439 -6.32665 0
M  V30 6730 N 611.933 1.52934 -0.380664 0
M  V30 6731 C 613.21 1.93845 0.261417 0
M  V30 6732 C 613.59 1.31544 1.65104 0
M  V30 6733 O 612.938 0.480234 2.23397 0
M  V30 6734 C 613.148 3.47739 0.296466 0
M  V30 6735 C 614.496 4.21284 0.529578 0
M  V30 6736 O 615.52 3.54199 0.377041 0
M  V30 6737 O 614.379 5.40195 0.827753 0
M  V30 6738 H 611.473 0.811318 0.160285 0
M  V30 6739 H 614.019 1.64042 -0.434544 0
M  V30 6740 H 612.791 3.85395 -0.67724 0
M  V30 6741 H 612.414 3.8382 1.0377 0
M  V30 6742 N 613.412 0.11024 1.57214 0
M  V30 6743 C 614.828 -0.24638 1.57687 0
M  V30 6744 C 615.028 -1.67344 1.12241 0
M  V30 6745 O 614.084 -2.39298 0.805783 0
M  V30 6746 C 615.397 -0.0210288 3.00693 0
M  V30 6747 C 616.945 -0.0876077 3.12877 0
M  V30 6748 C 617.42 0.10994 4.57868 0
M  V30 6749 N 618.911 0.0556135 4.63167 0
M  V30 6750 C 619.646 0.183495 5.73106 0
M  V30 6751 N 619.142 0.367058 6.91827 0
M  V30 6752 N 620.935 0.123689 5.61964 0
M  V30 6753 H 613.086 1.04246 1.85058 0
M  V30 6754 H 615.349 0.40979 0.854854 0
M  V30 6755 H 615.055 0.965203 3.38196 0
M  V30 6756 H 614.929 -0.756748 3.69531 0
M  V30 6757 H 617.316 -1.06436 2.75237 0
M  V30 6758 H 617.397 0.67985 2.466 0
M  V30 6759 H 617.041 1.08362 4.96206 0
M  V30 6760 H 616.971 -0.677397 5.22225 0
M  V30 6761 H 619.462 -0.0831062 3.77809 0
M  V30 6762 H 619.775 0.455739 7.71455 0
M  V30 6763 H 618.12 0.40292 6.93831 0
M  V30 6764 H 621.311 -0.0186928 4.68096 0
M  V30 6765 H 621.484 0.226797 6.47603 0
M  V30 6766 N 614.89 -1.56749 -0.16351 0
M  V30 6767 C 615.8 -2.00255 -1.2221 0
M  V30 6768 C 616.816 -0.915194 -1.47987 0
M  V30 6769 O 617.992 -1.22342 -1.59982 0
M  V30 6770 C 615.057 -2.36035 -2.53946 0
M  V30 6771 C 614.118 -3.58637 -2.35962 0
M  V30 6772 C 613.351 -3.92701 -3.61416 0
M  V30 6773 O 613.574 -3.27632 -4.66919 0
M  V30 6774 O 612.508 -4.86019 -3.55062 0
M  V30 6775 H 616.334 -2.90586 -0.882794 0
M  V30 6776 H 613.919 -1.44721 -0.370978 0
M  V30 6777 H 615.801 -2.59982 -3.31643 0
M  V30 6778 H 614.476 -1.48863 -2.8744 0
M  V30 6779 H 613.383 -3.39898 -1.5627 0
M  V30 6780 H 614.716 -4.46374 -2.0739 0
M  V30 6781 N 616.368 0.432326 -1.51554 0
M  V30 6782 C 617.615 1.18134 -1.64471 0
M  V30 6783 C 617.943 1.91076 -0.363349 0
M  V30 6784 O 617.198 1.84492 0.65279 0
M  V30 6785 C 617.497 2.21907 -2.80164 0
M  V30 6786 C 617.163 1.65941 -4.19255 0
M  V30 6787 C 615.825 1.50401 -4.57092 0
M  V30 6788 C 618.177 1.24843 -5.06027 0
M  V30 6789 C 615.505 0.922443 -5.79403 0
M  V30 6790 C 617.857 0.68113 -6.28922 0
M  V30 6791 C 616.521 0.512673 -6.65528 0
M  V30 6792 H 615.791 0.432283 -0.601841 0
M  V30 6793 H 618.438 0.471701 -1.856 0
M  V30 6794 H 616.743 2.98928 -2.53277 0
M  V30 6795 H 618.44 2.79691 -2.87357 0
M  V30 6796 H 615.03 1.79014 -3.89425 0
M  V30 6797 H 619.214 1.35667 -4.77397 0
M  V30 6798 H 614.47 0.779733 -6.06408 0
M  V30 6799 H 618.644 0.35418 -6.95499 0
M  V30 6800 H 616.271 0.0599084 -7.60176 0
M  V30 6801 O 617.885 1.50798 0.578109 0
M  V30 6802 H 618.576 1.4938 1.2331 0
M  V30 END ATOM
M  V30 BEGIN BOND
M  V30 END BOND
M  V30 END CTAB
M  END
$$$$
