drugbank_target|Q9UNK4 Group IID secretory phospholipase A2 (DB03017; DB03193)
 OpenBabel12092120453D

  0  0  0     0  0            999 V3000
M  V30 BEGIN CTAB
M  V30 COUNTS 2270 2300 0 0 0
M  V30 BEGIN ATOM
M  V30 1 H -0.908 1.98254 -0.117106 0
M  V30 2 N 0 1.576 0 0
M  V30 3 C 0.933 2.03868 1.02534 0
M  V30 4 C 1.911 0.928543 1.3348 0
M  V30 5 O 3.095 1.19667 1.45644 0
M  V30 6 C 0.222 2.43627 2.35294 0
M  V30 7 C -0.732 3.65373 2.2001 0
M  V30 8 S 0.101 5.13292 1.52614 0
M  V30 9 C 1.257 5.56322 2.86805 0
M  V30 10 H 1.49 2.90518 0.631377 0
M  V30 11 H -0.977 1.52953 0.210867 0
M  V30 12 H 0.981 2.67203 3.11629 0
M  V30 13 H -0.358 1.57376 2.7183 0
M  V30 14 H -1.165 3.90944 3.18086 0
M  V30 15 H -1.563 3.418 1.51819 0
M  V30 16 H 0.729 5.58782 3.83104 0
M  V30 17 H 1.672 6.56266 2.65933 0
M  V30 18 H 2.08 4.83886 2.90714 0
M  V30 19 N 1.4781 -0.272755 1.55222 0
M  V30 20 C 2.3881 -1.35918 1.91216 0
M  V30 21 C 3.4041 -1.54026 0.809436 0
M  V30 22 O 4.5801 -1.68148 1.10852 0
M  V30 23 C 1.6451 -2.69834 2.17693 0
M  V30 24 C 0.7061 -2.6047 3.41253 0
M  V30 25 C -0.0609 -3.88 3.66458 0
M  V30 26 O 0.1621 -4.88693 2.94169 0
M  V30 27 O -0.9039 -3.88189 4.59992 0
M  V30 28 H 2.9221 -1.0839 2.83699 0
M  V30 29 H 0.5071 -0.471301 1.41771 0
M  V30 30 H 2.3891 -3.49017 2.36147 0
M  V30 31 H 1.0641 -2.97148 1.28392 0
M  V30 32 H -0.0289 -1.79663 3.28134 0
M  V30 33 H 1.3041 -2.38106 4.30774 0
M  V30 34 N 2.9562 -1.48159 -0.537278 0
M  V30 35 C 3.8862 -1.65029 -1.6519 0
M  V30 36 C 4.8672 -0.499281 -1.62607 0
M  V30 37 O 6.0522 -0.730972 -1.79918 0
M  V30 38 C 3.1822 -1.68303 -3.03795 0
M  V30 39 C 2.1362 -2.8283 -3.21234 0
M  V30 40 C 1.4622 -2.71189 -4.60826 0
M  V30 41 C 2.7622 -4.24211 -3.04701 0
M  V30 42 H 4.4562 -2.58341 -1.51328 0
M  V30 43 H 2.0022 -1.24325 -0.726585 0
M  V30 44 H 3.9552 -1.78693 -3.81637 0
M  V30 45 H 2.6792 -0.715635 -3.18663 0
M  V30 46 H 1.3382 -2.71983 -2.45807 0
M  V30 47 H 0.9862 -1.72435 -4.7252 0
M  V30 48 H 0.6862 -3.48035 -4.7344 0
M  V30 49 H 2.2102 -2.83537 -5.40777 0
M  V30 50 H 3.6242 -4.3593 -3.72341 0
M  V30 51 H 2.0212 -5.01998 -3.28813 0
M  V30 52 H 3.0912 -4.41184 -2.01209 0
M  V30 53 N 4.4343 0.785586 -1.36625 0
M  V30 54 C 5.3973 1.87999 -1.31107 0
M  V30 55 C 6.3973 1.59316 -0.217959 0
M  V30 56 O 7.5873 1.67656 -0.472977 0
M  V30 57 C 4.7193 3.24861 -1.03334 0
M  V30 58 H 5.9123 1.94307 -2.2844 0
M  V30 59 H 3.4653 0.983813 -1.21453 0
M  V30 60 H 4.2003 3.24235 -0.0647432 0
M  V30 61 H 3.9853 3.4707 -1.82441 0
M  V30 62 H 5.4753 4.04929 -1.02088 0
M  V30 63 N 5.9124 1.20967 1.01018 0
M  V30 64 C 6.8424 0.988272 2.11555 0
M  V30 65 C 7.8234 -0.0849778 1.69888 0
M  V30 66 O 9.0084 0.0738202 1.9406 0
M  V30 67 C 6.1384 0.546528 3.42973 0
M  V30 68 C 5.0924 1.56375 3.9841 0
M  V30 69 C 4.4184 0.97842 5.25672 0
M  V30 70 C 5.7184 2.94922 4.31066 0
M  V30 71 H 7.4124 1.91276 2.30334 0
M  V30 72 H 4.9584 0.921073 1.1069 0
M  V30 73 H 6.9114 0.378839 4.19694 0
M  V30 74 H 5.6354 -0.413598 3.23971 0
M  V30 75 H 4.2944 1.71891 3.23804 0
M  V30 76 H 3.9424 0.0101688 5.02999 0
M  V30 77 H 3.6424 1.65784 5.63728 0
M  V30 78 H 5.1664 0.821939 6.05043 0
M  V30 79 H 6.5804 2.8288 4.9865 0
M  V30 80 H 4.9774 3.5983 4.80253 0
M  V30 81 H 6.0474 3.4616 3.39561 0
M  V30 82 N 7.3905 -1.2043 1.01659 0
M  V30 83 C 8.3205 -2.25466 0.607226 0
M  V30 84 C 9.3015 -1.65853 -0.377716 0
M  V30 85 O 10.4865 -1.92409 -0.263149 0
M  V30 86 C 7.6165 -3.47256 -0.0552949 0
M  V30 87 C 6.5705 -4.19462 0.850632 0
M  V30 88 C 5.8965 -5.34673 0.0538859 0
M  V30 89 C 7.1965 -4.75603 2.15868 0
M  V30 90 H 8.8905 -2.59962 1.48526 0
M  V30 91 H 6.4365 -1.2496 0.715605 0
M  V30 92 H 8.3895 -4.19917 -0.353233 0
M  V30 93 H 7.1135 -3.11924 -0.968045 0
M  V30 94 H 5.7725 -3.48667 1.13257 0
M  V30 95 H 5.4205 -4.95585 -0.860514 0
M  V30 96 H 5.1205 -5.83913 0.657192 0
M  V30 97 H 6.6445 -6.10138 -0.237598 0
M  V30 98 H 8.0585 -5.40083 1.92311 0
M  V30 99 H 6.4555 -5.3528 2.71284 0
M  V30 100 H 7.5255 -3.94346 2.82169 0
M  V30 101 N 8.8686 -0.792821 -1.36206 0
M  V30 102 C 10.1086 -0.372238 -2.00982 0
M  V30 103 C 10.4726 1.03749 -1.61555 0
M  V30 104 O 11.6736 1.55934 -2.18948 0
M  V30 105 C 9.9446 -0.534566 -3.5338 0
M  V30 106 S 11.5036 -0.202365 -4.38333 0
M  V30 107 H 8.3216 -0.142044 -0.696667 0
M  V30 108 H 10.9236 -1.03206 -1.66039 0
M  V30 109 H 9.6276 -1.5608 -3.79562 0
M  V30 110 H 9.1586 0.141065 -3.93147 0
M  V30 111 H 11.1736 0.994869 -4.86124 0
M  V30 112 N 10.3467 1.47872 -0.545128 0
M  V30 113 C 11.5947 2.02093 -0.016553 0
M  V30 114 C 11.9157 1.42305 1.3332 0
M  V30 115 O 11.1857 0.593853 1.86682 0
M  V30 116 H 9.7657 0.746993 -0.00313038 0
M  V30 117 H 12.4277 1.81414 -0.712397 0
M  V30 118 H 11.5237 3.11996 0.0805422 0
M  V30 119 N 11.8248 0.280983 1.55075 0
M  V30 120 C 12.7548 -0.597469 2.25727 0
M  V30 121 C 13.7358 -1.15417 1.24952 0
M  V30 122 O 14.9208 -1.18722 1.53684 0
M  V30 123 C 12.0508 -1.7789 2.98283 0
M  V30 124 C 11.0048 -1.35347 4.06036 0
M  V30 125 C 10.3308 -2.61846 4.66198 0
M  V30 126 C 11.6308 -0.499354 5.19907 0
M  V30 127 H 13.3248 -0.00824265 2.99399 0
M  V30 128 H 10.8708 -0.0025244 1.44 0
M  V30 129 H 12.8238 -2.39937 3.46422 0
M  V30 130 H 11.5478 -2.39405 2.22155 0
M  V30 131 H 10.2068 -0.756156 3.58717 0
M  V30 132 H 9.8548 -3.21632 3.86732 0
M  V30 133 H 9.5548 -2.3409 5.38958 0
M  V30 134 H 11.0788 -3.24732 5.1709 0
M  V30 135 H 12.4928 -1.02498 5.64063 0
M  V30 136 H 10.8898 -0.316424 5.99265 0
M  V30 137 H 11.9598 0.480459 4.82514 0
M  V30 138 N 13.3029 -1.57598 0.00835791 0
M  V30 139 C 14.5489 -1.91211 -0.675732 0
M  V30 140 C 14.8819 -0.883139 -1.72958 0
M  V30 141 O 14.1569 0.097016 -1.94258 0
M  V30 142 C 14.4399 -3.35379 -1.31123 0
M  V30 143 C 14.2929 -4.48999 -0.268356 0
M  V30 144 C 15.6119 -3.7912 -2.23508 0
M  V30 145 H 12.7309 -0.695374 -0.244179 0
M  V30 146 H 15.3729 -1.89901 0.0613655 0
M  V30 147 H 13.5229 -3.36626 -1.93946 0
M  V30 148 H 15.1949 -4.59887 0.360844 0
M  V30 149 H 13.4379 -4.31873 0.408482 0
M  V30 150 H 14.1089 -5.46851 -0.752218 0
M  V30 151 H 16.5849 -3.79477 -1.70693 0
M  V30 152 H 15.4609 -4.80729 -2.64936 0
M  V30 153 H 15.7219 -3.13455 -3.11766 0
M  V30 154 N 14.781 0.264519 -1.55364 0
M  V30 155 C 16.027 0.99646 -1.76631 0
M  V30 156 C 16.36 1.85632 -0.570478 0
M  V30 157 O 15.635 1.89647 0.43175 0
M  V30 158 C 15.918 1.87187 -3.07625 0
M  V30 159 C 15.771 1.04138 -4.37579 0
M  V30 160 C 17.09 2.85749 -3.34717 0
M  V30 161 H 14.209 0.360841 -0.642622 0
M  V30 162 H 16.851 0.268218 -1.88097 0
M  V30 163 H 15.001 2.49279 -2.9798 0
M  V30 164 H 16.673 0.440517 -4.59192 0
M  V30 165 H 14.916 0.345115 -4.32425 0
M  V30 166 H 15.587 1.68729 -5.2558 0
M  V30 167 H 18.063 2.33793 -3.4421 0
M  V30 168 H 16.939 3.44136 -4.27623 0
M  V30 169 H 17.2 3.61311 -2.54768 0
M  V30 170 N 16.2591 1.48442 0.529413 0
M  V30 171 C 17.1921 1.57577 1.65059 0
M  V30 172 C 18.1701 0.426198 1.56915 0
M  V30 173 O 19.3541 0.637877 1.77379 0
M  V30 174 C 16.4811 1.5043 3.03461 0
M  V30 175 C 15.5271 2.70235 3.29962 0
M  V30 176 S 16.3601 4.32198 3.16172 0
M  V30 177 C 17.5161 4.2765 4.57019 0
M  V30 178 H 17.7491 2.52427 1.5706 0
M  V30 179 H 15.2821 1.36982 0.712417 0
M  V30 180 H 17.2401 1.46992 3.8328 0
M  V30 181 H 15.9011 0.569167 3.089 0
M  V30 182 H 15.0941 2.61374 4.30929 0
M  V30 183 H 14.6961 2.70938 2.57815 0
M  V30 184 H 16.9881 3.97618 5.48549 0
M  V30 185 H 17.9311 5.28797 4.70934 0
M  V30 186 H 18.3391 3.5811 4.36368 0
M  V30 187 N 17.7372 -0.778329 1.37039 0
M  V30 188 C 18.7002 -1.87301 1.32102 0
M  V30 189 C 19.7002 -1.59198 0.226405 0
M  V30 190 O 20.8902 -1.67403 0.481861 0
M  V30 191 C 18.0222 -3.24309 1.05055 0
M  V30 192 H 19.2152 -1.93093 2.29467 0
M  V30 193 H 16.7682 -0.977358 1.21973 0
M  V30 194 H 17.5032 -3.24196 0.0819373 0
M  V30 195 H 17.2882 -3.46098 1.84279 0
M  V30 196 H 18.7782 -4.04382 1.04234 0
M  V30 197 N 19.2153 -1.21501 -1.00376 0
M  V30 198 C 20.4633 -1.03095 -1.73827 0
M  V30 199 C 20.7843 0.436341 -1.90055 0
M  V30 200 O 20.0543 1.31466 -1.45236 0
M  V30 201 H 18.6343 -0.378487 -0.644016 0
M  V30 202 H 21.2963 -1.52831 -1.20949 0
M  V30 203 H 20.3923 -1.49991 -2.73695 0
M  V30 204 N 20.6934 1.19889 -1.02296 0
M  V30 205 C 21.9394 1.89701 -0.717033 0
M  V30 206 C 22.2724 1.7905 0.751989 0
M  V30 207 O 21.5474 1.17891 1.547 0
M  V30 208 C 21.8304 3.40858 -1.16136 0
M  V30 209 C 21.6834 3.60411 -2.69117 0
M  V30 210 C 23.0024 4.33876 -0.737549 0
M  V30 211 H 20.1214 0.688874 -0.261957 0
M  V30 212 H 22.7634 1.41154 -1.27183 0
M  V30 213 H 20.9134 3.82335 -0.689342 0
M  V30 214 H 22.5854 3.28145 -3.2422 0
M  V30 215 H 20.8284 3.03665 -3.0979 0
M  V30 216 H 21.4994 4.66396 -2.95261 0
M  V30 217 H 23.9754 4.00081 -1.14344 0
M  V30 218 H 22.8514 5.38242 -1.0764 0
M  V30 219 H 23.1124 4.40628 0.360436 0
M  V30 220 N 22.1715 0.800033 1.35784 0
M  V30 221 C 23.4205 0.37387 1.98205 0
M  V30 222 C 23.7335 -1.06302 1.64193 0
M  V30 223 O 24.9395 -1.59198 2.19928 0
M  V30 224 C 23.3955 0.617532 3.54562 0
M  V30 225 C 23.0035 2.06654 3.9749 0
M  V30 226 C 24.7475 0.256401 4.23725 0
M  V30 227 C 22.6545 2.2563 5.46667 0
M  V30 228 H 21.5845 0.136055 0.741623 0
M  V30 229 H 24.2355 0.983166 1.54939 0
M  V30 230 H 22.6175 -0.0616248 3.95952 0
M  V30 231 H 23.7915 2.78296 3.67271 0
M  V30 232 H 22.1065 2.38691 3.41197 0
M  V30 233 H 24.7035 0.376318 5.33374 0
M  V30 234 H 25.0465 -0.796692 4.08606 0
M  V30 235 H 25.5795 0.889214 3.87734 0
M  V30 236 H 22.3185 3.2936 5.66747 0
M  V30 237 H 21.8385 1.58504 5.78478 0
M  V30 238 H 23.5175 2.06861 6.1304 0
M  V30 239 N 23.6496 -1.47581 0.552962 0
M  V30 240 C 25.0606 -1.86324 0.118463 0
M  V30 241 C 25.4116 -1.46006 -1.3106 0
M  V30 242 O 24.5366 -0.861182 -1.98526 0
M  V30 243 C 25.1316 -3.3816 0.20821 0
M  V30 244 C 23.6906 -3.7601 -0.171226 0
M  V30 245 C 22.8376 -2.71634 0.557686 0
M  V30 246 H 25.7886 -1.39159 0.762928 0
M  V30 247 H 25.8096 -3.76141 -0.574278 0
M  V30 248 H 25.3216 -3.67473 1.24841 0
M  V30 249 H 23.4226 -3.52313 -1.21269 0
M  V30 250 H 23.5356 -4.78745 0.184379 0
M  V30 251 H 21.8996 -2.547 0.00125792 0
M  V30 252 H 22.6826 -3.0379 1.59896 0
M  V30 253 N 25.1277 -0.289203 -1.54924 0
M  V30 254 C 26.3767 0.324231 -1.99077 0
M  V30 255 C 26.6897 1.5591 -1.18117 0
M  V30 256 O 27.8957 2.24637 -1.52481 0
M  V30 257 C 26.3517 0.628209 -3.54375 0
M  V30 258 C 25.9597 -0.587647 -4.44129 0
M  V30 259 C 27.7037 1.20349 -4.07083 0
M  V30 260 C 25.6107 -0.257475 -5.90839 0
M  V30 261 H 24.5407 0.124924 -0.743579 0
M  V30 262 H 27.1917 -0.396063 -1.79175 0
M  V30 263 H 25.5737 1.40778 -3.70132 0
M  V30 264 H 26.7477 -1.36418 -4.40144 0
M  V30 265 H 25.0627 -1.08074 -4.0213 0
M  V30 266 H 27.6597 1.46456 -5.14252 0
M  V30 267 H 28.0027 2.14195 -3.56968 0
M  V30 268 H 28.5357 0.485889 -3.94821 0
M  V30 269 H 25.2747 -1.16419 -6.45079 0
M  V30 270 H 24.7947 0.482018 -5.9786 0
M  V30 271 H 26.4737 0.145238 -6.46837 0
M  V30 272 N 26.6058 1.57591 -0.0167156 0
M  V30 273 C 27.5378 2.06343 0.997753 0
M  V30 274 C 28.5508 0.984469 1.29661 0
M  V30 275 O 29.7398 1.26093 1.26344 0
M  V30 276 C 26.8398 2.46255 2.32834 0
M  V30 277 C 26.0128 3.77083 2.21646 0
M  V30 278 C 25.0718 4.0368 3.37534 0
M  V30 279 O 24.0978 4.7411 3.14973 0
M  V30 280 N 25.2998 3.52881 4.60929 0
M  V30 281 H 28.0648 2.93997 0.581875 0
M  V30 282 H 25.6258 1.61002 0.170316 0
M  V30 283 H 27.6178 2.61149 3.09166 0
M  V30 284 H 26.1878 1.64032 2.66106 0
M  V30 285 H 25.4078 3.72106 1.30119 0
M  V30 286 H 26.6958 4.62822 2.11361 0
M  V30 287 H 26.0938 2.95878 4.82154 0
M  V30 288 H 24.6508 3.73076 5.34469 0
M  V30 289 N 28.0839 -0.256276 1.55502 0
M  V30 290 C 29.3319 -0.983672 1.76545 0
M  V30 291 C 29.6529 -1.86206 0.578982 0
M  V30 292 O 28.9229 -1.91656 -0.405577 0
M  V30 293 H 27.5029 -0.366191 0.651086 0
M  V30 294 H 30.1649 -0.276479 1.92929 0
M  V30 295 H 29.2609 -1.61087 2.67315 0
M  V30 296 N 29.562 -1.4872 -0.521534 0
M  V30 297 C 30.81 -1.56857 -1.27437 0
M  V30 298 C 31.131 -0.247982 -1.93417 0
M  V30 299 O 30.401 0.731151 -1.81744 0
M  V30 300 H 28.981 -0.577885 -0.473347 0
M  V30 301 H 31.643 -1.85233 -0.606205 0
M  V30 302 H 30.739 -2.35402 -2.0492 0
M  V30 303 N 31.0401 0.771051 -1.3745 0
M  V30 304 C 32.2891 1.52491 -1.3202 0
M  V30 305 C 32.6021 1.9538 0.0927347 0
M  V30 306 O 33.8081 2.70159 0.269503 0
M  V30 307 C 32.2641 2.75366 -2.31736 0
M  V30 308 C 31.8721 2.39573 -3.78562 0
M  V30 309 C 33.6161 3.53307 -2.35318 0
M  V30 310 C 31.5231 3.58954 -4.70007 0
M  V30 311 H 30.4531 0.572506 -0.490666 0
M  V30 312 H 33.1041 0.844474 -1.62914 0
M  V30 313 H 31.4861 3.45303 -1.93861 0
M  V30 314 H 32.6601 1.77415 -4.25277 0
M  V30 315 H 30.9751 1.74805 -3.77932 0
M  V30 316 H 33.5721 4.42039 -3.00842 0
M  V30 317 H 33.9151 3.93217 -1.36698 0
M  V30 318 H 34.4481 2.90367 -2.71904 0
M  V30 319 H 31.1871 3.24125 -5.69757 0
M  V30 320 H 30.7071 4.20214 -4.27996 0
M  V30 321 H 32.3861 4.25758 -4.87175 0
M  V30 322 N 32.5182 1.22032 0.997298 0
M  V30 323 C 33.4482 1.01065 2.10495 0
M  V30 324 C 34.4292 -0.0669542 1.69968 0
M  V30 325 O 35.6142 0.0943987 1.9397 0
M  V30 326 C 32.7442 0.582874 3.42374 0
M  V30 327 C 31.6982 1.60592 3.96729 0
M  V30 328 C 31.0242 1.03412 5.24605 0
M  V30 329 C 32.3242 2.99478 4.27914 0
M  V30 330 H 34.0182 1.93708 2.28292 0
M  V30 331 H 31.5642 0.932761 1.09707 0
M  V30 332 H 33.5172 0.423332 4.19268 0
M  V30 333 H 32.2412 -0.379213 3.24391 0
M  V30 334 H 30.9002 1.75316 3.21963 0
M  V30 335 H 30.5482 0.063518 5.0296 0
M  V30 336 H 30.2482 1.71754 5.61938 0
M  V30 337 H 31.7722 0.886066 6.04137 0
M  V30 338 H 33.1862 2.88153 4.95622 0
M  V30 339 H 31.5832 3.64903 4.76409 0
M  V30 340 H 32.6532 3.49742 3.3587 0
M  V30 341 N 33.9963 -1.19345 1.0293 0
M  V30 342 C 34.9443 -2.24621 0.604001 0
M  V30 343 C 35.9383 -1.65452 -0.363587 0
M  V30 344 O 37.1443 -1.78497 -0.23212 0
M  V30 345 H 33.5193 -0.730858 0.177061 0
M  V30 346 H 35.4903 -2.5781 1.50255 0
M  V30 347 C 34.2393 -3.47688 -0.0289127 0
M  V30 348 H 33.5623 -3.93505 0.706651 0
M  V30 349 H 35.0023 -4.23011 -0.289432 0
M  V30 350 C 33.4613 -3.11817 -1.2756 0
M  V30 351 O 33.9913 -3.2451 -2.36762 0
M  V30 352 N 32.1973 -2.66246 -1.16453 0
M  V30 353 H 31.7443 -2.56118 -0.275914 0
M  V30 354 H 31.7023 -2.42617 -1.99961 0
M  V30 355 N 35.4744 -0.807222 -1.35358 0
M  V30 356 C 36.4044 -0.232509 -2.3234 0
M  V30 357 C 37.3854 0.642386 -1.57504 0
M  V30 358 O 38.5704 0.572526 -1.85569 0
M  V30 359 C 35.7004 0.619238 -3.41735 0
M  V30 360 C 34.6544 -0.157215 -4.27711 0
M  V30 361 C 33.9804 0.816273 -5.28433 0
M  V30 362 C 35.2804 -1.35656 -5.04376 0
M  V30 363 H 36.9744 -1.04276 -2.80654 0
M  V30 364 H 34.5204 -0.50288 -1.34934 0
M  V30 365 H 36.4734 1.03137 -4.08584 0
M  V30 366 H 35.1974 1.46239 -2.92031 0
M  V30 367 H 33.8564 -0.550525 -3.62443 0
M  V30 368 H 33.5044 1.65494 -4.74996 0
M  V30 369 H 33.2044 0.301067 -5.86828 0
M  V30 370 H 34.7284 1.22659 -5.98153 0
M  V30 371 H 36.1424 -1.01927 -5.64166 0
M  V30 372 H 34.5394 -1.8063 -5.7227 0
M  V30 373 H 35.6094 -2.14288 -4.34981 0
M  V30 374 N 36.9525 1.47285 -0.560781 0
M  V30 375 C 37.9005 2.31756 0.197942 0
M  V30 376 C 38.8945 1.43146 0.905854 0
M  V30 377 O 40.1005 1.59891 0.826733 0
M  V30 378 H 36.4755 0.747438 0.0827049 0
M  V30 379 H 38.4465 2.9359 -0.533629 0
M  V30 380 C 37.1955 3.25874 1.21249 0
M  V30 381 H 36.5185 3.94023 0.67719 0
M  V30 382 H 37.9585 3.87803 1.71419 0
M  V30 383 C 36.4175 2.49651 2.26221 0
M  V30 384 O 36.9475 2.24355 3.33208 0
M  V30 385 N 35.1535 2.10597 2.00243 0
M  V30 386 H 34.7005 2.31369 1.13252 0
M  V30 387 H 34.6585 1.59913 2.70694 0
M  V30 388 N 38.4306 0.297415 1.54768 0
M  V30 389 C 39.3776 -0.580276 2.23386 0
M  V30 390 C 40.3476 -1.13238 1.21517 0
M  V30 391 O 41.5326 -1.17757 1.50126 0
M  V30 392 C 38.6726 -1.74801 2.97555 0
M  V30 393 C 37.7856 -1.22764 4.1419 0
M  V30 394 C 36.9206 -2.35895 4.75949 0
M  V30 395 C 35.9596 -1.80974 5.84735 0
M  V30 396 N 35.0966 -2.87664 6.40464 0
M  V30 397 H 39.9366 0.0114833 2.97998 0
M  V30 398 H 37.4736 0.0174361 1.4709 0
M  V30 399 H 39.4316 -2.43475 3.38786 0
M  V30 400 H 38.0616 -2.31145 2.25326 0
M  V30 401 H 37.1136 -0.433271 3.77924 0
M  V30 402 H 38.4256 -0.785551 4.92575 0
M  V30 403 H 37.5796 -3.12523 5.20014 0
M  V30 404 H 36.3186 -2.83429 3.96887 0
M  V30 405 H 35.3236 -1.02834 5.40097 0
M  V30 406 H 36.5486 -1.34348 6.65678 0
M  V30 407 H 34.4946 -3.34538 5.64287 0
M  V30 408 H 34.4116 -2.4794 7.14186 0
M  V30 409 H 35.6796 -3.642 6.89187 0
M  V30 410 N 39.9087 -1.5758 0.0250728 0
M  V30 411 C 40.8417 -2.05473 -0.992777 0
M  V30 412 C 41.8197 -0.949661 -1.31986 0
M  V30 413 O 43.0037 -1.21969 -1.43722 0
M  V30 414 C 40.1307 -2.4734 -2.31389 0
M  V30 415 C 39.1767 -3.68827 -2.1417 0
M  V30 416 S 40.0097 -5.15655 -1.44429 0
M  V30 417 C 41.1657 -5.60814 -2.77918 0
M  V30 418 H 41.3987 -2.91486 -0.585078 0
M  V30 419 H 38.9317 -1.53269 -0.186507 0
M  V30 420 H 40.8897 -2.72127 -3.07339 0
M  V30 421 H 39.5507 -1.6168 -2.69292 0
M  V30 422 H 38.7437 -3.95955 -3.11826 0
M  V30 423 H 38.3457 -3.44172 -1.46362 0
M  V30 424 H 40.6377 -5.64806 -3.74166 0
M  V30 425 H 41.5807 -6.60414 -2.55459 0
M  V30 426 H 41.9887 -4.8845 -2.82979 0
M  V30 427 N 41.3868 0.248026 -1.55636 0
M  V30 428 C 42.6328 0.97767 -1.77678 0
M  V30 429 C 42.9658 1.85016 -0.590135 0
M  V30 430 O 42.2408 1.90095 0.411611 0
M  V30 431 C 42.5238 1.83914 -3.09593 0
M  V30 432 C 42.3768 0.99491 -4.38659 0
M  V30 433 C 43.6958 2.82183 -3.37729 0
M  V30 434 H 40.8148 0.354005 -0.646413 0
M  V30 435 H 43.4568 0.248253 -1.88371 0
M  V30 436 H 41.6068 2.46104 -3.00608 0
M  V30 437 H 43.2788 0.391789 -4.59633 0
M  V30 438 H 41.5218 0.299231 -4.32767 0
M  V30 439 H 42.1928 1.63145 -5.2734 0
M  V30 440 H 44.6688 2.30129 -3.4667 0
M  V30 441 H 43.5448 3.39582 -4.31249 0
M  V30 442 H 43.8058 3.58588 -2.58586 0
M  V30 443 N 42.8649 1.48995 0.513639 0
M  V30 444 C 43.8119 1.6473 1.61656 0
M  V30 445 C 44.7819 0.488984 1.58739 0
M  V30 446 O 45.9669 0.714478 1.76918 0
M  V30 447 C 43.1069 1.7082 2.99858 0
M  V30 448 C 42.2199 2.9787 3.12885 0
M  V30 449 C 41.3549 2.95017 4.41744 0
M  V30 450 C 40.3939 4.16702 4.48359 0
M  V30 451 N 39.5309 4.11832 5.68629 0
M  V30 452 H 44.3709 2.58909 1.47547 0
M  V30 453 H 41.9079 1.28382 0.71808 0
M  V30 454 H 43.8659 1.72331 3.79944 0
M  V30 455 H 42.4959 0.801181 3.12699 0
M  V30 456 H 41.5479 3.06029 2.25944 0
M  V30 457 H 42.8599 3.8786 3.13633 0
M  V30 458 H 42.0139 2.95021 5.30139 0
M  V30 459 H 40.7529 2.02784 4.43542 0
M  V30 460 H 39.7579 4.16955 3.58369 0
M  V30 461 H 40.9829 5.10113 4.48287 0
M  V30 462 H 38.9289 3.22428 5.71293 0
M  V30 463 H 38.8459 4.95543 5.7094 0
M  V30 464 H 40.1139 4.1592 6.59266 0
M  V30 465 N 44.343 -0.763751 1.37857 0
M  V30 466 C 45.275 -1.88664 1.30148 0
M  V30 467 C 46.288 -1.61365 0.215685 0
M  V30 468 O 47.477 -1.72134 0.472459 0
M  V30 469 C 44.577 -3.24075 0.991396 0
M  V30 470 C 43.75 -3.78958 2.18426 0
M  V30 471 C 42.809 -4.92862 1.8432 0
M  V30 472 O 41.835 -5.08027 2.56704 0
M  V30 473 N 43.037 -5.75071 0.792081 0
M  V30 474 H 45.802 -1.95791 2.26905 0
M  V30 475 H 43.363 -0.943226 1.31586 0
M  V30 476 H 45.355 -3.97804 0.743935 0
M  V30 477 H 43.925 -3.12399 0.112122 0
M  V30 478 H 43.145 -2.96913 2.59299 0
M  V30 479 H 44.433 -4.12357 2.98058 0
M  V30 480 H 43.831 -5.65375 0.191595 0
M  V30 481 H 42.388 -6.48991 0.60449 0
M  V30 482 N 45.8211 -1.22559 -0.990812 0
M  V30 483 C 47.0671 -1.05297 -1.73322 0
M  V30 484 C 47.4001 0.410655 -1.89808 0
M  V30 485 O 46.6751 1.30439 -1.44277 0
M  V30 486 C 46.9581 -1.76713 -3.13759 0
M  V30 487 C 46.8111 -3.30684 -3.04907 0
M  V30 488 C 48.1301 -1.52121 -4.12974 0
M  V30 489 H 45.2491 -0.38392 -0.629106 0
M  V30 490 H 47.8911 -1.50926 -1.15418 0
M  V30 491 H 46.0411 -1.37924 -3.63193 0
M  V30 492 H 47.7131 -3.7893 -2.63077 0
M  V30 493 H 45.9561 -3.60253 -2.41661 0
M  V30 494 H 46.6271 -3.75833 -4.04294 0
M  V30 495 H 49.1031 -1.85819 -3.72304 0
M  V30 496 H 47.9791 -2.04582 -5.0935 0
M  V30 497 H 48.2401 -0.454257 -4.3976 0
M  V30 498 N 47.2992 1.18797 -1.03562 0
M  V30 499 C 48.5272 1.92599 -0.755869 0
M  V30 500 C 48.9422 1.75886 0.686271 0
M  V30 501 O 48.2992 1.08517 1.46732 0
M  V30 502 C 48.3502 3.44159 -1.10619 0
M  V30 503 O 48.0712 3.60341 -2.4917 0
M  V30 504 C 49.5722 4.3507 -0.850214 0
M  V30 505 H 46.7922 0.611587 -0.276048 0
M  V30 506 H 49.3362 1.50742 -1.38192 0
M  V30 507 H 47.4912 3.83823 -0.525194 0
M  V30 508 H 47.9052 4.54128 -2.62427 0
M  V30 509 H 49.3792 5.39989 -1.14523 0
M  V30 510 H 49.8562 4.38673 0.215176 0
M  V30 511 H 50.4622 4.01097 -1.41426 0
M  V30 512 N 48.7773 0.814389 1.34928 0
M  V30 513 C 50.0253 0.397636 1.9815 0
M  V30 514 C 50.3463 -1.04069 1.64908 0
M  V30 515 O 49.6163 -1.72121 0.93548 0
M  V30 516 H 48.1963 0.144043 0.732981 0
M  V30 517 H 50.8583 1.04195 1.6471 0
M  V30 518 H 49.9543 0.509688 3.0791 0
M  V30 519 N 50.2554 -1.46986 0.568584 0
M  V30 520 C 51.2024 -2.30153 -0.172707 0
M  V30 521 C 52.1724 -1.39759 -0.897586 0
M  V30 522 O 53.3574 -1.68716 -0.891044 0
M  V30 523 C 50.4974 -3.23952 -1.1895 0
M  V30 524 C 49.6104 -4.29441 -0.469517 0
M  V30 525 C 48.7454 -5.1038 -1.47259 0
M  V30 526 C 47.7844 -6.07632 -0.738225 0
M  V30 527 N 46.9214 -6.8149 -1.68868 0
M  V30 528 H 51.7614 -2.93019 0.542596 0
M  V30 529 H 49.2984 -1.44422 0.279401 0
M  V30 530 H 51.2564 -3.76767 -1.79173 0
M  V30 531 H 49.8864 -2.62926 -1.87269 0
M  V30 532 H 48.9384 -3.79594 0.247467 0
M  V30 533 H 50.2504 -4.98689 0.105241 0
M  V30 534 H 49.4044 -5.67402 -2.14803 0
M  V30 535 H 48.1434 -4.4106 -2.08128 0
M  V30 536 H 47.1484 -5.49778 -0.0489293 0
M  V30 537 H 48.3734 -6.78966 -0.135129 0
M  V30 538 H 46.3194 -6.14891 -2.28573 0
M  V30 539 H 46.2364 -7.46948 -1.16636 0
M  V30 540 H 47.5044 -7.43078 -2.3549 0
M  V30 541 N 51.7335 -0.305618 -1.54608 0
M  V30 542 C 52.6665 0.610536 -2.19881 0
M  V30 543 C 53.6445 1.1294 -1.16976 0
M  V30 544 O 54.8285 1.19673 -1.45638 0
M  V30 545 C 51.9555 1.83583 -2.84631 0
M  V30 546 C 51.0015 1.4498 -4.01102 0
M  V30 547 S 51.8345 0.501793 -5.33144 0
M  V30 548 C 52.9905 1.73478 -6.01379 0
M  V30 549 H 53.2235 0.0560177 -2.97247 0
M  V30 550 H 50.7565 -0.0897434 -1.54139 0
M  V30 551 H 52.7145 2.53898 -3.22562 0
M  V30 552 H 51.3755 2.36152 -2.07102 0
M  V30 553 H 50.5685 2.36236 -4.45206 0
M  V30 554 H 50.1705 0.826553 -3.64752 0
M  V30 555 H 52.4625 2.67473 -6.22467 0
M  V30 556 H 53.4055 1.33622 -6.95378 0
M  V30 557 H 53.8135 1.9136 -5.31076 0
M  V30 558 N 53.2116 1.57565 -0.0334293 0
M  V30 559 C 54.6226 1.79746 0.504798 0
M  V30 560 C 54.9736 0.944091 1.71992 0
M  V30 561 O 54.0986 0.155694 2.15839 0
M  V30 562 C 54.6936 3.25997 0.922567 0
M  V30 563 C 53.2526 3.49159 1.40588 0
M  V30 564 C 52.3996 2.74785 0.372633 0
M  V30 565 H 55.3506 1.56565 -0.259436 0
M  V30 566 H 55.3716 3.35945 1.78666 0
M  V30 567 H 54.8836 3.88081 0.0379825 0
M  V30 568 H 52.9846 2.92332 2.31025 0
M  V30 569 H 53.0976 4.57873 1.41028 0
M  V30 570 H 51.4616 2.40391 0.841672 0
M  V30 571 H 52.2446 3.39587 -0.503559 0
M  V30 572 N 54.6897 -0.239769 1.55765 0
M  V30 573 C 55.9387 -0.964754 1.77131 0
M  V30 574 C 56.2517 -1.86213 0.59868 0
M  V30 575 O 57.4577 -2.6244 0.695522 0
M  V30 576 C 55.9137 -1.76552 3.1362 0
M  V30 577 C 55.5217 -0.915185 4.38553 0
M  V30 578 C 57.2657 -2.48281 3.44321 0
M  V30 579 C 55.1727 -1.71225 5.66071 0
M  V30 580 H 54.1027 -0.363953 0.660344 0
M  V30 581 H 56.7537 -0.219181 1.82186 0
M  V30 582 H 55.1357 -2.55331 3.02691 0
M  V30 583 H 56.3097 -0.169217 4.60489 0
M  V30 584 H 54.6247 -0.310889 4.15238 0
M  V30 585 H 57.2217 -3.08382 4.36812 0
M  V30 586 H 57.5647 -3.20256 2.65973 0
M  V30 587 H 58.0977 -1.76507 3.56497 0
M  V30 588 H 54.8367 -1.03612 6.4726 0
M  V30 589 H 54.3567 -2.43331 5.48224 0
M  V30 590 H 56.0357 -2.27758 6.05587 0
M  V30 591 N 56.1678 -1.49265 -0.50573 0
M  V30 592 C 57.0978 -1.68495 -1.61653 0
M  V30 593 C 58.0788 -0.53366 -1.61512 0
M  V30 594 O 59.2638 -0.76897 -1.78327 0
M  V30 595 C 56.3938 -1.74709 -3.00157 0
M  V30 596 C 55.3478 -2.89581 -3.15162 0
M  V30 597 C 54.6738 -2.80903 -4.5497 0
M  V30 598 C 55.9738 -4.30578 -2.95634 0
M  V30 599 H 57.6678 -2.61493 -1.45814 0
M  V30 600 H 55.2138 -1.25838 -0.70005 0
M  V30 601 H 57.1668 -1.86748 -3.77761 0
M  V30 602 H 55.8908 -0.783067 -3.17074 0
M  V30 603 H 54.5498 -2.77136 -2.39982 0
M  V30 604 H 54.1978 -1.82419 -4.68756 0
M  V30 605 H 53.8978 -3.57999 -4.65951 0
M  V30 606 H 55.4218 -2.94944 -5.34641 0
M  V30 607 H 56.8358 -4.4373 -3.63011 0
M  V30 608 H 55.2328 -5.0886 -3.18091 0
M  V30 609 H 56.3028 -4.45352 -1.91806 0
M  V30 610 N 57.6459 0.756429 -1.3826 0
M  V30 611 C 58.8709 1.55077 -1.37717 0
M  V30 612 C 59.2959 1.88073 0.03164 0
M  V30 613 O 58.6539 1.50364 1.01293 0
M  V30 614 C 58.7019 2.8283 -2.23695 0
M  V30 615 O 57.8059 3.77862 -1.6521 0
M  V30 616 H 57.1469 0.469152 -0.469885 0
M  V30 617 H 59.6769 0.935019 -1.81985 0
M  V30 618 H 59.6869 3.31783 -2.37453 0
M  V30 619 H 58.3619 2.58144 -3.2609 0
M  V30 620 H 56.9389 3.36555 -1.60578 0
M  V30 621 N 59.124 1.23083 0.984299 0
M  V30 622 C 60.354 1.08556 1.75781 0
M  V30 623 C 60.762 -0.366171 1.85623 0
M  V30 624 O 60.105 -1.26524 1.33182 0
M  V30 625 C 60.167 1.63208 3.20318 0
M  V30 626 C 59.831 3.11922 3.33997 0
M  V30 627 C 60.828 4.09259 3.2063 0
M  V30 628 C 58.513 3.51552 3.58771 0
M  V30 629 C 60.507 5.4421 3.31835 0
M  V30 630 C 58.194 4.86649 3.69616 0
M  V30 631 C 59.192 5.82787 3.56157 0
M  V30 632 O 58.88 7.15431 3.66626 0
M  V30 633 H 58.612 0.380713 0.5586 0
M  V30 634 H 61.166 1.63321 1.2456 0
M  V30 635 H 59.396 1.0286 3.72769 0
M  V30 636 H 61.085 1.44216 3.79416 0
M  V30 637 H 61.851 3.79984 3.01392 0
M  V30 638 H 57.73 2.77239 3.6832 0
M  V30 639 H 61.274 6.1923 3.21247 0
M  V30 640 H 57.171 5.15601 3.88363 0
M  V30 641 H 57.939 7.23127 3.83445 0
M  V30 642 N 60.6021 -1.18246 1.0419 0
M  V30 643 C 61.8481 -1.88793 0.75689 0
M  V30 644 C 62.2031 -1.78909 -0.707767 0
M  V30 645 O 61.4961 -1.1794 -1.50999 0
M  V30 646 C 61.6901 -3.38082 1.15911 0
M  V30 647 C 61.5191 -3.62496 2.66133 0
M  V30 648 C 60.2891 -3.7979 3.33298 0
M  V30 649 C 62.4871 -3.62976 3.64353 0
M  V30 650 N 60.4691 -3.91955 4.72487 0
M  V30 651 C 61.8401 -3.80869 4.89222 0
M  V30 652 C 63.8951 -3.46071 3.57965 0
M  V30 653 C 62.5981 -3.83608 6.08471 0
M  V30 654 C 64.6241 -3.50093 4.76643 0
M  V30 655 C 63.9861 -3.68484 6.00332 0
M  V30 656 H 60.0851 -0.709406 0.32904 0
M  V30 657 H 62.6691 -1.42022 1.33183 0
M  V30 658 H 60.8401 -3.83544 0.612238 0
M  V30 659 H 62.5721 -3.96202 0.824989 0
M  V30 660 H 59.3271 -3.79224 2.83701 0
M  V30 661 H 59.7511 -4.01857 5.44831 0
M  V30 662 H 64.3931 -3.30797 2.63311 0
M  V30 663 H 62.1111 -3.97669 7.0348 0
M  V30 664 H 65.6971 -3.38285 4.73344 0
M  V30 665 H 64.5771 -3.71488 6.90627 0
M  V30 666 N 62.0802 -0.821533 -1.34494 0
M  V30 667 C 63.4912 -0.467956 -1.8074 0
M  V30 668 C 63.8422 1.01151 -1.68116 0
M  V30 669 O 62.9672 1.78707 -1.22036 0
M  V30 670 C 63.5622 -0.842627 -3.28154 0
M  V30 671 C 62.1212 -0.541439 -3.72485 0
M  V30 672 C 61.2682 -1.06028 -2.56229 0
M  V30 673 H 64.2192 -1.01183 -1.22261 0
M  V30 674 H 64.2402 -0.145876 -3.8022 0
M  V30 675 H 63.7522 -1.91945 -3.37311 0
M  V30 676 H 61.8532 0.526034 -3.68868 0
M  V30 677 H 61.9662 -1.08453 -4.66663 0
M  V30 678 H 60.3302 -0.481892 -2.501 0
M  V30 679 H 61.1132 -2.14352 -2.68157 0
M  V30 680 N 63.5583 1.46682 -0.576371 0
M  V30 681 C 64.7883 2.06498 -0.0648694 0
M  V30 682 C 65.1963 1.42665 1.24271 0
M  V30 683 O 64.5393 0.523886 1.76071 0
M  V30 684 C 64.6013 3.5904 0.181816 0
M  V30 685 C 64.2653 4.45028 -1.0392 0
M  V30 686 C 65.2623 4.81959 -1.94966 0
M  V30 687 C 62.9473 4.86259 -1.25927 0
M  V30 688 C 64.9413 5.58942 -3.06371 0
M  V30 689 C 62.6283 5.63002 -2.37638 0
M  V30 690 C 63.6263 5.99257 -3.2769 0
M  V30 691 O 63.3143 6.7445 -4.37461 0
M  V30 692 H 63.0463 0.674028 -0.0515987 0
M  V30 693 H 65.6003 1.89393 -0.794951 0
M  V30 694 H 63.8303 3.74429 0.966436 0
M  V30 695 H 65.5193 4.00806 0.641047 0
M  V30 696 H 66.2853 4.50689 -1.79177 0
M  V30 697 H 62.1643 4.57494 -0.567448 0
M  V30 698 H 65.7083 5.87158 -3.76684 0
M  V30 699 H 61.6053 5.93686 -2.53392 0
M  V30 700 H 62.3733 6.92867 -4.35749 0
M  V30 701 N 65.0364 0.313813 1.54444 0
M  V30 702 C 66.2844 -0.291099 1.99993 0
M  V30 703 C 66.6054 -1.53418 1.20366 0
M  V30 704 O 65.8754 -1.93544 0.302927 0
M  V30 705 H 64.4554 -0.110552 0.738774 0
M  V30 706 H 67.1174 0.428106 1.9014 0
M  V30 707 H 66.2134 -0.554268 3.07139 0
M  V30 708 N 66.5145 -1.57545 0.0417849 0
M  V30 709 C 67.7545 -1.94185 -0.63809 0
M  V30 710 C 68.1185 -0.919339 -1.68559 0
M  V30 711 O 69.3195 -1.17236 -2.41886 0
M  V30 712 C 67.5905 -3.35672 -1.22714 0
M  V30 713 S 69.1495 -3.94256 -1.92633 0
M  V30 714 H 65.9675 -0.679353 -0.209764 0
M  V30 715 H 68.5695 -1.95199 0.108479 0
M  V30 716 H 67.2735 -4.07898 -0.452503 0
M  V30 717 H 66.8045 -3.38132 -2.01073 0
M  V30 718 H 68.8195 -3.7872 -3.20602 0
M  V30 719 N 67.9926 0.231505 -1.5589 0
M  V30 720 C 68.9426 1.29007 -1.87993 0
M  V30 721 C 69.9266 1.42764 -0.742102 0
M  V30 722 O 71.1186 1.45747 -1.00433 0
M  V30 723 C 68.2476 2.6425 -2.1915 0
M  V30 724 C 67.3336 2.54435 -3.39299 0
M  V30 725 N 67.7246 2.14262 -4.58176 0
M  V30 726 C 66.0226 2.85416 -3.42715 0
M  V30 727 C 66.7236 2.15455 -5.40328 0
M  V30 728 N 65.6996 2.55558 -4.79783 0
M  V30 729 H 69.5016 0.970213 -2.77424 0
M  V30 730 H 67.0156 0.440097 -1.56323 0
M  V30 731 H 69.0126 3.40665 -2.40319 0
M  V30 732 H 67.6726 2.9709 -1.31025 0
M  V30 733 H 68.6836 1.85554 -4.83518 0
M  V30 734 H 65.3606 3.22693 -2.64906 0
M  V30 735 H 66.7506 1.86605 -6.45467 0
M  V30 736 N 69.4707 1.49531 0.497807 0
M  V30 737 C 70.7107 1.60799 1.26187 0
M  V30 738 C 71.0747 0.289627 1.89803 0
M  V30 739 O 72.2757 0.277512 2.67364 0
M  V30 740 C 70.5467 2.73729 2.29798 0
M  V30 741 S 72.1057 3.04968 3.155 0
M  V30 742 H 68.9237 0.567145 0.428798 0
M  V30 743 H 71.5257 1.87204 0.563477 0
M  V30 744 H 70.2297 3.68036 1.81597 0
M  V30 745 H 69.7607 2.49328 3.04301 0
M  V30 746 H 71.7757 2.46735 4.30507 0
M  V30 747 N 70.9488 -0.749086 1.3866 0
M  V30 748 C 72.1968 -1.50535 1.34847 0
M  V30 749 C 72.5178 -1.94909 -0.0595016 0
M  V30 750 O 71.7878 -1.67973 -1.00806 0
M  V30 751 H 70.3678 -0.558395 0.49619 0
M  V30 752 H 73.0298 -0.890165 1.73384 0
M  V30 753 H 72.1258 -2.39413 2.00219 0
M  V30 754 N 72.4269 -1.23603 -0.977757 0
M  V30 755 C 73.3569 -1.04401 -2.0886 0
M  V30 756 C 74.3379 0.0399052 -1.70053 0
M  V30 757 O 75.5229 -0.125246 -1.93796 0
M  V30 758 C 72.6529 -0.637269 -3.41403 0
M  V30 759 C 71.6069 -1.66883 -3.94124 0
M  V30 760 C 70.9329 -1.11745 -5.22893 0
M  V30 761 C 72.2329 -3.06247 -4.23096 0
M  V30 762 H 73.9269 -1.97316 -2.25182 0
M  V30 763 H 71.4729 -0.950096 -1.08209 0
M  V30 764 H 73.4259 -0.48998 -4.18542 0
M  V30 765 H 72.1499 0.327557 -3.24953 0
M  V30 766 H 70.8089 -1.80416 -3.19133 0
M  V30 767 H 70.4569 -0.143527 -5.02795 0
M  V30 768 H 70.1569 -1.80672 -5.59134 0
M  V30 769 H 71.6809 -0.982067 -6.02651 0
M  V30 770 H 73.0949 -2.96001 -4.90975 0
M  V30 771 H 71.4919 -3.72436 -4.70544 0
M  V30 772 H 72.5619 -3.55041 -3.30263 0
M  V30 773 N 73.905 1.17692 -1.04816 0
M  V30 774 C 75.153 1.87488 -0.754497 0
M  V30 775 C 75.474 1.81205 0.720407 0
M  V30 776 O 74.744 1.23544 1.52032 0
M  V30 777 H 73.324 0.694101 -0.276102 0
M  V30 778 H 75.986 1.42793 -1.32651 0
M  V30 779 H 75.082 2.93328 -1.06606 0
M  V30 780 N 75.3831 0.828654 1.34056 0
M  V30 781 C 76.6311 0.41863 1.97717 0
M  V30 782 C 76.9521 -1.02314 1.66002 0
M  V30 783 O 76.2221 -1.71119 0.953683 0
M  V30 784 H 74.8021 0.151809 0.731412 0
M  V30 785 H 77.4641 1.05936 1.63596 0
M  V30 786 H 76.5601 0.542318 3.07352 0
M  V30 787 N 76.8612 -1.46375 0.584142 0
M  V30 788 C 78.2772 -1.57694 0.245929 0
M  V30 789 C 78.4772 -1.57903 -1.25175 0
M  V30 790 O 77.5332 -1.49676 -2.03355 0
M  V30 791 C 78.8462 -2.87028 0.896402 0
M  V30 792 C 80.3942 -3.00662 0.870127 0
M  V30 793 C 80.8692 -4.32734 1.50017 0
M  V30 794 N 82.3602 -4.39436 1.46458 0
M  V30 795 C 83.0952 -5.40248 1.92144 0
M  V30 796 N 82.5912 -6.47726 2.4581 0
M  V30 797 N 84.3842 -5.31459 1.83052 0
M  V30 798 H 76.5352 -1.44483 1.55687 0
M  V30 799 H 78.7982 -0.689291 0.650831 0
M  V30 800 H 78.5042 -2.9269 1.95002 0
M  V30 801 H 78.3782 -3.75014 0.405486 0
M  V30 802 H 80.7652 -2.94581 -0.174871 0
M  V30 803 H 80.8462 -2.14148 1.39908 0
M  V30 804 H 80.4902 -4.39573 2.54437 0
M  V30 805 H 80.4202 -5.18025 0.946432 0
M  V30 806 H 82.9112 -3.62367 1.07231 0
M  V30 807 H 83.2242 -7.20863 2.78525 0
M  V30 808 H 81.5692 -6.48542 2.49836 0
M  V30 809 H 84.7602 -4.46396 1.40883 0
M  V30 810 H 84.9332 -6.09881 2.18973 0
M  V30 811 N 78.3393 -0.321999 -1.54275 0
M  V30 812 C 79.5873 0.280489 -2.00144 0
M  V30 813 C 79.9083 1.52777 -1.21178 0
M  V30 814 O 79.1783 1.9338 -0.313187 0
M  V30 815 H 77.7583 0.106632 -0.73935 0
M  V30 816 H 80.4203 -0.438184 -1.8991 0
M  V30 817 H 79.5163 0.537972 -3.07428 0
M  V30 818 N 79.8174 1.5752 -0.0501392 0
M  V30 819 C 80.7494 2.08413 0.95376 0
M  V30 820 C 81.7624 1.01175 1.27544 0
M  V30 821 O 82.9514 1.28744 1.23641 0
M  V30 822 C 80.0514 2.51138 2.27559 0
M  V30 823 C 79.2244 3.817 2.13598 0
M  V30 824 C 78.2834 4.10749 3.28895 0
M  V30 825 O 77.3094 4.80685 3.04845 0
M  V30 826 N 78.5114 3.62579 4.5334 0
M  V30 827 H 81.2764 2.95165 0.519383 0
M  V30 828 H 78.8374 1.61327 0.136127 0
M  V30 829 H 80.8294 2.67648 3.03557 0
M  V30 830 H 79.3994 1.6964 2.62567 0
M  V30 831 H 78.6194 3.74782 1.22197 0
M  V30 832 H 79.9074 4.67201 2.01496 0
M  V30 833 H 79.3054 3.06039 4.75769 0
M  V30 834 H 77.8624 3.84329 5.26436 0
M  V30 835 N 81.2955 -0.223234 1.56011 0
M  V30 836 C 82.7065 -0.790368 1.69145 0
M  V30 837 C 83.0575 -1.85055 0.651845 0
M  V30 838 O 82.1825 -2.15498 -0.197359 0
M  V30 839 C 82.7775 -1.4404 3.06656 0
M  V30 840 C 81.3365 -1.95494 3.2165 0
M  V30 841 C 80.4835 -0.814506 2.65068 0
M  V30 842 H 83.4345 0.00139011 1.587 0
M  V30 843 H 83.4555 -2.30916 3.0242 0
M  V30 844 H 82.9675 -0.668543 3.82298 0
M  V30 845 H 81.0685 -2.75487 2.50874 0
M  V30 846 H 81.1815 -2.13607 4.28846 0
M  V30 847 H 79.5455 -1.22137 2.23505 0
M  V30 848 H 80.3285 -0.0553515 3.43255 0
M  V30 849 N 82.7736 -1.49793 -0.48987 0
M  V30 850 C 83.7206 -1.67281 -1.59014 0
M  V30 851 C 84.6906 -0.514177 -1.57941 0
M  V30 852 O 85.8756 -0.742533 -1.75759 0
M  V30 853 C 83.0156 -1.75569 -2.97102 0
M  V30 854 C 82.1286 -3.0281 -3.08107 0
M  V30 855 C 81.2636 -3.02008 -4.36995 0
M  V30 856 C 80.3026 -4.23782 -4.41673 0
M  V30 857 N 79.4396 -4.20826 -5.62005 0
M  V30 858 H 84.2796 -2.61224 -1.43409 0
M  V30 859 H 81.8166 -1.29508 -0.697565 0
M  V30 860 H 83.7746 -1.78354 -3.77155 0
M  V30 861 H 82.4046 -0.850827 -3.11385 0
M  V30 862 H 81.4566 -3.09584 -2.21047 0
M  V30 863 H 82.7686 -3.92801 -3.07423 0
M  V30 864 H 81.9226 -3.03418 -5.25378 0
M  V30 865 H 80.6616 -2.09815 -4.4026 0
M  V30 866 H 79.6666 -4.22604 -3.5169 0
M  V30 867 H 80.8916 -5.17181 -4.40115 0
M  V30 868 H 78.8376 -3.31476 -5.66091 0
M  V30 869 H 78.7546 -5.04564 -5.62984 0
M  V30 870 H 80.0226 -4.26355 -6.52565 0
M  V30 871 N 84.2517 0.741722 -1.39055 0
M  V30 872 C 85.5287 1.49252 -1.26425 0
M  V30 873 C 85.9087 2.10705 0.129144 0
M  V30 874 O 85.2567 1.98045 1.13976 0
M  V30 875 C 85.4667 2.54934 -2.38347 0
M  V30 876 C 86.8147 3.21506 -2.77343 0
M  V30 877 O 87.8387 2.65245 -2.37747 0
M  V30 878 O 86.6977 4.23294 -3.45665 0
M  V30 879 H 83.7917 0.662451 -0.495064 0
M  V30 880 H 86.3377 0.776121 -1.50912 0
M  V30 881 H 85.1097 2.07857 -3.31529 0
M  V30 882 H 84.7327 3.34141 -2.15489 0
M  V30 883 N 85.7298 1.2412 0.971189 0
M  V30 884 C 86.6928 1.03156 2.04674 0
M  V30 885 C 87.6928 -0.00990322 1.60797 0
M  V30 886 O 88.8828 0.230729 1.72665 0
M  V30 887 C 86.0148 0.562765 3.36223 0
M  V30 888 H 87.2078 1.98614 2.24705 0
M  V30 889 H 84.7608 1.06293 1.14593 0
M  V30 890 H 85.4958 -0.395176 3.21883 0
M  V30 891 H 85.2808 1.31441 3.69413 0
M  V30 892 H 86.7708 0.437015 4.15307 0
M  V30 893 N 87.2079 -1.17134 1.05439 0
M  V30 894 C 88.4359 -1.91372 0.786414 0
M  V30 895 C 88.8509 -1.76955 -0.658202 0
M  V30 896 O 88.2079 -1.10838 -1.44987 0
M  V30 897 C 88.2589 -3.42356 1.1608 0
M  V30 898 O 87.9799 -3.56332 2.54871 0
M  V30 899 C 89.4809 -4.33663 0.919322 0
M  V30 900 H 86.7009 -0.607118 0.285743 0
M  V30 901 H 89.2449 -1.48525 1.40572 0
M  V30 902 H 87.3999 -3.82939 0.586191 0
M  V30 903 H 87.8139 -4.49896 2.69618 0
M  V30 904 H 89.2879 -5.38099 1.231 0
M  V30 905 H 89.7649 -4.38959 -0.145359 0
M  V30 906 H 90.3709 -3.98796 1.47789 0
M  V30 907 N 88.686 -0.835752 -1.33615 0
M  V30 908 C 89.963 -0.352017 -1.92406 0
M  V30 909 C 90.343 1.16225 -1.76224 0
M  V30 910 O 89.691 1.97526 -1.14873 0
M  V30 911 C 89.901 -0.795485 -3.39813 0
M  V30 912 C 91.249 -0.801703 -4.16963 0
M  V30 913 O 92.273 -0.738889 -3.48452 0
M  V30 914 O 91.132 -0.886607 -5.3926 0
M  V30 915 H 88.226 -0.0989641 -0.821057 0
M  V30 916 H 90.772 -0.921397 -1.42507 0
M  V30 917 H 89.544 -1.83795 -3.45449 0
M  V30 918 H 89.167 -0.202505 -3.97084 0
M  V30 919 N 90.1641 1.46063 -0.591896 0
M  V30 920 C 91.4101 2.03203 -0.0894879 0
M  V30 921 C 91.7651 1.45407 1.25994 0
M  V30 922 O 91.0581 0.61326 1.8152 0
M  V30 923 C 91.2521 3.57391 0.0249813 0
M  V30 924 C 91.0811 4.30142 -1.3118 0
M  V30 925 C 89.8511 4.68688 -1.88838 0
M  V30 926 C 92.0491 4.63098 -2.23708 0
M  V30 927 N 90.0311 5.26228 -3.1616 0
M  V30 928 C 91.4021 5.21305 -3.3562 0
M  V30 929 C 93.4571 4.45031 -2.23274 0
M  V30 930 C 92.1601 5.63351 -4.47245 0
M  V30 931 C 94.1861 4.881 -3.33935 0
M  V30 932 C 93.5481 5.46386 -4.44569 0
M  V30 933 H 89.6471 0.778323 -0.0757431 0
M  V30 934 H 92.2311 1.78094 -0.78681 0
M  V30 935 H 90.4021 3.82195 0.69149 0
M  V30 936 H 92.1341 4.0118 0.532613 0
M  V30 937 H 88.8891 4.5174 -1.42223 0
M  V30 938 H 89.3131 5.59512 -3.8115 0
M  V30 939 H 93.9551 3.99295 -1.39008 0
M  V30 940 H 91.6731 6.08061 -5.32247 0
M  V30 941 H 95.2591 4.75866 -3.34728 0
M  V30 942 H 94.1391 5.79102 -5.28782 0
M  V30 943 N 91.6422 0.330177 1.54103 0
M  V30 944 C 92.8822 -0.270916 2.02597 0
M  V30 945 C 93.2462 -1.48826 1.21304 0
M  V30 946 O 94.4472 -2.16266 1.59633 0
M  V30 947 C 92.7182 -0.590328 3.52491 0
M  V30 948 S 94.2772 -1.17014 4.2291 0
M  V30 949 H 91.0952 -0.0815379 0.706309 0
M  V30 950 H 93.6972 0.464835 1.89893 0
M  V30 951 H 92.4012 0.303691 4.09275 0
M  V30 952 H 91.9322 -1.3561 3.69288 0
M  V30 953 H 93.9472 -2.45662 4.3112 0
M  V30 954 N 93.1203 -1.57491 0.0584922 0
M  V30 955 C 94.3603 -1.94851 -0.617458 0
M  V30 956 C 94.7243 -0.937165 -1.67575 0
M  V30 957 O 95.9253 -1.19795 -2.40629 0
M  V30 958 C 94.1963 -3.36955 -1.19147 0
M  V30 959 S 95.7553 -3.96277 -1.8844 0
M  V30 960 H 92.5733 -0.681539 -0.202547 0
M  V30 961 H 95.1753 -1.95073 0.129176 0
M  V30 962 H 93.8793 -4.08355 -0.409215 0
M  V30 963 H 93.4103 -3.40245 -1.97476 0
M  V30 964 H 95.4253 -3.82099 -3.16568 0
M  V30 965 N 94.5984 0.214957 -1.56127 0
M  V30 966 C 95.5304 1.29004 -1.89448 0
M  V30 967 C 96.5434 1.42716 -0.783326 0
M  V30 968 O 97.7324 1.43496 -1.06166 0
M  V30 969 C 94.8324 2.66482 -2.09381 0
M  V30 970 C 94.0054 2.74633 -3.40434 0
M  V30 971 C 93.0644 3.9317 -3.49719 0
M  V30 972 O 92.0904 3.812 -4.227 0
M  V30 973 N 93.2924 5.07765 -2.81346 0
M  V30 974 H 96.0574 1.00743 -2.82261 0
M  V30 975 H 93.6184 0.40497 -1.56753 0
M  V30 976 H 95.6104 3.44173 -2.12901 0
M  V30 977 H 94.1804 2.87314 -1.23163 0
M  V30 978 H 93.4004 1.83368 -3.48955 0
M  V30 979 H 94.6884 2.77054 -4.26754 0
M  V30 980 H 94.0864 5.20386 -2.21843 0
M  V30 981 H 92.6434 5.83474 -2.90519 0
M  V30 982 N 96.0765 1.50051 0.48192 0
M  V30 983 C 97.3045 1.64237 1.25832 0
M  V30 984 C 97.7195 0.321336 1.86045 0
M  V30 985 O 97.0765 -0.695478 1.68729 0
M  V30 986 C 97.1275 2.72548 2.37487 0
M  V30 987 O 96.8485 3.99529 1.79745 0
M  V30 988 C 98.3495 2.9761 3.28547 0
M  V30 989 H 95.5695 0.55237 0.380957 0
M  V30 990 H 98.1135 1.96207 0.576467 0
M  V30 991 H 96.2685 2.43303 3.01467 0
M  V30 992 H 96.6825 4.59342 2.5319 0
M  V30 993 H 98.1565 3.77084 4.03127 0
M  V30 994 H 98.6335 2.0826 3.86684 0
M  V30 995 H 99.2395 3.28345 2.70314 0
M  V30 996 N 97.5546 -0.734337 1.39446 0
M  V30 997 C 98.5046 -1.83949 1.34709 0
M  V30 998 C 99.4886 -1.59279 0.227851 0
M  V30 999 O 100.681 -1.70771 0.465438 0
M  V30 1000 C 97.8096 -3.21884 1.19356 0
M  V30 1001 C 96.8956 -3.52381 2.35984 0
M  V30 1002 N 97.2866 -3.53811 3.61457 0
M  V30 1003 C 95.5846 -3.82747 2.28956 0
M  V30 1004 C 96.2856 -3.82122 4.38586 0
M  V30 1005 N 95.2616 -3.9993 3.68181 0
M  V30 1006 H 99.0636 -1.83361 2.29687 0
M  V30 1007 H 96.5776 -0.932609 1.32952 0
M  V30 1008 H 98.5746 -4.00998 1.14046 0
M  V30 1009 H 97.2346 -3.23711 0.253295 0
M  V30 1010 H 98.2456 -3.35107 3.94872 0
M  V30 1011 H 94.9226 -3.92175 1.43194 0
M  V30 1012 H 96.3126 -3.89691 5.47349 0
M  V30 1013 N 99.0327 -1.24633 -0.964593 0
M  V30 1014 C 100.31 -0.995809 -1.68354 0
M  V30 1015 C 100.69 0.480964 -2.05548 0
M  V30 1016 O 100.038 1.45599 -1.76105 0
M  V30 1017 C 100.248 -1.92177 -2.91323 0
M  V30 1018 C 101.596 -2.19446 -3.63495 0
M  V30 1019 O 102.62 -1.89855 -3.01386 0
M  V30 1020 O 101.479 -2.69714 -4.75307 0
M  V30 1021 H 98.5727 -0.376854 -0.736146 0
M  V30 1022 H 101.119 -1.35745 -1.0184 0
M  V30 1023 H 99.8907 -2.91938 -2.60553 0
M  V30 1024 H 99.5137 -1.56349 -3.65569 0
M  V30 1025 N 100.511 1.16574 -1.06058 0
M  V30 1026 C 101.751 1.88723 -0.78504 0
M  V30 1027 C 102.115 1.79706 0.676006 0
M  V30 1028 O 103.316 2.46757 1.06603 0
M  V30 1029 C 101.587 3.34338 -1.26304 0
M  V30 1030 S 103.146 4.24366 -1.1162 0
M  V30 1031 H 99.9638 0.651448 -0.284846 0
M  V30 1032 H 102.566 1.40732 -1.35701 0
M  V30 1033 H 101.27 3.38439 -2.32136 0
M  V30 1034 H 100.801 3.87378 -0.685719 0
M  V30 1035 H 102.816 4.96179 -0.0456539 0
M  V30 1036 N 101.989 0.842826 1.3317 0
M  V30 1037 C 103.229 0.446574 1.99462 0
M  V30 1038 C 103.593 -0.976818 1.65295 0
M  V30 1039 O 104.794 -1.477 2.24584 0
M  V30 1040 C 103.065 0.665353 3.51152 0
M  V30 1041 S 104.624 0.364911 4.3728 0
M  V30 1042 H 101.442 0.167803 0.690915 0
M  V30 1043 H 104.044 1.09297 1.62094 0
M  V30 1044 H 102.748 1.7006 3.73507 0
M  V30 1045 H 102.279 0.00494568 3.934 0
M  V30 1046 H 104.294 -0.813761 4.89482 0
M  V30 1047 N 103.467 -1.45747 0.599634 0
M  V30 1048 C 104.697 -2.06369 0.0977132 0
M  V30 1049 C 105.105 -1.44624 -1.21985 0
M  V30 1050 O 104.448 -0.551831 -1.75216 0
M  V30 1051 C 104.51 -3.59284 -0.124673 0
M  V30 1052 C 104.174 -4.43318 1.10987 0
M  V30 1053 C 105.171 -4.78796 2.02609 0
M  V30 1054 C 102.856 -4.84194 1.33647 0
M  V30 1055 C 104.85 -5.53997 3.15224 0
M  V30 1056 C 102.537 -5.5915 2.46565 0
M  V30 1057 C 103.535 -5.93968 3.37182 0
M  V30 1058 O 103.223 -6.67405 4.48136 0
M  V30 1059 H 102.955 -0.673122 0.0623153 0
M  V30 1060 H 105.509 -1.88104 0.824981 0
M  V30 1061 H 103.739 -3.75919 -0.906745 0
M  V30 1062 H 105.428 -4.01775 -0.577201 0
M  V30 1063 H 106.194 -4.47781 1.86325 0
M  V30 1064 H 102.073 -4.56534 0.64016 0
M  V30 1065 H 105.617 -5.81091 3.85978 0
M  V30 1066 H 101.514 -5.89579 2.62805 0
M  V30 1067 H 102.282 -6.85847 4.46717 0
M  V30 1068 N 104.945 -0.338344 -1.53925 0
M  V30 1069 C 106.222 0.314774 -1.93051 0
M  V30 1070 C 106.602 1.68669 -1.26941 0
M  V30 1071 O 105.95 2.24636 -0.418445 0
M  V30 1072 C 106.16 0.392249 -3.46789 0
M  V30 1073 C 107.508 0.645554 -4.19664 0
M  V30 1074 O 108.532 0.474575 -3.53024 0
M  V30 1075 O 107.391 0.976408 -5.37707 0
M  V30 1076 H 104.485 0.182598 -0.80659 0
M  V30 1077 H 107.031 -0.389141 -1.65178 0
M  V30 1078 H 105.803 -0.570702 -3.87116 0
M  V30 1079 H 105.426 1.14316 -3.80812 0
M  V30 1080 N 106.423 1.57458 -0.0668435 0
M  V30 1081 C 107.373 2.0896 0.912119 0
M  V30 1082 C 108.357 0.998186 1.26195 0
M  V30 1083 O 109.549 1.26133 1.24175 0
M  V30 1084 C 106.678 2.6508 2.18145 0
M  V30 1085 C 105.764 3.81218 1.85832 0
M  V30 1086 N 106.155 4.90378 1.23948 0
M  V30 1087 C 104.453 3.9042 2.15612 0
M  V30 1088 C 105.154 5.71279 1.09616 0
M  V30 1089 N 104.13 5.19389 1.60423 0
M  V30 1090 H 107.932 2.90749 0.42924 0
M  V30 1091 H 105.446 1.6182 0.137184 0
M  V30 1092 H 107.443 3.0029 2.89192 0
M  V30 1093 H 106.103 1.84736 2.67025 0
M  V30 1094 H 107.114 5.09847 0.909731 0
M  V30 1095 H 103.791 3.21043 2.66903 0
M  V30 1096 H 105.181 6.69085 0.614425 0
M  V30 1097 N 107.901 -0.206675 1.56239 0
M  V30 1098 C 108.831 -1.25909 1.96645 0
M  V30 1099 C 109.812 -1.48097 0.836734 0
M  V30 1100 O 110.997 -1.6003 1.10019 0
M  V30 1101 C 108.127 -2.6058 2.29599 0
M  V30 1102 C 107.081 -2.53024 3.452 0
M  V30 1103 C 106.407 -3.91861 3.63798 0
M  V30 1104 C 107.707 -2.06524 4.79734 0
M  V30 1105 H 109.401 -0.923369 2.84806 0
M  V30 1106 H 106.947 -0.442735 1.37025 0
M  V30 1107 H 108.9 -3.34375 2.56459 0
M  V30 1108 H 107.624 -2.95869 1.38307 0
M  V30 1109 H 106.283 -1.81684 3.18412 0
M  V30 1110 H 105.931 -4.24483 2.69857 0
M  V30 1111 H 105.631 -3.87683 4.4156 0
M  V30 1112 H 107.155 -4.67296 3.93022 0
M  V30 1113 H 108.569 -2.70072 5.05702 0
M  V30 1114 H 106.966 -2.13374 5.60885 0
M  V30 1115 H 108.036 -1.01802 4.74093 0
M  V30 1116 N 109.379 -1.50304 -0.473955 0
M  V30 1117 C 110.326 -1.68959 -1.57231 0
M  V30 1118 C 111.296 -0.530899 -1.57387 0
M  V30 1119 O 112.481 -0.761133 -1.74961 0
M  V30 1120 C 109.621 -1.7871 -2.95223 0
M  V30 1121 C 108.734 -3.06061 -3.04878 0
M  V30 1122 C 107.869 -3.06626 -4.33767 0
M  V30 1123 C 106.908 -4.28443 -4.37154 0
M  V30 1124 N 106.045 -4.26763 -5.5751 0
M  V30 1125 H 110.885 -2.6273 -1.40631 0
M  V30 1126 H 108.422 -1.30241 -0.683789 0
M  V30 1127 H 110.38 -1.82344 -3.75242 0
M  V30 1128 H 109.01 -0.883806 -3.10465 0
M  V30 1129 H 108.062 -3.11911 -2.17751 0
M  V30 1130 H 109.374 -3.96039 -3.0324 0
M  V30 1131 H 108.528 -3.08973 -5.22131 0
M  V30 1132 H 107.267 -2.14473 -4.3801 0
M  V30 1133 H 106.272 -4.2631 -3.47188 0
M  V30 1134 H 107.497 -5.2182 -4.34605 0
M  V30 1135 H 105.443 -3.37462 -5.62544 0
M  V30 1136 H 105.36 -5.10507 -5.57601 0
M  V30 1137 H 106.628 -4.33253 -6.48006 0
M  V30 1138 N 110.857 0.726932 -1.39834 0
M  V30 1139 C 112.085 1.51613 -1.40787 0
M  V30 1140 C 112.5 1.88799 -0.00451505 0
M  V30 1141 O 111.857 1.54662 0.968809 0
M  V30 1142 C 111.908 2.79863 -2.28821 0
M  V30 1143 O 111.629 2.44253 -3.63692 0
M  V30 1144 C 113.13 3.73837 -2.38245 0
M  V30 1145 H 110.35 0.468264 -0.480593 0
M  V30 1146 H 112.894 0.897607 -1.83748 0
M  V30 1147 H 111.049 3.38027 -1.89252 0
M  V30 1148 H 111.463 3.26695 -4.1033 0
M  V30 1149 H 112.937 4.60699 -3.04073 0
M  V30 1150 H 113.414 4.16153 -1.40403 0
M  V30 1151 H 114.02 3.21589 -2.78317 0
M  V30 1152 N 112.336 1.25143 0.95797 0
M  V30 1153 C 113.268 1.01023 2.05735 0
M  V30 1154 C 114.281 -0.0236902 1.62783 0
M  V30 1155 O 115.47 0.21448 1.77207 0
M  V30 1156 C 112.57 0.504595 3.35122 0
M  V30 1157 C 111.743 1.6039 4.06932 0
M  V30 1158 C 110.802 1.09922 5.14591 0
M  V30 1159 O 109.828 1.79293 5.40225 0
M  V30 1160 N 111.03 -0.0612545 5.80468 0
M  V30 1161 H 113.795 1.95683 2.26998 0
M  V30 1162 H 111.356 1.16303 1.12629 0
M  V30 1163 H 113.348 0.151516 4.04416 0
M  V30 1164 H 111.918 -0.347989 3.10657 0
M  V30 1165 H 111.138 2.12872 3.31782 0
M  V30 1166 H 112.426 2.34252 4.51667 0
M  V30 1167 H 111.824 -0.640985 5.62057 0
M  V30 1168 H 110.381 -0.355395 6.5083 0
M  V30 1169 N 113.814 -1.1601 1.06675 0
M  V30 1170 C 115.062 -1.86264 0.784229 0
M  V30 1171 C 115.383 -1.82328 -0.691488 0
M  V30 1172 O 114.653 -1.25947 -1.50047 0
M  V30 1173 H 113.233 -0.689621 0.28711 0
M  V30 1174 H 115.895 -1.40664 1.34906 0
M  V30 1175 H 114.991 -2.91595 1.11259 0
M  V30 1176 N 115.292 -0.849877 -1.32721 0
M  V30 1177 C 116.532 -0.457146 -1.99222 0
M  V30 1178 C 116.896 0.968038 -1.6581 0
M  V30 1179 O 118.097 1.46507 -2.25364 0
M  V30 1180 C 116.368 -0.683966 -3.50794 0
M  V30 1181 S 117.927 -0.388095 -4.3708 0
M  V30 1182 H 114.745 -0.171464 -0.690015 0
M  V30 1183 H 117.347 -1.10155 -1.61512 0
M  V30 1184 H 116.051 -1.72038 -3.726 0
M  V30 1185 H 115.582 -0.0258086 -3.93392 0
M  V30 1186 H 117.597 0.787791 -4.89906 0
M  V30 1187 N 116.77 1.45427 -0.607355 0
M  V30 1188 C 117.995 2.07124 -0.107006 0
M  V30 1189 C 118.42 1.44906 1.19933 0
M  V30 1190 O 117.778 0.541687 1.73019 0
M  V30 1191 C 117.826 3.60595 0.0194119 0
M  V30 1192 O 116.93 3.98285 1.0697 0
M  V30 1193 H 116.271 0.659868 -0.0739597 0
M  V30 1194 H 118.801 1.86683 -0.837297 0
M  V30 1195 H 118.811 4.07419 0.2177 0
M  V30 1196 H 117.486 4.05266 -0.934453 0
M  V30 1197 H 116.063 3.63133 0.847889 0
M  V30 1198 N 118.248 0.346503 1.53744 0
M  V30 1199 C 119.497 -0.250122 2.00143 0
M  V30 1200 C 119.81 -1.51418 1.23822 0
M  V30 1201 O 121.016 -2.18823 1.60713 0
M  V30 1202 C 119.472 -0.496252 3.56462 0
M  V30 1203 C 119.08 0.752077 4.41642 0
M  V30 1204 C 120.824 -1.05157 4.11269 0
M  V30 1205 C 118.731 0.476583 5.89477 0
M  V30 1206 H 117.661 -0.0972409 0.747703 0
M  V30 1207 H 120.312 0.46229 1.77581 0
M  V30 1208 H 118.694 -1.26944 3.75102 0
M  V30 1209 H 119.868 1.5266 4.34778 0
M  V30 1210 H 118.183 1.22925 3.97842 0
M  V30 1211 H 120.78 -1.27269 5.19333 0
M  V30 1212 H 121.123 -2.00799 3.64672 0
M  V30 1213 H 121.656 -0.339019 3.96353 0
M  V30 1214 H 118.395 1.4028 6.40314 0
M  V30 1215 H 117.915 -0.259794 5.99237 0
M  V30 1216 H 119.594 0.0949315 6.4693 0
M  V30 1217 N 119.726 -1.57421 0.075193 0
M  V30 1218 C 120.956 -1.97659 -0.601203 0
M  V30 1219 C 121.364 -0.952427 -1.63479 0
M  V30 1220 O 120.707 0.0688241 -1.83571 0
M  V30 1221 C 120.769 -3.34218 -1.32434 0
M  V30 1222 C 120.433 -4.5484 -0.443826 0
M  V30 1223 C 121.43 -5.19034 0.299969 0
M  V30 1224 C 119.115 -5.00952 -0.367709 0
M  V30 1225 C 121.109 -6.27695 1.10807 0
M  V30 1226 C 118.796 -6.09484 0.444058 0
M  V30 1227 C 119.794 -6.72719 1.18061 0
M  V30 1228 O 119.482 -7.79161 1.97898 0
M  V30 1229 H 119.214 -0.65494 -0.167422 0
M  V30 1230 H 121.768 -2.04886 0.145157 0
M  V30 1231 H 119.998 -3.23615 -2.11685 0
M  V30 1232 H 121.687 -3.59038 -1.89331 0
M  V30 1233 H 122.453 -4.84351 0.250776 0
M  V30 1234 H 118.332 -4.51509 -0.930638 0
M  V30 1235 H 121.876 -6.76982 1.68347 0
M  V30 1236 H 117.773 -6.43601 0.494803 0
M  V30 1237 H 118.541 -7.96055 1.90367 0
M  V30 1238 N 121.204 0.198386 -1.56346 0
M  V30 1239 C 122.151 1.24589 -1.94284 0
M  V30 1240 C 123.121 1.454 -0.802997 0
M  V30 1241 O 124.306 1.58588 -1.06087 0
M  V30 1242 C 121.446 2.58631 -2.28482 0
M  V30 1243 C 120.559 2.45426 -3.55514 0
M  V30 1244 C 119.694 3.7215 -3.79049 0
M  V30 1245 C 118.733 3.53763 -4.99518 0
M  V30 1246 N 117.87 4.72491 -5.19323 0
M  V30 1247 H 122.71 0.915356 -2.83593 0
M  V30 1248 H 120.247 0.440629 -1.40346 0
M  V30 1249 H 122.205 3.3672 -2.46324 0
M  V30 1250 H 120.835 2.89734 -1.42317 0
M  V30 1251 H 119.887 1.58652 -3.45737 0
M  V30 1252 H 121.199 2.27772 -4.43758 0
M  V30 1253 H 120.353 4.58679 -3.97113 0
M  V30 1254 H 119.092 3.92754 -2.89129 0
M  V30 1255 H 118.097 2.65619 -4.8138 0
M  V30 1256 H 119.322 3.34607 -5.90944 0
M  V30 1257 H 117.268 4.93365 -4.3235 0
M  V30 1258 H 117.185 4.5765 -6.01741 0
M  V30 1259 H 118.453 5.6038 -5.41843 0
M  V30 1260 N 122.682 1.50554 0.465978 0
M  V30 1261 C 123.959 1.5232 1.22712 0
M  V30 1262 C 124.339 0.270807 2.09356 0
M  V30 1263 O 123.687 -0.745541 2.15995 0
M  V30 1264 C 123.897 2.82175 2.05374 0
M  V30 1265 C 125.245 3.33033 2.6339 0
M  V30 1266 O 126.269 2.83531 2.15612 0
M  V30 1267 O 125.128 4.19336 3.50456 0
M  V30 1268 H 122.222 0.611183 0.557122 0
M  V30 1269 H 124.768 1.62847 0.477381 0
M  V30 1270 H 123.54 3.64797 1.41558 0
M  V30 1271 H 123.163 2.74675 2.87471 0
M  V30 1272 N 124.16 -0.719506 1.40217 0
M  V30 1273 C 125.39 -1.50646 1.41384 0
M  V30 1274 C 125.798 -1.89197 0.0107743 0
M  V30 1275 O 125.141 -1.55709 -0.974708 0
M  V30 1276 C 125.203 -2.81405 2.23722 0
M  V30 1277 C 124.867 -2.65199 3.72181 0
M  V30 1278 C 125.864 -2.32717 4.64907 0
M  V30 1279 C 123.549 -2.81586 4.1595 0
M  V30 1280 C 125.543 -2.16827 5.99387 0
M  V30 1281 C 123.23 -2.65313 5.50502 0
M  V30 1282 C 124.228 -2.32981 6.42035 0
M  V30 1283 O 123.916 -2.16827 7.74107 0
M  V30 1284 H 123.648 -0.471606 0.484318 0
M  V30 1285 H 126.202 -0.895456 1.84853 0
M  V30 1286 H 124.432 -3.44823 1.75026 0
M  V30 1287 H 126.121 -3.43102 2.16878 0
M  V30 1288 H 126.887 -2.19694 4.32388 0
M  V30 1289 H 122.766 -3.0574 3.45027 0
M  V30 1290 H 126.31 -1.91513 6.70797 0
M  V30 1291 H 122.207 -2.7792 5.82607 0
M  V30 1292 H 122.975 -2.31778 7.84998 0
M  V30 1293 N 125.638 -1.25649 -0.95132 0
M  V30 1294 C 126.868 -1.13179 -1.72841 0
M  V30 1295 C 127.276 0.316827 -1.86528 0
M  V30 1296 O 126.619 1.22948 -1.3649 0
M  V30 1297 C 126.681 -1.71644 -3.15878 0
M  V30 1298 C 126.345 -3.20667 -3.25609 0
M  V30 1299 C 127.342 -4.17616 -3.09666 0
M  V30 1300 C 125.027 -3.6094 -3.49324 0
M  V30 1301 C 127.021 -5.52817 -3.17289 0
M  V30 1302 C 124.708 -4.96278 -3.56584 0
M  V30 1303 C 125.706 -5.92025 -3.40581 0
M  V30 1304 O 125.394 -7.24899 -3.47528 0
M  V30 1305 H 125.126 -0.395389 -0.54831 0
M  V30 1306 H 127.68 -1.66566 -1.20187 0
M  V30 1307 H 125.91 -1.12707 -3.69911 0
M  V30 1308 H 127.599 -1.54225 -3.75459 0
M  V30 1309 H 128.365 -3.87842 -2.91211 0
M  V30 1310 H 124.244 -2.86907 -3.6084 0
M  V30 1311 H 127.788 -6.2753 -3.04716 0
M  V30 1312 H 123.685 -5.25716 -3.74556 0
M  V30 1313 H 124.453 -7.33039 -3.64138 0
M  V30 1314 N 127.117 1.15442 -1.07289 0
M  V30 1315 C 128.533 1.38201 -0.798288 0
M  V30 1316 C 128.733 1.92429 0.597769 0
M  V30 1317 O 127.789 2.12962 1.3566 0
M  V30 1318 C 129.102 2.35357 -1.87156 0
M  V30 1319 C 130.65 2.49021 -1.89624 0
M  V30 1320 C 131.125 3.49468 -2.96034 0
M  V30 1321 N 132.616 3.57003 -2.95132 0
M  V30 1322 C 133.351 4.34543 -3.74112 0
M  V30 1323 N 132.847 5.15421 -4.6294 0
M  V30 1324 N 134.64 4.29625 -3.62462 0
M  V30 1325 H 126.791 0.78584 -1.97328 0
M  V30 1326 H 129.054 0.408065 -0.855679 0
M  V30 1327 H 128.76 2.02626 -2.87464 0
M  V30 1328 H 128.634 3.35129 -1.73114 0
M  V30 1329 H 131.021 2.81051 -0.899687 0
M  V30 1330 H 131.102 1.4925 -2.07745 0
M  V30 1331 H 130.746 3.18173 -3.95889 0
M  V30 1332 H 130.676 4.48992 -2.75161 0
M  V30 1333 H 133.167 2.99276 -2.30743 0
M  V30 1334 H 133.48 5.7183 -5.19837 0
M  V30 1335 H 131.825 5.14729 -4.66989 0
M  V30 1336 H 135.016 3.65505 -2.92444 0
M  V30 1337 H 135.189 4.89807 -4.24256 0
M  V30 1338 N 128.595 0.856903 1.32268 0
M  V30 1339 C 129.825 0.47475 2.01071 0
M  V30 1340 C 130.233 -0.933746 1.64553 0
M  V30 1341 O 129.576 -1.62114 0.863989 0
M  V30 1342 C 129.638 0.536746 3.55471 0
M  V30 1343 C 129.302 1.90453 4.15423 0
M  V30 1344 C 130.299 2.87029 4.33486 0
M  V30 1345 C 127.984 2.20229 4.51447 0
M  V30 1346 C 129.978 4.11532 4.86744 0
M  V30 1347 C 127.665 3.44984 5.0441 0
M  V30 1348 C 128.663 4.40452 5.22007 0
M  V30 1349 O 128.351 5.62998 5.73837 0
M  V30 1350 H 128.083 0.184778 0.650256 0
M  V30 1351 H 130.637 1.15615 1.69771 0
M  V30 1352 H 128.867 -0.20152 3.86175 0
M  V30 1353 H 130.556 0.169875 4.05544 0
M  V30 1354 H 131.322 2.6533 4.05986 0
M  V30 1355 H 127.201 1.46705 4.37034 0
M  V30 1356 H 130.745 4.86056 5.00395 0
M  V30 1357 H 126.642 3.66532 5.31342 0
M  V30 1358 H 127.41 5.64987 5.92226 0
M  V30 1359 N 130.073 -1.45103 0.615059 0
M  V30 1360 C 131.021 -2.32331 -0.111791 0
M  V30 1361 C 132.015 -1.46409 -0.852102 0
M  V30 1362 O 133.221 -1.62849 -0.766821 0
M  V30 1363 H 129.596 -0.749993 -0.0549072 0
M  V30 1364 H 131.567 -2.91407 0.642225 0
M  V30 1365 C 130.316 -3.3015 -1.09071 0
M  V30 1366 H 129.639 -3.96265 -0.530485 0
M  V30 1367 H 131.079 -3.93898 -1.56908 0
M  V30 1368 C 129.538 -2.57875 -2.168 0
M  V30 1369 O 130.068 -2.36567 -3.24652 0
M  V30 1370 N 128.274 -2.17884 -1.92289 0
M  V30 1371 H 127.821 -2.35413 -1.04587 0
M  V30 1372 H 127.779 -1.6985 -2.64572 0
M  V30 1373 N 131.551 -0.354651 -1.53558 0
M  V30 1374 C 132.798 0.238443 -2.01091 0
M  V30 1375 C 133.126 1.49663 -1.24222 0
M  V30 1376 O 132.381 1.93049 -0.321003 0
M  V30 1377 C 132.68 0.587121 -3.52545 0
M  V30 1378 C 132.346 -0.575472 -4.47213 0
M  V30 1379 C 131.008 -0.894497 -4.72813 0
M  V30 1380 C 133.36 -1.35489 -5.03281 0
M  V30 1381 C 130.688 -1.99511 -5.51736 0
M  V30 1382 C 133.04 -2.44583 -5.83405 0
M  V30 1383 C 131.704 -2.77033 -6.07296 0
M  V30 1384 H 130.974 0.0872526 -0.735845 0
M  V30 1385 H 133.621 -0.484859 -1.8526 0
M  V30 1386 H 131.926 1.39129 -3.66265 0
M  V30 1387 H 133.623 1.05809 -3.86789 0
M  V30 1388 H 130.213 -0.316774 -4.27428 0
M  V30 1389 H 134.397 -1.12167 -4.83459 0
M  V30 1390 H 129.653 -2.25063 -5.68469 0
M  V30 1391 H 133.827 -3.05401 -6.25862 0
M  V30 1392 H 131.454 -3.6244 -6.68237 0
M  V30 1393 N 133.029 1.57378 -0.0835403 0
M  V30 1394 C 134.254 1.98682 0.594987 0
M  V30 1395 C 134.679 0.961969 1.61641 0
M  V30 1396 O 134.037 -0.0709989 1.81161 0
M  V30 1397 C 134.085 3.38988 1.2296 0
M  V30 1398 O 133.189 3.39208 2.34546 0
M  V30 1399 H 132.53 0.646368 0.152002 0
M  V30 1400 H 135.06 2.03961 -0.161533 0
M  V30 1401 H 135.07 3.76431 1.57366 0
M  V30 1402 H 133.745 4.13107 0.481228 0
M  V30 1403 H 132.322 3.13548 2.01846 0
M  V30 1404 N 134.507 -0.190092 1.56449 0
M  V30 1405 C 135.439 -1.25973 1.91477 0
M  V30 1406 C 136.452 -1.41452 0.805931 0
M  V30 1407 O 137.641 -1.41789 1.08435 0
M  V30 1408 C 134.741 -2.63117 2.13594 0
M  V30 1409 C 133.914 -2.69182 3.4476 0
M  V30 1410 C 132.973 -3.87557 3.5593 0
M  V30 1411 O 131.999 -3.74427 4.28711 0
M  V30 1412 N 133.201 -5.03224 2.89388 0
M  V30 1413 H 135.966 -0.962394 2.83828 0
M  V30 1414 H 133.527 -0.379981 1.57378 0
M  V30 1415 H 135.519 -3.40742 2.1835 0
M  V30 1416 H 134.089 -2.85319 1.27719 0
M  V30 1417 H 133.309 -1.77793 3.51828 0
M  V30 1418 H 134.597 -2.70229 4.31107 0
M  V30 1419 H 133.995 -5.16791 2.30094 0
M  V30 1420 H 132.552 -5.78778 2.99764 0
M  V30 1421 N 135.985 -1.50799 -0.457987 0
M  V30 1422 C 137.233 -1.62121 -1.2067 0
M  V30 1423 C 137.554 -0.329793 -1.92191 0
M  V30 1424 O 136.824 0.653409 -1.84682 0
M  V30 1425 H 135.404 -0.597441 -0.448411 0
M  V30 1426 H 138.066 -1.87637 -0.527096 0
M  V30 1427 H 137.162 -2.43882 -1.94751 0
M  V30 1428 N 137.463 0.71206 -1.40597 0
M  V30 1429 C 138.411 1.84746 -1.41321 0
M  V30 1430 C 139.405 1.66842 -0.293268 0
M  V30 1431 O 140.611 1.73904 -0.464481 0
M  V30 1432 H 136.986 0.608522 -0.441819 0
M  V30 1433 H 138.957 1.81252 -2.37045 0
M  V30 1434 C 137.706 3.22638 -1.29614 0
M  V30 1435 H 137.029 3.37023 -2.15071 0
M  V30 1436 H 138.469 4.02209 -1.3418 0
M  V30 1437 C 136.928 3.36899 -0.00673121 0
M  V30 1438 O 137.458 3.90186 0.954859 0
M  V30 1439 N 135.664 2.9053 0.0639327 0
M  V30 1440 H 135.211 2.47353 -0.719311 0
M  V30 1441 H 135.169 3.0045 0.926118 0
M  V30 1442 N 138.941 1.26152 0.944643 0
M  V30 1443 C 140.19 1.10883 1.68487 0
M  V30 1444 C 140.503 -0.348153 1.92477 0
M  V30 1445 O 141.709 -0.621459 2.64292 0
M  V30 1446 C 140.165 1.93624 3.03377 0
M  V30 1447 C 139.773 3.43875 2.87148 0
M  V30 1448 C 141.517 1.86954 3.81115 0
M  V30 1449 C 139.424 4.18875 4.1749 0
M  V30 1450 H 138.354 0.41135 0.631907 0
M  V30 1451 H 141.005 1.50433 1.05082 0
M  V30 1452 H 139.387 1.46904 3.67743 0
M  V30 1453 H 140.561 3.98338 2.31653 0
M  V30 1454 H 138.876 3.51744 2.22856 0
M  V30 1455 H 141.473 2.40275 4.77673 0
M  V30 1456 H 141.816 0.839518 4.07747 0
M  V30 1457 H 142.349 2.31477 3.23517 0
M  V30 1458 H 139.088 5.22332 3.96043 0
M  V30 1459 H 138.608 3.69193 4.72712 0
M  V30 1460 H 140.287 4.27134 4.85968 0
M  V30 1461 N 140.419 -1.14872 1.07899 0
M  V30 1462 C 141.369 -2.17809 0.674027 0
M  V30 1463 C 142.353 -1.58008 -0.303699 0
M  V30 1464 O 143.545 -1.76616 -0.11654 0
M  V30 1465 C 140.674 -3.43208 0.0793318 0
M  V30 1466 C 139.76 -4.10051 1.08253 0
M  V30 1467 N 140.151 -4.52296 2.2641 0
M  V30 1468 C 138.449 -4.36469 0.917124 0
M  V30 1469 C 139.15 -5.04199 2.901 0
M  V30 1470 N 138.126 -4.98088 2.17736 0
M  V30 1471 H 141.928 -2.48207 1.57386 0
M  V30 1472 H 139.442 -1.315 0.952976 0
M  V30 1473 H 141.439 -4.16272 -0.228719 0
M  V30 1474 H 140.099 -3.14291 -0.815551 0
M  V30 1475 H 141.11 -4.45504 2.64096 0
M  V30 1476 H 137.787 -4.17432 0.0756078 0
M  V30 1477 H 139.177 -5.46802 3.90458 0
M  V30 1478 N 141.898 -0.863906 -1.31812 0
M  V30 1479 C 143.138 -0.47825 -1.98726 0
M  V30 1480 C 143.502 0.950397 -1.66828 0
M  V30 1481 O 144.703 1.44109 -2.26905 0
M  V30 1482 C 142.974 -0.721134 -3.50049 0
M  V30 1483 S 144.533 -0.434432 -4.36644 0
M  V30 1484 H 141.351 -0.178773 -0.688158 0
M  V30 1485 H 143.953 -1.11862 -1.60334 0
M  V30 1486 H 142.657 -1.75981 -3.70755 0
M  V30 1487 H 142.188 -0.0675315 -3.93342 0
M  V30 1488 H 144.203 0.735786 -4.90714 0
M  V30 1489 N 143.376 1.44774 -0.622745 0
M  V30 1490 C 144.601 2.06999 -0.128968 0
M  V30 1491 C 145.026 1.4617 1.1839 0
M  V30 1492 O 144.384 0.560007 1.72434 0
M  V30 1493 C 144.432 3.60595 -0.0188351 0
M  V30 1494 O 143.536 3.99398 1.02739 0
M  V30 1495 H 142.877 0.659047 -0.0809544 0
M  V30 1496 H 145.407 1.85784 -0.85705 0
M  V30 1497 H 145.417 4.07627 0.174476 0
M  V30 1498 H 144.092 4.04252 -0.977384 0
M  V30 1499 H 142.669 3.64011 0.809326 0
M  V30 1500 N 144.854 0.36279 1.53368 0
M  V30 1501 C 146.131 -0.284021 1.93527 0
M  V30 1502 C 146.511 -1.66628 1.29608 0
M  V30 1503 O 145.859 -2.23942 0.45413 0
M  V30 1504 C 146.069 -0.337028 3.47369 0
M  V30 1505 C 147.417 -0.578708 4.20638 0
M  V30 1506 O 148.441 -0.418352 3.53735 0
M  V30 1507 O 147.3 -0.89074 5.39192 0
M  V30 1508 H 144.394 -0.169743 0.809393 0
M  V30 1509 H 146.94 0.41537 1.64538 0
M  V30 1510 H 145.712 0.632217 3.86159 0
M  V30 1511 H 145.335 -1.08243 3.82582 0
M  V30 1512 N 146.332 -1.57332 0.0918853 0
M  V30 1513 C 147.279 -2.13847 -0.868211 0
M  V30 1514 C 148.249 -1.05618 -1.28196 0
M  V30 1515 O 149.434 -1.33387 -1.36427 0
M  V30 1516 C 146.574 -2.72062 -2.12312 0
M  V30 1517 C 145.687 -3.94514 -1.7602 0
M  V30 1518 C 144.822 -4.40903 -2.96273 0
M  V30 1519 C 143.861 -5.55953 -2.56092 0
M  V30 1520 N 142.998 -5.97209 -3.69169 0
M  V30 1521 H 147.838 -2.95575 -0.379406 0
M  V30 1522 H 145.375 -1.46048 -0.175606 0
M  V30 1523 H 147.333 -3.03931 -2.858 0
M  V30 1524 H 145.963 -1.93068 -2.58698 0
M  V30 1525 H 145.015 -3.68979 -0.925135 0
M  V30 1526 H 146.327 -4.7802 -1.42472 0
M  V30 1527 H 145.481 -4.74539 -3.78018 0
M  V30 1528 H 144.22 -3.56291 -3.33029 0
M  V30 1529 H 143.225 -5.21948 -1.72773 0
M  V30 1530 H 144.45 -6.42311 -2.20484 0
M  V30 1531 H 142.396 -5.15543 -4.05649 0
M  V30 1532 H 142.313 -6.75504 -3.39456 0
M  V30 1533 H 143.581 -6.35475 -4.51434 0
M  V30 1534 N 147.81 0.181792 -1.56548 0
M  V30 1535 C 149.058 0.89832 -1.81038 0
M  V30 1536 C 149.379 1.83232 -0.667164 0
M  V30 1537 O 148.649 1.93372 0.313673 0
M  V30 1538 H 147.229 0.33471 -0.667816 0
M  V30 1539 H 149.891 0.184116 -1.94028 0
M  V30 1540 H 148.987 1.4815 -2.74696 0
M  V30 1541 N 149.288 1.51039 0.449983 0
M  V30 1542 C 150.513 1.6715 1.22783 0
M  V30 1543 C 150.938 0.363081 1.84563 0
M  V30 1544 O 150.296 -0.675433 1.68249 0
M  V30 1545 C 150.344 2.77985 2.29689 0
M  V30 1546 O 149.448 2.40707 3.34864 0
M  V30 1547 H 148.789 0.557746 0.360299 0
M  V30 1548 H 151.319 1.97535 0.533005 0
M  V30 1549 H 151.329 3.01693 2.74673 0
M  V30 1550 H 150.004 3.72935 1.84098 0
M  V30 1551 H 148.581 2.27523 2.95445 0
M  V30 1552 N 150.766 -0.704594 1.40972 0
M  V30 1553 C 152.012 -1.46546 1.41053 0
M  V30 1554 C 152.367 -1.92393 0.0159714 0
M  V30 1555 O 151.66 -1.66017 -0.956506 0
M  V30 1556 C 151.854 -2.698 2.34399 0
M  V30 1557 C 151.683 -2.36008 3.82793 0
M  V30 1558 C 150.453 -2.26812 4.51536 0
M  V30 1559 C 152.651 -1.99565 4.74003 0
M  V30 1560 N 150.633 -1.8581 5.85105 0
M  V30 1561 C 152.004 -1.69251 5.96451 0
M  V30 1562 C 154.059 -1.86296 4.61734 0
M  V30 1563 C 152.762 -1.27003 7.07999 0
M  V30 1564 C 154.788 -1.45452 5.73234 0
M  V30 1565 C 154.15 -1.16043 6.94776 0
M  V30 1566 H 150.249 -0.533896 0.571383 0
M  V30 1567 H 152.833 -0.816061 1.76773 0
M  V30 1568 H 151.004 -3.32473 2.00789 0
M  V30 1569 H 152.736 -3.36214 2.25261 0
M  V30 1570 H 149.491 -2.44913 4.05357 0
M  V30 1571 H 149.915 -1.67817 6.55871 0
M  V30 1572 H 154.557 -2.0769 3.68273 0
M  V30 1573 H 152.275 -1.04353 8.01334 0
M  V30 1574 H 155.861 -1.35748 5.65742 0
M  V30 1575 H 154.741 -0.84915 7.79589 0
M  V30 1576 N 152.244 -1.26651 -0.937939 0
M  V30 1577 C 153.484 -1.13611 -1.69917 0
M  V30 1578 C 153.848 0.314687 -1.89404 0
M  V30 1579 O 155.049 0.567285 -2.62746 0
M  V30 1580 C 153.32 -1.88742 -3.03498 0
M  V30 1581 S 154.879 -1.91794 -3.94665 0
M  V30 1582 H 151.697 -0.405767 -0.583844 0
M  V30 1583 H 154.299 -1.60416 -1.11745 0
M  V30 1584 H 153.003 -2.9336 -2.86999 0
M  V30 1585 H 152.534 -1.42391 -3.66727 0
M  V30 1586 H 154.549 -1.00698 -4.85875 0
M  V30 1587 N 153.722 1.14298 -1.08507 0
M  V30 1588 C 154.632 2.23027 -0.727753 0
M  V30 1589 C 155.648 1.71952 0.26619 0
M  V30 1590 O 156.824 2.011 0.109882 0
M  V30 1591 C 153.889 3.46403 -0.143541 0
M  V30 1592 C 152.95 4.12413 -1.19223 0
M  V30 1593 C 152.183 5.29899 -0.635798 0
M  V30 1594 O 152.406 5.67796 0.544393 0
M  V30 1595 O 151.34 5.85717 -1.38634 0
M  V30 1596 H 155.166 2.55945 -1.63481 0
M  V30 1597 H 152.751 1.22248 -0.858817 0
M  V30 1598 H 154.633 4.21018 0.179404 0
M  V30 1599 H 153.308 3.15206 0.736659 0
M  V30 1600 H 152.215 3.39667 -1.56772 0
M  V30 1601 H 153.548 4.47718 -2.04474 0
M  V30 1602 N 155.201 0.870884 1.31352 0
M  V30 1603 C 156.133 0.28455 2.27427 0
M  V30 1604 C 157.146 -0.552927 1.53123 0
M  V30 1605 O 158.335 -0.374771 1.74521 0
M  V30 1606 C 155.435 -0.615164 3.3327 0
M  V30 1607 C 154.608 0.190079 4.36987 0
M  V30 1608 C 153.667 -0.637917 5.22319 0
M  V30 1609 O 152.693 -0.065626 5.69162 0
M  V30 1610 N 153.895 -1.94973 5.46778 0
M  V30 1611 H 156.66 1.11017 2.7838 0
M  V30 1612 H 154.221 0.732458 1.44384 0
M  V30 1613 H 156.213 -1.1748 3.87273 0
M  V30 1614 H 154.783 -1.34146 2.82354 0
M  V30 1615 H 154.003 0.931165 3.83044 0
M  V30 1616 H 155.291 0.742579 5.03352 0
M  V30 1617 H 154.689 -2.4378 5.10478 0
M  V30 1618 H 153.246 -2.45713 6.03712 0
M  V30 1619 N 156.679 -1.44442 0.630414 0
M  V30 1620 C 157.611 -2.2892 -0.113347 0
M  V30 1621 C 158.624 -1.41243 -0.80959 0
M  V30 1622 O 159.813 -1.65402 -0.671156 0
M  V30 1623 C 156.913 -3.17594 -1.18266 0
M  V30 1624 C 156.086 -4.33682 -0.569073 0
M  V30 1625 C 155.145 -5.03397 -1.53226 0
M  V30 1626 O 154.171 -5.59438 -1.04967 0
M  V30 1627 N 155.373 -5.04783 -2.86661 0
M  V30 1628 H 158.138 -2.93392 0.611636 0
M  V30 1629 H 155.699 -1.54881 0.471523 0
M  V30 1630 H 157.691 -3.61097 -1.82732 0
M  V30 1631 H 156.261 -2.54876 -1.80988 0
M  V30 1632 H 155.481 -3.9338 0.254187 0
M  V30 1633 H 156.769 -5.08608 -0.139767 0
M  V30 1634 H 156.167 -4.60584 -3.28449 0
M  V30 1635 H 154.724 -5.52077 -3.46489 0
M  V30 1636 N 158.157 -0.370918 -1.53173 0
M  V30 1637 C 159.087 0.464847 -2.28826 0
M  V30 1638 C 160.068 1.07936 -1.31468 0
M  V30 1639 O 161.253 1.0956 -1.60344 0
M  V30 1640 C 158.383 1.60196 -3.08147 0
M  V30 1641 C 157.337 1.11443 -4.13237 0
M  V30 1642 C 156.663 2.3422 -4.80672 0
M  V30 1643 C 157.963 0.195384 -5.21934 0
M  V30 1644 H 159.657 -0.166329 -2.98938 0
M  V30 1645 H 157.203 -0.0814359 -1.4377 0
M  V30 1646 H 159.156 2.19332 -3.59822 0
M  V30 1647 H 157.88 2.26045 -2.35735 0
M  V30 1648 H 156.539 0.545727 -3.62515 0
M  V30 1649 H 156.187 2.98537 -4.04827 0
M  V30 1650 H 155.887 2.02269 -5.51689 0
M  V30 1651 H 157.411 2.94032 -5.35143 0
M  V30 1652 H 158.825 0.694375 -5.69079 0
M  V30 1653 H 157.222 -0.0335027 -6.00091 0
M  V30 1654 H 158.292 -0.760961 -4.78892 0
M  V30 1655 N 159.635 1.57281 -0.100228 0
M  V30 1656 C 160.875 1.96419 0.56558 0
M  V30 1657 C 161.239 0.981265 1.65031 0
M  V30 1658 O 162.44 1.26133 2.37369 0
M  V30 1659 C 160.711 3.39996 1.10171 0
M  V30 1660 S 162.27 4.01134 1.77867 0
M  V30 1661 H 159.088 0.68667 0.184406 0
M  V30 1662 H 161.69 1.94662 -0.180851 0
M  V30 1663 H 160.394 4.09296 0.300803 0
M  V30 1664 H 159.925 3.45361 1.88385 0
M  V30 1665 H 161.94 3.90358 3.06326 0
M  V30 1666 N 161.113 -0.173488 1.56642 0
M  V30 1667 C 162.076 -1.19859 1.95362 0
M  V30 1668 C 163.076 -1.37296 0.83704 0
M  V30 1669 O 164.266 -1.34739 1.10413 0
M  V30 1670 C 161.398 -2.56405 2.24654 0
M  V30 1671 H 162.591 -0.867062 2.87092 0
M  V30 1672 H 160.144 -0.415853 1.50666 0
M  V30 1673 H 160.879 -2.94576 1.35631 0
M  V30 1674 H 160.664 -2.45115 3.06041 0
M  V30 1675 H 162.154 -3.30287 2.5554 0
M  V30 1676 N 162.591 -1.51276 -0.441967 0
M  V30 1677 C 163.831 -1.65372 -1.20132 0
M  V30 1678 C 164.195 -0.359871 -1.88597 0
M  V30 1679 O 165.396 -0.376551 -2.66149 0
M  V30 1680 C 163.667 -2.8207 -2.1948 0
M  V30 1681 S 165.226 -3.16467 -3.03964 0
M  V30 1682 H 162.044 -0.582669 -0.407453 0
M  V30 1683 H 164.646 -1.89166 -0.493609 0
M  V30 1684 H 163.35 -3.74523 -1.67812 0
M  V30 1685 H 162.881 -2.6045 -2.94838 0
M  V30 1686 H 164.896 -2.62543 -4.21053 0
M  V30 1687 N 164.069 0.697108 -1.41344 0
M  V30 1688 C 165.346 1.45154 -1.31109 0
M  V30 1689 C 165.726 2.11009 0.0620449 0
M  V30 1690 O 165.074 2.01571 1.07618 0
M  V30 1691 C 165.284 2.47223 -2.46337 0
M  V30 1692 C 166.632 3.1252 -2.87431 0
M  V30 1693 O 167.656 2.57547 -2.46065 0
M  V30 1694 O 166.515 4.12083 -3.58957 0
M  V30 1695 H 163.609 0.646365 -0.515889 0
M  V30 1696 H 166.155 0.727716 -1.53305 0
M  V30 1697 H 164.927 1.97204 -3.37974 0
M  V30 1698 H 164.55 3.27116 -2.2601 0
M  V30 1699 N 165.547 1.27147 0.931209 0
M  V30 1700 C 166.494 1.09568 2.03134 0
M  V30 1701 C 167.464 -0.00222433 1.661 0
M  V30 1702 O 168.649 0.159439 1.90133 0
M  V30 1703 C 165.789 0.745231 3.36957 0
M  V30 1704 C 164.902 1.92041 3.86968 0
M  V30 1705 C 164.037 1.51216 5.09222 0
M  V30 1706 C 163.076 2.65504 5.5152 0
M  V30 1707 N 162.213 2.25291 6.64972 0
M  V30 1708 H 167.053 2.03708 2.17502 0
M  V30 1709 H 164.59 1.01411 1.06556 0
M  V30 1710 H 166.548 0.522878 4.1391 0
M  V30 1711 H 165.178 -0.159202 3.22407 0
M  V30 1712 H 164.23 2.25541 3.06326 0
M  V30 1713 H 165.542 2.77787 4.1429 0
M  V30 1714 H 164.696 1.25084 5.93666 0
M  V30 1715 H 163.435 0.625749 4.83669 0
M  V30 1716 H 162.44 2.92354 4.65628 0
M  V30 1717 H 163.665 3.54761 5.7907 0
M  V30 1718 H 161.611 1.39098 6.41083 0
M  V30 1719 H 161.528 3.04577 6.91931 0
M  V30 1720 H 162.796 2.02398 7.52765 0
M  V30 1721 N 167.025 -1.13721 1.09112 0
M  V30 1722 C 167.935 -2.22638 0.73957 0
M  V30 1723 C 168.951 -1.72091 -0.257068 0
M  V30 1724 O 170.127 -2.01155 -0.0992154 0
M  V30 1725 C 167.192 -3.46322 0.16191 0
M  V30 1726 C 166.253 -4.11775 1.21408 0
M  V30 1727 C 165.486 -5.29555 0.663891 0
M  V30 1728 O 165.709 -5.68077 -0.514274 0
M  V30 1729 O 164.643 -5.84973 1.41738 0
M  V30 1730 H 168.469 -2.55074 1.64836 0
M  V30 1731 H 166.054 -1.21791 0.865289 0
M  V30 1732 H 167.936 -4.21107 -0.157073 0
M  V30 1733 H 166.611 -3.15593 -0.719932 0
M  V30 1734 H 165.518 -3.3883 1.58571 0
M  V30 1735 H 166.851 -4.46627 2.06845 0
M  V30 1736 N 168.503 -0.877838 -1.30888 0
M  V30 1737 C 169.749 -0.493426 -1.96706 0
M  V30 1738 C 170.082 0.953504 -1.6918 0
M  V30 1739 O 169.357 1.67266 -0.992594 0
M  V30 1740 C 169.64 -0.760429 -3.51979 0
M  V30 1741 C 169.493 -2.25747 -3.89048 0
M  V30 1742 C 170.812 -0.232148 -4.39487 0
M  V30 1743 H 167.931 -0.180746 -0.714493 0
M  V30 1744 H 170.573 -1.10052 -1.54882 0
M  V30 1745 H 168.723 -0.243715 -3.87735 0
M  V30 1746 H 170.395 -2.84204 -3.63354 0
M  V30 1747 H 168.638 -2.72694 -3.37373 0
M  V30 1748 H 169.309 -2.39491 -4.97341 0
M  V30 1749 H 171.785 -0.674314 -4.106 0
M  V30 1750 H 170.661 -0.448355 -5.47066 0
M  V30 1751 H 170.922 0.866297 -4.33529 0
M  V30 1752 N 169.982 1.44106 -0.638065 0
M  V30 1753 C 170.945 2.29138 0.0531013 0
M  V30 1754 C 171.945 1.41409 0.765506 0
M  V30 1755 O 173.135 1.63206 0.609046 0
M  V30 1756 C 170.267 3.23144 1.08584 0
M  V30 1757 H 171.46 2.91739 -0.694883 0
M  V30 1758 H 169.013 1.51134 -0.398538 0
M  V30 1759 H 169.748 2.65408 1.86357 0
M  V30 1760 H 169.533 3.87804 0.578852 0
M  V30 1761 H 171.023 3.87004 1.56899 0
M  V30 1762 N 171.46 0.379036 1.52974 0
M  V30 1763 C 172.707 -0.206421 2.01445 0
M  V30 1764 C 173.035 -1.47668 1.26587 0
M  V30 1765 O 172.29 -1.92514 0.351675 0
M  V30 1766 C 172.589 -0.53096 3.53434 0
M  V30 1767 C 172.255 0.646546 4.46241 0
M  V30 1768 C 170.917 0.969604 4.7133 0
M  V30 1769 C 173.269 1.43479 5.01062 0
M  V30 1770 C 170.597 2.08263 5.48492 0
M  V30 1771 C 172.949 2.53834 5.7944 0
M  V30 1772 C 171.613 2.86659 6.02812 0
M  V30 1773 H 170.883 -0.0755349 0.73714 0
M  V30 1774 H 173.53 0.514271 1.84465 0
M  V30 1775 H 171.835 -1.33285 3.68432 0
M  V30 1776 H 173.532 -0.996417 3.88423 0
M  V30 1777 H 170.122 0.384734 4.2687 0
M  V30 1778 H 174.306 1.19844 4.81613 0
M  V30 1779 H 169.562 2.34078 5.64816 0
M  V30 1780 H 173.736 3.15319 6.20924 0
M  V30 1781 H 171.363 3.73026 6.62387 0
M  V30 1782 N 172.938 -1.57226 0.108567 0
M  V30 1783 C 174.178 -1.96717 -0.555155 0
M  V30 1784 C 174.542 -0.990003 -1.64508 0
M  V30 1785 O 175.743 -1.2739 -2.36696 0
M  V30 1786 C 174.014 -3.40575 -1.08367 0
M  V30 1787 S 175.573 -4.02072 -1.75737 0
M  V30 1788 H 172.391 -0.687638 -0.180762 0
M  V30 1789 H 174.993 -1.94563 0.191172 0
M  V30 1790 H 173.697 -4.0945 -0.279092 0
M  V30 1791 H 173.228 -3.46356 -1.86551 0
M  V30 1792 H 175.243 -3.91977 -3.04251 0
M  V30 1793 N 174.416 0.165178 -1.56732 0
M  V30 1794 C 175.346 1.20651 -1.99914 0
M  V30 1795 C 176.327 1.45827 -0.875705 0
M  V30 1796 O 177.512 1.57057 -1.14223 0
M  V30 1797 C 174.642 2.54401 -2.36427 0
M  V30 1798 C 173.596 2.43782 -3.51787 0
M  V30 1799 C 172.922 3.82078 -3.7406 0
M  V30 1800 C 174.222 1.93732 -4.85041 0
M  V30 1801 H 175.916 0.847534 -2.87154 0
M  V30 1802 H 173.462 0.40625 -1.38151 0
M  V30 1803 H 175.415 3.27458 -2.65234 0
M  V30 1804 H 174.139 2.92098 -1.46103 0
M  V30 1805 H 172.798 1.73178 -3.23117 0
M  V30 1806 H 172.446 4.17179 -2.81017 0
M  V30 1807 H 172.146 3.7584 -4.51684 0
M  V30 1808 H 173.67 4.56712 -4.05274 0
M  V30 1809 H 175.084 2.56569 -5.12684 0
M  V30 1810 H 173.481 1.98428 -5.66345 0
M  V30 1811 H 174.551 0.891962 -4.76626 0
M  V30 1812 N 175.894 1.51508 0.433938 0
M  V30 1813 C 176.841 1.73068 1.52696 0
M  V30 1814 C 177.811 0.572441 1.55924 0
M  V30 1815 O 178.996 0.807253 1.72882 0
M  V30 1816 C 176.136 1.86474 2.90381 0
M  V30 1817 C 175.249 3.14037 2.96656 0
M  V30 1818 C 174.384 3.18019 4.25485 0
M  V30 1819 C 173.423 4.39882 4.2564 0
M  V30 1820 N 172.56 4.41394 5.45999 0
M  V30 1821 H 177.4 2.66366 1.33615 0
M  V30 1822 H 174.937 1.32008 0.649018 0
M  V30 1823 H 176.895 1.92229 3.70275 0
M  V30 1824 H 175.525 0.965809 3.08013 0
M  V30 1825 H 174.577 3.17575 2.09404 0
M  V30 1826 H 175.889 4.0394 2.92633 0
M  V30 1827 H 175.043 3.22708 5.13755 0
M  V30 1828 H 173.782 2.2601 4.3217 0
M  V30 1829 H 172.787 4.35366 3.35763 0
M  V30 1830 H 174.012 5.33159 4.20617 0
M  V30 1831 H 171.958 3.52258 5.53399 0
M  V30 1832 H 171.875 5.25111 5.4387 0
M  V30 1833 H 173.143 4.50281 6.36292 0
M  V30 1834 N 177.372 -0.689602 1.41712 0
M  V30 1835 C 178.788 -1.00093 1.24312 0
M  V30 1836 C 178.988 -2.01036 0.136729 0
M  V30 1837 O 178.044 -2.47562 -0.496918 0
M  V30 1838 C 179.357 -1.51985 2.59463 0
M  V30 1839 C 180.905 -1.63838 2.66695 0
M  V30 1840 C 181.38 -2.1913 4.02177 0
M  V30 1841 N 182.871 -2.26483 4.04054 0
M  V30 1842 C 183.606 -2.70306 5.0569 0
M  V30 1843 N 183.102 -3.13691 6.17713 0
M  V30 1844 N 184.895 -2.69923 4.9305 0
M  V30 1845 H 177.046 -0.0210029 2.1239 0
M  V30 1846 H 179.309 -0.0718733 0.945272 0
M  V30 1847 H 179.015 -0.85269 3.41207 0
M  V30 1848 H 178.889 -2.50103 2.82362 0
M  V30 1849 H 181.276 -2.29664 1.85306 0
M  V30 1850 H 181.357 -0.642492 2.476 0
M  V30 1851 H 181.001 -1.53918 4.84016 0
M  V30 1852 H 180.931 -3.19482 4.18615 0
M  V30 1853 H 183.422 -1.95874 3.23174 0
M  V30 1854 H 183.735 -3.45773 6.9113 0
M  V30 1855 H 182.08 -3.11585 6.21241 0
M  V30 1856 H 185.271 -2.35382 4.04614 0
M  V30 1857 H 185.444 -3.03758 5.72394 0
M  V30 1858 N 178.85 -1.27639 -0.924453 0
M  V30 1859 C 179.798 -1.10485 -2.04685 0
M  V30 1860 C 180.792 -0.0270421 -1.69378 0
M  V30 1861 O 181.998 -0.185008 -1.79047 0
M  V30 1862 H 178.373 -0.340546 -0.670472 0
M  V30 1863 H 180.344 -2.05566 -2.16298 0
M  V30 1864 C 179.093 -0.772229 -3.39016 0
M  V30 1865 H 178.416 -1.59351 -3.66671 0
M  V30 1866 H 179.856 -0.692097 -4.18313 0
M  V30 1867 C 178.315 0.523554 -3.32807 0
M  V30 1868 O 178.845 1.55702 -3.70297 0
M  V30 1869 N 177.051 0.520363 -2.85903 0
M  V30 1870 H 176.598 -0.32107 -2.55591 0
M  V30 1871 H 176.556 1.38742 -2.82131 0
M  V30 1872 N 180.328 1.1314 -1.09713 0
M  V30 1873 C 181.258 2.20748 -0.761102 0
M  V30 1874 C 182.239 1.68061 0.262566 0
M  V30 1875 O 183.424 1.93765 0.129977 0
M  V30 1876 C 180.554 3.46812 -0.184054 0
M  V30 1877 C 179.508 4.12606 -1.13757 0
M  V30 1878 C 178.834 5.33031 -0.422083 0
M  V30 1879 C 180.134 4.59603 -2.48118 0
M  V30 1880 H 181.828 2.49113 -1.66082 0
M  V30 1881 H 179.374 1.19734 -0.799987 0
M  V30 1882 H 181.327 4.21353 0.0631215 0
M  V30 1883 H 180.051 3.17851 0.750868 0
M  V30 1884 H 178.71 3.40036 -1.37007 0
M  V30 1885 H 178.358 5.00335 0.517072 0
M  V30 1886 H 178.058 5.77999 -1.05788 0
M  V30 1887 H 179.582 6.10325 -0.183277 0
M  V30 1888 H 180.996 5.25552 -2.29059 0
M  V30 1889 H 179.393 5.15321 -3.07514 0
M  V30 1890 H 180.463 3.73971 -3.08665 0
M  V30 1891 N 181.806 0.884767 1.30421 0
M  V30 1892 C 183.083 0.423185 1.90967 0
M  V30 1893 C 183.463 -1.09605 1.80416 0
M  V30 1894 O 182.811 -1.93126 1.22125 0
M  V30 1895 C 183.021 0.921056 3.36627 0
M  V30 1896 C 184.369 0.955903 4.137 0
M  V30 1897 O 185.393 0.867706 3.4547 0
M  V30 1898 O 184.252 1.08614 5.35598 0
M  V30 1899 H 181.346 0.129369 0.816819 0
M  V30 1900 H 183.892 0.973653 1.3899 0
M  V30 1901 H 182.664 1.96489 3.3839 0
M  V30 1902 H 182.287 0.349741 3.96059 0
M  V30 1903 N 183.284 -1.43765 0.645699 0
M  V30 1904 C 184.512 -2.06253 0.163556 0
M  V30 1905 C 184.927 -1.48352 -1.16778 0
M  V30 1906 O 184.284 -0.611932 -1.71935 0
M  V30 1907 C 184.335 -3.61453 0.0583186 0
M  V30 1908 O 184.056 -4.172 1.33702 0
M  V30 1909 C 185.557 -4.41002 -0.450795 0
M  V30 1910 H 182.777 -0.665413 0.0864077 0
M  V30 1911 H 185.321 -1.84396 0.884222 0
M  V30 1912 H 183.476 -3.82522 -0.612865 0
M  V30 1913 H 183.89 -5.10791 1.19131 0
M  V30 1914 H 185.364 -5.49966 -0.473403 0
M  V30 1915 H 185.841 -4.13488 -1.48068 0
M  V30 1916 H 186.447 -4.24886 0.187637 0
M  V30 1917 N 184.763 -0.387143 -1.52771 0
M  V30 1918 C 185.993 0.195585 -2.05672 0
M  V30 1919 C 186.401 1.41241 -1.25887 0
M  V30 1920 O 185.744 1.81265 -0.298081 0
M  V30 1921 C 185.806 0.632327 -3.53895 0
M  V30 1922 C 185.47 -0.470739 -4.54569 0
M  V30 1923 C 186.467 -1.32746 -5.02667 0
M  V30 1924 C 184.152 -0.637151 -4.98243 0
M  V30 1925 C 186.146 -2.33574 -5.93061 0
M  V30 1926 C 183.833 -1.64877 -5.88438 0
M  V30 1927 C 184.831 -2.49649 -6.35739 0
M  V30 1928 O 184.519 -3.49082 -7.24153 0
M  V30 1929 H 184.251 0.033658 -0.675162 0
M  V30 1930 H 186.805 -0.550221 -1.97893 0
M  V30 1931 H 185.035 1.43008 -3.59285 0
M  V30 1932 H 186.724 1.14048 -3.89548 0
M  V30 1933 H 187.49 -1.21019 -4.69659 0
M  V30 1934 H 183.369 0.0129567 -4.60998 0
M  V30 1935 H 186.913 -2.99777 -6.29904 0
M  V30 1936 H 182.81 -1.76643 -6.2086 0
M  V30 1937 H 183.578 -3.45065 -7.42208 0
M  V30 1938 N 186.241 1.57166 -0.116904 0
M  V30 1939 C 187.173 2.12271 0.864507 0
M  V30 1940 C 188.186 1.06494 1.23138 0
M  V30 1941 O 189.375 1.33873 1.18069 0
M  V30 1942 C 186.475 2.60564 2.16702 0
M  V30 1943 C 185.648 3.90416 1.97216 0
M  V30 1944 C 184.707 4.24329 3.11178 0
M  V30 1945 O 183.733 4.93182 2.84184 0
M  V30 1946 N 184.935 3.8148 4.37554 0
M  V30 1947 H 187.7 2.97102 0.393726 0
M  V30 1948 H 185.261 1.61759 0.0675805 0
M  V30 1949 H 187.253 2.80282 2.91932 0
M  V30 1950 H 185.823 1.80623 2.55135 0
M  V30 1951 H 185.043 3.79627 1.06192 0
M  V30 1952 H 186.331 4.75327 1.81499 0
M  V30 1953 H 185.729 3.25943 4.62361 0
M  V30 1954 H 184.286 4.06311 5.09661 0
M  V30 1955 N 187.719 -0.156864 1.56817 0
M  V30 1956 C 188.666 -1.19394 1.97519 0
M  V30 1957 C 189.636 -1.4322 0.841265 0
M  V30 1958 O 190.821 -1.55719 1.10255 0
M  V30 1959 C 187.961 -2.52483 2.35258 0
M  V30 1960 C 187.074 -2.35914 3.61896 0
M  V30 1961 C 186.209 -3.61969 3.88782 0
M  V30 1962 C 185.248 -3.40395 5.08722 0
M  V30 1963 N 184.385 -4.58556 5.31668 0
M  V30 1964 H 189.225 -0.839845 2.85921 0
M  V30 1965 H 186.762 -0.403264 1.41464 0
M  V30 1966 H 188.72 -3.30071 2.55165 0
M  V30 1967 H 187.35 -2.85859 1.49949 0
M  V30 1968 H 186.402 -1.49429 3.49821 0
M  V30 1969 H 187.714 -2.15926 4.49641 0
M  V30 1970 H 186.868 -4.47989 4.09135 0
M  V30 1971 H 185.607 -3.84951 2.9944 0
M  V30 1972 H 184.612 -2.52763 4.88253 0
M  V30 1973 H 185.837 -3.18822 5.99608 0
M  V30 1974 H 183.783 -4.81729 4.45279 0
M  V30 1975 H 183.7 -4.41535 6.13664 0
M  V30 1976 H 184.968 -5.45817 5.5651 0
M  V30 1977 N 189.197 -1.51736 -0.425897 0
M  V30 1978 C 190.613 -1.40166 -0.76326 0
M  V30 1979 C 190.813 -0.492962 -1.95377 0
M  V30 1980 O 189.869 0.0475815 -2.52455 0
M  V30 1981 C 191.182 -2.82403 -1.03291 0
M  V30 1982 C 192.73 -2.91632 -1.13665 0
M  V30 1983 C 193.205 -4.34801 -1.43916 0
M  V30 1984 N 194.696 -4.3796 -1.50816 0
M  V30 1985 C 195.431 -5.4578 -1.75817 0
M  V30 1986 N 194.927 -6.63744 -1.98534 0
M  V30 1987 N 196.72 -5.33274 -1.77694 0
M  V30 1988 H 188.871 -2.09361 0.358 0
M  V30 1989 H 191.134 -0.942941 0.0978094 0
M  V30 1990 H 190.84 -3.50943 -0.230696 0
M  V30 1991 H 190.714 -3.22428 -1.95754 0
M  V30 1992 H 193.101 -2.23284 -1.92947 0
M  V30 1993 H 193.182 -2.55088 -0.190756 0
M  V30 1994 H 192.826 -5.03703 -0.65157 0
M  V30 1995 H 192.756 -4.68868 -2.39729 0
M  V30 1996 H 195.247 -3.52919 -1.35118 0
M  V30 1997 H 195.56 -7.41704 -2.17013 0
M  V30 1998 H 193.905 -6.66839 -1.95832 0
M  V30 1999 H 197.096 -4.40098 -1.59473 0
M  V30 2000 H 197.269 -6.1738 -1.9684 0
M  V30 2001 N 190.675 0.682077 -1.42076 0
M  V30 2002 C 191.605 1.80796 -1.47767 0
M  V30 2003 C 192.586 1.6677 -0.334954 0
M  V30 2004 O 193.771 1.863 -0.548264 0
M  V30 2005 C 190.901 3.19038 -1.37229 0
M  V30 2006 C 189.855 3.47789 -2.49453 0
M  V30 2007 C 189.181 4.8553 -2.23975 0
M  V30 2008 C 190.481 3.45411 -3.91776 0
M  V30 2009 H 192.175 1.7629 -2.41997 0
M  V30 2010 H 189.721 0.846721 -1.16476 0
M  V30 2011 H 191.674 3.97528 -1.39821 0
M  V30 2012 H 190.398 3.24204 -0.394907 0
M  V30 2013 H 189.057 2.71657 -2.46166 0
M  V30 2014 H 188.705 4.87337 -1.24547 0
M  V30 2015 H 188.405 5.0573 -2.99184 0
M  V30 2016 H 189.929 5.66312 -2.28304 0
M  V30 2017 H 191.343 4.13882 -3.96705 0
M  V30 2018 H 189.74 3.77145 -4.66778 0
M  V30 2019 H 190.81 2.44122 -4.18966 0
M  V30 2020 N 192.153 1.28127 0.917671 0
M  V30 2021 C 193.569 1.05749 1.19538 0
M  V30 2022 C 193.769 -0.202633 2.00479 0
M  V30 2023 O 192.825 -0.905382 2.3571 0
M  V30 2024 C 194.138 2.30273 1.93378 0
M  V30 2025 C 195.686 2.35412 2.06277 0
M  V30 2026 C 196.161 3.59692 2.83524 0
M  V30 2027 N 197.652 3.60309 2.91087 0
M  V30 2028 C 198.387 4.53147 3.51348 0
M  V30 2029 N 197.883 5.563 4.12919 0
M  V30 2030 N 199.676 4.40751 3.48849 0
M  V30 2031 H 191.827 2.09024 0.377184 0
M  V30 2032 H 194.09 0.919798 0.22951 0
M  V30 2033 H 193.796 3.22055 1.41328 0
M  V30 2034 H 193.67 2.36378 2.93947 0
M  V30 2035 H 196.057 1.4413 2.57508 0
M  V30 2036 H 196.138 2.33304 1.04895 0
M  V30 2037 H 195.782 4.51316 2.32973 0
M  V30 2038 H 195.712 3.59054 3.85211 0
M  V30 2039 H 198.203 2.85714 2.47338 0
M  V30 2040 H 198.516 6.2329 4.56869 0
M  V30 2041 H 196.861 5.60131 4.11435 0
M  V30 2042 H 200.052 3.59367 2.99955 0
M  V30 2043 H 200.225 5.13291 3.9552 0
M  V30 2044 N 193.631 -1.12557 1.10312 0
M  V30 2045 C 194.878 -1.84038 0.844759 0
M  V30 2046 C 195.206 -1.84026 -0.629668 0
M  V30 2047 O 194.461 -1.28026 -1.48013 0
M  V30 2048 C 194.76 -3.31462 1.33669 0
M  V30 2049 C 194.426 -3.51647 2.82232 0
M  V30 2050 C 193.088 -3.56864 3.22802 0
M  V30 2051 C 195.44 -3.58867 3.77974 0
M  V30 2052 C 192.768 -3.66844 4.57867 0
M  V30 2053 C 195.12 -3.70375 5.1284 0
M  V30 2054 C 193.784 -3.73848 5.52986 0
M  V30 2055 H 193.054 -0.673444 0.309119 0
M  V30 2056 H 195.701 -1.32824 1.37949 0
M  V30 2057 H 194.006 -3.85091 0.721949 0
M  V30 2058 H 195.703 -3.85236 1.11329 0
M  V30 2059 H 192.293 -3.48249 2.49842 0
M  V30 2060 H 196.477 -3.54107 3.47738 0
M  V30 2061 H 191.733 -3.67804 4.88396 0
M  V30 2062 H 195.907 -3.74904 5.86873 0
M  V30 2063 H 193.534 -3.81333 6.57639 0
M  V30 2064 N 195.109 -0.891671 -1.2995 0
M  V30 2065 C 196.339 -0.527893 -1.99742 0
M  V30 2066 C 196.747 0.88979 -1.66971 0
M  V30 2067 O 196.09 1.59766 -0.906667 0
M  V30 2068 C 196.152 -0.630804 -3.53922 0
M  V30 2069 C 195.816 -2.01401 -4.10228 0
M  V30 2070 C 196.813 -2.98422 -4.25724 0
M  V30 2071 C 194.498 -2.32121 -4.45449 0
M  V30 2072 C 196.492 -4.24293 -4.75662 0
M  V30 2073 C 194.179 -3.58237 -4.95086 0
M  V30 2074 C 195.177 -4.54137 -5.10146 0
M  V30 2075 O 194.865 -5.78014 -5.58708 0
M  V30 2076 H 194.597 -0.201953 -0.645129 0
M  V30 2077 H 197.151 -1.20076 -1.66646 0
M  V30 2078 H 195.381 0.0990616 -3.86573 0
M  V30 2079 H 197.07 -0.277338 -4.04951 0
M  V30 2080 H 197.836 -2.76001 -3.98809 0
M  V30 2081 H 193.715 -1.5824 -4.32991 0
M  V30 2082 H 197.259 -4.99153 -4.87332 0
M  V30 2083 H 193.156 -3.80491 -5.21437 0
M  V30 2084 H 193.924 -5.8049 -5.77039 0
M  V30 2085 N 196.587 1.43421 -0.653314 0
M  V30 2086 C 197.833 2.02641 -0.175593 0
M  V30 2087 C 198.188 1.5062 1.19713 0
M  V30 2088 O 197.481 0.689697 1.78756 0
M  V30 2089 C 197.675 3.57176 -0.126623 0
M  V30 2090 C 197.504 4.24191 -1.49306 0
M  V30 2091 C 196.274 4.60257 -2.08547 0
M  V30 2092 C 198.472 4.53193 -2.43148 0
M  V30 2093 N 196.454 5.12345 -3.38194 0
M  V30 2094 C 197.825 5.06601 -3.57429 0
M  V30 2095 C 199.88 4.35161 -2.41949 0
M  V30 2096 C 198.583 5.43875 -4.70736 0
M  V30 2097 C 200.609 4.73498 -3.54336 0
M  V30 2098 C 199.971 5.27039 -4.67343 0
M  V30 2099 H 196.07 0.77441 -0.108686 0
M  V30 2100 H 198.654 1.74596 -0.861638 0
M  V30 2101 H 196.825 3.84784 0.528766 0
M  V30 2102 H 198.557 4.03078 0.36198 0
M  V30 2103 H 195.312 4.45302 -1.61255 0
M  V30 2104 H 195.736 5.42842 -4.04538 0
M  V30 2105 H 200.378 3.9304 -1.55818 0
M  V30 2106 H 198.096 5.8494 -5.57558 0
M  V30 2107 H 201.682 4.61241 -3.5461 0
M  V30 2108 H 200.562 5.56153 -5.52868 0
M  V30 2109 N 198.065 0.39524 1.52563 0
M  V30 2110 C 199.481 0.0454682 1.59535 0
M  V30 2111 C 199.681 -1.44056 1.4089 0
M  V30 2112 O 198.737 -2.20579 1.22888 0
M  V30 2113 C 200.05 0.527963 2.96029 0
M  V30 2114 C 201.598 0.484733 3.09224 0
M  V30 2115 C 202.073 0.943512 4.48176 0
M  V30 2116 N 203.564 0.899765 4.54377 0
M  V30 2117 C 204.299 1.22609 5.60138 0
M  V30 2118 N 203.795 1.62319 6.73516 0
M  V30 2119 N 205.588 1.14696 5.50274 0
M  V30 2120 H 197.739 1.36261 1.62931 0
M  V30 2121 H 200.002 0.558887 0.765735 0
M  V30 2122 H 199.708 1.56607 3.14908 0
M  V30 2123 H 199.582 -0.0698056 3.77135 0
M  V30 2124 H 201.969 -0.544298 2.90037 0
M  V30 2125 H 202.05 1.11838 2.30056 0
M  V30 2126 H 201.694 1.9708 4.68104 0
M  V30 2127 H 201.624 0.286817 5.25818 0
M  V30 2128 H 204.115 0.607632 3.72983 0
M  V30 2129 H 204.428 1.85567 7.5019 0
M  V30 2130 H 202.773 1.66211 6.74833 0
M  V30 2131 H 205.964 0.835701 4.6058 0
M  V30 2132 H 206.137 1.40459 6.32594 0
M  V30 2133 N 199.544 -1.57102 0.125237 0
M  V30 2134 C 200.955 -1.82384 -0.399142 0
M  V30 2135 C 201.306 -1.04276 -1.66195 0
M  V30 2136 O 200.431 -0.281269 -2.14564 0
M  V30 2137 C 201.026 -3.30821 -0.730932 0
M  V30 2138 C 199.585 -3.56762 -1.19992 0
M  V30 2139 C 198.732 -2.7649 -0.211792 0
M  V30 2140 H 201.683 -1.54786 0.350277 0
M  V30 2141 H 201.704 -3.4579 -1.58775 0
M  V30 2142 H 201.216 -3.87643 0.188345 0
M  V30 2143 H 199.317 -3.05305 -2.13588 0
M  V30 2144 H 199.43 -4.65317 -1.14093 0
M  V30 2145 H 197.794 -2.4489 -0.700085 0
M  V30 2146 H 198.577 -3.36073 0.700691 0
M  V30 2147 N 201.022 0.148545 -1.56898 0
M  V30 2148 C 201.972 1.1886 -1.94567 0
M  V30 2149 C 202.956 1.3863 -0.816735 0
M  V30 2150 O 204.148 1.40218 -1.08018 0
M  V30 2151 C 201.277 2.52262 -2.32849 0
M  V30 2152 C 200.363 2.36092 -3.52309 0
M  V30 2153 N 200.754 1.89674 -4.6889 0
M  V30 2154 C 199.052 2.66848 -3.57363 0
M  V30 2155 C 199.753 1.86511 -5.50989 0
M  V30 2156 N 198.729 2.29766 -4.92655 0
M  V30 2157 H 202.531 0.821793 -2.82177 0
M  V30 2158 H 200.045 0.356615 -1.58436 0
M  V30 2159 H 202.042 3.27447 -2.58039 0
M  V30 2160 H 200.702 2.89727 -1.46589 0
M  V30 2161 H 201.713 1.59663 -4.92674 0
M  V30 2162 H 198.39 3.08198 -2.81639 0
M  V30 2163 H 199.78 1.52128 -6.54452 0
M  V30 2164 N 202.5 1.5196 0.417844 0
M  V30 2165 C 203.74 1.67262 1.17486 0
M  V30 2166 C 204.104 0.38983 1.88001 0
M  V30 2167 O 205.305 0.418845 2.65517 0
M  V30 2168 C 203.576 2.85526 2.14965 0
M  V30 2169 S 205.135 3.21263 2.98891 0
M  V30 2170 H 201.953 0.589077 0.398132 0
M  V30 2171 H 204.555 1.89927 0.463452 0
M  V30 2172 H 203.259 3.77145 1.61833 0
M  V30 2173 H 202.79 2.65107 2.90657 0
M  V30 2174 H 204.805 2.69208 4.16823 0
M  V30 2175 N 203.978 -0.674533 1.42435 0
M  V30 2176 C 205.394 -0.98769 1.25367 0
M  V30 2177 C 205.594 -2.00879 0.158044 0
M  V30 2178 O 204.65 -2.48075 -0.470633 0
M  V30 2179 C 205.963 -1.49224 2.6106 0
M  V30 2180 C 207.511 -1.61 2.68417 0
M  V30 2181 C 207.986 -2.14852 4.04478 0
M  V30 2182 N 209.477 -2.22185 4.06434 0
M  V30 2183 C 210.212 -2.64928 5.08528 0
M  V30 2184 N 209.708 -3.07121 6.21006 0
M  V30 2185 N 211.501 -2.64679 4.95885 0
M  V30 2186 H 203.652 0.00152503 2.124 0
M  V30 2187 H 205.915 -0.0618434 0.945981 0
M  V30 2188 H 205.621 -0.816453 3.42092 0
M  V30 2189 H 205.495 -2.47094 2.84999 0
M  V30 2190 H 207.882 -2.27686 1.87732 0
M  V30 2191 H 207.963 -0.616195 2.48267 0
M  V30 2192 H 207.607 -1.48775 4.85622 0
M  V30 2193 H 207.537 -3.15024 4.2198 0
M  V30 2194 H 210.028 -1.92435 3.25234 0
M  V30 2195 H 210.341 -3.38423 6.94759 0
M  V30 2196 H 208.686 -3.04978 6.24511 0
M  V30 2197 H 211.877 -2.31078 4.07088 0
M  V30 2198 H 212.05 -2.9767 5.75584 0
M  V30 2199 N 205.456 -1.28612 -0.910864 0
M  V30 2200 C 206.704 -1.15705 -1.65701 0
M  V30 2201 C 207.025 0.29416 -1.92769 0
M  V30 2202 O 206.295 1.20331 -1.54588 0
M  V30 2203 H 204.875 -0.425216 -0.614167 0
M  V30 2204 H 207.537 -1.61381 -1.0928 0
M  V30 2205 H 206.633 -1.6988 -2.61815 0
M  V30 2206 N 206.934 1.1197 -1.10907 0
M  V30 2207 C 207.866 2.17592 -0.720175 0
M  V30 2208 C 208.879 1.60938 0.245495 0
M  V30 2209 O 210.068 1.78476 0.0292245 0
M  V30 2210 C 207.168 3.38873 -0.0427917 0
M  V30 2211 C 206.341 4.25006 -1.03388 0
M  V30 2212 C 205.4 5.24774 -0.387075 0
M  V30 2213 O 204.426 5.59631 -1.03934 0
M  V30 2214 N 205.628 5.74208 0.852407 0
M  V30 2215 H 208.393 2.51567 -1.62893 0
M  V30 2216 H 205.954 1.27439 -0.998543 0
M  V30 2217 H 207.946 4.02703 0.401501 0
M  V30 2218 H 206.516 3.03007 0.768456 0
M  V30 2219 H 205.736 3.57716 -1.65629 0
M  V30 2220 H 207.024 4.79397 -1.70458 0
M  V30 2221 H 206.422 5.48062 1.40161 0
M  V30 2222 H 204.979 6.39901 1.23977 0
M  V30 2223 N 208.412 0.89855 1.29475 0
M  V30 2224 C 209.64 0.539261 1.99749 0
M  V30 2225 C 210.055 -0.875716 1.67262 0
M  V30 2226 O 209.412 -1.57786 0.917049 0
M  V30 2227 C 209.463 0.72061 3.54245 0
M  V30 2228 O 209.184 2.07989 3.8558 0
M  V30 2229 C 210.685 0.366118 4.41786 0
M  V30 2230 H 207.905 0.207047 0.638258 0
M  V30 2231 H 210.449 1.20758 1.65039 0
M  V30 2232 H 208.604 0.0994862 3.87272 0
M  V30 2233 H 209.018 2.10841 4.80257 0
M  V30 2234 H 210.492 0.543848 5.49314 0
M  V30 2235 H 210.969 -0.696763 4.33638 0
M  V30 2236 H 211.575 0.964135 4.14228 0
M  V30 2237 N 209.89 -1.43072 0.660911 0
M  V30 2238 C 211.301 -1.84932 0.256348 0
M  V30 2239 C 211.652 -1.55325 -1.19868 0
M  V30 2240 O 210.777 -1.00607 -1.91591 0
M  V30 2241 C 211.372 -3.35684 0.458475 0
M  V30 2242 C 209.931 -3.76245 0.108161 0
M  V30 2243 C 209.078 -2.66749 0.757641 0
M  V30 2244 H 212.029 -1.33116 0.864051 0
M  V30 2245 H 212.05 -3.79365 -0.293683 0
M  V30 2246 H 211.562 -3.572 1.51755 0
M  V30 2247 H 209.663 -3.60338 -0.948014 0
M  V30 2248 H 209.776 -4.76058 0.538992 0
M  V30 2249 H 208.14 -2.53989 0.190185 0
M  V30 2250 H 208.923 -2.91092 1.81989 0
M  V30 2251 N 211.368 -0.403325 -1.52352 0
M  V30 2252 C 212.616 0.174003 -2.0135 0
M  V30 2253 C 212.937 1.46139 -1.29106 0
M  V30 2254 O 212.207 1.91448 -0.415253 0
M  V30 2255 H 210.787 0.0672911 -0.743963 0
M  V30 2256 H 213.449 -0.538235 -1.87321 0
M  V30 2257 H 212.545 0.374254 -3.09848 0
M  V30 2258 N 212.846 1.57033 -0.133567 0
M  V30 2259 C 214.086 1.97575 0.523789 0
M  V30 2260 C 214.45 1.01605 1.62912 0
M  V30 2261 O 215.651 1.3114 2.3464 0
M  V30 2262 C 213.922 3.42256 1.02935 0
M  V30 2263 S 215.481 4.04817 1.69319 0
M  V30 2264 H 212.299 0.690427 0.169799 0
M  V30 2265 H 214.901 1.94234 -0.222101 0
M  V30 2266 H 213.605 4.09842 0.213917 0
M  V30 2267 H 213.136 3.4928 1.81017 0
M  V30 2268 H 215.151 3.96767 2.97977 0
M  V30 2269 O 214.363 -0.00541248 1.61499 0
M  V30 2270 H 215.054 -0.622816 1.83414 0
M  V30 END ATOM
M  V30 BEGIN BOND
M  V30 END BOND
M  V30 END CTAB
M  END
$$$$
