drugbank_target|Q9UP95 Solute carrier family 12 member 4 (DB00761; DB00887)
 OpenBabel12092119353D

  0  0  0     0  0            999 V3000
M  V30 BEGIN CTAB
M  V30 COUNTS 17008 17206 0 0 0
M  V30 BEGIN ATOM
M  V30 1 H -0.908 1.98254 -0.117106 0
M  V30 2 N 0 1.576 0 0
M  V30 3 C 0.933 2.03868 1.02534 0
M  V30 4 C 1.911 0.928543 1.3348 0
M  V30 5 O 3.095 1.19667 1.45644 0
M  V30 6 C 0.222 2.43627 2.35294 0
M  V30 7 C -0.732 3.65373 2.2001 0
M  V30 8 S 0.101 5.13292 1.52614 0
M  V30 9 C 1.257 5.56322 2.86805 0
M  V30 10 H 1.49 2.90518 0.631377 0
M  V30 11 H -0.977 1.52953 0.210867 0
M  V30 12 H 0.981 2.67203 3.11629 0
M  V30 13 H -0.358 1.57376 2.7183 0
M  V30 14 H -1.165 3.90944 3.18086 0
M  V30 15 H -1.563 3.418 1.51819 0
M  V30 16 H 0.729 5.58782 3.83104 0
M  V30 17 H 1.672 6.56266 2.65933 0
M  V30 18 H 2.08 4.83886 2.90714 0
M  V30 19 N 1.4781 -0.272755 1.55222 0
M  V30 20 C 2.8891 -0.84378 1.66545 0
M  V30 21 C 3.2401 -1.87035 0.592641 0
M  V30 22 O 2.3651 -2.14761 -0.265818 0
M  V30 23 C 2.9601 -1.53723 3.01918 0
M  V30 24 C 1.5191 -2.05628 3.15268 0
M  V30 25 C 0.6661 -0.898424 2.62343 0
M  V30 26 H 3.6171 -0.0490998 1.58624 0
M  V30 27 H 3.6381 -2.40421 2.94921 0
M  V30 28 H 3.1501 -0.78983 3.79978 0
M  V30 29 H 1.2511 -2.83329 2.41983 0
M  V30 30 H 1.3641 -2.27142 4.21833 0
M  V30 31 H -0.2719 -1.29186 2.19506 0
M  V30 32 H 0.5111 -0.164528 3.42906 0
M  V30 33 N 2.9562 -1.48159 -0.537278 0
M  V30 34 C 3.9062 -1.5854 -1.63857 0
M  V30 35 C 4.8902 -0.442969 -1.54682 0
M  V30 36 O 6.0822 -0.69401 -1.62827 0
M  V30 37 C 3.2112 -1.62144 -3.02596 0
M  V30 38 C 2.2972 -2.81841 -3.16901 0
M  V30 39 N 2.6882 -4.06337 -3.01204 0
M  V30 40 C 0.9862 -2.79021 -3.47942 0
M  V30 41 C 1.6872 -4.86606 -3.18731 0
M  V30 42 N 0.6632 -4.19288 -3.45974 0
M  V30 43 H 4.4652 -2.5255 -1.50319 0
M  V30 44 H 1.9792 -1.4443 -0.742555 0
M  V30 45 H 3.9762 -1.67674 -3.81695 0
M  V30 46 H 2.6362 -0.69245 -3.17231 0
M  V30 47 H 3.6472 -4.36888 -2.78117 0
M  V30 48 H 0.3242 -1.95347 -3.6898 0
M  V30 49 H 1.7142 -5.95385 -3.11394 0
M  V30 50 N 4.4343 0.785586 -1.36625 0
M  V30 51 C 5.6813 1.54362 -1.31067 0
M  V30 52 C 6.0093 1.94195 0.10893 0
M  V30 53 O 5.2643 1.63262 1.07908 0
M  V30 54 C 5.5633 2.83007 -2.1827 0
M  V30 55 C 5.2293 2.62294 -3.6676 0
M  V30 56 C 3.8913 2.56353 -4.0723 0
M  V30 57 C 6.2433 2.43371 -4.6089 0
M  V30 58 C 3.5713 2.29461 -5.39967 0
M  V30 59 C 5.9233 2.18005 -5.93849 0
M  V30 60 C 4.5873 2.105 -6.3344 0
M  V30 61 H 3.8573 0.564851 -0.479609 0
M  V30 62 H 6.5043 0.906028 -1.68711 0
M  V30 63 H 4.8093 3.51253 -1.73576 0
M  V30 64 H 6.5063 3.40817 -2.11292 0
M  V30 65 H 3.0963 2.67774 -3.34656 0
M  V30 66 H 7.2803 2.46959 -4.30494 0
M  V30 67 H 2.5363 2.22135 -5.69619 0
M  V30 68 H 6.7103 2.02359 -6.66351 0
M  V30 69 H 4.3373 1.89425 -7.36222 0
M  V30 70 N 5.9124 1.20967 1.01018 0
M  V30 71 C 7.1404 1.04956 1.78303 0
M  V30 72 C 7.5554 -0.400915 1.84494 0
M  V30 73 O 6.9124 -1.27826 1.30257 0
M  V30 74 C 6.9634 1.63403 3.22462 0
M  V30 75 O 6.6844 3.02775 3.16637 0
M  V30 76 C 8.1854 1.52432 4.16268 0
M  V30 77 H 5.4054 0.368858 0.560522 0
M  V30 78 H 7.9494 1.60193 1.27116 0
M  V30 79 H 6.1044 1.1227 3.70775 0
M  V30 80 H 6.5184 3.30626 4.07169 0
M  V30 81 H 7.9924 1.98078 5.15237 0
M  V30 82 H 8.4694 0.477875 4.36592 0
M  V30 83 H 9.0754 2.02787 3.73841 0
M  V30 84 N 7.3905 -1.2043 1.01659 0
M  V30 85 C 8.6365 -1.90079 0.706963 0
M  V30 86 C 8.9695 -1.78648 -0.761474 0
M  V30 87 O 8.2445 -1.17069 -1.55323 0
M  V30 88 C 8.5275 -3.41469 1.14327 0
M  V30 89 C 8.3805 -3.61833 2.67201 0
M  V30 90 C 9.6995 -4.34261 0.714529 0
M  V30 91 H 6.8185 -0.690254 0.2583 0
M  V30 92 H 9.4605 -1.41826 1.26433 0
M  V30 93 H 7.6105 -3.82696 0.669056 0
M  V30 94 H 9.2825 -3.2986 3.22475 0
M  V30 95 H 7.5255 -3.05304 3.08175 0
M  V30 96 H 8.1965 -4.67955 2.92783 0
M  V30 97 H 10.6725 -4.00682 1.12221 0
M  V30 98 H 9.5485 -5.38806 1.04784 0
M  V30 99 H 9.8095 -4.40431 -0.383799 0
M  V30 100 N 8.8686 -0.792821 -1.36206 0
M  V30 101 C 10.1146 -0.36733 -1.99446 0
M  V30 102 C 10.4476 1.05917 -1.62774 0
M  V30 103 O 9.7226 1.7324 -0.88421 0
M  V30 104 C 10.0056 -0.535044 -3.56103 0
M  V30 105 C 9.8586 -2.00548 -4.02617 0
M  V30 106 C 11.1776 0.0478191 -4.40074 0
M  V30 107 H 8.2966 -0.134941 -0.724541 0
M  V30 108 H 10.9386 -0.999794 -1.61568 0
M  V30 109 H 9.0886 0.00336329 -3.885 0
M  V30 110 H 10.7606 -2.60521 -3.80692 0
M  V30 111 H 9.0036 -2.50686 -3.54032 0
M  V30 112 H 9.6746 -2.07377 -5.11565 0
M  V30 113 H 12.1506 -0.411822 -4.14057 0
M  V30 114 H 11.0266 -0.0995336 -5.4881 0
M  V30 115 H 11.2876 1.14025 -4.27142 0
M  V30 116 N 10.3467 1.47872 -0.545128 0
M  V30 117 C 11.7577 1.86384 -0.108581 0
M  V30 118 C 12.1087 1.45309 1.31832 0
M  V30 119 O 11.2337 0.850641 1.9898 0
M  V30 120 C 11.8287 3.38265 -0.190274 0
M  V30 121 C 10.3877 3.75914 0.191164 0
M  V30 122 C 9.5347 2.71926 -0.543273 0
M  V30 123 H 12.4857 1.39561 -0.755537 0
M  V30 124 H 12.5067 3.75831 0.594217 0
M  V30 125 H 12.0187 3.6813 -1.2289 0
M  V30 126 H 10.1197 3.51665 1.23136 0
M  V30 127 H 10.2327 4.78836 -0.158987 0
M  V30 128 H 8.5967 2.54697 0.0122495 0
M  V30 129 H 9.3797 3.04634 -1.58282 0
M  V30 130 N 11.8248 0.280983 1.55075 0
M  V30 131 C 13.0708 -0.33461 2.00021 0
M  V30 132 C 13.4038 -1.55063 1.16915 0
M  V30 133 O 12.6788 -1.93006 0.240646 0
M  V30 134 C 12.9618 -0.711007 3.53011 0
M  V30 135 C 12.8148 0.512766 4.46868 0
M  V30 136 C 14.1338 -1.54522 4.12081 0
M  V30 137 H 11.2528 -0.120147 0.727141 0
M  V30 138 H 13.8948 0.389097 1.85973 0
M  V30 139 H 12.0448 -1.32761 3.65112 0
M  V30 140 H 13.7168 1.15131 4.46702 0
M  V30 141 H 11.9598 1.14975 4.18286 0
M  V30 142 H 12.6308 0.205556 5.51617 0
M  V30 143 H 15.1068 -1.02442 4.03293 0
M  V30 144 H 13.9828 -1.77739 5.19327 0
M  V30 145 H 14.2438 -2.52813 3.62682 0
M  V30 146 N 13.3029 -1.57598 0.00835791 0
M  V30 147 C 14.5799 -1.82172 -0.712235 0
M  V30 148 C 14.9599 -0.887873 -1.9152 0
M  V30 149 O 14.3079 0.06146 -2.28417 0
M  V30 150 C 14.5179 -3.30875 -1.11008 0
M  V30 151 C 15.8659 -3.96826 -1.51044 0
M  V30 152 O 16.8899 -3.35248 -1.20364 0
M  V30 153 O 15.7489 -5.05318 -2.08125 0
M  V30 154 H 12.8429 -0.750435 -0.347529 0
M  V30 155 H 15.3889 -1.69665 0.0344523 0
M  V30 156 H 14.1609 -3.90481 -0.252982 0
M  V30 157 H 13.7839 -3.48412 -1.9156 0
M  V30 158 N 14.781 0.264519 -1.55364 0
M  V30 159 C 16.029 0.993021 -1.76021 0
M  V30 160 C 16.35 1.86511 -0.569099 0
M  V30 161 O 15.62 1.91438 0.415735 0
M  V30 162 H 14.2 0.369639 -0.649135 0
M  V30 163 H 16.862 0.286707 -1.9278 0
M  V30 164 H 15.958 1.62502 -2.66457 0
M  V30 165 N 16.2591 1.48442 0.529413 0
M  V30 166 C 17.6701 1.5002 1.11134 0
M  V30 167 C 18.0211 0.27031 1.94329 0
M  V30 168 O 17.1461 -0.622507 2.07253 0
M  V30 169 C 17.7411 2.71834 2.02217 0
M  V30 170 C 16.3001 2.76283 2.55627 0
M  V30 171 C 15.4471 2.43542 1.326 0
M  V30 172 H 18.3981 1.5555 0.314641 0
M  V30 173 H 18.4191 2.50384 2.8651 0
M  V30 174 H 17.9311 3.61331 1.41639 0
M  V30 175 H 16.0321 1.90995 3.19924 0
M  V30 176 H 16.1451 3.77725 2.94721 0
M  V30 177 H 14.5091 1.94709 1.64196 0
M  V30 178 H 15.2921 3.3528 0.737734 0
M  V30 179 N 17.7372 -0.778329 1.37039 0
M  V30 180 C 19.1532 -1.07796 1.17695 0
M  V30 181 C 19.3532 -2.01498 0.00860115 0
M  V30 182 O 18.4092 -2.43901 -0.653352 0
M  V30 183 C 19.7222 -1.68178 2.49272 0
M  V30 184 C 21.2702 -1.80467 2.55735 0
M  V30 185 C 21.7452 -2.44263 3.87427 0
M  V30 186 N 23.2362 -2.51721 3.88833 0
M  V30 187 C 23.9712 -3.01919 4.87476 0
M  V30 188 N 23.4672 -3.5234 5.96513 0
M  V30 189 N 25.2602 -3.00733 4.74885 0
M  V30 190 H 17.4112 -0.156032 2.11826 0
M  V30 191 H 19.6742 -0.131844 0.938787 0
M  V30 192 H 19.3802 -1.06796 3.35093 0
M  V30 193 H 19.2542 -2.67554 2.65885 0
M  V30 194 H 21.6412 -2.40984 1.70325 0
M  V30 195 H 21.7222 -0.798656 2.43013 0
M  V30 196 H 21.3662 -1.84388 4.73248 0
M  V30 197 H 21.2962 -3.45458 3.9745 0
M  V30 198 H 23.7872 -2.1603 3.10063 0
M  V30 199 H 24.1002 -3.89027 6.67741 0
M  V30 200 H 22.4452 -3.50462 6.00168 0
M  V30 201 H 25.6362 -2.60638 3.88826 0
M  V30 202 H 25.8092 -3.39545 5.51918 0
M  V30 203 N 19.2153 -1.21501 -1.00376 0
M  V30 204 C 20.6313 -0.972629 -1.26539 0
M  V30 205 C 20.8313 0.340257 -1.98606 0
M  V30 206 O 19.8873 1.06561 -2.28913 0
M  V30 207 C 21.2003 -2.16404 -2.08781 0
M  V30 208 C 22.7483 -2.20643 -2.22004 0
M  V30 209 C 23.2233 -3.39306 -3.07629 0
M  V30 210 N 24.7143 -3.39401 -3.15217 0
M  V30 211 C 25.4493 -4.27867 -3.81729 0
M  V30 212 N 24.9453 -5.26533 -4.5026 0
M  V30 213 N 26.7383 -4.15672 -3.78382 0
M  V30 214 H 18.8893 -2.05929 -0.520281 0
M  V30 215 H 21.1523 -0.901803 -0.292328 0
M  V30 216 H 20.8583 -3.11554 -1.63178 0
M  V30 217 H 20.7323 -2.15567 -3.09533 0
M  V30 218 H 23.1193 -1.26048 -2.66825 0
M  V30 219 H 23.2003 -2.25523 -1.20718 0
M  V30 220 H 22.8443 -4.34195 -2.63509 0
M  V30 221 H 22.7743 -3.31665 -4.09031 0
M  V30 222 H 25.2653 -2.67997 -2.66432 0
M  V30 223 H 25.5783 -5.90337 -4.98721 0
M  V30 224 H 23.9233 -5.30457 -4.49044 0
M  V30 225 H 27.1143 -3.3785 -3.23998 0
M  V30 226 H 27.2873 -4.84825 -4.2994 0
M  V30 227 N 20.6934 1.19889 -1.02296 0
M  V30 228 C 21.9414 1.89046 -0.714558 0
M  V30 229 C 22.2624 1.79636 0.758681 0
M  V30 230 O 21.5324 1.20292 1.54618 0
M  V30 231 H 20.1124 0.699802 -0.261317 0
M  V30 232 H 22.7744 1.45574 -1.29592 0
M  V30 233 H 21.8704 2.95524 -1.0036 0
M  V30 234 N 22.1715 0.800033 1.35784 0
M  V30 235 C 23.4485 0.30088 1.93272 0
M  V30 236 C 23.8285 -1.20857 1.73081 0
M  V30 237 O 23.1765 -2.00502 1.09596 0
M  V30 238 C 23.3865 0.70511 3.41803 0
M  V30 239 C 24.7345 0.690871 4.18942 0
M  V30 240 O 25.7585 0.646244 3.50289 0
M  V30 241 O 24.6175 0.74332 5.41421 0
M  V30 242 H 21.7115 0.0771605 0.823393 0
M  V30 243 H 24.2575 0.88329 1.449 0
M  V30 244 H 23.0295 1.74571 3.50201 0
M  V30 245 H 22.6525 0.0971541 3.97481 0
M  V30 246 N 23.6496 -1.47581 0.552962 0
M  V30 247 C 24.8796 -2.06575 0.0320091 0
M  V30 248 C 25.2876 -1.4067 -1.26525 0
M  V30 249 O 24.6306 -0.495808 -1.76883 0
M  V30 250 C 24.6926 -3.58705 -0.238913 0
M  V30 251 C 24.3566 -4.46625 0.968272 0
M  V30 252 C 25.3536 -4.85 1.87274 0
M  V30 253 C 23.0386 -4.88201 1.18175 0
M  V30 254 C 25.0326 -5.63745 2.9744 0
M  V30 255 C 22.7196 -5.66712 2.28651 0
M  V30 256 C 23.7176 -6.04394 3.18114 0
M  V30 257 O 23.4056 -6.81324 4.26676 0
M  V30 258 H 23.1376 -0.674763 0.0408689 0
M  V30 259 H 25.6916 -1.90634 0.764719 0
M  V30 260 H 23.9216 -3.72844 -1.02588 0
M  V30 261 H 25.6106 -3.99735 -0.704731 0
M  V30 262 H 26.3766 -4.53482 1.71984 0
M  V30 263 H 22.2556 -4.58339 0.494593 0
M  V30 264 H 25.7996 -5.93077 3.67296 0
M  V30 265 H 21.6966 -5.97642 2.43915 0
M  V30 266 H 22.4646 -6.99712 4.24671 0
M  V30 267 N 25.1277 -0.289203 -1.54924 0
M  V30 268 C 26.4047 0.376032 -1.91951 0
M  V30 269 C 26.7847 1.72622 -1.21511 0
M  V30 270 O 26.1327 2.25853 -0.346767 0
M  V30 271 C 26.3427 0.502378 -3.45365 0
M  V30 272 C 27.6907 0.778741 -4.17398 0
M  V30 273 O 28.7147 0.586647 -3.51336 0
M  V30 274 O 27.5737 1.14698 -5.34328 0
M  V30 275 H 24.6677 0.208167 -0.800372 0
M  V30 276 H 27.2137 -0.336394 -1.66332 0
M  V30 277 H 25.9857 -0.447255 -3.88736 0
M  V30 278 H 25.6087 1.26373 -3.76982 0
M  V30 279 N 26.6058 1.57591 -0.0167156 0
M  V30 280 C 27.5538 2.10604 0.987353 0
M  V30 281 C 28.5478 1.02977 1.34507 0
M  V30 282 O 29.7538 1.21425 1.32875 0
M  V30 283 H 26.1288 0.672695 0.336134 0
M  V30 284 H 28.0998 2.93925 0.514817 0
M  V30 285 C 26.8488 2.6382 2.26483 0
M  V30 286 H 26.1718 3.46278 1.99829 0
M  V30 287 H 27.6118 3.04573 2.94977 0
M  V30 288 C 26.0708 1.55992 2.9861 0
M  V30 289 O 26.6008 0.952521 3.90243 0
M  V30 290 N 24.8068 1.28335 2.60727 0
M  V30 291 H 24.3538 1.77914 1.86291 0
M  V30 292 H 24.3118 0.564115 3.09298 0
M  V30 293 N 28.0839 -0.256276 1.55502 0
M  V30 294 C 29.0139 -1.32102 1.92539 0
M  V30 295 C 29.9949 -1.50684 0.789194 0
M  V30 296 O 31.1799 -1.63449 1.04872 0
M  V30 297 C 28.3099 -2.67752 2.21192 0
M  V30 298 C 27.2639 -2.63878 3.36975 0
M  V30 299 C 26.5899 -4.03236 3.51147 0
M  V30 300 C 27.8899 -2.21682 4.72921 0
M  V30 301 H 29.5839 -1.01351 2.81724 0
M  V30 302 H 27.1299 -0.486105 1.35547 0
M  V30 303 H 29.0829 -3.42365 2.45691 0
M  V30 304 H 27.8069 -3.0012 1.28824 0
M  V30 305 H 26.4659 -1.91722 3.12471 0
M  V30 306 H 26.1139 -4.32854 2.56216 0
M  V30 307 H 25.8139 -4.01535 4.29003 0
M  V30 308 H 27.3379 -4.79563 3.77957 0
M  V30 309 H 28.7519 -2.86023 4.96854 0
M  V30 310 H 27.1489 -2.3111 5.53812 0
M  V30 311 H 28.2189 -1.16833 4.70615 0
M  V30 312 N 29.562 -1.4872 -0.521534 0
M  V30 313 C 30.472 -1.66569 -1.65203 0
M  V30 314 C 31.488 -0.548197 -1.65139 0
M  V30 315 O 32.664 -0.820339 -1.83936 0
M  V30 316 C 29.729 -1.70917 -3.01642 0
M  V30 317 C 28.79 -2.94356 -3.12495 0
M  V30 318 C 28.023 -2.98487 -4.42426 0
M  V30 319 O 28.246 -2.10786 -5.30024 0
M  V30 320 O 27.18 -3.90746 -4.57822 0
M  V30 321 H 31.006 -2.62298 -1.5308 0
M  V30 322 H 28.591 -1.3222 -0.695565 0
M  V30 323 H 30.473 -1.7625 -3.82771 0
M  V30 324 H 29.148 -0.783633 -3.14071 0
M  V30 325 H 28.055 -2.94552 -2.3063 0
M  V30 326 H 29.388 -3.86322 -3.04986 0
M  V30 327 N 31.0401 0.771051 -1.3745 0
M  V30 328 C 32.2881 1.52661 -1.32435 0
M  V30 329 C 32.6091 1.9479 0.0905024 0
M  V30 330 O 31.8791 1.66348 1.03466 0
M  V30 331 H 30.4591 0.566218 -0.487244 0
M  V30 332 H 33.1211 0.917636 -1.71946 0
M  V30 333 H 32.2171 2.42568 -1.96385 0
M  V30 334 N 32.5182 1.22032 0.997298 0
M  V30 335 C 33.4482 1.01065 2.10495 0
M  V30 336 C 34.4292 -0.0669542 1.69968 0
M  V30 337 O 35.6142 0.0943987 1.9397 0
M  V30 338 C 32.7442 0.582874 3.42374 0
M  V30 339 C 31.6982 1.60592 3.96729 0
M  V30 340 C 31.0242 1.03412 5.24605 0
M  V30 341 C 32.3242 2.99478 4.27914 0
M  V30 342 H 34.0182 1.93708 2.28292 0
M  V30 343 H 31.5642 0.932761 1.09707 0
M  V30 344 H 33.5172 0.423332 4.19268 0
M  V30 345 H 32.2412 -0.379213 3.24391 0
M  V30 346 H 30.9002 1.75316 3.21963 0
M  V30 347 H 30.5482 0.063518 5.0296 0
M  V30 348 H 30.2482 1.71754 5.61938 0
M  V30 349 H 31.7722 0.886066 6.04137 0
M  V30 350 H 33.1862 2.88153 4.95622 0
M  V30 351 H 31.5832 3.64903 4.76409 0
M  V30 352 H 32.6532 3.49742 3.3587 0
M  V30 353 N 33.9963 -1.19345 1.0293 0
M  V30 354 C 35.2213 -1.93538 0.745511 0
M  V30 355 C 35.6463 -1.75007 -0.689511 0
M  V30 356 O 35.0043 -1.05265 -1.47611 0
M  V30 357 C 35.0523 -3.43336 1.10239 0
M  V30 358 O 34.1563 -4.11806 0.221289 0
M  V30 359 H 33.4973 -0.604193 0.275404 0
M  V30 360 H 36.0273 -1.5141 1.37609 0
M  V30 361 H 36.0373 -3.94004 1.05947 0
M  V30 362 H 34.7123 -3.56146 2.14786 0
M  V30 363 H 33.2893 -3.715 0.322842 0
M  V30 364 N 35.4744 -0.807222 -1.35358 0
M  V30 365 C 36.7204 -0.397594 -1.99476 0
M  V30 366 C 37.0754 1.02405 -1.62883 0
M  V30 367 O 36.3684 1.70077 -0.882282 0
M  V30 368 C 36.5624 -0.519036 -3.53611 0
M  V30 369 C 36.3914 -1.95094 -4.05177 0
M  V30 370 C 35.1614 -2.57945 -4.34503 0
M  V30 371 C 37.3594 -2.91558 -4.23673 0
M  V30 372 N 35.3414 -3.92539 -4.72003 0
M  V30 373 C 36.7124 -4.11024 -4.64176 0
M  V30 374 C 38.7674 -2.88381 -4.05883 0
M  V30 375 C 37.4704 -5.27745 -4.88751 0
M  V30 376 C 39.4964 -4.04306 -4.31614 0
M  V30 377 C 38.8584 -5.22519 -4.72391 0
M  V30 378 H 34.9574 -0.193274 -0.75774 0
M  V30 379 H 37.5414 -1.0486 -1.6405 0
M  V30 380 H 35.7124 0.101979 -3.88266 0
M  V30 381 H 37.4444 -0.0839321 -4.04613 0
M  V30 382 H 34.1994 -2.09295 -4.24844 0
M  V30 383 H 34.6234 -4.61836 -4.95011 0
M  V30 384 H 39.2654 -1.98137 -3.73499 0
M  V30 385 H 36.9834 -6.1856 -5.20008 0
M  V30 386 H 40.5694 -4.03229 -4.19402 0
M  V30 387 H 39.4494 -6.1073 -4.91913 0
M  V30 388 N 36.9525 1.47285 -0.560781 0
M  V30 389 C 38.1985 2.02764 -0.0381184 0
M  V30 390 C 38.5315 1.43384 1.30976 0
M  V30 391 O 37.8065 0.590733 1.85312 0
M  V30 392 C 38.0895 3.60064 0.0511427 0
M  V30 393 C 37.9425 4.2987 -1.32408 0
M  V30 394 C 39.2615 4.33439 0.762795 0
M  V30 395 H 36.3805 0.736841 -0.0153264 0
M  V30 396 H 39.0225 1.75675 -0.723759 0
M  V30 397 H 37.1725 3.83274 0.635065 0
M  V30 398 H 38.8445 4.17989 -1.95148 0
M  V30 399 H 37.0875 3.90085 -1.8978 0
M  V30 400 H 37.7585 5.38478 -1.21431 0
M  V30 401 H 40.2345 4.15243 0.266965 0
M  V30 402 H 39.1105 5.43124 0.794221 0
M  V30 403 H 39.3715 4.02915 1.81966 0
M  V30 404 N 38.4306 0.297415 1.54768 0
M  V30 405 C 39.7076 -0.365847 1.92148 0
M  V30 406 C 40.0876 -1.71975 1.22424 0
M  V30 407 O 39.4356 -2.25666 0.358739 0
M  V30 408 C 39.6456 -0.484056 3.45627 0
M  V30 409 C 40.9936 -0.756594 4.17805 0
M  V30 410 O 42.0176 -0.568007 3.51642 0
M  V30 411 O 40.8766 -1.11863 5.34929 0
M  V30 412 H 37.9706 -0.203919 0.801465 0
M  V30 413 H 40.5166 0.34521 1.66152 0
M  V30 414 H 39.2886 0.467865 3.88493 0
M  V30 415 H 38.9116 -1.24372 3.77647 0
M  V30 416 N 39.9087 -1.5758 0.0250728 0
M  V30 417 C 41.1387 -1.95646 -0.663783 0
M  V30 418 C 41.5467 -0.899935 -1.66427 0
M  V30 419 O 40.8897 0.127191 -1.83259 0
M  V30 420 C 40.9517 -3.29835 -1.43 0
M  V30 421 C 40.6157 -4.53197 -0.588305 0
M  V30 422 C 41.6127 -5.19726 0.13469 0
M  V30 423 C 39.2977 -4.99529 -0.526897 0
M  V30 424 C 41.2917 -6.30902 0.90781 0
M  V30 425 C 38.9787 -6.10589 0.24993 0
M  V30 426 C 39.9767 -6.76134 0.965994 0
M  V30 427 O 39.6647 -7.85062 1.7301 0
M  V30 428 H 39.3967 -0.649282 -0.188174 0
M  V30 429 H 41.9507 -2.05245 0.0799006 0
M  V30 430 H 40.1807 -3.16716 -2.21873 0
M  V30 431 H 41.8697 -3.52833 -2.00658 0
M  V30 432 H 42.6357 -4.84904 0.0965562 0
M  V30 433 H 38.5147 -4.48319 -1.07381 0
M  V30 434 H 42.0587 -6.81995 1.46724 0
M  V30 435 H 37.9557 -6.44849 0.289795 0
M  V30 436 H 38.7237 -8.01708 1.64944 0
M  V30 437 N 41.3868 0.248026 -1.55636 0
M  V30 438 C 42.6348 0.974295 -1.77065 0
M  V30 439 C 42.9558 1.85897 -0.588849 0
M  V30 440 O 42.2258 1.91868 0.395407 0
M  V30 441 H 40.8058 0.362733 -0.653019 0
M  V30 442 H 43.4678 0.266244 -1.93073 0
M  V30 443 H 42.5638 1.59667 -2.68166 0
M  V30 444 N 42.8649 1.48995 0.513639 0
M  V30 445 C 43.7749 1.67443 1.64317 0
M  V30 446 C 44.7909 0.556947 1.64846 0
M  V30 447 O 45.9669 0.830082 1.83498 0
M  V30 448 C 43.0319 1.72515 3.00732 0
M  V30 449 C 42.0929 2.96009 3.1093 0
M  V30 450 C 41.3259 3.00829 4.40837 0
M  V30 451 O 41.5489 2.13594 5.28898 0
M  V30 452 O 40.4829 3.93168 4.55744 0
M  V30 453 H 44.3089 2.63106 1.51687 0
M  V30 454 H 41.8939 1.32588 0.688543 0
M  V30 455 H 43.7759 1.78277 3.81831 0
M  V30 456 H 42.4509 0.800278 3.13651 0
M  V30 457 H 41.3579 2.9577 2.29065 0
M  V30 458 H 42.6909 3.87934 3.02933 0
M  V30 459 N 44.343 -0.763751 1.37857 0
M  V30 460 C 45.759 -1.06542 1.18832 0
M  V30 461 C 45.959 -2.01478 0.0299722 0
M  V30 462 O 45.015 -2.4458 -0.627447 0
M  V30 463 C 46.328 -1.65525 2.51042 0
M  V30 464 C 47.876 -1.77745 2.57635 0
M  V30 465 C 48.351 -2.4014 3.89996 0
M  V30 466 N 49.842 -2.47582 3.91481 0
M  V30 467 C 50.577 -2.96732 4.9065 0
M  V30 468 N 50.073 -3.45993 6.00217 0
M  V30 469 N 51.866 -2.95679 4.78048 0
M  V30 470 H 44.017 -0.133556 2.1198 0
M  V30 471 H 46.28 -0.121879 0.940133 0
M  V30 472 H 45.986 -1.03236 3.36207 0
M  V30 473 H 45.86 -2.64719 2.68707 0
M  V30 474 H 48.247 -2.39164 1.72872 0
M  V30 475 H 48.328 -0.772836 2.43846 0
M  V30 476 H 47.972 -1.79358 4.75177 0
M  V30 477 H 47.902 -3.41223 4.01092 0
M  V30 478 H 50.393 -2.1273 3.12337 0
M  V30 479 H 50.706 -3.81922 6.7183 0
M  V30 480 H 49.051 -3.44077 6.03851 0
M  V30 481 H 52.242 -2.56499 3.91568 0
M  V30 482 H 52.415 -3.33672 5.55488 0
M  V30 483 N 45.8211 -1.22559 -0.990812 0
M  V30 484 C 46.7841 -0.998863 -2.0629 0
M  V30 485 C 47.7841 0.0354834 -1.60761 0
M  V30 486 O 48.9741 -0.203231 -1.7301 0
M  V30 487 C 46.1061 -0.509203 -3.37076 0
M  V30 488 H 47.2991 -1.95014 -2.27837 0
M  V30 489 H 44.8521 -1.04456 -1.16269 0
M  V30 490 H 45.5871 0.446335 -3.21214 0
M  V30 491 H 45.3721 -1.25547 -3.71457 0
M  V30 492 H 46.8621 -0.370888 -4.1595 0
M  V30 493 N 47.2992 1.18797 -1.03562 0
M  V30 494 C 48.2092 2.25913 -0.632505 0
M  V30 495 C 49.2252 1.70668 0.338882 0
M  V30 496 O 50.4012 2.00453 0.195076 0
M  V30 497 C 47.4662 3.467 0.00350942 0
M  V30 498 C 46.5272 4.17098 -1.01624 0
M  V30 499 C 45.7602 5.32119 -0.410478 0
M  V30 500 O 45.9832 5.64976 0.784725 0
M  V30 501 O 44.9172 5.9107 -1.13667 0
M  V30 502 H 48.7432 2.62648 -1.52478 0
M  V30 503 H 46.3282 1.25781 -0.806195 0
M  V30 504 H 48.2102 4.19878 0.35781 0
M  V30 505 H 46.8852 3.11798 0.869686 0
M  V30 506 H 45.7922 3.4601 -1.42224 0
M  V30 507 H 47.1252 4.55987 -1.85301 0
M  V30 508 N 48.7773 0.814389 1.34928 0
M  V30 509 C 49.7073 0.244827 2.32213 0
M  V30 510 C 50.6883 -0.634024 1.57842 0
M  V30 511 O 51.8733 -0.562676 1.8587 0
M  V30 512 C 49.0033 -0.601106 3.42058 0
M  V30 513 C 47.9573 0.179896 4.27622 0
M  V30 514 C 47.2833 -0.788237 5.28858 0
M  V30 515 C 48.5833 1.38329 5.03649 0
M  V30 516 H 50.2773 1.05763 2.80097 0
M  V30 517 H 47.8233 0.510029 1.34665 0
M  V30 518 H 49.7763 -1.00968 4.09125 0
M  V30 519 H 48.5003 -1.44688 2.92802 0
M  V30 520 H 47.1593 0.569739 3.62146 0
M  V30 521 H 46.8073 -1.62973 4.75866 0
M  V30 522 H 46.5073 -0.269942 5.8698 0
M  V30 523 H 48.0313 -1.19485 5.98795 0
M  V30 524 H 49.4453 1.04918 5.63618 0
M  V30 525 H 47.8423 1.83662 5.71304 0
M  V30 526 H 48.9123 2.16592 4.33839 0
M  V30 527 N 50.2554 -1.46986 0.568584 0
M  V30 528 C 51.5324 -1.95592 -0.0174074 0
M  V30 529 C 51.9124 -1.51124 -1.47393 0
M  V30 530 O 51.2604 -0.755329 -2.15655 0
M  V30 531 C 51.4704 -3.48719 0.139913 0
M  V30 532 C 52.8184 -4.246 0.000426376 0
M  V30 533 O 53.8424 -3.56135 0.0680316 0
M  V30 534 O 52.7014 -5.46302 -0.146988 0
M  V30 535 H 49.7954 -0.82498 -0.0577599 0
M  V30 536 H 52.3414 -1.57335 0.635909 0
M  V30 537 H 51.1134 -3.73927 1.15301 0
M  V30 538 H 50.7364 -3.93771 -0.550491 0
M  V30 539 N 51.7335 -0.305618 -1.54608 0
M  V30 540 C 53.0105 0.355652 -1.92339 0
M  V30 541 C 53.3905 1.71324 -1.23335 0
M  V30 542 O 52.7385 2.25473 -0.370702 0
M  V30 543 C 52.9485 0.46572 -3.45879 0
M  V30 544 C 54.2965 0.734426 -4.182 0
M  V30 545 O 55.3205 0.54935 -3.51938 0
M  V30 546 O 54.1795 1.09024 -5.35515 0
M  V30 547 H 51.2735 0.199666 -0.802535 0
M  V30 548 H 53.8195 -0.354017 -1.65966 0
M  V30 549 H 52.5915 -0.488461 -3.88239 0
M  V30 550 H 52.2145 1.22367 -3.78301 0
M  V30 551 N 53.2116 1.57565 -0.0334293 0
M  V30 552 C 54.4366 1.96689 0.657895 0
M  V30 553 C 54.8616 0.910057 1.64619 0
M  V30 554 O 54.2196 -0.128598 1.80843 0
M  V30 555 C 54.2676 3.34905 1.33683 0
M  V30 556 O 53.3716 3.31574 2.45219 0
M  V30 557 H 52.7126 0.641205 0.172489 0
M  V30 558 H 55.2426 2.04372 -0.0965621 0
M  V30 559 H 55.2526 3.71234 1.69262 0
M  V30 560 H 53.9276 4.11366 0.612411 0
M  V30 561 H 52.5046 3.06968 2.11719 0
M  V30 562 N 54.6897 -0.239769 1.55765 0
M  V30 563 C 55.9667 -0.990056 1.68693 0
M  V30 564 C 56.3467 -2.03107 0.5754 0
M  V30 565 O 55.6947 -2.24604 -0.42017 0
M  V30 566 C 55.9047 -1.61696 3.09282 0
M  V30 567 C 57.2527 -2.11613 3.6811 0
M  V30 568 O 58.2767 -1.71624 3.12127 0
M  V30 569 O 57.1357 -2.85057 4.66267 0
M  V30 570 H 54.2297 -0.461299 0.686391 0
M  V30 571 H 56.7757 -0.232991 1.68093 0
M  V30 572 H 55.5477 -0.864357 3.81634 0
M  V30 573 H 55.1707 -2.44005 3.13923 0
M  V30 574 N 56.1678 -1.49265 -0.50573 0
M  V30 575 C 57.4158 -1.582 -1.25766 0
M  V30 576 C 57.7368 -0.268482 -1.93143 0
M  V30 577 O 57.0068 0.711833 -1.8251 0
M  V30 578 H 55.5868 -0.582873 -0.467191 0
M  V30 579 H 58.2488 -1.85865 -0.586525 0
M  V30 580 H 57.3448 -2.37563 -2.02412 0
M  V30 581 N 57.6459 0.756429 -1.3826 0
M  V30 582 C 58.5959 1.86069 -1.31766 0
M  V30 583 C 59.5799 1.59621 -0.202483 0
M  V30 584 O 60.7719 1.7149 -0.438211 0
M  V30 585 C 57.9009 3.23742 -1.1422 0
M  V30 586 C 56.9869 3.56091 -2.30348 0
M  V30 587 N 57.3779 3.59517 -3.55783 0
M  V30 588 C 55.6759 3.86341 -2.22838 0
M  V30 589 C 56.3769 3.89052 -4.32451 0
M  V30 590 N 55.3529 4.05736 -3.61772 0
M  V30 591 H 59.1549 1.86992 -2.26741 0
M  V30 592 H 56.6689 0.953643 -1.31451 0
M  V30 593 H 58.6659 4.02761 -1.07652 0
M  V30 594 H 57.3259 3.24073 -0.201763 0
M  V30 595 H 58.3369 3.41347 -3.89491 0
M  V30 596 H 55.0139 3.94404 -1.36937 0
M  V30 597 H 56.4039 3.98349 -5.4108 0
M  V30 598 N 59.124 1.23083 0.984299 0
M  V30 599 C 60.372 1.05848 1.72165 0
M  V30 600 C 60.693 -0.406049 1.90726 0
M  V30 601 O 59.963 -1.29139 1.47309 0
M  V30 602 H 58.543 0.388685 0.637913 0
M  V30 603 H 61.205 1.54736 1.18503 0
M  V30 604 H 60.301 1.54327 2.71274 0
M  V30 605 N 60.6021 -1.18246 1.0419 0
M  V30 606 C 61.5501 -2.23968 0.627792 0
M  V30 607 C 62.5441 -1.65828 -0.346019 0
M  V30 608 O 63.7501 -1.78733 -0.213175 0
M  V30 609 H 60.1251 -0.728939 0.184802 0
M  V30 610 H 62.0961 -2.56202 1.52981 0
M  V30 611 C 60.8451 -3.47699 0.00796591 0
M  V30 612 H 60.1681 -3.92734 0.748347 0
M  V30 613 H 61.6081 -4.23294 -0.24455 0
M  V30 614 C 60.0671 -3.13153 -1.24246 0
M  V30 615 O 60.5971 -3.27003 -2.33307 0
M  V30 616 N 58.8031 -2.67467 -1.13622 0
M  V30 617 H 58.3501 -2.56396 -0.248734 0
M  V30 618 H 58.3081 -2.44724 -1.97377 0
M  V30 619 N 62.0802 -0.821533 -1.34494 0
M  V30 620 C 63.0302 -0.214793 -2.26986 0
M  V30 621 C 64.0142 0.620125 -1.4847 0
M  V30 622 O 65.2062 0.474933 -1.70509 0
M  V30 623 C 62.3352 0.623566 -3.37589 0
M  V30 624 C 61.4212 -0.221904 -4.23519 0
M  V30 625 N 61.8122 -1.29223 -4.89014 0
M  V30 626 C 60.1102 -0.00600922 -4.46 0
M  V30 627 C 60.8112 -1.80965 -5.52835 0
M  V30 628 N 59.7872 -1.11376 -5.32068 0
M  V30 629 H 63.5892 -1.03354 -2.75128 0
M  V30 630 H 61.1032 -0.6642 -1.48196 0
M  V30 631 H 63.1002 1.0744 -4.02818 0
M  V30 632 H 61.7602 1.44049 -2.90998 0
M  V30 633 H 62.7712 -1.67502 -4.90065 0
M  V30 634 H 59.4482 0.77886 -4.10171 0
M  V30 635 H 60.8382 -2.70502 -6.15043 0
M  V30 636 N 63.5583 1.46682 -0.576371 0
M  V30 637 C 64.9743 1.57822 -0.237562 0
M  V30 638 C 65.1743 1.57237 1.26011 0
M  V30 639 O 64.2303 1.48596 2.04146 0
M  V30 640 C 65.5433 2.87499 -0.881168 0
M  V30 641 C 67.0913 3.01119 -0.85417 0
M  V30 642 C 67.5663 4.33524 -1.4772 0
M  V30 643 N 69.0573 4.40207 -1.44125 0
M  V30 644 C 69.7923 5.4126 -1.89276 0
M  V30 645 N 69.2883 6.49021 -2.42371 0
M  V30 646 N 71.0813 5.32422 -1.80231 0
M  V30 647 H 63.2323 1.45306 -1.54919 0
M  V30 648 H 65.4953 0.692733 -0.647167 0
M  V30 649 H 65.2013 2.9372 -1.93447 0
M  V30 650 H 65.0753 3.75224 -0.385592 0
M  V30 651 H 67.4623 2.94485 0.190491 0
M  V30 652 H 67.5433 2.14887 -1.3877 0
M  V30 653 H 67.1873 4.40916 -2.52103 0
M  V30 654 H 67.1173 5.1852 -0.918947 0
M  V30 655 H 69.6083 3.62931 -1.05307 0
M  V30 656 H 69.9213 7.2233 -2.74698 0
M  V30 657 H 68.2663 6.49858 -2.46393 0
M  V30 658 H 71.4573 4.47137 -1.38514 0
M  V30 659 H 71.6303 6.11034 -2.15735 0
M  V30 660 N 65.0364 0.313813 1.54444 0
M  V30 661 C 65.9464 -0.565714 2.27677 0
M  V30 662 C 66.9624 -1.13754 1.31666 0
M  V30 663 O 68.1384 -1.15959 1.64668 0
M  V30 664 C 65.2034 -1.71528 3.01296 0
M  V30 665 C 64.2644 -1.17624 4.12872 0
M  V30 666 C 63.4974 -2.27102 4.8297 0
M  V30 667 O 63.7204 -3.47256 4.52514 0
M  V30 668 O 62.6544 -1.9307 5.70094 0
M  V30 669 H 66.4804 0.0287296 3.03686 0
M  V30 670 H 64.0654 0.0798312 1.49187 0
M  V30 671 H 65.9474 -2.38476 3.4743 0
M  V30 672 H 64.6224 -2.29608 2.2817 0
M  V30 673 H 63.5294 -0.472124 3.71109 0
M  V30 674 H 64.8624 -0.640695 4.88012 0
M  V30 675 N 66.5145 -1.57545 0.0417849 0
M  V30 676 C 67.7395 -1.97035 -0.647455 0
M  V30 677 C 68.1645 -0.918775 -1.64135 0
M  V30 678 O 67.5225 0.119006 -1.80909 0
M  V30 679 C 67.5705 -3.35609 -1.31905 0
M  V30 680 O 66.6745 -3.3287 -2.43457 0
M  V30 681 H 66.0155 -0.64211 -0.169086 0
M  V30 682 H 68.5455 -2.04318 0.107399 0
M  V30 683 H 68.5555 -3.72126 -1.67291 0
M  V30 684 H 67.2305 -4.11685 -0.590586 0
M  V30 685 H 65.8075 -3.08087 -2.10088 0
M  V30 686 N 67.9926 0.231505 -1.5589 0
M  V30 687 C 69.2176 0.978689 -1.82856 0
M  V30 688 C 69.6426 1.77559 -0.620846 0
M  V30 689 O 69.0006 1.76119 0.430305 0
M  V30 690 C 69.0486 1.87997 -3.07716 0
M  V30 691 O 68.1526 2.97393 -2.85712 0
M  V30 692 H 67.4936 0.277663 -0.603158 0
M  V30 693 H 70.0236 0.24783 -2.03093 0
M  V30 694 H 70.0336 2.2917 -3.37558 0
M  V30 695 H 68.7086 1.29417 -3.95252 0
M  V30 696 H 67.2856 2.60238 -2.67078 0
M  V30 697 N 69.4707 1.49531 0.497807 0
M  V30 698 C 70.8817 1.52344 1.07927 0
M  V30 699 C 71.2327 0.311469 1.93712 0
M  V30 700 O 70.3577 -0.578405 2.08527 0
M  V30 701 C 70.9527 2.76062 1.96405 0
M  V30 702 C 69.5117 2.81643 2.49709 0
M  V30 703 C 68.6587 2.46299 1.27404 0
M  V30 704 H 71.6097 1.56182 0.281576 0
M  V30 705 H 71.6307 2.56405 2.81135 0
M  V30 706 H 71.1427 3.64254 1.33943 0
M  V30 707 H 69.2437 1.97739 3.15801 0
M  V30 708 H 69.3567 3.83891 2.86643 0
M  V30 709 H 67.7207 1.98148 1.60029 0
M  V30 710 H 68.5037 3.36769 0.66645 0
M  V30 711 N 70.9488 -0.749086 1.3866 0
M  V30 712 C 72.1958 -1.50833 1.35114 0
M  V30 713 C 72.5238 -1.94415 -0.0574049 0
M  V30 714 O 71.7788 -1.66065 -1.03541 0
M  V30 715 C 72.0778 -2.7712 2.25697 0
M  V30 716 C 71.7438 -2.52477 3.73585 0
M  V30 717 C 70.4058 -2.45466 4.13884 0
M  V30 718 C 72.7578 -2.31066 4.67181 0
M  V30 719 C 70.0858 -2.15064 5.45861 0
M  V30 720 C 72.4378 -2.02183 5.9942 0
M  V30 721 C 71.1018 -1.93631 6.38798 0
M  V30 722 H 70.3718 -0.551936 0.494416 0
M  V30 723 H 73.0188 -0.860979 1.71054 0
M  V30 724 H 71.3238 -3.46528 1.82827 0
M  V30 725 H 73.0208 -3.35096 2.20254 0
M  V30 726 H 69.6108 -2.58807 3.41638 0
M  V30 727 H 73.7948 -2.35459 4.3689 0
M  V30 728 H 69.0508 -2.06954 5.75308 0
M  V30 729 H 73.2248 -1.8462 6.71482 0
M  V30 730 H 70.8518 -1.69839 7.40985 0
M  V30 731 N 72.4269 -1.23603 -0.977757 0
M  V30 732 C 73.3569 -1.04401 -2.0886 0
M  V30 733 C 74.3379 0.0399052 -1.70053 0
M  V30 734 O 75.5229 -0.125246 -1.93796 0
M  V30 735 C 72.6529 -0.637269 -3.41403 0
M  V30 736 C 71.6069 -1.66883 -3.94124 0
M  V30 737 C 70.9329 -1.11745 -5.22893 0
M  V30 738 C 72.2329 -3.06247 -4.23096 0
M  V30 739 H 73.9269 -1.97316 -2.25182 0
M  V30 740 H 71.4729 -0.950096 -1.08209 0
M  V30 741 H 73.4259 -0.48998 -4.18542 0
M  V30 742 H 72.1499 0.327557 -3.24953 0
M  V30 743 H 70.8089 -1.80416 -3.19133 0
M  V30 744 H 70.4569 -0.143527 -5.02795 0
M  V30 745 H 70.1569 -1.80672 -5.59134 0
M  V30 746 H 71.6809 -0.982067 -6.02651 0
M  V30 747 H 73.0949 -2.96001 -4.90975 0
M  V30 748 H 71.4919 -3.72436 -4.70544 0
M  V30 749 H 72.5619 -3.55041 -3.30263 0
M  V30 750 N 73.905 1.17692 -1.04816 0
M  V30 751 C 75.13 1.92327 -0.776207 0
M  V30 752 C 75.555 1.76082 0.661581 0
M  V30 753 O 74.913 1.076 1.45917 0
M  V30 754 C 74.961 3.41539 -1.15687 0
M  V30 755 O 74.065 4.11402 -0.286775 0
M  V30 756 H 73.406 0.599735 -0.284981 0
M  V30 757 H 75.936 1.49201 -1.4 0
M  V30 758 H 75.946 3.92269 -1.12202 0
M  V30 759 H 74.621 3.52684 -2.20425 0
M  V30 760 H 73.198 3.70939 -0.381903 0
M  V30 761 N 75.3831 0.828654 1.34056 0
M  V30 762 C 76.7941 0.477534 1.8049 0
M  V30 763 C 77.1451 -1.00258 1.6865 0
M  V30 764 O 76.2701 -1.78057 1.22982 0
M  V30 765 C 76.8651 0.860018 3.27703 0
M  V30 766 C 75.4241 0.561185 3.72193 0
M  V30 767 C 74.5711 1.07385 2.55663 0
M  V30 768 H 77.5221 1.0183 1.21722 0
M  V30 769 H 77.5431 0.166038 3.80138 0
M  V30 770 H 77.0551 1.93731 3.36288 0
M  V30 771 H 75.1561 -0.506465 3.69142 0
M  V30 772 H 75.2691 1.10926 4.66082 0
M  V30 773 H 73.6331 0.495149 2.49841 0
M  V30 774 H 74.4161 2.15771 2.67016 0
M  V30 775 N 76.8612 -1.46375 0.584142 0
M  V30 776 C 77.7912 -2.33103 -0.136037 0
M  V30 777 C 78.7722 -1.45431 -0.882255 0
M  V30 778 O 79.9572 -1.74246 -0.857434 0
M  V30 779 C 77.0872 -3.27731 -1.14933 0
M  V30 780 C 76.0412 -4.24855 -0.517862 0
M  V30 781 C 75.3672 -5.09001 -1.63773 0
M  V30 782 C 76.6672 -5.19439 0.545886 0
M  V30 783 H 78.3612 -2.93568 0.588086 0
M  V30 784 H 75.9072 -1.41166 0.284259 0
M  V30 785 H 77.8602 -3.87261 -1.66153 0
M  V30 786 H 76.5842 -2.65377 -1.90375 0
M  V30 787 H 75.2432 -3.6659 -0.0267361 0
M  V30 788 H 74.8912 -4.43031 -2.38185 0
M  V30 789 H 74.5912 -5.74777 -1.22085 0
M  V30 790 H 76.1152 -5.71396 -2.15266 0
M  V30 791 H 77.5292 -5.73177 0.118704 0
M  V30 792 H 75.9262 -5.93566 0.88317 0
M  V30 793 H 76.9962 -4.63285 1.43162 0
M  V30 794 N 78.3393 -0.321999 -1.54275 0
M  V30 795 C 79.2493 0.553631 -2.27974 0
M  V30 796 C 80.2653 1.13054 -1.32268 0
M  V30 797 O 81.4413 1.15084 -1.6528 0
M  V30 798 C 78.5063 1.69927 -3.02201 0
M  V30 799 C 77.5673 1.15433 -4.1349 0
M  V30 800 C 76.8003 2.24537 -4.84168 0
M  V30 801 O 77.0233 3.44852 -4.5435 0
M  V30 802 O 75.9573 1.90044 -5.7111 0
M  V30 803 H 79.7833 -0.0448345 -3.03667 0
M  V30 804 H 77.3683 -0.0877418 -1.49142 0
M  V30 805 H 79.2503 2.3663 -3.48689 0
M  V30 806 H 77.9253 2.28395 -2.29385 0
M  V30 807 H 76.8323 0.452436 -3.71354 0
M  V30 808 H 78.1653 0.614805 -4.88345 0
M  V30 809 N 79.8174 1.5752 -0.0501392 0
M  V30 810 C 80.7804 2.1037 0.909786 0
M  V30 811 C 81.7804 1.02308 1.24056 0
M  V30 812 O 82.9704 1.28385 1.17741 0
M  V30 813 C 80.1024 2.58708 2.21998 0
M  V30 814 H 81.2954 2.96479 0.451665 0
M  V30 815 H 78.8484 1.55038 0.198248 0
M  V30 816 H 79.5834 1.75989 2.72394 0
M  V30 817 H 79.3684 3.37675 1.99295 0
M  V30 818 H 80.8584 2.99747 2.9076 0
M  V30 819 N 81.2955 -0.223234 1.56011 0
M  V30 820 C 82.5205 -0.968978 1.83373 0
M  V30 821 C 82.9455 -1.77227 0.630254 0
M  V30 822 O 82.3035 -1.76345 -0.420959 0
M  V30 823 C 82.3515 -1.86363 3.08709 0
M  V30 824 O 81.4555 -2.95873 2.87285 0
M  V30 825 H 80.7965 -0.274461 0.604622 0
M  V30 826 H 83.3265 -0.237056 2.03222 0
M  V30 827 H 83.3365 -2.27376 3.38768 0
M  V30 828 H 82.0115 -1.27319 3.95933 0
M  V30 829 H 80.5885 -2.58818 2.68454 0
M  V30 830 N 82.7736 -1.49793 -0.48987 0
M  V30 831 C 84.1896 -1.36803 -0.822022 0
M  V30 832 C 84.3896 -0.409652 -1.97292 0
M  V30 833 O 83.4456 0.154614 -2.52026 0
M  V30 834 C 84.7586 -2.77768 -1.15175 0
M  V30 835 C 86.3066 -2.86549 -1.25931 0
M  V30 836 C 86.7816 -4.28306 -1.62228 0
M  V30 837 N 88.2726 -4.31169 -1.69256 0
M  V30 838 C 89.0076 -5.37832 -1.98807 0
M  V30 839 N 88.5036 -6.54726 -2.26507 0
M  V30 840 N 90.2966 -5.25258 -2.00152 0
M  V30 841 H 82.4476 -2.10691 0.268881 0
M  V30 842 H 84.7106 -0.946241 0.057728 0
M  V30 843 H 84.4166 -3.49648 -0.379335 0
M  V30 844 H 84.2906 -3.13836 -2.09253 0
M  V30 845 H 86.6776 -2.14899 -2.02243 0
M  V30 846 H 86.7586 -2.54049 -0.298776 0
M  V30 847 H 86.4026 -5.00486 -0.864622 0
M  V30 848 H 86.3326 -4.58279 -2.594 0
M  V30 849 H 88.8236 -3.4687 -1.49965 0
M  V30 850 H 89.1366 -7.31833 -2.48276 0
M  V30 851 H 87.4816 -6.57933 -2.23939 0
M  V30 852 H 90.6726 -4.32938 -1.77996 0
M  V30 853 H 90.8456 -6.08476 -2.22848 0
M  V30 854 N 84.2517 0.741722 -1.39055 0
M  V30 855 C 85.4997 1.49818 -1.35643 0
M  V30 856 C 85.8207 1.94938 0.0491642 0
M  V30 857 O 85.0907 1.68505 0.999141 0
M  V30 858 H 83.6707 0.555755 -0.499144 0
M  V30 859 H 86.3327 0.880957 -1.73854 0
M  V30 860 H 85.4287 2.38348 -2.01486 0
M  V30 861 N 85.7298 1.2412 0.971189 0
M  V30 862 C 86.9788 1.07284 1.70801 0
M  V30 863 C 87.2918 -0.388902 1.91695 0
M  V30 864 O 88.4978 -0.677379 2.62914 0
M  V30 865 C 86.9538 1.87145 3.07416 0
M  V30 866 C 86.5618 3.37707 2.94377 0
M  V30 867 C 88.3058 1.78828 3.84995 0
M  V30 868 C 86.2128 4.09925 4.26281 0
M  V30 869 H 85.1428 0.397854 0.64049 0
M  V30 870 H 87.7938 1.4817 1.0825 0
M  V30 871 H 86.1758 1.39071 3.70777 0
M  V30 872 H 87.3498 3.93335 2.4005 0
M  V30 873 H 85.6648 3.46938 2.30267 0
M  V30 874 H 88.2618 2.30089 4.82662 0
M  V30 875 H 88.6048 0.75284 4.09436 0
M  V30 876 H 89.1378 2.24563 3.28354 0
M  V30 877 H 85.8768 5.13813 4.07033 0
M  V30 878 H 85.3968 3.59083 4.80437 0
M  V30 879 H 87.0758 4.1673 4.94919 0
M  V30 880 N 87.2079 -1.17134 1.05439 0
M  V30 881 C 88.4849 -1.83411 0.679699 0
M  V30 882 C 88.8649 -1.9368 -0.839726 0
M  V30 883 O 88.2129 -1.47325 -1.74664 0
M  V30 884 C 88.4229 -3.20918 1.37159 0
M  V30 885 C 89.7709 -3.96796 1.51123 0
M  V30 886 O 90.7949 -3.30406 1.3308 0
M  V30 887 O 89.6539 -5.15778 1.80651 0
M  V30 888 H 86.7479 -0.79154 0.239569 0
M  V30 889 H 89.2939 -1.24411 1.15413 0
M  V30 890 H 88.0659 -3.08428 2.40807 0
M  V30 891 H 87.6889 -3.87587 0.886674 0
M  V30 892 N 88.686 -0.835752 -1.33615 0
M  V30 893 C 89.916 -0.442701 -2.01801 0
M  V30 894 C 90.324 0.959807 -1.63047 0
M  V30 895 O 89.667 1.63468 -0.838088 0
M  V30 896 C 89.729 -0.480125 -3.56279 0
M  V30 897 C 89.393 -1.8382 -4.18401 0
M  V30 898 C 90.39 -2.80097 -4.37998 0
M  V30 899 C 88.075 -2.13019 -4.54894 0
M  V30 900 C 90.069 -4.03736 -4.9323 0
M  V30 901 C 87.756 -3.36916 -5.09834 0
M  V30 902 C 88.754 -4.32091 -5.28948 0
M  V30 903 O 88.442 -5.53797 -5.82721 0
M  V30 904 H 88.174 -0.17441 -0.653114 0
M  V30 905 H 90.728 -1.129 -1.71589 0
M  V30 906 H 88.958 0.262931 -3.85805 0
M  V30 907 H 90.647 -0.105335 -4.05763 0
M  V30 908 H 91.413 -2.58838 -4.10156 0
M  V30 909 H 87.292 -1.39733 -4.39313 0
M  V30 910 H 90.836 -4.78034 -5.08064 0
M  V30 911 H 86.733 -3.58033 -5.37106 0
M  V30 912 H 87.501 -5.55494 -6.0114 0
M  V30 913 N 90.1641 1.46063 -0.591896 0
M  V30 914 C 91.3941 2.06418 -0.0867676 0
M  V30 915 C 91.8021 1.43975 1.22751 0
M  V30 916 O 91.1451 0.542531 1.75506 0
M  V30 917 C 91.2071 3.59213 0.143725 0
M  V30 918 C 90.8711 4.439 -1.08635 0
M  V30 919 C 91.8681 4.79864 -2.00067 0
M  V30 920 C 89.5531 4.84896 -1.31077 0
M  V30 921 C 91.5471 5.55661 -3.12282 0
M  V30 922 C 89.2341 5.6045 -2.43596 0
M  V30 923 C 90.2321 5.95747 -3.34027 0
M  V30 924 O 89.9201 6.69772 -4.4459 0
M  V30 925 H 89.6521 0.673443 -0.0587447 0
M  V30 926 H 92.2061 1.88539 -0.814994 0
M  V30 927 H 90.4361 3.75433 0.926668 0
M  V30 928 H 92.1251 4.01463 0.5985 0
M  V30 929 H 92.8911 4.48763 -1.83947 0
M  V30 930 H 88.7701 4.56867 -0.61594 0
M  V30 931 H 92.3141 5.8313 -3.82891 0
M  V30 932 H 88.2111 5.90965 -2.59674 0
M  V30 933 H 88.9791 6.88207 -4.43073 0
M  V30 934 N 91.6422 0.330177 1.54103 0
M  V30 935 C 92.9192 -0.325007 1.92881 0
M  V30 936 C 93.2992 -1.6934 1.26045 0
M  V30 937 O 92.6472 -2.24855 0.406526 0
M  V30 938 C 92.8572 -0.410634 3.46576 0
M  V30 939 C 94.2052 -0.667801 4.19316 0
M  V30 940 O 95.2292 -0.49329 3.52768 0
M  V30 941 O 94.0882 -1.00491 5.37181 0
M  V30 942 H 91.1822 -0.186873 0.80561 0
M  V30 943 H 93.7282 0.380376 1.65382 0
M  V30 944 H 92.5002 0.550164 3.87413 0
M  V30 945 H 92.1232 -1.16333 3.802 0
M  V30 946 N 93.1203 -1.57491 0.0584922 0
M  V30 947 C 94.5363 -1.56792 -0.298091 0
M  V30 948 C 94.7363 -1.06679 -1.70944 0
M  V30 949 O 93.7923 -0.726672 -2.41818 0
M  V30 950 C 95.1053 -3.00461 -0.119879 0
M  V30 951 C 96.6533 -3.1242 -0.190428 0
M  V30 952 C 97.1283 -4.57982 -0.0406567 0
M  V30 953 N 98.6193 -4.63099 -0.0966958 0
M  V30 954 C 99.3543 -5.734 -0.00502943 0
M  V30 955 N 98.8503 -6.9266 0.139402 0
M  V30 956 N 100.643 -5.62067 -0.0611391 0
M  V30 957 H 92.7943 -1.88386 0.98105 0
M  V30 958 H 95.0573 -0.867865 0.381463 0
M  V30 959 H 94.7633 -3.41187 0.85349 0
M  V30 960 H 94.6373 -3.66843 -0.877833 0
M  V30 961 H 97.0243 -2.71589 -1.15427 0
M  V30 962 H 97.1053 -2.48702 0.598405 0
M  V30 963 H 96.7493 -4.995 0.919897 0
M  V30 964 H 96.6793 -5.19715 -0.848727 0
M  V30 965 H 99.1703 -3.77331 -0.207277 0
M  V30 966 H 99.4833 -7.72536 0.201855 0
M  V30 967 H 97.8283 -6.94781 0.174586 0
M  V30 968 H 101.019 -4.67782 -0.172583 0
M  V30 969 H 101.192 -6.47999 0.0137562 0
M  V30 970 N 94.5984 0.214957 -1.56127 0
M  V30 971 C 95.5464 1.28601 -1.93816 0
M  V30 972 C 96.5404 1.48175 -0.821016 0
M  V30 973 O 97.7464 1.49271 -1.0059 0
M  V30 974 H 94.1214 0.431302 -0.616022 0
M  V30 975 H 96.0924 0.940991 -2.83175 0
M  V30 976 C 94.8414 2.62779 -2.27689 0
M  V30 977 H 94.1644 2.48527 -3.13168 0
M  V30 978 H 95.6044 3.36517 -2.57939 0
M  V30 979 C 94.0634 3.18285 -1.10436 0
M  V30 980 O 94.5934 4.00002 -0.368945 0
M  V30 981 N 92.7994 2.7675 -0.886433 0
M  V30 982 H 92.3464 2.10404 -1.48619 0
M  V30 983 H 92.3044 3.14229 -0.103656 0
M  V30 984 N 96.0765 1.50051 0.48192 0
M  V30 985 C 97.0065 1.71046 1.58951 0
M  V30 986 C 97.9875 0.559288 1.60642 0
M  V30 987 O 99.1725 0.797243 1.77081 0
M  V30 988 C 96.3025 1.79462 2.97339 0
M  V30 989 C 95.2565 2.94558 3.10515 0
M  V30 990 C 94.5825 2.88105 4.50444 0
M  V30 991 C 95.8825 4.35227 2.88747 0
M  V30 992 H 97.5765 2.6378 1.41635 0
M  V30 993 H 95.1225 1.26936 0.679942 0
M  V30 994 H 97.0755 1.92734 3.74742 0
M  V30 995 H 95.7995 0.833412 3.15788 0
M  V30 996 H 94.4585 2.80918 2.35543 0
M  V30 997 H 94.1065 1.89853 4.65795 0
M  V30 998 H 93.8065 3.65366 4.60197 0
M  V30 999 H 95.3305 3.03412 5.29881 0
M  V30 1000 H 96.7445 4.49449 3.55905 0
M  V30 1001 H 95.1415 5.13856 3.09955 0
M  V30 1002 H 96.2115 4.48347 1.84696 0
M  V30 1003 N 97.5546 -0.734337 1.39446 0
M  V30 1004 C 98.5176 -1.83004 1.37994 0
M  V30 1005 C 99.5176 -1.58397 0.276938 0
M  V30 1006 O 100.708 -1.65785 0.534875 0
M  V30 1007 C 97.8396 -3.20802 1.1532 0
M  V30 1008 H 99.0326 -1.85694 2.35494 0
M  V30 1009 H 96.5856 -0.938059 1.25021 0
M  V30 1010 H 97.3206 -3.23772 0.185036 0
M  V30 1011 H 97.1056 -3.4006 1.95197 0
M  V30 1012 H 98.5956 -4.00862 1.17046 0
M  V30 1013 N 99.0327 -1.24633 -0.964593 0
M  V30 1014 C 99.9627 -1.06611 -2.07741 0
M  V30 1015 C 100.944 0.0218666 -1.70086 0
M  V30 1016 O 102.129 -0.145793 -1.93652 0
M  V30 1017 C 99.2587 -0.673444 -3.40708 0
M  V30 1018 C 98.2127 -1.71054 -3.92332 0
M  V30 1019 C 97.5387 -1.17285 -5.21678 0
M  V30 1020 C 98.8387 -3.10718 -4.19824 0
M  V30 1021 H 100.533 -1.99693 -2.23076 0
M  V30 1022 H 98.0787 -0.96152 -1.07195 0
M  V30 1023 H 100.032 -0.534345 -4.17998 0
M  V30 1024 H 98.7557 0.293073 -3.25282 0
M  V30 1025 H 97.4147 -1.83791 -3.17201 0
M  V30 1026 H 97.0627 -0.196847 -5.02615 0
M  V30 1027 H 96.7627 -1.86592 -5.57187 0
M  V30 1028 H 98.2867 -1.04593 -6.01575 0
M  V30 1029 H 99.7007 -3.01192 -4.87808 0
M  V30 1030 H 98.0977 -3.77406 -4.66567 0
M  V30 1031 H 99.1677 -3.58524 -3.26479 0
M  V30 1032 N 100.511 1.16574 -1.06058 0
M  V30 1033 C 101.758 1.87047 -0.775873 0
M  V30 1034 C 102.086 1.81562 0.697534 0
M  V30 1035 O 101.341 1.22445 1.52662 0
M  V30 1036 C 101.64 3.36195 -1.21275 0
M  V30 1037 C 101.306 3.6188 -2.68986 0
M  V30 1038 C 99.9678 3.68599 -3.09335 0
M  V30 1039 C 102.32 3.72648 -3.64394 0
M  V30 1040 C 99.6478 3.83584 -4.43937 0
M  V30 1041 C 102 3.89154 -4.98741 0
M  V30 1042 C 100.664 3.94114 -5.3873 0
M  V30 1043 H 99.9338 0.684452 -0.283912 0
M  V30 1044 H 102.581 1.37853 -1.32925 0
M  V30 1045 H 100.886 3.87505 -0.578528 0
M  V30 1046 H 102.583 3.89103 -0.969542 0
M  V30 1047 H 99.1728 3.57281 -2.36744 0
M  V30 1048 H 103.357 3.66769 -3.34356 0
M  V30 1049 H 98.6128 3.85677 -4.74409 0
M  V30 1050 H 102.787 3.96427 -5.72554 0
M  V30 1051 H 100.414 4.05478 -6.43033 0
M  V30 1052 N 101.989 0.842826 1.3317 0
M  V30 1053 C 102.899 0.281444 2.32906 0
M  V30 1054 C 103.915 -0.594587 1.63526 0
M  V30 1055 O 105.091 -0.49777 1.95152 0
M  V30 1056 C 102.156 -0.530929 3.42611 0
M  V30 1057 C 101.217 0.369843 4.27704 0
M  V30 1058 C 100.45 -0.403853 5.3217 0
M  V30 1059 O 100.673 -1.63513 5.46461 0
M  V30 1060 O 99.6069 0.224199 6.01482 0
M  V30 1061 H 103.433 1.10744 2.82789 0
M  V30 1062 H 101.018 0.60545 1.36582 0
M  V30 1063 H 102.9 -0.992437 4.09547 0
M  V30 1064 H 101.575 -1.33392 2.94938 0
M  V30 1065 H 100.482 0.879275 3.6362 0
M  V30 1066 H 101.815 1.13771 4.78871 0
M  V30 1067 N 103.467 -1.45747 0.599634 0
M  V30 1068 C 104.377 -2.34262 -0.125888 0
M  V30 1069 C 105.393 -1.50768 -0.868625 0
M  V30 1070 O 106.569 -1.83592 -0.828003 0
M  V30 1071 C 103.634 -3.28252 -1.11587 0
M  V30 1072 C 102.695 -4.27651 -0.375956 0
M  V30 1073 C 101.928 -5.1715 -1.31877 0
M  V30 1074 O 102.151 -5.09916 -2.55621 0
M  V30 1075 O 101.085 -5.96286 -0.820157 0
M  V30 1076 H 104.911 -2.97688 0.601315 0
M  V30 1077 H 102.496 -1.44999 0.359934 0
M  V30 1078 H 104.378 -3.86191 -1.68626 0
M  V30 1079 H 103.053 -2.67401 -1.82424 0
M  V30 1080 H 101.96 -3.7335 0.236698 0
M  V30 1081 H 103.293 -4.91334 0.29177 0
M  V30 1082 N 104.945 -0.338344 -1.53925 0
M  V30 1083 C 105.855 0.529421 -2.28548 0
M  V30 1084 C 106.871 1.11645 -1.3346 0
M  V30 1085 O 108.047 1.13325 -1.66492 0
M  V30 1086 C 105.112 1.66713 -3.03987 0
M  V30 1087 C 104.173 1.11041 -4.14691 0
M  V30 1088 C 103.406 2.19389 -4.86522 0
M  V30 1089 O 103.629 3.40013 -4.57982 0
M  V30 1090 O 102.563 1.83976 -5.73094 0
M  V30 1091 H 106.389 -0.0770399 -3.03602 0
M  V30 1092 H 103.974 -0.103555 -1.49041 0
M  V30 1093 H 105.856 2.32918 -3.5118 0
M  V30 1094 H 104.531 2.25949 -2.31794 0
M  V30 1095 H 103.438 0.413024 -3.71813 0
M  V30 1096 H 104.771 0.562975 -4.8897 0
M  V30 1097 N 106.423 1.57458 -0.0668435 0
M  V30 1098 C 107.353 2.15468 0.899764 0
M  V30 1099 C 108.334 1.08042 1.31381 0
M  V30 1100 O 109.519 1.36054 1.38574 0
M  V30 1101 C 106.649 2.71232 2.16911 0
M  V30 1102 C 105.603 3.83781 1.89463 0
M  V30 1103 C 104.929 4.26127 3.22986 0
M  V30 1104 C 106.229 5.08238 1.20381 0
M  V30 1105 H 107.923 2.96488 0.416529 0
M  V30 1106 H 105.469 1.4262 0.198908 0
M  V30 1107 H 107.422 3.10458 2.84945 0
M  V30 1108 H 106.146 1.87426 2.67468 0
M  V30 1109 H 104.805 3.45051 1.23836 0
M  V30 1110 H 104.453 3.39249 3.71374 0
M  V30 1111 H 104.153 5.01993 3.05413 0
M  V30 1112 H 105.677 4.67966 3.92225 0
M  V30 1113 H 107.091 5.44811 1.78475 0
M  V30 1114 H 105.488 5.89349 1.13083 0
M  V30 1115 H 106.558 4.84558 0.182153 0
M  V30 1116 N 107.901 -0.206675 1.56239 0
M  V30 1117 C 109.178 -0.954051 1.70755 0
M  V30 1118 C 109.558 -2.01841 0.618353 0
M  V30 1119 O 108.906 -2.25444 -0.372434 0
M  V30 1120 C 109.116 -1.551 3.12642 0
M  V30 1121 C 110.464 -2.03757 3.72516 0
M  V30 1122 O 111.488 -1.64965 3.15698 0
M  V30 1123 O 110.347 -2.75103 4.72208 0
M  V30 1124 H 107.441 -0.446636 0.696021 0
M  V30 1125 H 109.987 -0.197283 1.68549 0
M  V30 1126 H 108.759 -0.783212 3.83382 0
M  V30 1127 H 108.382 -2.37291 3.19028 0
M  V30 1128 N 109.379 -1.50304 -0.473955 0
M  V30 1129 C 110.628 -1.60392 -1.22301 0
M  V30 1130 C 110.941 -0.308411 -1.93153 0
M  V30 1131 O 112.147 -0.288156 -2.69966 0
M  V30 1132 C 110.603 -2.83109 -2.2221 0
M  V30 1133 C 110.211 -4.19524 -1.57173 0
M  V30 1134 C 111.955 -3.0254 -2.97775 0
M  V30 1135 C 109.862 -5.33431 -2.55353 0
M  V30 1136 H 108.792 -0.597286 -0.460179 0
M  V30 1137 H 111.443 -1.76731 -0.493803 0
M  V30 1138 H 109.825 -2.60322 -2.9841 0
M  V30 1139 H 110.999 -4.52554 -0.867824 0
M  V30 1140 H 109.314 -4.05674 -0.939002 0
M  V30 1141 H 111.911 -3.84811 -3.71248 0
M  V30 1142 H 112.254 -2.14154 -3.56992 0
M  V30 1143 H 112.787 -3.25494 -2.28688 0
M  V30 1144 H 109.526 -6.23962 -2.00878 0
M  V30 1145 H 109.046 -5.04823 -3.23904 0
M  V30 1146 H 110.725 -5.63887 -3.17239 0
M  V30 1147 N 110.857 0.726932 -1.39834 0
M  V30 1148 C 112.273 1.03354 -1.21615 0
M  V30 1149 C 112.473 2.01327 -0.08338 0
M  V30 1150 O 111.529 2.46158 0.56238 0
M  V30 1151 C 112.842 1.58811 -2.55342 0
M  V30 1152 C 114.39 1.70851 -2.62257 0
M  V30 1153 C 114.865 2.29716 -3.96225 0
M  V30 1154 N 116.356 2.37116 -3.97907 0
M  V30 1155 C 117.091 2.83619 -4.98345 0
M  V30 1156 N 116.587 3.29958 -6.09179 0
M  V30 1157 N 118.38 2.82901 -4.8572 0
M  V30 1158 H 110.531 0.0773069 -2.12259 0
M  V30 1159 H 112.794 0.0969102 -0.943034 0
M  V30 1160 H 112.5 0.942855 -3.38826 0
M  V30 1161 H 112.374 2.57502 -2.75632 0
M  V30 1162 H 114.761 2.34497 -1.79152 0
M  V30 1163 H 114.842 0.707913 -2.45809 0
M  V30 1164 H 114.486 1.66696 -4.79765 0
M  V30 1165 H 114.416 3.30469 -4.09997 0
M  V30 1166 H 116.907 2.04374 -3.17868 0
M  V30 1167 H 117.22 3.63976 -6.8172 0
M  V30 1168 H 115.565 3.27946 -6.12761 0
M  V30 1169 H 118.756 2.46027 -3.98231 0
M  V30 1170 H 118.929 3.18827 -5.6414 0
M  V30 1171 N 112.336 1.25143 0.95797 0
M  V30 1172 C 113.747 1.08851 1.51685 0
M  V30 1173 C 114.098 -0.33687 1.93286 0
M  V30 1174 O 113.223 -1.22644 1.7829 0
M  V30 1175 C 113.818 1.96978 2.75654 0
M  V30 1176 C 112.377 1.84881 3.27866 0
M  V30 1177 C 111.524 1.91329 2.0072 0
M  V30 1178 H 114.475 1.38478 0.77522 0
M  V30 1179 H 114.496 1.5078 3.4935 0
M  V30 1180 H 114.008 3.00712 2.45345 0
M  V30 1181 H 112.109 0.840182 3.63004 0
M  V30 1182 H 112.222 2.6951 3.96107 0
M  V30 1183 H 110.586 1.35174 2.15871 0
M  V30 1184 H 111.369 2.96661 1.72764 0
M  V30 1185 N 113.814 -1.1601 1.06675 0
M  V30 1186 C 114.761 -2.20525 0.680967 0
M  V30 1187 C 115.731 -1.62904 -0.324283 0
M  V30 1188 O 116.916 -1.89615 -0.212294 0
M  V30 1189 C 114.056 -3.45013 0.0776551 0
M  V30 1190 C 113.169 -4.16863 1.13355 0
M  V30 1191 C 112.304 -5.2888 0.49597 0
M  V30 1192 C 111.343 -5.92537 1.53513 0
M  V30 1193 N 110.48 -6.96038 0.920631 0
M  V30 1194 H 115.32 -2.52876 1.57663 0
M  V30 1195 H 112.857 -1.24199 0.788223 0
M  V30 1196 H 114.815 -4.16193 -0.289704 0
M  V30 1197 H 113.445 -3.132 -0.781393 0
M  V30 1198 H 112.497 -3.44248 1.61857 0
M  V30 1199 H 113.809 -4.60294 1.92174 0
M  V30 1200 H 112.963 -6.06653 0.0758604 0
M  V30 1201 H 111.702 -4.86622 -0.324062 0
M  V30 1202 H 110.707 -5.13482 1.9651 0
M  V30 1203 H 111.932 -6.36873 2.35733 0
M  V30 1204 H 109.878 -6.55888 0.12138 0
M  V30 1205 H 109.795 -7.3786 1.64616 0
M  V30 1206 H 111.063 -7.77725 0.525795 0
M  V30 1207 N 115.292 -0.849877 -1.32721 0
M  V30 1208 C 116.538 -0.451591 -1.97708 0
M  V30 1209 C 116.871 0.989175 -1.6712 0
M  V30 1210 O 116.146 1.69334 -0.956891 0
M  V30 1211 C 116.429 -0.685598 -3.53513 0
M  V30 1212 C 116.282 -2.17444 -3.93749 0
M  V30 1213 C 117.601 -0.138874 -4.39881 0
M  V30 1214 H 114.72 -0.16555 -0.718166 0
M  V30 1215 H 117.362 -1.06742 -1.57182 0
M  V30 1216 H 115.512 -0.161416 -3.88165 0
M  V30 1217 H 117.184 -2.76433 -3.693 0
M  V30 1218 H 115.427 -2.65476 -3.43081 0
M  V30 1219 H 116.098 -2.28888 -5.02309 0
M  V30 1220 H 118.574 -0.587068 -4.11938 0
M  V30 1221 H 117.45 -0.332213 -5.47894 0
M  V30 1222 H 117.711 0.95806 -4.31594 0
M  V30 1223 N 116.77 1.45427 -0.607355 0
M  V30 1224 C 117.995 2.07124 -0.107006 0
M  V30 1225 C 118.42 1.44906 1.19933 0
M  V30 1226 O 117.778 0.541687 1.73019 0
M  V30 1227 C 117.826 3.60595 0.0194119 0
M  V30 1228 O 116.93 3.98285 1.0697 0
M  V30 1229 H 116.271 0.659868 -0.0739597 0
M  V30 1230 H 118.801 1.86683 -0.837297 0
M  V30 1231 H 118.811 4.07419 0.2177 0
M  V30 1232 H 117.486 4.05266 -0.934453 0
M  V30 1233 H 116.063 3.63133 0.847889 0
M  V30 1234 N 118.248 0.346503 1.53744 0
M  V30 1235 C 119.473 -0.253074 2.0585 0
M  V30 1236 C 119.898 -1.43202 1.21962 0
M  V30 1237 O 119.256 -1.79783 0.234073 0
M  V30 1238 C 119.304 -0.643193 3.54817 0
M  V30 1239 O 118.408 -1.74286 3.73762 0
M  V30 1240 H 117.749 -0.0413583 0.662711 0
M  V30 1241 H 120.279 0.501574 1.98357 0
M  V30 1242 H 120.289 -0.919526 3.97503 0
M  V30 1243 H 118.964 0.218966 4.15323 0
M  V30 1244 H 117.541 -1.46356 3.42979 0
M  V30 1245 N 119.726 -1.57421 0.075193 0
M  V30 1246 C 120.656 -2.15942 -0.888324 0
M  V30 1247 C 121.637 -1.08737 -1.30806 0
M  V30 1248 O 122.822 -1.36787 -1.37851 0
M  V30 1249 C 119.952 -2.72379 -2.1547 0
M  V30 1250 C 118.906 -3.8478 -1.87425 0
M  V30 1251 C 118.232 -4.27834 -3.20721 0
M  V30 1252 C 119.532 -5.08869 -1.17684 0
M  V30 1253 H 121.226 -2.96705 -0.400799 0
M  V30 1254 H 118.772 -1.42723 -0.191342 0
M  V30 1255 H 120.725 -3.11965 -2.83295 0
M  V30 1256 H 119.449 -1.88841 -2.6647 0
M  V30 1257 H 118.108 -3.45703 -1.22004 0
M  V30 1258 H 117.756 -3.41214 -3.6957 0
M  V30 1259 H 117.456 -5.03605 -3.02746 0
M  V30 1260 H 118.98 -4.70039 -3.89738 0
M  V30 1261 H 120.394 -5.4575 -1.75584 0
M  V30 1262 H 118.791 -5.8994 -1.09956 0
M  V30 1263 H 119.861 -4.84648 -0.156453 0
M  V30 1264 N 121.204 0.198386 -1.56346 0
M  V30 1265 C 122.134 1.24865 -1.9731 0
M  V30 1266 C 123.115 1.47651 -0.844576 0
M  V30 1267 O 124.3 1.59444 -1.10866 0
M  V30 1268 C 121.43 2.59358 -2.30977 0
M  V30 1269 C 120.384 2.5119 -3.46537 0
M  V30 1270 C 119.71 3.89926 -3.65871 0
M  V30 1271 C 121.01 2.03977 -4.80823 0
M  V30 1272 H 122.704 0.908252 -2.85291 0
M  V30 1273 H 120.25 0.435462 -1.37258 0
M  V30 1274 H 122.203 3.33011 -2.58228 0
M  V30 1275 H 120.927 2.95132 -1.39874 0
M  V30 1276 H 119.586 1.79993 -3.19371 0
M  V30 1277 H 119.234 4.23046 -2.72105 0
M  V30 1278 H 118.934 3.85336 -4.4361 0
M  V30 1279 H 120.458 4.65205 -3.95495 0
M  V30 1280 H 121.872 2.67386 -5.07127 0
M  V30 1281 H 120.269 2.10397 -5.62008 0
M  V30 1282 H 121.339 0.992861 -4.74626 0
M  V30 1283 N 122.682 1.50554 0.465978 0
M  V30 1284 C 123.93 1.61479 1.21528 0
M  V30 1285 C 124.251 0.319596 1.92363 0
M  V30 1286 O 123.521 -0.663194 1.84333 0
M  V30 1287 H 122.101 0.595055 0.451573 0
M  V30 1288 H 124.763 1.87355 0.53704 0
M  V30 1289 H 123.859 2.42846 1.96042 0
M  V30 1290 N 124.16 -0.719506 1.40217 0
M  V30 1291 C 125.107 -1.83359 1.40172 0
M  V30 1292 C 126.077 -1.64065 0.259206 0
M  V30 1293 O 127.262 -1.85254 0.456677 0
M  V30 1294 C 124.402 -3.2103 1.26624 0
M  V30 1295 C 123.515 -3.51923 2.50548 0
M  V30 1296 C 122.65 -4.79079 2.29471 0
M  V30 1297 C 121.689 -5.02863 3.48992 0
M  V30 1298 N 120.826 -6.2123 3.27135 0
M  V30 1299 H 125.666 -1.82733 2.35399 0
M  V30 1300 H 123.203 -0.892688 1.16917 0
M  V30 1301 H 125.161 -4.00524 1.16776 0
M  V30 1302 H 123.791 -3.20895 0.350176 0
M  V30 1303 H 122.843 -2.67014 2.70939 0
M  V30 1304 H 124.155 -3.6541 3.39525 0
M  V30 1305 H 123.309 -5.66582 2.16955 0
M  V30 1306 H 122.048 -4.67794 1.37913 0
M  V30 1307 H 121.053 -4.13816 3.6199 0
M  V30 1308 H 122.278 -5.16023 4.41472 0
M  V30 1309 H 120.224 -6.11204 2.38256 0
M  V30 1310 H 120.141 -6.35375 4.09675 0
M  V30 1311 H 121.409 -7.11532 3.18344 0
M  V30 1312 N 125.638 -1.25649 -0.95132 0
M  V30 1313 C 126.568 -1.08808 -2.06599 0
M  V30 1314 C 127.549 0.00382547 -1.701 0
M  V30 1315 O 128.734 -0.166325 -1.93486 0
M  V30 1316 C 125.864 -0.709542 -3.39975 0
M  V30 1317 C 124.818 -1.75206 -3.90496 0
M  V30 1318 C 124.144 -1.22811 -5.20405 0
M  V30 1319 C 125.444 -3.15153 -4.16504 0
M  V30 1320 H 127.138 -2.02048 -2.20946 0
M  V30 1321 H 124.684 -0.972835 -1.06169 0
M  V30 1322 H 126.637 -0.578649 -4.17408 0
M  V30 1323 H 125.361 0.258556 -3.25575 0
M  V30 1324 H 124.02 -1.87145 -3.15234 0
M  V30 1325 H 123.668 -0.250145 -5.02378 0
M  V30 1326 H 123.368 -1.92492 -5.55176 0
M  V30 1327 H 124.892 -1.10968 -6.00432 0
M  V30 1328 H 126.306 -3.06349 -4.84586 0
M  V30 1329 H 124.703 -3.82333 -4.62538 0
M  V30 1330 H 125.773 -3.61966 -3.22658 0
M  V30 1331 N 127.117 1.15442 -1.07289 0
M  V30 1332 C 128.363 1.86489 -0.796846 0
M  V30 1333 C 128.696 1.82078 0.675371 0
M  V30 1334 O 127.971 1.24346 1.4956 0
M  V30 1335 C 128.254 3.35626 -1.30489 0
M  V30 1336 C 128.107 3.48673 -2.84161 0
M  V30 1337 C 129.426 4.30357 -0.920907 0
M  V30 1338 H 126.545 0.677144 -0.290939 0
M  V30 1339 H 129.187 1.35633 -1.33056 0
M  V30 1340 H 127.337 3.79068 -0.850883 0
M  V30 1341 H 129.009 3.14099 -3.37846 0
M  V30 1342 H 127.252 2.90253 -3.22391 0
M  V30 1343 H 127.923 4.53453 -3.14777 0
M  V30 1344 H 130.399 3.94871 -1.3121 0
M  V30 1345 H 129.275 5.33193 -1.30372 0
M  V30 1346 H 129.536 4.4176 0.173226 0
M  V30 1347 N 128.595 0.856903 1.32268 0
M  V30 1348 C 129.82 0.474569 2.01897 0
M  V30 1349 C 130.245 -0.921766 1.63967 0
M  V30 1350 O 129.603 -1.60589 0.84148 0
M  V30 1351 C 129.651 0.623799 3.55164 0
M  V30 1352 O 128.755 -0.342459 4.10976 0
M  V30 1353 H 128.096 0.190422 0.63611 0
M  V30 1354 H 130.626 1.15672 1.68764 0
M  V30 1355 H 130.636 0.512169 4.04773 0
M  V30 1356 H 129.311 1.64202 3.82113 0
M  V30 1357 H 127.888 -0.18688 3.72431 0
M  V30 1358 N 130.073 -1.45103 0.615059 0
M  V30 1359 C 131.303 -2.06254 0.119596 0
M  V30 1360 C 131.711 -1.4591 -1.20445 0
M  V30 1361 O 131.054 -0.570384 -1.7462 0
M  V30 1362 C 131.116 -3.59396 -0.0865591 0
M  V30 1363 C 130.78 -4.42116 1.15683 0
M  V30 1364 C 131.777 -4.7662 2.07676 0
M  V30 1365 C 129.462 -4.82749 1.38775 0
M  V30 1366 C 131.456 -5.50622 3.21082 0
M  V30 1367 C 129.143 -5.56504 2.52481 0
M  V30 1368 C 130.141 -5.90358 3.43463 0
M  V30 1369 O 129.829 -6.62615 4.55189 0
M  V30 1370 H 129.561 -0.672423 0.0694512 0
M  V30 1371 H 132.115 -1.87219 0.844885 0
M  V30 1372 H 130.345 -3.76859 -0.866823 0
M  V30 1373 H 132.034 -4.02365 -0.534555 0
M  V30 1374 H 132.8 -4.4578 1.91063 0
M  V30 1375 H 128.679 -4.55829 0.688545 0
M  V30 1376 H 132.223 -5.76965 3.92119 0
M  V30 1377 H 128.12 -5.86759 2.69043 0
M  V30 1378 H 128.888 -6.81071 4.53966 0
M  V30 1379 N 131.551 -0.354651 -1.53558 0
M  V30 1380 C 132.779 0.239515 -2.05509 0
M  V30 1381 C 133.194 1.4333 -1.2289 0
M  V30 1382 O 132.551 1.80538 -0.266899 0
M  V30 1383 C 132.602 0.643719 -3.55723 0
M  V30 1384 O 132.323 -0.502602 -4.35207 0
M  V30 1385 C 133.824 1.29743 -4.23889 0
M  V30 1386 H 131.044 0.0442697 -0.669538 0
M  V30 1387 H 133.588 -0.509856 -1.98042 0
M  V30 1388 H 131.743 1.34302 -3.63376 0
M  V30 1389 H 132.157 -0.178172 -5.24197 0
M  V30 1390 H 133.631 1.53091 -5.30346 0
M  V30 1391 H 134.108 2.25441 -3.76926 0
M  V30 1392 H 134.714 0.639865 -4.20459 0
M  V30 1393 N 133.029 1.57378 -0.0835403 0
M  V30 1394 C 133.977 2.14602 0.89714 0
M  V30 1395 C 134.971 1.08589 1.30018 0
M  V30 1396 O 136.177 1.26952 1.27606 0
M  V30 1397 H 132.552 0.686346 0.3073 0
M  V30 1398 H 134.523 2.95845 0.38969 0
M  V30 1399 C 133.272 2.73188 2.15089 0
M  V30 1400 H 132.595 3.54442 1.84962 0
M  V30 1401 H 134.035 3.1681 2.81793 0
M  V30 1402 C 132.494 1.68517 2.91725 0
M  V30 1403 O 133.024 1.11718 3.85852 0
M  V30 1404 N 131.23 1.39277 2.55049 0
M  V30 1405 H 130.777 1.85655 1.78577 0
M  V30 1406 H 130.735 0.694791 3.06627 0
M  V30 1407 N 134.507 -0.190092 1.56449 0
M  V30 1408 C 135.437 -1.23816 1.97969 0
M  V30 1409 C 136.418 -1.47201 0.852395 0
M  V30 1410 O 137.603 -1.58854 1.1171 0
M  V30 1411 C 134.733 -2.5813 2.3235 0
M  V30 1412 C 133.687 -2.49348 3.47864 0
M  V30 1413 C 133.013 -3.8798 3.67934 0
M  V30 1414 C 134.313 -2.01424 4.81898 0
M  V30 1415 H 136.007 -0.89311 2.85769 0
M  V30 1416 H 133.553 -0.428177 1.37487 0
M  V30 1417 H 135.506 -3.31637 2.59991 0
M  V30 1418 H 134.23 -2.94386 1.41438 0
M  V30 1419 H 132.889 -1.78297 3.20321 0
M  V30 1420 H 132.537 -4.21597 2.74344 0
M  V30 1421 H 132.237 -3.82978 4.45648 0
M  V30 1422 H 133.761 -4.63101 3.97957 0
M  V30 1423 H 135.175 -2.64693 5.08538 0
M  V30 1424 H 133.572 -2.07413 5.63116 0
M  V30 1425 H 134.642 -0.967677 4.75146 0
M  V30 1426 N 135.985 -1.50799 -0.457987 0
M  V30 1427 C 137.213 -1.66218 -1.23203 0
M  V30 1428 C 137.628 -0.350894 -1.85511 0
M  V30 1429 O 136.985 0.668546 -1.69814 0
M  V30 1430 C 137.036 -2.76291 -2.33121 0
M  V30 1431 O 136.757 -4.02338 -1.73366 0
M  V30 1432 C 138.258 -3.028 -3.2377 0
M  V30 1433 H 135.478 -0.558361 -0.372121 0
M  V30 1434 H 138.022 -1.97099 -0.545179 0
M  V30 1435 H 136.177 -2.48068 -2.97558 0
M  V30 1436 H 136.591 -4.63312 -2.4585 0
M  V30 1437 H 138.065 -3.8345 -3.97077 0
M  V30 1438 H 138.542 -2.14385 -3.83322 0
M  V30 1439 H 139.148 -3.32604 -2.65056 0
M  V30 1440 N 137.463 0.71206 -1.40597 0
M  V30 1441 C 138.395 1.83704 -1.37061 0
M  V30 1442 C 139.408 1.60453 -0.275426 0
M  V30 1443 O 140.597 1.70262 -0.53602 0
M  V30 1444 C 137.697 3.20172 -1.11099 0
M  V30 1445 C 136.87 3.7059 -2.3234 0
M  V30 1446 C 135.929 4.85681 -2.02485 0
M  V30 1447 O 134.955 4.9815 -2.75382 0
M  V30 1448 N 136.157 5.71735 -1.00497 0
M  V30 1449 H 138.922 1.87235 -2.34016 0
M  V30 1450 H 136.483 0.893739 -1.34996 0
M  V30 1451 H 138.475 3.94768 -0.891064 0
M  V30 1452 H 137.045 3.11767 -0.227989 0
M  V30 1453 H 136.265 2.87085 -2.7014 0
M  V30 1454 H 137.553 4.01011 -3.13157 0
M  V30 1455 H 136.951 5.64275 -0.401298 0
M  V30 1456 H 135.508 6.463 -0.844942 0
M  V30 1457 N 138.941 1.26152 0.944643 0
M  V30 1458 C 140.189 1.11271 1.6871 0
M  V30 1459 C 140.51 -0.345166 1.91921 0
M  V30 1460 O 139.78 -1.24387 1.51343 0
M  V30 1461 H 138.36 0.408783 0.625224 0
M  V30 1462 H 141.022 1.58427 1.1352 0
M  V30 1463 H 140.118 1.62879 2.66227 0
M  V30 1464 N 140.419 -1.14872 1.07899 0
M  V30 1465 C 141.382 -2.17986 0.708161 0
M  V30 1466 C 142.382 -1.58775 -0.25442 0
M  V30 1467 O 143.572 -1.74166 -0.034645 0
M  V30 1468 C 140.704 -3.40871 0.0446929 0
M  V30 1469 H 141.897 -2.52306 1.62116 0
M  V30 1470 H 139.45 -1.2943 0.876218 0
M  V30 1471 H 140.185 -3.12124 -0.880281 0
M  V30 1472 H 139.97 -3.8511 0.737091 0
M  V30 1473 H 141.46 -4.17121 -0.19991 0
M  V30 1474 N 141.898 -0.863906 -1.31812 0
M  V30 1475 C 142.845 -0.313303 -2.28664 0
M  V30 1476 C 143.815 0.584868 -1.55462 0
M  V30 1477 O 145 0.517805 -1.83639 0
M  V30 1478 C 142.14 0.48441 -3.41683 0
M  V30 1479 C 141.253 -0.440594 -4.29747 0
M  V30 1480 C 140.388 0.370652 -5.29905 0
M  V30 1481 C 139.427 -0.551164 -6.09613 0
M  V30 1482 N 138.564 0.223462 -7.01744 0
M  V30 1483 H 143.404 -1.14444 -2.75148 0
M  V30 1484 H 140.941 -0.575769 -1.35364 0
M  V30 1485 H 142.899 0.962627 -4.05943 0
M  V30 1486 H 141.529 1.28029 -2.96325 0
M  V30 1487 H 140.581 -1.03724 -3.65986 0
M  V30 1488 H 141.893 -1.14767 -4.85417 0
M  V30 1489 H 141.047 0.911638 -5.99812 0
M  V30 1490 H 139.786 1.11105 -4.74876 0
M  V30 1491 H 138.791 -1.10396 -5.38603 0
M  V30 1492 H 140.016 -1.29032 -6.66729 0
M  V30 1493 H 137.962 0.946787 -6.49132 0
M  V30 1494 H 137.879 -0.424399 -7.54808 0
M  V30 1495 H 139.147 0.745876 -7.75923 0
M  V30 1496 N 143.376 1.44774 -0.622745 0
M  V30 1497 C 144.286 2.34433 0.0886031 0
M  V30 1498 C 145.302 1.52131 0.844529 0
M  V30 1499 O 146.478 1.84886 0.798691 0
M  V30 1500 C 143.543 3.29986 1.0635 0
M  V30 1501 C 142.604 4.28195 0.307873 0
M  V30 1502 C 141.837 5.19183 1.23633 0
M  V30 1503 O 142.06 5.13918 2.47476 0
M  V30 1504 O 140.994 5.97515 0.725189 0
M  V30 1505 H 144.82 2.96693 -0.648599 0
M  V30 1506 H 142.405 1.44408 -0.382957 0
M  V30 1507 H 144.287 3.88825 1.6246 0
M  V30 1508 H 142.962 2.70269 1.78146 0
M  V30 1509 H 141.869 3.72927 -0.296064 0
M  V30 1510 H 143.202 4.90808 -0.3699 0
M  V30 1511 N 144.854 0.36279 1.53368 0
M  V30 1512 C 145.804 -0.501391 2.22419 0
M  V30 1513 C 146.788 -1.0509 1.2184 0
M  V30 1514 O 147.98 -0.981404 1.47301 0
M  V30 1515 C 145.109 -1.64201 3.01484 0
M  V30 1516 C 144.195 -1.10552 4.09438 0
M  V30 1517 N 144.586 -0.291788 5.04958 0
M  V30 1518 C 142.884 -1.3806 4.24094 0
M  V30 1519 C 143.585 0.00162655 5.817 0
M  V30 1520 N 142.561 -0.595244 5.40331 0
M  V30 1521 H 146.363 0.127159 2.93625 0
M  V30 1522 H 143.877 0.170658 1.61501 0
M  V30 1523 H 145.874 -2.27326 3.49469 0
M  V30 1524 H 144.534 -2.27365 2.31809 0
M  V30 1525 H 145.545 0.0687731 5.17854 0
M  V30 1526 H 142.222 -2.01522 3.65644 0
M  V30 1527 H 143.612 0.659278 6.68658 0
M  V30 1528 N 146.332 -1.57332 0.0918853 0
M  V30 1529 C 147.242 -2.17368 -0.882505 0
M  V30 1530 C 148.258 -1.14226 -1.31257 0
M  V30 1531 O 149.434 -1.46582 -1.38115 0
M  V30 1532 C 146.499 -2.73962 -2.12476 0
M  V30 1533 C 145.56 -3.92048 -1.7492 0
M  V30 1534 C 144.793 -4.45933 -2.93223 0
M  V30 1535 O 145.016 -3.98764 -4.07852 0
M  V30 1536 O 143.95 -5.36999 -2.71875 0
M  V30 1537 H 147.776 -3.01031 -0.40172 0
M  V30 1538 H 145.361 -1.48813 -0.132291 0
M  V30 1539 H 147.243 -3.10147 -2.85283 0
M  V30 1540 H 145.918 -1.93347 -2.59613 0
M  V30 1541 H 144.825 -3.6068 -0.993025 0
M  V30 1542 H 146.158 -4.74017 -1.32548 0
M  V30 1543 N 147.81 0.181792 -1.56548 0
M  V30 1544 C 148.72 1.24538 -1.98815 0
M  V30 1545 C 149.736 1.49045 -0.897861 0
M  V30 1546 O 150.912 1.61399 -1.20467 0
M  V30 1547 C 147.977 2.56683 -2.33055 0
M  V30 1548 C 147.038 2.40131 -3.55859 0
M  V30 1549 C 146.271 3.65975 -3.88456 0
M  V30 1550 O 146.494 4.70711 -3.22161 0
M  V30 1551 O 145.428 3.6071 -4.81842 0
M  V30 1552 H 149.254 0.916647 -2.89536 0
M  V30 1553 H 146.839 0.387842 -1.44278 0
M  V30 1554 H 148.721 3.34655 -2.56094 0
M  V30 1555 H 147.396 2.89157 -1.45498 0
M  V30 1556 H 146.303 1.60226 -3.38051 0
M  V30 1557 H 147.636 2.12585 -4.43924 0
M  V30 1558 N 149.288 1.51039 0.449983 0
M  V30 1559 C 150.251 1.70863 1.5277 0
M  V30 1560 C 151.251 0.578846 1.5002 0
M  V30 1561 O 152.441 0.846213 1.52266 0
M  V30 1562 C 149.573 1.75341 2.9235 0
M  V30 1563 H 150.766 2.67034 1.36502 0
M  V30 1564 H 148.319 1.40838 0.677812 0
M  V30 1565 H 149.054 0.809383 3.14037 0
M  V30 1566 H 148.839 2.57436 2.95752 0
M  V30 1567 H 150.329 1.92559 3.70555 0
M  V30 1568 N 150.766 -0.704594 1.40972 0
M  V30 1569 C 151.676 -1.84856 1.44448 0
M  V30 1570 C 152.692 -1.70726 0.335961 0
M  V30 1571 O 153.868 -1.92799 0.582276 0
M  V30 1572 C 150.933 -3.20758 1.31587 0
M  V30 1573 C 149.994 -3.47063 2.52677 0
M  V30 1574 C 149.227 -4.76481 2.4042 0
M  V30 1575 O 149.45 -5.52341 1.42391 0
M  V30 1576 O 148.384 -5.03367 3.30007 0
M  V30 1577 H 152.21 -1.8488 2.40942 0
M  V30 1578 H 149.795 -0.85647 1.22413 0
M  V30 1579 H 151.677 -4.01913 1.26665 0
M  V30 1580 H 150.352 -3.21438 0.382049 0
M  V30 1581 H 149.259 -2.65873 2.63177 0
M  V30 1582 H 150.592 -3.5119 3.44858 0
M  V30 1583 N 152.244 -1.26651 -0.937939 0
M  V30 1584 C 153.469 -1.15279 -1.72411 0
M  V30 1585 C 153.894 0.287866 -1.85884 0
M  V30 1586 O 153.252 1.20855 -1.35143 0
M  V30 1587 C 153.3 -1.83028 -3.10698 0
M  V30 1588 O 152.404 -1.12128 -3.96864 0
M  V30 1589 H 151.745 -0.401504 -0.528858 0
M  V30 1590 H 154.275 -1.67531 -1.1745 0
M  V30 1591 H 154.285 -1.89981 -3.6107 0
M  V30 1592 H 152.96 -2.87833 -3.00208 0
M  V30 1593 H 151.537 -1.13173 -3.55312 0
M  V30 1594 N 153.722 1.14298 -1.08507 0
M  V30 1595 C 154.97 1.84993 -0.813763 0
M  V30 1596 C 155.291 1.83405 0.662393 0
M  V30 1597 O 154.561 1.28319 1.48024 0
M  V30 1598 H 153.141 0.684966 -0.298045 0
M  V30 1599 H 155.803 1.385 -1.37126 0
M  V30 1600 H 154.899 2.89788 -1.15884 0
M  V30 1601 N 155.201 0.870884 1.31352 0
M  V30 1602 C 156.111 0.330783 2.32256 0
M  V30 1603 C 157.127 -0.559767 1.6475 0
M  V30 1604 O 158.303 -0.456263 1.96164 0
M  V30 1605 C 155.368 -0.458137 3.4366 0
M  V30 1606 C 154.429 0.460482 4.26823 0
M  V30 1607 C 153.662 -0.290881 5.32907 0
M  V30 1608 O 153.885 -1.51885 5.49806 0
M  V30 1609 O 152.819 0.351732 6.00871 0
M  V30 1610 H 156.645 1.16718 2.80376 0
M  V30 1611 H 154.23 0.634285 1.35267 0
M  V30 1612 H 156.112 -0.905343 4.1156 0
M  V30 1613 H 154.787 -1.27106 2.97701 0
M  V30 1614 H 153.694 0.956207 3.61673 0
M  V30 1615 H 155.027 1.23903 4.7635 0
M  V30 1616 N 156.679 -1.44442 0.630414 0
M  V30 1617 C 157.927 -2.01653 0.134351 0
M  V30 1618 C 158.248 -1.49836 -1.24796 0
M  V30 1619 O 157.518 -0.701684 -1.82902 0
M  V30 1620 H 156.098 -0.74554 0.0466769 0
M  V30 1621 H 158.76 -1.76952 0.816955 0
M  V30 1622 H 157.856 -3.11935 0.101498 0
M  V30 1623 N 158.157 -0.370918 -1.53173 0
M  V30 1624 C 159.385 0.217704 -2.05751 0
M  V30 1625 C 159.8 1.42018 -1.24404 0
M  V30 1626 O 159.157 1.80245 -0.286033 0
M  V30 1627 C 159.208 0.605954 -3.56385 0
M  V30 1628 O 158.929 -0.548734 -4.3465 0
M  V30 1629 C 160.43 1.2524 -4.25241 0
M  V30 1630 H 157.65 0.0371659 -0.66997 0
M  V30 1631 H 160.194 -0.530832 -1.9749 0
M  V30 1632 H 158.349 1.3044 -3.6478 0
M  V30 1633 H 158.763 -0.23376 -5.23979 0
M  V30 1634 H 160.237 1.47458 -5.3194 0
M  V30 1635 H 160.714 2.2143 -3.79296 0
M  V30 1636 H 161.32 0.595233 -4.21114 0
M  V30 1637 N 159.635 1.57281 -0.100228 0
M  V30 1638 C 161.051 1.57527 0.256416 0
M  V30 1639 C 161.251 1.11173 1.68056 0
M  V30 1640 O 160.307 0.79053 2.39806 0
M  V30 1641 C 161.62 3.00673 0.0401747 0
M  V30 1642 C 163.168 3.12815 0.107528 0
M  V30 1643 C 163.643 4.57929 -0.0807834 0
M  V30 1644 N 165.134 4.63193 -0.0261207 0
M  V30 1645 C 165.869 5.73212 -0.146999 0
M  V30 1646 N 165.365 6.92047 -0.322999 0
M  V30 1647 N 167.158 5.62031 -0.0879044 0
M  V30 1648 H 159.309 1.85718 -1.03065 0
M  V30 1649 H 161.572 0.857446 -0.404339 0
M  V30 1650 H 161.278 3.38804 -0.943649 0
M  V30 1651 H 161.152 3.69042 0.780262 0
M  V30 1652 H 163.539 2.74554 1.08186 0
M  V30 1653 H 163.62 2.47028 -0.664134 0
M  V30 1654 H 163.264 4.96886 -1.05201 0
M  V30 1655 H 163.194 5.21783 0.710635 0
M  V30 1656 H 165.685 3.77748 0.107161 0
M  V30 1657 H 165.998 7.7173 -0.406608 0
M  V30 1658 H 164.343 6.94074 -0.358733 0
M  V30 1659 H 167.534 4.68075 0.048498 0
M  V30 1660 H 167.707 6.47734 -0.185557 0
M  V30 1661 N 161.113 -0.173488 1.56642 0
M  V30 1662 C 162.529 -0.525174 1.50712 0
M  V30 1663 C 162.729 -1.8476 0.804107 0
M  V30 1664 O 161.785 -2.49869 0.363574 0
M  V30 1665 C 163.098 -0.559937 2.95441 0
M  V30 1666 C 164.646 -0.647288 3.06234 0
M  V30 1667 C 165.121 -0.712963 4.52417 0
M  V30 1668 N 166.612 -0.775911 4.56655 0
M  V30 1669 C 167.347 -0.847264 5.67106 0
M  V30 1670 N 166.843 -0.879585 6.87194 0
M  V30 1671 N 168.636 -0.886117 5.55071 0
M  V30 1672 H 160.787 0.693681 2.00753 0
M  V30 1673 H 163.05 0.249841 0.914485 0
M  V30 1674 H 162.756 0.343049 3.50023 0
M  V30 1675 H 162.63 -1.40718 3.49969 0
M  V30 1676 H 165.017 -1.5407 2.51687 0
M  V30 1677 H 165.098 0.226586 2.54794 0
M  V30 1678 H 164.742 0.176183 5.07594 0
M  V30 1679 H 164.672 -1.60295 5.0161 0
M  V30 1680 H 167.163 -0.759304 3.70193 0
M  V30 1681 H 167.476 -0.935144 7.67121 0
M  V30 1682 H 165.821 -0.847898 6.89808 0
M  V30 1683 H 169.012 -0.857853 4.60172 0
M  V30 1684 H 169.185 -0.938263 6.41171 0
M  V30 1685 N 162.591 -1.51276 -0.441967 0
M  V30 1686 C 164.007 -1.39349 -0.778083 0
M  V30 1687 C 164.207 -0.472212 -1.95889 0
M  V30 1688 O 163.263 0.0743551 -2.5239 0
M  V30 1689 C 164.576 -2.81292 -1.0628 0
M  V30 1690 C 166.124 -2.9041 -1.16751 0
M  V30 1691 C 166.599 -4.33251 -1.48519 0
M  V30 1692 N 168.09 -4.36336 -1.55453 0
M  V30 1693 C 168.825 -5.43885 -1.81596 0
M  V30 1694 N 168.321 -6.61601 -2.05562 0
M  V30 1695 N 170.114 -5.3136 -1.8334 0
M  V30 1696 H 162.265 -2.09729 0.335774 0
M  V30 1697 H 164.528 -0.943925 0.0878028 0
M  V30 1698 H 164.234 -3.50678 -0.267905 0
M  V30 1699 H 164.108 -3.20334 -1.99163 0
M  V30 1700 H 166.495 -2.21225 -1.95304 0
M  V30 1701 H 166.576 -2.54871 -0.217801 0
M  V30 1702 H 166.22 -5.02984 -0.704958 0
M  V30 1703 H 166.15 -4.66299 -2.44689 0
M  V30 1704 H 168.641 -3.51466 -1.38853 0
M  V30 1705 H 168.954 -7.39361 -2.24867 0
M  V30 1706 H 167.299 -6.64725 -2.02894 0
M  V30 1707 H 170.49 -4.38382 -1.64132 0
M  V30 1708 H 170.663 -6.15258 -2.03377 0
M  V30 1709 N 164.069 0.697108 -1.41344 0
M  V30 1710 C 165.032 1.79281 -1.42797 0
M  V30 1711 C 166.032 1.57607 -0.318837 0
M  V30 1712 O 167.222 1.64309 -0.578642 0
M  V30 1713 C 164.354 3.17632 -1.23785 0
M  V30 1714 H 165.547 1.79385 -2.40335 0
M  V30 1715 H 163.1 0.904582 -1.27464 0
M  V30 1716 H 163.835 3.23167 -0.270814 0
M  V30 1717 H 163.62 3.34765 -2.04144 0
M  V30 1718 H 165.11 3.97617 -1.27633 0
M  V30 1719 N 165.547 1.27147 0.931209 0
M  V30 1720 C 166.51 1.09615 2.01289 0
M  V30 1721 C 167.51 0.0412581 1.60747 0
M  V30 1722 O 168.7 0.285545 1.71844 0
M  V30 1723 C 165.832 0.669447 3.34262 0
M  V30 1724 H 167.025 2.05662 2.18273 0
M  V30 1725 H 164.578 1.09885 1.11153 0
M  V30 1726 H 165.313 -0.292572 3.22978 0
M  V30 1727 H 165.098 1.43127 3.65044 0
M  V30 1728 H 166.588 0.568921 4.13706 0
M  V30 1729 N 167.025 -1.13721 1.09112 0
M  V30 1730 C 167.935 -2.22638 0.73957 0
M  V30 1731 C 168.951 -1.72091 -0.257068 0
M  V30 1732 O 170.127 -2.01155 -0.0992154 0
M  V30 1733 C 167.192 -3.46322 0.16191 0
M  V30 1734 C 166.253 -4.11775 1.21408 0
M  V30 1735 C 165.486 -5.29555 0.663891 0
M  V30 1736 O 165.709 -5.68077 -0.514274 0
M  V30 1737 O 164.643 -5.84973 1.41738 0
M  V30 1738 H 168.469 -2.55074 1.64836 0
M  V30 1739 H 166.054 -1.21791 0.865289 0
M  V30 1740 H 167.936 -4.21107 -0.157073 0
M  V30 1741 H 166.611 -3.15593 -0.719932 0
M  V30 1742 H 165.518 -3.3883 1.58571 0
M  V30 1743 H 166.851 -4.46627 2.06845 0
M  V30 1744 N 168.503 -0.877838 -1.30888 0
M  V30 1745 C 169.466 -0.344265 -2.266 0
M  V30 1746 C 170.466 0.50922 -1.52524 0
M  V30 1747 O 171.656 0.317398 -1.71284 0
M  V30 1748 C 168.788 0.510198 -3.37061 0
M  V30 1749 H 169.981 -1.1893 -2.7531 0
M  V30 1750 H 167.534 -0.654088 -1.41956 0
M  V30 1751 H 168.269 1.37612 -2.93655 0
M  V30 1752 H 168.054 -0.101047 -3.9197 0
M  V30 1753 H 169.544 0.875537 -4.08319 0
M  V30 1754 N 169.982 1.44106 -0.638065 0
M  V30 1755 C 171.393 1.85316 -0.226894 0
M  V30 1756 C 171.744 1.53399 1.22324 0
M  V30 1757 O 170.869 0.975463 1.93167 0
M  V30 1758 C 171.464 3.3637 -0.405013 0
M  V30 1759 C 170.023 3.76369 -0.0482902 0
M  V30 1760 C 169.17 2.67921 -0.715108 0
M  V30 1761 H 172.121 1.34474 -0.842764 0
M  V30 1762 H 172.142 3.7885 0.354 0
M  V30 1763 H 171.654 3.59569 -1.46053 0
M  V30 1764 H 169.755 3.58784 1.00522 0
M  V30 1765 H 169.868 4.76856 -0.463187 0
M  V30 1766 H 168.232 2.54259 -0.149753 0
M  V30 1767 H 169.015 2.93951 -1.77335 0
M  V30 1768 N 171.46 0.379036 1.52974 0
M  V30 1769 C 172.685 -0.209353 2.06341 0
M  V30 1770 C 173.11 -1.40583 1.24972 0
M  V30 1771 O 172.468 -1.79246 0.272155 0
M  V30 1772 C 172.516 -0.567786 3.56102 0
M  V30 1773 O 171.62 -1.66318 3.77375 0
M  V30 1774 H 170.961 -0.0272919 0.663439 0
M  V30 1775 H 173.491 0.543536 1.97248 0
M  V30 1776 H 173.501 -0.835003 3.99364 0
M  V30 1777 H 172.176 0.307013 4.14765 0
M  V30 1778 H 170.753 -1.39048 3.46006 0
M  V30 1779 N 172.938 -1.57226 0.108567 0
M  V30 1780 C 173.871 -2.10447 -0.882464 0
M  V30 1781 C 174.849 -1.01829 -1.26766 0
M  V30 1782 O 176.033 -1.29415 -1.37054 0
M  V30 1783 C 173.16 -2.59258 -2.17952 0
M  V30 1784 C 172.206 -3.79662 -1.94318 0
M  V30 1785 S 173.039 -5.22586 -1.16892 0
M  V30 1786 C 174.195 -5.74758 -2.47799 0
M  V30 1787 H 174.428 -2.94178 -0.429745 0
M  V30 1788 H 171.961 -1.54043 -0.105 0
M  V30 1789 H 173.919 -2.88036 -2.92482 0
M  V30 1790 H 172.58 -1.75728 -2.60343 0
M  V30 1791 H 171.773 -4.11928 -2.90399 0
M  V30 1792 H 171.375 -3.51446 -1.27913 0
M  V30 1793 H 173.667 -5.83846 -3.43701 0
M  V30 1794 H 174.61 -6.73027 -2.20093 0
M  V30 1795 H 175.018 -5.02763 -2.56689 0
M  V30 1796 N 174.416 0.165178 -1.56732 0
M  V30 1797 C 175.664 0.879068 -1.8198 0
M  V30 1798 C 175.985 1.82514 -0.686561 0
M  V30 1799 O 175.255 1.93694 0.293146 0
M  V30 1800 H 173.835 0.327608 -0.671329 0
M  V30 1801 H 176.497 0.163526 -1.94213 0
M  V30 1802 H 175.593 1.45228 -2.76252 0
M  V30 1803 N 175.894 1.51508 0.433938 0
M  V30 1804 C 177.122 1.68157 1.20543 0
M  V30 1805 C 177.537 0.380362 1.84929 0
M  V30 1806 O 176.894 -0.641446 1.70856 0
M  V30 1807 C 176.945 2.79965 2.28696 0
M  V30 1808 O 176.666 4.05045 1.66943 0
M  V30 1809 C 178.167 3.07912 3.18912 0
M  V30 1810 H 175.387 0.56421 0.363191 0
M  V30 1811 H 177.931 1.97941 0.513754 0
M  V30 1812 H 176.086 2.5277 2.93574 0
M  V30 1813 H 176.5 4.67165 2.38448 0
M  V30 1814 H 177.974 3.89719 3.90926 0
M  V30 1815 H 178.451 2.20456 3.79863 0
M  V30 1816 H 179.057 3.36779 2.59731 0
M  V30 1817 N 177.372 -0.689602 1.41712 0
M  V30 1818 C 178.302 -1.81577 1.46806 0
M  V30 1819 C 179.283 -1.66945 0.326105 0
M  V30 1820 O 180.468 -1.86588 0.538377 0
M  V30 1821 C 177.598 -3.19762 1.35535 0
M  V30 1822 C 176.552 -3.49107 2.47605 0
M  V30 1823 C 175.878 -4.86711 2.21397 0
M  V30 1824 C 177.178 -3.47483 3.89939 0
M  V30 1825 H 178.872 -1.7757 2.41058 0
M  V30 1826 H 176.418 -0.852887 1.16025 0
M  V30 1827 H 178.371 -3.98263 1.3771 0
M  V30 1828 H 177.095 -3.24409 0.377708 0
M  V30 1829 H 175.754 -2.72959 2.44722 0
M  V30 1830 H 175.402 -4.8799 1.21961 0
M  V30 1831 H 175.102 -5.0731 2.96497 0
M  V30 1832 H 176.626 -5.67515 2.25297 0
M  V30 1833 H 178.04 -4.1598 3.94505 0
M  V30 1834 H 176.437 -3.79615 4.64771 0
M  V30 1835 H 177.507 -2.46341 4.17665 0
M  V30 1836 N 178.85 -1.27639 -0.924453 0
M  V30 1837 C 179.783 -1.04966 -2.02626 0
M  V30 1838 C 180.761 0.0309505 -1.62571 0
M  V30 1839 O 181.945 -0.114846 -1.8815 0
M  V30 1840 C 179.072 -0.59292 -3.3347 0
M  V30 1841 C 178.118 -1.66858 -3.92506 0
M  V30 1842 S 178.951 -3.2619 -4.24689 0
M  V30 1843 C 180.107 -2.82325 -5.58609 0
M  V30 1844 H 180.34 -1.98252 -2.21547 0
M  V30 1845 H 177.873 -1.11506 -1.06798 0
M  V30 1846 H 179.831 -0.336086 -4.09122 0
M  V30 1847 H 178.492 0.319939 -3.12466 0
M  V30 1848 H 177.685 -1.30038 -4.86935 0
M  V30 1849 H 177.287 -1.87766 -3.2345 0
M  V30 1850 H 179.579 -2.2783 -6.38044 0
M  V30 1851 H 180.522 -3.75511 -6.00331 0
M  V30 1852 H 180.93 -2.21367 -5.19285 0
M  V30 1853 N 180.328 1.1314 -1.09713 0
M  V30 1854 C 181.576 1.84119 -0.833338 0
M  V30 1855 C 181.897 1.84097 0.642904 0
M  V30 1856 O 181.167 1.29881 1.46655 0
M  V30 1857 H 179.747 0.681766 -0.305293 0
M  V30 1858 H 182.409 1.37038 -1.38588 0
M  V30 1859 H 181.505 2.88543 -1.18951 0
M  V30 1860 N 181.806 0.884767 1.30421 0
M  V30 1861 C 183.052 0.503851 1.96441 0
M  V30 1862 C 183.385 -0.944518 1.69684 0
M  V30 1863 O 182.66 -1.66737 1.00145 0
M  V30 1864 C 182.943 0.779085 3.51571 0
M  V30 1865 C 182.796 2.27807 3.87846 0
M  V30 1866 C 184.115 0.255452 4.39358 0
M  V30 1867 H 181.234 0.184533 0.713524 0
M  V30 1868 H 183.876 1.10872 1.54297 0
M  V30 1869 H 182.026 0.264274 3.876 0
M  V30 1870 H 183.698 2.86127 3.61841 0
M  V30 1871 H 181.941 2.74479 3.35922 0
M  V30 1872 H 182.612 2.42125 4.96064 0
M  V30 1873 H 185.088 0.696079 4.10236 0
M  V30 1874 H 183.964 0.477361 5.4682 0
M  V30 1875 H 184.225 -0.843293 4.33983 0
M  V30 1876 N 183.284 -1.43765 0.645699 0
M  V30 1877 C 184.514 -2.05953 0.163318 0
M  V30 1878 C 184.922 -1.48432 -1.17322 0
M  V30 1879 O 184.265 -0.607295 -1.73371 0
M  V30 1880 C 184.327 -3.59499 -0.0103065 0
M  V30 1881 C 183.991 -4.39563 1.25035 0
M  V30 1882 C 184.988 -4.72108 2.17739 0
M  V30 1883 C 182.673 -4.79697 1.48983 0
M  V30 1884 C 184.667 -5.43688 3.3269 0
M  V30 1885 C 182.354 -5.51023 2.64229 0
M  V30 1886 C 183.352 -5.8294 3.55908 0
M  V30 1887 O 183.04 -6.5281 4.69142 0
M  V30 1888 H 182.772 -0.670798 0.0836986 0
M  V30 1889 H 185.326 -1.85384 0.884407 0
M  V30 1890 H 183.556 -3.78613 -0.78669 0
M  V30 1891 H 185.245 -4.03408 -0.449087 0
M  V30 1892 H 186.011 -4.41627 2.00476 0
M  V30 1893 H 181.89 -4.54266 0.785078 0
M  V30 1894 H 185.434 -5.68517 4.04269 0
M  V30 1895 H 181.331 -5.8092 2.81429 0
M  V30 1896 H 182.099 -6.71288 4.6831 0
M  V30 1897 N 184.763 -0.387143 -1.52771 0
M  V30 1898 C 185.693 0.440551 -2.29306 0
M  V30 1899 C 186.674 1.06535 -1.32606 0
M  V30 1900 O 187.859 1.07853 -1.61497 0
M  V30 1901 C 184.989 1.56919 -3.09829 0
M  V30 1902 C 183.943 1.07054 -4.14395 0
M  V30 1903 C 183.269 2.29109 -4.83129 0
M  V30 1904 C 184.569 0.140015 -5.22112 0
M  V30 1905 H 186.263 -0.198026 -2.98744 0
M  V30 1906 H 183.809 -0.09668 -1.43675 0
M  V30 1907 H 185.762 2.15503 -3.62128 0
M  V30 1908 H 184.486 2.23532 -2.3812 0
M  V30 1909 H 183.145 0.507247 -3.63074 0
M  V30 1910 H 182.793 2.94227 -4.0797 0
M  V30 1911 H 182.493 1.96406 -5.53804 0
M  V30 1912 H 184.017 2.88339 -5.38231 0
M  V30 1913 H 185.431 0.633978 -5.69784 0
M  V30 1914 H 183.828 -0.0971485 -6.00021 0
M  V30 1915 H 184.898 -0.811711 -4.78058 0
M  V30 1916 N 186.241 1.57166 -0.116904 0
M  V30 1917 C 187.652 1.82169 0.408809 0
M  V30 1918 C 188.003 1.03393 1.66746 0
M  V30 1919 O 187.128 0.269886 2.1471 0
M  V30 1920 C 187.723 3.30429 0.748466 0
M  V30 1921 C 186.282 3.5612 1.21882 0
M  V30 1922 C 185.429 2.76374 0.226452 0
M  V30 1923 H 188.38 1.5497 -0.342063 0
M  V30 1924 H 188.401 3.44943 1.60607 0
M  V30 1925 H 187.913 3.87737 -0.167784 0
M  V30 1926 H 186.014 3.04168 2.15204 0
M  V30 1927 H 186.127 4.64705 1.16559 0
M  V30 1928 H 184.491 2.44515 0.713063 0
M  V30 1929 H 185.274 3.3644 -0.682859 0
M  V30 1930 N 187.719 -0.156864 1.56817 0
M  V30 1931 C 188.959 -0.877453 1.84608 0
M  V30 1932 C 189.323 -1.78791 0.699845 0
M  V30 1933 O 190.524 -2.5472 0.858553 0
M  V30 1934 C 188.795 -1.63992 3.17555 0
M  V30 1935 S 190.354 -2.40729 3.66872 0
M  V30 1936 H 187.172 -0.293612 0.647544 0
M  V30 1937 H 189.774 -0.138099 1.95012 0
M  V30 1938 H 188.478 -0.962363 3.98957 0
M  V30 1939 H 188.009 -2.42038 3.10131 0
M  V30 1940 H 190.024 -3.65725 3.3535 0
M  V30 1941 N 189.197 -1.51736 -0.425897 0
M  V30 1942 C 190.127 -1.76827 -1.52494 0
M  V30 1943 C 191.108 -0.618524 -1.58456 0
M  V30 1944 O 192.293 -0.862416 -1.74 0
M  V30 1945 C 189.423 -1.90374 -2.90474 0
M  V30 1946 C 188.377 -3.0588 -2.99369 0
M  V30 1947 C 187.703 -3.04625 -4.3944 0
M  V30 1948 C 189.003 -4.45644 -2.72394 0
M  V30 1949 H 190.697 -2.68855 -1.31748 0
M  V30 1950 H 188.243 -1.29372 -0.632362 0
M  V30 1951 H 190.196 -2.0651 -3.6733 0
M  V30 1952 H 188.92 -0.95004 -3.12477 0
M  V30 1953 H 187.579 -2.89467 -2.24954 0
M  V30 1954 H 187.227 -2.0701 -4.58428 0
M  V30 1955 H 186.927 -3.82195 -4.46319 0
M  V30 1956 H 188.451 -3.22869 -5.18255 0
M  V30 1957 H 189.865 -4.62348 -3.38979 0
M  V30 1958 H 188.262 -5.25006 -2.9067 0
M  V30 1959 H 189.332 -4.54893 -1.67929 0
M  V30 1960 N 190.675 0.682077 -1.42076 0
M  V30 1961 C 191.607 1.80755 -1.40926 0
M  V30 1962 C 192.62 1.59833 -0.309398 0
M  V30 1963 O 193.809 1.69087 -0.572014 0
M  V30 1964 C 190.909 3.17744 -1.17865 0
M  V30 1965 C 190.082 3.65578 -2.40149 0
M  V30 1966 C 189.141 4.81277 -2.12742 0
M  V30 1967 O 188.167 4.92197 -2.85887 0
M  V30 1968 N 189.369 5.69474 -1.12602 0
M  V30 1969 H 192.134 1.82229 -2.37935 0
M  V30 1970 H 189.695 0.864903 -1.36861 0
M  V30 1971 H 191.687 3.9279 -0.9746 0
M  V30 1972 H 190.257 3.11214 -0.294068 0
M  V30 1973 H 189.477 2.81291 -2.76169 0
M  V30 1974 H 190.765 3.94278 -3.21593 0
M  V30 1975 H 190.163 5.63297 -0.520899 0
M  V30 1976 H 188.72 6.44363 -0.981842 0
M  V30 1977 N 192.153 1.28127 0.917671 0
M  V30 1978 C 193.101 1.11569 2.04096 0
M  V30 1979 C 194.095 0.0360242 1.69362 0
M  V30 1980 O 195.301 0.194501 1.78946 0
M  V30 1981 H 191.676 0.344097 0.668656 0
M  V30 1982 H 193.647 2.06711 2.15205 0
M  V30 1983 C 192.396 0.790197 3.38602 0
M  V30 1984 H 191.719 1.61293 3.6582 0
M  V30 1985 H 193.159 0.714271 4.1794 0
M  V30 1986 C 191.618 -0.505897 3.3308 0
M  V30 1987 O 192.148 -1.53736 3.71117 0
M  V30 1988 N 190.354 -0.505193 2.86175 0
M  V30 1989 H 189.901 0.334621 2.55417 0
M  V30 1990 H 189.859 -1.37243 2.82863 0
M  V30 1991 N 193.631 -1.12557 1.10312 0
M  V30 1992 C 194.88 -1.83395 0.839588 0
M  V30 1993 C 195.193 -1.84939 -0.636929 0
M  V30 1994 O 196.399 -2.51761 -1.01631 0
M  V30 1995 C 194.855 -3.29303 1.45215 0
M  V30 1996 C 194.463 -3.36122 2.96186 0
M  V30 1997 C 196.207 -4.05121 1.26796 0
M  V30 1998 C 194.114 -4.76357 3.50483 0
M  V30 1999 H 193.044 -0.687133 0.310425 0
M  V30 2000 H 195.695 -1.26746 1.32694 0
M  V30 2001 H 194.077 -3.85812 0.892469 0
M  V30 2002 H 195.251 -2.89559 3.58458 0
M  V30 2003 H 193.566 -2.73776 3.13745 0
M  V30 2004 H 196.163 -5.08668 1.64806 0
M  V30 2005 H 196.506 -4.15773 0.209409 0
M  V30 2006 H 197.039 -3.54967 1.79563 0
M  V30 2007 H 193.778 -4.70899 4.55998 0
M  V30 2008 H 193.298 -5.23377 2.92978 0
M  V30 2009 H 194.977 -5.45294 3.48228 0
M  V30 2010 N 195.109 -0.891671 -1.2995 0
M  V30 2011 C 196.356 -0.513501 -1.95881 0
M  V30 2012 C 196.684 0.938655 -1.70351 0
M  V30 2013 O 195.939 1.67936 -1.00478 0
M  V30 2014 C 196.238 -0.742868 -3.49594 0
M  V30 2015 C 195.904 -2.17114 -3.95186 0
M  V30 2016 C 194.566 -2.56169 -4.07346 0
M  V30 2017 C 196.918 -3.10162 -4.18866 0
M  V30 2018 C 194.246 -3.87469 -4.4055 0
M  V30 2019 C 196.598 -4.41001 -4.53542 0
M  V30 2020 C 195.262 -4.79941 -4.63911 0
M  V30 2021 H 194.532 -0.187903 -0.71678 0
M  V30 2022 H 197.179 -1.1288 -1.54694 0
M  V30 2023 H 195.484 -0.044586 -3.91775 0
M  V30 2024 H 197.181 -0.429767 -3.9869 0
M  V30 2025 H 193.771 -1.85801 -3.86233 0
M  V30 2026 H 197.955 -2.81206 -4.08946 0
M  V30 2027 H 193.211 -4.17371 -4.46779 0
M  V30 2028 H 197.385 -5.13133 -4.70815 0
M  V30 2029 H 195.012 -5.81719 -4.89395 0
M  V30 2030 N 196.587 1.43421 -0.653314 0
M  V30 2031 C 197.835 2.01414 -0.166415 0
M  V30 2032 C 198.156 1.51803 1.22397 0
M  V30 2033 O 197.426 0.730693 1.81763 0
M  V30 2034 H 196.006 0.744703 -0.0585319 0
M  V30 2035 H 198.668 1.75629 -0.845003 0
M  V30 2036 H 197.764 3.11734 -0.151111 0
M  V30 2037 N 198.065 0.39524 1.52563 0
M  V30 2038 C 199.311 -0.185318 2.01952 0
M  V30 2039 C 199.644 -1.45964 1.28095 0
M  V30 2040 O 198.919 -1.90689 0.38315 0
M  V30 2041 C 199.202 -0.447193 3.57312 0
M  V30 2042 C 199.055 0.842828 4.41833 0
M  V30 2043 C 200.374 -1.23529 4.22408 0
M  V30 2044 H 197.493 -0.0658788 0.73405 0
M  V30 2045 H 200.135 0.525975 1.82575 0
M  V30 2046 H 198.285 -1.05312 3.73954 0
M  V30 2047 H 199.957 1.4795 4.36931 0
M  V30 2048 H 198.2 1.45686 4.08605 0
M  V30 2049 H 198.871 0.614165 5.48573 0
M  V30 2050 H 201.347 -0.722445 4.0978 0
M  V30 2051 H 200.223 -1.38727 5.3108 0
M  V30 2052 H 200.484 -2.25213 3.80436 0
M  V30 2053 N 199.544 -1.57102 0.125237 0
M  V30 2054 C 200.793 -1.94582 -0.531095 0
M  V30 2055 C 201.106 -1.01126 -1.6743 0
M  V30 2056 O 202.312 -1.28097 -2.39381 0
M  V30 2057 C 200.768 -3.45839 -0.996164 0
M  V30 2058 C 200.376 -4.47842 0.118926 0
M  V30 2059 C 202.12 -3.92227 -1.62352 0
M  V30 2060 C 200.027 -5.90284 -0.363192 0
M  V30 2061 H 198.957 -0.726391 -0.20217 0
M  V30 2062 H 201.608 -1.82339 0.206092 0
M  V30 2063 H 199.99 -3.53338 -1.78796 0
M  V30 2064 H 201.164 -4.52018 0.895358 0
M  V30 2065 H 199.479 -4.11243 0.653324 0
M  V30 2066 H 202.076 -4.96069 -1.99548 0
M  V30 2067 H 202.419 -3.32552 -2.50429 0
M  V30 2068 H 202.952 -3.87554 -0.897019 0
M  V30 2069 H 199.691 -6.53728 0.481679 0
M  V30 2070 H 199.211 -5.89515 -1.10597 0
M  V30 2071 H 200.89 -6.41752 -0.822377 0
M  V30 2072 N 201.022 0.148545 -1.56898 0
M  V30 2073 C 201.952 1.18524 -2.01182 0
M  V30 2074 C 202.933 1.4489 -0.891123 0
M  V30 2075 O 204.118 1.55836 -1.15882 0
M  V30 2076 C 201.248 2.51879 -2.39112 0
M  V30 2077 C 200.202 2.40038 -3.54353 0
M  V30 2078 C 199.528 3.78089 -3.78091 0
M  V30 2079 C 200.828 1.88577 -4.87069 0
M  V30 2080 H 202.522 0.817029 -2.88036 0
M  V30 2081 H 200.068 0.391575 -1.38574 0
M  V30 2082 H 202.021 3.24627 -2.68692 0
M  V30 2083 H 200.745 2.90532 -1.49193 0
M  V30 2084 H 199.404 1.69742 -3.24936 0
M  V30 2085 H 199.052 4.14175 -2.85426 0
M  V30 2086 H 198.752 3.71028 -4.55645 0
M  V30 2087 H 200.276 4.52387 -4.10095 0
M  V30 2088 H 201.69 2.51117 -5.15377 0
M  V30 2089 H 200.087 1.9241 -5.68417 0
M  V30 2090 H 201.157 0.84136 -4.77545 0
M  V30 2091 N 202.5 1.5196 0.417844 0
M  V30 2092 C 203.747 1.65591 1.16559 0
M  V30 2093 C 204.075 0.381565 1.90721 0
M  V30 2094 O 203.33 -0.635156 1.85106 0
M  V30 2095 C 203.629 2.82269 2.19223 0
M  V30 2096 C 203.295 4.20819 1.61933 0
M  V30 2097 C 201.957 4.58506 1.46033 0
M  V30 2098 C 204.309 5.07196 1.20008 0
M  V30 2099 C 201.637 5.80257 0.867113 0
M  V30 2100 C 203.989 6.29544 0.621086 0
M  V30 2101 C 202.653 6.65987 0.449144 0
M  V30 2102 H 201.923 0.605939 0.42652 0
M  V30 2103 H 204.57 1.86041 0.45397 0
M  V30 2104 H 202.875 2.56118 2.96498 0
M  V30 2105 H 204.572 2.90012 2.76936 0
M  V30 2106 H 201.162 3.91116 1.7529 0
M  V30 2107 H 205.346 4.7867 1.31105 0
M  V30 2108 H 200.602 6.07124 0.721833 0
M  V30 2109 H 204.776 6.95805 0.287798 0
M  V30 2110 H 202.403 7.60199 -0.012632 0
M  V30 2111 N 203.978 -0.674533 1.42435 0
M  V30 2112 C 204.908 -1.80009 1.48724 0
M  V30 2113 C 205.889 -1.6659 0.343793 0
M  V30 2114 O 207.074 -1.86007 0.558137 0
M  V30 2115 C 204.204 -3.18306 1.38919 0
M  V30 2116 C 203.158 -3.46461 2.51294 0
M  V30 2117 C 202.484 -4.84335 2.26547 0
M  V30 2118 C 203.784 -3.43328 3.93603 0
M  V30 2119 H 205.478 -1.75004 2.42928 0
M  V30 2120 H 203.024 -0.840533 1.16923 0
M  V30 2121 H 204.977 -3.9678 1.41927 0
M  V30 2122 H 203.701 -3.2399 0.412094 0
M  V30 2123 H 202.36 -2.70348 2.47604 0
M  V30 2124 H 202.008 -4.86669 1.2713 0
M  V30 2125 H 201.708 -5.04136 3.01861 0
M  V30 2126 H 203.232 -5.65094 2.31304 0
M  V30 2127 H 204.646 -4.11772 3.98894 0
M  V30 2128 H 203.043 -3.74664 4.68771 0
M  V30 2129 H 204.113 -2.41897 4.20255 0
M  V30 2130 N 205.456 -1.28612 -0.910864 0
M  V30 2131 C 206.872 -1.06381 -1.18976 0
M  V30 2132 C 207.072 0.191998 -2.00583 0
M  V30 2133 O 206.128 0.892869 -2.36187 0
M  V30 2134 C 207.441 -2.31295 -1.92154 0
M  V30 2135 C 208.989 -2.36503 -2.05025 0
M  V30 2136 C 209.464 -3.61191 -2.81612 0
M  V30 2137 N 210.955 -3.61847 -2.89172 0
M  V30 2138 C 211.69 -4.55004 -3.4894 0
M  V30 2139 N 211.186 -5.58482 -4.09963 0
M  V30 2140 N 212.979 -4.42594 -3.46506 0
M  V30 2141 H 205.13 -2.09221 -0.366094 0
M  V30 2142 H 207.393 -0.921003 -0.224629 0
M  V30 2143 H 207.099 -3.228 -1.39618 0
M  V30 2144 H 206.973 -2.37934 -2.9269 0
M  V30 2145 H 209.36 -1.45494 -2.5674 0
M  V30 2146 H 209.441 -2.33857 -1.03657 0
M  V30 2147 H 209.085 -4.52545 -2.30576 0
M  V30 2148 H 209.015 -3.61092 -3.83302 0
M  V30 2149 H 211.506 -2.87022 -2.45819 0
M  V30 2150 H 211.819 -6.25704 -4.53557 0
M  V30 2151 H 210.164 -5.62305 -4.08459 0
M  V30 2152 H 213.355 -3.60953 -2.98045 0
M  V30 2153 H 213.528 -5.15381 -3.92793 0
M  V30 2154 N 206.934 1.1197 -1.10907 0
M  V30 2155 C 207.864 2.19928 -0.784473 0
M  V30 2156 C 208.845 1.6833 0.244726 0
M  V30 2157 O 210.03 1.93892 0.109418 0
M  V30 2158 C 207.16 3.46597 -0.220827 0
M  V30 2159 C 206.114 4.11376 -1.18127 0
M  V30 2160 C 205.44 5.32554 -0.478594 0
M  V30 2161 C 206.74 4.56945 -2.52979 0
M  V30 2162 H 208.434 2.47337 -1.68715 0
M  V30 2163 H 205.98 1.18879 -0.812642 0
M  V30 2164 H 207.933 4.21396 0.0184278 0
M  V30 2165 H 206.657 3.1863 0.717113 0
M  V30 2166 H 205.316 3.38564 -1.40606 0
M  V30 2167 H 204.964 5.00856 0.463976 0
M  V30 2168 H 204.664 5.76844 -1.11912 0
M  V30 2169 H 206.188 6.10096 -0.248 0
M  V30 2170 H 207.602 5.23093 -2.3462 0
M  V30 2171 H 205.999 5.1203 -3.12962 0
M  V30 2172 H 207.069 3.70676 -3.12614 0
M  V30 2173 N 208.412 0.89855 1.29475 0
M  V30 2174 C 209.64 0.539261 1.99749 0
M  V30 2175 C 210.055 -0.875716 1.67262 0
M  V30 2176 O 209.412 -1.57786 0.917049 0
M  V30 2177 C 209.463 0.72061 3.54245 0
M  V30 2178 O 209.184 2.07989 3.8558 0
M  V30 2179 C 210.685 0.366118 4.41786 0
M  V30 2180 H 207.905 0.207047 0.638258 0
M  V30 2181 H 210.449 1.20758 1.65039 0
M  V30 2182 H 208.604 0.0994862 3.87272 0
M  V30 2183 H 209.018 2.10841 4.80257 0
M  V30 2184 H 210.492 0.543848 5.49314 0
M  V30 2185 H 210.969 -0.696763 4.33638 0
M  V30 2186 H 211.575 0.964135 4.14228 0
M  V30 2187 N 209.89 -1.43072 0.660911 0
M  V30 2188 C 211.136 -2.02545 0.186337 0
M  V30 2189 C 211.491 -1.51253 -1.18913 0
M  V30 2190 O 210.784 -0.699167 -1.78388 0
M  V30 2191 C 210.978 -3.57103 0.145563 0
M  V30 2192 C 210.807 -4.23393 1.51554 0
M  V30 2193 C 209.577 -4.59144 2.10984 0
M  V30 2194 C 211.775 -4.51897 2.45548 0
M  V30 2195 N 209.757 -5.10545 3.40907 0
M  V30 2196 C 211.128 -5.04698 3.6011 0
M  V30 2197 C 213.183 -4.33872 2.44253 0
M  V30 2198 C 211.886 -5.41371 4.73613 0
M  V30 2199 C 213.912 -4.71612 3.56842 0
M  V30 2200 C 213.274 -5.24553 4.70131 0
M  V30 2201 H 209.373 -0.773823 0.112792 0
M  V30 2202 H 211.957 -1.74137 0.870885 0
M  V30 2203 H 210.128 -3.85059 -0.508353 0
M  V30 2204 H 211.86 -4.03264 -0.340598 0
M  V30 2205 H 208.615 -4.4444 1.63615 0
M  V30 2206 H 209.039 -5.40689 4.07411 0
M  V30 2207 H 213.681 -3.92208 1.579 0
M  V30 2208 H 211.399 -5.81975 5.60652 0
M  V30 2209 H 214.985 -4.59354 3.57051 0
M  V30 2210 H 213.865 -5.53213 5.5581 0
M  V30 2211 N 211.368 -0.403325 -1.52352 0
M  V30 2212 C 212.301 0.469463 -2.23319 0
M  V30 2213 C 213.279 1.05272 -1.23922 0
M  V30 2214 O 214.463 1.10169 -1.52954 0
M  V30 2215 C 211.59 1.6511 -2.9573 0
M  V30 2216 C 210.636 1.19178 -4.0951 0
M  V30 2217 S 211.469 0.161718 -5.35256 0
M  V30 2218 C 212.625 1.34882 -6.11194 0
M  V30 2219 H 212.858 -0.133134 -2.97002 0
M  V30 2220 H 210.391 -0.187588 -1.53256 0
M  V30 2221 H 212.349 2.3287 -3.38056 0
M  V30 2222 H 211.01 2.22503 -2.21701 0
M  V30 2223 H 210.203 2.07444 -4.59329 0
M  V30 2224 H 209.805 0.592911 -3.6927 0
M  V30 2225 H 212.097 2.27345 -6.38217 0
M  V30 2226 H 213.04 0.89128 -7.02468 0
M  V30 2227 H 213.448 1.57198 -5.42171 0
M  V30 2228 N 212.846 1.57033 -0.133567 0
M  V30 2229 C 214.092 1.95976 0.521649 0
M  V30 2230 C 214.425 1.01779 1.65393 0
M  V30 2231 O 213.7 0.0576581 1.94415 0
M  V30 2232 C 213.983 3.44738 1.04057 0
M  V30 2233 C 213.836 4.49711 -0.0892897 0
M  V30 2234 C 215.155 3.95682 1.92675 0
M  V30 2235 H 212.274 0.712579 0.188149 0
M  V30 2236 H 214.916 1.88813 -0.212076 0
M  V30 2237 H 213.066 3.50973 1.66583 0
M  V30 2238 H 214.738 4.55565 -0.725152 0
M  V30 2239 H 212.981 4.27261 -0.750378 0
M  V30 2240 H 213.652 5.51099 0.315284 0
M  V30 2241 H 216.128 3.91841 1.39998 0
M  V30 2242 H 215.004 5.00262 2.25897 0
M  V30 2243 H 215.265 3.37239 2.85872 0
M  V30 2244 N 214.325 -0.140222 1.56975 0
M  V30 2245 C 215.573 -0.850005 1.83356 0
M  V30 2246 C 215.894 -1.81399 0.71551 0
M  V30 2247 O 215.164 -1.94136 -0.262294 0
M  V30 2248 H 213.744 -0.316886 0.676456 0
M  V30 2249 H 216.406 -0.132608 1.94448 0
M  V30 2250 H 215.502 -1.40814 2.78528 0
M  V30 2251 N 215.803 -1.52179 -0.40978 0
M  V30 2252 C 217.031 -1.70054 -1.17853 0
M  V30 2253 C 217.446 -0.409735 -1.843 0
M  V30 2254 O 216.803 0.614183 -1.71855 0
M  V30 2255 C 216.854 -2.83568 -2.24213 0
M  V30 2256 O 216.575 -4.0765 -1.60478 0
M  V30 2257 C 218.076 -3.12947 -3.13973 0
M  V30 2258 H 215.296 -0.569917 -0.354169 0
M  V30 2259 H 217.84 -1.98734 -0.482198 0
M  V30 2260 H 215.995 -2.57409 -2.89516 0
M  V30 2261 H 216.409 -4.70899 -2.30986 0
M  V30 2262 H 217.883 -3.95889 -3.84677 0
M  V30 2263 H 218.36 -2.26472 -3.76307 0
M  V30 2264 H 218.966 -3.40868 -2.5434 0
M  V30 2265 N 217.281 0.66697 -1.42791 0
M  V30 2266 C 218.244 1.76211 -1.46568 0
M  V30 2267 C 219.244 1.56896 -0.352196 0
M  V30 2268 O 220.434 1.63044 -0.613364 0
M  V30 2269 C 217.566 3.14935 -1.30494 0
M  V30 2270 H 218.759 1.74247 -2.44086 0
M  V30 2271 H 216.312 0.877342 -1.29354 0
M  V30 2272 H 217.047 3.2252 -0.339301 0
M  V30 2273 H 216.832 3.30359 -2.11199 0
M  V30 2274 H 218.322 3.94821 -1.36038 0
M  V30 2275 N 218.759 1.29093 0.90403 0
M  V30 2276 C 220.007 1.16583 1.65085 0
M  V30 2277 C 220.328 -0.283933 1.92922 0
M  V30 2278 O 219.598 -1.19509 1.55224 0
M  V30 2279 H 218.178 0.428467 0.611903 0
M  V30 2280 H 220.84 1.61959 1.08422 0
M  V30 2281 H 219.936 1.71266 2.6091 0
M  V30 2282 N 220.237 -1.11381 1.11499 0
M  V30 2283 C 221.483 -1.83403 0.865512 0
M  V30 2284 C 221.816 -1.84459 -0.607329 0
M  V30 2285 O 221.091 -1.29811 -1.44842 0
M  V30 2286 C 221.374 -3.30552 1.42855 0
M  V30 2287 C 221.227 -3.37886 2.96906 0
M  V30 2288 C 222.546 -4.26643 1.08 0
M  V30 2289 H 219.665 -0.665879 0.31587 0
M  V30 2290 H 222.307 -1.30601 1.37998 0
M  V30 2291 H 220.457 -3.75648 0.990985 0
M  V30 2292 H 222.129 -3.01343 3.49271 0
M  V30 2293 H 220.372 -2.78088 3.32941 0
M  V30 2294 H 221.043 -4.41458 3.31389 0
M  V30 2295 H 223.519 -3.89729 1.45775 0
M  V30 2296 H 222.395 -5.27986 1.50072 0
M  V30 2297 H 222.656 -4.42099 -0.00915037 0
M  V30 2298 N 221.715 -0.905404 -1.28997 0
M  V30 2299 C 222.645 -0.404212 -2.29975 0
M  V30 2300 C 223.626 0.523784 -1.61835 0
M  V30 2301 O 224.811 0.433298 -1.89304 0
M  V30 2302 C 221.941 0.364042 -3.45387 0
M  V30 2303 C 220.895 -0.474048 -4.25367 0
M  V30 2304 C 220.221 0.422045 -5.33032 0
M  V30 2305 C 221.521 -1.72696 -4.92923 0
M  V30 2306 H 223.215 -1.24807 -2.72146 0
M  V30 2307 H 220.761 -0.601585 -1.30832 0
M  V30 2308 H 222.714 0.725447 -4.15109 0
M  V30 2309 H 221.438 1.24174 -3.02074 0
M  V30 2310 H 220.097 -0.81786 -3.57361 0
M  V30 2311 H 219.745 1.29804 -4.85963 0
M  V30 2312 H 219.445 -0.135057 -5.87445 0
M  V30 2313 H 220.969 0.779517 -6.05604 0
M  V30 2314 H 222.383 -1.43495 -5.55051 0
M  V30 2315 H 220.78 -2.22582 -5.57295 0
M  V30 2316 H 221.85 -2.45964 -4.17887 0
M  V30 2317 N 223.193 1.4272 -0.668489 0
M  V30 2318 C 224.125 2.2914 0.052613 0
M  V30 2319 C 225.138 1.43339 0.771857 0
M  V30 2320 O 226.327 1.67123 0.627067 0
M  V30 2321 C 223.427 3.20618 1.09804 0
M  V30 2322 C 222.6 4.35039 0.45389 0
M  V30 2323 C 221.659 5.07282 1.39825 0
M  V30 2324 O 220.685 5.62024 0.900978 0
M  V30 2325 N 221.887 5.12206 2.73176 0
M  V30 2326 H 224.652 2.91668 -0.689209 0
M  V30 2327 H 222.213 1.53577 -0.512422 0
M  V30 2328 H 224.205 3.65815 1.73094 0
M  V30 2329 H 222.775 2.59585 1.74167 0
M  V30 2330 H 221.995 3.92567 -0.358396 0
M  V30 2331 H 223.283 5.088 0.00486972 0
M  V30 2332 H 222.681 4.6913 3.16122 0
M  V30 2333 H 221.238 5.61069 3.31729 0
M  V30 2334 N 224.671 0.411399 1.52136 0
M  V30 2335 C 225.634 -0.401089 2.25663 0
M  V30 2336 C 226.634 -0.971732 1.28117 0
M  V30 2337 O 227.824 -0.850254 1.52041 0
M  V30 2338 C 224.956 -1.56483 3.02863 0
M  V30 2339 H 226.149 0.24295 2.98914 0
M  V30 2340 H 223.702 0.163968 1.55438 0
M  V30 2341 H 224.437 -2.24567 2.33967 0
M  V30 2342 H 224.222 -1.16211 3.74483 0
M  V30 2343 H 225.712 -2.13951 3.58629 0
M  V30 2344 N 226.149 -1.5696 0.141893 0
M  V30 2345 C 227.079 -2.19516 -0.795936 0
M  V30 2346 C 228.06 -1.14187 -1.26077 0
M  V30 2347 O 229.245 -1.42511 -1.31925 0
M  V30 2348 C 226.375 -2.81272 -2.03723 0
M  V30 2349 C 225.329 -3.92384 -1.70936 0
M  V30 2350 C 224.655 -4.41052 -3.02287 0
M  V30 2351 C 225.955 -5.13403 -0.959954 0
M  V30 2352 H 227.649 -2.98138 -0.274596 0
M  V30 2353 H 225.195 -1.43406 -0.130636 0
M  V30 2354 H 227.148 -3.237 -2.69808 0
M  V30 2355 H 225.872 -1.99973 -2.58221 0
M  V30 2356 H 224.531 -3.50566 -1.07232 0
M  V30 2357 H 224.179 -3.56582 -3.54765 0
M  V30 2358 H 223.879 -5.15993 -2.81114 0
M  V30 2359 H 225.403 -4.86146 -3.69451 0
M  V30 2360 H 226.817 -5.52706 -1.52279 0
M  V30 2361 H 225.214 -5.94073 -0.848357 0
M  V30 2362 H 226.284 -4.84875 0.0492434 0
M  V30 2363 N 227.627 0.131896 -1.57047 0
M  V30 2364 C 228.557 1.16384 -2.02428 0
M  V30 2365 C 229.538 1.43936 -0.90644 0
M  V30 2366 O 230.723 1.54599 -1.17528 0
M  V30 2367 C 227.853 2.49328 -2.4177 0
M  V30 2368 C 226.807 2.36266 -3.56879 0
M  V30 2369 C 226.133 3.74057 -3.8208 0
M  V30 2370 C 227.433 1.834 -4.89042 0
M  V30 2371 H 229.127 0.786433 -2.88887 0
M  V30 2372 H 226.673 0.376855 -1.38981 0
M  V30 2373 H 228.626 3.21759 -2.7212 0
M  V30 2374 H 227.35 2.88934 -1.52266 0
M  V30 2375 H 226.009 1.66286 -3.26718 0
M  V30 2376 H 225.657 4.11125 -2.89803 0
M  V30 2377 H 225.357 3.66174 -4.59554 0
M  V30 2378 H 226.881 4.48012 -4.1487 0
M  V30 2379 H 228.295 2.45636 -5.18011 0
M  V30 2380 H 226.692 1.8637 -5.70426 0
M  V30 2381 H 227.762 0.790662 -4.7841 0
M  V30 2382 N 229.106 1.52395 0.401703 0
M  V30 2383 C 230.355 1.66044 1.14509 0
M  V30 2384 C 230.668 0.400216 1.91462 0
M  V30 2385 O 231.874 0.416632 2.68284 0
M  V30 2386 C 230.33 2.93388 2.0845 0
M  V30 2387 C 229.938 4.26545 1.36978 0
M  V30 2388 C 231.682 3.16402 2.83001 0
M  V30 2389 C 229.589 5.45007 2.29611 0
M  V30 2390 H 228.519 0.618562 0.431158 0
M  V30 2391 H 231.17 1.78886 0.40892 0
M  V30 2392 H 229.552 2.74263 2.8565 0
M  V30 2393 H 230.726 4.56179 0.650916 0
M  V30 2394 H 229.041 4.09692 0.74438 0
M  V30 2395 H 231.638 4.02085 3.52465 0
M  V30 2396 H 231.981 2.30943 3.46368 0
M  V30 2397 H 232.514 3.36034 2.12898 0
M  V30 2398 H 229.253 6.32835 1.70879 0
M  V30 2399 H 228.773 5.19702 2.9945 0
M  V30 2400 H 230.452 5.7838 2.89974 0
M  V30 2401 N 230.584 -0.659388 1.43143 0
M  V30 2402 C 231.83 -1.42145 1.44647 0
M  V30 2403 C 232.163 -1.9408 0.0681907 0
M  V30 2404 O 231.438 -1.71899 -0.910007 0
M  V30 2405 C 231.721 -2.60735 2.48373 0
M  V30 2406 C 231.574 -2.14332 3.95451 0
M  V30 2407 C 232.893 -3.62951 2.48906 0
M  V30 2408 H 230.012 -0.51552 0.526696 0
M  V30 2409 H 232.654 -0.748069 1.74654 0
M  V30 2410 H 230.804 -3.18184 2.22916 0
M  V30 2411 H 232.476 -1.61932 4.31944 0
M  V30 2412 H 230.719 -1.4576 4.08578 0
M  V30 2413 H 231.39 -2.99583 4.63631 0
M  V30 2414 H 233.866 -3.1525 2.71582 0
M  V30 2415 H 232.742 -4.43487 3.23435 0
M  V30 2416 H 233.003 -4.15126 1.52061 0
M  V30 2417 N 232.062 -1.29571 -0.897171 0
M  V30 2418 C 232.992 -1.17473 -2.01798 0
M  V30 2419 C 233.973 -0.068323 -1.69963 0
M  V30 2420 O 235.158 -0.248239 -1.92607 0
M  V30 2421 C 232.288 -0.853099 -3.36659 0
M  V30 2422 C 231.242 -1.9161 -3.82713 0
M  V30 2423 C 230.568 -1.44773 -5.14728 0
M  V30 2424 C 231.868 -3.32535 -4.02763 0
M  V30 2425 H 233.562 -2.11237 -2.12177 0
M  V30 2426 H 231.108 -1.01699 -1.01948 0
M  V30 2427 H 233.061 -0.755165 -4.14578 0
M  V30 2428 H 231.785 0.120236 -3.26379 0
M  V30 2429 H 230.444 -2.00346 -3.07013 0
M  V30 2430 H 230.092 -0.462995 -5.00865 0
M  V30 2431 H 229.792 -2.15865 -5.46513 0
M  V30 2432 H 231.316 -1.36334 -5.95185 0
M  V30 2433 H 232.73 -3.26626 -4.71156 0
M  V30 2434 H 231.127 -4.01607 -4.45905 0
M  V30 2435 H 232.197 -3.75326 -3.07016 0
M  V30 2436 N 233.54 1.10788 -1.12088 0
M  V30 2437 C 234.789 1.82036 -0.868659 0
M  V30 2438 C 235.102 1.85929 0.607426 0
M  V30 2439 O 236.308 2.53346 0.97613 0
M  V30 2440 C 234.764 3.26951 -1.50435 0
M  V30 2441 C 234.372 3.31367 -3.01496 0
M  V30 2442 C 236.116 4.03053 -1.33225 0
M  V30 2443 C 234.023 4.7072 -3.58017 0
M  V30 2444 H 232.953 0.682108 -0.321318 0
M  V30 2445 H 235.604 1.24618 -1.34694 0
M  V30 2446 H 233.986 3.84343 -0.953735 0
M  V30 2447 H 235.16 2.83819 -3.6302 0
M  V30 2448 H 233.475 2.6875 -3.18061 0
M  V30 2449 H 236.072 5.05981 -1.72878 0
M  V30 2450 H 236.415 4.15387 -0.275529 0
M  V30 2451 H 236.948 3.52066 -1.85188 0
M  V30 2452 H 233.687 4.63585 -4.63432 0
M  V30 2453 H 233.207 5.1865 -3.01268 0
M  V30 2454 H 234.886 5.39685 -3.56859 0
M  V30 2455 N 235.018 0.912232 1.28515 0
M  V30 2456 C 236.258 0.551677 1.96814 0
M  V30 2457 C 236.622 -0.887825 1.7024 0
M  V30 2458 O 237.823 -1.35588 2.32098 0
M  V30 2459 C 236.094 0.850555 3.47132 0
M  V30 2460 S 237.653 0.59619 4.34731 0
M  V30 2461 H 234.471 0.204191 0.681049 0
M  V30 2462 H 237.073 1.17736 1.56072 0
M  V30 2463 H 235.777 1.8962 3.63968 0
M  V30 2464 H 235.308 0.213471 3.9282 0
M  V30 2465 H 237.323 -0.553154 4.93107 0
M  V30 2466 N 236.496 -1.42363 0.676048 0
M  V30 2467 C 237.736 -2.03392 0.20273 0
M  V30 2468 C 238.1 -1.52306 -1.16906 0
M  V30 2469 O 239.301 -2.05129 -1.73711 0
M  V30 2470 C 237.572 -3.56614 0.236947 0
M  V30 2471 S 239.131 -4.38489 -0.165186 0
M  V30 2472 H 235.949 -0.70611 0.0832418 0
M  V30 2473 H 238.551 -1.74093 0.88948 0
M  V30 2474 H 237.255 -3.91293 1.23767 0
M  V30 2475 H 236.786 -3.90587 -0.469596 0
M  V30 2476 H 238.801 -4.76093 -1.39822 0
M  V30 2477 N 237.974 -0.419461 -1.51915 0
M  V30 2478 C 239.214 0.152336 -2.03832 0
M  V30 2479 C 239.578 1.41501 -1.29775 0
M  V30 2480 O 240.779 2.06591 -1.7197 0
M  V30 2481 C 239.05 0.383812 -3.55333 0
M  V30 2482 S 240.609 0.921577 -4.29013 0
M  V30 2483 H 237.427 0.0402193 -0.709862 0
M  V30 2484 H 240.029 -0.574758 -1.8686 0
M  V30 2485 H 238.733 -0.541794 -4.06808 0
M  V30 2486 H 238.264 1.13849 -3.76566 0
M  V30 2487 H 240.279 2.20108 -4.4471 0
M  V30 2488 N 239.452 1.56882 -0.150215 0
M  V30 2489 C 240.692 1.98119 0.502804 0
M  V30 2490 C 241.056 1.03327 1.61826 0
M  V30 2491 O 242.257 1.33621 2.33236 0
M  V30 2492 C 240.528 3.43329 0.992988 0
M  V30 2493 S 242.087 4.0659 1.65015 0
M  V30 2494 H 238.905 0.692189 0.162467 0
M  V30 2495 H 241.507 1.93988 -0.242689 0
M  V30 2496 H 240.211 4.10046 0.170436 0
M  V30 2497 H 239.742 3.5118 1.77303 0
M  V30 2498 H 241.757 3.99906 2.93752 0
M  V30 2499 N 240.93 -0.123565 1.57115 0
M  V30 2500 C 242.158 -0.846461 1.88793 0
M  V30 2501 C 242.573 -1.73652 0.740976 0
M  V30 2502 O 241.93 -1.80207 -0.288393 0
M  V30 2503 C 241.981 -1.6837 3.19897 0
M  V30 2504 O 241.702 -0.829477 4.30176 0
M  V30 2505 C 243.203 -2.51214 3.65248 0
M  V30 2506 H 240.423 -0.243573 0.625231 0
M  V30 2507 H 242.967 -0.109324 2.04208 0
M  V30 2508 H 241.122 -2.37364 3.06165 0
M  V30 2509 H 241.536 -1.40651 5.0529 0
M  V30 2510 H 243.01 -3.05497 4.59756 0
M  V30 2511 H 243.487 -3.28359 2.9168 0
M  V30 2512 H 244.093 -1.8747 3.81752 0
M  V30 2513 N 242.408 -1.52605 -0.393616 0
M  V30 2514 C 243.338 -1.80022 -1.48709 0
M  V30 2515 C 244.319 -0.651995 -1.57108 0
M  V30 2516 O 245.504 -0.89913 -1.72132 0
M  V30 2517 C 242.634 -1.96492 -2.86371 0
M  V30 2518 C 241.588 -3.12161 -2.92813 0
M  V30 2519 C 240.914 -3.13877 -4.3288 0
M  V30 2520 C 242.214 -4.51322 -2.6288 0
M  V30 2521 H 243.908 -2.71589 -1.26015 0
M  V30 2522 H 241.454 -1.30684 -0.604778 0
M  V30 2523 H 243.407 -2.14255 -3.62867 0
M  V30 2524 H 242.131 -1.01611 -3.10391 0
M  V30 2525 H 240.79 -2.94173 -2.18764 0
M  V30 2526 H 240.438 -2.16687 -4.53933 0
M  V30 2527 H 240.138 -3.91576 -4.38112 0
M  V30 2528 H 241.662 -3.33789 -5.1129 0
M  V30 2529 H 243.076 -4.69435 -3.29096 0
M  V30 2530 H 241.473 -5.31053 -2.79468 0
M  V30 2531 H 242.543 -4.58353 -1.58242 0
M  V30 2532 N 243.887 0.651787 -1.4349 0
M  V30 2533 C 244.817 1.77621 -1.51569 0
M  V30 2534 C 245.798 1.66022 -0.370253 0
M  V30 2535 O 246.983 1.85095 -0.587658 0
M  V30 2536 C 244.113 3.16056 -1.43966 0
M  V30 2537 C 243.067 3.4242 -2.56774 0
M  V30 2538 C 242.393 4.8067 -2.34223 0
M  V30 2539 C 243.693 3.37023 -3.99015 0
M  V30 2540 H 245.387 1.71117 -2.45681 0
M  V30 2541 H 242.933 0.821825 -1.18246 0
M  V30 2542 H 244.886 3.94472 -1.48221 0
M  V30 2543 H 243.61 3.23293 -0.463586 0
M  V30 2544 H 242.269 2.66375 -2.51873 0
M  V30 2545 H 241.917 4.84585 -1.34856 0
M  V30 2546 H 241.617 4.9927 -3.09844 0
M  V30 2547 H 243.141 5.61342 -2.40265 0
M  V30 2548 H 244.555 4.05374 -4.05395 0
M  V30 2549 H 242.952 3.67159 -4.74673 0
M  V30 2550 H 244.022 2.3518 -4.2405 0
M  V30 2551 N 245.365 1.30045 0.890287 0
M  V30 2552 C 246.593 1.21472 1.67487 0
M  V30 2553 C 247.008 -0.223241 1.87476 0
M  V30 2554 O 246.365 -1.14828 1.41847 0
M  V30 2555 C 246.416 1.93394 3.05419 0
M  V30 2556 O 246.137 3.31576 2.86337 0
M  V30 2557 C 247.638 1.91414 3.99844 0
M  V30 2558 H 244.858 0.420604 0.522813 0
M  V30 2559 H 247.402 1.7158 1.11268 0
M  V30 2560 H 245.557 1.47099 3.58386 0
M  V30 2561 H 245.971 3.67929 3.73802 0
M  V30 2562 H 247.445 2.46285 4.94012 0
M  V30 2563 H 247.922 0.891833 4.3005 0
M  V30 2564 H 248.528 2.37496 3.52811 0
M  V30 2565 N 246.843 -1.10192 1.12674 0
M  V30 2566 C 247.806 -2.14786 0.799979 0
M  V30 2567 C 248.806 -1.59711 -0.18685 0
M  V30 2568 O 249.996 -1.74156 0.0392558 0
M  V30 2569 C 247.128 -3.40374 0.189228 0
M  V30 2570 H 248.321 -2.45203 1.72671 0
M  V30 2571 H 245.874 -1.25597 0.930326 0
M  V30 2572 H 246.609 -3.15577 -0.747107 0
M  V30 2573 H 246.394 -3.81637 0.899766 0
M  V30 2574 H 247.884 -4.17594 -0.0228143 0
M  V30 2575 N 248.321 -0.919034 -1.28029 0
M  V30 2576 C 249.57 -0.550802 -1.94034 0
M  V30 2577 C 249.883 0.910877 -1.73096 0
M  V30 2578 O 251.089 1.3875 -2.33368 0
M  V30 2579 C 249.545 -0.934249 -3.47563 0
M  V30 2580 C 249.153 -2.41602 -3.7727 0
M  V30 2581 C 250.897 -0.636854 -4.19696 0
M  V30 2582 C 248.804 -2.73932 -5.24133 0
M  V30 2583 H 247.734 -0.202273 -0.726362 0
M  V30 2584 H 250.385 -1.11867 -1.45458 0
M  V30 2585 H 248.767 -0.295115 -3.94899 0
M  V30 2586 H 249.941 -3.10233 -3.40723 0
M  V30 2587 H 248.256 -2.68441 -3.18321 0
M  V30 2588 H 250.853 -0.855005 -5.2782 0
M  V30 2589 H 251.196 0.425575 -4.14119 0
M  V30 2590 H 251.729 -1.23469 -3.78154 0
M  V30 2591 H 248.468 -3.79049 -5.34792 0
M  V30 2592 H 247.988 -2.09942 -5.61858 0
M  V30 2593 H 249.667 -2.61215 -5.91925 0
M  V30 2594 N 249.799 1.42003 -0.683588 0
M  V30 2595 C 251.024 2.06265 -0.216647 0
M  V30 2596 C 251.449 1.51059 1.12083 0
M  V30 2597 O 250.807 0.632638 1.69904 0
M  V30 2598 C 250.855 3.60191 -0.171759 0
M  V30 2599 O 249.959 4.03396 0.857069 0
M  V30 2600 H 249.3 0.65502 -0.108834 0
M  V30 2601 H 251.83 1.81982 -0.935077 0
M  V30 2602 H 251.84 4.08 0.0014303 0
M  V30 2603 H 250.515 3.99743 -1.14796 0
M  V30 2604 H 249.092 3.67117 0.654208 0
M  V30 2605 N 251.277 0.427512 1.51691 0
M  V30 2606 C 252.21 -0.433876 2.24037 0
M  V30 2607 C 253.188 -1.03287 1.25581 0
M  V30 2608 O 254.372 -1.07722 1.54688 0
M  V30 2609 C 251.499 -1.60385 2.98319 0
M  V30 2610 C 250.545 -1.12648 4.11355 0
M  V30 2611 S 251.378 -0.076543 5.35445 0
M  V30 2612 C 252.534 -1.25141 6.13262 0
M  V30 2613 H 252.767 0.180367 2.96752 0
M  V30 2614 H 250.3 0.211946 1.52938 0
M  V30 2615 H 252.258 -2.27462 3.41718 0
M  V30 2616 H 250.919 -2.18948 2.25213 0
M  V30 2617 H 250.112 -2.0011 4.62571 0
M  V30 2618 H 249.714 -0.534088 3.70167 0
M  V30 2619 H 252.006 -2.17162 6.41753 0
M  V30 2620 H 252.949 -0.779411 7.03797 0
M  V30 2621 H 253.357 -1.48553 5.44603 0
M  V30 2622 N 252.755 -1.56801 0.158532 0
M  V30 2623 C 253.98 -2.01295 -0.499516 0
M  V30 2624 C 254.405 -1.03799 -1.56867 0
M  V30 2625 O 253.763 -0.0155162 -1.81293 0
M  V30 2626 C 253.811 -3.44469 -1.06647 0
M  V30 2627 O 252.915 -3.50012 -2.18095 0
M  V30 2628 H 252.256 -0.652884 -0.12099 0
M  V30 2629 H 254.786 -2.02958 0.258661 0
M  V30 2630 H 254.796 -3.8351 -1.39227 0
M  V30 2631 H 253.471 -4.14932 -0.283581 0
M  V30 2632 H 252.048 -3.22822 -1.86656 0
M  V30 2633 N 254.233 0.115231 -1.57178 0
M  V30 2634 C 255.196 1.12526 -1.99676 0
M  V30 2635 C 256.196 1.34095 -0.88742 0
M  V30 2636 O 257.386 1.30548 -1.15337 0
M  V30 2637 C 254.518 2.4789 -2.34015 0
M  V30 2638 H 255.711 0.759912 -2.90113 0
M  V30 2639 H 253.264 0.359648 -1.52106 0
M  V30 2640 H 253.999 2.89339 -1.4647 0
M  V30 2641 H 253.784 2.33588 -3.14927 0
M  V30 2642 H 255.274 3.20575 -2.67622 0
M  V30 2643 N 255.711 1.52812 0.385517 0
M  V30 2644 C 256.96 1.67249 1.12741 0
M  V30 2645 C 257.273 0.4205 1.91027 0
M  V30 2646 O 258.479 0.445064 2.67827 0
M  V30 2647 C 256.935 2.95583 2.05326 0
M  V30 2648 C 256.543 4.27974 1.32447 0
M  V30 2649 C 258.287 3.19386 2.7963 0
M  V30 2650 C 256.194 5.47412 2.23818 0
M  V30 2651 H 255.124 0.6231 0.424573 0
M  V30 2652 H 257.775 1.79309 0.389924 0
M  V30 2653 H 256.157 2.77277 2.82725 0
M  V30 2654 H 257.331 4.56844 0.602495 0
M  V30 2655 H 255.646 4.10459 0.700885 0
M  V30 2656 H 258.243 4.05801 3.48181 0
M  V30 2657 H 258.586 2.34604 3.43899 0
M  V30 2658 H 259.119 3.38274 2.09322 0
M  V30 2659 H 255.858 6.34612 1.64157 0
M  V30 2660 H 255.378 5.22849 2.93921 0
M  V30 2661 H 257.057 5.81423 2.83824 0
M  V30 2662 N 257.189 -0.644168 1.43834 0
M  V30 2663 C 258.152 -1.73857 1.49353 0
M  V30 2664 C 259.152 -1.56315 0.377112 0
M  V30 2665 O 260.342 -1.62048 0.639226 0
M  V30 2666 C 257.474 -3.12819 1.35488 0
M  V30 2667 H 258.667 -1.70342 2.46827 0
M  V30 2668 H 256.22 -0.856652 1.30733 0
M  V30 2669 H 256.955 -3.2194 0.390569 0
M  V30 2670 H 256.74 -3.26958 2.16428 0
M  V30 2671 H 258.23 -3.92606 1.42302 0
M  V30 2672 N 258.668 -1.30515 -0.883378 0
M  V30 2673 C 259.896 -1.22359 -1.66841 0
M  V30 2674 C 260.311 0.213296 -1.87591 0
M  V30 2675 O 259.668 1.14075 -1.42454 0
M  V30 2676 C 259.719 -1.95011 -3.04389 0
M  V30 2677 O 259.44 -3.3309 -2.84575 0
M  V30 2678 C 260.941 -1.93532 -3.98824 0
M  V30 2679 H 258.161 -0.423371 -0.520575 0
M  V30 2680 H 260.705 -1.72167 -1.10357 0
M  V30 2681 H 258.86 -1.48997 -3.57601 0
M  V30 2682 H 259.274 -3.69907 -3.71846 0
M  V30 2683 H 260.748 -2.48902 -4.92699 0
M  V30 2684 H 261.225 -0.914627 -4.29571 0
M  V30 2685 H 261.831 -2.39364 -3.51547 0
M  V30 2686 N 260.146 1.09593 -1.13257 0
M  V30 2687 C 261.094 2.18271 -0.803783 0
M  V30 2688 C 262.088 1.68054 0.213148 0
M  V30 2689 O 263.294 1.79862 0.0704699 0
M  V30 2690 H 259.669 0.711949 -0.242143 0
M  V30 2691 H 261.64 2.43235 -1.72856 0
M  V30 2692 C 260.389 3.46536 -0.28424 0
M  V30 2693 H 259.712 3.85545 -1.05807 0
M  V30 2694 H 261.152 4.23899 -0.0925945 0
M  V30 2695 C 259.611 3.22036 0.989684 0
M  V30 2696 O 260.141 3.44509 2.06584 0
M  V30 2697 N 258.347 2.7565 0.920086 0
M  V30 2698 H 257.894 2.57562 0.0442019 0
M  V30 2699 H 257.852 2.59635 1.77306 0
M  V30 2700 N 261.624 0.925811 1.2754 0
M  V30 2701 C 262.872 0.564138 1.94067 0
M  V30 2702 C 263.193 -0.897188 1.73134 0
M  V30 2703 O 262.463 -1.63573 1.07799 0
M  V30 2704 H 261.043 0.205645 0.718136 0
M  V30 2705 H 263.705 1.1778 1.55287 0
M  V30 2706 H 262.801 0.76881 3.02483 0
M  V30 2707 N 263.102 -1.41638 0.69111 0
M  V30 2708 C 264.348 -2.01598 0.220519 0
M  V30 2709 C 264.681 -1.54594 -1.17535 0
M  V30 2710 O 263.956 -0.755177 -1.79241 0
M  V30 2711 C 264.239 -3.59062 0.273243 0
M  V30 2712 C 264.092 -4.16203 1.70573 0
M  V30 2713 C 265.411 -4.38546 -0.369457 0
M  V30 2714 H 262.53 -0.732468 0.0816045 0
M  V30 2715 H 265.172 -1.68445 0.878986 0
M  V30 2716 H 263.322 -3.87435 -0.287411 0
M  V30 2717 H 264.994 -3.98722 2.31989 0
M  V30 2718 H 263.237 -3.71414 2.2413 0
M  V30 2719 H 263.908 -5.25358 1.69419 0
M  V30 2720 H 266.384 -4.1596 0.107977 0
M  V30 2721 H 265.26 -5.48069 -0.302002 0
M  V30 2722 H 265.521 -4.17662 -1.44951 0
M  V30 2723 N 264.58 -0.43555 -1.51462 0
M  V30 2724 C 265.826 0.131709 -2.02372 0
M  V30 2725 C 266.159 1.42516 -1.3192 0
M  V30 2726 O 265.434 1.89606 -0.433573 0
M  V30 2727 C 265.717 0.352301 -3.58373 0
M  V30 2728 C 265.57 -0.959676 -4.39443 0
M  V30 2729 C 266.889 1.12286 -4.25535 0
M  V30 2730 H 264.008 0.0463936 -0.735538 0
M  V30 2731 H 266.65 -0.574197 -1.81116 0
M  V30 2732 H 264.8 0.9536 -3.76615 0
M  V30 2733 H 266.472 -1.59482 -4.32855 0
M  V30 2734 H 264.715 -1.56468 -4.04599 0
M  V30 2735 H 265.386 -0.759394 -5.46752 0
M  V30 2736 H 267.862 0.613545 -4.11552 0
M  V30 2737 H 266.738 1.24598 -5.34571 0
M  V30 2738 H 266.999 2.15048 -3.86273 0
M  V30 2739 N 266.058 1.56714 -0.166846 0
M  V30 2740 C 267.469 1.83378 0.350646 0
M  V30 2741 C 267.82 1.08646 1.63372 0
M  V30 2742 O 266.945 0.338058 2.13743 0
M  V30 2743 C 267.54 3.32643 0.642963 0
M  V30 2744 C 266.099 3.59818 1.10491 0
M  V30 2745 C 265.246 2.76954 0.138411 0
M  V30 2746 H 268.197 1.53803 -0.391193 0
M  V30 2747 H 268.218 3.49878 1.49551 0
M  V30 2748 H 267.73 3.87007 -0.291055 0
M  V30 2749 H 265.831 3.1086 2.05418 0
M  V30 2750 H 265.944 4.68178 1.01716 0
M  V30 2751 H 264.308 2.4666 0.634911 0
M  V30 2752 H 265.091 3.34097 -0.789549 0
M  V30 2753 N 267.536 -0.106894 1.57237 0
M  V30 2754 C 268.499 -1.11466 2.0027 0
M  V30 2755 C 269.499 -1.33623 0.894519 0
M  V30 2756 O 270.689 -1.29935 1.16028 0
M  V30 2757 C 267.821 -2.46646 2.35327 0
M  V30 2758 H 269.014 -0.744516 2.90512 0
M  V30 2759 H 266.567 -0.351576 1.52295 0
M  V30 2760 H 267.302 -2.88558 1.48003 0
M  V30 2761 H 267.087 -2.31915 3.16161 0
M  V30 2762 H 268.577 -3.19151 2.69318 0
M  V30 2763 N 269.014 -1.53014 -0.377408 0
M  V30 2764 C 270.262 -1.6829 -1.11906 0
M  V30 2765 C 270.583 -0.431206 -1.90173 0
M  V30 2766 O 269.853 0.554595 -1.87886 0
M  V30 2767 H 268.433 -0.620371 -0.416112 0
M  V30 2768 H 271.095 -1.90167 -0.426893 0
M  V30 2769 H 270.191 -2.53862 -1.8155 0
M  V30 2770 N 270.492 0.636531 -1.44174 0
M  V30 2771 C 271.74 1.39343 -1.46383 0
M  V30 2772 C 272.061 1.94766 -0.0955715 0
M  V30 2773 O 271.331 1.75452 0.871395 0
M  V30 2774 H 269.911 0.517199 -0.538994 0
M  V30 2775 H 272.573 0.74957 -1.7991 0
M  V30 2776 H 271.669 2.22746 -2.18611 0
M  V30 2777 N 271.97 1.30982 0.876444 0
M  V30 2778 C 273.195 1.23373 1.66715 0
M  V30 2779 C 273.62 -0.19885 1.87046 0
M  V30 2780 O 272.978 -1.1427 1.40756 0
M  V30 2781 C 273.026 1.97644 3.01611 0
M  V30 2782 O 272.13 1.30935 3.91062 0
M  V30 2783 H 271.471 0.426279 0.509099 0
M  V30 2784 H 274.001 1.72944 1.09323 0
M  V30 2785 H 274.011 2.06992 3.51594 0
M  V30 2786 H 272.686 3.01829 2.86133 0
M  V30 2787 H 271.263 1.29996 3.49507 0
M  V30 2788 N 273.449 -1.08991 1.13837 0
M  V30 2789 C 274.679 -1.84743 0.924859 0
M  V30 2790 C 275.087 -1.81629 -0.529874 0
M  V30 2791 O 274.43 -1.21397 -1.37872 0
M  V30 2792 C 274.492 -3.33568 1.34061 0
M  V30 2793 C 274.156 -3.60425 2.80968 0
M  V30 2794 C 275.153 -3.55771 3.79108 0
M  V30 2795 C 272.838 -3.88627 3.18236 0
M  V30 2796 C 274.832 -3.78939 5.12527 0
M  V30 2797 C 272.519 -4.11449 4.51833 0
M  V30 2798 C 273.517 -4.06598 5.48787 0
M  V30 2799 O 273.205 -4.28826 6.79973 0
M  V30 2800 H 272.937 -0.590258 0.329502 0
M  V30 2801 H 275.491 -1.38598 1.51591 0
M  V30 2802 H 273.721 -3.80442 0.692853 0
M  V30 2803 H 275.41 -3.90743 1.09886 0
M  V30 2804 H 276.176 -3.34005 3.51661 0
M  V30 2805 H 272.055 -3.91526 2.43369 0
M  V30 2806 H 275.599 -3.75068 5.88192 0
M  V30 2807 H 271.496 -4.32698 4.79002 0
M  V30 2808 H 272.264 -4.46264 6.86142 0
M  V30 2809 N 274.927 -0.932562 -1.27047 0
M  V30 2810 C 276.174 -0.575559 -1.94148 0
M  V30 2811 C 276.502 0.883984 -1.73251 0
M  V30 2812 O 275.757 1.64655 -1.0577 0
M  V30 2813 C 276.056 -0.853713 -3.47054 0
M  V30 2814 C 275.722 -2.29577 -3.88079 0
M  V30 2815 C 274.384 -2.68999 -3.9899 0
M  V30 2816 C 276.736 -3.23331 -4.08787 0
M  V30 2817 C 274.064 -4.01289 -4.28 0
M  V30 2818 C 276.416 -4.55207 -4.39282 0
M  V30 2819 C 275.08 -4.94457 -4.48407 0
M  V30 2820 H 274.35 -0.210612 -0.710439 0
M  V30 2821 H 276.997 -1.17744 -1.51025 0
M  V30 2822 H 275.302 -0.169204 -3.91434 0
M  V30 2823 H 276.999 -0.55639 -3.97121 0
M  V30 2824 H 273.589 -1.97994 -3.80127 0
M  V30 2825 H 277.773 -2.94074 -3.99793 0
M  V30 2826 H 273.029 -4.31374 -4.33275 0
M  V30 2827 H 277.203 -5.27852 -4.54252 0
M  V30 2828 H 274.83 -5.96994 -4.7064 0
M  V30 2829 N 276.405 1.4127 -0.698611 0
M  V30 2830 C 277.338 2.28195 0.0153898 0
M  V30 2831 C 278.316 1.42402 0.784883 0
M  V30 2832 O 279.5 1.71828 0.775067 0
M  V30 2833 C 276.627 3.22685 1.02918 0
M  V30 2834 C 275.673 4.25041 0.352501 0
M  V30 2835 S 276.506 5.27757 -0.907322 0
M  V30 2836 C 277.662 6.25812 0.104796 0
M  V30 2837 H 277.895 2.88403 -0.721858 0
M  V30 2838 H 275.428 1.46452 -0.488996 0
M  V30 2839 H 277.386 3.77655 1.60893 0
M  V30 2840 H 276.047 2.61566 1.73902 0
M  V30 2841 H 275.24 4.91437 1.11828 0
M  V30 2842 H 274.842 3.73682 -0.154254 0
M  V30 2843 H 277.134 6.70705 0.957103 0
M  V30 2844 H 278.077 7.06149 -0.525323 0
M  V30 2845 H 278.485 5.62615 0.460931 0
M  V30 2846 N 277.883 0.443576 1.51229 0
M  V30 2847 C 279.132 -0.122332 2.01329 0
M  V30 2848 C 279.445 -1.43237 1.33201 0
M  V30 2849 O 280.651 -2.0816 1.74304 0
M  V30 2850 C 279.107 -0.268551 3.58897 0
M  V30 2851 C 278.715 1.03142 4.35965 0
M  V30 2852 C 280.459 -0.787894 4.17124 0
M  V30 2853 C 278.366 0.850504 5.85252 0
M  V30 2854 H 277.296 -0.0494929 0.752374 0
M  V30 2855 H 279.947 0.574289 1.74282 0
M  V30 2856 H 278.329 -1.02832 3.82415 0
M  V30 2857 H 279.503 1.80001 4.24189 0
M  V30 2858 H 277.818 1.47977 3.89219 0
M  V30 2859 H 280.415 -0.939841 5.26375 0
M  V30 2860 H 280.758 -1.77201 3.76703 0
M  V30 2861 H 281.291 -0.0862669 3.97706 0
M  V30 2862 H 278.03 1.80718 6.30096 0
M  V30 2863 H 277.55 0.121825 5.99676 0
M  V30 2864 H 279.229 0.506163 6.45017 0
M  V30 2865 N 279.361 -1.56624 0.175154 0
M  V30 2866 C 280.586 -2.01813 -0.478137 0
M  V30 2867 C 281.011 -1.05457 -1.55757 0
M  V30 2868 O 280.369 -0.0347439 -1.81267 0
M  V30 2869 C 280.417 -3.45581 -1.02987 0
M  V30 2870 O 279.521 -3.52305 -2.14371 0
M  V30 2871 H 278.862 -0.65413 -0.114059 0
M  V30 2872 H 281.392 -2.02673 0.280173 0
M  V30 2873 H 281.402 -3.84965 -1.35151 0
M  V30 2874 H 280.077 -4.1521 -0.239556 0
M  V30 2875 H 278.654 -3.24783 -1.83222 0
M  V30 2876 N 280.839 0.0985539 -1.57292 0
M  V30 2877 C 282.255 0.45267 -1.53046 0
M  V30 2878 C 282.455 1.80713 -0.891342 0
M  V30 2879 O 281.511 2.4785 -0.482375 0
M  V30 2880 C 282.824 0.418341 -2.97776 0
M  V30 2881 C 284.372 0.500443 -3.08973 0
M  V30 2882 C 284.847 0.496297 -4.55303 0
M  V30 2883 N 286.338 0.557151 -4.59837 0
M  V30 2884 C 287.073 0.575726 -5.70502 0
M  V30 2885 N 286.569 0.550714 -6.90608 0
M  V30 2886 N 288.362 0.620277 -5.58667 0
M  V30 2887 H 280.513 -0.788673 -1.97215 0
M  V30 2888 H 282.776 -0.293188 -0.901524 0
M  V30 2889 H 282.482 -0.509659 -3.47988 0
M  V30 2890 H 282.356 1.2386 -3.56284 0
M  V30 2891 H 284.743 1.41886 -2.58751 0
M  V30 2892 H 284.824 -0.347894 -2.53423 0
M  V30 2893 H 284.468 -0.418162 -5.06176 0
M  V30 2894 H 284.398 1.3618 -5.08687 0
M  V30 2895 H 286.889 0.581816 -3.73394 0
M  V30 2896 H 287.202 0.568075 -7.70709 0
M  V30 2897 H 285.547 0.517816 -6.93068 0
M  V30 2898 H 288.738 0.637322 -4.63741 0
M  V30 2899 H 288.911 0.631283 -6.44918 0
M  V30 2900 N 282.317 1.53212 0.369288 0
M  V30 2901 C 283.542 1.73423 1.1375 0
M  V30 2902 C 283.967 0.460404 1.82378 0
M  V30 2903 O 283.325 -0.585298 1.71592 0
M  V30 2904 C 283.373 2.89769 2.1463 0
M  V30 2905 O 282.477 2.58119 3.21634 0
M  V30 2906 H 281.818 0.576061 0.330227 0
M  V30 2907 H 284.348 2.00083 0.427547 0
M  V30 2908 H 284.358 3.15829 2.58294 0
M  V30 2909 H 283.033 3.8217 1.64071 0
M  V30 2910 H 281.61 2.42864 2.82969 0
M  V30 2911 N 283.795 -0.628877 1.44509 0
M  V30 2912 C 284.725 -1.75187 1.54376 0
M  V30 2913 C 285.706 -1.65411 0.396618 0
M  V30 2914 O 286.891 -1.84137 0.617031 0
M  V30 2915 C 284.021 -3.13725 1.48976 0
M  V30 2916 C 282.975 -3.38291 2.62189 0
M  V30 2917 C 282.301 -4.76883 2.41841 0
M  V30 2918 C 283.601 -3.30632 4.04326 0
M  V30 2919 H 285.295 -1.67187 2.48373 0
M  V30 2920 H 282.841 -0.802909 1.19538 0
M  V30 2921 H 284.794 -3.92064 1.54478 0
M  V30 2922 H 283.518 -3.22515 0.514961 0
M  V30 2923 H 282.177 -2.62334 2.56079 0
M  V30 2924 H 281.825 -4.82378 1.42548 0
M  V30 2925 H 281.525 -4.94278 3.17747 0
M  V30 2926 H 283.049 -5.57449 2.49165 0
M  V30 2927 H 284.463 -3.98873 4.11793 0
M  V30 2928 H 282.86 -3.59561 4.80454 0
M  V30 2929 H 283.93 -2.28404 4.27738 0
M  V30 2930 N 285.273 -1.31445 -0.869486 0
M  V30 2931 C 286.521 -1.20918 -1.61936 0
M  V30 2932 C 286.842 0.232683 -1.93607 0
M  V30 2933 O 286.112 1.15352 -1.58338 0
M  V30 2934 H 284.692 -0.44454 -0.600328 0
M  V30 2935 H 287.354 -1.64776 -1.0409 0
M  V30 2936 H 286.45 -1.78124 -2.56278 0
M  V30 2937 N 286.751 1.08385 -1.14413 0
M  V30 2938 C 288.162 1.62258 -0.923535 0
M  V30 2939 C 288.513 1.88691 0.537595 0
M  V30 2940 O 287.638 1.64454 1.40655 0
M  V30 2941 C 288.233 2.94781 -1.67002 0
M  V30 2942 C 286.792 3.45437 -1.495 0
M  V30 2943 C 285.939 2.19668 -1.69238 0
M  V30 2944 H 288.89 0.916086 -1.2959 0
M  V30 2945 H 288.911 3.63229 -1.13334 0
M  V30 2946 H 288.423 2.7551 -2.73342 0
M  V30 2947 H 286.524 3.6981 -0.455097 0
M  V30 2948 H 286.637 4.22173 -2.2651 0
M  V30 2949 H 285.001 2.28849 -1.11804 0
M  V30 2950 H 285.784 2.02905 -2.7692 0
M  V30 2951 N 288.23 0.939286 1.26551 0
M  V30 2952 C 289.14 0.453432 2.30176 0
M  V30 2953 C 290.156 -0.471649 1.67486 0
M  V30 2954 O 291.332 -0.35164 1.98306 0
M  V30 2955 C 288.397 -0.275326 3.45605 0
M  V30 2956 C 287.458 0.686084 4.23782 0
M  V30 2957 C 286.691 -0.00798994 5.33699 0
M  V30 2958 O 286.914 -1.22528 5.57085 0
M  V30 2959 O 285.848 0.669746 5.98162 0
M  V30 2960 H 289.674 1.31416 2.73795 0
M  V30 2961 H 287.259 0.705095 1.31715 0
M  V30 2962 H 289.141 -0.685911 4.1578 0
M  V30 2963 H 287.816 -1.11147 3.0402 0
M  V30 2964 H 286.723 1.14658 3.56096 0
M  V30 2965 H 288.056 1.48979 4.69112 0
M  V30 2966 N 289.708 -1.40897 0.706093 0
M  V30 2967 C 290.955 -2.01054 0.241531 0
M  V30 2968 C 291.283 -1.55956 -1.16223 0
M  V30 2969 O 290.538 -0.766336 -1.80072 0
M  V30 2970 C 290.837 -3.5646 0.259099 0
M  V30 2971 C 290.503 -4.21106 1.61184 0
M  V30 2972 C 289.165 -4.38479 1.98216 0
M  V30 2973 C 291.517 -4.57256 2.50132 0
M  V30 2974 C 288.845 -4.89282 3.2376 0
M  V30 2975 C 291.197 -5.09454 3.7502 0
M  V30 2976 C 289.861 -5.25037 4.12181 0
M  V30 2977 H 289.131 -0.73571 0.0883825 0
M  V30 2978 H 291.778 -1.68645 0.907257 0
M  V30 2979 H 290.083 -3.88721 -0.490189 0
M  V30 2980 H 291.78 -4.00826 -0.11804 0
M  V30 2981 H 288.37 -4.07966 1.31384 0
M  V30 2982 H 292.554 -4.43479 2.228 0
M  V30 2983 H 287.81 -4.99531 3.52532 0
M  V30 2984 H 291.984 -5.36404 4.44121 0
M  V30 2985 H 289.611 -5.64164 5.09532 0
M  V30 2986 N 291.186 -0.45159 -1.50991 0
M  V30 2987 C 292.434 0.109857 -2.01801 0
M  V30 2988 C 292.755 1.41958 -1.3369 0
M  V30 2989 O 292.025 1.9003 -0.475951 0
M  V30 2990 H 290.605 0.0435884 -0.745727 0
M  V30 2991 H 293.267 -0.597557 -1.85514 0
M  V30 2992 H 292.363 0.275489 -3.10882 0
M  V30 2993 N 292.664 1.56529 -0.183458 0
M  V30 2994 C 293.912 1.96855 0.457452 0
M  V30 2995 C 294.233 1.07104 1.62953 0
M  V30 2996 O 293.503 0.139887 1.954 0
M  V30 2997 H 292.083 0.72693 0.171992 0
M  V30 2998 H 294.745 1.93056 -0.267476 0
M  V30 2999 H 293.841 3.01423 0.809368 0
M  V30 3000 N 294.142 -0.090211 1.57342 0
M  V30 3001 C 295.105 -1.09335 2.01441 0
M  V30 3002 C 296.105 -1.32666 0.908641 0
M  V30 3003 O 297.295 -1.28697 1.174 0
M  V30 3004 C 294.427 -2.44136 2.3793 0
M  V30 3005 H 295.62 -0.713662 2.91285 0
M  V30 3006 H 293.173 -0.335404 1.52659 0
M  V30 3007 H 293.908 -2.86972 1.51055 0
M  V30 3008 H 293.693 -2.28548 3.18603 0
M  V30 3009 H 295.183 -3.16277 2.72688 0
M  V30 3010 N 295.62 -1.53406 -0.361157 0
M  V30 3011 C 296.866 -1.70054 -1.10496 0
M  V30 3012 C 297.199 -0.453278 -1.88836 0
M  V30 3013 O 296.474 0.5495 -1.86576 0
M  V30 3014 C 296.757 -2.95317 -2.06058 0
M  V30 3015 C 296.61 -4.3021 -1.31298 0
M  V30 3016 C 297.929 -3.16193 -3.06121 0
M  V30 3017 H 295.048 -0.618799 -0.400321 0
M  V30 3018 H 297.69 -1.86052 -0.385318 0
M  V30 3019 H 295.84 -2.81809 -2.67425 0
M  V30 3020 H 297.512 -4.55538 -0.726807 0
M  V30 3021 H 295.755 -4.29421 -0.614853 0
M  V30 3022 H 296.426 -5.14 -2.01265 0
M  V30 3023 H 298.902 -3.28916 -2.5486 0
M  V30 3024 H 297.778 -4.05266 -3.70204 0
M  V30 3025 H 298.039 -2.31676 -3.76535 0
M  V30 3026 N 297.098 0.621204 -1.44841 0
M  V30 3027 C 298.346 1.37783 -1.47852 0
M  V30 3028 C 298.667 1.94653 -0.116224 0
M  V30 3029 O 297.937 1.76367 0.852737 0
M  V30 3030 H 296.517 0.511453 -0.544449 0
M  V30 3031 H 299.179 0.730446 -1.80694 0
M  V30 3032 H 298.275 2.20414 -2.20961 0
M  V30 3033 N 298.576 1.31904 0.862503 0
M  V30 3034 C 299.506 1.22782 1.98612 0
M  V30 3035 C 300.487 0.113362 1.69722 0
M  V30 3036 O 301.672 0.299218 1.91881 0
M  V30 3037 C 298.802 0.942058 3.34279 0
M  V30 3038 C 297.756 2.0169 3.77499 0
M  V30 3039 C 297.082 1.58369 5.10709 0
M  V30 3040 C 298.382 3.43096 3.93805 0
M  V30 3041 H 300.076 2.16788 2.06502 0
M  V30 3042 H 297.622 1.04366 0.992154 0
M  V30 3043 H 299.575 0.864818 4.1243 0
M  V30 3044 H 298.299 -0.0336603 3.26583 0
M  V30 3045 H 296.958 2.08416 3.01593 0
M  V30 3046 H 296.606 0.595628 4.99461 0
M  V30 3047 H 296.306 2.30279 5.40597 0
M  V30 3048 H 297.83 1.52067 5.91361 0
M  V30 3049 H 299.244 3.39003 4.62331 0
M  V30 3050 H 297.641 4.13288 4.35101 0
M  V30 3051 H 298.711 3.83334 2.96957 0
M  V30 3052 N 300.054 -1.07777 1.14986 0
M  V30 3053 C 301.294 -1.81888 0.932527 0
M  V30 3054 C 301.658 -1.84509 -0.531064 0
M  V30 3055 O 302.859 -2.54448 -0.866577 0
M  V30 3056 C 301.13 -3.23244 1.52473 0
M  V30 3057 S 302.689 -4.14154 1.44989 0
M  V30 3058 H 299.507 -0.626752 0.335712 0
M  V30 3059 H 302.109 -1.29503 1.46455 0
M  V30 3060 H 300.813 -3.18922 2.58296 0
M  V30 3061 H 300.344 -3.80704 0.991381 0
M  V30 3062 H 302.359 -4.94247 0.439799 0
M  V30 3063 N 301.532 -0.945985 -1.26051 0
M  V30 3064 C 302.779 -0.596118 -1.93527 0
M  V30 3065 C 303.107 0.865559 -1.74179 0
M  V30 3066 O 302.362 1.63524 -1.0751 0
M  V30 3067 C 302.661 -0.890475 -3.46129 0
M  V30 3068 C 302.327 -2.3368 -3.85622 0
M  V30 3069 C 300.989 -2.73216 -3.96114 0
M  V30 3070 C 303.341 -3.27648 -4.05334 0
M  V30 3071 C 300.669 -4.05806 -4.2372 0
M  V30 3072 C 303.021 -4.59841 -4.3443 0
M  V30 3073 C 301.685 -4.99185 -4.43137 0
M  V30 3074 H 300.955 -0.218135 -0.708165 0
M  V30 3075 H 303.602 -1.1934 -1.49768 0
M  V30 3076 H 301.907 -0.210711 -3.91233 0
M  V30 3077 H 303.604 -0.598478 -3.96509 0
M  V30 3078 H 300.194 -2.02015 -3.78005 0
M  V30 3079 H 304.378 -2.98298 -3.96651 0
M  V30 3080 H 299.634 -4.35945 -4.28675 0
M  V30 3081 H 303.808 -5.32641 -4.48628 0
M  V30 3082 H 301.435 -6.01952 -4.64282 0
M  V30 3083 N 303.011 1.40521 -0.713556 0
M  V30 3084 C 304.241 2.0494 -0.261395 0
M  V30 3085 C 304.649 1.53861 1.10107 0
M  V30 3086 O 303.992 0.689321 1.70276 0
M  V30 3087 C 304.054 3.59138 -0.161227 0
M  V30 3088 C 303.718 4.33096 -1.45865 0
M  V30 3089 C 304.715 4.61182 -2.40016 0
M  V30 3090 C 302.4 4.72043 -1.71701 0
M  V30 3091 C 304.394 5.27196 -3.58251 0
M  V30 3092 C 302.081 5.37789 -2.90218 0
M  V30 3093 C 303.079 5.65295 -3.83315 0
M  V30 3094 O 302.767 6.29683 -4.99754 0
M  V30 3095 H 302.499 0.666041 -0.115608 0
M  V30 3096 H 305.053 1.80954 -0.971849 0
M  V30 3097 H 303.283 3.81936 0.605153 0
M  V30 3098 H 304.972 4.05091 0.256105 0
M  V30 3099 H 305.738 4.31559 -2.21318 0
M  V30 3100 H 301.617 4.50003 -1.00092 0
M  V30 3101 H 305.161 5.48582 -4.30934 0
M  V30 3102 H 301.058 5.66831 -3.08825 0
M  V30 3103 H 301.826 6.4818 -4.99805 0
M  V30 3104 N 304.489 0.459591 1.5075 0
M  V30 3105 C 305.419 -0.330644 2.31147 0
M  V30 3106 C 306.4 -1.00087 1.37538 0
M  V30 3107 O 307.585 -1.00025 1.66459 0
M  V30 3108 C 304.715 -1.41958 3.16962 0
M  V30 3109 C 303.669 -0.871608 4.19031 0
M  V30 3110 C 302.995 -2.05797 4.9351 0
M  V30 3111 C 304.295 0.109251 5.22186 0
M  V30 3112 H 305.989 0.340336 2.97459 0
M  V30 3113 H 303.535 0.165119 1.4305 0
M  V30 3114 H 305.488 -1.9798 3.71997 0
M  V30 3115 H 304.212 -2.11917 2.48513 0
M  V30 3116 H 302.871 -0.333442 3.6508 0
M  V30 3117 H 302.519 -2.74427 4.21544 0
M  V30 3118 H 302.219 -1.6976 5.62544 0
M  V30 3119 H 303.743 -2.62331 5.51375 0
M  V30 3120 H 305.157 -0.361405 5.7216 0
M  V30 3121 H 303.554 0.383316 5.98875 0
M  V30 3122 H 304.624 1.03887 4.73641 0
M  V30 3123 N 305.967 -1.56429 0.191757 0
M  V30 3124 C 307.215 -1.97095 -0.447006 0
M  V30 3125 C 307.536 -1.07967 -1.62383 0
M  V30 3126 O 306.806 -0.150248 -1.95323 0
M  V30 3127 H 305.386 -0.727832 -0.168135 0
M  V30 3128 H 308.048 -1.92911 0.27771 0
M  V30 3129 H 307.144 -3.01848 -0.793371 0
M  V30 3130 N 307.445 0.0818655 -1.57387 0
M  V30 3131 C 308.673 0.796108 -1.9097 0
M  V30 3132 C 309.088 1.71626 -0.786757 0
M  V30 3133 O 308.445 1.80908 0.240513 0
M  V30 3134 C 308.496 1.59829 -3.24248 0
M  V30 3135 O 308.217 0.715131 -4.32224 0
M  V30 3136 C 309.718 2.41442 -3.7178 0
M  V30 3137 H 306.938 0.22691 -0.631469 0
M  V30 3138 H 309.482 0.0551439 -2.04426 0
M  V30 3139 H 307.637 2.29163 -3.12351 0
M  V30 3140 H 308.051 1.27205 -5.08841 0
M  V30 3141 H 309.525 2.932 -4.67694 0
M  V30 3142 H 310.002 3.2051 -3.00283 0
M  V30 3143 H 310.608 1.77283 -3.86589 0
M  V30 3144 N 308.923 1.53595 0.353017 0
M  V30 3145 C 310.151 1.74311 1.1146 0
M  V30 3146 C 310.566 0.477854 1.82653 0
M  V30 3147 O 309.923 -0.549977 1.74016 0
M  V30 3148 C 309.974 2.91694 2.13534 0
M  V30 3149 O 309.695 4.13325 1.45238 0
M  V30 3150 C 311.196 3.24384 3.02142 0
M  V30 3151 H 308.416 0.582669 0.332773 0
M  V30 3152 H 310.96 2.00386 0.408107 0
M  V30 3153 H 309.115 2.67977 2.79763 0
M  V30 3154 H 309.529 4.79148 2.13349 0
M  V30 3155 H 311.003 4.09893 3.69718 0
M  V30 3156 H 311.48 2.40282 3.67643 0
M  V30 3157 H 312.086 3.50073 2.41514 0
M  V30 3158 N 310.401 -0.613514 1.45168 0
M  V30 3159 C 311.648 -1.37268 1.48875 0
M  V30 3160 C 311.976 -1.94077 0.128161 0
M  V30 3161 O 311.231 -1.75178 -0.872416 0
M  V30 3162 C 311.53 -2.54347 2.51083 0
M  V30 3163 C 311.196 -2.1572 3.95949 0
M  V30 3164 C 309.858 -2.04899 4.35396 0
M  V30 3165 C 312.21 -1.85485 4.87078 0
M  V30 3166 C 309.538 -1.62057 5.63875 0
M  V30 3167 C 311.89 -1.4413 6.15962 0
M  V30 3168 C 310.554 -1.31863 6.54346 0
M  V30 3169 H 309.824 -0.502299 0.544773 0
M  V30 3170 H 312.471 -0.694021 1.78481 0
M  V30 3171 H 310.776 -3.27524 2.15024 0
M  V30 3172 H 312.473 -3.12577 2.51191 0
M  V30 3173 H 309.063 -2.25066 3.64751 0
M  V30 3174 H 313.247 -1.92745 4.57343 0
M  V30 3175 H 308.503 -1.51177 5.92415 0
M  V30 3176 H 312.677 -1.19778 6.86022 0
M  V30 3177 H 310.304 -0.984392 7.538 0
M  V30 3178 N 311.879 -1.3236 -0.855495 0
M  V30 3179 C 312.842 -1.21164 -1.94556 0
M  V30 3180 C 313.842 -0.134908 -1.60233 0
M  V30 3181 O 315.032 -0.385249 -1.69887 0
M  V30 3182 C 312.164 -0.863192 -3.29791 0
M  V30 3183 H 313.357 -2.18038 -2.05911 0
M  V30 3184 H 310.91 -1.16179 -1.04557 0
M  V30 3185 H 311.645 0.103769 -3.24134 0
M  V30 3186 H 311.43 -1.64166 -3.56078 0
M  V30 3187 H 312.92 -0.809156 -4.09686 0
M  V30 3188 N 313.357 1.07166 -1.15556 0
M  V30 3189 C 314.32 2.12589 -0.856644 0
M  V30 3190 C 315.32 1.6015 0.14444 0
M  V30 3191 O 316.51 1.7399 -0.0854163 0
M  V30 3192 C 313.642 3.39753 -0.279405 0
M  V30 3193 H 314.835 2.40539 -1.79112 0
M  V30 3194 H 312.388 1.23086 -0.963298 0
M  V30 3195 H 313.123 3.17447 0.663174 0
M  V30 3196 H 312.908 3.79117 -1.00063 0
M  V30 3197 H 314.398 4.17507 -0.0879113 0
M  V30 3198 N 314.835 0.952656 1.25548 0
M  V30 3199 C 315.798 0.475794 2.24207 0
M  V30 3200 C 316.798 -0.419428 1.55234 0
M  V30 3201 O 317.988 -0.216994 1.72843 0
M  V30 3202 C 315.12 -0.312814 3.39462 0
M  V30 3203 H 316.313 1.34779 2.67908 0
M  V30 3204 H 313.866 0.735739 1.37901 0
M  V30 3205 H 314.601 -1.20257 3.01179 0
M  V30 3206 H 314.386 0.329404 3.90714 0
M  V30 3207 H 315.876 -0.635986 4.12729 0
M  V30 3208 N 316.313 -1.40141 0.720998 0
M  V30 3209 C 317.246 -2.2819 0.020916 0
M  V30 3210 C 318.224 -1.43633 -0.762129 0
M  V30 3211 O 319.408 -1.7304 -0.747633 0
M  V30 3212 C 316.535 -3.24281 -0.977715 0
M  V30 3213 C 315.581 -4.25548 -0.284836 0
M  V30 3214 S 316.414 -5.26247 0.991169 0
M  V30 3215 C 317.57 -6.259 -0.0052214 0
M  V30 3216 H 317.803 -2.87218 0.767649 0
M  V30 3217 H 315.336 -1.45656 0.512233 0
M  V30 3218 H 317.294 -3.80167 -1.54865 0
M  V30 3219 H 315.955 -2.643 -1.69719 0
M  V30 3220 H 315.148 -4.93154 -1.03996 0
M  V30 3221 H 314.75 -3.73389 0.213684 0
M  V30 3222 H 317.042 -6.72143 -0.850279 0
M  V30 3223 H 317.985 -7.05224 0.637599 0
M  V30 3224 H 318.393 -5.63277 -0.371366 0
M  V30 3225 N 317.792 -0.46758 -1.50504 0
M  V30 3226 C 319.022 0.086288 -2.0642 0
M  V30 3227 C 319.43 1.34369 -1.33197 0
M  V30 3228 O 318.773 1.79431 -0.393747 0
M  V30 3229 C 318.835 0.443846 -3.5675 0
M  V30 3230 C 318.499 -0.711035 -4.51435 0
M  V30 3231 C 319.496 -1.59205 -4.94924 0
M  V30 3232 C 317.181 -0.900363 -4.94165 0
M  V30 3233 C 319.175 -2.64683 -5.79846 0
M  V30 3234 C 316.862 -1.95837 -5.7887 0
M  V30 3235 C 317.86 -2.82997 -6.21612 0
M  V30 3236 O 317.548 -3.86977 -7.0463 0
M  V30 3237 H 317.28 -0.00217814 -0.675996 0
M  V30 3238 H 319.834 -0.654346 -1.94698 0
M  V30 3239 H 318.064 1.23762 -3.6636 0
M  V30 3240 H 319.753 0.932386 -3.95046 0
M  V30 3241 H 320.519 -1.45745 -4.62583 0
M  V30 3242 H 316.398 -0.231427 -4.60419 0
M  V30 3243 H 319.942 -3.32745 -6.13128 0
M  V30 3244 H 315.839 -2.09305 -6.10624 0
M  V30 3245 H 316.607 -3.83923 -7.22873 0
M  V30 3246 N 319.27 1.56325 -0.20005 0
M  V30 3247 C 320.519 1.96895 0.437652 0
M  V30 3248 C 320.832 1.08999 1.62415 0
M  V30 3249 O 322.038 1.39372 2.32997 0
M  V30 3250 C 320.494 3.50198 0.830025 0
M  V30 3251 C 320.102 4.46765 -0.332461 0
M  V30 3252 C 321.846 3.99526 1.43453 0
M  V30 3253 C 319.753 5.91344 0.0811468 0
M  V30 3254 H 318.683 0.735209 0.167282 0
M  V30 3255 H 321.334 1.81148 -0.292853 0
M  V30 3256 H 319.716 3.61467 1.61734 0
M  V30 3257 H 320.89 4.47231 -1.11 0
M  V30 3258 H 319.205 4.07657 -0.848789 0
M  V30 3259 H 321.802 5.05025 1.75652 0
M  V30 3260 H 322.145 3.44122 2.34277 0
M  V30 3261 H 322.678 3.91393 0.71109 0
M  V30 3262 H 319.417 6.50685 -0.793033 0
M  V30 3263 H 318.937 5.94121 0.823445 0
M  V30 3264 H 320.616 6.44945 0.515252 0
M  V30 3265 N 320.748 -0.0735177 1.57428 0
M  V30 3266 C 321.678 -1.0879 2.06608 0
M  V30 3267 C 322.659 -1.40473 0.959237 0
M  V30 3268 O 323.844 -1.5013 1.23185 0
M  V30 3269 C 320.974 -2.40183 2.50857 0
M  V30 3270 C 319.928 -2.22858 3.65402 0
M  V30 3271 C 319.254 -3.59619 3.957 0
M  V30 3272 C 320.554 -1.65123 4.95511 0
M  V30 3273 H 322.248 -0.678673 2.91607 0
M  V30 3274 H 319.794 -0.325013 1.40284 0
M  V30 3275 H 321.747 -3.11437 2.83874 0
M  V30 3276 H 320.471 -2.83083 1.62885 0
M  V30 3277 H 319.13 -1.54045 3.32664 0
M  V30 3278 H 318.778 -4.00086 3.04861 0
M  V30 3279 H 318.478 -3.48866 4.72828 0
M  V30 3280 H 320.002 -4.32306 4.31212 0
M  V30 3281 H 321.416 -2.26241 5.26771 0
M  V30 3282 H 319.813 -1.65071 5.7695 0
M  V30 3283 H 320.883 -0.612559 4.81015 0
M  V30 3284 N 322.226 -1.5378 -0.344866 0
M  V30 3285 C 323.474 -1.70625 -1.08311 0
M  V30 3286 C 323.795 -0.471447 -1.89215 0
M  V30 3287 O 323.065 0.514616 -1.8902 0
M  V30 3288 H 321.645 -0.629058 -0.402859 0
M  V30 3289 H 324.307 -1.9103 -0.386459 0
M  V30 3290 H 323.403 -2.57656 -1.76124 0
M  V30 3291 N 323.704 0.605807 -1.45491 0
M  V30 3292 C 324.667 1.69836 -1.5391 0
M  V30 3293 C 325.667 1.55261 -0.418424 0
M  V30 3294 O 326.857 1.60296 -0.681965 0
M  V30 3295 C 323.989 3.09117 -1.43734 0
M  V30 3296 H 325.182 1.63738 -2.51257 0
M  V30 3297 H 322.735 0.821689 -1.32959 0
M  V30 3298 H 323.47 3.20791 -0.475788 0
M  V30 3299 H 323.255 3.21104 -2.25021 0
M  V30 3300 H 324.745 3.88696 -1.52661 0
M  V30 3301 N 325.182 1.32811 0.848464 0
M  V30 3302 C 326.431 1.23075 1.59798 0
M  V30 3303 C 326.744 -0.204419 1.94529 0
M  V30 3304 O 327.95 -0.423701 2.68173 0
M  V30 3305 C 326.406 2.15594 2.88179 0
M  V30 3306 C 326.014 3.64228 2.60849 0
M  V30 3307 C 327.758 2.14709 3.66197 0
M  V30 3308 C 325.665 4.48689 3.85269 0
M  V30 3309 H 324.595 0.457091 0.599653 0
M  V30 3310 H 327.246 1.57813 0.936342 0
M  V30 3311 H 325.628 1.73778 3.55833 0
M  V30 3312 H 326.802 4.14424 2.01467 0
M  V30 3313 H 325.117 3.67306 1.96151 0
M  V30 3314 H 327.714 2.75046 4.58534 0
M  V30 3315 H 328.057 1.13966 4.00397 0
M  V30 3316 H 328.59 2.54837 3.05455 0
M  V30 3317 H 325.329 5.5027 3.56207 0
M  V30 3318 H 324.849 4.03241 4.44024 0
M  V30 3319 H 326.528 4.62006 4.52946 0
M  V30 3320 N 326.66 -1.06551 1.16123 0
M  V30 3321 C 327.57 -2.17484 0.879662 0
M  V30 3322 C 328.586 -1.73377 -0.147104 0
M  V30 3323 O 329.762 -2.01379 0.0289128 0
M  V30 3324 C 326.827 -3.44591 0.381829 0
M  V30 3325 C 325.888 -4.0322 1.4735 0
M  V30 3326 C 325.121 -5.24261 0.999324 0
M  V30 3327 O 325.344 -5.70198 -0.151957 0
M  V30 3328 O 324.278 -5.74775 1.78653 0
M  V30 3329 H 328.104 -2.44075 1.80724 0
M  V30 3330 H 325.689 -1.16042 0.940992 0
M  V30 3331 H 327.571 -4.21254 0.111053 0
M  V30 3332 H 326.246 -3.19532 -0.51777 0
M  V30 3333 H 325.153 -3.2806 1.79798 0
M  V30 3334 H 326.486 -4.32568 2.34831 0
M  V30 3335 N 328.138 -0.959301 -1.25041 0
M  V30 3336 C 329.387 -0.612254 -1.92183 0
M  V30 3337 C 329.7 0.855347 -1.75907 0
M  V30 3338 O 330.906 1.31256 -2.37664 0
M  V30 3339 C 329.362 -1.04435 -3.44414 0
M  V30 3340 C 328.97 -2.53482 -3.69393 0
M  V30 3341 C 330.714 -0.770055 -4.17457 0
M  V30 3342 C 328.621 -2.90468 -5.15153 0
M  V30 3343 H 327.551 -0.225279 -0.719559 0
M  V30 3344 H 330.202 -1.16438 -1.41825 0
M  V30 3345 H 328.584 -0.4206 -3.9376 0
M  V30 3346 H 329.758 -3.20916 -3.30681 0
M  V30 3347 H 328.073 -2.78432 -3.0962 0
M  V30 3348 H 330.67 -1.02249 -5.24832 0
M  V30 3349 H 331.013 0.293611 -4.15263 0
M  V30 3350 H 331.546 -1.35437 -3.74034 0
M  V30 3351 H 328.285 -3.95871 -5.22462 0
M  V30 3352 H 327.805 -2.27711 -5.54894 0
M  V30 3353 H 329.484 -2.79914 -5.83315 0
M  V30 3354 N 329.616 1.39756 -0.72842 0
M  V30 3355 C 330.546 2.33289 -0.0991354 0
M  V30 3356 C 331.527 1.53568 0.731489 0
M  V30 3357 O 332.712 1.81987 0.677807 0
M  V30 3358 C 329.842 3.3763 0.813834 0
M  V30 3359 C 328.796 4.2791 0.0878663 0
M  V30 3360 C 328.122 5.22894 1.11741 0
M  V30 3361 C 329.422 5.11314 -1.06563 0
M  V30 3362 H 331.116 2.86163 -0.880408 0
M  V30 3363 H 328.662 1.37591 -0.424819 0
M  V30 3364 H 330.615 4.0201 1.26355 0
M  V30 3365 H 329.339 2.83181 1.62715 0
M  V30 3366 H 327.998 3.65 -0.342159 0
M  V30 3367 H 327.646 4.64744 1.92412 0
M  V30 3368 H 327.346 5.84143 0.636477 0
M  V30 3369 H 328.87 5.90151 1.56697 0
M  V30 3370 H 330.284 5.69076 -0.694671 0
M  V30 3371 H 328.681 5.81671 -1.47577 0
M  V30 3372 H 329.751 4.46534 -1.89038 0
M  V30 3373 N 331.094 0.475555 1.50254 0
M  V30 3374 C 332.024 -0.30611 2.31485 0
M  V30 3375 C 333.005 -0.986228 1.38591 0
M  V30 3376 O 334.19 -0.982541 1.67511 0
M  V30 3377 C 331.32 -1.38588 3.1845 0
M  V30 3378 C 330.274 -0.827115 4.19932 0
M  V30 3379 C 329.6 -2.00551 4.95665 0
M  V30 3380 C 330.9 0.16463 5.2204 0
M  V30 3381 H 332.594 0.371866 2.97082 0
M  V30 3382 H 330.14 0.180282 1.42867 0
M  V30 3383 H 332.093 -1.94023 3.74076 0
M  V30 3384 H 330.817 -2.09269 2.50747 0
M  V30 3385 H 329.476 -0.294702 3.65414 0
M  V30 3386 H 329.124 -2.6994 4.2443 0
M  V30 3387 H 328.824 -1.63784 5.64313 0
M  V30 3388 H 330.348 -2.56468 5.54127 0
M  V30 3389 H 331.762 -0.300699 5.72511 0
M  V30 3390 H 330.159 0.446813 5.98434 0
M  V30 3391 H 331.229 1.08905 4.72512 0
M  V30 3392 N 332.573 -1.56217 0.208337 0
M  V30 3393 C 333.801 -2.02337 -0.43215 0
M  V30 3394 C 334.216 -1.08834 -1.54275 0
M  V30 3395 O 333.573 -0.0955462 -1.8225 0
M  V30 3396 C 333.624 -3.48072 -0.976138 0
M  V30 3397 O 333.345 -4.38007 0.0901621 0
M  V30 3398 C 334.846 -4.09773 -1.69119 0
M  V30 3399 H 332.066 -0.662385 -0.10718 0
M  V30 3400 H 334.61 -2.01966 0.320923 0
M  V30 3401 H 332.765 -3.49099 -1.67954 0
M  V30 3402 H 333.179 -5.23543 -0.316701 0
M  V30 3403 H 334.653 -5.13556 -2.02397 0
M  V30 3404 H 335.13 -3.53999 -2.59964 0
M  V30 3405 H 335.736 -4.12556 -1.03332 0
M  V30 3406 N 334.051 0.0651679 -1.57465 0
M  V30 3407 C 335.281 0.774683 -1.91526 0
M  V30 3408 C 335.689 1.71305 -0.803196 0
M  V30 3409 O 335.032 1.82231 0.231881 0
M  V30 3410 C 335.094 1.61645 -3.21109 0
M  V30 3411 C 334.758 0.846753 -4.49087 0
M  V30 3412 C 335.755 0.163024 -5.19644 0
M  V30 3413 C 333.44 0.811966 -4.95694 0
M  V30 3414 C 335.434 -0.54519 -6.35064 0
M  V30 3415 C 333.121 0.0999836 -6.11018 0
M  V30 3416 C 334.119 -0.577388 -6.80555 0
M  V30 3417 O 333.807 -1.27789 -7.93678 0
M  V30 3418 H 333.539 0.225031 -0.637446 0
M  V30 3419 H 336.093 0.0377134 -2.05365 0
M  V30 3420 H 334.323 2.39638 -3.03497 0
M  V30 3421 H 336.012 2.20525 -3.40769 0
M  V30 3422 H 336.778 0.181163 -4.84662 0
M  V30 3423 H 332.657 1.32867 -4.41438 0
M  V30 3424 H 336.201 -1.07446 -6.89276 0
M  V30 3425 H 332.098 0.0797945 -6.45451 0
M  V30 3426 H 332.866 -1.18784 -8.09835 0
M  V30 3427 N 335.529 1.53961 0.336706 0
M  V30 3428 C 336.778 1.70751 1.07363 0
M  V30 3429 C 337.091 0.481061 1.89592 0
M  V30 3430 O 338.297 0.530046 2.66276 0
M  V30 3431 C 336.753 3.01965 1.95818 0
M  V30 3432 C 336.361 4.31971 1.18764 0
M  V30 3433 C 338.105 3.28121 2.69327 0
M  V30 3434 C 336.012 5.54255 2.06289 0
M  V30 3435 H 334.942 0.636292 0.404535 0
M  V30 3436 H 337.593 1.80459 0.332681 0
M  V30 3437 H 335.975 2.86132 2.7376 0
M  V30 3438 H 337.149 4.5853 0.456849 0
M  V30 3439 H 335.464 4.12481 0.569946 0
M  V30 3440 H 338.061 4.16673 3.35094 0
M  V30 3441 H 338.404 2.45426 3.36261 0
M  V30 3442 H 338.937 3.44762 1.98454 0
M  V30 3443 H 335.676 6.39513 1.43885 0
M  V30 3444 H 335.196 5.31935 2.77138 0
M  V30 3445 H 336.875 5.90159 2.65182 0
M  V30 3446 N 337.007 -0.598083 1.45811 0
M  V30 3447 C 337.97 -1.69018 1.54808 0
M  V30 3448 C 338.97 -1.55037 0.426652 0
M  V30 3449 O 340.16 -1.59932 0.690456 0
M  V30 3450 C 337.292 -3.0835 1.45371 0
M  V30 3451 H 338.485 -1.62403 2.52121 0
M  V30 3452 H 336.038 -0.814626 1.33392 0
M  V30 3453 H 336.773 -3.20534 0.492793 0
M  V30 3454 H 336.558 -3.19907 2.26721 0
M  V30 3455 H 338.048 -3.8788 1.54721 0
M  V30 3456 N 338.485 -1.33259 -0.841409 0
M  V30 3457 C 339.896 -1.22066 -1.41269 0
M  V30 3458 C 340.247 0.161479 -1.95534 0
M  V30 3459 O 339.372 1.06094 -1.88608 0
M  V30 3460 C 339.967 -2.20996 -2.568 0
M  V30 3461 C 338.526 -2.13649 -3.09888 0
M  V30 3462 C 337.673 -2.08623 -1.82679 0
M  V30 3463 H 340.624 -1.44895 -0.647395 0
M  V30 3464 H 340.645 -1.81621 -3.34356 0
M  V30 3465 H 340.157 -3.2158 -2.17274 0
M  V30 3466 H 338.258 -1.16359 -3.53965 0
M  V30 3467 H 338.371 -3.04079 -3.70234 0
M  V30 3468 H 336.735 -1.54061 -2.02824 0
M  V30 3469 H 337.518 -3.1101 -1.45353 0
M  V30 3470 N 339.963 1.05934 -1.16686 0
M  V30 3471 C 341.374 1.60263 -0.957745 0
M  V30 3472 C 341.725 1.89789 0.49745 0
M  V30 3473 O 340.85 1.67401 1.37135 0
M  V30 3474 C 341.445 2.91172 -1.73218 0
M  V30 3475 C 340.004 3.42188 -1.56794 0
M  V30 3476 C 339.151 2.16028 -1.73859 0
M  V30 3477 H 342.102 0.888392 -1.31504 0
M  V30 3478 H 342.123 3.60744 -1.21014 0
M  V30 3479 H 341.635 2.6965 -2.79124 0
M  V30 3480 H 339.736 3.68762 -0.533437 0
M  V30 3481 H 339.849 4.17273 -2.35414 0
M  V30 3482 H 338.213 2.26426 -1.16633 0
M  V30 3483 H 338.996 1.96985 -2.81161 0
M  V30 3484 N 341.441 0.965919 1.2453 0
M  V30 3485 C 342.404 0.499547 2.2369 0
M  V30 3486 C 343.404 -0.40294 1.5567 0
M  V30 3487 O 344.594 -0.19865 1.73064 0
M  V30 3488 C 341.726 -0.276792 3.39774 0
M  V30 3489 H 342.919 1.37613 2.66463 0
M  V30 3490 H 340.472 0.750324 1.37112 0
M  V30 3491 H 341.207 -1.17055 3.02438 0
M  V30 3492 H 340.992 0.370826 3.90343 0
M  V30 3493 H 342.482 -0.592175 4.1338 0
M  V30 3494 N 342.919 -1.39368 0.735821 0
M  V30 3495 C 343.882 -2.2896 0.104874 0
M  V30 3496 C 344.882 -1.46347 -0.666274 0
M  V30 3497 O 346.072 -1.67014 -0.49517 0
M  V30 3498 C 343.204 -3.29857 -0.860656 0
M  V30 3499 H 344.397 -2.86259 0.894205 0
M  V30 3500 H 341.95 -1.48029 0.501704 0
M  V30 3501 H 342.685 -2.77615 -1.67631 0
M  V30 3502 H 342.47 -3.9087 -0.310327 0
M  V30 3503 H 343.96 -3.96893 -1.29867 0
M  V30 3504 N 344.397 -0.483516 -1.5 0
M  V30 3505 C 345.646 0.0689102 -2.01582 0
M  V30 3506 C 345.959 1.39655 -1.36952 0
M  V30 3507 O 347.165 2.03465 -1.79762 0
M  V30 3508 C 345.621 0.173302 -3.59483 0
M  V30 3509 C 345.229 -1.14665 -4.33077 0
M  V30 3510 C 346.973 0.677024 -4.19066 0
M  V30 3511 C 344.88 -1.00537 -5.82792 0
M  V30 3512 H 343.81 0.0295277 -0.753422 0
M  V30 3513 H 346.461 -0.620295 -1.72698 0
M  V30 3514 H 344.843 0.926569 -3.85007 0
M  V30 3515 H 346.017 -1.91184 -4.19268 0
M  V30 3516 H 344.332 -1.58244 -3.85159 0
M  V30 3517 H 346.929 0.799952 -5.28682 0
M  V30 3518 H 347.272 1.67151 -3.81269 0
M  V30 3519 H 347.805 -0.0192083 -3.97795 0
M  V30 3520 H 344.544 -1.9736 -6.25083 0
M  V30 3521 H 344.064 -0.280776 -5.99142 0
M  V30 3522 H 345.743 -0.677 -6.43448 0
M  V30 3523 N 345.875 1.56104 -0.216619 0
M  V30 3524 C 347.122 1.98172 0.416416 0
M  V30 3525 C 347.45 1.10413 1.60122 0
M  V30 3526 O 346.705 0.147967 1.9514 0
M  V30 3527 C 347.004 3.45923 0.898464 0
M  V30 3528 C 346.67 4.50559 -0.175288 0
M  V30 3529 C 345.332 4.78897 -0.470271 0
M  V30 3530 C 347.684 5.1334 -0.901728 0
M  V30 3531 C 345.012 5.67299 -1.4963 0
M  V30 3532 C 347.364 6.02853 -1.91705 0
M  V30 3533 C 346.028 6.29537 -2.21901 0
M  V30 3534 H 345.298 0.725164 0.152377 0
M  V30 3535 H 347.945 1.88839 -0.318103 0
M  V30 3536 H 346.25 3.52434 1.71165 0
M  V30 3537 H 347.947 3.75841 1.39803 0
M  V30 3538 H 344.537 4.28551 0.0647806 0
M  V30 3539 H 348.721 4.91521 -0.687072 0
M  V30 3540 H 343.977 5.86239 -1.73592 0
M  V30 3541 H 348.151 6.50552 -2.48505 0
M  V30 3542 H 345.778 6.97835 -3.01548 0
M  V30 3543 N 347.353 -0.0568162 1.57498 0
M  V30 3544 C 348.583 -0.764515 1.91934 0
M  V30 3545 C 348.991 -1.70877 0.81227 0
M  V30 3546 O 348.334 -1.82351 -0.222213 0
M  V30 3547 C 348.396 -1.5994 3.21962 0
M  V30 3548 C 348.06 -0.822925 4.4953 0
M  V30 3549 C 349.057 -0.135464 5.19723 0
M  V30 3550 C 346.742 -0.785666 4.96117 0
M  V30 3551 C 348.736 0.578861 6.34766 0
M  V30 3552 C 346.423 -0.0675784 6.11063 0
M  V30 3553 C 347.421 0.613471 6.80239 0
M  V30 3554 O 347.109 1.31996 7.92989 0
M  V30 3555 H 346.841 -0.221647 0.63863 0
M  V30 3556 H 349.395 -0.0268218 2.05382 0
M  V30 3557 H 347.625 -2.38026 3.04763 0
M  V30 3558 H 349.314 -2.18715 3.41934 0
M  V30 3559 H 350.08 -0.155458 4.84751 0
M  V30 3560 H 345.959 -1.30524 4.42136 0
M  V30 3561 H 349.503 1.111 6.88696 0
M  V30 3562 H 345.4 -0.0455636 6.45484 0
M  V30 3563 H 346.168 1.23077 8.09194 0
M  V30 3564 N 348.832 -1.54138 -0.328536 0
M  V30 3565 C 350.243 -1.63395 -0.903272 0
M  V30 3566 C 350.594 -0.524828 -1.8905 0
M  V30 3567 O 349.719 0.343068 -2.13663 0
M  V30 3568 C 350.314 -2.9618 -1.64507 0
M  V30 3569 C 348.873 -3.0765 -2.1686 0
M  V30 3570 C 348.02 -2.58933 -0.992416 0
M  V30 3571 H 350.971 -1.58344 -0.106253 0
M  V30 3572 H 350.992 -2.86061 -2.50897 0
M  V30 3573 H 350.504 -3.76884 -0.926302 0
M  V30 3574 H 348.605 -2.31611 -2.91868 0
M  V30 3575 H 348.718 -4.1337 -2.42202 0
M  V30 3576 H 347.082 -2.14706 -1.37016 0
M  V30 3577 H 347.865 -3.42089 -0.288041 0
M  V30 3578 N 350.31 0.590341 -1.46126 0
M  V30 3579 C 351.535 1.37991 -1.54833 0
M  V30 3580 C 351.96 1.87163 -0.187506 0
M  V30 3581 O 351.318 1.61133 0.831008 0
M  V30 3582 C 351.366 2.54867 -2.55098 0
M  V30 3583 O 350.47 3.56061 -2.08073 0
M  V30 3584 H 349.811 0.411265 -0.521303 0
M  V30 3585 H 352.341 0.716819 -1.91632 0
M  V30 3586 H 352.351 3.01886 -2.74461 0
M  V30 3587 H 351.026 2.18429 -3.53923 0
M  V30 3588 H 349.603 3.15574 -1.98664 0
M  V30 3589 N 351.788 1.33704 0.83433 0
M  V30 3590 C 353.036 1.25169 1.58673 0
M  V30 3591 C 353.357 -0.18127 1.94156 0
M  V30 3592 O 352.627 -1.11113 1.6134 0
M  V30 3593 H 351.207 0.4603 0.58833 0
M  V30 3594 H 353.869 1.67478 0.996847 0
M  V30 3595 H 352.965 1.84856 2.51465 0
M  V30 3596 N 353.266 -1.05314 1.17247 0
M  V30 3597 C 354.229 -2.112 0.890357 0
M  V30 3598 C 355.229 -1.60359 -0.118943 0
M  V30 3599 O 356.419 -1.73833 0.113086 0
M  V30 3600 C 353.551 -3.39266 0.333422 0
M  V30 3601 H 354.744 -2.37659 1.82916 0
M  V30 3602 H 352.297 -1.21538 0.982758 0
M  V30 3603 H 353.032 -3.18462 -0.612587 0
M  V30 3604 H 352.817 -3.77477 1.06082 0
M  V30 3605 H 354.307 -4.17315 0.154322 0
M  V30 3606 N 354.744 -0.972509 -1.24016 0
M  V30 3607 C 355.694 -0.477561 -2.22942 0
M  V30 3608 C 356.678 0.44308 -1.54679 0
M  V30 3609 O 357.87 0.273219 -1.74879 0
M  V30 3610 C 354.999 0.226348 -3.42553 0
M  V30 3611 C 354.085 -0.713403 -4.18057 0
M  V30 3612 N 354.476 -1.8527 -4.70647 0
M  V30 3613 C 352.774 -0.525145 -4.42898 0
M  V30 3614 C 353.475 -2.44089 -5.28011 0
M  V30 3615 N 352.451 -1.72556 -5.15486 0
M  V30 3616 H 356.253 -1.34678 -2.61226 0
M  V30 3617 H 353.767 -0.832196 -1.39457 0
M  V30 3618 H 355.764 0.598184 -4.12586 0
M  V30 3619 H 354.424 1.09195 -3.05788 0
M  V30 3620 H 355.435 -2.2341 -4.67235 0
M  V30 3621 H 352.112 0.296096 -4.16449 0
M  V30 3622 H 353.502 -3.40259 -5.79374 0
M  V30 3623 N 356.222 1.38976 -0.743202 0
M  V30 3624 C 357.499 1.94351 -0.220705 0
M  V30 3625 C 357.879 1.67935 1.2791 0
M  V30 3626 O 357.227 1.01211 2.04862 0
M  V30 3627 C 357.437 3.44426 -0.563171 0
M  V30 3628 C 358.785 4.2144 -0.517046 0
M  V30 3629 O 359.809 3.52661 -0.500846 0
M  V30 3630 O 358.668 5.44032 -0.518806 0
M  V30 3631 H 355.762 0.825879 -0.043047 0
M  V30 3632 H 358.308 1.48429 -0.822618 0
M  V30 3633 H 357.08 3.5712 -1.59941 0
M  V30 3634 H 356.703 3.97543 0.0672883 0
M  V30 3635 N 357.7 0.491464 1.49741 0
M  V30 3636 C 358.928 -0.0535151 2.06831 0
M  V30 3637 C 359.343 -1.31683 1.35296 0
M  V30 3638 O 358.7 -1.77402 0.42836 0
M  V30 3639 C 358.751 -0.320835 3.60073 0
M  V30 3640 O 358.472 0.892394 4.28915 0
M  V30 3641 C 359.973 -0.910519 4.33848 0
M  V30 3642 H 357.193 0.0161909 0.670805 0
M  V30 3643 H 359.737 0.68609 1.92647 0
M  V30 3644 H 357.892 -1.0104 3.73991 0
M  V30 3645 H 358.306 0.649401 5.20464 0
M  V30 3646 H 359.78 -1.04721 5.41976 0
M  V30 3647 H 360.257 -1.90589 3.95692 0
M  V30 3648 H 360.863 -0.258712 4.24512 0
M  V30 3649 N 359.178 -1.55987 0.224894 0
M  V30 3650 C 360.403 -2.03232 -0.41369 0
M  V30 3651 C 360.828 -1.10359 -1.52323 0
M  V30 3652 O 360.186 -0.092395 -1.81064 0
M  V30 3653 C 360.234 -3.48682 -0.919405 0
M  V30 3654 O 359.338 -3.58947 -2.03054 0
M  V30 3655 H 358.679 -0.657428 -0.0931903 0
M  V30 3656 H 361.209 -2.01679 0.34451 0
M  V30 3657 H 361.219 -3.8907 -1.22835 0
M  V30 3658 H 359.894 -4.15761 -0.107339 0
M  V30 3659 H 358.471 -3.30448 -1.72796 0
M  V30 3660 N 360.656 0.0484629 -1.57525 0
M  V30 3661 C 361.604 1.07359 -2.06341 0
M  V30 3662 C 362.598 1.3865 -0.973269 0
M  V30 3663 O 363.804 1.37783 -1.15827 0
M  V30 3664 H 360.179 0.363662 -0.65822 0
M  V30 3665 H 362.15 0.635916 -2.91545 0
M  V30 3666 C 360.899 2.37198 -2.54229 0
M  V30 3667 H 360.222 2.13977 -3.37719 0
M  V30 3668 H 361.662 3.07319 -2.92115 0
M  V30 3669 C 360.121 3.04805 -1.43511 0
M  V30 3670 O 360.651 3.93848 -0.79034 0
M  V30 3671 N 358.857 2.65811 -1.17444 0
M  V30 3672 H 358.404 1.93488 -1.70059 0
M  V30 3673 H 358.362 3.11366 -0.435737 0
M  V30 3674 N 362.134 1.5431 0.320358 0
M  V30 3675 C 363.097 1.83195 1.3774 0
M  V30 3676 C 364.097 0.703906 1.44575 0
M  V30 3677 O 365.287 0.972214 1.44546 0
M  V30 3678 C 362.419 1.99487 2.76438 0
M  V30 3679 H 363.612 2.77642 1.1338 0
M  V30 3680 H 361.165 1.46076 0.556012 0
M  V30 3681 H 361.9 1.07262 3.06048 0
M  V30 3682 H 361.685 2.81575 2.7287 0
M  V30 3683 H 363.175 2.23271 3.52902 0
M  V30 3684 N 363.613 -0.582584 1.46437 0
M  V30 3685 C 364.841 -1.36682 1.55324 0
M  V30 3686 C 365.256 -1.87796 0.194409 0
M  V30 3687 O 364.613 -1.63623 -0.808318 0
M  V30 3688 C 364.664 -2.55426 2.55812 0
M  V30 3689 O 364.385 -2.0643 3.86417 0
M  V30 3690 C 365.886 -3.47976 2.74641 0
M  V30 3691 H 363.106 -0.417545 0.525259 0
M  V30 3692 H 365.65 -0.708219 1.91845 0
M  V30 3693 H 363.805 -3.17275 2.22295 0
M  V30 3694 H 364.219 -2.83762 4.41111 0
M  V30 3695 H 365.693 -4.27775 3.48874 0
M  V30 3696 H 366.17 -3.99919 1.81553 0
M  V30 3697 H 366.776 -2.91962 3.09255 0
M  V30 3698 N 365.091 -1.34144 -0.827227 0
M  V30 3699 C 366.021 -1.28005 -1.95287 0
M  V30 3700 C 367.002 -0.158321 -1.69362 0
M  V30 3701 O 368.187 -0.349987 -1.9102 0
M  V30 3702 C 365.317 -1.03036 -3.31664 0
M  V30 3703 C 364.271 -2.11628 -3.72019 0
M  V30 3704 C 363.597 -1.71854 -5.0633 0
M  V30 3705 C 364.897 -3.53417 -3.8457 0
M  V30 3706 H 366.591 -2.22187 -2.00682 0
M  V30 3707 H 364.137 -1.0696 -0.964135 0
M  V30 3708 H 366.09 -0.973863 -4.09993 0
M  V30 3709 H 364.814 -0.0529391 -3.26557 0
M  V30 3710 H 363.473 -2.16339 -2.95961 0
M  V30 3711 H 363.121 -0.727841 -4.97706 0
M  V30 3712 H 362.821 -2.44531 -5.34302 0
M  V30 3713 H 364.345 -1.67692 -5.87122 0
M  V30 3714 H 365.759 -3.51142 -4.5318 0
M  V30 3715 H 364.156 -4.24679 -4.2399 0
M  V30 3716 H 365.226 -3.91072 -2.86689 0
M  V30 3717 N 366.569 1.04691 -1.17803 0
M  V30 3718 C 367.517 2.14665 -0.895635 0
M  V30 3719 C 368.511 1.68806 0.141679 0
M  V30 3720 O 369.717 1.79999 -0.00587914 0
M  V30 3721 H 366.092 0.701038 -0.272121 0
M  V30 3722 H 368.063 2.35685 -1.83017 0
M  V30 3723 C 366.812 3.45019 -0.430962 0
M  V30 3724 H 366.135 3.8071 -1.22064 0
M  V30 3725 H 367.575 4.23125 -0.272301 0
M  V30 3726 C 366.034 3.25943 0.852207 0
M  V30 3727 O 366.564 3.5296 1.91786 0
M  V30 3728 N 364.77 2.79304 0.802346 0
M  V30 3729 H 364.317 2.57518 -0.0650788 0
M  V30 3730 H 364.275 2.66921 1.66134 0
M  V30 3731 N 368.047 0.979072 1.23499 0
M  V30 3732 C 368.995 0.510604 2.26926 0
M  V30 3733 C 369.989 -0.431691 1.63807 0
M  V30 3734 O 371.195 -0.30573 1.77385 0
M  V30 3735 H 367.57 0.146688 0.737554 0
M  V30 3736 H 369.541 1.39466 2.63803 0
M  V30 3737 C 368.29 -0.172658 3.47271 0
M  V30 3738 H 367.613 0.543331 3.96091 0
M  V30 3739 H 369.053 -0.464101 4.21452 0
M  V30 3740 C 367.512 -1.40345 3.06276 0
M  V30 3741 O 368.042 -2.49978 3.14442 0
M  V30 3742 N 366.248 -1.27362 2.61203 0
M  V30 3743 H 365.795 -0.381584 2.54758 0
M  V30 3744 H 365.753 -2.09822 2.34141 0
M  V30 3745 N 369.525 -1.3858 0.750561 0
M  V30 3746 C 370.458 -2.28095 0.0693139 0
M  V30 3747 C 371.436 -1.45217 -0.731491 0
M  V30 3748 O 372.62 -1.74587 -0.71076 0
M  V30 3749 C 369.747 -3.26282 -0.90871 0
M  V30 3750 C 368.793 -4.26056 -0.194507 0
M  V30 3751 S 369.626 -5.24026 1.10257 0
M  V30 3752 C 370.782 -6.2577 0.127542 0
M  V30 3753 H 371.015 -2.85526 0.8284 0
M  V30 3754 H 368.548 -1.44536 0.543014 0
M  V30 3755 H 370.506 -3.83367 -1.46766 0
M  V30 3756 H 369.167 -2.6784 -1.64075 0
M  V30 3757 H 368.36 -4.95249 -0.93512 0
M  V30 3758 H 367.962 -3.72852 0.292837 0
M  V30 3759 H 370.254 -6.73796 -0.707516 0
M  V30 3760 H 371.197 -7.03712 0.787044 0
M  V30 3761 H 371.605 -5.63938 -0.251803 0
M  V30 3762 N 371.003 -0.499398 -1.49478 0
M  V30 3763 C 372.419 -0.155261 -1.58843 0
M  V30 3764 C 372.619 1.34008 -1.50479 0
M  V30 3765 O 371.675 2.11589 -1.37791 0
M  V30 3766 C 372.988 -0.730636 -2.91689 0
M  V30 3767 C 374.536 -0.696599 -3.0515 0
M  V30 3768 C 375.011 -1.25001 -4.40612 0
M  V30 3769 N 376.502 -1.21064 -4.47099 0
M  V30 3770 C 377.237 -1.60905 -5.50361 0
M  V30 3771 N 376.733 -2.08331 -6.60735 0
M  V30 3772 N 378.526 -1.52331 -5.41065 0
M  V30 3773 H 370.677 -1.47162 -1.53158 0
M  V30 3774 H 372.94 -0.610309 -0.725415 0
M  V30 3775 H 372.646 -1.77928 -3.03372 0
M  V30 3776 H 372.52 -0.190161 -3.7672 0
M  V30 3777 H 374.907 0.343204 -2.93097 0
M  V30 3778 H 374.988 -1.2742 -2.21806 0
M  V30 3779 H 374.632 -2.28859 -4.53416 0
M  V30 3780 H 374.562 -0.64836 -5.22593 0
M  V30 3781 H 377.053 -0.863128 -3.67911 0
M  V30 3782 H 377.366 -2.36805 -7.35624 0
M  V30 3783 H 375.711 -2.12304 -6.6178 0
M  V30 3784 H 378.902 -1.151 -4.53729 0
M  V30 3785 H 379.075 -1.83704 -6.21415 0
M  V30 3786 N 372.481 1.55866 -0.233164 0
M  V30 3787 C 373.727 1.98897 0.395959 0
M  V30 3788 C 374.06 1.12091 1.58585 0
M  V30 3789 O 373.335 0.181182 1.93654 0
M  V30 3790 C 373.618 3.50658 0.819224 0
M  V30 3791 C 373.471 4.48233 -0.375109 0
M  V30 3792 C 374.79 4.07135 1.67121 0
M  V30 3793 H 371.909 0.723102 0.142451 0
M  V30 3794 H 374.551 1.87082 -0.331725 0
M  V30 3795 H 372.701 3.60857 1.43925 0
M  V30 3796 H 374.373 4.50031 -1.01341 0
M  V30 3797 H 372.616 4.21624 -1.02058 0
M  V30 3798 H 373.287 5.51988 -0.0358328 0
M  V30 3799 H 375.763 3.99952 1.14795 0
M  V30 3800 H 374.639 5.13615 1.93625 0
M  V30 3801 H 374.9 3.54736 2.63846 0
M  V30 3802 N 373.959 -0.0401083 1.57549 0
M  V30 3803 C 375.189 -0.744115 1.92734 0
M  V30 3804 C 375.597 -1.70005 0.830348 0
M  V30 3805 O 374.94 -1.82576 -0.20286 0
M  V30 3806 C 375.002 -1.56516 3.2364 0
M  V30 3807 C 374.666 -0.7752 4.50377 0
M  V30 3808 C 375.663 -0.0803326 5.19838 0
M  V30 3809 C 373.348 -0.733002 4.96923 0
M  V30 3810 C 375.342 0.646154 6.34116 0
M  V30 3811 C 373.029 -0.00276321 6.111 0
M  V30 3812 C 374.027 0.685585 6.7955 0
M  V30 3813 O 373.715 1.40399 7.91545 0
M  V30 3814 H 373.447 -0.214861 0.640945 0
M  V30 3815 H 376.001 -0.00503675 2.05399 0
M  V30 3816 H 374.231 -2.3478 3.07271 0
M  V30 3817 H 375.92 -2.15076 3.44234 0
M  V30 3818 H 376.686 -0.104035 4.84888 0
M  V30 3819 H 372.565 -1.25827 4.43496 0
M  V30 3820 H 376.109 1.18398 6.87479 0
M  V30 3821 H 372.006 0.0229012 6.45496 0
M  V30 3822 H 372.774 1.31653 8.07843 0
M  V30 3823 N 375.437 -1.54477 -0.31217 0
M  V30 3824 C 376.685 -1.72884 -1.04668 0
M  V30 3825 C 377.006 -0.511477 -1.88173 0
M  V30 3826 O 376.276 0.474407 -1.90069 0
M  V30 3827 H 374.856 -0.637461 -0.389425 0
M  V30 3828 H 377.518 -1.91807 -0.345852 0
M  V30 3829 H 376.614 -2.61334 -1.70619 0
M  V30 3830 N 376.915 0.57481 -1.46744 0
M  V30 3831 C 378.143 1.35856 -1.56047 0
M  V30 3832 C 378.558 1.87691 -0.204365 0
M  V30 3833 O 377.915 1.64049 0.79963 0
M  V30 3834 C 377.966 2.54066 -2.57163 0
M  V30 3835 O 377.687 2.04377 -3.87507 0
M  V30 3836 C 379.188 3.46514 -2.76483 0
M  V30 3837 H 376.408 0.414754 -0.527466 0
M  V30 3838 H 378.952 0.698035 -1.92218 0
M  V30 3839 H 377.107 3.16092 -2.23974 0
M  V30 3840 H 377.521 2.81419 -4.4261 0
M  V30 3841 H 378.995 4.25919 -3.51137 0
M  V30 3842 H 379.472 3.98951 -1.83671 0
M  V30 3843 H 380.078 2.90318 -3.10799 0
M  V30 3844 N 378.394 1.34581 0.820102 0
M  V30 3845 C 379.643 1.26437 1.57151 0
M  V30 3846 C 379.956 -0.163111 1.94919 0
M  V30 3847 O 381.162 -0.366722 2.69012 0
M  V30 3848 C 379.618 2.21658 2.83541 0
M  V30 3849 C 379.226 3.69679 2.53065 0
M  V30 3850 C 380.97 2.22428 3.61561 0
M  V30 3851 C 378.877 4.56761 3.75664 0
M  V30 3852 H 377.807 0.469707 0.589823 0
M  V30 3853 H 380.458 1.59763 0.902656 0
M  V30 3854 H 378.84 1.81287 3.52067 0
M  V30 3855 H 380.014 4.18605 1.92631 0
M  V30 3856 H 378.329 3.71384 1.88316 0
M  V30 3857 H 380.926 2.8471 4.52597 0
M  V30 3858 H 381.269 1.22434 3.97889 0
M  V30 3859 H 381.802 2.61259 2.99981 0
M  V30 3860 H 378.541 5.57702 3.44454 0
M  V30 3861 H 378.061 4.12568 4.35371 0
M  V30 3862 H 379.74 4.71509 4.43044 0
M  V30 3863 N 379.872 -1.04064 1.18357 0
M  V30 3864 C 381.119 -1.77265 0.978947 0
M  V30 3865 C 381.447 -1.88189 -0.491428 0
M  V30 3866 O 380.702 -1.38653 -1.38108 0
M  V30 3867 C 381.001 -3.20634 1.57888 0
M  V30 3868 C 380.667 -3.29743 3.07539 0
M  V30 3869 C 379.329 -3.31937 3.48384 0
M  V30 3870 C 381.681 -3.29841 4.03552 0
M  V30 3871 C 379.009 -3.3187 4.83818 0
M  V30 3872 C 381.361 -3.31313 5.38901 0
M  V30 3873 C 380.025 -3.31799 5.79194 0
M  V30 3874 H 379.295 -0.648659 0.358222 0
M  V30 3875 H 381.942 -1.22225 1.47422 0
M  V30 3876 H 380.247 -3.78675 1.00561 0
M  V30 3877 H 381.944 -3.75917 1.39598 0
M  V30 3878 H 378.534 -3.28757 2.74986 0
M  V30 3879 H 382.718 -3.27337 3.73047 0
M  V30 3880 H 377.974 -3.30562 5.14333 0
M  V30 3881 H 382.148 -3.30338 6.13066 0
M  V30 3882 H 379.775 -3.315 6.84114 0
M  V30 3883 N 381.35 -0.985608 -1.22978 0
M  V30 3884 C 382.28 -0.549649 -2.26939 0
M  V30 3885 C 383.261 0.419803 -1.64838 0
M  V30 3886 O 384.446 0.31203 -1.91677 0
M  V30 3887 C 381.576 0.143652 -3.47003 0
M  V30 3888 C 380.53 -0.743606 -4.21491 0
M  V30 3889 C 379.856 0.0822027 -5.34637 0
M  V30 3890 C 381.156 -2.03694 -4.80943 0
M  V30 3891 H 382.85 -1.41862 -2.63658 0
M  V30 3892 H 380.396 -0.683571 -1.26741 0
M  V30 3893 H 382.349 0.459985 -4.18882 0
M  V30 3894 H 381.073 1.04711 -3.09359 0
M  V30 3895 H 379.732 -1.04347 -3.51436 0
M  V30 3896 H 379.38 0.986359 -4.93234 0
M  V30 3897 H 379.08 -0.508377 -5.85397 0
M  V30 3898 H 380.604 0.392797 -6.09335 0
M  V30 3899 H 382.018 -1.78504 -5.44802 0
M  V30 3900 H 380.415 -2.57573 -5.42011 0
M  V30 3901 H 381.485 -2.72042 -4.01399 0
M  V30 3902 N 382.828 1.3818 -0.7579 0
M  V30 3903 C 384.056 2.04301 -0.326937 0
M  V30 3904 C 384.471 1.57163 1.0462 0
M  V30 3905 O 383.828 0.746626 1.66529 0
M  V30 3906 C 383.879 3.59846 -0.345363 0
M  V30 3907 O 383.6 4.05256 -1.66432 0
M  V30 3908 C 385.101 4.4319 0.098927 0
M  V30 3909 H 382.321 0.656443 -0.139012 0
M  V30 3910 H 384.865 1.76786 -1.02796 0
M  V30 3911 H 383.02 3.86182 0.306955 0
M  V30 3912 H 383.434 4.99709 -1.59345 0
M  V30 3913 H 384.908 5.51989 0.0348745 0
M  V30 3914 H 385.385 4.23947 1.14741 0
M  V30 3915 H 385.991 4.22051 -0.52468 0
M  V30 3916 N 384.306 0.507319 1.49211 0
M  V30 3917 C 385.553 -0.0349529 2.0247 0
M  V30 3918 C 385.881 -1.36409 1.38647 0
M  V30 3919 O 385.136 -1.88841 0.513566 0
M  V30 3920 C 385.435 -0.229513 3.56662 0
M  V30 3921 C 385.101 1.02241 4.39156 0
M  V30 3922 C 383.763 1.36557 4.61417 0
M  V30 3923 C 386.115 1.85428 4.871 0
M  V30 3924 C 383.443 2.53999 5.28868 0
M  V30 3925 C 385.795 3.02028 5.55843 0
M  V30 3926 C 384.459 3.36717 5.76349 0
M  V30 3927 H 383.729 -0.0127902 0.74089 0
M  V30 3928 H 386.376 0.668756 1.79443 0
M  V30 3929 H 384.681 -1.0158 3.78403 0
M  V30 3930 H 386.378 -0.663641 3.9547 0
M  V30 3931 H 382.968 0.745124 4.22073 0
M  V30 3932 H 387.152 1.6023 4.69723 0
M  V30 3933 H 382.408 2.81105 5.42946 0
M  V30 3934 H 386.582 3.66808 5.91967 0
M  V30 3935 H 384.209 4.27821 6.28389 0
M  V30 3936 N 385.784 -1.5574 0.241426 0
M  V30 3937 C 386.717 -2.17168 -0.700935 0
M  V30 3938 C 387.695 -1.12206 -1.1768 0
M  V30 3939 O 388.879 -1.40565 -1.25593 0
M  V30 3940 C 386.006 -2.76796 -1.95196 0
M  V30 3941 C 385.052 -3.94764 -1.61442 0
M  V30 3942 S 385.885 -5.30613 -0.72182 0
M  V30 3943 C 387.041 -5.93691 -1.98197 0
M  V30 3944 H 387.274 -2.96761 -0.178882 0
M  V30 3945 H 384.807 -1.54378 0.0259299 0
M  V30 3946 H 386.765 -3.11787 -2.67019 0
M  V30 3947 H 385.426 -1.9716 -2.44514 0
M  V30 3948 H 384.619 -4.35057 -2.54443 0
M  V30 3949 H 384.221 -3.61022 -0.976672 0
M  V30 3950 H 386.513 -6.10874 -2.92983 0
M  V30 3951 H 387.456 -6.89258 -1.62262 0
M  V30 3952 H 387.864 -5.22709 -2.13156 0
M  V30 3953 N 387.262 0.0317525 -1.57568 0
M  V30 3954 C 388.49 0.734949 -1.93407 0
M  V30 3955 C 388.905 1.69036 -0.84096 0
M  V30 3956 O 388.262 1.81582 0.182836 0
M  V30 3957 C 388.313 1.49432 -3.29169 0
M  V30 3958 O 388.034 0.577261 -4.3428 0
M  V30 3959 C 389.535 2.29492 -3.79273 0
M  V30 3960 H 386.755 0.206706 -0.638368 0
M  V30 3961 H 389.299 -0.00992046 -2.04498 0
M  V30 3962 H 387.454 2.1911 -3.19483 0
M  V30 3963 H 387.868 1.10952 -5.1263 0
M  V30 3964 H 389.342 2.78172 -4.76785 0
M  V30 3965 H 389.819 3.10794 -3.10328 0
M  V30 3966 H 390.425 1.64894 -3.92033 0
M  V30 3967 N 388.74 1.54641 0.303973 0
M  V30 3968 C 389.67 1.88386 1.3796 0
M  V30 3969 C 390.651 0.742485 1.5304 0
M  V30 3970 O 391.836 0.997959 1.66597 0
M  V30 3971 C 388.966 2.12854 2.74427 0
M  V30 3972 C 387.92 3.28702 2.74115 0
M  V30 3973 C 387.246 3.38582 4.13844 0
M  V30 3974 C 388.546 4.65881 2.3612 0
M  V30 3975 H 390.24 2.78474 1.09966 0
M  V30 3976 H 387.786 1.33988 0.527556 0
M  V30 3977 H 389.739 2.35047 3.49758 0
M  V30 3978 H 388.463 1.19535 3.03939 0
M  V30 3979 H 387.122 3.06428 2.0124 0
M  V30 3980 H 386.77 2.42784 4.40528 0
M  V30 3981 H 386.47 4.16453 4.14537 0
M  V30 3982 H 387.994 3.63031 4.90959 0
M  V30 3983 H 389.408 4.87823 3.01167 0
M  V30 3984 H 387.805 5.46444 2.48031 0
M  V30 3985 H 388.875 4.66799 1.3125 0
M  V30 3986 N 390.218 -0.567019 1.47046 0
M  V30 3987 C 391.464 -1.32658 1.53394 0
M  V30 3988 C 391.797 -1.93254 0.19148 0
M  V30 3989 O 391.072 -1.77338 -0.798844 0
M  V30 3990 C 391.355 -2.44412 2.64452 0
M  V30 3991 C 391.208 -1.88749 4.08282 0
M  V30 3992 C 392.527 -3.46387 2.71485 0
M  V30 3993 H 389.646 -0.48098 0.558415 0
M  V30 3994 H 392.288 -0.635481 1.79058 0
M  V30 3995 H 390.438 -3.03363 2.427 0
M  V30 3996 H 392.11 -1.34134 4.41368 0
M  V30 3997 H 390.353 -1.19481 4.17021 0
M  V30 3998 H 391.024 -2.69491 4.81745 0
M  V30 3999 H 393.5 -2.9734 2.91081 0
M  V30 4000 H 392.376 -4.2202 3.50985 0
M  V30 4001 H 392.637 -4.04616 1.78153 0
M  V30 4002 N 391.696 -1.35014 -0.812953 0
M  V30 4003 C 392.942 -1.2812 -1.57204 0
M  V30 4004 C 393.275 0.145869 -1.93651 0
M  V30 4005 O 392.55 1.0937 -1.60836 0
M  V30 4006 C 392.833 -2.18162 -2.86492 0
M  V30 4007 C 392.686 -3.69454 -2.56561 0
M  V30 4008 C 394.005 -2.07439 -3.88145 0
M  V30 4009 H 391.124 -0.466746 -0.570366 0
M  V30 4010 H 393.766 -1.65357 -0.935783 0
M  V30 4011 H 391.916 -1.86535 -3.40789 0
M  V30 4012 H 393.588 -4.11493 -2.08497 0
M  V30 4013 H 391.831 -3.9005 -1.89851 0
M  V30 4014 H 392.502 -4.27835 -3.48799 0
M  V30 4015 H 394.978 -2.35228 -3.4323 0
M  V30 4016 H 393.854 -2.7265 -4.76396 0
M  V30 4017 H 394.115 -1.05439 -4.29343 0
M  V30 4018 N 393.175 1.03435 -1.18907 0
M  V30 4019 C 394.422 1.76743 -0.988334 0
M  V30 4020 C 394.75 1.88447 0.481441 0
M  V30 4021 O 394.005 1.39383 1.37371 0
M  V30 4022 C 394.304 3.19792 -1.59586 0
M  V30 4023 C 393.97 3.28108 -3.09283 0
M  V30 4024 C 392.632 3.30084 -3.5014 0
M  V30 4025 C 394.984 3.27696 -4.05296 0
M  V30 4026 C 392.312 3.29299 -4.85571 0
M  V30 4027 C 394.664 3.28451 -5.4065 0
M  V30 4028 C 393.328 3.28723 -5.80946 0
M  V30 4029 H 392.598 0.64675 -0.361657 0
M  V30 4030 H 395.245 1.21442 -1.48068 0
M  V30 4031 H 393.55 3.78136 -1.02568 0
M  V30 4032 H 395.247 3.75171 -1.41589 0
M  V30 4033 H 391.837 3.27294 -2.76725 0
M  V30 4034 H 396.021 3.25354 -3.74778 0
M  V30 4035 H 391.277 3.2783 -5.16079 0
M  V30 4036 H 395.451 3.27082 -6.14809 0
M  V30 4037 H 393.078 3.27868 -6.85862 0
M  V30 4038 N 394.653 0.992116 1.22453 0
M  V30 4039 C 395.899 0.668523 1.91464 0
M  V30 4040 C 396.232 -0.797313 1.77078 0
M  V30 4041 O 395.507 -1.5765 1.13916 0
M  V30 4042 C 395.79 1.07424 3.43703 0
M  V30 4043 C 395.643 2.59857 3.67143 0
M  V30 4044 C 396.962 0.626891 4.35612 0
M  V30 4045 H 394.081 0.244341 0.695318 0
M  V30 4046 H 396.723 1.2355 1.44345 0
M  V30 4047 H 394.873 0.591816 3.83966 0
M  V30 4048 H 396.545 3.15764 3.3629 0
M  V30 4049 H 394.788 3.01961 3.11451 0
M  V30 4050 H 395.459 2.83296 4.73759 0
M  V30 4051 H 397.935 1.04125 4.02861 0
M  V30 4052 H 396.811 0.939076 5.40807 0
M  V30 4053 H 397.072 -0.472457 4.39568 0
M  V30 4054 N 396.131 -1.37776 0.765217 0
M  V30 4055 C 397.379 -1.99454 0.325943 0
M  V30 4056 C 397.7 -1.61049 -1.09947 0
M  V30 4057 O 396.97 -0.872821 -1.75381 0
M  V30 4058 H 395.55 -0.737697 0.117525 0
M  V30 4059 H 398.212 -1.68359 0.981895 0
M  V30 4060 H 397.308 -3.09547 0.398353 0
M  V30 4061 N 397.609 -0.515225 -1.4894 0
M  V30 4062 C 398.855 0.0242508 -2.02785 0
M  V30 4063 C 399.188 1.35323 -1.39289 0
M  V30 4064 O 398.463 1.87041 -0.533469 0
M  V30 4065 C 398.746 0.16184 -3.59736 0
M  V30 4066 C 398.599 -1.19127 -4.33738 0
M  V30 4067 C 399.918 0.895719 -4.30888 0
M  V30 4068 H 397.037 0.00733914 -0.736963 0
M  V30 4069 H 399.679 -0.669395 -1.77818 0
M  V30 4070 H 397.829 0.752624 -3.8114 0
M  V30 4071 H 399.501 -1.82202 -4.23792 0
M  V30 4072 H 397.744 -1.77695 -3.95736 0
M  V30 4073 H 398.415 -1.04815 -5.41957 0
M  V30 4074 H 400.891 0.394528 -4.14225 0
M  V30 4075 H 399.767 0.960859 -5.40425 0
M  V30 4076 H 400.028 1.9427 -3.97129 0
M  V30 4077 N 399.087 1.5561 -0.249682 0
M  V30 4078 C 400.034 2.21496 0.648694 0
M  V30 4079 C 401.004 1.17977 1.16921 0
M  V30 4080 O 402.189 1.46434 1.22318 0
M  V30 4081 C 399.329 2.92039 1.83868 0
M  V30 4082 C 398.442 4.10219 1.35442 0
M  V30 4083 C 397.577 4.6847 2.50419 0
M  V30 4084 C 396.616 5.78893 1.98869 0
M  V30 4085 N 395.753 6.31315 3.07223 0
M  V30 4086 H 400.593 2.97892 0.0801582 0
M  V30 4087 H 398.13 1.47074 0.0278031 0
M  V30 4088 H 400.088 3.31138 2.53778 0
M  V30 4089 H 398.718 2.18111 2.37965 0
M  V30 4090 H 397.77 3.76413 0.54928 0
M  V30 4091 H 399.082 4.89927 0.936649 0
M  V30 4092 H 398.236 5.10158 3.28366 0
M  V30 4093 H 396.975 3.87984 2.95499 0
M  V30 4094 H 395.98 5.3668 1.19393 0
M  V30 4095 H 397.205 6.61232 1.54755 0
M  V30 4096 H 395.151 5.53733 3.51732 0
M  V30 4097 H 395.068 7.06224 2.69784 0
M  V30 4098 H 396.336 6.77662 3.8522 0
M  V30 4099 N 400.565 -0.0233959 1.57583 0
M  V30 4100 C 401.795 -0.723631 1.93513 0
M  V30 4101 C 402.203 -1.69115 0.848333 0
M  V30 4102 O 401.546 -1.82781 -0.183484 0
M  V30 4103 C 401.608 -1.53075 3.25282 0
M  V30 4104 C 401.272 -0.727388 4.51174 0
M  V30 4105 C 402.269 -0.0251924 5.19894 0
M  V30 4106 C 399.954 -0.680256 4.97672 0
M  V30 4107 C 401.948 0.713374 6.33395 0
M  V30 4108 C 399.635 0.0620523 6.11068 0
M  V30 4109 C 400.633 0.757622 6.78785 0
M  V30 4110 O 400.321 1.48787 7.90011 0
M  V30 4111 H 400.053 -0.208051 0.643188 0
M  V30 4112 H 402.607 0.0167489 2.05393 0
M  V30 4113 H 400.837 -2.31508 3.09744 0
M  V30 4114 H 402.526 -2.11413 3.46496 0
M  V30 4115 H 403.292 -0.0526003 4.84971 0
M  V30 4116 H 399.171 -1.21116 4.44805 0
M  V30 4117 H 402.715 1.25683 6.86185 0
M  V30 4118 H 398.612 0.0913634 6.45435 0
M  V30 4119 H 399.38 1.40213 8.06401 0
M  V30 4120 N 402.043 -1.548 -0.295768 0
M  V30 4121 C 403.289 -1.74588 -1.03184 0
M  V30 4122 C 403.622 -0.532962 -1.86744 0
M  V30 4123 O 402.897 0.469872 -1.88739 0
M  V30 4124 C 403.18 -3.03791 -1.93347 0
M  V30 4125 C 403.033 -4.35392 -1.12933 0
M  V30 4126 C 404.352 -3.28892 -2.92435 0
M  V30 4127 H 401.471 -0.635221 -0.373715 0
M  V30 4128 H 404.113 -1.87519 -0.30606 0
M  V30 4129 H 402.263 -2.92898 -2.55232 0
M  V30 4130 H 403.935 -4.58211 -0.532943 0
M  V30 4131 H 402.178 -4.31642 -0.432168 0
M  V30 4132 H 402.849 -5.22074 -1.79284 0
M  V30 4133 H 405.325 -3.39429 -2.4068 0
M  V30 4134 H 404.201 -4.20603 -3.52682 0
M  V30 4135 H 404.462 -2.47437 -3.6637 0
M  V30 4136 N 403.521 0.559213 -1.47345 0
M  V30 4137 C 404.469 1.68747 -1.60085 0
M  V30 4138 C 405.463 1.628 -0.46825 0
M  V30 4139 O 406.669 1.68009 -0.645977 0
M  V30 4140 H 403.044 0.558329 -0.503759 0
M  V30 4141 H 405.015 1.55138 -2.54902 0
M  V30 4142 C 403.764 3.07103 -1.63042 0
M  V30 4143 H 403.087 3.12361 -2.49541 0
M  V30 4144 H 404.527 3.85743 -1.76006 0
M  V30 4145 C 402.986 3.34935 -0.363357 0
M  V30 4146 O 403.516 3.98102 0.536416 0
M  V30 4147 N 401.722 2.89574 -0.244 0
M  V30 4148 H 401.269 2.38348 -0.977133 0
M  V30 4149 H 401.227 3.08566 0.602836 0
M  V30 4150 N 404.999 1.35443 0.805782 0
M  V30 4151 C 405.946 1.28431 1.91766 0
M  V30 4152 C 406.916 0.156102 1.65365 0
M  V30 4153 O 408.101 0.339936 1.87747 0
M  V30 4154 C 405.241 1.06301 3.2832 0
M  V30 4155 C 404.354 2.2805 3.66902 0
M  V30 4156 C 403.489 1.99064 4.92491 0
M  V30 4157 C 402.528 3.16863 5.23703 0
M  V30 4158 N 401.665 2.87647 6.40471 0
M  V30 4159 H 406.505 2.23511 1.97096 0
M  V30 4160 H 404.042 1.11105 0.964054 0
M  V30 4161 H 406 0.915012 4.07042 0
M  V30 4162 H 404.63 0.148822 3.22457 0
M  V30 4163 H 403.682 2.53711 2.83434 0
M  V30 4164 H 404.994 3.1601 3.85927 0
M  V30 4165 H 404.148 1.81099 5.7904 0
M  V30 4166 H 402.887 1.0839 4.75503 0
M  V30 4167 H 401.892 3.35404 4.35642 0
M  V30 4168 H 403.117 4.08339 5.4262 0
M  V30 4169 H 401.063 1.99568 6.24907 0
M  V30 4170 H 400.98 3.69141 6.59751 0
M  V30 4171 H 402.248 2.73226 7.30047 0
M  V30 4172 N 406.477 -1.02803 1.19454 0
M  V30 4173 C 407.724 -1.76217 0.997693 0
M  V30 4174 C 408.052 -1.887 -0.47144 0
M  V30 4175 O 407.307 -1.4011 -1.3663 0
M  V30 4176 C 407.606 -3.18941 1.6128 0
M  V30 4177 C 407.272 -3.26463 3.11019 0
M  V30 4178 C 405.934 -3.28223 3.51885 0
M  V30 4179 C 408.286 -3.25542 4.07028 0
M  V30 4180 C 405.614 -3.26719 4.8731 0
M  V30 4181 C 407.966 -3.25579 5.42385 0
M  V30 4182 C 406.63 -3.25637 5.82681 0
M  V30 4183 H 405.9 -0.644823 0.365082 0
M  V30 4184 H 408.547 -1.20655 1.4871 0
M  V30 4185 H 406.852 -3.77587 1.04572 0
M  V30 4186 H 408.549 -3.74415 1.43577 0
M  V30 4187 H 405.139 -3.25822 2.78457 0
M  V30 4188 H 409.323 -3.23362 3.76498 0
M  V30 4189 H 404.579 -3.25089 5.1781 0
M  V30 4190 H 408.753 -3.23817 6.16535 0
M  V30 4191 H 406.38 -3.24226 6.87591 0
M  V30 4192 N 407.956 -0.998596 -1.21925 0
M  V30 4193 C 408.919 -0.558679 -2.22287 0
M  V30 4194 C 409.919 0.361525 -1.56683 0
M  V30 4195 O 411.109 0.152695 -1.73529 0
M  V30 4196 C 408.241 0.18661 -3.40389 0
M  V30 4197 H 409.434 -1.4463 -2.62721 0
M  V30 4198 H 406.987 -0.786413 -1.35075 0
M  V30 4199 H 407.722 1.08996 -3.05435 0
M  V30 4200 H 407.507 -0.474188 -3.89222 0
M  V30 4201 H 408.997 0.482367 -4.14805 0
M  V30 4202 N 409.434 1.37368 -0.772513 0
M  V30 4203 C 410.659 2.0447 -0.347386 0
M  V30 4204 C 411.084 1.57882 1.0225 0
M  V30 4205 O 410.442 0.73941 1.65537 0
M  V30 4206 C 410.49 3.58369 -0.400479 0
M  V30 4207 O 409.594 4.0803 0.598789 0
M  V30 4208 H 408.935 0.646773 -0.15027 0
M  V30 4209 H 411.465 1.75667 -1.04892 0
M  V30 4210 H 411.475 4.07183 -0.258045 0
M  V30 4211 H 410.15 3.91633 -1.39986 0
M  V30 4212 H 408.727 3.70534 0.419411 0
M  V30 4213 N 410.912 0.523116 1.48665 0
M  V30 4214 C 411.842 -0.23231 2.32342 0
M  V30 4215 C 412.823 -0.941637 1.41659 0
M  V30 4216 O 414.008 -0.928751 1.70552 0
M  V30 4217 C 411.138 -1.28387 3.22698 0
M  V30 4218 C 410.092 -0.693098 4.22351 0
M  V30 4219 C 409.418 -1.8468 5.01794 0
M  V30 4220 C 410.718 0.33063 5.21252 0
M  V30 4221 H 412.412 0.466192 2.95748 0
M  V30 4222 H 409.958 0.225643 1.42221 0
M  V30 4223 H 411.911 -1.82024 3.80059 0
M  V30 4224 H 410.635 -2.01186 2.57278 0
M  V30 4225 H 409.294 -0.178299 3.66166 0
M  V30 4226 H 408.942 -2.56301 4.32804 0
M  V30 4227 H 408.642 -1.45747 5.69238 0
M  V30 4228 H 410.166 -2.38709 5.62006 0
M  V30 4229 H 411.58 -0.118407 5.73178 0
M  V30 4230 H 409.977 0.636974 5.9671 0
M  V30 4231 H 411.047 1.23883 4.68808 0
M  V30 4232 N 412.39 -1.55475 0.257931 0
M  V30 4233 C 413.637 -1.99207 -0.363728 0
M  V30 4234 C 413.965 -1.1462 -1.57139 0
M  V30 4235 O 413.22 -0.199653 -1.94679 0
M  V30 4236 C 413.519 -3.48183 -0.806433 0
M  V30 4237 C 413.185 -4.49936 0.294684 0
M  V30 4238 C 411.847 -4.77481 0.597076 0
M  V30 4239 C 414.199 -5.10769 1.03751 0
M  V30 4240 C 411.527 -5.63132 1.64618 0
M  V30 4241 C 413.879 -5.97558 2.07622 0
M  V30 4242 C 412.543 -6.23432 2.38514 0
M  V30 4243 H 411.813 -0.728949 -0.133097 0
M  V30 4244 H 414.46 -1.8793 0.368059 0
M  V30 4245 H 412.765 -3.56848 -1.61761 0
M  V30 4246 H 414.462 -3.79415 -1.29789 0
M  V30 4247 H 411.052 -4.28572 0.0488649 0
M  V30 4248 H 415.236 -4.89527 0.817149 0
M  V30 4249 H 410.492 -5.8143 1.89074 0
M  V30 4250 H 414.666 -6.43735 2.65666 0
M  V30 4251 H 412.293 -6.89594 3.19943 0
M  V30 4252 N 413.868 0.0150385 -1.57593 0
M  V30 4253 C 414.798 1.01047 -2.10503 0
M  V30 4254 C 415.779 1.36816 -1.01071 0
M  V30 4255 O 416.964 1.45455 -1.28672 0
M  V30 4256 C 414.094 2.30708 -2.59598 0
M  V30 4257 C 413.048 2.09142 -3.73421 0
M  V30 4258 C 412.374 3.44685 -4.08774 0
M  V30 4259 C 413.674 1.46619 -5.01298 0
M  V30 4260 H 415.368 0.569978 -2.93925 0
M  V30 4261 H 412.914 0.272724 -1.41394 0
M  V30 4262 H 414.867 3.00687 -2.95238 0
M  V30 4263 H 413.591 2.76843 -1.73279 0
M  V30 4264 H 412.25 1.41592 -3.38153 0
M  V30 4265 H 411.898 3.88495 -3.195 0
M  V30 4266 H 411.598 3.31077 -4.8545 0
M  V30 4267 H 413.122 4.16004 -4.4696 0
M  V30 4268 H 414.536 2.06535 -5.34805 0
M  V30 4269 H 412.933 1.43544 -5.82679 0
M  V30 4270 H 414.003 0.433611 -4.82957 0
M  V30 4271 N 415.346 1.54954 0.287554 0
M  V30 4272 C 416.309 1.86076 1.33823 0
M  V30 4273 C 417.309 0.734414 1.43049 0
M  V30 4274 O 418.499 1.00266 1.42452 0
M  V30 4275 C 415.631 2.05305 2.72144 0
M  V30 4276 H 416.824 2.79984 1.07465 0
M  V30 4277 H 414.377 1.47223 0.524902 0
M  V30 4278 H 415.112 1.1373 3.03704 0
M  V30 4279 H 414.897 2.873 2.66836 0
M  V30 4280 H 416.387 2.30706 3.48087 0
M  V30 4281 N 416.824 -0.551391 1.4764 0
M  V30 4282 C 418.064 -1.31901 1.56145 0
M  V30 4283 C 418.428 -1.90724 0.221013 0
M  V30 4284 O 419.629 -2.6819 0.180945 0
M  V30 4285 C 417.9 -2.39517 2.65267 0
M  V30 4286 S 419.459 -3.26289 2.93395 0
M  V30 4287 H 416.277 -0.448965 0.551318 0
M  V30 4288 H 418.879 -0.630599 1.85051 0
M  V30 4289 H 417.583 -1.94747 3.6125 0
M  V30 4290 H 417.114 -3.13092 2.38195 0
M  V30 4291 H 419.129 -4.39122 2.31055 0
M  V30 4292 N 418.302 -1.35869 -0.798587 0
M  V30 4293 C 419.548 -1.2978 -1.55836 0
M  V30 4294 C 419.881 0.125322 -1.93795 0
M  V30 4295 O 419.156 1.07658 -1.61987 0
M  V30 4296 C 419.439 -2.21188 -2.84162 0
M  V30 4297 C 419.292 -3.72155 -2.52628 0
M  V30 4298 C 420.611 -2.11545 -3.85923 0
M  V30 4299 H 417.73 -0.472769 -0.565383 0
M  V30 4300 H 420.372 -1.66341 -0.918192 0
M  V30 4301 H 418.522 -1.90139 -3.38791 0
M  V30 4302 H 420.194 -4.13682 -2.04121 0
M  V30 4303 H 418.437 -3.92042 -1.85704 0
M  V30 4304 H 419.108 -4.31511 -3.44242 0
M  V30 4305 H 421.584 -2.38855 -3.40716 0
M  V30 4306 H 420.46 -2.77688 -4.73477 0
M  V30 4307 H 420.721 -1.09987 -4.282 0
M  V30 4308 N 419.78 1.02168 -1.19998 0
M  V30 4309 C 421.029 1.75091 -1.0013 0
M  V30 4310 C 421.342 1.89923 0.467835 0
M  V30 4311 O 422.548 2.59888 0.785515 0
M  V30 4312 C 421.004 3.14892 -1.74273 0
M  V30 4313 C 420.612 3.0809 -3.25245 0
M  V30 4314 C 422.356 3.9206 -1.62755 0
M  V30 4315 C 420.263 4.42867 -3.91948 0
M  V30 4316 H 419.193 0.656394 -0.37103 0
M  V30 4317 H 421.844 1.14284 -1.43567 0
M  V30 4318 H 420.226 3.7621 -1.2362 0
M  V30 4319 H 421.4 2.5611 -3.83072 0
M  V30 4320 H 419.715 2.44416 -3.3712 0
M  V30 4321 H 422.312 4.91764 -2.09934 0
M  V30 4322 H 422.655 4.12199 -0.582894 0
M  V30 4323 H 423.188 3.37359 -2.10793 0
M  V30 4324 H 419.927 4.27931 -4.96543 0
M  V30 4325 H 419.447 4.94874 -3.3891 0
M  V30 4326 H 421.126 5.11728 -3.95909 0
M  V30 4327 N 421.258 1.00505 1.21394 0
M  V30 4328 C 422.507 0.683159 1.89778 0
M  V30 4329 C 422.82 -0.789471 1.7896 0
M  V30 4330 O 424.026 -1.22344 2.42372 0
M  V30 4331 C 422.482 1.17146 3.40301 0
M  V30 4332 C 422.09 2.67017 3.5973 0
M  V30 4333 C 423.834 0.924461 4.14311 0
M  V30 4334 C 421.741 3.09387 5.04017 0
M  V30 4335 H 420.671 0.25183 0.710702 0
M  V30 4336 H 423.322 1.21622 1.37406 0
M  V30 4337 H 421.704 0.566451 3.91928 0
M  V30 4338 H 422.878 3.32968 3.18542 0
M  V30 4339 H 421.193 2.89732 2.99073 0
M  V30 4340 H 423.79 1.21658 5.20676 0
M  V30 4341 H 424.133 -0.139286 4.16067 0
M  V30 4342 H 424.666 1.49226 3.6875 0
M  V30 4343 H 421.405 4.14989 5.07409 0
M  V30 4344 H 420.925 2.48149 5.46061 0
M  V30 4345 H 422.604 3.01371 5.72525 0
M  V30 4346 N 422.737 -1.36956 0.779787 0
M  V30 4347 C 423.962 -2.04283 0.358224 0
M  V30 4348 C 424.387 -1.58422 -1.01411 0
M  V30 4349 O 423.745 -0.748179 -1.65142 0
M  V30 4350 C 423.793 -3.58152 0.419479 0
M  V30 4351 O 422.897 -4.08342 -0.577142 0
M  V30 4352 H 422.238 -0.645967 0.153698 0
M  V30 4353 H 424.768 -1.75108 1.05822 0
M  V30 4354 H 424.778 -4.07041 0.279636 0
M  V30 4355 H 423.453 -3.90886 1.42061 0
M  V30 4356 H 422.03 -3.70751 -0.399755 0
M  V30 4357 N 424.215 -0.530993 -1.48385 0
M  V30 4358 C 425.464 0.00474348 -2.01699 0
M  V30 4359 C 425.777 1.35227 -1.41325 0
M  V30 4360 O 426.983 1.97643 -1.86144 0
M  V30 4361 C 425.439 0.0588473 -3.59852 0
M  V30 4362 C 425.047 -1.28385 -4.2921 0
M  V30 4363 C 426.791 0.543358 -4.21008 0
M  V30 4364 C 424.698 -1.19028 -5.79298 0
M  V30 4365 H 423.628 0.00554317 -0.75398 0
M  V30 4366 H 426.279 -0.674924 -1.70637 0
M  V30 4367 H 424.661 0.803612 -3.8776 0
M  V30 4368 H 425.835 -2.04426 -4.12973 0
M  V30 4369 H 424.15 -1.70418 -3.7993 0
M  V30 4370 H 426.747 0.631351 -5.3096 0
M  V30 4371 H 427.09 1.54937 -3.86394 0
M  V30 4372 H 427.623 -0.145754 -3.97533 0
M  V30 4373 H 424.362 -2.17147 -6.18488 0
M  V30 4374 H 423.882 -0.471246 -5.97946 0
M  V30 4375 H 425.561 -0.881365 -6.40969 0
M  V30 4376 N 425.693 1.55336 -0.266172 0
M  V30 4377 C 426.623 2.25146 0.618981 0
M  V30 4378 C 427.604 1.23845 1.16604 0
M  V30 4379 O 428.789 1.52544 1.20183 0
M  V30 4380 C 425.919 2.96572 1.80728 0
M  V30 4381 C 424.873 4.04726 1.39215 0
M  V30 4382 C 424.199 4.63678 2.66283 0
M  V30 4383 C 425.499 5.19407 0.548942 0
M  V30 4384 H 427.193 2.99377 0.0368116 0
M  V30 4385 H 424.739 1.43991 0.0162651 0
M  V30 4386 H 426.692 3.44116 2.43232 0
M  V30 4387 H 425.416 2.19861 2.41514 0
M  V30 4388 H 424.075 3.57979 0.790351 0
M  V30 4389 H 423.723 3.83646 3.25308 0
M  V30 4390 H 423.423 5.367 2.39222 0
M  V30 4391 H 424.947 5.13967 3.29651 0
M  V30 4392 H 426.361 5.63059 1.07876 0
M  V30 4393 H 424.758 5.98936 0.373593 0
M  V30 4394 H 425.828 4.8295 -0.434394 0
M  V30 4395 N 427.171 -0.0066808 1.57599 0
M  V30 4396 C 428.396 -0.707738 1.94951 0
M  V30 4397 C 428.821 -1.66882 0.867868 0
M  V30 4398 O 428.179 -1.80457 -0.17458 0
M  V30 4399 C 428.227 -1.42162 3.31394 0
M  V30 4400 O 427.331 -2.53578 3.25226 0
M  V30 4401 H 426.672 -0.188752 0.636607 0
M  V30 4402 H 429.202 0.0445193 2.04552 0
M  V30 4403 H 429.212 -1.78655 3.66806 0
M  V30 4404 H 427.887 -0.716903 4.09675 0
M  V30 4405 H 426.464 -2.19463 3.01481 0
M  V30 4406 N 428.649 -1.55105 -0.279332 0
M  V30 4407 C 429.898 -1.74618 -1.00952 0
M  V30 4408 C 430.211 -0.551096 -1.87676 0
M  V30 4409 O 431.417 -0.628507 -2.64125 0
M  V30 4410 C 429.873 -3.09025 -1.84476 0
M  V30 4411 C 429.481 -4.36081 -1.0265 0
M  V30 4412 C 431.225 -3.37891 -2.56963 0
M  V30 4413 C 429.132 -5.6153 -1.85576 0
M  V30 4414 H 428.062 -0.650868 -0.38064 0
M  V30 4415 H 430.713 -1.81569 -0.265475 0
M  V30 4416 H 429.095 -2.96095 -2.62952 0
M  V30 4417 H 430.269 -4.59909 -0.286354 0
M  V30 4418 H 428.584 -4.14312 -0.416464 0
M  V30 4419 H 431.181 -4.28822 -3.19399 0
M  V30 4420 H 431.524 -2.57737 -3.26921 0
M  V30 4421 H 432.057 -3.5189 -1.85522 0
M  V30 4422 H 428.796 -6.44413 -1.2005 0
M  V30 4423 H 428.316 -5.41854 -2.57204 0
M  V30 4424 H 429.995 -5.99594 -2.43096 0
M  V30 4425 N 430.127 0.543554 -1.4793 0
M  V30 4426 C 431.357 1.32324 -1.58663 0
M  V30 4427 C 431.765 1.8766 -0.240896 0
M  V30 4428 O 431.108 1.66411 0.778011 0
M  V30 4429 C 431.17 2.52094 -2.56299 0
M  V30 4430 C 430.834 2.17944 -4.01683 0
M  V30 4431 C 431.831 1.74422 -4.89768 0
M  V30 4432 C 429.516 2.28884 -4.47121 0
M  V30 4433 C 431.51 1.42287 -6.21316 0
M  V30 4434 C 429.197 1.96361 -5.78693 0
M  V30 4435 C 430.195 1.53132 -6.65612 0
M  V30 4436 O 429.883 1.21029 -7.94737 0
M  V30 4437 H 429.615 0.409174 -0.538101 0
M  V30 4438 H 432.169 0.663887 -1.94375 0
M  V30 4439 H 430.399 3.20965 -2.15681 0
M  V30 4440 H 432.088 3.14165 -2.57012 0
M  V30 4441 H 432.854 1.65452 -4.55907 0
M  V30 4442 H 428.733 2.61488 -3.79664 0
M  V30 4443 H 432.277 1.08472 -6.89115 0
M  V30 4444 H 428.174 2.04967 -6.12094 0
M  V30 4445 H 428.942 1.34543 -8.07366 0
M  V30 4446 N 431.605 1.3629 0.791371 0
M  V30 4447 C 432.568 1.30309 1.88553 0
M  V30 4448 C 433.568 0.211204 1.59407 0
M  V30 4449 O 434.758 0.465865 1.67855 0
M  V30 4450 C 431.89 1.01956 3.25297 0
M  V30 4451 H 433.083 2.27614 1.95273 0
M  V30 4452 H 430.636 1.21035 0.988953 0
M  V30 4453 H 431.371 0.050998 3.2426 0
M  V30 4454 H 431.156 1.80968 3.4784 0
M  V30 4455 H 432.646 1.0037 4.05359 0
M  V30 4456 N 433.083 -1.0153 1.20538 0
M  V30 4457 C 434.331 -1.74803 1.01432 0
M  V30 4458 C 434.652 -1.8963 -0.454456 0
M  V30 4459 O 433.922 -1.43975 -1.32846 0
M  V30 4460 H 432.502 -0.647598 0.372324 0
M  V30 4461 H 435.164 -1.22402 1.5167 0
M  V30 4462 H 434.26 -2.75114 1.47373 0
M  V30 4463 N 434.561 -1.01147 -1.20859 0
M  V30 4464 C 435.809 -0.696486 -1.89719 0
M  V30 4465 C 436.13 0.775788 -1.78904 0
M  V30 4466 O 435.4 1.55759 -1.18811 0
M  V30 4467 H 433.98 -0.254628 -0.702263 0
M  V30 4468 H 436.642 -1.28197 -1.46804 0
M  V30 4469 H 435.738 -0.975357 -2.96468 0
M  V30 4470 N 436.039 1.36541 -0.78704 0
M  V30 4471 C 437.288 1.98552 -0.35494 0
M  V30 4472 C 437.601 1.63171 1.07864 0
M  V30 4473 O 438.807 2.18399 1.61289 0
M  V30 4474 C 437.263 3.55136 -0.583671 0
M  V30 4475 C 436.871 3.99444 -2.02851 0
M  V30 4476 C 438.615 4.2395 -0.215957 0
M  V30 4477 C 436.522 5.48796 -2.20403 0
M  V30 4478 H 435.452 0.742888 -0.128972 0
M  V30 4479 H 438.103 1.5587 -0.968337 0
M  V30 4480 H 436.485 3.95875 0.0994046 0
M  V30 4481 H 437.659 3.6991 -2.74779 0
M  V30 4482 H 435.974 3.43459 -2.35425 0
M  V30 4483 H 438.571 5.33709 -0.325405 0
M  V30 4484 H 438.914 4.07827 0.835646 0
M  V30 4485 H 439.447 3.88565 -0.852175 0
M  V30 4486 H 436.186 5.69864 -3.23937 0
M  V30 4487 H 435.706 5.79964 -1.52977 0
M  V30 4488 H 437.385 6.14986 -2.01002 0
M  V30 4489 N 437.518 0.538854 1.48102 0
M  V30 4490 C 438.465 -0.219042 2.29758 0
M  V30 4491 C 439.435 -0.925562 1.37922 0
M  V30 4492 O 440.62 -0.924855 1.66886 0
M  V30 4493 C 437.76 -1.25452 3.2149 0
M  V30 4494 C 436.873 -0.555943 4.28408 0
M  V30 4495 C 436.008 -1.57512 5.0731 0
M  V30 4496 C 435.047 -0.860498 6.06021 0
M  V30 4497 N 434.184 -1.82564 6.77949 0
M  V30 4498 H 439.024 0.483449 2.94052 0
M  V30 4499 H 436.561 0.250247 1.44956 0
M  V30 4500 H 438.519 -1.86727 3.7308 0
M  V30 4501 H 437.149 -1.92528 2.591 0
M  V30 4502 H 436.201 0.170938 3.80016 0
M  V30 4503 H 437.513 0.00474616 4.988 0
M  V30 4504 H 436.667 -2.26191 5.62959 0
M  V30 4505 H 435.406 -2.16972 4.36778 0
M  V30 4506 H 434.411 -0.159686 5.49568 0
M  V30 4507 H 435.636 -0.271897 6.78555 0
M  V30 4508 H 433.582 -2.40915 6.10161 0
M  V30 4509 H 433.499 -1.31662 7.44447 0
M  V30 4510 H 434.767 -2.50414 7.38182 0
M  V30 4511 N 438.996 -1.55193 0.274407 0
M  V30 4512 C 440.221 -2.04446 -0.348824 0
M  V30 4513 C 440.646 -1.15149 -1.48735 0
M  V30 4514 O 440.004 -0.149952 -1.80679 0
M  V30 4515 C 440.052 -3.51431 -0.808009 0
M  V30 4516 O 439.156 -3.65225 -1.91531 0
M  V30 4517 H 438.497 -0.66006 -0.0722276 0
M  V30 4518 H 441.027 -2.00481 0.408498 0
M  V30 4519 H 441.037 -3.92781 -1.10395 0
M  V30 4520 H 439.712 -4.15892 0.0249865 0
M  V30 4521 H 438.289 -3.35778 -1.62196 0
M  V30 4522 N 440.474 -0.00167713 -1.576 0
M  V30 4523 C 441.723 0.682021 -1.89819 0
M  V30 4524 C 442.036 1.74844 -0.876871 0
M  V30 4525 O 443.242 2.48688 -1.08934 0
M  V30 4526 C 441.698 1.26425 -3.36964 0
M  V30 4527 C 441.306 0.232568 -4.47396 0
M  V30 4528 C 443.05 1.92604 -3.78291 0
M  V30 4529 C 440.957 0.824882 -5.85619 0
M  V30 4530 H 439.887 0.258499 -0.708304 0
M  V30 4531 H 442.538 -0.0624957 -1.83394 0
M  V30 4532 H 440.92 2.05949 -3.38232 0
M  V30 4533 H 442.094 -0.5382 -4.57646 0
M  V30 4534 H 440.409 -0.32888 -4.15099 0
M  V30 4535 H 443.006 2.37827 -4.78897 0
M  V30 4536 H 443.349 2.75732 -3.11894 0
M  V30 4537 H 443.882 1.19812 -3.79328 0
M  V30 4538 H 440.621 0.0323542 -6.55492 0
M  V30 4539 H 440.141 1.56477 -5.79029 0
M  V30 4540 H 441.82 1.32301 -6.33329 0
M  V30 4541 N 441.952 1.55251 0.271103 0
M  V30 4542 C 443.199 1.75946 1.00245 0
M  V30 4543 C 443.527 0.561611 1.86215 0
M  V30 4544 O 442.782 -0.455832 1.90317 0
M  V30 4545 C 443.081 3.01879 1.91321 0
M  V30 4546 C 442.747 4.34337 1.21086 0
M  V30 4547 C 441.409 4.70338 1.01666 0
M  V30 4548 C 443.761 5.16325 0.71119 0
M  V30 4549 C 441.089 5.8588 0.310099 0
M  V30 4550 C 443.441 6.32597 0.0182157 0
M  V30 4551 C 442.105 6.67236 -0.18768 0
M  V30 4552 H 441.375 0.643833 0.366824 0
M  V30 4553 H 444.022 1.89521 0.27458 0
M  V30 4554 H 442.327 2.83212 2.70736 0
M  V30 4555 H 444.024 3.15088 2.48033 0
M  V30 4556 H 440.614 4.06043 1.37213 0
M  V30 4557 H 444.798 4.88987 0.848844 0
M  V30 4558 H 440.054 6.1124 0.139873 0
M  V30 4559 H 444.228 6.9538 -0.376711 0
M  V30 4560 H 441.855 7.56618 -0.73715 0
M  V30 4561 N 443.43 -0.535701 1.48216 0
M  V30 4562 C 444.707 -1.29683 1.46429 0
M  V30 4563 C 445.087 -2.10391 0.172852 0
M  V30 4564 O 444.435 -2.12282 -0.845488 0
M  V30 4565 C 444.645 -2.18313 2.72287 0
M  V30 4566 C 445.993 -2.78639 3.20383 0
M  V30 4567 O 447.017 -2.28604 2.73164 0
M  V30 4568 O 445.876 -3.69636 4.02531 0
M  V30 4569 H 442.97 -0.585026 0.584529 0
M  V30 4570 H 445.516 -0.552827 1.60443 0
M  V30 4571 H 444.288 -1.58421 3.57797 0
M  V30 4572 H 443.911 -2.99971 2.60966 0
M  V30 4573 N 444.908 -1.36708 -0.784132 0
M  V30 4574 C 446.319 -1.27947 -1.35965 0
M  V30 4575 C 446.67 0.0784013 -1.96043 0
M  V30 4576 O 445.795 0.979989 -1.92938 0
M  V30 4577 C 446.39 -2.31689 -2.47195 0
M  V30 4578 C 444.949 -2.26601 -3.00548 0
M  V30 4579 C 444.096 -2.16184 -1.73666 0
M  V30 4580 H 447.047 -1.4751 -0.585358 0
M  V30 4581 H 447.068 -1.95638 -3.26352 0
M  V30 4582 H 446.58 -3.30506 -2.03439 0
M  V30 4583 H 444.681 -1.31268 -3.48711 0
M  V30 4584 H 444.794 -3.19508 -3.57004 0
M  V30 4585 H 443.158 -1.62524 -1.96107 0
M  V30 4586 H 443.941 -3.16896 -1.32031 0
M  V30 4587 N 446.386 1.0089 -1.21074 0
M  V30 4588 C 447.797 1.56056 -1.02486 0
M  V30 4589 C 448.148 1.91728 0.416506 0
M  V30 4590 O 447.273 1.73066 1.29912 0
M  V30 4591 C 447.868 2.83563 -1.85411 0
M  V30 4592 C 446.427 3.3523 -1.71166 0
M  V30 4593 C 445.574 2.0846 -1.82865 0
M  V30 4594 H 448.525 0.831818 -1.35154 0
M  V30 4595 H 448.546 3.55286 -1.36205 0
M  V30 4596 H 448.058 2.57569 -2.9031 0
M  V30 4597 H 446.159 3.66167 -0.689361 0
M  V30 4598 H 446.272 4.06913 -2.52901 0
M  V30 4599 H 444.636 2.21275 -1.26132 0
M  V30 4600 H 445.419 1.84883 -2.89263 0
M  V30 4601 N 447.864 1.01787 1.20321 0
M  V30 4602 C 449.11 0.708985 1.90003 0
M  V30 4603 C 449.443 -0.759572 1.78729 0
M  V30 4604 O 448.718 -1.55198 1.17234 0
M  V30 4605 C 449.001 1.1469 3.41348 0
M  V30 4606 C 448.854 2.67586 3.61549 0
M  V30 4607 C 450.173 0.71915 4.34185 0
M  V30 4608 H 447.292 0.259034 0.689978 0
M  V30 4609 H 449.934 1.26584 1.41692 0
M  V30 4610 H 448.084 0.673128 3.82624 0
M  V30 4611 H 449.756 3.22826 3.29517 0
M  V30 4612 H 447.999 3.085 3.04976 0
M  V30 4613 H 448.67 2.93281 4.67643 0
M  V30 4614 H 451.146 1.12647 4.00562 0
M  V30 4615 H 450.022 1.05358 5.38694 0
M  V30 4616 H 450.283 -0.379111 4.40472 0
M  V30 4617 N 449.342 -1.36122 0.79427 0
M  V30 4618 C 450.589 -1.99111 0.368905 0
M  V30 4619 C 450.917 -1.63032 -1.0607 0
M  V30 4620 O 450.172 -0.879303 -1.74833 0
M  V30 4621 C 450.471 -3.5409 0.48527 0
M  V30 4622 C 450.137 -4.10003 1.87638 0
M  V30 4623 C 448.799 -4.24986 2.257 0
M  V30 4624 C 451.151 -4.40423 2.78706 0
M  V30 4625 C 448.479 -4.67701 3.54221 0
M  V30 4626 C 450.831 -4.84573 4.0666 0
M  V30 4627 C 449.495 -4.97761 4.44737 0
M  V30 4628 H 448.765 -0.7286 0.134992 0
M  V30 4629 H 451.412 -1.62534 1.01267 0
M  V30 4630 H 449.717 -3.91052 -0.241984 0
M  V30 4631 H 451.414 -4.00766 0.137109 0
M  V30 4632 H 448.004 -3.98784 1.57064 0
M  V30 4633 H 452.188 -4.28412 2.50553 0
M  V30 4634 H 447.444 -4.761 3.83587 0
M  V30 4635 H 451.618 -5.07074 4.77336 0
M  V30 4636 H 449.245 -5.30618 5.44379 0
M  V30 4637 N 450.82 -0.546701 -1.47814 0
M  V30 4638 C 452.231 -0.110564 -1.86372 0
M  V30 4639 C 452.582 1.31678 -1.45449 0
M  V30 4640 O 451.707 1.98889 -0.852758 0
M  V30 4641 C 452.302 -0.193873 -3.38245 0
M  V30 4642 C 450.861 0.187164 -3.75934 0
M  V30 4643 C 450.008 -0.546166 -2.71868 0
M  V30 4644 H 452.959 -0.757022 -1.39481 0
M  V30 4645 H 452.98 0.590218 -3.75895 0
M  V30 4646 H 452.492 -1.23282 -3.67999 0
M  V30 4647 H 450.593 1.22762 -3.51796 0
M  V30 4648 H 450.706 -0.164083 -4.78819 0
M  V30 4649 H 449.07 0.00953904 -2.54698 0
M  V30 4650 H 449.853 -1.58606 -3.04465 0
M  V30 4651 N 452.299 1.55045 -0.282633 0
M  V30 4652 C 453.545 2.00056 0.332481 0
M  V30 4653 C 453.878 1.1708 1.54939 0
M  V30 4654 O 453.153 0.2427 1.9298 0
M  V30 4655 C 453.436 3.53086 0.70725 0
M  V30 4656 C 453.289 4.46813 -0.517521 0
M  V30 4657 C 454.608 4.12245 1.54084 0
M  V30 4658 H 451.727 0.727268 0.119373 0
M  V30 4659 H 454.369 1.85932 -0.391076 0
M  V30 4660 H 452.519 3.65253 1.32372 0
M  V30 4661 H 454.191 4.46579 -1.15607 0
M  V30 4662 H 452.434 4.18163 -1.1542 0
M  V30 4663 H 453.105 5.51595 -0.211426 0
M  V30 4664 H 455.581 4.03401 1.02013 0
M  V30 4665 H 454.457 5.19515 1.77186 0
M  V30 4666 H 454.718 3.62951 2.52427 0
M  V30 4667 N 453.777 0.010035 1.57597 0
M  V30 4668 C 455.017 -0.677084 1.9286 0
M  V30 4669 C 455.381 -1.70377 0.885192 0
M  V30 4670 O 456.582 -2.44199 1.12339 0
M  V30 4671 C 454.853 -1.29452 3.33132 0
M  V30 4672 S 456.412 -2.00537 3.90295 0
M  V30 4673 H 453.23 -0.223409 0.674989 0
M  V30 4674 H 455.832 0.0691289 1.95378 0
M  V30 4675 H 454.536 -0.534593 4.06903 0
M  V30 4676 H 454.067 -2.07845 3.34012 0
M  V30 4677 H 456.082 -3.28168 3.72183 0
M  V30 4678 N 455.255 -1.55392 -0.262866 0
M  V30 4679 C 456.188 -1.8391 -1.35101 0
M  V30 4680 C 457.166 -0.692901 -1.47097 0
M  V30 4681 O 458.35 -0.936979 -1.63563 0
M  V30 4682 C 455.477 -2.00969 -2.72634 0
M  V30 4683 C 454.523 -3.23559 -2.7787 0
M  V30 4684 S 455.356 -4.80647 -2.3609 0
M  V30 4685 C 456.512 -5.00692 -3.75578 0
M  V30 4686 H 456.745 -2.75918 -1.1071 0
M  V30 4687 H 454.278 -1.47294 -0.463029 0
M  V30 4688 H 456.236 -2.11482 -3.51832 0
M  V30 4689 H 454.897 -1.09832 -2.94272 0
M  V30 4690 H 454.09 -3.32413 -3.78837 0
M  V30 4691 H 453.692 -3.11689 -2.06702 0
M  V30 4692 H 455.984 -4.87055 -4.70939 0
M  V30 4693 H 456.927 -6.02717 -3.71669 0
M  V30 4694 H 457.335 -4.28619 -3.6735 0
M  V30 4695 N 456.733 0.527833 -1.48498 0
M  V30 4696 C 457.663 1.64136 -1.66077 0
M  V30 4697 C 458.644 1.62286 -0.509625 0
M  V30 4698 O 459.829 1.79449 -0.742413 0
M  V30 4699 C 456.959 3.02717 -1.70234 0
M  V30 4700 C 455.913 3.19426 -2.8487 0
M  V30 4701 C 455.239 4.5909 -2.74118 0
M  V30 4702 C 456.539 3.01993 -4.26142 0
M  V30 4703 H 458.233 1.4968 -2.593 0
M  V30 4704 H 455.779 0.718654 -1.24785 0
M  V30 4705 H 457.732 3.80491 -1.8112 0
M  V30 4706 H 456.456 3.18201 -0.735911 0
M  V30 4707 H 455.115 2.4407 -2.73542 0
M  V30 4708 H 454.763 4.71413 -1.7544 0
M  V30 4709 H 454.463 4.71214 -3.51042 0
M  V30 4710 H 455.987 5.3896 -2.86974 0
M  V30 4711 H 457.401 3.69558 -4.38292 0
M  V30 4712 H 455.798 3.2561 -5.04082 0
M  V30 4713 H 456.868 1.98396 -4.42456 0
M  V30 4714 N 458.211 1.37122 0.776871 0
M  V30 4715 C 459.459 1.31787 1.53221 0
M  V30 4716 C 459.78 -0.0987589 1.9475 0
M  V30 4717 O 459.05 -1.0417 1.65908 0
M  V30 4718 H 457.63 0.484839 0.568278 0
M  V30 4719 H 460.292 1.71556 0.924917 0
M  V30 4720 H 459.388 1.95355 2.43398 0
M  V30 4721 N 459.689 -1.00246 1.21608 0
M  V30 4722 C 460.637 -2.11193 0.97469 0
M  V30 4723 C 461.631 -1.69216 -0.0789303 0
M  V30 4724 O 462.837 -1.79853 0.0726806 0
M  V30 4725 H 459.212 -0.690455 0.297953 0
M  V30 4726 H 461.183 -2.2873 1.91638 0
M  V30 4727 C 459.932 -3.43182 0.558717 0
M  V30 4728 H 459.255 -3.75918 1.3611 0
M  V30 4729 H 460.695 -4.21823 0.429154 0
M  V30 4730 C 459.154 -3.28882 -0.730648 0
M  V30 4731 O 459.684 -3.59835 -1.78554 0
M  V30 4732 N 457.89 -2.8209 -0.698131 0
M  V30 4733 H 457.437 -2.57099 0.16061 0
M  V30 4734 H 457.395 -2.72903 -1.56113 0
M  V30 4735 N 461.167 -1.02423 -1.1978 0
M  V30 4736 C 462.583 -0.740459 -1.41384 0
M  V30 4737 C 462.783 0.676827 -1.89793 0
M  V30 4738 O 461.839 1.4435 -2.0717 0
M  V30 4739 C 463.152 -1.77264 -2.42895 0
M  V30 4740 C 464.7 -1.79165 -2.56649 0
M  V30 4741 C 465.175 -2.8133 -3.6141 0
M  V30 4742 N 466.666 -2.80118 -3.68901 0
M  V30 4743 C 467.401 -3.55824 -4.49641 0
M  V30 4744 N 466.897 -4.41231 -5.34123 0
M  V30 4745 N 468.69 -3.44387 -4.44246 0
M  V30 4746 H 460.841 -1.9391 -0.866764 0
M  V30 4747 H 463.104 -0.838074 -0.443098 0
M  V30 4748 H 462.81 -2.7884 -2.14339 0
M  V30 4749 H 462.684 -1.59108 -3.42001 0
M  V30 4750 H 465.071 -0.782702 -2.84531 0
M  V30 4751 H 465.152 -2.01396 -1.57713 0
M  V30 4752 H 464.796 -3.82394 -3.34271 0
M  V30 4753 H 464.726 -2.56359 -4.59986 0
M  V30 4754 H 467.217 -2.1817 -3.08562 0
M  V30 4755 H 467.53 -4.95747 -5.92836 0
M  V30 4756 H 465.875 -4.45306 -5.33599 0
M  V30 4757 H 469.066 -2.7708 -3.77285 0
M  V30 4758 H 469.239 -4.0364 -5.06931 0
M  V30 4759 N 462.645 1.35699 -0.801477 0
M  V30 4760 C 463.873 2.03157 -0.391768 0
M  V30 4761 C 464.288 1.60412 0.995668 0
M  V30 4762 O 463.645 0.799228 1.64069 0
M  V30 4763 C 463.696 3.58566 -0.459671 0
M  V30 4764 O 463.417 3.99756 -1.7924 0
M  V30 4765 C 464.918 4.4328 -0.0421205 0
M  V30 4766 H 462.138 0.651688 -0.159825 0
M  V30 4767 H 464.682 1.73426 -1.08368 0
M  V30 4768 H 462.837 3.86963 0.183939 0
M  V30 4769 H 463.251 4.94387 -1.75162 0
M  V30 4770 H 464.725 5.51821 -0.140754 0
M  V30 4771 H 465.202 4.27383 1.01196 0
M  V30 4772 H 465.808 4.20168 -0.658687 0
M  V30 4773 N 464.123 0.554532 1.47522 0
M  V30 4774 C 465.053 -0.182974 2.32782 0
M  V30 4775 C 466.034 -0.911377 1.43624 0
M  V30 4776 O 467.219 -0.892366 1.72483 0
M  V30 4777 C 464.349 -1.21513 3.25349 0
M  V30 4778 C 463.303 -0.603355 4.23726 0
M  V30 4779 C 462.629 -1.73995 5.05598 0
M  V30 4780 C 463.929 0.441121 5.20434 0
M  V30 4781 H 465.623 0.52882 2.94693 0
M  V30 4782 H 463.169 0.255759 1.41711 0
M  V30 4783 H 465.122 -1.73922 3.83835 0
M  V30 4784 H 463.846 -1.95683 2.61487 0
M  V30 4785 H 462.505 -0.10059 3.66462 0
M  V30 4786 H 462.153 -2.47063 4.38143 0
M  V30 4787 H 461.853 -1.3364 5.72201 0
M  V30 4788 H 463.377 -2.26735 5.66942 0
M  V30 4789 H 464.791 0.00319931 5.733 0
M  V30 4790 H 463.188 0.763402 5.95224 0
M  V30 4791 H 464.258 1.33799 4.66075 0
M  V30 4792 N 465.601 -1.54893 0.290851 0
M  V30 4793 C 466.826 -2.04804 -0.32712 0
M  V30 4794 C 467.251 -1.16721 -1.47506 0
M  V30 4795 O 466.609 -0.169107 -1.8051 0
M  V30 4796 C 466.657 -3.52268 -0.770689 0
M  V30 4797 O 465.761 -3.67236 -1.87647 0
M  V30 4798 H 465.102 -0.660789 -0.0652227 0
M  V30 4799 H 467.632 -2.00036 0.429739 0
M  V30 4800 H 467.642 -3.9393 -1.06223 0
M  V30 4801 H 466.317 -4.15843 0.069096 0
M  V30 4802 H 464.894 -3.37479 -1.58626 0
M  V30 4803 N 467.08 -0.0183926 -1.57589 0
M  V30 4804 C 468.496 0.337897 -1.55982 0
M  V30 4805 C 468.696 1.73604 -1.02294 0
M  V30 4806 O 467.752 2.43589 -0.664895 0
M  V30 4807 C 469.065 0.196305 -3.00059 0
M  V30 4808 C 470.613 0.269875 -3.11834 0
M  V30 4809 C 471.088 0.157197 -4.5773 0
M  V30 4810 N 472.579 0.214521 -4.62703 0
M  V30 4811 C 473.314 0.150955 -5.73201 0
M  V30 4812 N 472.81 0.0369212 -6.9279 0
M  V30 4813 N 474.603 0.204162 -5.61729 0
M  V30 4814 H 466.754 -0.93279 -1.90821 0
M  V30 4815 H 469.017 -0.359253 -0.877292 0
M  V30 4816 H 468.723 -0.766383 -3.43248 0
M  V30 4817 H 468.597 0.970908 -3.6449 0
M  V30 4818 H 470.984 1.22302 -2.68563 0
M  V30 4819 H 471.065 -0.534918 -2.50144 0
M  V30 4820 H 470.709 -0.792479 -5.01679 0
M  V30 4821 H 470.639 0.980717 -5.17387 0
M  V30 4822 H 473.13 0.303238 -3.76681 0
M  V30 4823 H 473.443 -0.00518321 -7.728 0
M  V30 4824 H 471.788 0.0022886 -6.95 0
M  V30 4825 H 474.979 0.291575 -4.67191 0
M  V30 4826 H 475.152 0.15116 -6.47824 0
M  V30 4827 N 468.558 1.5553 0.254621 0
M  V30 4828 C 469.835 1.6774 1.00611 0
M  V30 4829 C 470.215 0.555993 2.03647 0
M  V30 4830 O 469.563 -0.441583 2.24193 0
M  V30 4831 C 469.773 3.07725 1.6464 0
M  V30 4832 C 471.121 3.66074 2.15116 0
M  V30 4833 O 472.145 3.10476 1.74595 0
M  V30 4834 O 471.004 4.63526 2.89493 0
M  V30 4835 H 468.098 0.681958 0.467828 0
M  V30 4836 H 470.644 1.67863 0.24902 0
M  V30 4837 H 469.416 3.80792 0.900734 0
M  V30 4838 H 469.039 3.1158 2.46989 0
M  V30 4839 N 470.036 -0.519951 1.48776 0
M  V30 4840 C 470.968 -1.63973 1.60142 0
M  V30 4841 C 471.981 -1.55404 0.485117 0
M  V30 4842 O 473.17 -1.61682 0.756391 0
M  V30 4843 C 470.27 -3.02676 1.52449 0
M  V30 4844 C 469.443 -3.36624 2.79291 0
M  V30 4845 C 468.502 -4.54652 2.64912 0
M  V30 4846 O 467.528 -4.57374 3.38818 0
M  V30 4847 N 468.73 -5.53432 1.75195 0
M  V30 4848 H 471.495 -1.54656 2.56713 0
M  V30 4849 H 469.056 -0.707439 1.45626 0
M  V30 4850 H 471.048 -3.79525 1.4051 0
M  V30 4851 H 469.618 -3.06018 0.638125 0
M  V30 4852 H 468.838 -2.48855 3.0572 0
M  V30 4853 H 470.126 -3.56094 3.6342 0
M  V30 4854 H 469.524 -5.54018 1.14371 0
M  V30 4855 H 468.081 -6.29459 1.69189 0
M  V30 4856 N 471.514 -1.37532 -0.769588 0
M  V30 4857 C 472.761 -1.3286 -1.52822 0
M  V30 4858 C 473.089 0.0862597 -1.94309 0
M  V30 4859 O 472.344 1.05995 -1.6451 0
M  V30 4860 C 472.643 -2.21558 -2.8044 0
M  V30 4861 C 472.309 -3.69796 -2.57996 0
M  V30 4862 C 470.971 -4.10194 -2.51583 0
M  V30 4863 C 473.323 -4.63699 -2.37976 0
M  V30 4864 C 470.651 -5.42608 -2.23144 0
M  V30 4865 C 473.003 -5.96353 -2.1106 0
M  V30 4866 C 471.667 -6.35853 -2.03093 0
M  V30 4867 H 470.937 -0.486168 -0.559215 0
M  V30 4868 H 473.584 -1.69757 -0.886277 0
M  V30 4869 H 471.889 -1.77663 -3.49204 0
M  V30 4870 H 473.586 -2.15256 -3.38328 0
M  V30 4871 H 470.176 -3.37759 -2.63851 0
M  V30 4872 H 474.36 -4.33346 -2.41919 0
M  V30 4873 H 469.616 -5.72173 -2.15472 0
M  V30 4874 H 473.79 -6.68667 -1.94568 0
M  V30 4875 H 471.417 -7.38382 -1.8082 0
M  V30 4876 N 472.992 0.995999 -1.22138 0
M  V30 4877 C 474.269 1.70834 -0.952642 0
M  V30 4878 C 474.649 2.04257 0.533119 0
M  V30 4879 O 473.997 1.72343 1.50034 0
M  V30 4880 C 474.207 2.96119 -1.84701 0
M  V30 4881 C 475.555 3.68962 -2.10124 0
M  V30 4882 O 476.579 3.0612 -1.82124 0
M  V30 4883 O 475.438 4.82017 -2.57531 0
M  V30 4884 H 472.532 0.745498 -0.357997 0
M  V30 4885 H 475.078 1.05262 -1.33109 0
M  V30 4886 H 473.85 2.67898 -2.85213 0
M  V30 4887 H 473.473 3.6943 -1.46995 0
M  V30 4888 N 474.47 1.03057 1.19235 0
M  V30 4889 C 475.719 0.72326 1.88287 0
M  V30 4890 C 476.032 -0.751333 1.80594 0
M  V30 4891 O 477.238 -1.17176 2.44912 0
M  V30 4892 C 475.694 1.24338 3.3774 0
M  V30 4893 C 475.302 2.74587 3.53986 0
M  V30 4894 C 477.046 1.01213 4.12257 0
M  V30 4895 C 474.953 3.20009 4.97341 0
M  V30 4896 H 473.883 0.266848 0.705201 0
M  V30 4897 H 476.534 1.24509 1.34795 0
M  V30 4898 H 474.916 0.649457 3.90638 0
M  V30 4899 H 476.09 3.39649 3.11408 0
M  V30 4900 H 474.405 2.9601 2.9286 0
M  V30 4901 H 477.002 1.32675 5.17978 0
M  V30 4902 H 477.345 -0.051001 4.16269 0
M  V30 4903 H 477.878 1.57014 3.65501 0
M  V30 4904 H 474.617 4.25659 4.98493 0
M  V30 4905 H 474.137 2.59676 5.40674 0
M  V30 4906 H 475.816 3.13447 5.66003 0
M  V30 4907 N 475.948 -1.35272 0.808662 0
M  V30 4908 C 477.188 -2.00534 0.395668 0
M  V30 4909 C 477.552 -1.62755 -1.01857 0
M  V30 4910 O 478.753 -2.20752 -1.53368 0
M  V30 4911 C 477.024 -3.52732 0.575771 0
M  V30 4912 S 478.583 -4.38067 0.253507 0
M  V30 4913 H 475.401 -0.694962 0.150165 0
M  V30 4914 H 478.003 -1.64823 1.05137 0
M  V30 4915 H 476.707 -3.77714 1.60499 0
M  V30 4916 H 476.238 -3.93285 -0.0951739 0
M  V30 4917 H 478.253 -4.87252 -0.938068 0
M  V30 4918 N 477.426 -0.562348 -1.47226 0
M  V30 4919 C 478.389 0.172056 -2.28553 0
M  V30 4920 C 479.389 0.837928 -1.37242 0
M  V30 4921 O 480.579 0.693001 -1.59822 0
M  V30 4922 C 477.711 1.25223 -3.17068 0
M  V30 4923 H 478.904 -0.542401 -2.94954 0
M  V30 4924 H 476.457 -0.319493 -1.53 0
M  V30 4925 H 477.192 1.99892 -2.55369 0
M  V30 4926 H 476.977 0.779515 -3.84273 0
M  V30 4927 H 478.467 1.76791 -3.78332 0
M  V30 4928 N 478.904 1.54736 -0.299062 0
M  V30 4929 C 479.851 2.23448 0.577899 0
M  V30 4930 C 480.821 1.21637 1.13109 0
M  V30 4931 O 482.006 1.50252 1.17597 0
M  V30 4932 C 479.146 2.9774 1.74484 0
M  V30 4933 C 478.259 4.1432 1.22323 0
M  V30 4934 C 477.394 4.76199 2.35388 0
M  V30 4935 C 476.433 5.84927 1.80351 0
M  V30 4936 N 475.57 6.4077 2.86982 0
M  V30 4937 H 480.41 2.97996 -0.0146545 0
M  V30 4938 H 477.947 1.47088 -0.0190013 0
M  V30 4939 H 479.905 3.39045 2.43114 0
M  V30 4940 H 478.535 2.25572 2.30905 0
M  V30 4941 H 477.587 3.7797 0.429249 0
M  V30 4942 H 478.899 4.92659 0.780309 0
M  V30 4943 H 478.053 5.20346 3.11969 0
M  V30 4944 H 476.792 3.97188 2.83006 0
M  V30 4945 H 475.797 5.40207 1.02259 0
M  V30 4946 H 477.022 6.65821 1.3364 0
M  V30 4947 H 474.968 5.64643 3.33938 0
M  V30 4948 H 474.885 7.1445 2.4718 0
M  V30 4949 H 476.153 6.89574 3.63466 0
M  V30 4950 N 480.382 0.0267497 1.57577 0
M  V30 4951 C 481.61 -0.662661 1.96001 0
M  V30 4952 C 482.025 -1.65799 0.903117 0
M  V30 4953 O 481.382 -1.82135 -0.115317 0
M  V30 4954 C 481.433 -1.37112 3.34488 0
M  V30 4955 O 481.154 -0.415683 4.36123 0
M  V30 4956 C 482.655 -2.15257 3.8753 0
M  V30 4957 H 479.875 -0.18287 0.6456 0
M  V30 4958 H 482.419 0.0858116 2.0432 0
M  V30 4959 H 480.574 -2.07101 3.27395 0
M  V30 4960 H 480.988 -0.918496 5.16395 0
M  V30 4961 H 482.462 -2.60285 4.86781 0
M  V30 4962 H 482.939 -2.99063 3.21649 0
M  V30 4963 H 483.545 -1.50231 3.97883 0
M  V30 4964 N 481.861 -1.55662 -0.24637 0
M  V30 4965 C 482.824 -1.89558 -1.28842 0
M  V30 4966 C 483.824 -0.772082 -1.41052 0
M  V30 4967 O 485.014 -1.04007 -1.39743 0
M  V30 4968 C 482.146 -2.12449 -2.66605 0
M  V30 4969 H 483.339 -2.82735 -1.00004 0
M  V30 4970 H 480.892 -1.48562 -0.485684 0
M  V30 4971 H 481.627 -1.21742 -3.00582 0
M  V30 4972 H 481.412 -2.94273 -2.59125 0
M  V30 4973 H 482.902 -2.39854 -3.41847 0
M  V30 4974 N 483.339 0.512053 -1.4905 0
M  V30 4975 C 484.585 1.26874 -1.58212 0
M  V30 4976 C 484.918 1.9241 -0.263073 0
M  V30 4977 O 484.193 1.80181 0.732476 0
M  V30 4978 C 484.476 2.34428 -2.73341 0
M  V30 4979 C 484.329 1.73466 -4.15006 0
M  V30 4980 C 485.648 3.36073 -2.84154 0
M  V30 4981 H 482.767 0.459924 -0.575881 0
M  V30 4982 H 485.409 0.568587 -1.81293 0
M  V30 4983 H 483.559 2.94146 -2.53792 0
M  V30 4984 H 485.231 1.17661 -4.46042 0
M  V30 4985 H 483.474 1.03921 -4.21168 0
M  V30 4986 H 484.145 2.51426 -4.91415 0
M  V30 4987 H 486.621 2.86332 -3.01916 0
M  V30 4988 H 485.497 4.08703 -3.66406 0
M  V30 4989 H 485.758 3.97725 -1.93048 0
M  V30 4990 N 484.817 1.37938 0.762283 0
M  V30 4991 C 486.063 1.33866 1.52341 0
M  V30 4992 C 486.396 -0.0738961 1.94059 0
M  V30 4993 O 485.671 -1.03326 1.64785 0
M  V30 4994 C 485.954 2.28644 2.78197 0
M  V30 4995 C 485.807 3.78722 2.42672 0
M  V30 4996 C 487.126 2.21702 3.80179 0
M  V30 4997 H 484.245 0.487593 0.55265 0
M  V30 4998 H 486.887 1.68717 0.873767 0
M  V30 4999 H 485.037 1.99055 3.33631 0
M  V30 5000 H 486.709 4.18948 1.93081 0
M  V30 5001 H 484.952 3.96827 1.75244 0
M  V30 5002 H 485.623 4.40486 3.3268 0
M  V30 5003 H 488.099 2.47805 3.34263 0
M  V30 5004 H 486.975 2.90143 4.65949 0
M  V30 5005 H 487.236 1.21301 4.25133 0
M  V30 5006 N 486.295 -0.989507 1.22664 0
M  V30 5007 C 487.572 -1.70326 0.961688 0
M  V30 5008 C 487.952 -2.04537 -0.522279 0
M  V30 5009 O 487.3 -1.73136 -1.49118 0
M  V30 5010 C 487.51 -2.95135 1.86269 0
M  V30 5011 C 488.858 -3.67842 2.12078 0
M  V30 5012 O 489.882 -3.0515 1.83745 0
M  V30 5013 O 488.741 -4.80644 2.60083 0
M  V30 5014 H 485.835 -0.743589 0.361946 0
M  V30 5015 H 488.381 -1.04555 1.33665 0
M  V30 5016 H 487.153 -2.66382 2.8663 0
M  V30 5017 H 486.776 -3.68645 1.48952 0
M  V30 5018 N 487.773 -1.03688 -1.18687 0
M  V30 5019 C 488.721 -0.618292 -2.24232 0
M  V30 5020 C 489.715 0.353045 -1.6568 0
M  V30 5021 O 490.921 0.220749 -1.78641 0
M  V30 5022 H 487.296 -0.181711 -0.729716 0
M  V30 5023 H 489.267 -1.51893 -2.56848 0
M  V30 5024 C 488.016 0.00677342 -3.47699 0
M  V30 5025 H 487.339 -0.731692 -3.93047 0
M  V30 5026 H 488.779 0.262492 -4.23187 0
M  V30 5027 C 487.238 1.25572 -3.12623 0
M  V30 5028 O 487.768 2.34691 -3.26011 0
M  V30 5029 N 485.974 1.14755 -2.66982 0
M  V30 5030 H 485.521 0.259601 -2.56289 0
M  V30 5031 H 485.479 1.98412 -2.43885 0
M  V30 5032 N 489.251 1.34841 -0.815825 0
M  V30 5033 C 490.161 2.33425 -0.234462 0
M  V30 5034 C 491.177 1.62295 0.627413 0
M  V30 5035 O 492.353 1.94109 0.536987 0
M  V30 5036 C 489.418 3.41471 0.599849 0
M  V30 5037 C 488.479 4.28362 -0.283596 0
M  V30 5038 C 487.712 5.31248 0.51099 0
M  V30 5039 O 487.935 5.43056 1.7449 0
M  V30 5040 O 486.869 6.01812 -0.10297 0
M  V30 5041 H 490.695 2.84962 -1.05024 0
M  V30 5042 H 488.28 1.37774 -0.577809 0
M  V30 5043 H 490.162 4.07464 1.07475 0
M  V30 5044 H 488.837 2.9219 1.39308 0
M  V30 5045 H 487.744 3.65318 -0.805836 0
M  V30 5046 H 489.077 4.81066 -1.041 0
M  V30 5047 N 490.729 0.570148 1.46925 0
M  V30 5048 C 491.957 0.0561966 2.06824 0
M  V30 5049 C 492.372 -1.24326 1.42086 0
M  V30 5050 O 491.729 -1.74882 0.521794 0
M  V30 5051 C 491.78 -0.129517 3.61268 0
M  V30 5052 O 491.501 1.1185 4.23581 0
M  V30 5053 C 493.002 -0.679266 4.38065 0
M  V30 5054 H 490.222 0.0517261 0.669003 0
M  V30 5055 H 492.766 0.787243 1.8874 0
M  V30 5056 H 490.921 -0.810739 3.78822 0
M  V30 5057 H 491.335 0.924375 5.1629 0
M  V30 5058 H 492.809 -0.758445 5.46765 0
M  V30 5059 H 493.286 -1.69346 4.05239 0
M  V30 5060 H 493.892 -0.0333237 4.25287 0
M  V30 5061 N 492.207 -1.54576 0.307264 0
M  V30 5062 C 493.453 -2.0056 -0.300612 0
M  V30 5063 C 493.786 -1.1953 -1.53057 0
M  V30 5064 O 493.061 -0.27337 -1.92569 0
M  V30 5065 C 493.344 -3.54167 -0.650987 0
M  V30 5066 C 493.197 -4.45933 0.588539 0
M  V30 5067 C 494.516 -4.14645 -1.47506 0
M  V30 5068 H 491.635 -0.729075 -0.107788 0
M  V30 5069 H 494.277 -1.85286 0.420606 0
M  V30 5070 H 492.427 -3.67313 -1.26544 0
M  V30 5071 H 494.099 -4.44683 1.22697 0
M  V30 5072 H 492.342 -4.16274 1.22058 0
M  V30 5073 H 493.013 -5.51189 0.299153 0
M  V30 5074 H 495.489 -4.04973 -0.955821 0
M  V30 5075 H 494.365 -5.22269 -1.68899 0
M  V30 5076 H 494.626 -3.66921 -2.4662 0
M  V30 5077 N 493.685 -0.035106 -1.57561 0
M  V30 5078 C 494.648 0.929819 -2.09492 0
M  V30 5079 C 495.648 1.25026 -1.01119 0
M  V30 5080 O 496.838 1.18961 -1.27255 0
M  V30 5081 C 493.97 2.24457 -2.56577 0
M  V30 5082 H 495.163 0.479935 -2.96035 0
M  V30 5083 H 492.716 0.213033 -1.54841 0
M  V30 5084 H 493.451 2.74061 -1.73382 0
M  V30 5085 H 493.236 2.02508 -3.35757 0
M  V30 5086 H 494.726 2.93607 -2.96959 0
M  V30 5087 N 495.163 1.55791 0.238111 0
M  V30 5088 C 496.391 1.82098 0.982233 0
M  V30 5089 C 496.806 0.612025 1.78605 0
M  V30 5090 O 496.163 -0.419381 1.77616 0
M  V30 5091 C 496.214 3.0673 1.91309 0
M  V30 5092 O 495.935 4.2296 1.14179 0
M  V30 5093 C 497.436 3.45903 2.77248 0
M  V30 5094 H 494.656 0.605748 0.288635 0
M  V30 5095 H 497.2 2.02862 0.258341 0
M  V30 5096 H 495.355 2.87991 2.59114 0
M  V30 5097 H 495.769 4.93653 1.7722 0
M  V30 5098 H 497.243 4.36189 3.38295 0
M  V30 5099 H 497.72 2.66891 3.48806 0
M  V30 5100 H 498.326 3.67024 2.14881 0
M  V30 5101 N 496.642 -0.504142 1.49319 0
M  V30 5102 C 497.574 -1.62265 1.61872 0
M  V30 5103 C 498.587 -1.54881 0.501573 0
M  V30 5104 O 499.776 -1.6087 0.773497 0
M  V30 5105 C 496.876 -3.01042 1.55651 0
M  V30 5106 C 496.049 -3.33642 2.82845 0
M  V30 5107 C 495.108 -4.51816 2.69719 0
M  V30 5108 O 494.134 -4.53755 3.4365 0
M  V30 5109 N 495.336 -5.51543 1.81055 0
M  V30 5110 H 498.101 -1.51924 2.58339 0
M  V30 5111 H 495.662 -0.691954 1.46368 0
M  V30 5112 H 497.654 -3.78013 1.44528 0
M  V30 5113 H 496.224 -3.05323 0.670546 0
M  V30 5114 H 495.444 -2.45598 3.08343 0
M  V30 5115 H 496.732 -3.5222 3.67177 0
M  V30 5116 H 496.13 -5.52774 1.20241 0
M  V30 5117 H 494.687 -6.27629 1.75856 0
M  V30 5118 N 498.12 -1.38341 -0.754957 0
M  V30 5119 C 499.05 -1.38176 -1.88227 0
M  V30 5120 C 500.031 -0.247873 -1.68284 0
M  V30 5121 O 501.216 -0.45075 -1.88896 0
M  V30 5122 C 498.346 -1.20471 -3.25736 0
M  V30 5123 C 497.3 -2.3105 -3.60278 0
M  V30 5124 C 496.626 -1.98452 -4.96509 0
M  V30 5125 C 497.926 -3.73305 -3.65295 0
M  V30 5126 H 499.62 -2.32512 -1.88622 0
M  V30 5127 H 497.166 -1.1192 -0.906082 0
M  V30 5128 H 499.119 -1.18982 -4.04254 0
M  V30 5129 H 497.843 -0.225965 -3.25817 0
M  V30 5130 H 496.502 -2.31723 -2.84078 0
M  V30 5131 H 496.15 -0.990641 -4.93148 0
M  V30 5132 H 495.85 -2.7251 -5.20588 0
M  V30 5133 H 497.374 -1.98578 -5.77407 0
M  V30 5134 H 498.788 -3.7467 -4.3393 0
M  V30 5135 H 497.185 -4.46557 -4.00883 0
M  V30 5136 H 498.255 -4.05719 -2.65556 0
M  V30 5137 N 499.598 0.982988 -1.23187 0
M  V30 5138 C 500.844 1.7273 -1.07405 0
M  V30 5139 C 501.199 1.885 0.385447 0
M  V30 5140 O 500.492 1.4243 1.28157 0
M  V30 5141 C 500.686 3.12736 -1.73006 0
M  V30 5142 C 500.515 3.10621 -3.25184 0
M  V30 5143 C 499.285 3.15957 -3.94334 0
M  V30 5144 C 501.483 2.93992 -4.21987 0
M  V30 5145 N 499.465 3.03701 -5.33516 0
M  V30 5146 C 500.836 2.8987 -5.48065 0
M  V30 5147 C 502.891 2.78457 -4.12754 0
M  V30 5148 C 501.594 2.71804 -6.65969 0
M  V30 5149 C 503.62 2.61754 -5.30319 0
M  V30 5150 C 502.982 2.58328 -6.55321 0
M  V30 5151 H 499.081 0.641279 -0.447533 0
M  V30 5152 H 501.665 1.16664 -1.55877 0
M  V30 5153 H 499.836 3.67026 -1.2707 0
M  V30 5154 H 501.568 3.75786 -1.50224 0
M  V30 5155 H 498.323 3.24034 -3.45397 0
M  V30 5156 H 498.747 3.00855 -6.06478 0
M  V30 5157 H 503.389 2.79898 -3.16886 0
M  V30 5158 H 501.107 2.69108 -7.61975 0
M  V30 5159 H 504.693 2.50702 -5.25014 0
M  V30 5160 H 503.573 2.45564 -7.4476 0
M  V30 5161 N 501.076 1.04316 1.18135 0
M  V30 5162 C 502.301 0.768047 1.92655 0
M  V30 5163 C 502.726 -0.66904 1.758 0
M  V30 5164 O 502.084 -1.46372 1.06981 0
M  V30 5165 C 502.132 1.14239 3.42026 0
M  V30 5166 O 501.236 0.269333 4.1152 0
M  V30 5167 H 500.577 0.282436 0.600937 0
M  V30 5168 H 503.107 1.39367 1.49793 0
M  V30 5169 H 503.117 1.10538 3.92741 0
M  V30 5170 H 501.792 2.18928 3.53615 0
M  V30 5171 H 500.369 0.366175 3.71098 0
M  V30 5172 N 502.554 -1.34406 0.822964 0
M  V30 5173 C 503.801 -1.98284 0.411057 0
M  V30 5174 C 504.129 -1.65245 -1.02588 0
M  V30 5175 O 503.384 -0.91619 -1.72929 0
M  V30 5176 C 503.683 -3.52981 0.560268 0
M  V30 5177 C 503.349 -4.05931 1.96293 0
M  V30 5178 C 502.011 -4.20103 2.34664 0
M  V30 5179 C 504.363 -4.34412 2.87985 0
M  V30 5180 C 501.691 -4.60082 3.64062 0
M  V30 5181 C 504.043 -4.75838 4.16847 0
M  V30 5182 C 502.707 -4.88215 4.55195 0
M  V30 5183 H 501.977 -0.725573 0.150416 0
M  V30 5184 H 504.624 -1.60349 1.04692 0
M  V30 5185 H 502.929 -3.91477 -0.158982 0
M  V30 5186 H 504.626 -4.00385 0.222087 0
M  V30 5187 H 501.216 -3.95363 1.65487 0
M  V30 5188 H 505.4 -4.23001 2.59584 0
M  V30 5189 H 500.656 -4.67856 3.93599 0
M  V30 5190 H 504.83 -4.96834 4.87984 0
M  V30 5191 H 502.457 -5.18952 5.55512 0
M  V30 5192 N 504.032 -0.577932 -1.46621 0
M  V30 5193 C 505.279 -0.0616879 -2.02406 0
M  V30 5194 C 505.607 1.29638 -1.44997 0
M  V30 5195 O 504.862 1.86176 -0.60308 0
M  V30 5196 C 505.161 0.0590832 -3.57351 0
M  V30 5197 C 504.827 -1.23077 -4.33777 0
M  V30 5198 C 503.489 -1.58416 -4.54376 0
M  V30 5199 C 505.841 -2.08457 -4.77698 0
M  V30 5200 C 503.169 -2.78943 -5.16147 0
M  V30 5201 C 505.521 -3.28204 -5.408 0
M  V30 5202 C 504.185 -3.63832 -5.59627 0
M  V30 5203 H 503.455 -0.0225732 -0.740656 0
M  V30 5204 H 506.102 -0.753609 -1.76048 0
M  V30 5205 H 504.407 0.834104 -3.82818 0
M  V30 5206 H 506.104 0.474202 -3.98186 0
M  V30 5207 H 502.694 -0.945652 -4.18038 0
M  V30 5208 H 506.878 -1.82459 -4.61544 0
M  V30 5209 H 502.134 -3.06689 -5.28916 0
M  V30 5210 H 506.308 -3.94634 -5.73792 0
M  V30 5211 H 503.935 -4.57315 -6.07262 0
M  V30 5212 N 505.51 1.54411 -0.315457 0
M  V30 5213 C 506.75 2.02329 0.290236 0
M  V30 5214 C 507.114 1.19878 1.49977 0
M  V30 5215 O 508.315 1.57562 2.17779 0
M  V30 5216 C 506.586 3.51912 0.623937 0
M  V30 5217 S 508.145 4.21775 1.21044 0
M  V30 5218 H 504.963 0.705499 0.0882739 0
M  V30 5219 H 507.565 1.90328 -0.446694 0
M  V30 5220 H 506.269 4.09546 -0.264624 0
M  V30 5221 H 505.8 3.67977 1.39128 0
M  V30 5222 H 507.815 4.28757 2.49764 0
M  V30 5223 N 506.988 0.0434614 1.5754 0
M  V30 5224 C 507.938 -0.943039 2.07583 0
M  V30 5225 C 508.922 -1.27662 0.979342 0
M  V30 5226 O 510.114 -1.26034 1.24276 0
M  V30 5227 C 507.243 -2.22056 2.61813 0
M  V30 5228 C 506.329 -1.91471 3.78417 0
M  V30 5229 N 506.72 -1.31214 4.88484 0
M  V30 5230 C 505.018 -2.21384 3.87176 0
M  V30 5231 C 505.719 -1.18084 5.69588 0
M  V30 5232 N 504.695 -1.68116 5.16951 0
M  V30 5233 H 508.497 -0.472354 2.90079 0
M  V30 5234 H 506.011 -0.161191 1.61598 0
M  V30 5235 H 508.008 -2.93618 2.95963 0
M  V30 5236 H 506.668 -2.69738 1.80752 0
M  V30 5237 H 507.679 -0.985318 5.08441 0
M  V30 5238 H 504.356 -2.7164 3.17046 0
M  V30 5239 H 505.746 -0.713684 6.68099 0
M  V30 5240 N 508.466 -1.55915 -0.229846 0
M  V30 5241 C 509.691 -1.8296 -0.976743 0
M  V30 5242 C 510.116 -0.622735 -1.77493 0
M  V30 5243 O 509.474 0.428431 -1.76165 0
M  V30 5244 C 509.522 -3.07916 -1.8767 0
M  V30 5245 O 508.626 -2.86028 -2.97088 0
M  V30 5246 H 507.967 -0.603453 -0.277021 0
M  V30 5247 H 510.497 -2.0312 -0.245669 0
M  V30 5248 H 510.507 -3.37802 -2.2881 0
M  V30 5249 H 509.182 -3.95389 -1.28996 0
M  V30 5250 H 507.759 -2.67355 -2.59954 0
M  V30 5251 N 509.944 0.496216 -1.49584 0
M  V30 5252 C 511.355 1.07765 -1.52459 0
M  V30 5253 C 511.706 1.93679 -0.31353 0
M  V30 5254 O 510.831 2.08588 0.576186 0
M  V30 5255 C 511.426 1.96111 -2.76271 0
M  V30 5256 C 509.985 2.49409 -2.81908 0
M  V30 5257 C 509.132 1.27142 -2.46435 0
M  V30 5258 H 512.083 0.279914 -1.56212 0
M  V30 5259 H 512.104 2.80862 -2.56704 0
M  V30 5260 H 511.616 1.33555 -3.64396 0
M  V30 5261 H 509.717 3.1559 -1.98074 0
M  V30 5262 H 509.83 2.86234 -3.84196 0
M  V30 5263 H 508.194 1.59818 -1.98319 0
M  V30 5264 H 508.977 0.662866 -3.3684 0
M  V30 5265 N 511.423 1.38739 0.74761 0
M  V30 5266 C 512.371 1.36573 1.88283 0
M  V30 5267 C 513.365 0.250712 1.67534 0
M  V30 5268 O 514.571 0.420073 1.7503 0
M  V30 5269 H 510.946 0.42619 0.619569 0
M  V30 5270 H 512.917 2.32356 1.87226 0
M  V30 5271 C 511.666 1.21361 3.25832 0
M  V30 5272 H 510.989 2.06424 3.42388 0
M  V30 5273 H 512.429 1.23901 4.05493 0
M  V30 5274 C 510.888 -0.0790099 3.36807 0
M  V30 5275 O 511.418 -1.05385 3.8763 0
M  V30 5276 N 509.624 -0.13785 2.90273 0
M  V30 5277 H 509.171 0.656128 2.49104 0
M  V30 5278 H 509.129 -1.00228 2.97996 0
M  V30 5279 N 512.901 -0.976442 1.23707 0
M  V30 5280 C 513.831 -2.08749 1.04624 0
M  V30 5281 C 514.812 -1.70057 -0.0380956 0
M  V30 5282 O 515.997 -1.93782 0.127308 0
M  V30 5283 C 513.127 -3.41335 0.640902 0
M  V30 5284 C 512.081 -3.93947 1.67302 0
M  V30 5285 C 511.407 -5.22774 1.12301 0
M  V30 5286 C 512.707 -4.22769 3.06697 0
M  V30 5287 H 514.401 -2.24972 1.97555 0
M  V30 5288 H 511.947 -1.08108 0.951247 0
M  V30 5289 H 513.9 -4.18489 0.494434 0
M  V30 5290 H 512.624 -3.24988 -0.324099 0
M  V30 5291 H 511.283 -3.18941 1.80755 0
M  V30 5292 H 510.931 -5.0278 0.148877 0
M  V30 5293 H 510.631 -5.58942 1.81267 0
M  V30 5294 H 512.155 -6.02546 0.988479 0
M  V30 5295 H 513.569 -4.90659 2.96524 0
M  V30 5296 H 511.966 -4.70147 3.72937 0
M  V30 5297 H 513.036 -3.29885 3.55392 0
M  V30 5298 N 514.379 -1.04941 -1.1758 0
M  V30 5299 C 515.607 -0.778294 -1.91703 0
M  V30 5300 C 516.022 0.665697 -1.76675 0
M  V30 5301 O 515.379 1.45456 -1.10222 0
M  V30 5302 C 515.43 -1.14628 -3.42845 0
M  V30 5303 O 515.151 -2.53359 -3.57409 0
M  V30 5304 C 516.652 -0.900931 -4.34049 0
M  V30 5305 H 513.872 -0.283167 -0.608323 0
M  V30 5306 H 516.416 -1.39942 -1.49119 0
M  V30 5307 H 514.571 -0.569953 -3.83184 0
M  V30 5308 H 514.985 -2.67709 -4.51035 0
M  V30 5309 H 516.459 -1.20817 -5.38616 0
M  V30 5310 H 516.936 0.163966 -4.38894 0
M  V30 5311 H 517.542 -1.46097 -3.99419 0
M  V30 5312 N 515.857 1.33968 -0.830081 0
M  V30 5313 C 517.085 2.0228 -0.434773 0
M  V30 5314 C 517.5 1.62487 0.961419 0
M  V30 5315 O 516.857 0.833849 1.62337 0
M  V30 5316 C 516.908 3.5751 -0.535625 0
M  V30 5317 O 516.629 3.95864 -1.87679 0
M  V30 5318 C 518.13 4.43091 -0.136137 0
M  V30 5319 H 515.35 0.648151 -0.173613 0
M  V30 5320 H 517.894 1.71089 -1.12022 0
M  V30 5321 H 516.049 3.87266 0.101817 0
M  V30 5322 H 516.463 4.9056 -1.85609 0
M  V30 5323 H 517.937 5.51398 -0.257772 0
M  V30 5324 H 518.414 4.29433 0.921076 0
M  V30 5325 H 519.02 4.18677 -0.747662 0
M  V30 5326 N 517.335 0.585699 1.46312 0
M  V30 5327 C 518.612 0.00542031 1.95599 0
M  V30 5328 C 518.992 -1.45619 1.52834 0
M  V30 5329 O 518.34 -2.14759 0.780446 0
M  V30 5330 C 518.55 0.180601 3.48532 0
M  V30 5331 C 519.898 0.049979 4.24571 0
M  V30 5332 O 520.922 0.109589 3.56031 0
M  V30 5333 O 519.781 -0.0832226 5.46437 0
M  V30 5334 H 516.875 -0.0481281 0.825598 0
M  V30 5335 H 519.421 0.654227 1.56582 0
M  V30 5336 H 518.193 1.19657 3.72556 0
M  V30 5337 H 517.816 -0.504498 3.94386 0
M  V30 5338 N 518.813 -1.54241 0.323641 0
M  V30 5339 C 520.038 -2.05452 -0.283605 0
M  V30 5340 C 520.463 -1.19823 -1.44997 0
M  V30 5341 O 519.821 -0.207358 -1.8011 0
M  V30 5342 C 519.869 -3.53823 -0.695795 0
M  V30 5343 O 518.973 -3.71134 -1.79815 0
M  V30 5344 H 518.314 -0.662024 -0.0511917 0
M  V30 5345 H 520.844 -1.99079 0.472073 0
M  V30 5346 H 520.854 -3.96094 -0.978434 0
M  V30 5347 H 519.529 -4.15602 0.157287 0
M  V30 5348 H 518.106 -3.40768 -1.51431 0
M  V30 5349 N 520.291 -0.0518155 -1.57515 0
M  V30 5350 C 521.531 0.625712 -1.94587 0
M  V30 5351 C 521.895 1.6797 -0.930053 0
M  V30 5352 O 523.096 2.41135 -1.18774 0
M  V30 5353 C 521.367 1.20574 -3.36447 0
M  V30 5354 S 522.926 1.90118 -3.95475 0
M  V30 5355 H 519.744 0.205434 -0.680675 0
M  V30 5356 H 522.346 -0.120906 -1.95126 0
M  V30 5357 H 521.05 0.426521 -4.08178 0
M  V30 5358 H 520.581 1.98916 -3.39405 0
M  V30 5359 H 522.596 3.18184 -3.80753 0
M  V30 5360 N 521.769 1.56035 0.221574 0
M  V30 5361 C 523.046 1.69837 0.970301 0
M  V30 5362 C 523.426 0.599065 2.02421 0
M  V30 5363 O 522.774 -0.393929 2.25079 0
M  V30 5364 C 522.984 3.11148 1.58076 0
M  V30 5365 C 524.332 3.70555 2.07302 0
M  V30 5366 O 525.356 3.14109 1.6797 0
M  V30 5367 O 524.215 4.69562 2.79596 0
M  V30 5368 H 521.309 0.691727 0.453257 0
M  V30 5369 H 523.855 1.68353 0.213358 0
M  V30 5370 H 522.627 3.82617 0.819759 0
M  V30 5371 H 522.25 3.16749 2.40324 0
M  V30 5372 N 523.247 -0.488276 1.49845 0
M  V30 5373 C 524.658 -1.06955 1.53028 0
M  V30 5374 C 525.009 -1.9351 0.323797 0
M  V30 5375 O 524.134 -2.08891 -0.565116 0
M  V30 5376 C 524.729 -1.94643 2.77307 0
M  V30 5377 C 523.288 -2.4791 2.83227 0
M  V30 5378 C 522.435 -1.25833 2.47106 0
M  V30 5379 H 525.386 -0.271626 1.56358 0
M  V30 5380 H 525.407 -2.79496 2.5819 0
M  V30 5381 H 524.919 -1.31621 3.65099 0
M  V30 5382 H 523.02 -3.14535 1.99745 0
M  V30 5383 H 523.133 -2.84193 3.85709 0
M  V30 5384 H 521.497 -1.58764 1.99163 0
M  V30 5385 H 522.28 -0.644993 3.37186 0
M  V30 5386 N 524.725 -1.39134 -0.740242 0
M  V30 5387 C 525.955 -1.39132 -1.52728 0
M  V30 5388 C 526.363 0.0173133 -1.89192 0
M  V30 5389 O 525.706 0.997715 -1.54244 0
M  V30 5390 C 525.768 -2.1952 -2.84695 0
M  V30 5391 C 525.432 -3.68203 -2.70695 0
M  V30 5392 C 526.429 -4.61401 -2.39593 0
M  V30 5393 C 524.114 -4.11724 -2.8773 0
M  V30 5394 C 526.108 -5.96102 -2.25701 0
M  V30 5395 C 523.795 -5.46503 -2.73456 0
M  V30 5396 C 524.793 -6.38506 -2.42486 0
M  V30 5397 O 524.481 -7.70803 -2.28295 0
M  V30 5398 H 524.213 -0.477263 -0.478744 0
M  V30 5399 H 526.767 -1.83504 -0.922799 0
M  V30 5400 H 524.997 -1.69888 -3.47383 0
M  V30 5401 H 526.686 -2.1176 -3.46284 0
M  V30 5402 H 527.452 -4.29079 -2.26088 0
M  V30 5403 H 523.331 -3.4045 -3.10829 0
M  V30 5404 H 526.875 -6.6788 -2.0145 0
M  V30 5405 H 522.772 -5.78417 -2.86538 0
M  V30 5406 H 523.54 -7.8147 -2.43405 0
M  V30 5407 N 526.204 0.969867 -1.24223 0
M  V30 5408 C 527.451 1.71256 -1.08063 0
M  V30 5409 C 527.779 1.90734 0.380872 0
M  V30 5410 O 527.034 1.46469 1.29789 0
M  V30 5411 C 527.333 3.10883 -1.76314 0
M  V30 5412 C 526.999 3.11252 -3.26241 0
M  V30 5413 C 525.661 3.1106 -3.67144 0
M  V30 5414 C 528.013 3.05751 -4.22097 0
M  V30 5415 C 525.341 3.03097 -5.02344 0
M  V30 5416 C 527.693 2.9933 -5.57301 0
M  V30 5417 C 526.357 2.97466 -5.97554 0
M  V30 5418 H 525.627 0.62667 -0.395431 0
M  V30 5419 H 528.274 1.13422 -1.54297 0
M  V30 5420 H 526.579 3.72168 -1.22468 0
M  V30 5421 H 528.276 3.67138 -1.61277 0
M  V30 5422 H 524.866 3.12165 -2.93685 0
M  V30 5423 H 529.05 3.05031 -3.91497 0
M  V30 5424 H 524.306 3.00013 -5.32731 0
M  V30 5425 H 528.48 2.94033 -6.31283 0
M  V30 5426 H 526.107 2.91051 -7.02277 0
M  V30 5427 N 527.682 1.05563 1.17022 0
M  V30 5428 C 528.615 0.604197 2.20056 0
M  V30 5429 C 529.593 -0.369169 1.58354 0
M  V30 5430 O 530.777 -0.279898 1.8641 0
M  V30 5431 C 527.904 -0.115265 3.38504 0
M  V30 5432 C 526.95 0.813698 4.18666 0
M  V30 5433 S 527.783 2.30492 4.83357 0
M  V30 5434 C 528.939 1.59674 6.0519 0
M  V30 5435 H 529.172 1.47713 2.58008 0
M  V30 5436 H 526.705 0.867932 1.27696 0
M  V30 5437 H 528.663 -0.524162 4.0714 0
M  V30 5438 H 527.324 -0.964284 2.98932 0
M  V30 5439 H 526.517 0.256736 5.03346 0
M  V30 5440 H 526.119 1.16213 3.55486 0
M  V30 5441 H 528.411 0.898164 6.7152 0
M  V30 5442 H 529.354 2.42115 6.65422 0
M  V30 5443 H 529.762 1.08252 5.54023 0
M  V30 5444 N 529.16 -1.33526 0.837174 0
M  V30 5445 C 530.09 -2.31764 0.284206 0
M  V30 5446 C 531.071 -1.58896 -0.607142 0
M  V30 5447 O 532.256 -1.86798 -0.531047 0
M  V30 5448 C 529.386 -3.43029 -0.542962 0
M  V30 5449 C 528.34 -4.27255 0.252451 0
M  V30 5450 C 527.666 -5.3012 -0.69836 0
M  V30 5451 C 528.966 -5.01229 1.46858 0
M  V30 5452 H 530.66 -2.78262 1.10502 0
M  V30 5453 H 528.206 -1.3378 0.532812 0
M  V30 5454 H 530.159 -4.1078 -0.940096 0
M  V30 5455 H 528.883 -2.95216 -1.39697 0
M  V30 5456 H 527.542 -3.61127 0.631124 0
M  V30 5457 H 527.19 -4.78564 -1.54872 0
M  V30 5458 H 526.89 -5.87353 -0.170274 0
M  V30 5459 H 528.414 -6.00737 -1.09305 0
M  V30 5460 H 529.828 -5.61756 1.14469 0
M  V30 5461 H 528.225 -5.68104 1.93333 0
M  V30 5462 H 529.295 -4.301 2.23924 0
M  V30 5463 N 530.638 -0.59345 -1.46 0
M  V30 5464 C 531.586 0.146268 -2.3214 0
M  V30 5465 C 532.58 0.873743 -1.45128 0
M  V30 5466 O 533.786 0.790912 -1.61693 0
M  V30 5467 H 530.161 0.0660349 -0.749095 0
M  V30 5468 H 532.132 -0.598895 -2.92328 0
M  V30 5469 C 530.881 1.1396 -3.28494 0
M  V30 5470 H 530.204 0.589252 -3.95434 0
M  V30 5471 H 531.644 1.62738 -3.91526 0
M  V30 5472 C 530.103 2.20604 -2.54628 0
M  V30 5473 O 530.633 3.28128 -2.31722 0
M  V30 5474 N 528.839 1.95502 -2.15005 0
M  V30 5475 H 528.386 1.0807 -2.33834 0
M  V30 5476 H 528.344 2.67064 -1.65904 0
M  V30 5477 N 532.116 1.54067 -0.331816 0
M  V30 5478 C 533.064 2.26105 0.54582 0
M  V30 5479 C 534.058 1.27816 1.11173 0
M  V30 5480 O 535.264 1.45565 1.05882 0
M  V30 5481 H 531.639 0.726363 0.194683 0
M  V30 5482 H 533.61 2.98282 -0.083931 0
M  V30 5483 C 532.359 3.03814 1.69092 0
M  V30 5484 H 531.682 3.79269 1.26473 0
M  V30 5485 H 533.122 3.57453 2.28043 0
M  V30 5486 C 531.581 2.12606 2.61343 0
M  V30 5487 O 532.111 1.71437 3.6328 0
M  V30 5488 N 530.317 1.77925 2.29763 0
M  V30 5489 H 529.864 2.11602 1.46909 0
M  V30 5490 H 529.822 1.1718 2.91747 0
M  V30 5491 N 533.594 0.0601682 1.57485 0
M  V30 5492 C 534.84 -0.612501 1.93329 0
M  V30 5493 C 535.173 -1.6996 0.939526 0
M  V30 5494 O 534.448 -1.94472 -0.0330957 0
M  V30 5495 C 534.731 -1.20025 3.39508 0
M  V30 5496 C 534.584 -0.12059 4.49638 0
M  V30 5497 C 535.903 -2.10923 3.86264 0
M  V30 5498 H 533.022 -0.221185 0.703027 0
M  V30 5499 H 535.664 0.123768 1.89596 0
M  V30 5500 H 533.814 -1.82774 3.42821 0
M  V30 5501 H 535.486 0.51185 4.58452 0
M  V30 5502 H 533.729 0.550251 4.30296 0
M  V30 5503 H 534.4 -0.572019 5.49028 0
M  V30 5504 H 536.876 -1.58124 3.84884 0
M  V30 5505 H 535.752 -2.48987 4.8918 0
M  V30 5506 H 536.013 -3.01292 3.23536 0
M  V30 5507 N 535.072 -1.5615 -0.213296 0
M  V30 5508 C 536.3 -1.83638 -0.953139 0
M  V30 5509 C 536.715 -0.640362 -1.77609 0
M  V30 5510 O 536.072 0.391071 -1.78261 0
M  V30 5511 C 536.123 -3.09735 -1.86405 0
M  V30 5512 O 535.844 -4.24723 -1.07435 0
M  V30 5513 C 537.345 -3.5027 -2.71709 0
M  V30 5514 H 534.565 -0.610263 -0.278962 0
M  V30 5515 H 537.109 -2.03247 -0.226035 0
M  V30 5516 H 535.264 -2.92077 -2.545 0
M  V30 5517 H 535.678 -4.9641 -1.69343 0
M  V30 5518 H 537.152 -4.41515 -3.31313 0
M  V30 5519 H 537.629 -2.72406 -3.44516 0
M  V30 5520 H 538.235 -3.70396 -2.09015 0
M  V30 5521 N 536.55 0.480323 -1.50102 0
M  V30 5522 C 537.46 1.60547 -1.71061 0
M  V30 5523 C 538.476 1.63564 -0.593529 0
M  V30 5524 O 539.652 1.81604 -0.870751 0
M  V30 5525 C 536.717 2.96814 -1.79171 0
M  V30 5526 C 535.778 3.04259 -3.02861 0
M  V30 5527 C 535.011 4.34027 -3.10574 0
M  V30 5528 O 535.234 5.24009 -2.25323 0
M  V30 5529 O 534.168 4.46873 -4.03223 0
M  V30 5530 H 537.994 1.45788 -2.6642 0
M  V30 5531 H 535.579 0.658838 -1.34088 0
M  V30 5532 H 537.461 3.77765 -1.86738 0
M  V30 5533 H 536.136 3.11791 -0.869947 0
M  V30 5534 H 535.043 2.22419 -3.008 0
M  V30 5535 H 536.376 2.94216 -3.94586 0
M  V30 5536 N 538.028 1.39524 0.732853 0
M  V30 5537 C 539.277 1.36175 1.48792 0
M  V30 5538 C 539.59 -0.0388195 1.95561 0
M  V30 5539 O 540.796 -0.194899 2.708 0
M  V30 5540 C 539.252 2.39242 2.68871 0
M  V30 5541 C 538.86 3.85024 2.29042 0
M  V30 5542 C 540.604 2.44972 3.46683 0
M  V30 5543 C 538.511 4.79727 3.45856 0
M  V30 5544 H 537.441 0.506267 0.558757 0
M  V30 5545 H 540.092 1.65181 0.799226 0
M  V30 5546 H 538.474 2.0331 3.39825 0
M  V30 5547 H 539.648 4.30008 1.6562 0
M  V30 5548 H 537.963 3.82609 1.64316 0
M  V30 5549 H 540.56 3.12918 4.33574 0
M  V30 5550 H 540.903 1.4749 3.89297 0
M  V30 5551 H 541.436 2.79808 2.82759 0
M  V30 5552 H 538.175 5.78479 3.08289 0
M  V30 5553 H 537.695 4.39421 4.08251 0
M  V30 5554 H 539.374 4.98731 4.12161 0
M  V30 5555 N 539.506 -0.963266 1.24736 0
M  V30 5556 C 540.917 -1.52145 1.08207 0
M  V30 5557 C 541.268 -1.93142 -0.345061 0
M  V30 5558 O 540.393 -1.77769 -1.23399 0
M  V30 5559 C 540.988 -2.76486 1.95808 0
M  V30 5560 C 539.547 -3.28646 1.8349 0
M  V30 5561 C 538.694 -2.01529 1.90476 0
M  V30 5562 H 541.645 -0.781083 1.38148 0
M  V30 5563 H 541.666 -3.49986 1.49297 0
M  V30 5564 H 541.178 -2.46617 2.99669 0
M  V30 5565 H 539.279 -3.63357 0.824787 0
M  V30 5566 H 539.392 -3.97246 2.67829 0
M  V30 5567 H 537.756 -2.16442 1.34258 0
M  V30 5568 H 538.539 -1.7402 2.95926 0
M  V30 5569 N 540.985 -1.06182 -1.16461 0
M  V30 5570 C 542.233 -0.776326 -1.86595 0
M  V30 5571 C 542.554 0.69921 -1.82033 0
M  V30 5572 O 541.824 1.50579 -1.2531 0
M  V30 5573 H 540.404 -0.284184 -0.690832 0
M  V30 5574 H 543.066 -1.34308 -1.41235 0
M  V30 5575 H 542.162 -1.10022 -2.92064 0
M  V30 5576 N 542.463 1.3308 -0.844243 0
M  V30 5577 C 543.712 1.96868 -0.438833 0
M  V30 5578 C 544.025 1.67599 1.00846 0
M  V30 5579 O 545.231 2.25043 1.51881 0
M  V30 5580 C 543.687 3.5234 -0.73377 0
M  V30 5581 C 543.295 3.90481 -2.1961 0
M  V30 5582 C 545.039 4.22653 -0.395574 0
M  V30 5583 C 542.946 5.38954 -2.43481 0
M  V30 5584 H 541.876 0.736749 -0.160364 0
M  V30 5585 H 544.527 1.51623 -1.03358 0
M  V30 5586 H 542.909 3.95941 -0.068589 0
M  V30 5587 H 544.083 3.57922 -2.90221 0
M  V30 5588 H 542.398 3.33165 -2.4978 0
M  V30 5589 H 544.995 5.31848 -0.551477 0
M  V30 5590 H 545.338 4.11004 0.661921 0
M  V30 5591 H 545.871 3.84601 -1.01621 0
M  V30 5592 H 542.61 5.55612 -3.47816 0
M  V30 5593 H 542.13 5.72954 -1.77437 0
M  V30 5594 H 543.809 6.05907 -2.26905 0
M  V30 5595 N 543.941 0.601185 1.45683 0
M  V30 5596 C 545.352 0.179659 1.85834 0
M  V30 5597 C 545.703 -1.26189 1.50236 0
M  V30 5598 O 544.828 -1.95587 0.925987 0
M  V30 5599 C 545.423 0.319277 3.37292 0
M  V30 5600 C 543.982 -0.0475092 3.7637 0
M  V30 5601 C 543.129 0.646692 2.69654 0
M  V30 5602 H 546.08 0.808268 1.36575 0
M  V30 5603 H 546.101 -0.4503 3.77826 0
M  V30 5604 H 545.613 1.36855 3.6317 0
M  V30 5605 H 543.714 -1.0962 3.5611 0
M  V30 5606 H 543.827 0.34168 4.7788 0
M  V30 5607 H 542.191 0.0849971 2.54558 0
M  V30 5608 H 542.974 1.69797 2.98369 0
M  V30 5609 N 545.419 -1.53889 0.339982 0
M  V30 5610 C 546.667 -2.00458 -0.257112 0
M  V30 5611 C 546.988 -1.22953 -1.51353 0
M  V30 5612 O 546.258 -0.335734 -1.93002 0
M  V30 5613 H 544.838 -0.740544 -0.0979965 0
M  V30 5614 H 547.5 -1.89386 0.460317 0
M  V30 5615 H 546.596 -3.08035 -0.502057 0
M  V30 5616 N 546.897 -0.0685191 -1.57451 0
M  V30 5617 C 547.86 0.885173 -2.11417 0
M  V30 5618 C 548.86 1.22853 -1.03748 0
M  V30 5619 O 550.05 1.16235 -1.2975 0
M  V30 5620 C 547.182 2.18964 -2.61281 0
M  V30 5621 H 548.375 0.417034 -2.96986 0
M  V30 5622 H 545.928 0.18014 -1.55258 0
M  V30 5623 H 546.663 2.70321 -1.79156 0
M  V30 5624 H 546.448 1.9534 -3.39977 0
M  V30 5625 H 547.938 2.87242 -3.0312 0
M  V30 5626 N 548.375 1.56261 0.205012 0
M  V30 5627 C 549.338 1.92908 1.23771 0
M  V30 5628 C 550.338 0.809208 1.38955 0
M  V30 5629 O 551.528 1.07676 1.36936 0
M  V30 5630 C 548.66 2.19442 2.60879 0
M  V30 5631 H 549.853 2.85287 0.924728 0
M  V30 5632 H 547.406 1.49798 0.446125 0
M  V30 5633 H 548.141 1.29668 2.97248 0
M  V30 5634 H 547.926 3.0104 2.51232 0
M  V30 5635 H 549.416 2.48833 3.35368 0
M  V30 5636 N 549.853 -0.472356 1.50355 0
M  V30 5637 C 550.816 -1.5529 1.68576 0
M  V30 5638 C 551.816 -1.50863 0.556511 0
M  V30 5639 O 553.006 -1.53505 0.823516 0
M  V30 5640 C 550.138 -2.94921 1.70981 0
M  V30 5641 H 551.331 -1.40451 2.64978 0
M  V30 5642 H 548.884 -0.698645 1.39816 0
M  V30 5643 H 549.619 -3.15204 0.762675 0
M  V30 5644 H 549.404 -2.99541 2.53017 0
M  V30 5645 H 550.894 -3.73372 1.87037 0
M  V30 5646 N 551.331 -1.39911 -0.725443 0
M  V30 5647 C 552.579 -1.37382 -1.48224 0
M  V30 5648 C 552.9 0.0264107 -1.94982 0
M  V30 5649 O 552.17 0.979408 -1.6966 0
M  V30 5650 H 550.75 -0.505596 -0.549892 0
M  V30 5651 H 553.412 -1.7487 -0.860608 0
M  V30 5652 H 552.508 -2.04254 -2.3598 0
M  V30 5653 N 552.809 0.956637 -1.25245 0
M  V30 5654 C 554.055 1.70352 -1.10036 0
M  V30 5655 C 554.388 1.90869 0.358156 0
M  V30 5656 O 553.663 1.47819 1.26411 0
M  V30 5657 C 553.946 3.08766 -1.85298 0
M  V30 5658 C 553.799 2.95672 -3.38966 0
M  V30 5659 C 555.118 4.08622 -1.63451 0
M  V30 5660 H 552.237 0.618279 -0.401123 0
M  V30 5661 H 554.879 1.11212 -1.54051 0
M  V30 5662 H 553.029 3.59252 -1.47887 0
M  V30 5663 H 554.701 2.52527 -3.86041 0
M  V30 5664 H 552.944 2.31634 -3.6678 0
M  V30 5665 H 553.615 3.93776 -3.86839 0
M  V30 5666 H 556.091 3.67038 -1.96015 0
M  V30 5667 H 554.967 5.03514 -2.18551 0
M  V30 5668 H 555.228 4.3834 -0.575357 0
M  V30 5669 N 554.287 1.06798 1.15896 0
M  V30 5670 C 555.217 0.704677 2.22613 0
M  V30 5671 C 556.198 -0.305252 1.67339 0
M  V30 5672 O 557.383 -0.179247 1.93371 0
M  V30 5673 C 554.513 0.0957325 3.47168 0
M  V30 5674 C 553.467 1.0322 4.15367 0
M  V30 5675 C 552.793 0.286293 5.33933 0
M  V30 5676 C 554.093 2.36341 4.65768 0
M  V30 5677 H 555.787 1.59688 2.53259 0
M  V30 5678 H 553.333 0.769257 1.21731 0
M  V30 5679 H 555.286 -0.170333 4.21056 0
M  V30 5680 H 554.01 -0.831516 3.15838 0
M  V30 5681 H 552.669 1.28309 3.43413 0
M  V30 5682 H 552.317 -0.644237 4.98857 0
M  V30 5683 H 552.017 0.910436 5.80504 0
M  V30 5684 H 553.541 0.0278938 6.10594 0
M  V30 5685 H 554.955 2.1561 5.31211 0
M  V30 5686 H 553.352 2.94299 5.2298 0
M  V30 5687 H 554.422 2.99047 3.81705 0
M  V30 5688 N 555.766 -1.3263 0.851289 0
M  V30 5689 C 556.698 -2.27824 0.250757 0
M  V30 5690 C 557.711 -1.52285 -0.575598 0
M  V30 5691 O 558.9 -1.73946 -0.400638 0
M  V30 5692 C 556 -3.3232 -0.664571 0
M  V30 5693 C 555.173 -4.37221 0.125187 0
M  V30 5694 C 554.232 -5.21314 -0.715385 0
M  V30 5695 O 553.258 -5.69002 -0.150111 0
M  V30 5696 N 554.46 -5.43823 -2.03069 0
M  V30 5697 H 557.225 -2.79997 1.06873 0
M  V30 5698 H 554.786 -1.45455 0.710943 0
M  V30 5699 H 556.778 -3.85486 -1.23216 0
M  V30 5700 H 555.348 -2.80331 -1.38323 0
M  V30 5701 H 554.568 -3.84384 0.874199 0
M  V30 5702 H 555.856 -5.04399 0.667774 0
M  V30 5703 H 555.254 -5.06803 -2.51332 0
M  V30 5704 H 553.811 -5.99998 -2.54648 0
M  V30 5705 N 557.244 -0.608902 -1.45362 0
M  V30 5706 C 558.154 0.110969 -2.34337 0
M  V30 5707 C 559.17 0.859007 -1.51318 0
M  V30 5708 O 560.346 0.816296 -1.84116 0
M  V30 5709 C 557.411 1.09494 -3.28956 0
M  V30 5710 C 556.472 0.348718 -4.27881 0
M  V30 5711 C 555.705 1.28582 -5.17979 0
M  V30 5712 O 555.928 2.52369 -5.11533 0
M  V30 5713 O 554.862 0.782172 -5.96796 0
M  V30 5714 H 558.688 -0.620258 -2.97299 0
M  V30 5715 H 556.273 -0.36916 -1.44767 0
M  V30 5716 H 558.155 1.66163 -3.87257 0
M  V30 5717 H 556.83 1.80717 -2.68557 0
M  V30 5718 H 555.737 -0.260465 -3.73192 0
M  V30 5719 H 557.07 -0.323049 -4.91139 0
M  V30 5720 N 558.722 1.53707 -0.348139 0
M  V30 5721 C 559.67 2.26671 0.521808 0
M  V30 5722 C 560.664 1.28988 1.09811 0
M  V30 5723 O 561.87 1.4668 1.04332 0
M  V30 5724 H 558.245 0.728387 0.186968 0
M  V30 5725 H 560.216 2.98176 -0.115563 0
M  V30 5726 C 558.965 3.05591 1.6586 0
M  V30 5727 H 558.288 3.80589 1.22443 0
M  V30 5728 H 559.728 3.59851 2.24239 0
M  V30 5729 C 558.187 2.15366 2.59073 0
M  V30 5730 O 558.717 1.7528 3.61441 0
M  V30 5731 N 556.923 1.80352 2.27863 0
M  V30 5732 H 556.47 2.13149 1.44656 0
M  V30 5733 H 556.428 1.20268 2.90488 0
M  V30 5734 N 560.2 0.0768682 1.57412 0
M  V30 5735 C 561.13 -0.886026 2.16037 0
M  V30 5736 C 562.111 -1.30691 1.08876 0
M  V30 5737 O 563.296 -1.37705 1.36934 0
M  V30 5738 C 560.426 -2.1518 2.72608 0
M  V30 5739 C 559.38 -1.87015 3.8498 0
M  V30 5740 C 558.706 -3.20266 4.28175 0
M  V30 5741 C 560.006 -1.17143 5.08994 0
M  V30 5742 H 561.7 -0.397642 2.96748 0
M  V30 5743 H 559.246 -0.189823 1.42743 0
M  V30 5744 H 561.199 -2.82962 3.12266 0
M  V30 5745 H 559.923 -2.66269 1.89125 0
M  V30 5746 H 558.582 -1.21636 3.45833 0
M  V30 5747 H 558.23 -3.69207 3.41607 0
M  V30 5748 H 557.93 -3.0221 5.03927 0
M  V30 5749 H 559.454 -3.89237 4.70454 0
M  V30 5750 H 560.868 -1.75003 5.45937 0
M  V30 5751 H 559.265 -1.09328 5.90057 0
M  V30 5752 H 560.335 -0.151295 4.84664 0
M  V30 5753 N 561.678 -1.56367 -0.196722 0
M  V30 5754 C 562.924 -1.81698 -0.914182 0
M  V30 5755 C 563.279 -0.65367 -1.80956 0
M  V30 5756 O 562.572 0.351224 -1.88353 0
M  V30 5757 C 562.766 -3.10663 -1.767 0
M  V30 5758 C 562.595 -4.39428 -0.955689 0
M  V30 5759 C 561.365 -5.01221 -0.64076 0
M  V30 5760 C 563.563 -5.1337 -0.309165 0
M  V30 5761 N 561.545 -6.13608 0.189358 0
M  V30 5762 C 562.916 -6.18815 0.383225 0
M  V30 5763 C 564.971 -4.97393 -0.224726 0
M  V30 5764 C 563.674 -7.10015 1.15201 0
M  V30 5765 C 565.7 -5.89014 0.530658 0
M  V30 5766 C 565.062 -6.93903 1.2115 0
M  V30 5767 H 561.161 -0.716203 -0.31397 0
M  V30 5768 H 563.745 -1.93838 -0.18304 0
M  V30 5769 H 561.916 -2.99762 -2.46976 0
M  V30 5770 H 563.648 -3.24088 -2.42382 0
M  V30 5771 H 560.403 -4.63669 -0.96479 0
M  V30 5772 H 560.827 -6.74389 0.593979 0
M  V30 5773 H 565.469 -4.16331 -0.736754 0
M  V30 5774 H 563.187 -7.9054 1.67547 0
M  V30 5775 H 566.773 -5.78726 0.597326 0
M  V30 5776 H 565.653 -7.63576 1.78665 0
M  V30 5777 N 563.156 0.464375 -1.50603 0
M  V30 5778 C 564.381 1.24372 -1.65971 0
M  V30 5779 C 564.806 1.84901 -0.345453 0
M  V30 5780 O 564.164 1.67596 0.691457 0
M  V30 5781 C 564.212 2.32331 -2.7578 0
M  V30 5782 O 563.316 3.37146 -2.375 0
M  V30 5783 H 562.657 0.365604 -0.554283 0
M  V30 5784 H 565.187 0.55183 -1.97018 0
M  V30 5785 H 565.197 2.77539 -2.99059 0
M  V30 5786 H 563.872 1.87648 -3.71162 0
M  V30 5787 H 562.449 2.97602 -2.24694 0
M  V30 5788 N 564.634 1.40294 0.718013 0
M  V30 5789 C 565.597 1.4012 1.81381 0
M  V30 5790 C 566.597 0.295405 1.58063 0
M  V30 5791 O 567.787 0.554187 1.6515 0
M  V30 5792 C 564.919 1.19056 3.19435 0
M  V30 5793 H 566.112 2.37645 1.82933 0
M  V30 5794 H 563.665 1.26107 0.923405 0
M  V30 5795 H 564.4 0.222809 3.23534 0
M  V30 5796 H 564.185 1.99152 3.37758 0
M  V30 5797 H 565.675 1.21716 3.99468 0
M  V30 5798 N 566.112 -0.949982 1.2575 0
M  V30 5799 C 567.342 -1.72721 1.13363 0
M  V30 5800 C 567.75 -1.86562 -0.314842 0
M  V30 5801 O 567.093 -1.36621 -1.22803 0
M  V30 5802 C 567.155 -3.15695 1.7198 0
M  V30 5803 C 566.819 -3.25268 3.21014 0
M  V30 5804 C 567.816 -3.09222 4.17945 0
M  V30 5805 C 565.501 -3.4894 3.61312 0
M  V30 5806 C 567.495 -3.16701 5.53154 0
M  V30 5807 C 565.182 -3.56055 4.96657 0
M  V30 5808 C 566.18 -3.3995 5.92387 0
M  V30 5809 O 565.868 -3.46757 7.25269 0
M  V30 5810 H 565.6 -0.547888 0.395973 0
M  V30 5811 H 568.154 -1.20009 1.66694 0
M  V30 5812 H 566.384 -3.69791 1.13101 0
M  V30 5813 H 568.073 -3.75295 1.54624 0
M  V30 5814 H 568.839 -2.90798 3.88151 0
M  V30 5815 H 564.718 -3.60534 2.87291 0
M  V30 5816 H 568.262 -3.04048 6.27854 0
M  V30 5817 H 564.159 -3.73997 5.26115 0
M  V30 5818 H 564.927 -3.63358 7.33426 0
M  V30 5819 N 567.59 -1.07411 -1.15328 0
M  V30 5820 C 568.52 -0.716472 -2.22236 0
M  V30 5821 C 569.501 0.296373 -1.67498 0
M  V30 5822 O 570.686 0.168989 -1.93463 0
M  V30 5823 C 567.816 -0.114142 -3.47112 0
M  V30 5824 C 566.77 -1.05421 -4.14814 0
M  V30 5825 C 566.096 -0.314604 -5.33774 0
M  V30 5826 C 567.396 -2.38808 -4.64508 0
M  V30 5827 H 569.09 -1.61029 -2.52408 0
M  V30 5828 H 566.636 -0.775702 -1.21321 0
M  V30 5829 H 568.589 0.148001 -4.2114 0
M  V30 5830 H 567.313 0.814755 -3.16274 0
M  V30 5831 H 565.972 -1.30128 -3.42728 0
M  V30 5832 H 565.62 0.617772 -4.99192 0
M  V30 5833 H 565.32 -0.941209 -5.80013 0
M  V30 5834 H 566.844 -0.0602747 -6.1057 0
M  V30 5835 H 568.258 -2.18424 -5.3006 0
M  V30 5836 H 566.655 -2.97069 -5.21412 0
M  V30 5837 H 567.725 -3.01067 -3.80114 0
M  V30 5838 N 569.068 1.32177 -0.85831 0
M  V30 5839 C 569.978 2.32561 -0.308606 0
M  V30 5840 C 570.994 1.64209 0.575462 0
M  V30 5841 O 572.17 1.95719 0.474961 0
M  V30 5842 C 569.235 3.43207 0.490909 0
M  V30 5843 C 568.296 4.27243 -0.419733 0
M  V30 5844 C 567.529 5.32605 0.341719 0
M  V30 5845 O 567.752 5.48332 1.57125 0
M  V30 5846 O 566.686 6.0118 -0.294379 0
M  V30 5847 H 570.512 2.81477 -1.14037 0
M  V30 5848 H 568.097 1.35866 -0.621349 0
M  V30 5849 H 569.979 4.10677 0.944574 0
M  V30 5850 H 568.654 2.96474 1.29941 0
M  V30 5851 H 567.561 3.62569 -0.921652 0
M  V30 5852 H 568.894 4.7751 -1.19352 0
M  V30 5853 N 570.547 0.616602 1.45037 0
M  V30 5854 C 571.494 -0.0969439 2.30596 0
M  V30 5855 C 572.464 -0.851151 1.42635 0
M  V30 5856 O 573.649 -0.835092 1.71554 0
M  V30 5857 C 570.789 -1.08234 3.27688 0
M  V30 5858 C 569.902 -0.328072 4.30752 0
M  V30 5859 C 569.037 -1.30399 5.14946 0
M  V30 5860 C 568.076 -0.538049 6.09731 0
M  V30 5861 N 567.213 -1.46371 6.86673 0
M  V30 5862 H 572.053 0.63864 2.91076 0
M  V30 5863 H 569.59 0.326733 1.43425 0
M  V30 5864 H 571.548 -1.66688 3.82454 0
M  V30 5865 H 570.178 -1.78523 2.68941 0
M  V30 5866 H 569.23 0.372136 3.78575 0
M  V30 5867 H 570.542 0.269142 4.98073 0
M  V30 5868 H 569.696 -1.96032 5.74157 0
M  V30 5869 H 568.435 -1.93514 4.47665 0
M  V30 5870 H 567.44 0.131852 5.49642 0
M  V30 5871 H 568.665 0.0881732 6.79043 0
M  V30 5872 H 566.611 -2.08233 6.22073 0
M  V30 5873 H 566.528 -0.920152 7.50379 0
M  V30 5874 H 567.796 -2.10932 7.50418 0
M  V30 5875 N 572.025 -1.5352 0.356285 0
M  V30 5876 C 573.273 -2.00719 -0.235837 0
M  V30 5877 C 573.594 -1.24551 -1.5004 0
M  V30 5878 O 572.864 -0.356185 -1.92635 0
M  V30 5879 H 571.444 -0.741542 -0.0901366 0
M  V30 5880 H 574.106 -1.88887 0.480378 0
M  V30 5881 H 573.202 -3.08551 -0.469357 0
M  V30 5882 N 573.503 -0.0852151 -1.57369 0
M  V30 5883 C 574.78 0.622534 -1.85429 0
M  V30 5884 C 575.16 1.86962 -0.980229 0
M  V30 5885 O 574.508 2.28445 -0.0500219 0
M  V30 5886 C 574.718 0.947374 -3.35896 0
M  V30 5887 C 576.066 1.31509 -4.03721 0
M  V30 5888 O 577.09 1.03869 -3.40719 0
M  V30 5889 O 575.949 1.83231 -5.14868 0
M  V30 5890 H 573.043 0.310513 -0.766492 0
M  V30 5891 H 575.589 -0.117164 -1.69295 0
M  V30 5892 H 574.361 0.0622264 -3.91251 0
M  V30 5893 H 573.984 1.74338 -3.5734 0
M  V30 5894 N 574.981 1.5647 0.188427 0
M  V30 5895 C 576.23 1.80207 0.905995 0
M  V30 5896 C 576.543 0.659579 1.84144 0
M  V30 5897 O 577.749 0.781431 2.60011 0
M  V30 5898 C 576.205 3.19255 1.66145 0
M  V30 5899 C 575.813 4.41324 0.770504 0
M  V30 5900 C 577.557 3.52298 2.36826 0
M  V30 5901 C 575.464 5.71394 1.52521 0
M  V30 5902 H 574.394 0.671953 0.342045 0
M  V30 5903 H 577.045 1.82808 0.159164 0
M  V30 5904 H 575.427 3.10922 2.45242 0
M  V30 5905 H 576.601 4.60797 0.0177261 0
M  V30 5906 H 574.916 4.16035 0.174199 0
M  V30 5907 H 577.513 4.46715 2.93854 0
M  V30 5908 H 577.856 2.76359 3.11338 0
M  V30 5909 H 578.389 3.62108 1.6469 0
M  V30 5910 H 575.128 6.50316 0.82275 0
M  V30 5911 H 574.648 5.55928 2.25175 0
M  V30 5912 H 576.327 6.12747 2.07725 0
M  V30 5913 N 576.459 -0.456382 1.50847 0
M  V30 5914 C 577.705 -1.20914 1.62811 0
M  V30 5915 C 578.038 -1.91301 0.334304 0
M  V30 5916 O 577.313 -1.82775 -0.665098 0
M  V30 5917 C 577.596 -2.24122 2.81853 0
M  V30 5918 C 577.449 -1.57944 4.21158 0
M  V30 5919 C 578.768 -3.25295 2.96431 0
M  V30 5920 H 575.887 -0.438233 0.592554 0
M  V30 5921 H 578.529 -0.50091 1.83278 0
M  V30 5922 H 576.679 -2.84524 2.64534 0
M  V30 5923 H 578.351 -1.01025 4.50102 0
M  V30 5924 H 576.594 -0.882185 4.24735 0
M  V30 5925 H 577.265 -2.33014 5.00408 0
M  V30 5926 H 579.741 -2.7493 3.12335 0
M  V30 5927 H 578.617 -3.94822 3.81322 0
M  V30 5928 H 578.878 -3.90286 2.07676 0
M  V30 5929 N 577.937 -1.40673 -0.710563 0
M  V30 5930 C 578.847 -1.43663 -1.85467 0
M  V30 5931 C 579.863 -0.328721 -1.70867 0
M  V30 5932 O 581.039 -0.574098 -1.93044 0
M  V30 5933 C 578.104 -1.30226 -3.21313 0
M  V30 5934 C 577.165 -2.51204 -3.48131 0
M  V30 5935 C 576.398 -2.38398 -4.77495 0
M  V30 5936 O 576.621 -1.40048 -5.5294 0
M  V30 5937 O 575.555 -3.2787 -5.04762 0
M  V30 5938 H 579.381 -2.40156 -1.859 0
M  V30 5939 H 576.966 -1.22049 -0.861652 0
M  V30 5940 H 578.848 -1.2496 -4.02446 0
M  V30 5941 H 577.523 -0.368419 -3.21597 0
M  V30 5942 H 576.43 -2.62048 -2.66987 0
M  V30 5943 H 577.763 -3.43366 -3.52648 0
M  V30 5944 N 579.415 0.9433 -1.26252 0
M  V30 5945 C 580.362 2.0417 -1.07625 0
M  V30 5946 C 581.332 1.6609 0.0180738 0
M  V30 5947 O 582.517 1.90276 -0.141289 0
M  V30 5948 C 579.657 3.37653 -0.713043 0
M  V30 5949 C 578.77 3.88783 -1.8834 0
M  V30 5950 C 577.905 5.10642 -1.4635 0
M  V30 5951 C 576.944 5.54028 -2.60229 0
M  V30 5952 N 576.081 6.67092 -2.18936 0
M  V30 5953 H 580.921 2.19436 -2.01623 0
M  V30 5954 H 578.458 1.07519 -1.00389 0
M  V30 5955 H 580.416 4.14391 -0.483358 0
M  V30 5956 H 579.046 3.22241 0.18996 0
M  V30 5957 H 578.098 3.08464 -2.22608 0
M  V30 5958 H 579.41 4.16922 -2.73821 0
M  V30 5959 H 578.564 5.94832 -1.19414 0
M  V30 5960 H 577.303 4.84244 -0.579568 0
M  V30 5961 H 576.308 4.68396 -2.87898 0
M  V30 5962 H 577.533 5.82429 -3.49219 0
M  V30 5963 H 575.479 6.42381 -1.32974 0
M  V30 5964 H 575.396 6.94806 -2.97961 0
M  V30 5965 H 576.664 7.54662 -1.95206 0
M  V30 5966 N 580.893 1.08022 1.14757 0
M  V30 5967 C 581.843 0.676345 2.17737 0
M  V30 5968 C 582.827 -0.302018 1.5804 0
M  V30 5969 O 584.019 -0.11466 1.76628 0
M  V30 5970 C 581.148 0.082984 3.432 0
M  V30 5971 C 580.234 1.0869 4.09936 0
M  V30 5972 N 580.625 2.26891 4.52055 0
M  V30 5973 C 578.923 0.921768 4.36371 0
M  V30 5974 C 579.624 2.90636 5.0389 0
M  V30 5975 N 578.6 2.18266 4.97856 0
M  V30 5976 H 582.402 1.5765 2.4804 0
M  V30 5977 H 579.916 0.954374 1.31398 0
M  V30 5978 H 581.913 -0.224289 4.16296 0
M  V30 5979 H 580.573 -0.812206 3.14378 0
M  V30 5980 H 581.584 2.6457 4.45223 0
M  V30 5981 H 578.261 0.0800499 4.17423 0
M  V30 5982 H 579.651 3.9104 5.46386 0
M  V30 5983 N 582.371 -1.3172 0.865308 0
M  V30 5984 C 583.619 -1.96487 0.472995 0
M  V30 5985 C 583.94 -1.68761 -0.976975 0
M  V30 5986 O 583.21 -1.00051 -1.68424 0
M  V30 5987 H 581.79 -0.726947 0.171922 0
M  V30 5988 H 584.452 -1.60612 1.10407 0
M  V30 5989 H 583.548 -3.0574 0.62687 0
M  V30 5990 N 583.85 -0.624285 -1.44708 0
M  V30 5991 C 584.779 0.0717025 -2.3339 0
M  V30 5992 C 585.76 0.841814 -1.47809 0
M  V30 5993 O 586.946 0.809056 -1.76544 0
M  V30 5994 C 584.076 1.05852 -3.30776 0
M  V30 5995 C 583.029 0.400503 -4.26122 0
M  V30 5996 C 582.356 1.49674 -5.13324 0
M  V30 5997 C 583.656 -0.688924 -5.17737 0
M  V30 5998 H 585.35 -0.668819 -2.91834 0
M  V30 5999 H 582.896 -0.32308 -1.40329 0
M  V30 6000 H 584.849 1.5541 -3.91696 0
M  V30 6001 H 583.572 1.82984 -2.70526 0
M  V30 6002 H 582.231 -0.0743687 -3.66525 0
M  V30 6003 H 581.88 2.25877 -4.49431 0
M  V30 6004 H 581.58 1.06188 -5.77926 0
M  V30 6005 H 583.104 1.99427 -5.77115 0
M  V30 6006 H 584.518 -0.276724 -5.72632 0
M  V30 6007 H 582.915 -1.04652 -5.90904 0
M  V30 6008 H 583.985 -1.55884 -4.5916 0
M  V30 6009 N 585.328 1.53329 -0.364422 0
M  V30 6010 C 586.739 1.86345 0.115039 0
M  V30 6011 C 587.09 1.28505 1.4826 0
M  V30 6012 O 586.215 0.606639 2.07723 0
M  V30 6013 C 586.81 3.38114 0.215522 0
M  V30 6014 C 585.369 3.70932 0.639237 0
M  V30 6015 C 584.516 2.76471 -0.214261 0
M  V30 6016 H 587.467 1.47593 -0.583258 0
M  V30 6017 H 587.488 3.66031 1.0393 0
M  V30 6018 H 587 3.80182 -0.779948 0
M  V30 6019 H 585.101 3.3442 1.64298 0
M  V30 6020 H 585.214 4.77302 0.41465 0
M  V30 6021 H 583.578 2.52724 0.316678 0
M  V30 6022 H 584.361 3.21373 -1.20725 0
M  V30 6023 N 586.806 0.0935595 1.57322 0
M  V30 6024 C 588.031 -0.582324 1.99057 0
M  V30 6025 C 588.456 -1.61025 0.972242 0
M  V30 6026 O 587.814 -1.81202 -0.0594622 0
M  V30 6027 C 587.862 -1.20799 3.39765 0
M  V30 6028 O 586.966 -2.32382 3.40694 0
M  V30 6029 H 586.307 -0.147884 0.647323 0
M  V30 6030 H 588.837 0.174516 2.03854 0
M  V30 6031 H 588.847 -1.54966 3.77425 0
M  V30 6032 H 587.522 -0.454914 4.13405 0
M  V30 6033 H 586.099 -1.99845 3.14827 0
M  V30 6034 N 588.284 -1.56567 -0.180126 0
M  V30 6035 C 589.247 -1.94852 -1.20686 0
M  V30 6036 C 590.247 -0.831212 -1.3765 0
M  V30 6037 O 591.437 -1.09841 -1.35206 0
M  V30 6038 C 588.569 -2.23565 -2.57355 0
M  V30 6039 H 589.762 -2.86722 -0.879225 0
M  V30 6040 H 587.315 -1.50489 -0.422237 0
M  V30 6041 H 588.05 -1.34381 -2.95148 0
M  V30 6042 H 587.835 -3.04999 -2.46411 0
M  V30 6043 H 589.325 -2.54137 -3.31367 0
M  V30 6044 N 589.762 0.448376 -1.51087 0
M  V30 6045 C 591.039 1.20926 -1.53741 0
M  V30 6046 C 591.419 2.09025 -0.295222 0
M  V30 6047 O 590.767 2.16851 0.720283 0
M  V30 6048 C 590.977 2.02067 -2.84552 0
M  V30 6049 C 592.325 2.59486 -3.36084 0
M  V30 6050 O 593.349 2.12289 -2.86028 0
M  V30 6051 O 592.208 3.45539 -4.23397 0
M  V30 6052 H 589.302 0.549951 -0.617643 0
M  V30 6053 H 591.848 0.458344 -1.63393 0
M  V30 6054 H 590.62 1.37291 -3.66425 0
M  V30 6055 H 590.243 2.84246 -2.78011 0
M  V30 6056 N 591.24 1.41047 0.703093 0
M  V30 6057 C 592.203 1.42036 1.79884 0
M  V30 6058 C 593.203 0.312153 1.57741 0
M  V30 6059 O 594.393 0.571672 1.64553 0
M  V30 6060 C 591.525 1.22437 3.18154 0
M  V30 6061 H 592.718 2.39572 1.80403 0
M  V30 6062 H 590.271 1.27079 0.909977 0
M  V30 6063 H 591.006 0.257112 3.23279 0
M  V30 6064 H 590.791 2.02723 3.35627 0
M  V30 6065 H 592.281 1.25946 3.98155 0
M  V30 6066 N 592.718 -0.936591 1.26751 0
M  V30 6067 C 594.129 -1.49816 1.1141 0
M  V30 6068 C 594.48 -1.9383 -0.304015 0
M  V30 6069 O 593.605 -1.80346 -1.196 0
M  V30 6070 C 594.2 -2.72271 2.01629 0
M  V30 6071 C 592.759 -3.2468 1.9042 0
M  V30 6072 C 591.906 -1.97444 1.94708 0
M  V30 6073 H 594.857 -0.751604 1.39773 0
M  V30 6074 H 594.878 -3.46741 1.56688 0
M  V30 6075 H 594.39 -2.40205 3.04833 0
M  V30 6076 H 592.491 -3.61525 0.901674 0
M  V30 6077 H 592.604 -3.91476 2.76195 0
M  V30 6078 H 590.968 -2.13545 1.38818 0
M  V30 6079 H 591.751 -1.67703 2.9955 0
M  V30 6080 N 594.196 -1.08629 -1.14182 0
M  V30 6081 C 595.421 -0.83902 -1.89671 0
M  V30 6082 C 595.846 0.603332 -1.78161 0
M  V30 6083 O 595.204 1.42301 -1.12339 0
M  V30 6084 C 595.252 -1.26854 -3.37551 0
M  V30 6085 O 594.356 -0.42188 -4.10236 0
M  V30 6086 H 593.697 -0.304545 -0.590041 0
M  V30 6087 H 596.227 -1.4483 -1.44518 0
M  V30 6088 H 596.237 -1.25038 -3.88368 0
M  V30 6089 H 594.912 -2.31901 -3.45246 0
M  V30 6090 H 593.489 -0.503654 -3.69483 0
M  V30 6091 N 595.674 1.31259 -0.872281 0
M  V30 6092 C 596.604 2.30929 -0.345554 0
M  V30 6093 C 597.585 1.60449 0.5648 0
M  V30 6094 O 598.77 1.8814 0.481335 0
M  V30 6095 C 595.9 3.44348 0.451823 0
M  V30 6096 C 594.854 4.26435 -0.365641 0
M  V30 6097 C 594.18 5.31785 0.557562 0
M  V30 6098 C 595.48 4.97159 -1.60095 0
M  V30 6099 H 597.174 2.75234 -1.17841 0
M  V30 6100 H 594.72 1.3232 -0.568094 0
M  V30 6101 H 596.673 4.13128 0.830854 0
M  V30 6102 H 595.397 2.98816 1.31821 0
M  V30 6103 H 594.056 3.59326 -0.726649 0
M  V30 6104 H 593.704 4.82502 1.4213 0
M  V30 6105 H 593.404 5.87598 0.0144878 0
M  V30 6106 H 594.928 6.03424 0.933387 0
M  V30 6107 H 596.342 5.58523 -1.29323 0
M  V30 6108 H 594.739 5.62779 -2.08327 0
M  V30 6109 H 595.809 4.24012 -2.35249 0
M  V30 6110 N 597.152 0.631951 1.44375 0
M  V30 6111 C 598.099 -0.0724807 2.30686 0
M  V30 6112 C 599.069 -0.835975 1.43529 0
M  V30 6113 O 600.254 -0.816849 1.7243 0
M  V30 6114 C 597.394 -1.04753 3.28817 0
M  V30 6115 C 596.507 -0.282367 4.31076 0
M  V30 6116 C 595.642 -1.2493 5.163 0
M  V30 6117 C 594.681 -0.473349 6.10267 0
M  V30 6118 N 593.818 -1.39079 6.88187 0
M  V30 6119 H 598.658 0.669477 2.90383 0
M  V30 6120 H 596.195 0.341927 1.43071 0
M  V30 6121 H 598.153 -1.62623 3.842 0
M  V30 6122 H 596.783 -1.75661 2.70819 0
M  V30 6123 H 595.835 0.412268 3.78159 0
M  V30 6124 H 597.147 0.321955 4.9776 0
M  V30 6125 H 596.301 -1.89931 5.76204 0
M  V30 6126 H 595.04 -1.88755 4.49692 0
M  V30 6127 H 594.045 0.190142 5.49471 0
M  V30 6128 H 595.27 0.16019 6.78911 0
M  V30 6129 H 593.216 -2.01623 6.24247 0
M  V30 6130 H 593.133 -0.840513 7.51313 0
M  V30 6131 H 594.401 -2.02961 7.52613 0
M  V30 6132 N 598.631 -1.53133 0.372548 0
M  V30 6133 C 599.541 -2.29671 -0.478379 0
M  V30 6134 C 600.557 -1.35913 -1.08644 0
M  V30 6135 O 601.733 -1.68975 -1.09588 0
M  V30 6136 C 598.798 -3.07625 -1.599 0
M  V30 6137 C 597.859 -4.17061 -1.01776 0
M  V30 6138 C 597.092 -4.91289 -2.08497 0
M  V30 6139 O 597.315 -4.65442 -3.29727 0
M  V30 6140 O 596.249 -5.7705 -1.71164 0
M  V30 6141 H 600.075 -3.03355 0.144649 0
M  V30 6142 H 597.66 -1.48773 0.136729 0
M  V30 6143 H 599.542 -3.56281 -2.25038 0
M  V30 6144 H 598.217 -2.3677 -2.2073 0
M  V30 6145 H 597.124 -3.72641 -0.330098 0
M  V30 6146 H 598.457 -4.90102 -0.453915 0
M  V30 6147 N 600.109 -0.101901 -1.5727 0
M  V30 6148 C 601.334 0.571759 -1.99363 0
M  V30 6149 C 601.759 1.60507 -0.980768 0
M  V30 6150 O 601.117 1.81231 0.0498517 0
M  V30 6151 C 601.165 1.18996 -3.404 0
M  V30 6152 O 600.269 2.30572 -3.41922 0
M  V30 6153 H 599.61 0.144449 -0.648098 0
M  V30 6154 H 602.14 -0.185325 -2.03759 0
M  V30 6155 H 602.15 1.52962 -3.78241 0
M  V30 6156 H 600.825 0.432984 -4.1364 0
M  V30 6157 H 599.402 1.98173 -3.15883 0
M  V30 6158 N 601.587 1.56661 0.17182 0
M  V30 6159 C 602.517 1.99401 1.21498 0
M  V30 6160 C 603.498 0.869516 1.46197 0
M  V30 6161 O 604.683 1.13556 1.57539 0
M  V30 6162 C 601.813 2.35346 2.55401 0
M  V30 6163 C 600.767 3.5075 2.45272 0
M  V30 6164 C 600.093 3.72437 3.8366 0
M  V30 6165 C 601.393 4.84216 1.95787 0
M  V30 6166 H 603.087 2.86792 0.859699 0
M  V30 6167 H 600.633 1.37977 0.412103 0
M  V30 6168 H 602.586 2.63843 3.2858 0
M  V30 6169 H 601.31 1.44864 2.92715 0
M  V30 6170 H 599.969 3.2238 1.74547 0
M  V30 6171 H 599.617 2.79246 4.18367 0
M  V30 6172 H 599.317 4.50087 3.77751 0
M  V30 6173 H 600.841 4.03334 4.58426 0
M  V30 6174 H 602.255 5.11592 2.5874 0
M  V30 6175 H 600.652 5.65498 2.00827 0
M  V30 6176 H 601.722 4.76243 0.912159 0
M  V30 6177 N 603.065 -0.440357 1.51323 0
M  V30 6178 C 604.476 -1.02032 1.56353 0
M  V30 6179 C 604.827 -1.92382 0.385197 0
M  V30 6180 O 603.952 -2.10583 -0.498373 0
M  V30 6181 C 604.547 -1.85723 2.83359 0
M  V30 6182 C 603.106 -2.38774 2.90971 0
M  V30 6183 C 602.253 -1.17908 2.50984 0
M  V30 6184 H 605.204 -0.221744 1.57143 0
M  V30 6185 H 605.225 -2.71141 2.66951 0
M  V30 6186 H 604.737 -1.19939 3.69102 0
M  V30 6187 H 602.838 -3.08021 2.09651 0
M  V30 6188 H 602.951 -2.71778 3.94555 0
M  V30 6189 H 601.315 -1.52347 2.04114 0
M  V30 6190 H 602.098 -0.537393 3.39068 0
M  V30 6191 N 604.543 -1.41418 -0.695603 0
M  V30 6192 C 605.473 -1.46035 -1.82197 0
M  V30 6193 C 606.454 -0.319025 -1.67082 0
M  V30 6194 O 607.639 -0.530462 -1.86815 0
M  V30 6195 C 604.769 -1.34179 -3.20333 0
M  V30 6196 C 603.723 -2.46123 -3.50154 0
M  V30 6197 C 603.049 -2.19332 -4.87645 0
M  V30 6198 C 604.349 -3.88463 -3.49133 0
M  V30 6199 H 606.043 -2.40303 -1.78591 0
M  V30 6200 H 603.589 -1.15663 -0.857797 0
M  V30 6201 H 605.542 -1.36021 -3.98844 0
M  V30 6202 H 604.266 -0.363952 -3.24566 0
M  V30 6203 H 602.925 -2.43563 -2.73994 0
M  V30 6204 H 602.573 -1.19891 -4.88503 0
M  V30 6205 H 602.273 -2.94344 -5.08562 0
M  V30 6206 H 603.797 -2.22889 -5.68465 0
M  V30 6207 H 605.211 -3.92738 -4.17648 0
M  V30 6208 H 603.608 -4.63158 -3.81582 0
M  V30 6209 H 604.678 -4.16617 -2.48109 0
M  V30 6210 N 606.021 0.929856 -1.27246 0
M  V30 6211 C 607.251 1.70895 -1.16096 0
M  V30 6212 C 607.659 1.87039 0.285122 0
M  V30 6213 O 607.002 1.38557 1.20614 0
M  V30 6214 C 607.064 3.12919 -1.7698 0
M  V30 6215 C 606.728 3.2012 -3.26148 0
M  V30 6216 C 607.725 3.02533 -4.22812 0
M  V30 6217 C 605.41 3.43148 -3.66817 0
M  V30 6218 C 607.404 3.07861 -5.58122 0
M  V30 6219 C 605.091 3.48109 -5.02258 0
M  V30 6220 C 606.089 3.30483 -5.97721 0
M  V30 6221 O 605.777 3.35175 -7.30694 0
M  V30 6222 H 605.509 0.54152 -0.404639 0
M  V30 6223 H 608.063 1.17342 -1.68582 0
M  V30 6224 H 606.293 3.67945 -1.18969 0
M  V30 6225 H 607.982 3.72787 -1.60576 0
M  V30 6226 H 608.748 2.84586 -3.92728 0
M  V30 6227 H 604.627 3.55918 -2.9299 0
M  V30 6228 H 608.171 2.94021 -6.32612 0
M  V30 6229 H 604.068 3.65579 -5.31998 0
M  V30 6230 H 604.836 3.51644 -7.39114 0
M  V30 6231 N 607.499 1.09233 1.13605 0
M  V30 6232 C 608.745 0.828385 1.8511 0
M  V30 6233 C 609.078 -0.64437 1.83198 0
M  V30 6234 O 608.353 -1.47428 1.26867 0
M  V30 6235 C 608.636 1.36167 3.33363 0
M  V30 6236 C 608.489 2.90038 3.438 0
M  V30 6237 C 609.808 0.993819 4.28732 0
M  V30 6238 H 606.927 0.30239 0.672108 0
M  V30 6239 H 609.569 1.35339 1.33355 0
M  V30 6240 H 607.719 0.9151 3.77569 0
M  V30 6241 H 609.391 3.43128 3.08319 0
M  V30 6242 H 607.634 3.27271 2.84739 0
M  V30 6243 H 608.305 3.22428 4.48045 0
M  V30 6244 H 610.781 1.37893 3.92587 0
M  V30 6245 H 609.657 1.39403 5.30903 0
M  V30 6246 H 609.918 -0.0982206 4.41991 0
M  V30 6247 N 608.977 -1.30795 0.87923 0
M  V30 6248 C 610.223 -1.96653 0.495519 0
M  V30 6249 C 610.556 -1.69282 -0.951703 0
M  V30 6250 O 609.831 -0.994374 -1.6716 0
M  V30 6251 C 610.114 -3.51898 0.764174 0
M  V30 6252 C 609.967 -3.88808 2.2616 0
M  V30 6253 C 611.286 -4.39462 0.236825 0
M  V30 6254 H 608.405 -0.7143 0.181507 0
M  V30 6255 H 611.047 -1.54765 1.10217 0
M  V30 6256 H 609.197 -3.87709 0.247841 0
M  V30 6257 H 610.869 -3.63051 2.8459 0
M  V30 6258 H 609.112 -3.37082 2.73053 0
M  V30 6259 H 609.783 -4.97086 2.4002 0
M  V30 6260 H 612.259 -4.10528 0.678683 0
M  V30 6261 H 611.135 -5.47018 0.454176 0
M  V30 6262 H 611.396 -4.33621 -0.861683 0
M  V30 6263 N 610.455 -0.639598 -1.44038 0
M  V30 6264 C 611.418 0.0506628 -2.29144 0
M  V30 6265 C 612.418 0.764001 -1.41491 0
M  V30 6266 O 613.608 0.607309 -1.63271 0
M  V30 6267 C 610.74 1.0824 -3.2326 0
M  V30 6268 H 611.933 -0.697987 -2.91664 0
M  V30 6269 H 609.486 -0.400146 -1.51091 0
M  V30 6270 H 610.221 1.86075 -2.65606 0
M  V30 6271 H 610.006 0.574725 -3.87865 0
M  V30 6272 H 611.496 1.56487 -3.87171 0
M  V30 6273 N 611.933 1.52934 -0.380664 0
M  V30 6274 C 613.21 1.93845 0.261417 0
M  V30 6275 C 613.59 1.31544 1.65104 0
M  V30 6276 O 612.938 0.480234 2.23397 0
M  V30 6277 C 613.148 3.47739 0.296466 0
M  V30 6278 C 614.496 4.21284 0.529578 0
M  V30 6279 O 615.52 3.54199 0.377041 0
M  V30 6280 O 614.379 5.40195 0.827753 0
M  V30 6281 H 611.473 0.811318 0.160285 0
M  V30 6282 H 614.019 1.64042 -0.434544 0
M  V30 6283 H 612.791 3.85395 -0.67724 0
M  V30 6284 H 612.414 3.8382 1.0377 0
M  V30 6285 N 613.412 0.11024 1.57214 0
M  V30 6286 C 614.661 -0.549638 1.94067 0
M  V30 6287 C 614.974 -1.68388 0.995234 0
M  V30 6288 O 616.18 -2.40593 1.25807 0
M  V30 6289 C 614.636 -1.02912 3.44873 0
M  V30 6290 C 614.244 0.0761861 4.47935 0
M  V30 6291 C 615.988 -1.66087 3.9066 0
M  V30 6292 C 613.895 -0.419502 5.8991 0
M  V30 6293 H 612.825 -0.209092 0.724428 0
M  V30 6294 H 615.476 0.188683 1.82527 0
M  V30 6295 H 613.858 -1.82159 3.51616 0
M  V30 6296 H 615.032 0.852185 4.52851 0
M  V30 6297 H 613.347 0.614052 4.11847 0
M  V30 6298 H 615.944 -2.04272 4.94143 0
M  V30 6299 H 616.287 -2.53591 3.30148 0
M  V30 6300 H 616.82 -0.933959 3.86681 0
M  V30 6301 H 613.559 0.419277 6.54158 0
M  V30 6302 H 613.079 -1.16217 5.88433 0
M  V30 6303 H 614.758 -0.883577 6.40938 0
M  V30 6304 N 614.89 -1.56749 -0.16351 0
M  V30 6305 C 615.853 -1.96121 -1.18613 0
M  V30 6306 C 616.853 -0.845765 -1.36761 0
M  V30 6307 O 618.043 -1.11268 -1.34033 0
M  V30 6308 C 615.175 -2.26282 -2.54969 0
M  V30 6309 H 616.368 -2.87639 -0.848764 0
M  V30 6310 H 613.921 -1.50928 -0.406251 0
M  V30 6311 H 614.656 -1.37504 -2.93706 0
M  V30 6312 H 614.441 -3.07595 -2.43162 0
M  V30 6313 H 615.931 -2.57638 -3.28653 0
M  V30 6314 N 616.368 0.432326 -1.51554 0
M  V30 6315 C 617.596 1.20364 -1.68286 0
M  V30 6316 C 618.011 1.84888 -0.38233 0
M  V30 6317 O 617.368 1.70924 0.639627 0
M  V30 6318 C 617.419 2.28398 -2.80208 0
M  V30 6319 O 617.14 1.66512 -4.05223 0
M  V30 6320 C 618.641 3.18584 -3.08251 0
M  V30 6321 H 615.861 0.36259 -0.564596 0
M  V30 6322 H 618.405 0.511647 -1.97996 0
M  V30 6323 H 616.56 2.93305 -2.53083 0
M  V30 6324 H 616.974 2.37951 -4.67418 0
M  V30 6325 H 618.448 3.90511 -3.90135 0
M  V30 6326 H 618.925 3.79628 -2.2086 0
M  V30 6327 H 619.531 2.59372 -3.37055 0
M  V30 6328 N 617.846 1.41785 0.688094 0
M  V30 6329 C 619.071 1.45117 1.48175 0
M  V30 6330 C 619.496 0.060129 1.88004 0
M  V30 6331 O 618.854 -0.938385 1.55126 0
M  V30 6332 C 618.902 2.37224 2.71583 0
M  V30 6333 O 618.006 1.83443 3.69354 0
M  V30 6334 H 617.347 0.492208 0.445676 0
M  V30 6335 H 619.877 1.86329 0.845145 0
M  V30 6336 H 619.887 2.53353 3.19806 0
M  V30 6337 H 618.562 3.38293 2.41931 0
M  V30 6338 H 617.139 1.76802 3.28322 0
M  V30 6339 N 619.324 -0.923095 1.27737 0
M  V30 6340 C 620.571 -1.67127 1.14345 0
M  V30 6341 C 620.899 -1.92017 -0.30982 0
M  V30 6342 O 620.154 -1.51185 -1.24264 0
M  V30 6343 C 620.453 -3.04125 1.8773 0
M  V30 6344 C 620.119 -2.98929 3.37568 0
M  V30 6345 C 618.781 -2.9722 3.78436 0
M  V30 6346 C 621.133 -2.89875 4.33154 0
M  V30 6347 C 618.461 -2.84244 5.13247 0
M  V30 6348 C 620.813 -2.7844 5.68026 0
M  V30 6349 C 619.477 -2.75083 6.08182 0
M  V30 6350 H 618.747 -0.611562 0.418417 0
M  V30 6351 H 621.394 -1.07618 1.584 0
M  V30 6352 H 619.699 -3.67366 1.36196 0
M  V30 6353 H 621.396 -3.609 1.74792 0
M  V30 6354 H 617.986 -3.0105 3.05069 0
M  V30 6355 H 622.17 -2.9029 4.02548 0
M  V30 6356 H 617.426 -2.80034 5.43499 0
M  V30 6357 H 621.6 -2.70401 6.4176 0
M  V30 6358 H 619.227 -2.64786 7.12596 0
M  V30 6359 N 620.802 -1.09834 -1.13024 0
M  V30 6360 C 622.03 -0.858902 -1.8823 0
M  V30 6361 C 622.445 0.590164 -1.79339 0
M  V30 6362 O 621.802 1.4065 -1.16292 0
M  V30 6363 C 621.853 -1.29066 -3.37675 0
M  V30 6364 O 621.574 -2.6829 -3.46341 0
M  V30 6365 C 623.075 -1.08421 -4.29837 0
M  V30 6366 H 620.295 -0.308713 -0.595766 0
M  V30 6367 H 622.839 -1.4614 -1.4305 0
M  V30 6368 H 620.994 -0.731961 -3.80422 0
M  V30 6369 H 621.408 -2.86598 -4.39274 0
M  V30 6370 H 622.882 -1.43553 -5.33007 0
M  V30 6371 H 623.359 -0.0223315 -4.39194 0
M  V30 6372 H 623.965 -1.62907 -3.92863 0
M  V30 6373 N 622.28 1.30327 -0.886154 0
M  V30 6374 C 623.526 1.96388 -0.505941 0
M  V30 6375 C 623.859 1.69784 0.942712 0
M  V30 6376 O 623.134 1.00322 1.6663 0
M  V30 6377 C 623.417 3.51488 -0.782826 0
M  V30 6378 C 623.27 3.87603 -2.28219 0
M  V30 6379 C 624.589 4.39331 -0.260128 0
M  V30 6380 H 621.708 0.713327 -0.185292 0
M  V30 6381 H 624.35 1.54178 -1.11036 0
M  V30 6382 H 622.5 3.87572 -0.268399 0
M  V30 6383 H 624.172 3.61537 -2.86512 0
M  V30 6384 H 622.415 3.3563 -2.74837 0
M  V30 6385 H 623.086 4.95806 -2.42653 0
M  V30 6386 H 625.562 4.10162 -0.700444 0
M  V30 6387 H 624.438 5.46769 -0.483179 0
M  V30 6388 H 624.699 4.34072 0.838674 0
M  V30 6389 N 623.758 0.647228 1.43697 0
M  V30 6390 C 624.688 -0.0345631 2.33474 0
M  V30 6391 C 625.669 -0.818193 1.4913 0
M  V30 6392 O 626.854 -0.780867 1.77809 0
M  V30 6393 C 623.984 -1.00576 3.32418 0
M  V30 6394 C 622.938 -0.33266 4.26705 0
M  V30 6395 C 622.264 -1.41489 5.1564 0
M  V30 6396 C 623.564 0.771204 5.16575 0
M  V30 6397 H 625.258 0.715163 2.90733 0
M  V30 6398 H 622.804 0.345364 1.39797 0
M  V30 6399 H 624.757 -1.49159 3.94119 0
M  V30 6400 H 623.481 -1.78657 2.73403 0
M  V30 6401 H 622.14 0.13267 3.6636 0
M  V30 6402 H 621.788 -2.18698 4.52968 0
M  V30 6403 H 621.488 -0.969799 5.79542 0
M  V30 6404 H 623.012 -1.9022 5.80214 0
M  V30 6405 H 624.426 0.36779 5.72119 0
M  V30 6406 H 622.823 1.1404 5.89165 0
M  V30 6407 H 623.893 1.63169 4.56622 0
M  V30 6408 N 625.236 -1.5273 0.388769 0
M  V30 6409 C 626.482 -2.01871 -0.193877 0
M  V30 6410 C 626.815 -1.27475 -1.46505 0
M  V30 6411 O 626.09 -0.375063 -1.90849 0
M  V30 6412 C 626.373 -3.5712 -0.462336 0
M  V30 6413 C 626.226 -4.42186 0.824091 0
M  V30 6414 C 627.545 -4.21881 -1.25319 0
M  V30 6415 H 624.664 -0.733764 -0.0689899 0
M  V30 6416 H 627.306 -1.82796 0.518231 0
M  V30 6417 H 625.456 -3.73504 -1.06896 0
M  V30 6418 H 627.128 -4.37554 1.46096 0
M  V30 6419 H 625.371 -4.09219 1.43952 0
M  V30 6420 H 626.042 -5.48828 0.590905 0
M  V30 6421 H 628.518 -4.0947 -0.73981 0
M  V30 6422 H 627.394 -5.30487 -1.40977 0
M  V30 6423 H 627.655 -3.79478 -2.26824 0
M  V30 6424 N 626.714 -0.118576 -1.57153 0
M  V30 6425 C 627.962 0.538461 -1.94795 0
M  V30 6426 C 628.283 1.67243 -1.00274 0
M  V30 6427 O 627.553 1.95811 -0.0589692 0
M  V30 6428 H 626.133 0.201904 -0.719197 0
M  V30 6429 H 628.795 -0.187418 -1.93997 0
M  V30 6430 H 627.891 0.933315 -2.97818 0
M  V30 6431 N 628.193 1.56834 0.155195 0
M  V30 6432 C 629.442 1.82088 0.867567 0
M  V30 6433 C 629.755 0.69849 1.82703 0
M  V30 6434 O 630.961 0.836407 2.58295 0
M  V30 6435 C 629.417 3.22707 1.59336 0
M  V30 6436 C 629.025 4.42859 0.676719 0
M  V30 6437 C 630.769 3.57242 2.293 0
M  V30 6438 C 628.676 5.74501 1.40367 0
M  V30 6439 H 627.606 0.679057 0.327715 0
M  V30 6440 H 630.257 1.83105 0.120351 0
M  V30 6441 H 628.639 3.16054 2.38591 0
M  V30 6442 H 629.813 4.60731 -0.0800196 0
M  V30 6443 H 628.128 4.16311 0.0859129 0
M  V30 6444 H 630.725 4.52847 2.84312 0
M  V30 6445 H 631.068 2.82901 3.05406 0
M  V30 6446 H 631.601 3.6552 1.56972 0
M  V30 6447 H 628.34 6.51915 0.684623 0
M  V30 6448 H 627.86 5.60579 2.13332 0
M  V30 6449 H 629.539 6.17016 1.94681 0
M  V30 6450 N 629.671 -0.424282 1.51781 0
M  V30 6451 C 630.918 -1.1726 1.65095 0
M  V30 6452 C 631.246 -1.90881 0.373477 0
M  V30 6453 O 630.501 -1.84835 -0.642997 0
M  V30 6454 C 630.8 -2.20418 2.81337 0
M  V30 6455 C 630.466 -1.63715 4.20129 0
M  V30 6456 C 629.128 -1.47975 4.57883 0
M  V30 6457 C 631.48 -1.22157 5.06682 0
M  V30 6458 C 628.808 -0.891703 5.79884 0
M  V30 6459 C 631.16 -0.647767 6.29275 0
M  V30 6460 C 629.824 -0.477371 6.65791 0
M  V30 6461 H 629.094 -0.429085 0.604125 0
M  V30 6462 H 631.741 -0.461852 1.85847 0
M  V30 6463 H 630.046 -2.97581 2.54859 0
M  V30 6464 H 631.743 -2.78163 2.88836 0
M  V30 6465 H 628.333 -1.76946 3.90369 0
M  V30 6466 H 632.517 -1.33133 4.7811 0
M  V30 6467 H 627.773 -0.747563 6.06813 0
M  V30 6468 H 631.947 -0.317291 6.95677 0
M  V30 6469 H 629.574 -0.0195936 7.60197 0
M  V30 6470 N 631.149 -1.42148 -0.680565 0
M  V30 6471 C 632.396 -1.4231 -1.44063 0
M  V30 6472 C 632.724 -0.037488 -1.94464 0
M  V30 6473 O 631.979 0.953184 -1.70918 0
M  V30 6474 C 632.278 -2.38945 -2.65782 0
M  V30 6475 C 631.944 -3.85455 -2.33956 0
M  V30 6476 C 630.606 -4.25364 -2.24987 0
M  V30 6477 C 632.958 -4.77895 -2.08004 0
M  V30 6478 C 630.286 -5.55701 -1.88184 0
M  V30 6479 C 632.638 -6.08568 -1.72706 0
M  V30 6480 C 631.302 -6.47482 -1.62244 0
M  V30 6481 H 630.572 -0.520748 -0.527164 0
M  V30 6482 H 633.219 -1.7505 -0.776524 0
M  V30 6483 H 631.524 -1.99511 -3.37198 0
M  V30 6484 H 633.221 -2.36336 -3.23954 0
M  V30 6485 H 629.811 -3.53855 -2.41836 0
M  V30 6486 H 633.995 -4.47854 -2.1387 0
M  V30 6487 H 629.251 -5.84718 -1.78648 0
M  V30 6488 H 633.425 -6.79688 -1.5165 0
M  V30 6489 H 631.052 -7.48387 -1.33496 0
M  V30 6490 N 632.627 0.916307 -1.28225 0
M  V30 6491 C 634.038 1.48024 -1.13779 0
M  V30 6492 C 634.389 1.94289 0.273139 0
M  V30 6493 O 633.514 1.82226 1.16716 0
M  V30 6494 C 634.109 2.69029 -2.05935 0
M  V30 6495 C 632.668 3.2161 -1.95561 0
M  V30 6496 C 631.815 1.94321 -1.97825 0
M  V30 6497 H 634.766 0.729272 -1.40951 0
M  V30 6498 H 634.787 3.44204 -1.62184 0
M  V30 6499 H 634.299 2.35325 -3.08616 0
M  V30 6500 H 632.4 3.60045 -0.959076 0
M  V30 6501 H 632.513 3.87032 -2.82388 0
M  V30 6502 H 630.877 2.1131 -1.42198 0
M  V30 6503 H 631.66 1.62917 -3.0218 0
M  V30 6504 N 634.105 1.10431 1.1244 0
M  V30 6505 C 635.33 0.869089 1.88313 0
M  V30 6506 C 635.755 -0.574912 1.79099 0
M  V30 6507 O 635.113 -1.40496 1.14589 0
M  V30 6508 C 635.161 1.32208 3.3549 0
M  V30 6509 O 634.265 0.487092 4.09513 0
M  V30 6510 H 633.606 0.313894 0.585121 0
M  V30 6511 H 636.136 1.47111 1.42195 0
M  V30 6512 H 636.146 1.31201 3.86329 0
M  V30 6513 H 634.821 2.37364 3.41513 0
M  V30 6514 H 633.398 0.562372 3.68635 0
M  V30 6515 N 635.583 -1.29855 0.893053 0
M  V30 6516 C 636.829 -1.96116 0.516349 0
M  V30 6517 C 637.162 -1.70281 -0.933695 0
M  V30 6518 O 636.437 -1.01205 -1.66096 0
M  V30 6519 C 636.72 -3.51068 0.801455 0
M  V30 6520 C 636.573 -3.86387 2.30272 0
M  V30 6521 C 637.892 -4.39186 0.283423 0
M  V30 6522 H 635.011 -0.712335 0.189072 0
M  V30 6523 H 637.653 -1.53587 1.11852 0
M  V30 6524 H 635.803 -3.87424 0.288949 0
M  V30 6525 H 637.475 -3.60012 2.88425 0
M  V30 6526 H 635.718 -3.34167 2.76613 0
M  V30 6527 H 636.389 -4.94512 2.45279 0
M  V30 6528 H 638.865 -4.09785 0.722187 0
M  V30 6529 H 637.741 -5.46505 0.512169 0
M  V30 6530 H 638.002 -4.34511 -0.815643 0
M  V30 6531 N 637.061 -0.65484 -1.43351 0
M  V30 6532 C 638.289 -0.176685 -2.06144 0
M  V30 6533 C 638.704 1.15831 -1.49093 0
M  V30 6534 O 638.061 1.71542 -0.622868 0
M  V30 6535 C 638.112 -0.0813326 -3.61408 0
M  V30 6536 O 637.833 -1.36355 -4.1634 0
M  V30 6537 C 639.334 0.422706 -4.4128 0
M  V30 6538 H 636.554 -0.0906429 -0.66485 0
M  V30 6539 H 639.098 -0.895945 -1.83829 0
M  V30 6540 H 637.253 0.588496 -3.82904 0
M  V30 6541 H 637.667 -1.22381 -5.10023 0
M  V30 6542 H 639.141 0.438375 -5.50257 0
M  V30 6543 H 639.618 1.45432 -4.14423 0
M  V30 6544 H 640.224 -0.214687 -4.24758 0
M  V30 6545 N 638.539 1.52521 -0.396863 0
M  V30 6546 C 639.787 2.01274 0.182536 0
M  V30 6547 C 640.108 1.28485 1.46685 0
M  V30 6548 O 639.378 0.407134 1.91623 0
M  V30 6549 H 637.958 0.743671 0.0704442 0
M  V30 6550 H 640.62 1.87547 -0.530289 0
M  V30 6551 H 639.716 3.09687 0.387385 0
M  V30 6552 N 640.017 0.126909 1.57088 0
M  V30 6553 C 641.266 -0.529024 1.94639 0
M  V30 6554 C 641.579 -1.67323 1.01304 0
M  V30 6555 O 642.785 -2.39245 1.28352 0
M  V30 6556 C 641.241 -0.992483 3.45945 0
M  V30 6557 C 640.849 0.123691 4.47829 0
M  V30 6558 C 642.593 -1.61934 3.924 0
M  V30 6559 C 640.5 -0.356911 5.90322 0
M  V30 6560 H 639.43 -0.201397 0.726605 0
M  V30 6561 H 642.081 0.208032 1.82317 0
M  V30 6562 H 640.463 -1.7842 3.53528 0
M  V30 6563 H 641.637 0.900168 4.51922 0
M  V30 6564 H 639.952 0.657699 4.11173 0
M  V30 6565 H 642.549 -1.9902 4.96281 0
M  V30 6566 H 642.892 -2.50075 3.32819 0
M  V30 6567 H 643.425 -0.892894 3.8765 0
M  V30 6568 H 640.164 0.488636 6.53676 0
M  V30 6569 H 639.684 -1.0997 5.89633 0
M  V30 6570 H 641.363 -0.815547 6.41839 0
M  V30 6571 N 641.495 -1.56914 -0.146875 0
M  V30 6572 C 642.428 -1.93425 -1.21087 0
M  V30 6573 C 643.406 -0.800106 -1.41552 0
M  V30 6574 O 644.59 -1.05572 -1.56162 0
M  V30 6575 C 641.717 -2.20639 -2.56975 0
M  V30 6576 C 640.763 -3.43279 -2.53104 0
M  V30 6577 S 641.596 -4.96836 -1.99786 0
M  V30 6578 C 642.752 -5.27172 -3.37403 0
M  V30 6579 H 642.985 -2.8337 -0.899378 0
M  V30 6580 H 640.518 -1.50322 -0.352494 0
M  V30 6581 H 642.476 -2.36998 -3.35175 0
M  V30 6582 H 641.137 -1.31357 -2.85314 0
M  V30 6583 H 640.33 -3.59599 -3.53136 0
M  V30 6584 H 639.932 -3.26163 -1.83012 0
M  V30 6585 H 642.224 -5.20647 -4.33513 0
M  V30 6586 H 643.167 -6.28626 -3.25937 0
M  V30 6587 H 643.575 -4.54687 -3.34544 0
M  V30 6588 N 642.974 0.416227 -1.52004 0
M  V30 6589 C 643.937 1.48926 -1.74223 0
M  V30 6590 C 644.937 1.48693 -0.612119 0
M  V30 6591 O 646.127 1.50343 -0.879921 0
M  V30 6592 C 643.259 2.88372 -1.81809 0
M  V30 6593 H 644.452 1.3052 -2.70008 0
M  V30 6594 H 642.005 0.646271 -1.42313 0
M  V30 6595 H 642.74 3.12157 -0.879135 0
M  V30 6596 H 642.525 2.89944 -2.6396 0
M  V30 6597 H 644.015 3.66173 -2.00766 0
M  V30 6598 N 644.452 1.42507 0.673017 0
M  V30 6599 C 645.7 1.42789 1.43023 0
M  V30 6600 C 646.021 0.0459738 1.94946 0
M  V30 6601 O 645.291 -0.915765 1.73178 0
M  V30 6602 H 643.871 0.525657 0.530748 0
M  V30 6603 H 646.533 1.77944 0.795113 0
M  V30 6604 H 645.629 2.12872 2.28237 0
M  V30 6605 N 645.93 -0.909495 1.28709 0
M  V30 6606 C 647.155 -1.69801 1.1909 0
M  V30 6607 C 647.58 -1.86479 -0.246388 0
M  V30 6608 O 646.938 -1.37802 -1.17815 0
M  V30 6609 C 646.986 -3.06543 1.89904 0
M  V30 6610 O 646.09 -3.94268 1.2094 0
M  V30 6611 H 645.431 -0.519783 0.413185 0
M  V30 6612 H 647.961 -1.13689 1.70106 0
M  V30 6613 H 647.971 -3.56748 1.97977 0
M  V30 6614 H 646.646 -2.93722 2.94449 0
M  V30 6615 H 645.223 -3.52702 1.2106 0
M  V30 6616 N 647.408 -1.11026 -1.11852 0
M  V30 6617 C 648.356 -0.759643 -2.19846 0
M  V30 6618 C 649.35 0.246964 -1.6759 0
M  V30 6619 O 650.556 0.106693 -1.79684 0
M  V30 6620 H 646.931 -0.22775 -0.716683 0
M  V30 6621 H 648.902 -1.6792 -2.46669 0
M  V30 6622 C 647.651 -0.214364 -3.47039 0
M  V30 6623 H 646.974 -0.980175 -3.87599 0
M  V30 6624 H 648.414 -0.00717047 -4.23999 0
M  V30 6625 C 646.873 1.05436 -3.19976 0
M  V30 6626 O 647.403 2.13483 -3.40276 0
M  V30 6627 N 645.609 0.975436 -2.7374 0
M  V30 6628 H 645.156 0.0960853 -2.57421 0
M  V30 6629 H 645.114 1.82501 -2.5601 0
M  V30 6630 N 648.886 1.2938 -0.899927 0
M  V30 6631 C 650.302 1.48052 -0.596059 0
M  V30 6632 C 650.502 1.82114 0.862372 0
M  V30 6633 O 649.558 1.91774 1.64253 0
M  V30 6634 C 650.871 2.59332 -1.52208 0
M  V30 6635 C 652.419 2.73208 -1.5273 0
M  V30 6636 C 652.894 3.87617 -2.43961 0
M  V30 6637 N 654.385 3.9495 -2.42009 0
M  V30 6638 C 655.12 4.82824 -3.09303 0
M  V30 6639 N 654.616 5.75387 -3.85877 0
M  V30 6640 N 656.409 4.76317 -2.98459 0
M  V30 6641 H 648.56 1.05546 -1.8432 0
M  V30 6642 H 650.823 0.524314 -0.78981 0
M  V30 6643 H 650.529 2.41029 -2.56121 0
M  V30 6644 H 650.403 3.56139 -1.24278 0
M  V30 6645 H 652.79 2.90908 -0.495614 0
M  V30 6646 H 652.871 1.76975 -1.84698 0
M  V30 6647 H 652.515 3.70672 -3.47224 0
M  V30 6648 H 652.445 4.83218 -2.09303 0
M  V30 6649 H 654.936 3.28744 -1.86375 0
M  V30 6650 H 655.249 6.39235 -4.34279 0
M  V30 6651 H 653.594 5.75272 -3.89984 0
M  V30 6652 H 656.785 4.0299 -2.38152 0
M  V30 6653 H 656.958 5.44589 -3.51179 0
M  V30 6654 N 650.364 0.662433 1.43002 0
M  V30 6655 C 651.589 0.186003 2.06564 0
M  V30 6656 C 652.014 -1.14314 1.49379 0
M  V30 6657 O 651.372 -1.70824 0.607346 0
M  V30 6658 C 651.42 0.118269 3.60406 0
M  V30 6659 O 650.524 -0.916859 4.02079 0
M  V30 6660 H 649.865 0.0990981 0.656563 0
M  V30 6661 H 652.395 0.907958 1.8335 0
M  V30 6662 H 652.405 -0.0619981 4.07953 0
M  V30 6663 H 651.08 1.08849 4.01403 0
M  V30 6664 H 649.657 -0.708635 3.66105 0
M  V30 6665 N 651.842 -1.52309 0.404946 0
M  V30 6666 C 653.09 -2.01368 -0.17186 0
M  V30 6667 C 653.411 -1.29261 -1.46002 0
M  V30 6668 O 652.681 -0.41729 -1.91404 0
M  V30 6669 H 651.261 -0.744034 -0.0664993 0
M  V30 6670 H 653.923 -1.87263 0.540228 0
M  V30 6671 H 653.019 -3.09888 -0.370957 0
M  V30 6672 N 653.32 -0.135238 -1.57019 0
M  V30 6673 C 654.597 0.563227 -1.87316 0
M  V30 6674 C 654.977 1.83749 -1.03921 0
M  V30 6675 O 654.325 2.2817 -0.122675 0
M  V30 6676 C 654.535 0.840031 -3.3874 0
M  V30 6677 C 655.883 1.18598 -4.077 0
M  V30 6678 O 656.907 0.92977 -3.43851 0
M  V30 6679 O 655.766 1.66758 -5.20436 0
M  V30 6680 H 652.86 0.285971 -0.775983 0
M  V30 6681 H 655.406 -0.170965 -1.68837 0
M  V30 6682 H 654.178 -0.0622785 -3.9125 0
M  V30 6683 H 653.801 1.62882 -3.62706 0
M  V30 6684 N 654.798 1.5699 0.138552 0
M  V30 6685 C 655.728 2.01933 1.17241 0
M  V30 6686 C 656.709 0.90033 1.44319 0
M  V30 6687 O 657.894 1.16872 1.55095 0
M  V30 6688 C 655.024 2.40711 2.50351 0
M  V30 6689 C 653.978 3.55874 2.37776 0
M  V30 6690 C 653.304 3.80491 3.75674 0
M  V30 6691 C 654.604 4.8826 1.85472 0
M  V30 6692 H 656.298 2.88551 0.798672 0
M  V30 6693 H 653.844 1.3882 0.382743 0
M  V30 6694 H 655.797 2.70754 3.22909 0
M  V30 6695 H 654.521 1.5104 2.89576 0
M  V30 6696 H 653.18 3.2601 1.67669 0
M  V30 6697 H 652.828 2.88057 4.12349 0
M  V30 6698 H 652.528 4.57998 3.68119 0
M  V30 6699 H 654.052 4.12967 4.49767 0
M  V30 6700 H 655.466 5.16965 2.4783 0
M  V30 6701 H 653.863 5.69631 1.88787 0
M  V30 6702 H 654.933 4.78071 0.810935 0
M  V30 6703 N 656.276 -0.40816 1.52223 0
M  V30 6704 C 657.692 -0.74685 1.41047 0
M  V30 6705 C 657.892 -1.94788 0.51573 0
M  V30 6706 O 656.948 -2.52494 -0.0181156 0
M  V30 6707 C 658.261 -0.999878 2.83589 0
M  V30 6708 C 659.809 -1.10253 2.92939 0
M  V30 6709 C 660.284 -1.38832 4.36451 0
M  V30 6710 N 661.775 -1.45694 4.3969 0
M  V30 6711 C 662.51 -1.69435 5.47795 0
M  V30 6712 N 662.006 -1.90774 6.66016 0
M  V30 6713 N 663.799 -1.71458 5.35312 0
M  V30 6714 H 655.95 0.382409 2.08929 0
M  V30 6715 H 658.213 0.108807 0.941735 0
M  V30 6716 H 657.919 -0.189723 3.51188 0
M  V30 6717 H 657.793 -1.91978 3.24691 0
M  V30 6718 H 660.18 -1.90328 2.2552 0
M  V30 6719 H 660.261 -0.160973 2.55293 0
M  V30 6720 H 659.905 -0.592741 5.04429 0
M  V30 6721 H 659.835 -2.34241 4.71634 0
M  V30 6722 H 662.326 -1.3099 3.54472 0
M  V30 6723 H 662.639 -2.08342 7.44186 0
M  V30 6724 H 660.984 -1.88037 6.69079 0
M  V30 6725 H 664.175 -1.54326 4.41929 0
M  V30 6726 H 664.348 -1.89621 6.19635 0
M  V30 6727 N 657.755 -1.42862 -0.66545 0
M  V30 6728 C 659.032 -1.3431 -1.42197 0
M  V30 6729 C 659.412 0.0150265 -2.11095 0
M  V30 6730 O 658.76 1.03101 -2.03918 0
M  V30 6731 C 658.97 -2.51783 -2.41674 0
M  V30 6732 C 660.318 -2.94321 -3.0604 0
M  V30 6733 O 661.342 -2.51741 -2.52001 0
M  V30 6734 O 660.201 -3.68047 -4.03985 0
M  V30 6735 H 657.295 -0.530159 -0.634713 0
M  V30 6736 H 659.841 -1.54888 -0.693386 0
M  V30 6737 H 658.613 -3.42282 -1.89627 0
M  V30 6738 H 658.236 -2.33241 -3.22001 0
M  V30 6739 N 659.233 0.902656 -1.29189 0
M  V30 6740 C 660.196 1.98797 -1.14071 0
M  V30 6741 C 661.196 1.60615 -0.0770549 0
M  V30 6742 O 662.386 1.71165 -0.323753 0
M  V30 6743 C 659.518 3.32688 -0.743739 0
M  V30 6744 H 660.711 2.13637 -2.10473 0
M  V30 6745 H 658.264 1.08678 -1.12334 0
M  V30 6746 H 658.999 3.23549 0.220554 0
M  V30 6747 H 658.784 3.61765 -1.51223 0
M  V30 6748 H 660.274 4.12337 -0.660935 0
M  V30 6749 N 660.711 1.11618 1.11262 0
M  V30 6750 C 661.643 0.734015 2.17129 0
M  V30 6751 C 662.656 -0.235243 1.61091 0
M  V30 6752 O 663.845 -0.0178597 1.78491 0
M  V30 6753 C 660.945 0.0643682 3.38839 0
M  V30 6754 C 660.118 1.06092 4.24339 0
M  V30 6755 C 659.177 0.420482 5.24517 0
M  V30 6756 O 658.203 1.07495 5.58957 0
M  V30 6757 N 659.405 -0.815828 5.74739 0
M  V30 6758 H 662.17 1.64492 2.50524 0
M  V30 6759 H 659.731 1.00664 1.26801 0
M  V30 6760 H 661.723 -0.375851 4.02951 0
M  V30 6761 H 660.293 -0.749147 3.03491 0
M  V30 6762 H 659.513 1.67903 3.56654 0
M  V30 6763 H 660.801 1.73507 4.78302 0
M  V30 6764 H 660.199 -1.36668 5.48943 0
M  V30 6765 H 658.756 -1.199 6.40677 0
M  V30 6766 N 662.189 -1.289 0.906776 0
M  V30 6767 C 663.136 -2.2751 0.388313 0
M  V30 6768 C 664.106 -1.57301 -0.533439 0
M  V30 6769 O 665.291 -1.85243 -0.457148 0
M  V30 6770 C 662.431 -3.43091 -0.37181 0
M  V30 6771 C 661.544 -4.28066 0.581647 0
M  V30 6772 C 660.679 -5.30837 -0.19623 0
M  V30 6773 C 659.718 -6.07472 0.751294 0
M  V30 6774 N 658.855 -7.021 0.00737727 0
M  V30 6775 H 663.695 -2.71237 1.23428 0
M  V30 6776 H 661.232 -1.33397 0.619962 0
M  V30 6777 H 663.19 -4.08888 -0.828641 0
M  V30 6778 H 661.82 -3.00374 -1.18218 0
M  V30 6779 H 660.872 -3.62378 1.157 0
M  V30 6780 H 662.184 -4.81382 1.30665 0
M  V30 6781 H 661.338 -6.02485 -0.71394 0
M  V30 6782 H 660.077 -4.78272 -0.954324 0
M  V30 6783 H 659.082 -5.34682 1.28044 0
M  V30 6784 H 660.307 -6.62126 1.50883 0
M  V30 6785 H 658.253 -6.51894 -0.732854 0
M  V30 6786 H 658.17 -7.53004 0.672334 0
M  V30 6787 H 659.438 -7.77956 -0.490365 0
M  V30 6788 N 663.667 -0.670007 -1.42649 0
M  V30 6789 C 664.892 -0.196955 -2.06463 0
M  V30 6790 C 665.317 1.1352 -1.49983 0
M  V30 6791 O 664.675 1.705 -0.616397 0
M  V30 6792 C 664.723 -0.137381 -3.60338 0
M  V30 6793 O 663.827 0.895523 -4.02559 0
M  V30 6794 H 663.168 -0.102579 -0.656029 0
M  V30 6795 H 665.698 -0.917669 -1.82866 0
M  V30 6796 H 665.708 0.0403625 -4.0798 0
M  V30 6797 H 664.383 -1.10977 -4.0082 0
M  V30 6798 H 662.96 0.689209 -3.66476 0
M  V30 6799 N 665.145 1.52092 -0.413018 0
M  V30 6800 C 666.394 2.01041 0.16287 0
M  V30 6801 C 666.707 1.30288 1.45892 0
M  V30 6802 O 667.913 1.70075 2.11629 0
M  V30 6803 C 666.369 3.58283 0.340806 0
M  V30 6804 C 665.977 4.37955 -0.943377 0
M  V30 6805 C 667.721 4.15452 0.871774 0
M  V30 6806 C 665.628 5.86847 -0.732417 0
M  V30 6807 H 664.558 0.751224 0.0646414 0
M  V30 6808 H 667.209 1.75404 -0.539059 0
M  V30 6809 H 665.591 3.80266 1.10516 0
M  V30 6810 H 666.765 4.2773 -1.71418 0
M  V30 6811 H 665.08 3.92122 -1.40105 0
M  V30 6812 H 667.677 5.24375 1.0457 0
M  V30 6813 H 668.02 3.73057 1.84755 0
M  V30 6814 H 668.553 3.97452 0.166377 0
M  V30 6815 H 665.292 6.33609 -1.67986 0
M  V30 6816 H 664.812 5.998 -0.000980058 0
M  V30 6817 H 666.491 6.45906 -0.376105 0
M  V30 6818 N 666.623 0.143563 1.56945 0
M  V30 6819 C 668.034 -0.37783 1.82837 0
M  V30 6820 C 668.385 -1.64967 1.06209 0
M  V30 6821 O 667.51 -2.14221 0.306291 0
M  V30 6822 C 668.105 -0.692274 3.31652 0
M  V30 6823 C 666.664 -1.1582 3.58138 0
M  V30 6824 C 665.811 -0.17951 2.76718 0
M  V30 6825 H 668.762 0.368317 1.54367 0
M  V30 6826 H 668.783 -1.54729 3.47619 0
M  V30 6827 H 668.295 0.233572 3.87397 0
M  V30 6828 H 666.396 -2.10011 3.07776 0
M  V30 6829 H 666.509 -1.08655 4.66616 0
M  V30 6830 H 664.873 -0.671458 2.4569 0
M  V30 6831 H 665.656 0.739865 3.35233 0
M  V30 6832 N 668.101 -1.57061 -0.130224 0
M  V30 6833 C 669.347 -1.8453 -0.841216 0
M  V30 6834 C 669.68 -0.727666 -1.80052 0
M  V30 6835 O 668.955 0.267419 -1.92653 0
M  V30 6836 C 669.238 -3.22553 -1.60099 0
M  V30 6837 C 669.091 -4.44901 -0.662048 0
M  V30 6838 C 670.41 -3.58003 -2.55973 0
M  V30 6839 H 667.529 -0.671215 -0.304366 0
M  V30 6840 H 670.171 -1.89705 -0.105821 0
M  V30 6841 H 668.321 -3.18272 -2.22789 0
M  V30 6842 H 669.993 -4.61278 -0.0448559 0
M  V30 6843 H 668.236 -4.33791 0.0272253 0
M  V30 6844 H 668.907 -5.3812 -1.23006 0
M  V30 6845 H 671.383 -3.63002 -2.03393 0
M  V30 6846 H 670.259 -4.55576 -3.06172 0
M  V30 6847 H 670.52 -2.84833 -3.38116 0
M  V30 6848 N 669.579 0.400081 -1.52437 0
M  V30 6849 C 670.827 1.14392 -1.6661 0
M  V30 6850 C 671.148 1.90792 -0.402927 0
M  V30 6851 O 670.418 1.87042 0.582425 0
M  V30 6852 H 668.998 0.425275 -0.614125 0
M  V30 6853 H 671.66 0.455076 -1.89513 0
M  V30 6854 H 670.756 1.85298 -2.51139 0
M  V30 6855 N 671.057 1.43213 0.657864 0
M  V30 6856 C 672.285 1.48015 1.44566 0
M  V30 6857 C 672.7 0.0965951 1.88553 0
M  V30 6858 O 672.057 -0.892221 1.59203 0
M  V30 6859 C 672.108 2.42199 2.68369 0
M  V30 6860 O 671.829 3.75173 2.26223 0
M  V30 6861 C 673.33 2.56195 3.61772 0
M  V30 6862 H 670.55 0.502861 0.444266 0
M  V30 6863 H 673.094 1.87907 0.806917 0
M  V30 6864 H 671.249 2.05514 3.28394 0
M  V30 6865 H 671.663 4.25776 3.06293 0
M  V30 6866 H 673.137 3.26182 4.4532 0
M  V30 6867 H 673.614 1.60534 4.0881 0
M  V30 6868 H 674.22 2.93671 3.07632 0
M  V30 6869 N 672.536 -0.895792 1.29666 0
M  V30 6870 C 673.785 -1.64131 1.17234 0
M  V30 6871 C 674.098 -1.93665 -0.274416 0
M  V30 6872 O 675.304 -2.66472 -0.520105 0
M  V30 6873 C 673.76 -2.95764 2.05065 0
M  V30 6874 C 673.368 -2.7381 3.54587 0
M  V30 6875 C 675.112 -3.737 2.01367 0
M  V30 6876 C 673.019 -4.01194 4.34508 0
M  V30 6877 H 671.949 -0.615742 0.435175 0
M  V30 6878 H 674.6 -0.992626 1.54335 0
M  V30 6879 H 672.982 -3.61867 1.60837 0
M  V30 6880 H 674.156 -2.16277 4.06892 0
M  V30 6881 H 672.471 -2.09265 3.59996 0
M  V30 6882 H 675.068 -4.68152 2.58337 0
M  V30 6883 H 675.411 -4.04245 0.994575 0
M  V30 6884 H 675.944 -3.14444 2.43659 0
M  V30 6885 H 672.683 -3.75813 5.37071 0
M  V30 6886 H 672.203 -4.58272 3.86971 0
M  V30 6887 H 673.882 -4.69307 4.45376 0
M  V30 6888 N 674.014 -1.12206 -1.10668 0
M  V30 6889 C 674.944 -0.810086 -2.18997 0
M  V30 6890 C 675.925 0.225065 -1.68604 0
M  V30 6891 O 677.11 0.086783 -1.94006 0
M  V30 6892 C 674.24 -0.261262 -3.46316 0
M  V30 6893 C 673.194 -1.2292 -4.09969 0
M  V30 6894 C 672.52 -0.540713 -5.31959 0
M  V30 6895 C 673.82 -2.58295 -4.53962 0
M  V30 6896 H 675.514 -1.7159 -2.45352 0
M  V30 6897 H 673.06 -0.82646 -1.17922 0
M  V30 6898 H 675.013 -0.0307522 -4.21389 0
M  V30 6899 H 673.737 0.679879 -3.19445 0
M  V30 6900 H 672.396 -1.44548 -3.369 0
M  V30 6901 H 672.044 0.405492 -5.01363 0
M  V30 6902 H 671.744 -1.18637 -5.75499 0
M  V30 6903 H 673.268 -0.319184 -6.09765 0
M  V30 6904 H 674.682 -2.40709 -5.20319 0
M  V30 6905 H 673.079 -3.18916 -5.08343 0
M  V30 6906 H 674.149 -3.16918 -3.67002 0
M  V30 6907 N 675.492 1.28418 -0.913599 0
M  V30 6908 C 676.455 2.25564 -0.406624 0
M  V30 6909 C 677.455 1.5387 0.466965 0
M  V30 6910 O 678.645 1.72094 0.270042 0
M  V30 6911 C 675.777 3.38339 0.417053 0
M  V30 6912 H 676.97 2.71926 -1.26477 0
M  V30 6913 H 674.523 1.40098 -0.692986 0
M  V30 6914 H 675.258 2.97339 1.29461 0
M  V30 6915 H 675.043 3.91542 -0.209102 0
M  V30 6916 H 676.533 4.10578 0.762602 0
M  V30 6917 N 676.97 0.677563 1.42291 0
M  V30 6918 C 678.219 0.198173 2.00724 0
M  V30 6919 C 678.532 -1.20325 1.54211 0
M  V30 6920 O 679.738 -1.77916 2.05081 0
M  V30 6921 C 678.194 0.303432 3.58619 0
M  V30 6922 C 677.802 1.70909 4.14119 0
M  V30 6923 C 679.546 -0.117103 4.24338 0
M  V30 6924 C 677.453 1.76696 5.64387 0
M  V30 6925 H 676.383 0.070329 0.750713 0
M  V30 6926 H 679.034 0.843147 1.62982 0
M  V30 6927 H 677.416 -0.409482 3.93877 0
M  V30 6928 H 678.59 2.44931 3.90315 0
M  V30 6929 H 676.905 2.07771 3.6086 0
M  V30 6930 H 679.502 -0.0940471 5.34617 0
M  V30 6931 H 679.845 -1.15283 4.00019 0
M  V30 6932 H 680.378 0.5449 3.9405 0
M  V30 6933 H 677.117 2.7826 5.93508 0
M  V30 6934 H 676.637 1.07034 5.90173 0
M  V30 6935 H 678.316 1.52166 6.28852 0
M  V30 6936 N 678.448 -1.51871 0.421078 0
M  V30 6937 C 679.697 -2.01125 -0.152206 0
M  V30 6938 C 680.01 -1.3106 -1.45199 0
M  V30 6939 O 681.216 -1.71195 -2.10724 0
M  V30 6940 C 679.672 -3.58458 -0.3218 0
M  V30 6941 C 679.28 -4.37448 0.96659 0
M  V30 6942 C 681.024 -4.15908 -0.84973 0
M  V30 6943 C 678.931 -5.86451 0.763529 0
M  V30 6944 H 677.861 -0.751556 -0.0606565 0
M  V30 6945 H 680.512 -1.75115 0.548354 0
M  V30 6946 H 678.894 -3.80847 -1.08498 0
M  V30 6947 H 680.068 -4.26814 1.73684 0
M  V30 6948 H 678.383 -3.91373 1.42183 0
M  V30 6949 H 680.98 -5.24922 -1.01788 0
M  V30 6950 H 681.323 -3.74031 -1.82774 0
M  V30 6951 H 681.856 -3.97535 -0.145297 0
M  V30 6952 H 678.595 -6.3271 1.71344 0
M  V30 6953 H 678.115 -5.99791 0.0327889 0
M  V30 6954 H 679.794 -6.45697 0.410354 0
M  V30 6955 N 679.926 -0.151884 -1.56866 0
M  V30 6956 C 681.154 0.504813 -2.00647 0
M  V30 6957 C 681.569 1.58098 -1.03201 0
M  V30 6958 O 680.926 1.82476 -0.0297814 0
M  V30 6959 C 680.977 1.10099 -3.44326 0
M  V30 6960 O 680.698 0.0678021 -4.38048 0
M  V30 6961 C 682.199 1.83782 -4.03409 0
M  V30 6962 H 679.419 0.130989 -0.65809 0
M  V30 6963 H 681.963 -0.247903 -2.02992 0
M  V30 6964 H 680.118 1.8043 -3.42817 0
M  V30 6965 H 680.532 0.505237 -5.22061 0
M  V30 6966 H 682.006 2.2078 -5.05925 0
M  V30 6967 H 682.483 2.72557 -3.44397 0
M  V30 6968 H 683.089 1.18138 -4.08563 0
M  V30 6969 N 681.404 1.57128 0.121893 0
M  V30 6970 C 682.632 1.88883 0.844451 0
M  V30 6971 C 683.047 0.742824 1.73573 0
M  V30 6972 O 682.404 -0.286475 1.80238 0
M  V30 6973 C 682.455 3.20076 1.68029 0
M  V30 6974 O 682.176 4.30264 0.824898 0
M  V30 6975 C 683.677 3.65515 2.50826 0
M  V30 6976 H 680.897 0.62549 0.242907 0
M  V30 6977 H 683.441 2.04219 0.107151 0
M  V30 6978 H 681.596 3.06418 2.37038 0
M  V30 6979 H 682.01 5.05439 1.40113 0
M  V30 6980 H 683.484 4.60081 3.05008 0
M  V30 6981 H 683.961 2.92029 3.28048 0
M  V30 6982 H 684.567 3.81952 1.87064 0
M  V30 6983 N 682.882 -0.391992 1.52647 0
M  V30 6984 C 684.107 -1.16312 1.71716 0
M  V30 6985 C 684.532 -1.83042 0.433279 0
M  V30 6986 O 683.89 -1.70705 -0.610707 0
M  V30 6987 C 683.938 -2.18908 2.86551 0
M  V30 6988 O 683.042 -3.2543 2.53316 0
M  V30 6989 H 682.383 -0.338743 0.571095 0
M  V30 6990 H 684.913 -0.457202 1.99426 0
M  V30 6991 H 684.923 -2.62954 3.1196 0
M  V30 6992 H 683.598 -1.69726 3.79692 0
M  V30 6993 H 682.175 -2.86543 2.38637 0
M  V30 6994 N 684.36 -1.4356 -0.65026 0
M  V30 6995 C 685.29 -1.51758 -1.77459 0
M  V30 6996 C 686.271 -0.372019 -1.65982 0
M  V30 6997 O 687.456 -0.589627 -1.85033 0
M  V30 6998 C 684.586 -1.44302 -3.15902 0
M  V30 6999 C 683.54 -2.57138 -3.42146 0
M  V30 7000 C 682.866 -2.34735 -4.8042 0
M  V30 7001 C 684.166 -3.99373 -3.36598 0
M  V30 7002 H 685.86 -2.45863 -1.70855 0
M  V30 7003 H 683.406 -1.18333 -0.820566 0
M  V30 7004 H 685.359 -1.48641 -3.94314 0
M  V30 7005 H 684.083 -0.467026 -3.23244 0
M  V30 7006 H 682.742 -2.52157 -2.66106 0
M  V30 7007 H 682.39 -1.35372 -4.84441 0
M  V30 7008 H 682.09 -3.10375 -4.9894 0
M  V30 7009 H 683.614 -2.40862 -5.61086 0
M  V30 7010 H 685.028 -4.05826 -4.04942 0
M  V30 7011 H 683.425 -4.75063 -3.66654 0
M  V30 7012 H 684.495 -4.243 -2.34729 0
M  V30 7013 N 685.838 0.888903 -1.30139 0
M  V30 7014 C 687.084 1.6428 -1.18912 0
M  V30 7015 C 687.417 1.92499 0.256477 0
M  V30 7016 O 686.692 1.54312 1.18397 0
M  V30 7017 C 686.975 2.9851 -2.01405 0
M  V30 7018 C 686.828 2.77288 -3.54163 0
M  V30 7019 C 688.147 3.99383 -1.84882 0
M  V30 7020 H 685.266 0.596148 -0.433333 0
M  V30 7021 H 687.908 1.0289 -1.5973 0
M  V30 7022 H 686.058 3.50907 -1.66722 0
M  V30 7023 H 687.73 2.31709 -3.98884 0
M  V30 7024 H 685.973 2.11867 -3.78543 0
M  V30 7025 H 686.644 3.72717 -4.07168 0
M  V30 7026 H 689.12 3.56132 -2.15196 0
M  V30 7027 H 687.996 4.91222 -2.44934 0
M  V30 7028 H 688.257 4.34674 -0.806902 0
M  V30 7029 N 687.317 1.12792 1.10072 0
M  V30 7030 C 688.547 0.907189 1.85617 0
M  V30 7031 C 688.955 -0.547181 1.81115 0
M  V30 7032 O 688.298 -1.39024 1.20075 0
M  V30 7033 C 688.36 1.30872 3.34832 0
M  V30 7034 C 688.024 2.77516 3.6309 0
M  V30 7035 C 689.021 3.75696 3.59373 0
M  V30 7036 C 686.706 3.14513 3.91646 0
M  V30 7037 C 688.7 5.08888 3.83812 0
M  V30 7038 C 686.387 4.47886 4.15742 0
M  V30 7039 C 687.385 5.44882 4.11816 0
M  V30 7040 O 687.073 6.7585 4.35295 0
M  V30 7041 H 686.805 0.323855 0.593375 0
M  V30 7042 H 689.359 1.50262 1.40038 0
M  V30 7043 H 687.589 0.656518 3.81086 0
M  V30 7044 H 689.278 1.06153 3.91773 0
M  V30 7045 H 690.044 3.48458 3.37345 0
M  V30 7046 H 685.923 2.39622 3.93831 0
M  V30 7047 H 689.467 5.84586 3.80663 0
M  V30 7048 H 685.364 4.74851 4.37249 0
M  V30 7049 H 686.132 6.81853 4.52791 0
M  V30 7050 N 688.795 -1.27931 0.920396 0
M  V30 7051 C 690.042 -1.94689 0.557007 0
M  V30 7052 C 690.37 -1.724 -0.900476 0
M  V30 7053 O 689.625 -1.04194 -1.65657 0
M  V30 7054 C 689.924 -3.47853 0.820558 0
M  V30 7055 C 689.59 -3.90252 2.25863 0
M  V30 7056 C 688.252 -4.01539 2.65179 0
M  V30 7057 C 690.604 -4.11853 3.19415 0
M  V30 7058 C 687.932 -4.3181 3.97187 0
M  V30 7059 C 690.284 -4.43606 4.50995 0
M  V30 7060 C 688.948 -4.53105 4.90155 0
M  V30 7061 H 688.218 -0.712416 0.203823 0
M  V30 7062 H 690.865 -1.52142 1.16298 0
M  V30 7063 H 689.17 -3.91578 0.131844 0
M  V30 7064 H 690.867 -3.97634 0.51847 0
M  V30 7065 H 687.457 -3.81999 1.94358 0
M  V30 7066 H 691.641 -4.0258 2.90246 0
M  V30 7067 H 686.897 -4.37371 4.2722 0
M  V30 7068 H 691.071 -4.59268 5.23494 0
M  V30 7069 H 688.698 -4.76315 5.92476 0
M  V30 7070 N 690.273 -0.685099 -1.4193 0
M  V30 7071 C 691.498 -0.218842 -2.06242 0
M  V30 7072 C 691.923 1.11923 -1.51178 0
M  V30 7073 O 691.281 1.69837 -0.634446 0
M  V30 7074 C 691.329 -0.175592 -3.60172 0
M  V30 7075 O 690.433 0.852776 -4.03487 0
M  V30 7076 H 689.774 -0.109531 -0.654904 0
M  V30 7077 H 692.304 -0.937013 -1.81882 0
M  V30 7078 H 692.314 -0.00291151 -4.08 0
M  V30 7079 H 690.989 -1.15222 -3.99621 0
M  V30 7080 H 689.566 0.650301 -3.67186 0
M  V30 7081 N 691.751 1.51645 -0.429126 0
M  V30 7082 C 692.976 2.06917 0.141399 0
M  V30 7083 C 693.401 1.29527 1.36398 0
M  V30 7084 O 692.759 0.33094 1.78254 0
M  V30 7085 C 692.807 3.57776 0.4504 0
M  V30 7086 O 691.911 3.82639 1.53821 0
M  V30 7087 H 691.252 0.663978 0.0054647 0
M  V30 7088 H 693.782 1.95355 -0.608093 0
M  V30 7089 H 693.792 4.01894 0.703249 0
M  V30 7090 H 692.467 4.13532 -0.443213 0
M  V30 7091 H 691.044 3.5039 1.27597 0
M  V30 7092 N 693.229 0.160201 1.56784 0
M  V30 7093 C 694.475 -0.48831 1.96833 0
M  V30 7094 C 694.808 -1.63641 1.04571 0
M  V30 7095 O 694.083 -1.94289 0.0906481 0
M  V30 7096 C 694.366 -0.981908 3.46454 0
M  V30 7097 C 694.219 0.165607 4.49495 0
M  V30 7098 C 695.538 -1.85931 3.98896 0
M  V30 7099 H 692.657 -0.176027 0.71567 0
M  V30 7100 H 695.299 0.244093 1.88426 0
M  V30 7101 H 693.449 -1.60602 3.5375 0
M  V30 7102 H 695.121 0.802372 4.54268 0
M  V30 7103 H 693.364 0.822789 4.25926 0
M  V30 7104 H 694.035 -0.221699 5.51555 0
M  V30 7105 H 696.511 -1.33327 3.94161 0
M  V30 7106 H 695.387 -2.17373 5.04024 0
M  V30 7107 H 695.648 -2.80106 3.42042 0
M  V30 7108 N 694.707 -1.5719 -0.113559 0
M  V30 7109 C 695.953 -1.85412 -0.821597 0
M  V30 7110 C 696.286 -0.746722 -1.7927 0
M  V30 7111 O 695.561 0.246971 -1.92926 0
M  V30 7112 C 695.844 -3.24233 -1.56669 0
M  V30 7113 C 695.697 -4.45578 -0.614823 0
M  V30 7114 C 697.016 -3.60697 -2.52161 0
M  V30 7115 H 694.135 -0.674406 -0.29723 0
M  V30 7116 H 696.777 -1.89807 -0.085694 0
M  V30 7117 H 694.927 -3.20617 -2.19401 0
M  V30 7118 H 696.599 -4.613 0.00407137 0
M  V30 7119 H 694.842 -4.33738 0.0732332 0
M  V30 7120 H 695.513 -5.39395 -1.17292 0
M  V30 7121 H 697.989 -3.65139 -1.99532 0
M  V30 7122 H 696.865 -4.58798 -3.01323 0
M  V30 7123 H 697.126 -2.88403 -3.35076 0
M  V30 7124 N 696.185 0.383891 -1.52853 0
M  V30 7125 C 697.115 1.47559 -1.80965 0
M  V30 7126 C 698.096 1.5669 -0.661986 0
M  V30 7127 O 699.281 1.71556 -0.910072 0
M  V30 7128 C 696.411 2.85114 -1.98312 0
M  V30 7129 C 695.365 2.9082 -3.14019 0
M  V30 7130 C 694.691 4.30873 -3.16627 0
M  V30 7131 C 695.991 2.60001 -4.52986 0
M  V30 7132 H 697.685 1.24283 -2.72386 0
M  V30 7133 H 695.231 0.596445 -1.31067 0
M  V30 7134 H 697.184 3.61496 -2.16561 0
M  V30 7135 H 695.908 3.09738 -1.03585 0
M  V30 7136 H 694.567 2.16886 -2.9556 0
M  V30 7137 H 694.215 4.52545 -2.19573 0
M  V30 7138 H 693.915 4.3561 -3.94357 0
M  V30 7139 H 695.439 5.09154 -3.37038 0
M  V30 7140 H 696.853 3.261 -4.71521 0
M  V30 7141 H 695.25 2.76081 -5.32822 0
M  V30 7142 H 696.32 1.5532 -4.59351 0
M  V30 7143 N 697.663 1.43903 0.642637 0
M  V30 7144 C 698.91 1.46079 1.40239 0
M  V30 7145 C 699.238 0.0890335 1.94296 0
M  V30 7146 O 698.493 -0.907533 1.73385 0
M  V30 7147 C 698.792 2.45907 2.59354 0
M  V30 7148 C 698.458 3.91522 2.23654 0
M  V30 7149 C 697.12 4.31179 2.1363 0
M  V30 7150 C 699.472 4.83242 1.95261 0
M  V30 7151 C 696.8 5.60495 1.73384 0
M  V30 7152 C 699.152 6.12933 1.56511 0
M  V30 7153 C 697.816 6.51556 1.4502 0
M  V30 7154 H 697.086 0.534542 0.513172 0
M  V30 7155 H 699.733 1.77047 0.72984 0
M  V30 7156 H 698.038 2.08381 3.3179 0
M  V30 7157 H 699.735 2.44842 3.17574 0
M  V30 7158 H 696.325 3.60142 2.32369 0
M  V30 7159 H 700.509 4.53367 2.0192 0
M  V30 7160 H 695.765 5.89249 1.63082 0
M  V30 7161 H 699.939 6.83469 1.33576 0
M  V30 7162 H 697.566 7.51663 1.13606 0
M  V30 7163 N 699.141 -0.881989 1.30609 0
M  V30 7164 C 700.389 -1.63082 1.19368 0
M  V30 7165 C 700.71 -1.93376 -0.251147 0
M  V30 7166 O 699.98 -1.5723 -1.16857 0
M  V30 7167 H 698.56 -0.604542 0.438791 0
M  V30 7168 H 701.222 -1.05658 1.63776 0
M  V30 7169 H 700.318 -2.57966 1.7567 0
M  V30 7170 N 700.619 -1.13374 -1.09472 0
M  V30 7171 C 701.582 -0.813639 -2.14272 0
M  V30 7172 C 702.582 0.176677 -1.59826 0
M  V30 7173 O 703.772 -0.0503441 -1.74127 0
M  V30 7174 C 700.904 -0.210897 -3.40247 0
M  V30 7175 H 702.097 -1.74229 -2.44099 0
M  V30 7176 H 699.65 -0.938304 -1.25002 0
M  V30 7177 H 700.385 0.726998 -3.16046 0
M  V30 7178 H 700.17 -0.924048 -3.81056 0
M  V30 7179 H 701.66 -0.00377603 -4.176 0
M  V30 7180 N 702.098 1.27442 -0.927168 0
M  V30 7181 C 703.338 1.96157 -0.574608 0
M  V30 7182 C 703.702 1.71265 0.867897 0
M  V30 7183 O 704.903 2.33664 1.3287 0
M  V30 7184 C 703.174 3.46115 -0.891009 0
M  V30 7185 S 704.733 4.34006 -0.646885 0
M  V30 7186 H 701.551 0.678619 -0.212125 0
M  V30 7187 H 704.153 1.54688 -1.19549 0
M  V30 7188 H 702.857 3.6173 -1.93854 0
M  V30 7189 H 702.388 3.92545 -0.259301 0
M  V30 7190 H 704.403 4.93719 0.495568 0
M  V30 7191 N 703.576 0.692616 1.41565 0
M  V30 7192 C 704.825 0.219452 2.00503 0
M  V30 7193 C 705.138 -1.18683 1.55479 0
M  V30 7194 O 706.344 -1.75731 2.06956 0
M  V30 7195 C 704.8 0.341451 3.58277 0
M  V30 7196 C 704.408 1.75291 4.12283 0
M  V30 7197 C 706.152 -0.0720899 4.24439 0
M  V30 7198 C 704.059 1.82673 5.62481 0
M  V30 7199 H 702.989 0.0782874 0.749925 0
M  V30 7200 H 705.64 0.860386 1.62079 0
M  V30 7201 H 704.022 -0.367683 3.94289 0
M  V30 7202 H 705.196 2.49057 3.87695 0
M  V30 7203 H 703.511 2.11587 3.58636 0
M  V30 7204 H 706.108 -0.0373385 5.34687 0
M  V30 7205 H 706.451 -1.11034 4.0122 0
M  V30 7206 H 706.984 0.586663 3.9345 0
M  V30 7207 H 703.723 2.84539 5.90523 0
M  V30 7208 H 703.243 1.13288 5.89004 0
M  V30 7209 H 704.922 1.58827 6.27203 0
M  V30 7210 N 705.054 -1.51416 0.437162 0
M  V30 7211 C 705.964 -2.31493 -0.380537 0
M  V30 7212 C 706.98 -1.40399 -1.02782 0
M  V30 7213 O 708.156 -1.73471 -1.02323 0
M  V30 7214 C 705.221 -3.1413 -1.46709 0
M  V30 7215 C 704.282 -4.21003 -0.839953 0
M  V30 7216 C 703.515 -4.9969 -1.87473 0
M  V30 7217 O 703.738 -4.79008 -3.09689 0
M  V30 7218 O 702.672 -5.8379 -1.46536 0
M  V30 7219 H 706.498 -3.02469 0.273183 0
M  V30 7220 H 704.083 -1.48059 0.199706 0
M  V30 7221 H 705.965 -3.65505 -2.09724 0
M  V30 7222 H 704.64 -2.45919 -2.10489 0
M  V30 7223 H 703.547 -3.73706 -0.171752 0
M  V30 7224 H 704.88 -4.91587 -0.245638 0
M  V30 7225 N 706.532 -0.168513 -1.56696 0
M  V30 7226 C 707.78 0.476216 -1.96409 0
M  V30 7227 C 708.101 1.63968 -1.05544 0
M  V30 7228 O 707.371 1.95525 -0.121235 0
M  V30 7229 H 705.951 0.178921 -0.725256 0
M  V30 7230 H 708.613 -0.249042 -1.93302 0
M  V30 7231 H 707.709 0.838094 -3.00637 0
M  V30 7232 N 708.01 1.57248 0.105221 0
M  V30 7233 C 709.256 1.85845 0.811753 0
M  V30 7234 C 709.589 0.756219 1.78871 0
M  V30 7235 O 708.864 -0.236736 1.93054 0
M  V30 7236 C 709.147 3.25059 1.54947 0
M  V30 7237 C 709 4.45898 0.591185 0
M  V30 7238 C 710.319 3.6203 2.50245 0
M  V30 7239 H 707.438 0.675973 0.293649 0
M  V30 7240 H 710.08 1.89849 0.0756269 0
M  V30 7241 H 708.23 3.21776 2.17698 0
M  V30 7242 H 709.902 4.61291 -0.0285352 0
M  V30 7243 H 708.145 4.33693 -0.0962343 0
M  V30 7244 H 708.816 5.40009 1.1443 0
M  V30 7245 H 711.292 3.66192 1.97593 0
M  V30 7246 H 710.168 4.60389 2.98886 0
M  V30 7247 H 710.429 2.90176 3.33542 0
M  V30 7248 N 709.488 -0.375779 1.53054 0
M  V30 7249 C 710.734 -1.12114 1.68992 0
M  V30 7250 C 711.067 -1.8926 0.435238 0
M  V30 7251 O 710.342 -1.86044 -0.567278 0
M  V30 7252 C 710.625 -2.08867 2.93337 0
M  V30 7253 C 710.478 -1.35397 4.28938 0
M  V30 7254 C 711.797 -3.09124 3.13257 0
M  V30 7255 H 708.916 -0.406207 0.614951 0
M  V30 7256 H 711.558 -0.403054 1.85676 0
M  V30 7257 H 709.708 -2.70102 2.79244 0
M  V30 7258 H 711.38 -0.770242 4.54824 0
M  V30 7259 H 709.623 -0.655801 4.28814 0
M  V30 7260 H 710.294 -2.06161 5.12056 0
M  V30 7261 H 712.77 -2.57987 3.26469 0
M  V30 7262 H 711.646 -3.74054 4.01715 0
M  V30 7263 H 711.907 -3.78729 2.28072 0
M  V30 7264 N 710.966 -1.44241 -0.634997 0
M  V30 7265 C 711.896 -1.53632 -1.7584 0
M  V30 7266 C 712.877 -0.389603 -1.65578 0
M  V30 7267 O 714.062 -0.609219 -1.84397 0
M  V30 7268 C 711.192 -1.47644 -3.14354 0
M  V30 7269 C 710.146 -2.60752 -3.394 0
M  V30 7270 C 709.472 -2.39817 -4.77904 0
M  V30 7271 C 710.772 -4.02921 -3.32343 0
M  V30 7272 H 712.466 -2.47662 -1.68238 0
M  V30 7273 H 710.012 -1.19197 -0.807969 0
M  V30 7274 H 711.965 -1.52815 -3.92716 0
M  V30 7275 H 710.689 -0.501284 -3.2273 0
M  V30 7276 H 709.348 -2.54965 -2.63417 0
M  V30 7277 H 708.996 -1.40502 -4.82978 0
M  V30 7278 H 708.696 -3.15649 -4.9562 0
M  V30 7279 H 710.22 -2.46799 -5.585 0
M  V30 7280 H 711.634 -4.10098 -4.00615 0
M  V30 7281 H 710.031 -4.78925 -3.61595 0
M  V30 7282 H 711.101 -4.26766 -2.30215 0
M  V30 7283 N 712.444 0.87505 -1.31075 0
M  V30 7284 C 713.86 1.15997 -1.09622 0
M  V30 7285 C 714.06 2.01036 0.136611 0
M  V30 7286 O 713.116 2.38559 0.827397 0
M  V30 7287 C 714.429 1.85702 -2.36506 0
M  V30 7288 C 715.977 1.98425 -2.42067 0
M  V30 7289 C 716.452 2.71544 -3.68819 0
M  V30 7290 N 717.943 2.79084 -3.69684 0
M  V30 7291 C 718.678 3.36259 -4.64454 0
M  V30 7292 N 718.174 3.94406 -5.69575 0
M  V30 7293 N 719.967 3.34169 -4.51982 0
M  V30 7294 H 712.118 0.308258 -2.10151 0
M  V30 7295 H 714.381 0.199145 -0.926847 0
M  V30 7296 H 714.087 1.30663 -3.26527 0
M  V30 7297 H 713.961 2.86017 -2.45915 0
M  V30 7298 H 716.348 2.5263 -1.52518 0
M  V30 7299 H 716.429 0.971682 -2.36626 0
M  V30 7300 H 716.073 2.18008 -4.58732 0
M  V30 7301 H 716.003 3.73198 -3.71525 0
M  V30 7302 H 718.494 2.3781 -2.93691 0
M  V30 7303 H 718.807 4.36129 -6.37974 0
M  V30 7304 H 717.152 3.92797 -5.73355 0
M  V30 7305 H 720.343 2.87977 -3.69035 0
M  V30 7306 H 720.516 3.78431 -5.26017 0
M  V30 7307 N 713.922 1.13953 1.08869 0
M  V30 7308 C 715.199 0.815768 1.77777 0
M  V30 7309 C 715.579 -0.691624 1.99449 0
M  V30 7310 O 714.927 -1.63085 1.60049 0
M  V30 7311 C 715.137 1.60916 3.09689 0
M  V30 7312 C 716.485 1.80549 3.84301 0
M  V30 7313 O 717.509 1.57562 3.19457 0
M  V30 7314 O 716.368 2.18946 5.00724 0
M  V30 7315 H 713.462 0.298445 0.771271 0
M  V30 7316 H 716.008 1.24446 1.15374 0
M  V30 7317 H 714.78 2.6333 2.89435 0
M  V30 7318 H 714.403 1.17578 3.79817 0
M  V30 7319 N 715.4 -1.26948 0.933913 0
M  V30 7320 C 716.347 -2.26635 0.436484 0
M  V30 7321 C 717.317 -1.58397 -0.499953 0
M  V30 7322 O 718.502 -1.86171 -0.417753 0
M  V30 7323 C 715.642 -3.43803 -0.298951 0
M  V30 7324 C 714.755 -4.26736 0.672316 0
M  V30 7325 C 713.89 -5.31134 -0.0835872 0
M  V30 7326 C 712.929 -6.05742 0.879979 0
M  V30 7327 N 712.066 -7.01926 0.156301 0
M  V30 7328 H 716.906 -2.68558 1.29154 0
M  V30 7329 H 714.443 -1.32052 0.648118 0
M  V30 7330 H 716.401 -4.10554 -0.741723 0
M  V30 7331 H 715.031 -3.02814 -1.1182 0
M  V30 7332 H 714.083 -3.59842 1.23361 0
M  V30 7333 H 715.395 -4.78502 1.40846 0
M  V30 7334 H 714.549 -6.03863 -0.585984 0
M  V30 7335 H 713.288 -4.80188 -0.852661 0
M  V30 7336 H 712.293 -5.31846 1.39357 0
M  V30 7337 H 713.518 -6.58777 1.64894 0
M  V30 7338 H 711.464 -6.53301 -0.594413 0
M  V30 7339 H 711.381 -7.51409 0.831906 0
M  V30 7340 H 712.649 -7.78821 -0.325239 0
M  V30 7341 N 716.879 -0.700114 -1.41195 0
M  V30 7342 C 718.109 -0.241828 -2.0518 0
M  V30 7343 C 718.517 1.1157 -1.52803 0
M  V30 7344 O 717.86 1.70926 -0.673042 0
M  V30 7345 C 717.922 -0.12695 -3.59276 0
M  V30 7346 C 717.586 -1.41725 -4.34469 0
M  V30 7347 C 718.583 -2.35604 -4.63451 0
M  V30 7348 C 716.268 -1.67189 -4.73659 0
M  V30 7349 C 718.262 -3.53204 -5.3059 0
M  V30 7350 C 715.949 -2.85073 -5.40534 0
M  V30 7351 C 716.947 -3.77904 -5.68927 0
M  V30 7352 O 716.635 -4.93723 -6.34424 0
M  V30 7353 H 716.367 -0.109247 -0.667114 0
M  V30 7354 H 718.921 -0.954538 -1.81873 0
M  V30 7355 H 717.151 0.641571 -3.81341 0
M  V30 7356 H 718.84 0.294748 -4.04828 0
M  V30 7357 H 719.606 -2.1719 -4.33651 0
M  V30 7358 H 715.485 -0.957935 -4.50937 0
M  V30 7359 H 719.029 -4.25679 -5.52669 0
M  V30 7360 H 714.926 -3.03402 -5.69752 0
M  V30 7361 H 715.694 -4.93597 -6.5292 0
M  V30 7362 N 718.357 1.51182 -0.445186 0
M  V30 7363 C 719.605 2.01753 0.11841 0
M  V30 7364 C 719.926 1.33087 1.42523 0
M  V30 7365 O 719.196 0.467891 1.9023 0
M  V30 7366 H 717.776 0.745536 0.0467492 0
M  V30 7367 H 720.438 1.85765 -0.589688 0
M  V30 7368 H 719.534 3.10762 0.288665 0
M  V30 7369 N 719.835 0.176821 1.56605 0
M  V30 7370 C 721.112 -0.513365 1.88743 0
M  V30 7371 C 721.492 -1.80929 1.08757 0
M  V30 7372 O 720.84 -2.27765 0.183127 0
M  V30 7373 C 721.05 -0.749925 3.40848 0
M  V30 7374 C 722.398 -1.07747 4.10701 0
M  V30 7375 O 723.422 -0.838277 3.46196 0
M  V30 7376 O 722.281 -1.52901 5.24675 0
M  V30 7377 H 719.375 -0.265296 0.783292 0
M  V30 7378 H 721.921 0.215669 1.68324 0
M  V30 7379 H 720.693 0.16599 3.90948 0
M  V30 7380 H 720.316 -1.53208 3.66897 0
M  V30 7381 N 721.313 -1.57302 -0.09688 0
M  V30 7382 C 722.561 -1.8563 -0.799117 0
M  V30 7383 C 722.882 -0.765263 -1.79356 0
M  V30 7384 O 722.152 0.208657 -1.94786 0
M  V30 7385 H 720.732 -0.684937 -0.298111 0
M  V30 7386 H 723.394 -1.9474 -0.0789341 0
M  V30 7387 H 722.49 -2.82305 -1.3308 0
M  V30 7388 N 722.791 0.367657 -1.53252 0
M  V30 7389 C 724.037 1.11216 -1.69584 0
M  V30 7390 C 724.37 1.89026 -0.445269 0
M  V30 7391 O 723.645 1.86342 0.557404 0
M  V30 7392 C 723.928 2.07308 -2.94441 0
M  V30 7393 C 723.781 1.3312 -4.2965 0
M  V30 7394 C 725.1 3.07459 -3.14892 0
M  V30 7395 H 722.219 0.40294 -0.617096 0
M  V30 7396 H 724.861 0.393201 -1.85887 0
M  V30 7397 H 723.011 2.68617 -2.80673 0
M  V30 7398 H 724.683 0.746111 -4.55226 0
M  V30 7399 H 722.926 0.633051 -4.29156 0
M  V30 7400 H 723.597 2.03443 -5.13142 0
M  V30 7401 H 726.073 2.56252 -3.27832 0
M  V30 7402 H 724.949 3.71919 -4.03693 0
M  V30 7403 H 725.21 3.77514 -2.30077 0
M  V30 7404 N 724.269 1.44576 0.627338 0
M  V30 7405 C 725.494 1.51271 1.41887 0
M  V30 7406 C 725.919 0.139814 1.8758 0
M  V30 7407 O 725.277 -0.871746 1.58966 0
M  V30 7408 C 725.325 2.48529 2.61277 0
M  V30 7409 O 724.429 1.98944 3.61241 0
M  V30 7410 H 723.77 0.510668 0.424399 0
M  V30 7411 H 726.3 1.89746 0.765356 0
M  V30 7412 H 726.31 2.66689 3.08773 0
M  V30 7413 H 724.985 3.48249 2.27366 0
M  V30 7414 H 723.562 1.90568 3.20528 0
M  V30 7415 N 725.747 -0.868086 1.31537 0
M  V30 7416 C 727.163 -1.15414 1.10235 0
M  V30 7417 C 727.363 -2.01106 -0.125947 0
M  V30 7418 O 726.419 -2.38994 -0.814734 0
M  V30 7419 C 727.732 -1.84445 2.37488 0
M  V30 7420 C 729.28 -1.97139 2.43116 0
M  V30 7421 C 729.755 -2.69585 3.70254 0
M  V30 7422 N 731.246 -2.77119 3.71159 0
M  V30 7423 C 731.981 -3.33791 4.6623 0
M  V30 7424 N 731.477 -3.9138 5.71659 0
M  V30 7425 N 733.27 -3.31767 4.53747 0
M  V30 7426 H 725.421 -0.297109 2.10312 0
M  V30 7427 H 727.684 -0.194227 0.92789 0
M  V30 7428 H 727.39 -1.2893 3.27215 0
M  V30 7429 H 727.264 -2.84709 2.47428 0
M  V30 7430 H 729.651 -2.51818 1.53856 0
M  V30 7431 H 729.732 -0.95912 2.37138 0
M  V30 7432 H 729.376 -2.15572 4.59881 0
M  V30 7433 H 729.306 -3.71223 3.73499 0
M  V30 7434 H 731.797 -2.3625 2.94948 0
M  V30 7435 H 732.11 -4.3274 6.40278 0
M  V30 7436 H 730.455 -3.8975 5.7543 0
M  V30 7437 H 733.646 -2.86016 3.70557 0
M  V30 7438 H 733.819 -3.75636 5.28017 0
M  V30 7439 N 727.225 -1.14528 -1.08264 0
M  V30 7440 C 728.173 -0.829201 -2.17318 0
M  V30 7441 C 729.167 0.193521 -1.68291 0
M  V30 7442 O 730.373 0.0494744 -1.79932 0
M  V30 7443 H 726.748 -0.250435 -0.709074 0
M  V30 7444 H 728.719 -1.75683 -2.41201 0
M  V30 7445 C 727.468 -0.324663 -3.46181 0
M  V30 7446 H 726.791 -1.10299 -3.84284 0
M  V30 7447 H 728.231 -0.142059 -4.23762 0
M  V30 7448 C 726.69 0.952033 -3.23169 0
M  V30 7449 O 727.22 2.02549 -3.46896 0
M  V30 7450 N 725.426 0.887854 -2.76705 0
M  V30 7451 H 724.973 0.0141402 -2.57596 0
M  V30 7452 H 724.931 1.74263 -2.61686 0
M  V30 7453 N 728.703 1.26451 -0.940633 0
M  V30 7454 C 729.633 2.28773 -0.467479 0
M  V30 7455 C 730.614 1.63218 0.478955 0
M  V30 7456 O 731.799 1.90427 0.380929 0
M  V30 7457 C 728.929 3.46259 0.268656 0
M  V30 7458 C 727.883 4.23898 -0.591171 0
M  V30 7459 C 727.209 5.33993 0.274891 0
M  V30 7460 C 728.509 4.87974 -1.86223 0
M  V30 7461 H 730.203 2.68601 -1.32265 0
M  V30 7462 H 727.749 1.29123 -0.637436 0
M  V30 7463 H 729.702 4.16951 0.610696 0
M  V30 7464 H 728.426 3.05383 1.15796 0
M  V30 7465 H 727.085 3.54969 -0.916098 0
M  V30 7466 H 726.733 4.89358 1.16353 0
M  V30 7467 H 726.433 5.86849 -0.297006 0
M  V30 7468 H 727.957 6.07523 0.612213 0
M  V30 7469 H 729.371 5.50883 -1.58747 0
M  V30 7470 H 727.768 5.50945 -2.37866 0
M  V30 7471 H 728.838 4.10945 -2.57394 0
M  V30 7472 N 730.181 0.707592 1.40822 0
M  V30 7473 C 731.427 0.244031 2.01326 0
M  V30 7474 C 731.76 -1.15722 1.55955 0
M  V30 7475 O 731.035 -1.78347 0.776044 0
M  V30 7476 C 731.318 0.315128 3.58718 0
M  V30 7477 C 731.171 1.75419 4.14184 0
M  V30 7478 C 732.49 -0.318251 4.38948 0
M  V30 7479 H 729.609 0.0901471 0.731466 0
M  V30 7480 H 732.251 0.898584 1.67408 0
M  V30 7481 H 730.401 -0.242176 3.87744 0
M  V30 7482 H 732.073 2.36626 3.95987 0
M  V30 7483 H 730.316 2.28449 3.68773 0
M  V30 7484 H 730.987 1.75538 5.23345 0
M  V30 7485 H 733.463 0.156514 4.15806 0
M  V30 7486 H 732.339 -0.238019 5.48384 0
M  V30 7487 H 732.6 -1.40067 4.19325 0
M  V30 7488 N 731.66 -1.50943 0.453197 0
M  V30 7489 C 732.906 -2.02512 -0.108082 0
M  V30 7490 C 733.239 -1.33574 -1.40967 0
M  V30 7491 O 732.514 -0.455671 -1.89087 0
M  V30 7492 C 732.797 -3.58759 -0.310453 0
M  V30 7493 C 732.65 -4.38293 1.0109 0
M  V30 7494 C 733.969 -4.26816 -1.07313 0
M  V30 7495 H 731.088 -0.73603 -0.0378064 0
M  V30 7496 H 733.73 -1.80433 0.595295 0
M  V30 7497 H 731.88 -3.77702 -0.909582 0
M  V30 7498 H 733.552 -4.30964 1.64523 0
M  V30 7499 H 731.795 -4.02745 1.61179 0
M  V30 7500 H 732.466 -5.45828 0.82315 0
M  V30 7501 H 734.942 -4.1224 -0.565473 0
M  V30 7502 H 733.818 -5.35989 -1.1835 0
M  V30 7503 H 734.079 -3.88757 -2.10525 0
M  V30 7504 N 733.138 -0.185124 -1.56509 0
M  V30 7505 C 734.386 0.455357 -1.96903 0
M  V30 7506 C 734.707 1.62839 -1.07277 0
M  V30 7507 O 733.977 1.95385 -0.141966 0
M  V30 7508 H 732.557 0.171218 -0.727113 0
M  V30 7509 H 735.219 -0.26953 -1.93027 0
M  V30 7510 H 734.315 0.80616 -3.01509 0
M  V30 7511 N 734.616 1.57351 0.0885366 0
M  V30 7512 C 735.844 1.90631 0.804196 0
M  V30 7513 C 736.259 0.779474 1.71958 0
M  V30 7514 O 735.616 -0.248179 1.80805 0
M  V30 7515 C 735.667 3.23568 1.61202 0
M  V30 7516 O 735.388 4.31917 0.733447 0
M  V30 7517 C 736.889 3.70753 2.43016 0
M  V30 7518 H 734.109 0.630501 0.229585 0
M  V30 7519 H 736.653 2.044 0.0638092 0
M  V30 7520 H 734.808 3.11377 2.30485 0
M  V30 7521 H 735.222 5.08297 1.29361 0
M  V30 7522 H 736.696 4.66447 2.9518 0
M  V30 7523 H 737.173 2.98922 3.2178 0
M  V30 7524 H 737.779 3.85834 1.7892 0
M  V30 7525 N 736.094 -0.359525 1.53444 0
M  V30 7526 C 737.024 -1.44662 1.8329 0
M  V30 7527 C 738.005 -1.55617 0.68683 0
M  V30 7528 O 739.19 -1.70086 0.93725 0
M  V30 7529 C 736.32 -2.81923 2.02822 0
M  V30 7530 C 735.274 -2.85787 3.18606 0
M  V30 7531 C 734.6 -4.25781 3.23442 0
M  V30 7532 C 735.9 -2.52762 4.57065 0
M  V30 7533 H 737.594 -1.19934 2.74329 0
M  V30 7534 H 735.14 -0.575517 1.31999 0
M  V30 7535 H 737.093 -3.58005 2.22285 0
M  V30 7536 H 735.817 -3.08051 1.085 0
M  V30 7537 H 734.476 -2.12157 2.98973 0
M  V30 7538 H 734.124 -4.48994 2.26745 0
M  V30 7539 H 733.824 -4.29281 4.01238 0
M  V30 7540 H 735.348 -5.03727 3.45096 0
M  V30 7541 H 736.762 -3.18557 4.76649 0
M  V30 7542 H 735.159 -2.67569 5.37147 0
M  V30 7543 H 736.229 -1.47993 4.61764 0
M  V30 7544 N 737.572 -1.44907 -0.619662 0
M  V30 7545 C 738.535 -1.52282 -1.71297 0
M  V30 7546 C 739.535 -0.40359 -1.55653 0
M  V30 7547 O 740.725 -0.666638 -1.6094 0
M  V30 7548 C 737.857 -1.40778 -3.10474 0
M  V30 7549 H 739.05 -2.49683 -1.66128 0
M  V30 7550 H 736.603 -1.32168 -0.834339 0
M  V30 7551 H 737.338 -0.445156 -3.2123 0
M  V30 7552 H 737.123 -2.21947 -3.23237 0
M  V30 7553 H 738.613 -1.48946 -3.90135 0
M  V30 7554 N 739.05 0.861098 -1.31996 0
M  V30 7555 C 740.296 1.61707 -1.23379 0
M  V30 7556 C 740.651 1.91315 0.204026 0
M  V30 7557 O 739.944 1.53997 1.13998 0
M  V30 7558 C 740.138 2.94822 -2.02027 0
M  V30 7559 C 739.967 2.78212 -3.5331 0
M  V30 7560 C 738.737 2.76933 -4.22654 0
M  V30 7561 C 740.935 2.52432 -4.48088 0
M  V30 7562 N 738.917 2.51466 -5.60034 0
M  V30 7563 C 740.288 2.36312 -5.73198 0
M  V30 7564 C 742.343 2.37848 -4.37416 0
M  V30 7565 C 741.046 2.0709 -6.88844 0
M  V30 7566 C 743.072 2.10016 -5.52854 0
M  V30 7567 C 742.434 1.94691 -6.7696 0
M  V30 7568 H 738.533 0.595703 -0.506618 0
M  V30 7569 H 741.117 1.01275 -1.66287 0
M  V30 7570 H 739.288 3.53243 -1.61474 0
M  V30 7571 H 741.02 3.59756 -1.85358 0
M  V30 7572 H 737.775 2.89638 -3.74709 0
M  V30 7573 H 738.199 2.41679 -6.32392 0
M  V30 7574 H 742.841 2.4842 -3.42122 0
M  V30 7575 H 740.559 1.95256 -7.84156 0
M  V30 7576 H 744.145 1.99519 -5.46519 0
M  V30 7577 H 743.025 1.7346 -7.64775 0
M  V30 7578 N 740.528 1.15101 1.07655 0
M  V30 7579 C 741.939 0.933848 1.61667 0
M  V30 7580 C 742.29 -0.525569 1.8903 0
M  V30 7581 O 741.415 -1.39605 1.65346 0
M  V30 7582 C 742.01 1.68876 2.93711 0
M  V30 7583 C 740.569 1.51697 3.44478 0
M  V30 7584 C 739.716 1.70633 2.18586 0
M  V30 7585 H 742.667 1.30171 0.907816 0
M  V30 7586 H 742.688 1.15645 3.625 0
M  V30 7587 H 742.2 2.7509 2.73764 0
M  V30 7588 H 740.301 0.478635 3.69513 0
M  V30 7589 H 740.414 2.29194 4.20722 0
M  V30 7590 H 738.778 1.13259 2.28132 0
M  V30 7591 H 739.561 2.78206 2.01137 0
M  V30 7592 N 742.006 -1.2595 0.947325 0
M  V30 7593 C 743.231 -1.98083 0.614633 0
M  V30 7594 C 743.656 -1.70013 -0.804815 0
M  V30 7595 O 743.014 -0.95175 -1.54309 0
M  V30 7596 C 743.062 -3.4993 0.870706 0
M  V30 7597 O 742.166 -4.12364 -0.0541451 0
M  V30 7598 H 741.507 -0.621232 0.234451 0
M  V30 7599 H 744.037 -1.60259 1.27193 0
M  V30 7600 H 744.047 -4.00198 0.794051 0
M  V30 7601 H 742.722 -3.69691 1.90529 0
M  V30 7602 H 741.299 -3.72826 0.0740917 0
M  V30 7603 N 743.484 -0.715051 -1.40445 0
M  V30 7604 C 744.895 -0.326763 -1.83818 0
M  V30 7605 C 745.246 1.13851 -1.59789 0
M  V30 7606 O 744.371 1.87611 -1.07848 0
M  V30 7607 C 744.966 -0.586297 -3.33688 0
M  V30 7608 C 743.525 -0.251724 -3.75557 0
M  V30 7609 C 742.672 -0.858928 -2.63662 0
M  V30 7610 H 745.623 -0.914241 -1.2972 0
M  V30 7611 H 745.644 0.148636 -3.8021 0
M  V30 7612 H 745.156 -1.65281 -3.51146 0
M  V30 7613 H 743.257 0.809754 -3.63695 0
M  V30 7614 H 743.37 -0.720348 -4.73654 0
M  V30 7615 H 741.734 -0.287013 -2.53078 0
M  V30 7616 H 742.517 -1.9297 -2.83932 0
M  V30 7617 N 744.962 1.50701 -0.461195 0
M  V30 7618 C 746.208 2.03203 0.0895017 0
M  V30 7619 C 746.563 1.33768 1.38289 0
M  V30 7620 O 745.856 0.451304 1.86209 0
M  V30 7621 C 746.05 3.55788 0.33908 0
M  V30 7622 C 745.879 4.40009 -0.928571 0
M  V30 7623 C 744.649 4.83475 -1.46903 0
M  V30 7624 C 746.847 4.80972 -1.82129 0
M  V30 7625 N 744.829 5.51985 -2.68673 0
M  V30 7626 C 746.2 5.48792 -2.88491 0
M  V30 7627 C 748.255 4.62937 -1.83285 0
M  V30 7628 C 746.958 6.00489 -3.95987 0
M  V30 7629 C 748.984 5.15568 -2.89731 0
M  V30 7630 C 748.346 5.83355 -3.94812 0
M  V30 7631 H 744.445 0.781968 -0.00702462 0
M  V30 7632 H 747.029 1.84321 -0.627195 0
M  V30 7633 H 745.2 3.74636 1.02481 0
M  V30 7634 H 746.932 3.94944 0.883242 0
M  V30 7635 H 743.687 4.62495 -1.01959 0
M  V30 7636 H 744.111 5.90854 -3.30486 0
M  V30 7637 H 748.753 4.0997 -1.03366 0
M  V30 7638 H 746.471 6.52499 -4.7673 0
M  V30 7639 H 750.057 5.0345 -2.91597 0
M  V30 7640 H 748.937 6.23347 -4.75824 0
M  V30 7641 N 746.441 0.193421 1.56409 0
M  V30 7642 C 747.687 -0.446449 1.97825 0
M  V30 7643 C 748.02 -1.61386 1.08019 0
M  V30 7644 O 747.295 -1.94053 0.131839 0
M  V30 7645 C 747.578 -0.908199 3.48459 0
M  V30 7646 C 747.431 0.260914 4.49043 0
M  V30 7647 C 748.75 -1.77428 4.0275 0
M  V30 7648 H 745.869 -0.160807 0.719243 0
M  V30 7649 H 748.511 0.284006 1.87865 0
M  V30 7650 H 746.661 -1.53062 3.57077 0
M  V30 7651 H 748.333 0.898548 4.52464 0
M  V30 7652 H 746.576 0.912949 4.24085 0
M  V30 7653 H 747.247 -0.104657 5.51901 0
M  V30 7654 H 749.723 -1.24936 3.96901 0
M  V30 7655 H 748.599 -2.06633 5.08521 0
M  V30 7656 H 748.86 -2.72788 3.47907 0
M  V30 7657 N 747.919 -1.57396 -0.0801906 0
M  V30 7658 C 749.168 -1.8602 -0.779702 0
M  V30 7659 C 749.481 -0.784864 -1.79163 0
M  V30 7660 O 750.687 -0.958691 -2.54011 0
M  V30 7661 C 749.143 -3.29942 -1.43758 0
M  V30 7662 C 748.751 -4.45584 -0.464654 0
M  V30 7663 C 750.495 -3.67775 -2.11995 0
M  V30 7664 C 748.402 -5.80544 -1.12797 0
M  V30 7665 H 747.332 -0.69392 -0.294943 0
M  V30 7666 H 749.983 -1.83471 -0.0328527 0
M  V30 7667 H 748.365 -3.27078 -2.2324 0
M  V30 7668 H 749.539 -4.59824 0.299749 0
M  V30 7669 H 747.854 -4.16247 0.112813 0
M  V30 7670 H 750.451 -4.65896 -2.62383 0
M  V30 7671 H 750.794 -2.9715 -2.91561 0
M  V30 7672 H 751.327 -3.72593 -1.39354 0
M  V30 7673 H 748.066 -6.54439 -0.372807 0
M  V30 7674 H 747.586 -5.70119 -1.86344 0
M  V30 7675 H 749.265 -6.25602 -1.6502 0
M  V30 7676 N 749.397 0.351382 -1.53633 0
M  V30 7677 C 750.643 1.09411 -1.70754 0
M  V30 7678 C 750.976 1.88544 -0.465293 0
M  V30 7679 O 750.251 1.86923 0.537608 0
M  V30 7680 C 750.534 2.04173 -2.96623 0
M  V30 7681 C 750.387 1.28556 -4.31038 0
M  V30 7682 C 751.706 3.04102 -3.18136 0
M  V30 7683 H 748.825 0.396373 -0.621335 0
M  V30 7684 H 751.467 0.373464 -1.86293 0
M  V30 7685 H 749.617 2.65625 -2.83506 0
M  V30 7686 H 751.289 0.697786 -4.55992 0
M  V30 7687 H 749.532 0.587498 -4.29803 0
M  V30 7688 H 750.203 1.97989 -5.15271 0
M  V30 7689 H 752.679 2.5276 -3.30532 0
M  V30 7690 H 751.555 3.67616 -4.07615 0
M  V30 7691 H 751.816 3.75053 -2.34068 0
M  V30 7692 N 750.875 1.45233 0.611969 0
M  V30 7693 C 752.124 1.48296 1.36716 0
M  V30 7694 C 752.437 0.12706 1.95187 0
M  V30 7695 O 753.643 0.0353066 2.71477 0
M  V30 7696 C 752.099 2.61168 2.47627 0
M  V30 7697 C 751.707 4.03051 1.95587 0
M  V30 7698 C 753.451 2.73472 3.24674 0
M  V30 7699 C 751.358 5.07312 3.03954 0
M  V30 7700 H 750.288 0.5518 0.513841 0
M  V30 7701 H 752.939 1.7136 0.656359 0
M  V30 7702 H 751.321 2.31379 3.21372 0
M  V30 7703 H 752.495 4.42497 1.2858 0
M  V30 7704 H 750.81 3.95158 1.31298 0
M  V30 7705 H 753.407 3.48537 4.05494 0
M  V30 7706 H 753.75 1.79953 3.75397 0
M  V30 7707 H 754.283 3.02765 2.58028 0
M  V30 7708 H 751.022 6.02525 2.58154 0
M  V30 7709 H 750.542 4.7244 3.69541 0
M  V30 7710 H 752.221 5.31867 3.6841 0
M  V30 7711 N 752.353 -0.854086 1.3245 0
M  V30 7712 C 753.601 -1.60513 1.228 0
M  V30 7713 C 753.922 -1.93865 -0.210073 0
M  V30 7714 O 753.192 -1.59673 -1.13496 0
M  V30 7715 H 751.772 -0.595099 0.451516 0
M  V30 7716 H 754.434 -1.0216 1.6598 0
M  V30 7717 H 753.53 -2.54182 1.81102 0
M  V30 7718 N 753.831 -1.1567 -1.07043 0
M  V30 7719 C 755.056 -0.957946 -1.83952 0
M  V30 7720 C 755.481 0.488807 -1.81638 0
M  V30 7721 O 754.839 1.34869 -1.21162 0
M  V30 7722 C 754.887 -1.48064 -3.288 0
M  V30 7723 O 753.991 -0.681921 -4.06723 0
M  V30 7724 H 753.332 -0.341453 -0.569479 0
M  V30 7725 H 755.862 -1.53728 -1.35015 0
M  V30 7726 H 755.872 -1.49484 -3.7963 0
M  V30 7727 H 754.547 -2.53388 -3.29799 0
M  V30 7728 H 753.124 -0.737612 -3.65532 0
M  V30 7729 N 755.309 1.25446 -0.953992 0
M  V30 7730 C 756.556 1.93143 -0.608429 0
M  V30 7731 C 756.884 1.74727 0.854451 0
M  V30 7732 O 756.139 1.0855 1.62836 0
M  V30 7733 C 756.438 3.45555 -0.912496 0
M  V30 7734 C 756.104 3.84126 -2.36131 0
M  V30 7735 C 754.766 3.94367 -2.75732 0
M  V30 7736 C 757.118 4.0324 -3.30223 0
M  V30 7737 C 754.446 4.21127 -4.08496 0
M  V30 7738 C 756.798 4.31493 -4.62598 0
M  V30 7739 C 755.462 4.3995 -5.01996 0
M  V30 7740 H 754.732 0.706762 -0.22264 0
M  V30 7741 H 757.379 1.49005 -1.20291 0
M  V30 7742 H 755.684 3.91091 -0.235618 0
M  V30 7743 H 757.381 3.9612 -0.623714 0
M  V30 7744 H 753.971 3.76711 -2.04418 0
M  V30 7745 H 758.155 3.94744 -3.00817 0
M  V30 7746 H 753.411 4.2589 -4.38665 0
M  V30 7747 H 757.585 4.45227 -5.35486 0
M  V30 7748 H 755.212 4.60439 -6.04896 0
M  V30 7749 N 756.787 0.722489 1.40064 0
M  V30 7750 C 758.034 0.264979 2.00759 0
M  V30 7751 C 758.362 -1.14395 1.57302 0
M  V30 7752 O 757.617 -1.79165 0.787298 0
M  V30 7753 C 757.916 0.300682 3.56133 0
M  V30 7754 C 757.582 1.66087 4.19197 0
M  V30 7755 C 756.244 2.03319 4.36136 0
M  V30 7756 C 758.596 2.55452 4.54306 0
M  V30 7757 C 755.924 3.29448 4.8547 0
M  V30 7758 C 758.276 3.8094 5.05042 0
M  V30 7759 C 756.94 4.1828 5.2019 0
M  V30 7760 H 756.21 0.0969625 0.734629 0
M  V30 7761 H 758.857 0.926877 1.67575 0
M  V30 7762 H 757.162 -0.44479 3.89267 0
M  V30 7763 H 758.859 -0.0712542 4.00937 0
M  V30 7764 H 755.449 1.36137 4.06405 0
M  V30 7765 H 759.633 2.27961 4.40849 0
M  V30 7766 H 754.889 3.58338 4.95382 0
M  V30 7767 H 759.063 4.50351 5.31184 0
M  V30 7768 H 756.69 5.16081 5.58179 0
M  V30 7769 N 758.265 -1.50454 0.469181 0
M  V30 7770 C 759.49 -2.0722 -0.0864892 0
M  V30 7771 C 759.915 -1.33098 -1.32916 0
M  V30 7772 O 759.273 -0.378084 -1.77314 0
M  V30 7773 C 759.321 -3.58845 -0.355384 0
M  V30 7774 O 758.425 -3.86583 -1.43622 0
M  V30 7775 H 757.766 -0.663889 0.0121414 0
M  V30 7776 H 760.296 -1.93674 0.659674 0
M  V30 7777 H 760.306 -4.03617 -0.596447 0
M  V30 7778 H 758.981 -4.12211 0.552698 0
M  V30 7779 H 757.558 -3.5365 -1.18262 0
M  V30 7780 N 759.743 -0.201713 -1.56304 0
M  V30 7781 C 760.971 0.440723 -2.02152 0
M  V30 7782 C 761.386 1.54735 -1.08179 0
M  V30 7783 O 760.743 1.82289 -0.0878196 0
M  V30 7784 C 760.794 0.990884 -3.47655 0
M  V30 7785 O 760.515 -0.0715937 -4.38041 0
M  V30 7786 C 762.016 1.70854 -4.09052 0
M  V30 7787 H 759.236 0.109987 -0.661924 0
M  V30 7788 H 761.78 -0.312358 -2.021 0
M  V30 7789 H 759.935 1.69432 -3.48384 0
M  V30 7790 H 760.349 0.338892 -5.23404 0
M  V30 7791 H 761.823 2.04572 -5.12693 0
M  V30 7792 H 762.3 2.61462 -3.52894 0
M  V30 7793 H 762.906 1.0508 -4.12114 0
M  V30 7794 N 761.222 1.57436 0.0718424 0
M  V30 7795 C 762.462 1.89082 0.776351 0
M  V30 7796 C 762.826 0.795494 1.74745 0
M  V30 7797 O 764.027 0.995025 2.49705 0
M  V30 7798 C 762.298 3.25958 1.46582 0
M  V30 7799 S 763.857 3.79352 2.2054 0
M  V30 7800 H 760.675 0.662472 0.25817 0
M  V30 7801 H 763.277 1.95473 0.0324536 0
M  V30 7802 H 761.981 4.03577 0.745237 0
M  V30 7803 H 761.512 3.22764 2.24915 0
M  V30 7804 H 763.527 3.54634 3.47058 0
M  V30 7805 N 762.7 -0.34323 1.53817 0
M  V30 7806 C 763.948 -1.0813 1.70741 0
M  V30 7807 C 764.269 -1.89165 0.473461 0
M  V30 7808 O 763.539 -1.89075 -0.512605 0
M  V30 7809 H 762.119 -0.40219 0.629486 0
M  V30 7810 H 764.781 -0.384426 1.91071 0
M  V30 7811 H 763.877 -1.7585 2.57843 0
M  V30 7812 N 764.178 -1.45556 -0.604258 0
M  V30 7813 C 765.141 -1.54091 -1.69672 0
M  V30 7814 C 766.141 -0.420076 -1.55216 0
M  V30 7815 O 767.331 -0.683671 -1.60224 0
M  V30 7816 C 764.463 -1.44063 -3.08964 0
M  V30 7817 H 765.656 -2.51431 -1.6347 0
M  V30 7818 H 763.209 -1.33046 -0.820273 0
M  V30 7819 H 763.944 -0.479201 -3.2074 0
M  V30 7820 H 763.729 -2.25362 -3.20865 0
M  V30 7821 H 765.219 -1.53075 -3.88533 0
M  V30 7822 N 765.656 0.84705 -1.32902 0
M  V30 7823 C 766.904 1.5986 -1.2365 0
M  V30 7824 C 767.225 1.93974 0.199789 0
M  V30 7825 O 766.495 1.60273 1.12648 0
M  V30 7826 H 765.075 0.592696 -0.454665 0
M  V30 7827 H 767.737 1.01278 -1.66519 0
M  V30 7828 H 766.833 2.53218 -1.82448 0
M  V30 7829 N 767.134 1.16236 1.06428 0
M  V30 7830 C 768.064 0.890807 2.1584 0
M  V30 7831 C 769.045 -0.162333 1.69324 0
M  V30 7832 O 770.23 -0.0147191 1.94194 0
M  V30 7833 C 767.36 0.389615 3.45108 0
M  V30 7834 C 766.314 1.38051 4.05125 0
M  V30 7835 C 765.64 0.737773 5.29586 0
M  V30 7836 C 766.94 2.74965 4.44062 0
M  V30 7837 H 768.634 1.80577 2.38814 0
M  V30 7838 H 766.18 0.869657 1.14774 0
M  V30 7839 H 768.133 0.187127 4.20984 0
M  V30 7840 H 766.857 -0.560851 3.21748 0
M  V30 7841 H 765.516 1.56952 3.31303 0
M  V30 7842 H 765.164 -0.219135 5.02522 0
M  V30 7843 H 764.864 1.39914 5.70699 0
M  V30 7844 H 766.388 0.545275 6.0816 0
M  V30 7845 H 767.802 2.59855 5.11027 0
M  V30 7846 H 766.199 3.37563 4.96156 0
M  V30 7847 H 767.269 3.30321 3.54987 0
M  V30 7848 N 768.612 -1.24939 0.960631 0
M  V30 7849 C 769.544 -2.24879 0.442937 0
M  V30 7850 C 770.557 -1.56615 -0.444464 0
M  V30 7851 O 771.746 -1.76715 -0.251776 0
M  V30 7852 C 768.846 -3.36757 -0.380537 0
M  V30 7853 C 768.019 -4.34587 0.495283 0
M  V30 7854 C 767.078 -5.25502 -0.270995 0
M  V30 7855 O 766.104 -5.68227 0.332661 0
M  V30 7856 N 767.306 -5.59077 -1.56249 0
M  V30 7857 H 770.071 -2.69932 1.30218 0
M  V30 7858 H 767.632 -1.38907 0.83166 0
M  V30 7859 H 769.624 -3.94542 -0.90103 0
M  V30 7860 H 768.194 -2.91045 -1.14067 0
M  V30 7861 H 767.414 -3.75593 1.19682 0
M  V30 7862 H 768.702 -4.96925 1.09285 0
M  V30 7863 H 768.1 -5.2628 -2.07476 0
M  V30 7864 H 766.657 -6.19421 -2.02882 0
M  V30 7865 N 770.09 -0.729906 -1.39679 0
M  V30 7866 C 771.315 -0.284345 -2.05442 0
M  V30 7867 C 771.74 1.07056 -1.54663 0
M  V30 7868 O 771.098 1.67732 -0.688157 0
M  V30 7869 C 771.146 -0.290089 -3.59431 0
M  V30 7870 O 770.25 0.723978 -4.05995 0
M  V30 7871 H 769.591 -0.130311 -0.651088 0
M  V30 7872 H 772.121 -0.994403 -1.78809 0
M  V30 7873 H 772.131 -0.132712 -4.07784 0
M  V30 7874 H 770.806 -1.27877 -3.95753 0
M  V30 7875 H 769.383 0.533154 -3.69069 0
M  V30 7876 N 771.568 1.50203 -0.477153 0
M  V30 7877 C 772.498 2.31517 0.303646 0
M  V30 7878 C 773.479 1.38696 0.984753 0
M  V30 7879 O 774.664 1.67615 0.980758 0
M  V30 7880 C 771.794 3.18598 1.38249 0
M  V30 7881 C 770.748 4.2002 0.822645 0
M  V30 7882 C 770.074 4.95878 2.00024 0
M  V30 7883 C 771.374 5.22023 -0.170185 0
M  V30 7884 H 773.068 2.97042 -0.375027 0
M  V30 7885 H 770.614 1.42848 -0.181802 0
M  V30 7886 H 772.567 3.74282 1.93625 0
M  V30 7887 H 771.291 2.5097 2.09002 0
M  V30 7888 H 769.95 3.65445 0.290813 0
M  V30 7889 H 769.598 4.24717 2.69489 0
M  V30 7890 H 769.298 5.64487 1.63183 0
M  V30 7891 H 770.822 5.54399 2.55878 0
M  V30 7892 H 772.236 5.72543 0.294606 0
M  V30 7893 H 770.633 5.98386 -0.453181 0
M  V30 7894 H 771.703 4.72396 -1.09408 0
M  V30 7895 N 773.046 0.209999 1.56195 0
M  V30 7896 C 774.274 -0.429996 2.02382 0
M  V30 7897 C 774.689 -1.54159 1.08998 0
M  V30 7898 O 774.046 -1.82239 0.0974856 0
M  V30 7899 C 774.097 -0.972433 3.48175 0
M  V30 7900 O 773.818 0.0948231 4.37997 0
M  V30 7901 C 775.319 -1.68683 4.09952 0
M  V30 7902 H 772.539 -0.106475 0.662498 0
M  V30 7903 H 775.083 0.323072 2.01932 0
M  V30 7904 H 773.238 -1.67582 3.49278 0
M  V30 7905 H 773.652 -0.31113 5.23576 0
M  V30 7906 H 775.126 -2.01851 5.13771 0
M  V30 7907 H 775.603 -2.59587 3.54276 0
M  V30 7908 H 776.209 -1.02893 4.12666 0
M  V30 7909 N 774.524 -1.57472 -0.0634922 0
M  V30 7910 C 775.772 -1.87283 -0.759563 0
M  V30 7911 C 776.093 -0.803135 -1.77693 0
M  V30 7912 O 775.363 0.167293 -1.95184 0
M  V30 7913 H 773.943 -0.691106 -0.283516 0
M  V30 7914 H 776.605 -1.94864 -0.0376091 0
M  V30 7915 H 775.701 -2.85064 -1.27062 0
M  V30 7916 N 776.003 0.335068 -1.53997 0
M  V30 7917 C 776.966 1.39481 -1.81872 0
M  V30 7918 C 777.966 1.4524 -0.690078 0
M  V30 7919 O 779.156 1.45467 -0.958377 0
M  V30 7920 C 776.288 2.78329 -1.9684 0
M  V30 7921 H 777.481 1.16024 -2.76547 0
M  V30 7922 H 775.034 0.569926 -1.45539 0
M  V30 7923 H 775.769 3.07058 -1.04337 0
M  V30 7924 H 775.554 2.75544 -2.78958 0
M  V30 7925 H 777.044 3.55016 -2.19894 0
M  V30 7926 N 777.481 1.45874 0.596531 0
M  V30 7927 C 778.892 1.44798 1.17857 0
M  V30 7928 C 779.243 0.181443 1.95359 0
M  V30 7929 O 778.368 -0.716336 2.042 0
M  V30 7930 C 778.963 2.62333 2.14398 0
M  V30 7931 C 777.522 2.64342 2.67955 0
M  V30 7932 C 776.669 2.37244 1.43564 0
M  V30 7933 H 779.62 1.53954 0.385222 0
M  V30 7934 H 779.641 2.37063 2.97626 0
M  V30 7935 H 779.153 3.54499 1.57963 0
M  V30 7936 H 777.254 1.76213 3.28298 0
M  V30 7937 H 777.367 3.63897 3.11634 0
M  V30 7938 H 775.731 1.87022 1.72901 0
M  V30 7939 H 776.514 3.31568 0.889805 0
M  V30 7940 N 778.959 -0.83999 1.33349 0
M  V30 7941 C 780.375 -1.13049 1.12659 0
M  V30 7942 C 780.575 -2.01328 -0.0832613 0
M  V30 7943 O 779.631 -2.40669 -0.763856 0
M  V30 7944 C 780.944 -1.79366 2.41347 0
M  V30 7945 C 782.492 -1.91937 2.47243 0
M  V30 7946 C 782.967 -2.6167 3.75889 0
M  V30 7947 N 784.458 -2.69184 3.76954 0
M  V30 7948 C 785.193 -3.23827 4.73206 0
M  V30 7949 N 784.689 -3.79166 5.79832 0
M  V30 7950 N 786.482 -3.22068 4.60683 0
M  V30 7951 H 778.633 -0.252432 2.10895 0
M  V30 7952 H 780.896 -0.174501 0.931801 0
M  V30 7953 H 780.602 -1.2196 3.29877 0
M  V30 7954 H 780.476 -2.79396 2.53412 0
M  V30 7955 H 782.863 -2.48498 1.59163 0
M  V30 7956 H 782.944 -0.908604 2.39119 0
M  V30 7957 H 782.588 -2.05769 4.64351 0
M  V30 7958 H 782.518 -3.63217 3.81289 0
M  V30 7959 H 785.009 -2.2994 2.99893 0
M  V30 7960 H 785.322 -4.19061 6.49313 0
M  V30 7961 H 783.667 -3.77457 5.83568 0
M  V30 7962 H 786.858 -2.78092 3.7654 0
M  V30 7963 H 787.031 -3.64351 5.35866 0
M  V30 7964 N 780.437 -1.16799 -1.0581 0
M  V30 7965 C 781.367 -0.902241 -2.15364 0
M  V30 7966 C 782.348 0.153351 -1.69407 0
M  V30 7967 O 783.533 0.00442032 -1.94199 0
M  V30 7968 C 780.663 -0.407911 -3.44896 0
M  V30 7969 C 779.617 -1.40197 -4.04387 0
M  V30 7970 C 778.943 -0.765848 -5.29187 0
M  V30 7971 C 780.243 -2.77316 -4.42598 0
M  V30 7972 H 781.937 -1.81841 -2.37853 0
M  V30 7973 H 779.483 -0.875731 -1.14311 0
M  V30 7974 H 781.436 -0.20945 -4.20879 0
M  V30 7975 H 780.16 0.54378 -3.22041 0
M  V30 7976 H 778.819 -1.58707 -3.30466 0
M  V30 7977 H 778.467 0.192482 -5.02632 0
M  V30 7978 H 778.167 -1.42939 -5.69949 0
M  V30 7979 H 779.691 -0.577519 -6.07863 0
M  V30 7980 H 781.105 -2.62561 -5.09642 0
M  V30 7981 H 779.502 -3.4019 -4.94359 0
M  V30 7982 H 780.572 -3.32199 -3.53231 0
M  V30 7983 N 781.915 1.24427 -0.967243 0
M  V30 7984 C 782.845 2.2773 -0.515899 0
M  V30 7985 C 783.826 1.64197 0.444227 0
M  V30 7986 O 785.011 1.91193 0.340451 0
M  V30 7987 C 782.141 3.46751 0.195149 0
M  V30 7988 C 781.095 4.22548 -0.680953 0
M  V30 7989 C 780.421 5.34456 0.161561 0
M  V30 7990 C 781.721 4.83914 -1.96532 0
M  V30 7991 H 783.415 2.65735 -1.37933 0
M  V30 7992 H 780.961 1.27742 -0.664681 0
M  V30 7993 H 782.914 4.18153 0.522117 0
M  V30 7994 H 781.638 3.07771 1.09292 0
M  V30 7995 H 780.297 3.52946 -0.991186 0
M  V30 7996 H 779.945 4.91716 1.05947 0
M  V30 7997 H 779.645 5.86087 -0.421418 0
M  V30 7998 H 781.169 6.08685 0.483211 0
M  V30 7999 H 782.583 5.47392 -1.70396 0
M  V30 8000 H 780.98 5.45775 -2.49499 0
M  V30 8001 H 782.05 4.05393 -2.66053 0
M  V30 8002 N 783.393 0.737304 1.3929 0
M  V30 8003 C 784.325 0.0592106 2.29124 0
M  V30 8004 C 785.338 -0.701026 1.46934 0
M  V30 8005 O 786.527 -0.544808 1.69983 0
M  V30 8006 C 783.627 -0.940358 3.25592 0
M  V30 8007 C 782.8 -0.241163 4.36735 0
M  V30 8008 C 781.859 -1.14916 5.13498 0
M  V30 8009 O 780.885 -0.625783 5.6575 0
M  V30 8010 N 782.087 -2.47869 5.2492 0
M  V30 8011 H 784.852 0.830647 2.87959 0
M  V30 8012 H 782.413 0.586718 1.50895 0
M  V30 8013 H 784.405 -1.55046 3.73822 0
M  V30 8014 H 782.975 -1.61299 2.67771 0
M  V30 8015 H 782.195 0.549441 3.90352 0
M  V30 8016 H 783.483 0.243299 5.08218 0
M  V30 8017 H 782.881 -2.92864 4.83991 0
M  V30 8018 H 781.438 -3.03969 5.76581 0
M  V30 8019 N 784.871 -1.49948 0.485112 0
M  V30 8020 C 785.834 -2.27351 -0.290546 0
M  V30 8021 C 786.834 -1.32704 -0.908087 0
M  V30 8022 O 788.024 -1.56007 -0.775085 0
M  V30 8023 C 785.156 -3.10135 -1.41524 0
M  V30 8024 H 786.349 -2.97374 0.388454 0
M  V30 8025 H 783.902 -1.54453 0.239586 0
M  V30 8026 H 784.637 -2.44641 -2.12888 0
M  V30 8027 H 784.422 -3.79705 -0.978074 0
M  V30 8028 H 785.912 -3.68638 -1.96204 0
M  V30 8029 N 786.349 -0.21828 -1.56081 0
M  V30 8030 C 787.598 0.414644 -1.97392 0
M  V30 8031 C 787.911 1.61132 -1.10887 0
M  V30 8032 O 789.117 2.31355 -1.42082 0
M  V30 8033 C 787.573 0.789099 -3.51143 0
M  V30 8034 C 787.181 -0.384578 -4.46346 0
M  V30 8035 C 788.925 1.38781 -4.01173 0
M  V30 8036 C 786.832 0.0121288 -5.91399 0
M  V30 8037 H 785.762 0.158691 -0.737111 0
M  V30 8038 H 788.413 -0.313974 -1.80794 0
M  V30 8039 H 786.795 1.57505 -3.6333 0
M  V30 8040 H 787.969 -1.16212 -4.45905 0
M  V30 8041 H 786.284 -0.896306 -4.06639 0
M  V30 8042 H 788.881 1.69746 -5.07041 0
M  V30 8043 H 789.224 2.30245 -3.46833 0
M  V30 8044 H 789.757 0.665364 -3.92196 0
M  V30 8045 H 786.496 -0.868917 -6.49715 0
M  V30 8046 H 786.016 0.754053 -5.95041 0
M  V30 8047 H 787.695 0.439949 -6.45502 0
M  V30 8048 N 787.827 1.57504 0.0551401 0
M  V30 8049 C 788.79 2.03826 1.04821 0
M  V30 8050 C 789.79 0.937968 1.30609 0
M  V30 8051 O 790.98 1.20237 1.2605 0
M  V30 8052 C 788.112 2.43309 2.38775 0
M  V30 8053 H 789.305 2.92802 0.6486 0
M  V30 8054 H 786.858 1.53368 0.301315 0
M  V30 8055 H 787.593 1.5741 2.83536 0
M  V30 8056 H 787.378 3.23615 2.21395 0
M  V30 8057 H 788.868 2.79666 3.10124 0
M  V30 8058 N 789.305 -0.326896 1.54172 0
M  V30 8059 C 790.252 -1.40216 1.83325 0
M  V30 8060 C 791.222 -1.51538 0.680107 0
M  V30 8061 O 792.407 -1.66811 0.926206 0
M  V30 8062 C 789.547 -2.76626 2.0633 0
M  V30 8063 C 788.66 -2.73963 3.34019 0
M  V30 8064 C 787.795 -4.02198 3.47002 0
M  V30 8065 C 786.834 -3.93828 4.68578 0
M  V30 8066 N 785.971 -5.13787 4.78506 0
M  V30 8067 H 790.811 -1.14656 2.7506 0
M  V30 8068 H 788.348 -0.555089 1.36225 0
M  V30 8069 H 790.306 -3.55922 2.17659 0
M  V30 8070 H 788.936 -3.00503 1.1789 0
M  V30 8071 H 787.988 -1.86677 3.31445 0
M  V30 8072 H 789.3 -2.6366 4.2342 0
M  V30 8073 H 788.454 -4.89923 3.57855 0
M  V30 8074 H 787.193 -4.15302 2.55687 0
M  V30 8075 H 786.198 -3.04487 4.57786 0
M  V30 8076 H 787.423 -3.82292 5.61275 0
M  V30 8077 H 785.369 -5.27403 3.90105 0
M  V30 8078 H 785.286 -5.05807 5.61868 0
M  V30 8079 H 786.554 -6.03236 4.93686 0
M  V30 8080 N 790.784 -1.46188 -0.588786 0
M  V30 8081 C 792.061 -1.41659 -1.34878 0
M  V30 8082 C 792.441 -0.0968913 -2.10878 0
M  V30 8083 O 791.789 0.921468 -2.09096 0
M  V30 8084 C 791.999 -2.6424 -2.27988 0
M  V30 8085 C 793.347 -3.1013 -2.90008 0
M  V30 8086 O 794.371 -2.64745 -2.38303 0
M  V30 8087 O 793.23 -3.88944 -3.83908 0
M  V30 8088 H 790.324 -0.563058 -0.605718 0
M  V30 8089 H 792.87 -1.58346 -0.610309 0
M  V30 8090 H 791.642 -3.51853 -1.71217 0
M  V30 8091 H 791.265 -2.49982 -3.09184 0
M  V30 8092 N 792.262 0.832906 -1.33792 0
M  V30 8093 C 793.21 1.96455 -1.24532 0
M  V30 8094 C 794.204 1.68774 -0.145455 0
M  V30 8095 O 795.41 1.77314 -0.309797 0
M  V30 8096 H 791.785 0.645008 -0.386611 0
M  V30 8097 H 793.756 2.01389 -2.20193 0
M  V30 8098 C 792.505 3.32784 -1.00748 0
M  V30 8099 H 791.828 3.54626 -1.84609 0
M  V30 8100 H 793.268 4.12447 -0.98301 0
M  V30 8101 C 791.727 3.35654 0.289475 0
M  V30 8102 O 792.257 3.80281 1.29419 0
M  V30 8103 N 790.463 2.88843 0.3191 0
M  V30 8104 H 790.01 2.52719 -0.499069 0
M  V30 8105 H 789.968 2.91145 1.18667 0
M  V30 8106 N 793.74 1.17359 1.05189 0
M  V30 8107 C 794.989 0.956412 1.77583 0
M  V30 8108 C 795.302 -0.516018 1.88671 0
M  V30 8109 O 796.508 -0.851401 2.57805 0
M  V30 8110 C 794.964 1.66203 3.19225 0
M  V30 8111 C 794.572 3.17299 3.16267 0
M  V30 8112 C 796.316 1.52725 3.96075 0
M  V30 8113 C 794.223 3.8055 4.52698 0
M  V30 8114 H 793.153 0.354204 0.665624 0
M  V30 8115 H 795.804 1.40612 1.17901 0
M  V30 8116 H 794.186 1.14006 3.79234 0
M  V30 8117 H 795.36 3.76431 2.65776 0
M  V30 8118 H 793.675 3.3079 2.52917 0
M  V30 8119 H 796.272 1.97351 4.96947 0
M  V30 8120 H 796.615 0.477803 4.13549 0
M  V30 8121 H 797.148 2.02139 3.42614 0
M  V30 8122 H 793.887 4.85492 4.4043 0
M  V30 8123 H 793.407 3.26206 5.03339 0
M  V30 8124 H 795.086 3.82757 5.21638 0
M  V30 8125 N 795.218 -1.23913 0.973828 0
M  V30 8126 C 796.467 -1.91455 0.63464 0
M  V30 8127 C 796.78 -1.76893 -0.834759 0
M  V30 8128 O 797.986 -2.3918 -1.28473 0
M  V30 8129 C 796.442 -3.43172 1.08447 0
M  V30 8130 C 796.05 -3.66409 2.57776 0
M  V30 8131 C 797.794 -4.1653 0.818721 0
M  V30 8132 C 795.701 -5.11728 2.9646 0
M  V30 8133 H 794.631 -0.716881 0.233661 0
M  V30 8134 H 797.282 -1.40457 1.18085 0
M  V30 8135 H 795.664 -3.93242 0.466524 0
M  V30 8136 H 796.838 -3.26913 3.24753 0
M  V30 8137 H 795.153 -3.06349 2.82027 0
M  V30 8138 H 797.75 -5.23603 1.08367 0
M  V30 8139 H 798.093 -4.15578 -0.245128 0
M  V30 8140 H 798.626 -3.72428 1.39793 0
M  V30 8141 H 795.365 -5.17806 4.01941 0
M  V30 8142 H 794.885 -5.52199 2.34172 0
M  V30 8143 H 796.564 -5.80009 2.86703 0
M  V30 8144 N 796.696 -0.74468 -1.38897 0
M  V30 8145 C 798.107 -0.36568 -1.83084 0
M  V30 8146 C 798.458 1.10436 -1.62168 0
M  V30 8147 O 797.583 1.85281 -1.11804 0
M  V30 8148 C 798.178 -0.656946 -3.3237 0
M  V30 8149 C 796.737 -0.331329 -3.74939 0
M  V30 8150 C 795.884 -0.914661 -2.61781 0
M  V30 8151 H 798.835 -0.941551 -1.27752 0
M  V30 8152 H 798.856 0.0679546 -3.80439 0
M  V30 8153 H 798.368 -1.72693 -3.47561 0
M  V30 8154 H 796.469 0.732426 -3.6533 0
M  V30 8155 H 796.582 -0.820655 -4.72019 0
M  V30 8156 H 794.946 -0.34063 -2.52412 0
M  V30 8157 H 795.729 -1.98949 -2.79775 0
M  V30 8158 N 798.174 1.49689 -0.493057 0
M  V30 8159 C 799.421 2.02427 0.0542714 0
M  V30 8160 C 799.749 1.37339 1.37725 0
M  V30 8161 O 799.004 0.495523 1.89323 0
M  V30 8162 C 799.303 3.56427 0.263536 0
M  V30 8163 C 798.969 4.40111 -0.98046 0
M  V30 8164 C 797.631 4.62699 -1.32148 0
M  V30 8165 C 799.983 4.88847 -1.80771 0
M  V30 8166 C 797.311 5.31268 -2.48941 0
M  V30 8167 C 799.663 5.587 -2.96711 0
M  V30 8168 C 798.327 5.79536 -3.31202 0
M  V30 8169 H 797.597 0.740734 0.0198593 0
M  V30 8170 H 800.244 1.80073 -0.651603 0
M  V30 8171 H 798.549 3.77416 1.05186 0
M  V30 8172 H 800.246 3.94819 0.701348 0
M  V30 8173 H 796.836 4.22765 -0.704814 0
M  V30 8174 H 801.02 4.71231 -1.55741 0
M  V30 8175 H 796.276 5.45603 -2.75911 0
M  V30 8176 H 800.45 5.9544 -3.61143 0
M  V30 8177 H 798.077 6.32443 -4.21805 0
M  V30 8178 N 799.652 0.226554 1.55963 0
M  V30 8179 C 800.582 -0.676079 2.23498 0
M  V30 8180 C 801.563 -1.19718 1.20837 0
M  V30 8181 O 802.748 -1.24027 1.49436 0
M  V30 8182 C 799.878 -1.88217 2.91876 0
M  V30 8183 C 798.832 -1.4947 4.01052 0
M  V30 8184 C 798.158 -2.77997 4.56751 0
M  V30 8185 C 799.458 -0.680951 5.17842 0
M  V30 8186 H 801.152 -0.112989 2.99187 0
M  V30 8187 H 798.698 -0.0529046 1.43903 0
M  V30 8188 H 800.651 -2.51911 3.37815 0
M  V30 8189 H 799.375 -2.47031 2.13643 0
M  V30 8190 H 798.034 -0.881199 3.55852 0
M  V30 8191 H 797.682 -3.34966 3.75243 0
M  V30 8192 H 797.382 -2.52803 5.30438 0
M  V30 8193 H 798.906 -3.42625 5.05411 0
M  V30 8194 H 800.32 -1.22171 5.60131 0
M  V30 8195 H 798.717 -0.525898 5.97791 0
M  V30 8196 H 799.787 0.311346 4.83899 0
M  V30 8197 N 801.13 -1.57531 -0.0467866 0
M  V30 8198 C 802.546 -1.54451 -0.402107 0
M  V30 8199 C 802.746 -0.950275 -1.77685 0
M  V30 8200 O 801.802 -0.563602 -2.4613 0
M  V30 8201 C 803.115 -2.9899 -0.320212 0
M  V30 8202 C 804.663 -3.10452 -0.398588 0
M  V30 8203 C 805.138 -4.56689 -0.346335 0
M  V30 8204 N 806.629 -4.6142 -0.405666 0
M  V30 8205 C 807.364 -5.72087 -0.387845 0
M  V30 8206 N 806.86 -6.92045 -0.32336 0
M  V30 8207 N 808.653 -5.60404 -0.436263 0
M  V30 8208 H 800.804 -1.94515 0.853087 0
M  V30 8209 H 803.067 -0.891397 0.322669 0
M  V30 8210 H 802.773 -3.46124 0.623794 0
M  V30 8211 H 802.647 -3.60164 -1.1208 0
M  V30 8212 H 805.034 -2.63276 -1.33302 0
M  V30 8213 H 805.115 -2.52142 0.431026 0
M  V30 8214 H 804.759 -5.04527 0.584356 0
M  V30 8215 H 804.689 -5.12889 -1.19382 0
M  V30 8216 H 807.18 -3.75105 -0.458737 0
M  V30 8217 H 807.493 -7.7216 -0.314375 0
M  V30 8218 H 805.838 -6.94396 -0.28967 0
M  V30 8219 H 809.029 -4.65586 -0.48451 0
M  V30 8220 H 809.202 -6.46645 -0.418907 0
M  V30 8221 N 802.608 0.318715 -1.54344 0
M  V30 8222 C 803.854 1.05765 -1.73037 0
M  V30 8223 C 804.187 1.87514 -0.505181 0
M  V30 8224 O 803.462 1.88021 0.497838 0
M  V30 8225 C 803.745 1.97836 -3.00887 0
M  V30 8226 C 803.598 1.19384 -4.33668 0
M  V30 8227 C 804.917 2.97285 -3.24514 0
M  V30 8228 H 802.036 0.383104 -0.629603 0
M  V30 8229 H 804.678 0.333864 -1.87044 0
M  V30 8230 H 802.828 2.59552 -2.89076 0
M  V30 8231 H 804.5 0.600906 -4.57369 0
M  V30 8232 H 802.743 0.496198 -4.30953 0
M  V30 8233 H 803.414 1.87014 -5.19355 0
M  V30 8234 H 805.89 2.45693 -3.35819 0
M  V30 8235 H 804.766 3.58887 -4.15321 0
M  V30 8236 H 805.027 3.70003 -2.41971 0
M  V30 8237 N 804.086 1.46499 0.581025 0
M  V30 8238 C 805.333 1.51896 1.33918 0
M  V30 8239 C 805.661 0.171361 1.93744 0
M  V30 8240 O 804.916 -0.833178 1.77078 0
M  V30 8241 C 805.215 2.56686 2.48691 0
M  V30 8242 C 804.881 4.00656 2.06847 0
M  V30 8243 C 803.543 4.39852 1.9515 0
M  V30 8244 C 805.895 4.91089 1.74589 0
M  V30 8245 C 803.223 5.67345 1.49456 0
M  V30 8246 C 805.575 6.1902 1.30373 0
M  V30 8247 C 804.239 6.57121 1.17255 0
M  V30 8248 H 803.509 0.555826 0.490039 0
M  V30 8249 H 806.156 1.79983 0.654092 0
M  V30 8250 H 804.461 2.22266 3.22653 0
M  V30 8251 H 806.158 2.58091 3.06904 0
M  V30 8252 H 802.748 3.69674 2.16886 0
M  V30 8253 H 806.932 4.61523 1.8251 0
M  V30 8254 H 802.188 5.95635 1.37944 0
M  V30 8255 H 806.362 6.8852 1.04467 0
M  V30 8256 H 803.989 7.55805 0.816236 0
M  V30 8257 N 805.565 -0.825799 1.34232 0
M  V30 8258 C 806.813 -1.57873 1.26177 0
M  V30 8259 C 807.134 -1.94267 -0.168904 0
M  V30 8260 O 806.404 -1.62045 -1.10084 0
M  V30 8261 H 804.984 -0.585388 0.464037 0
M  V30 8262 H 807.646 -0.986163 1.6811 0
M  V30 8263 H 806.742 -2.50283 1.86453 0
M  V30 8264 N 807.043 -1.17915 -1.04565 0
M  V30 8265 C 807.993 -0.869634 -2.10764 0
M  V30 8266 C 808.977 0.158502 -1.60117 0
M  V30 8267 O 810.169 -0.04483 -1.76943 0
M  V30 8268 C 807.298 -0.391642 -3.41059 0
M  V30 8269 C 806.384 -1.45156 -3.98485 0
M  V30 8270 N 806.775 -2.6667 -4.29792 0
M  V30 8271 C 805.073 -1.3109 -4.263 0
M  V30 8272 C 805.774 -3.34823 -4.75677 0
M  V30 8273 N 804.75 -2.62203 -4.76183 0
M  V30 8274 H 808.552 -1.79342 -2.32838 0
M  V30 8275 H 806.066 -1.0688 -1.22272 0
M  V30 8276 H 808.063 -0.151428 -4.16625 0
M  V30 8277 H 806.723 0.525862 -3.20413 0
M  V30 8278 H 807.734 -3.0358 -4.19594 0
M  V30 8279 H 804.411 -0.455545 -4.15007 0
M  V30 8280 H 805.801 -4.38645 -5.0896 0
M  V30 8281 N 808.521 1.23394 -0.980386 0
M  V30 8282 C 809.769 1.91431 -0.647978 0
M  V30 8283 C 810.09 1.76871 0.821066 0
M  V30 8284 O 809.36 1.14808 1.58732 0
M  V30 8285 H 807.94 0.708516 -0.236673 0
M  V30 8286 H 810.602 1.50019 -1.2442 0
M  V30 8287 H 809.698 2.98854 -0.899592 0
M  V30 8288 N 809.999 0.752036 1.385 0
M  V30 8289 C 810.946 0.123288 2.3047 0
M  V30 8290 C 811.916 -0.711326 1.50098 0
M  V30 8291 O 813.101 -0.667775 1.78733 0
M  V30 8292 C 810.241 -0.765085 3.36512 0
M  V30 8293 C 809.354 0.0839885 4.31918 0
M  V30 8294 C 808.489 -0.807243 5.25031 0
M  V30 8295 C 807.528 0.0455583 6.12083 0
M  V30 8296 N 806.665 -0.802547 6.97498 0
M  V30 8297 H 811.505 0.913169 2.83664 0
M  V30 8298 H 809.042 0.46195 1.39658 0
M  V30 8299 H 811 -1.29476 3.966 0
M  V30 8300 H 809.63 -1.52077 2.84732 0
M  V30 8301 H 808.682 0.731276 3.73305 0
M  V30 8302 H 809.994 0.74265 4.9324 0
M  V30 8303 H 809.148 -1.40414 5.90228 0
M  V30 8304 H 807.887 -1.49964 4.64071 0
M  V30 8305 H 806.892 0.655137 5.45883 0
M  V30 8306 H 808.117 0.734994 6.75111 0
M  V30 8307 H 806.063 -1.47992 6.39089 0
M  V30 8308 H 805.98 -0.200747 7.55733 0
M  V30 8309 H 807.248 -1.38447 7.67107 0
M  V30 8310 N 811.477 -1.49425 0.500989 0
M  V30 8311 C 812.723 -2.02753 -0.0436 0
M  V30 8312 C 813.056 -1.37991 -1.36646 0
M  V30 8313 O 812.331 -0.515597 -1.87542 0
M  V30 8314 C 812.614 -3.59565 -0.19616 0
M  V30 8315 C 812.467 -4.34855 1.14982 0
M  V30 8316 C 813.786 -4.30014 -0.936795 0
M  V30 8317 H 810.905 -0.73686 -0.0143711 0
M  V30 8318 H 813.547 -1.78448 0.652397 0
M  V30 8319 H 811.697 -3.80405 -0.788959 0
M  V30 8320 H 813.369 -4.25512 1.7815 0
M  V30 8321 H 811.612 -3.97414 1.73911 0
M  V30 8322 H 812.283 -5.42933 0.996385 0
M  V30 8323 H 814.759 -4.1383 -0.434036 0
M  V30 8324 H 813.635 -5.39483 -1.01238 0
M  V30 8325 H 813.896 -3.95257 -1.9805 0
M  V30 8326 N 812.955 -0.234822 -1.55841 0
M  V30 8327 C 813.903 0.686145 -2.22249 0
M  V30 8328 C 814.897 1.18948 -1.20614 0
M  V30 8329 O 816.103 1.14777 -1.38659 0
M  V30 8330 H 812.478 0.239724 -0.712767 0
M  V30 8331 H 814.449 0.102762 -2.98223 0
M  V30 8332 C 813.198 1.8776 -2.92646 0
M  V30 8333 H 812.521 1.49943 -3.70617 0
M  V30 8334 H 813.961 2.4995 -3.42493 0
M  V30 8335 C 812.42 2.74127 -1.95847 0
M  V30 8336 O 812.95 3.7329 -1.48384 0
M  V30 8337 N 811.156 2.4044 -1.63209 0
M  V30 8338 H 810.703 1.59854 -2.02001 0
M  V30 8339 H 810.661 2.98504 -0.987063 0
M  V30 8340 N 814.433 1.57553 0.0384317 0
M  V30 8341 C 815.681 1.88468 0.729672 0
M  V30 8342 C 816.002 0.831302 1.76393 0
M  V30 8343 O 815.272 -0.13622 1.95426 0
M  V30 8344 H 813.852 0.695529 0.272485 0
M  V30 8345 H 816.514 1.94899 0.0066032 0
M  V30 8346 H 815.61 2.8705 1.22511 0
M  V30 8347 N 815.911 -0.310526 1.54511 0
M  V30 8348 C 816.821 -1.4054 1.87844 0
M  V30 8349 C 817.837 -1.55954 0.771635 0
M  V30 8350 O 819.013 -1.70801 1.06719 0
M  V30 8351 C 816.078 -2.75063 2.11048 0
M  V30 8352 C 815.139 -2.68715 3.348 0
M  V30 8353 C 814.372 -3.96821 3.56887 0
M  V30 8354 O 814.595 -4.95721 2.82165 0
M  V30 8355 O 813.529 -3.99291 4.50389 0
M  V30 8356 H 817.355 -1.15275 2.80972 0
M  V30 8357 H 814.94 -0.505732 1.4058 0
M  V30 8358 H 816.822 -3.54671 2.27566 0
M  V30 8359 H 815.497 -3.00191 1.21108 0
M  V30 8360 H 814.404 -1.87611 3.23655 0
M  V30 8361 H 815.737 -2.4854 4.2484 0
M  V30 8362 N 817.389 -1.46805 -0.573248 0
M  V30 8363 C 818.8 -1.46655 -1.15539 0
M  V30 8364 C 819.151 -0.2125 -1.95046 0
M  V30 8365 O 818.276 0.683759 -2.05314 0
M  V30 8366 C 818.871 -2.65711 -2.10198 0
M  V30 8367 C 817.43 -2.68572 -2.63716 0
M  V30 8368 C 816.577 -2.39498 -1.39772 0
M  V30 8369 H 819.528 -1.54547 -0.36068 0
M  V30 8370 H 819.549 -2.41768 -2.93817 0
M  V30 8371 H 819.061 -3.56967 -1.52303 0
M  V30 8372 H 817.162 -1.81414 -3.25453 0
M  V30 8373 H 817.275 -3.68809 -3.05805 0
M  V30 8374 H 815.639 -1.89749 -1.69904 0
M  V30 8375 H 816.422 -3.32942 -0.836943 0
M  V30 8376 N 818.867 0.818669 -1.34668 0
M  V30 8377 C 820.095 1.60674 -1.30351 0
M  V30 8378 C 820.51 1.88408 0.121546 0
M  V30 8379 O 819.867 1.47849 1.06991 0
M  V30 8380 C 819.918 2.94516 -2.09625 0
M  V30 8381 O 819.639 2.6799 -3.46573 0
M  V30 8382 C 821.14 3.8891 -2.12754 0
M  V30 8383 H 818.36 0.499306 -0.448258 0
M  V30 8384 H 820.904 1.01828 -1.77345 0
M  V30 8385 H 819.059 3.49908 -1.66262 0
M  V30 8386 H 819.473 3.53361 -3.87603 0
M  V30 8387 H 820.947 4.79972 -2.72637 0
M  V30 8388 H 821.424 4.24599 -1.12306 0
M  V30 8389 H 822.03 3.39453 -2.56225 0
M  V30 8390 N 820.346 1.18468 1.03938 0
M  V30 8391 C 821.592 0.992302 1.77553 0
M  V30 8392 C 821.947 -0.472959 1.86496 0
M  V30 8393 O 821.24 -1.34662 1.36296 0
M  V30 8394 C 821.434 1.58229 3.20466 0
M  V30 8395 C 821.263 3.1034 3.25452 0
M  V30 8396 C 820.033 3.79166 3.34008 0
M  V30 8397 C 822.231 4.07814 3.13357 0
M  V30 8398 N 820.213 5.18768 3.28258 0
M  V30 8399 C 821.584 5.33946 3.15121 0
M  V30 8400 C 823.639 3.99315 2.97409 0
M  V30 8401 C 822.342 6.52565 3.02574 0
M  V30 8402 C 824.368 5.17532 2.86208 0
M  V30 8403 C 823.73 6.42557 2.88617 0
M  V30 8404 H 819.829 0.417131 0.661457 0
M  V30 8405 H 822.413 1.50265 1.23808 0
M  V30 8406 H 820.584 1.0981 3.72554 0
M  V30 8407 H 822.316 1.32531 3.82384 0
M  V30 8408 H 819.071 3.29905 3.39794 0
M  V30 8409 H 819.495 5.91783 3.28818 0
M  V30 8410 H 824.137 3.03485 2.94375 0
M  V30 8411 H 821.855 7.48592 3.0436 0
M  V30 8412 H 825.441 5.12748 2.7492 0
M  V30 8413 H 824.321 7.32494 2.80039 0
M  V30 8414 N 821.824 -1.22873 0.986916 0
M  V30 8415 C 822.787 -2.2281 0.537442 0
M  V30 8416 C 823.787 -1.56331 -0.37646 0
M  V30 8417 O 824.977 -1.73376 -0.169247 0
M  V30 8418 C 822.109 -3.40195 -0.219082 0
M  V30 8419 H 823.302 -2.64089 1.42116 0
M  V30 8420 H 820.855 -1.35819 0.773488 0
M  V30 8421 H 821.59 -3.04381 -1.11905 0
M  V30 8422 H 821.375 -3.89657 0.437026 0
M  V30 8423 H 822.865 -4.14326 -0.521926 0
M  V30 8424 N 823.302 -0.75937 -1.38099 0
M  V30 8425 C 824.232 -0.151077 -2.33011 0
M  V30 8426 C 825.213 0.697099 -1.5516 0
M  V30 8427 O 826.398 0.637101 -1.83452 0
M  V30 8428 C 823.528 0.738423 -3.39359 0
M  V30 8429 C 822.482 -0.0074741 -4.27999 0
M  V30 8430 C 821.808 1.00066 -5.25253 0
M  V30 8431 C 823.108 -1.17926 -5.08813 0
M  V30 8432 H 824.802 -0.943933 -2.84131 0
M  V30 8433 H 822.348 -0.455362 -1.36611 0
M  V30 8434 H 824.301 1.17369 -4.04725 0
M  V30 8435 H 823.025 1.56366 -2.86735 0
M  V30 8436 H 821.684 -0.423379 -3.64147 0
M  V30 8437 H 821.332 1.82012 -4.68914 0
M  V30 8438 H 821.032 0.506199 -5.85416 0
M  V30 8439 H 822.556 1.43512 -5.93495 0
M  V30 8440 H 823.97 -0.821262 -5.67387 0
M  V30 8441 H 822.367 -1.60497 -5.78239 0
M  V30 8442 H 823.437 -1.98938 -4.42212 0
M  V30 8443 N 824.78 1.49157 -0.508906 0
M  V30 8444 C 825.71 2.32109 0.254469 0
M  V30 8445 C 826.691 1.40754 0.955111 0
M  V30 8446 O 827.876 1.69658 0.944983 0
M  V30 8447 C 825.006 3.21458 1.3146 0
M  V30 8448 C 823.96 4.2167 0.733368 0
M  V30 8449 C 823.286 5.00009 1.8946 0
M  V30 8450 C 824.586 5.21544 -0.280875 0
M  V30 8451 H 826.28 2.9618 -0.43795 0
M  V30 8452 H 823.826 1.4243 -0.212062 0
M  V30 8453 H 825.779 3.78305 1.85643 0
M  V30 8454 H 824.503 2.55346 2.03632 0
M  V30 8455 H 823.162 3.65979 0.213231 0
M  V30 8456 H 822.81 4.30338 2.60419 0
M  V30 8457 H 822.51 5.67821 1.51173 0
M  V30 8458 H 824.034 5.59702 2.44061 0
M  V30 8459 H 825.448 5.73039 0.173095 0
M  V30 8460 H 823.845 5.97291 -0.580006 0
M  V30 8461 H 824.915 4.69969 -1.19404 0
M  V30 8462 N 826.258 0.243083 1.55714 0
M  V30 8463 C 827.188 -0.652336 2.24203 0
M  V30 8464 C 828.169 -1.1843 1.221 0
M  V30 8465 O 829.354 -1.22435 1.50743 0
M  V30 8466 C 826.484 -1.85111 2.93856 0
M  V30 8467 C 825.438 -1.45208 4.02615 0
M  V30 8468 C 824.764 -2.73137 4.59674 0
M  V30 8469 C 826.064 -0.625988 5.18535 0
M  V30 8470 H 827.758 -0.0812504 2.9929 0
M  V30 8471 H 825.304 -0.0376388 1.43951 0
M  V30 8472 H 827.257 -2.48314 3.40468 0
M  V30 8473 H 825.981 -2.44751 2.16251 0
M  V30 8474 H 824.64 -0.843406 3.56766 0
M  V30 8475 H 824.288 -3.30967 3.78774 0
M  V30 8476 H 823.988 -2.47163 5.33089 0
M  V30 8477 H 825.512 -3.37245 5.09017 0
M  V30 8478 H 826.926 -1.16223 5.61396 0
M  V30 8479 H 825.323 -0.462465 5.98315 0
M  V30 8480 H 826.393 0.362652 4.83542 0
M  V30 8481 N 827.736 -1.57571 -0.0300757 0
M  V30 8482 C 828.964 -1.93485 -0.732891 0
M  V30 8483 C 829.379 -0.842758 -1.68947 0
M  V30 8484 O 828.736 0.180904 -1.81601 0
M  V30 8485 C 828.787 -3.29328 -1.49082 0
M  V30 8486 O 828.508 -4.34341 -0.572639 0
M  V30 8487 C 830.009 -3.79517 -2.29088 0
M  V30 8488 H 827.229 -0.638588 -0.206026 0
M  V30 8489 H 829.773 -2.04496 0.0120966 0
M  V30 8490 H 827.928 -3.19716 -2.1877 0
M  V30 8491 H 828.342 -5.12748 -1.10406 0
M  V30 8492 H 829.816 -4.77081 -2.77665 0
M  V30 8493 H 830.293 -3.10659 -3.10464 0
M  V30 8494 H 830.899 -3.92208 -1.64477 0
M  V30 8495 N 829.214 0.302327 -1.54673 0
M  V30 8496 C 830.177 1.35592 -1.8479 0
M  V30 8497 C 831.177 1.43743 -0.72073 0
M  V30 8498 O 832.367 1.43402 -0.989017 0
M  V30 8499 C 829.499 2.74091 -2.02699 0
M  V30 8500 H 830.692 1.10132 -2.78946 0
M  V30 8501 H 828.245 0.538926 -1.46715 0
M  V30 8502 H 828.98 3.04775 -1.10826 0
M  V30 8503 H 828.765 2.69565 -2.8474 0
M  V30 8504 H 830.255 3.50272 -2.27374 0
M  V30 8505 N 830.692 1.47107 0.565454 0
M  V30 8506 C 831.622 1.61846 1.68309 0
M  V30 8507 C 832.603 0.468159 1.63531 0
M  V30 8508 O 833.788 0.696504 1.8128 0
M  V30 8509 C 830.918 1.62474 3.06952 0
M  V30 8510 C 829.872 2.76649 3.26572 0
M  V30 8511 C 829.198 2.62345 4.65917 0
M  V30 8512 C 830.498 4.18319 3.12741 0
M  V30 8513 H 832.192 2.55407 1.5623 0
M  V30 8514 H 829.738 1.22916 0.750179 0
M  V30 8515 H 831.691 1.71378 3.84977 0
M  V30 8516 H 830.415 0.654692 3.19971 0
M  V30 8517 H 829.074 2.67242 2.50952 0
M  V30 8518 H 828.722 1.63386 4.75725 0
M  V30 8519 H 828.422 3.38936 4.79996 0
M  V30 8520 H 829.946 2.73165 5.46089 0
M  V30 8521 H 831.36 4.28745 3.80593 0
M  V30 8522 H 829.757 4.95632 3.38333 0
M  V30 8523 H 830.827 4.37263 2.09592 0
M  V30 8524 N 832.17 -0.811516 1.35101 0
M  V30 8525 C 833.419 -1.56343 1.27435 0
M  V30 8526 C 833.732 -1.95019 -0.150696 0
M  V30 8527 O 834.938 -2.6924 -0.349586 0
M  V30 8528 C 833.394 -2.82124 2.23459 0
M  V30 8529 C 833.002 -2.50706 3.71283 0
M  V30 8530 C 834.746 -3.60137 2.24726 0
M  V30 8531 C 832.653 -3.72748 4.59143 0
M  V30 8532 H 831.583 -0.58682 0.473453 0
M  V30 8533 H 834.234 -0.892465 1.60335 0
M  V30 8534 H 832.616 -3.50905 1.83525 0
M  V30 8535 H 833.79 -1.89962 4.19823 0
M  V30 8536 H 832.105 -1.85947 3.72576 0
M  V30 8537 H 834.702 -4.50775 2.87587 0
M  V30 8538 H 835.045 -3.97101 1.24965 0
M  V30 8539 H 835.578 -2.98311 2.63164 0
M  V30 8540 H 832.317 -3.40896 5.59884 0
M  V30 8541 H 831.837 -4.32735 4.15332 0
M  V30 8542 H 833.516 -4.40033 4.74321 0
M  V30 8543 N 833.648 -1.19017 -1.03309 0
M  V30 8544 C 834.611 -0.926076 -2.09658 0
M  V30 8545 C 835.611 0.0917077 -1.60538 0
M  V30 8546 O 836.801 -0.142574 -1.73616 0
M  V30 8547 C 833.933 -0.390958 -3.38651 0
M  V30 8548 H 835.126 -1.86923 -2.3452 0
M  V30 8549 H 832.679 -1.00325 -1.19853 0
M  V30 8550 H 833.414 0.558446 -3.19456 0
M  V30 8551 H 833.199 -1.12474 -3.75622 0
M  V30 8552 H 834.689 -0.225131 -4.16993 0
M  V30 8553 N 835.127 1.22348 -0.993418 0
M  V30 8554 C 836.037 2.27987 -0.553076 0
M  V30 8555 C 837.053 1.69378 0.398386 0
M  V30 8556 O 838.229 1.99648 0.26509 0
M  V30 8557 C 835.294 3.46475 0.124809 0
M  V30 8558 C 834.355 4.20399 -0.869682 0
M  V30 8559 C 833.588 5.33229 -0.224052 0
M  V30 8560 O 833.811 5.61885 0.981915 0
M  V30 8561 O 832.745 5.94685 -0.929174 0
M  V30 8562 H 836.571 2.67822 -1.43195 0
M  V30 8563 H 834.156 1.28525 -0.761694 0
M  V30 8564 H 836.038 4.18369 0.504496 0
M  V30 8565 H 834.713 3.08565 0.978243 0
M  V30 8566 H 833.62 3.50774 -1.30031 0
M  V30 8567 H 834.953 4.62191 -1.69233 0
M  V30 8568 N 836.605 0.766683 1.37694 0
M  V30 8569 C 837.535 0.163432 2.32927 0
M  V30 8570 C 838.516 -0.688861 1.55527 0
M  V30 8571 O 839.701 -0.627363 1.83787 0
M  V30 8572 C 836.831 -0.720416 3.39746 0
M  V30 8573 C 835.785 0.0301718 4.27989 0
M  V30 8574 C 835.111 -0.972788 5.25776 0
M  V30 8575 C 836.411 1.20623 5.0818 0
M  V30 8576 H 838.105 0.958988 2.83626 0
M  V30 8577 H 835.651 0.462601 1.36367 0
M  V30 8578 H 837.604 -1.15221 4.05342 0
M  V30 8579 H 836.328 -1.54844 2.8756 0
M  V30 8580 H 834.987 0.442685 3.63917 0
M  V30 8581 H 834.635 -1.79522 4.69873 0
M  V30 8582 H 834.335 -0.475145 5.85676 0
M  V30 8583 H 835.859 -1.40362 5.94248 0
M  V30 8584 H 837.273 0.851341 5.66944 0
M  V30 8585 H 835.67 1.63561 5.7738 0
M  V30 8586 H 836.74 2.01281 4.41151 0
M  V30 8587 N 838.083 -1.48885 0.516809 0
M  V30 8588 C 839.331 -2.02088 -0.0220166 0
M  V30 8589 C 839.652 -1.39735 -1.36011 0
M  V30 8590 O 838.922 -0.558119 -1.87781 0
M  V30 8591 H 837.502 -0.746917 -0.0111255 0
M  V30 8592 H 840.164 -1.8274 0.677647 0
M  V30 8593 H 839.26 -3.11786 -0.140067 0
M  V30 8594 N 839.561 -0.251338 -1.55583 0
M  V30 8595 C 840.81 0.372681 -1.98227 0
M  V30 8596 C 841.123 1.58743 -1.1428 0
M  V30 8597 O 842.329 2.28289 -1.46957 0
M  V30 8598 C 840.785 0.714439 -3.52738 0
M  V30 8599 C 840.393 -0.479168 -4.4543 0
M  V30 8600 C 842.137 1.3024 -4.04027 0
M  V30 8601 C 840.044 -0.113318 -5.91291 0
M  V30 8602 H 838.974 0.14302 -0.740312 0
M  V30 8603 H 841.625 -0.352253 -1.80087 0
M  V30 8604 H 840.007 1.49762 -3.66589 0
M  V30 8605 H 841.181 -1.25644 -4.4334 0
M  V30 8606 H 839.496 -0.982359 -4.04646 0
M  V30 8607 H 842.093 1.58953 -5.10527 0
M  V30 8608 H 842.436 2.22837 -3.51638 0
M  V30 8609 H 842.969 0.582024 -3.93519 0
M  V30 8610 H 839.708 -1.00654 -6.47726 0
M  V30 8611 H 839.228 0.627666 -5.96507 0
M  V30 8612 H 840.907 0.30293 -6.4629 0
M  V30 8613 N 841.039 1.57585 0.0217189 0
M  V30 8614 C 841.969 2.10073 1.01939 0
M  V30 8615 C 842.95 1.0049 1.37243 0
M  V30 8616 O 844.135 1.28055 1.45999 0
M  V30 8617 C 841.265 2.58618 2.31806 0
M  V30 8618 C 840.219 3.72531 2.10724 0
M  V30 8619 C 839.545 4.07309 3.46415 0
M  V30 8620 C 840.845 5.00672 1.48743 0
M  V30 8621 H 842.539 2.9368 0.582432 0
M  V30 8622 H 840.085 1.41277 0.278715 0
M  V30 8623 H 842.038 2.9396 3.01936 0
M  V30 8624 H 840.762 1.72104 2.77575 0
M  V30 8625 H 839.421 3.37549 1.43025 0
M  V30 8626 H 839.069 3.17851 3.89846 0
M  V30 8627 H 838.769 4.84042 3.33132 0
M  V30 8628 H 840.293 4.45192 4.17895 0
M  V30 8629 H 841.707 5.33925 2.088 0
M  V30 8630 H 840.104 5.82065 1.46013 0
M  V30 8631 H 841.174 4.82769 0.45408 0
M  V30 8632 N 842.517 -0.29412 1.54831 0
M  V30 8633 C 843.766 -1.02614 1.73647 0
M  V30 8634 C 844.079 -1.88193 0.533162 0
M  V30 8635 O 845.285 -2.64713 0.603275 0
M  V30 8636 C 843.741 -1.87417 3.07251 0
M  V30 8637 C 843.349 -1.06806 4.35082 0
M  V30 8638 C 845.093 -2.60176 3.35423 0
M  V30 8639 C 843 -1.90926 5.59733 0
M  V30 8640 H 841.93 -0.386834 0.647206 0
M  V30 8641 H 844.581 -0.282789 1.81308 0
M  V30 8642 H 842.963 -2.65765 2.93572 0
M  V30 8643 H 844.137 -0.330226 4.59615 0
M  V30 8644 H 842.452 -0.455979 4.13896 0
M  V30 8645 H 845.049 -3.23476 4.25755 0
M  V30 8646 H 845.392 -3.29365 2.54606 0
M  V30 8647 H 845.925 -1.88871 3.50103 0
M  V30 8648 H 842.664 -1.26194 6.43238 0
M  V30 8649 H 842.184 -2.62363 5.39375 0
M  V30 8650 H 843.863 -2.48807 5.97247 0
M  V30 8651 N 843.995 -1.47404 -0.557645 0
M  V30 8652 C 844.958 -1.59411 -1.64684 0
M  V30 8653 C 845.958 -0.469244 -1.53801 0
M  V30 8654 O 847.148 -0.734298 -1.57967 0
M  V30 8655 C 844.28 -1.5382 -3.04224 0
M  V30 8656 H 845.473 -2.56504 -1.55389 0
M  V30 8657 H 843.026 -1.35588 -0.777531 0
M  V30 8658 H 843.761 -0.581 -3.19053 0
M  V30 8659 H 843.546 -2.35456 -3.13533 0
M  V30 8660 H 845.036 -1.65358 -3.83466 0
M  V30 8661 N 845.473 0.80434 -1.35529 0
M  V30 8662 C 846.698 1.598 -1.32207 0
M  V30 8663 C 847.123 1.87848 0.0974226 0
M  V30 8664 O 846.481 1.46728 1.06492 0
M  V30 8665 C 846.529 2.90483 -2.13663 0
M  V30 8666 O 845.633 3.83411 -1.51888 0
M  V30 8667 H 844.974 0.485305 -0.453183 0
M  V30 8668 H 847.504 0.998119 -1.78602 0
M  V30 8669 H 847.514 3.39888 -2.257 0
M  V30 8670 H 846.189 2.69395 -3.16859 0
M  V30 8671 H 844.766 3.41967 -1.48704 0
M  V30 8672 N 846.951 1.19563 1.02676 0
M  V30 8673 C 847.881 0.959024 2.12897 0
M  V30 8674 C 848.862 -0.108382 1.69754 0
M  V30 8675 O 850.047 0.0470698 1.94143 0
M  V30 8676 C 847.177 0.499211 3.43693 0
M  V30 8677 C 846.131 1.5087 4.00528 0
M  V30 8678 C 845.457 0.905884 5.2697 0
M  V30 8679 C 846.757 2.88954 4.3509 0
M  V30 8680 H 848.451 1.88084 2.32948 0
M  V30 8681 H 845.997 0.905731 1.11949 0
M  V30 8682 H 847.95 0.320965 4.20176 0
M  V30 8683 H 846.674 -0.458205 3.2337 0
M  V30 8684 H 845.333 1.67413 3.26142 0
M  V30 8685 H 844.981 -0.0591506 5.02965 0
M  V30 8686 H 844.681 1.58 5.65959 0
M  V30 8687 H 846.205 0.73848 6.06118 0
M  V30 8688 H 847.619 2.75981 5.02501 0
M  V30 8689 H 846.016 3.53177 4.85166 0
M  V30 8690 H 847.086 3.41447 3.44299 0
M  V30 8691 N 848.429 -1.21819 0.999893 0
M  V30 8692 C 849.706 -1.86318 0.595384 0
M  V30 8693 C 850.086 -1.8965 -0.927143 0
M  V30 8694 O 849.434 -1.3921 -1.81199 0
M  V30 8695 C 849.644 -3.26837 1.22387 0
M  V30 8696 C 850.992 -4.03272 1.32878 0
M  V30 8697 O 852.016 -3.36129 1.1788 0
M  V30 8698 O 850.875 -5.23477 1.56952 0
M  V30 8699 H 847.969 -0.801638 0.203238 0
M  V30 8700 H 850.515 -1.29542 1.09622 0
M  V30 8701 H 849.287 -3.19084 2.26497 0
M  V30 8702 H 848.91 -3.91226 0.709069 0
M  V30 8703 N 849.908 -0.773975 -1.37286 0
M  V30 8704 C 850.841 -0.108019 -2.27944 0
M  V30 8705 C 851.819 0.706737 -1.46438 0
M  V30 8706 O 853.003 0.681025 -1.75768 0
M  V30 8707 C 850.13 0.853199 -3.27778 0
M  V30 8708 C 849.176 0.122164 -4.26325 0
M  V30 8709 S 850.009 -1.19136 -5.22079 0
M  V30 8710 C 851.165 -0.233737 -6.25463 0
M  V30 8711 H 851.398 -0.876743 -2.84078 0
M  V30 8712 H 848.931 -0.567468 -1.43594 0
M  V30 8713 H 850.889 1.40238 -3.85803 0
M  V30 8714 H 849.55 1.59505 -2.70586 0
M  V30 8715 H 848.743 0.850926 -4.96765 0
M  V30 8716 H 848.345 -0.356079 -3.72301 0
M  V30 8717 H 850.637 0.59305 -6.74899 0
M  V30 8718 H 851.58 -0.906373 -7.02275 0
M  V30 8719 H 851.988 0.156048 -5.64284 0
M  V30 8720 N 851.386 1.48609 -0.524698 0
M  V30 8721 C 852.632 2.02797 0.0113382 0
M  V30 8722 C 852.965 1.40147 1.34433 0
M  V30 8723 O 852.24 0.545368 1.86698 0
M  V30 8724 C 852.523 3.59832 0.138931 0
M  V30 8725 C 852.376 4.32971 -1.21886 0
M  V30 8726 C 853.695 4.3145 0.868265 0
M  V30 8727 H 850.814 0.736995 0.00264645 0
M  V30 8728 H 853.456 1.77388 -0.680704 0
M  V30 8729 H 851.606 3.81612 0.72834 0
M  V30 8730 H 853.278 4.22624 -1.84897 0
M  V30 8731 H 851.521 3.94597 -1.80211 0
M  V30 8732 H 852.192 5.41279 -1.08263 0
M  V30 8733 H 854.668 4.14468 0.368145 0
M  V30 8734 H 853.544 5.41025 0.926428 0
M  V30 8735 H 853.805 3.98358 1.91737 0
M  V30 8736 N 852.864 0.259585 1.55447 0
M  V30 8737 C 853.827 -0.621359 2.20617 0
M  V30 8738 C 854.827 -1.09317 1.17925 0
M  V30 8739 O 856.017 -0.995842 1.42929 0
M  V30 8740 C 853.149 -1.85546 2.85982 0
M  V30 8741 H 854.342 -0.0525833 2.99854 0
M  V30 8742 H 851.895 0.0101055 1.56297 0
M  V30 8743 H 852.63 -2.46515 2.10715 0
M  V30 8744 H 852.415 -1.52523 3.61219 0
M  V30 8745 H 853.905 -2.48227 3.35817 0
M  V30 8746 N 854.342 -1.57594 -0.0133615 0
M  V30 8747 C 855.753 -1.78168 -0.557937 0
M  V30 8748 C 856.104 -0.892616 -1.74719 0
M  V30 8749 O 855.229 -0.0915491 -2.16206 0
M  V30 8750 C 855.824 -3.23115 -1.01894 0
M  V30 8751 C 854.383 -3.44831 -1.50892 0
M  V30 8752 C 853.53 -2.73558 -0.454044 0
M  V30 8753 H 856.481 -1.57266 0.212843 0
M  V30 8754 H 856.502 -3.30493 -1.8856 0
M  V30 8755 H 856.014 -3.87798 -0.153175 0
M  V30 8756 H 854.115 -2.85345 -2.39602 0
M  V30 8757 H 854.228 -4.53485 -1.54559 0
M  V30 8758 H 852.592 -2.37787 -0.912666 0
M  V30 8759 H 853.375 -3.40932 0.402524 0
M  V30 8760 N 855.82 0.285905 -1.54985 0
M  V30 8761 C 857.069 1.01691 -1.74189 0
M  V30 8762 C 857.382 1.87908 -0.543135 0
M  V30 8763 O 858.588 2.64389 -0.617305 0
M  V30 8764 C 857.044 1.85785 -3.0824 0
M  V30 8765 C 856.652 1.04497 -4.35642 0
M  V30 8766 C 858.396 2.58393 -3.36798 0
M  V30 8767 C 856.303 1.87955 -5.60738 0
M  V30 8768 H 855.233 0.383396 -0.649248 0
M  V30 8769 H 857.884 0.27317 -1.81455 0
M  V30 8770 H 856.266 2.64205 -2.94978 0
M  V30 8771 H 857.44 0.305847 -4.59784 0
M  V30 8772 H 855.755 0.434023 -4.14132 0
M  V30 8773 H 858.352 3.21214 -4.27464 0
M  V30 8774 H 858.695 3.28011 -2.56349 0
M  V30 8775 H 859.228 1.87012 -3.511 0
M  V30 8776 H 855.967 1.22781 -6.43898 0
M  V30 8777 H 855.487 2.59499 -5.40759 0
M  V30 8778 H 857.166 2.45636 -5.98558 0
M  V30 8779 N 857.298 1.47698 0.54982 0
M  V30 8780 C 858.228 1.63622 1.66583 0
M  V30 8781 C 859.209 0.485477 1.63025 0
M  V30 8782 O 860.394 0.715692 1.80531 0
M  V30 8783 C 857.524 1.65721 3.05211 0
M  V30 8784 C 856.478 2.80097 3.2362 0
M  V30 8785 C 855.804 2.67272 4.63109 0
M  V30 8786 C 857.104 4.21612 3.08286 0
M  V30 8787 H 858.798 2.57049 1.53512 0
M  V30 8788 H 856.344 1.23705 0.737099 0
M  V30 8789 H 858.297 1.75451 3.83138 0
M  V30 8790 H 857.021 0.688593 3.19258 0
M  V30 8791 H 855.68 2.69889 2.48104 0
M  V30 8792 H 855.328 1.68422 4.73965 0
M  V30 8793 H 855.028 3.44008 4.76374 0
M  V30 8794 H 856.552 2.78942 5.43161 0
M  V30 8795 H 857.966 4.32758 3.76024 0
M  V30 8796 H 856.363 4.99193 3.33057 0
M  V30 8797 H 857.433 4.39462 2.04942 0
M  V30 8798 N 858.776 -0.797141 1.35954 0
M  V30 8799 C 860.001 -1.59097 1.33053 0
M  V30 8800 C 860.426 -1.87897 -0.0874592 0
M  V30 8801 O 859.784 -1.47291 -1.05712 0
M  V30 8802 C 859.832 -2.89346 2.152 0
M  V30 8803 O 858.936 -3.826 1.5392 0
M  V30 8804 H 858.277 -0.482895 0.45575 0
M  V30 8805 H 860.807 -0.988633 1.79129 0
M  V30 8806 H 860.817 -3.38686 2.27499 0
M  V30 8807 H 859.492 -2.6771 3.18283 0
M  V30 8808 H 858.069 -3.41174 1.50516 0
M  V30 8809 N 860.254 -1.20106 -1.0204 0
M  V30 8810 C 861.187 -0.889795 -2.10138 0
M  V30 8811 C 862.165 0.156595 -1.61844 0
M  V30 8812 O 863.349 0.0310192 -1.88474 0
M  V30 8813 C 860.476 -0.333227 -3.37057 0
M  V30 8814 C 859.522 -1.36001 -4.04235 0
M  V30 8815 S 860.355 -2.92366 -4.48645 0
M  V30 8816 C 861.511 -2.38274 -5.78771 0
M  V30 8817 H 861.744 -1.80523 -2.36217 0
M  V30 8818 H 859.277 -1.02912 -1.15102 0
M  V30 8819 H 861.235 -0.0186507 -4.10496 0
M  V30 8820 H 859.896 0.560652 -3.09056 0
M  V30 8821 H 859.089 -0.919874 -4.95534 0
M  V30 8822 H 858.691 -1.62186 -3.37004 0
M  V30 8823 H 860.983 -1.77799 -6.53754 0
M  V30 8824 H 861.926 -3.27955 -6.27576 0
M  V30 8825 H 862.334 -1.8054 -5.34851 0
M  V30 8826 N 861.732 1.21287 -1.00634 0
M  V30 8827 C 862.979 1.90389 -0.6898 0
M  V30 8828 C 863.307 1.78193 0.779574 0
M  V30 8829 O 862.562 1.15358 1.58085 0
M  V30 8830 C 862.861 3.41374 -1.05824 0
M  V30 8831 C 862.527 3.73766 -2.5221 0
M  V30 8832 C 861.189 3.82317 -2.92211 0
M  V30 8833 C 863.541 3.88871 -3.47028 0
M  V30 8834 C 860.869 4.03423 -4.2599 0
M  V30 8835 C 863.221 4.11484 -4.80483 0
M  V30 8836 C 861.885 4.18263 -5.20204 0
M  V30 8837 H 861.155 0.696683 -0.252416 0
M  V30 8838 H 863.802 1.43769 -1.26502 0
M  V30 8839 H 862.107 3.8974 -0.401281 0
M  V30 8840 H 863.804 3.93118 -0.79116 0
M  V30 8841 H 860.394 3.67702 -2.20212 0
M  V30 8842 H 864.578 3.8163 -3.17289 0
M  V30 8843 H 859.834 4.06902 -4.56334 0
M  V30 8844 H 864.008 4.22115 -5.53888 0
M  V30 8845 H 861.635 4.34369 -6.23881 0
M  V30 8846 N 863.21 0.781244 1.36873 0
M  V30 8847 C 864.457 0.349889 1.99454 0
M  V30 8848 C 864.785 -1.07621 1.62013 0
M  V30 8849 O 864.04 -1.75665 0.86258 0
M  V30 8850 C 864.339 0.45146 3.54537 0
M  V30 8851 C 864.005 1.83718 4.11775 0
M  V30 8852 C 862.667 2.21634 4.2712 0
M  V30 8853 C 865.019 2.7449 4.43063 0
M  V30 8854 C 862.347 3.49742 4.7106 0
M  V30 8855 C 864.699 4.02017 4.88431 0
M  V30 8856 C 863.363 4.39967 5.01982 0
M  V30 8857 H 862.633 0.128033 0.729855 0
M  V30 8858 H 865.28 0.997117 1.63493 0
M  V30 8859 H 863.585 -0.279288 3.90803 0
M  V30 8860 H 865.282 0.0988609 4.00878 0
M  V30 8861 H 861.872 1.53251 4.00265 0
M  V30 8862 H 866.056 2.46453 4.30783 0
M  V30 8863 H 861.312 3.79026 4.79738 0
M  V30 8864 H 865.486 4.72475 5.11605 0
M  V30 8865 H 863.113 5.39291 5.35788 0
M  V30 8866 N 864.689 -1.48329 0.532571 0
M  V30 8867 C 865.619 -2.32485 -0.217511 0
M  V30 8868 C 866.6 -1.42255 -0.932598 0
M  V30 8869 O 867.785 -1.7114 -0.917873 0
M  V30 8870 C 864.915 -3.23509 -1.26329 0
M  V30 8871 C 863.869 -4.22784 -0.666191 0
M  V30 8872 C 863.195 -5.0296 -1.81482 0
M  V30 8873 C 864.495 -5.21031 0.363813 0
M  V30 8874 H 866.189 -2.95445 0.485014 0
M  V30 8875 H 863.735 -1.42075 0.234694 0
M  V30 8876 H 865.688 -3.81211 -1.79601 0
M  V30 8877 H 864.412 -2.58554 -1.99543 0
M  V30 8878 H 863.071 -3.66272 -0.15498 0
M  V30 8879 H 862.719 -4.34427 -2.5354 0
M  V30 8880 H 862.419 -5.70154 -1.4212 0
M  V30 8881 H 863.943 -5.63514 -2.35126 0
M  V30 8882 H 865.357 -5.73241 -0.0819079 0
M  V30 8883 H 863.754 -5.96292 0.674956 0
M  V30 8884 H 864.824 -4.6801 1.26865 0
M  V30 8885 N 866.167 -0.267825 -1.55308 0
M  V30 8886 C 867.1 0.663973 -2.18327 0
M  V30 8887 C 868.078 1.15759 -1.14187 0
M  V30 8888 O 869.262 1.23189 -1.42677 0
M  V30 8889 C 866.389 1.9047 -2.8007 0
M  V30 8890 C 865.435 1.54718 -3.97447 0
M  V30 8891 S 866.268 0.631654 -5.31762 0
M  V30 8892 C 867.424 1.88092 -5.96969 0
M  V30 8893 H 867.657 0.128486 -2.97022 0
M  V30 8894 H 865.19 -0.052129 -1.54312 0
M  V30 8895 H 867.148 2.61688 -3.16275 0
M  V30 8896 H 865.809 2.41132 -2.01281 0
M  V30 8897 H 865.002 2.47022 -4.39313 0
M  V30 8898 H 864.604 0.915254 -3.62628 0
M  V30 8899 H 866.896 2.82572 -6.15759 0
M  V30 8900 H 867.839 1.50539 -6.91913 0
M  V30 8901 H 868.247 2.04254 -5.26252 0
M  V30 8902 N 867.645 1.57599 0.00500368 0
M  V30 8903 C 868.885 1.92205 0.695456 0
M  V30 8904 C 869.249 0.868894 1.71214 0
M  V30 8905 O 870.45 1.10004 2.4526 0
M  V30 8906 C 868.721 3.31882 1.32625 0
M  V30 8907 S 870.28 3.88364 2.04252 0
M  V30 8908 H 867.098 0.672826 0.22984 0
M  V30 8909 H 869.7 1.95435 -0.0504824 0
M  V30 8910 H 868.404 4.06375 0.573396 0
M  V30 8911 H 867.935 3.32013 2.11023 0
M  V30 8912 H 869.95 3.69035 3.31704 0
M  V30 8913 N 869.123 -0.277682 1.55134 0
M  V30 8914 C 870.353 -1.02677 1.79279 0
M  V30 8915 C 870.761 -1.80599 0.563962 0
M  V30 8916 O 870.104 -1.77416 -0.476378 0
M  V30 8917 C 870.166 -2.03617 2.96277 0
M  V30 8918 C 869.83 -1.44676 4.33495 0
M  V30 8919 C 870.827 -0.864811 5.12657 0
M  V30 8920 C 868.512 -1.47537 4.80144 0
M  V30 8921 C 870.506 -0.319322 6.366 0
M  V30 8922 C 868.193 -0.926016 6.04043 0
M  V30 8923 C 869.191 -0.348988 6.82108 0
M  V30 8924 O 868.879 0.191964 8.03671 0
M  V30 8925 H 868.611 -0.309232 0.601125 0
M  V30 8926 H 871.165 -0.315308 2.02965 0
M  V30 8927 H 869.395 -2.78509 2.68272 0
M  V30 8928 H 871.084 -2.64616 3.07788 0
M  V30 8929 H 871.85 -0.835438 4.7775 0
M  V30 8930 H 867.729 -1.91389 4.19394 0
M  V30 8931 H 871.273 0.131709 6.97476 0
M  V30 8932 H 867.17 -0.952613 6.38432 0
M  V30 8933 H 867.938 0.0808779 8.1846 0
M  V30 8934 N 870.601 -1.47988 -0.541979 0
M  V30 8935 C 871.531 -1.64503 -1.65713 0
M  V30 8936 C 872.512 -0.494116 -1.62765 0
M  V30 8937 O 873.697 -0.725256 -1.80149 0
M  V30 8938 C 870.827 -1.67337 -3.04328 0
M  V30 8939 C 869.781 -2.81809 -3.2213 0
M  V30 8940 C 869.107 -2.69724 -4.61685 0
M  V30 8941 C 870.407 -4.23241 -3.06046 0
M  V30 8942 H 872.101 -2.5786 -1.52147 0
M  V30 8943 H 869.647 -1.24094 -0.730529 0
M  V30 8944 H 871.6 -1.77481 -3.82202 0
M  V30 8945 H 870.324 -0.705514 -3.18889 0
M  V30 8946 H 868.983 -2.71201 -2.46669 0
M  V30 8947 H 868.631 -1.70934 -4.73065 0
M  V30 8948 H 868.331 -3.4653 -4.74543 0
M  V30 8949 H 869.855 -2.81818 -5.41674 0
M  V30 8950 H 871.269 -4.34746 -3.73723 0
M  V30 8951 H 869.666 -5.00952 -3.30405 0
M  V30 8952 H 870.736 -4.40543 -2.02609 0
M  V30 8953 N 872.079 0.78992 -1.36375 0
M  V30 8954 C 873.326 1.54777 -1.30576 0
M  V30 8955 C 873.654 1.94159 0.115095 0
M  V30 8956 O 872.909 1.62918 1.08426 0
M  V30 8957 C 873.208 2.83698 -2.17371 0
M  V30 8958 C 872.874 2.63457 -3.65925 0
M  V30 8959 C 871.536 2.57645 -4.06415 0
M  V30 8960 C 873.888 2.44833 -4.60115 0
M  V30 8961 C 871.216 2.31174 -5.39236 0
M  V30 8962 C 873.568 2.19889 -5.93154 0
M  V30 8963 C 872.232 2.1251 -6.32768 0
M  V30 8964 H 871.502 0.566371 -0.477813 0
M  V30 8965 H 874.149 0.91138 -1.68422 0
M  V30 8966 H 872.454 3.51802 -1.72459 0
M  V30 8967 H 874.151 3.41487 -2.10209 0
M  V30 8968 H 870.741 2.68836 -3.33804 0
M  V30 8969 H 874.925 2.48325 -4.29707 0
M  V30 8970 H 870.181 2.23942 -5.68911 0
M  V30 8971 H 874.355 2.04473 -6.65705 0
M  V30 8972 H 871.982 1.91761 -7.35616 0
M  V30 8973 N 873.557 1.20646 1.01402 0
M  V30 8974 C 874.803 1.0197 1.753 0
M  V30 8975 C 875.136 -0.446803 1.8899 0
M  V30 8976 O 874.411 -1.33169 1.41762 0
M  V30 8977 C 874.694 1.70693 3.17074 0
M  V30 8978 C 874.547 3.24805 3.11162 0
M  V30 8979 C 875.866 1.44212 4.15802 0
M  V30 8980 H 872.985 0.371844 0.636318 0
M  V30 8981 H 875.627 1.48696 1.18277 0
M  V30 8982 H 873.777 1.30968 3.65759 0
M  V30 8983 H 875.449 3.73841 2.70261 0
M  V30 8984 H 873.692 3.55576 2.48492 0
M  V30 8985 H 874.363 3.68049 4.11393 0
M  V30 8986 H 876.839 1.7868 3.75783 0
M  V30 8987 H 875.715 1.94825 5.13161 0
M  V30 8988 H 875.976 0.370252 4.40547 0
M  V30 8989 N 875.035 -1.20752 1.01276 0
M  V30 8990 C 875.983 -2.25432 0.572989 0
M  V30 8991 C 876.977 -1.64935 -0.386354 0
M  V30 8992 O 878.183 -1.7816 -0.256696 0
M  V30 8993 H 874.558 -0.733229 0.166972 0
M  V30 8994 H 876.529 -2.59856 1.46687 0
M  V30 8995 C 875.278 -3.47615 -0.0768249 0
M  V30 8996 H 874.601 -3.94442 0.652354 0
M  V30 8997 H 876.041 -4.22572 -0.3477 0
M  V30 8998 C 874.5 -3.1003 -1.31845 0
M  V30 8999 O 875.03 -3.21216 -2.41211 0
M  V30 9000 N 873.236 -2.64616 -1.20111 0
M  V30 9001 H 872.783 -2.55714 -0.311184 0
M  V30 9002 H 872.741 -2.39838 -2.03286 0
M  V30 9003 N 876.513 -0.788492 -1.36457 0
M  V30 9004 C 877.443 -0.200468 -2.32638 0
M  V30 9005 C 878.424 0.664031 -1.56603 0
M  V30 9006 O 879.609 0.598045 -1.84762 0
M  V30 9007 C 876.739 0.666274 -3.40849 0
M  V30 9008 C 875.693 -0.0982574 -4.27887 0
M  V30 9009 C 875.019 0.889018 -5.27258 0
M  V30 9010 C 876.319 -1.28692 -5.06197 0
M  V30 9011 H 878.013 -1.00399 -2.82065 0
M  V30 9012 H 875.559 -0.484237 -1.35614 0
M  V30 9013 H 877.512 1.08757 -4.07124 0
M  V30 9014 H 876.236 1.50249 -2.89987 0
M  V30 9015 H 874.895 -0.500525 -3.63167 0
M  V30 9016 H 874.543 1.72024 -4.7267 0
M  V30 9017 H 874.243 0.381909 -5.86358 0
M  V30 9018 H 875.767 1.30891 -5.96406 0
M  V30 9019 H 877.181 -0.941429 -5.65517 0
M  V30 9020 H 875.578 -1.72726 -5.74705 0
M  V30 9021 H 876.648 -2.08273 -4.37893 0
M  V30 9022 N 877.991 1.48044 -0.54043 0
M  V30 9023 C 878.954 2.28273 0.205966 0
M  V30 9024 C 879.954 1.35983 0.858209 0
M  V30 9025 O 881.144 1.58776 0.716651 0
M  V30 9026 C 878.276 3.15174 1.29917 0
M  V30 9027 H 879.469 2.95727 -0.498555 0
M  V30 9028 H 877.022 1.53457 -0.296745 0
M  V30 9029 H 877.757 2.52374 2.03661 0
M  V30 9030 H 877.542 3.83074 0.836475 0
M  V30 9031 H 879.032 3.75666 1.82387 0
M  V30 9032 N 879.47 0.276058 1.55163 0
M  V30 9033 C 880.71 -0.341634 2.01525 0
M  V30 9034 C 881.074 -1.52979 1.16023 0
M  V30 9035 O 882.275 -2.21718 1.51968 0
M  V30 9036 C 880.546 -0.713294 3.5021 0
M  V30 9037 S 882.105 -1.31739 4.18558 0
M  V30 9038 H 878.923 -0.1062 0.703024 0
M  V30 9039 H 881.525 0.398112 1.91404 0
M  V30 9040 H 880.229 0.160311 4.10087 0
M  V30 9041 H 879.76 -1.48448 3.64317 0
M  V30 9042 H 881.775 -2.60595 4.22261 0
M  V30 9043 N 880.948 -1.576 0.00335426 0
M  V30 9044 C 881.911 -2.07576 -0.971838 0
M  V30 9045 C 882.911 -0.985796 -1.27038 0
M  V30 9046 O 884.101 -1.24833 -1.21501 0
M  V30 9047 C 881.233 -2.52003 -2.29581 0
M  V30 9048 H 882.426 -2.95008 -0.539481 0
M  V30 9049 H 879.979 -1.54381 -0.244186 0
M  V30 9050 H 880.714 -1.67825 -2.77498 0
M  V30 9051 H 880.499 -3.31609 -2.09231 0
M  V30 9052 H 881.989 -2.90983 -2.99531 0
M  V30 9053 N 882.426 0.269451 -1.5528 0
M  V30 9054 C 883.672 1.00206 -1.76314 0
M  V30 9055 C 884.005 1.85812 -0.564581 0
M  V30 9056 O 883.28 1.89509 0.437769 0
M  V30 9057 C 883.563 1.88163 -3.07029 0
M  V30 9058 C 883.416 1.05527 -4.37246 0
M  V30 9059 C 884.735 2.8681 -3.33808 0
M  V30 9060 H 881.854 0.36288 -0.641473 0
M  V30 9061 H 884.496 0.274188 -1.88011 0
M  V30 9062 H 882.646 2.50224 -2.97187 0
M  V30 9063 H 884.318 0.455094 -4.5905 0
M  V30 9064 H 882.561 0.358842 -4.32313 0
M  V30 9065 H 883.232 1.70397 -5.25042 0
M  V30 9066 H 885.708 2.34884 -3.43466 0
M  V30 9067 H 884.584 3.45492 -4.26528 0
M  V30 9068 H 884.845 3.62118 -2.5362 0
M  V30 9069 N 883.904 1.48273 0.534124 0
M  V30 9070 C 884.836 1.5857 1.65494 0
M  V30 9071 C 885.849 0.470266 1.5586 0
M  V30 9072 O 887.038 0.740928 1.62396 0
M  V30 9073 C 884.138 1.49554 3.04117 0
M  V30 9074 C 883.311 2.76066 3.39273 0
M  V30 9075 C 882.37 2.60562 4.57159 0
M  V30 9076 O 881.396 3.34438 4.60587 0
M  V30 9077 N 882.598 1.69906 5.55079 0
M  V30 9078 H 885.363 2.55226 1.57099 0
M  V30 9079 H 882.924 1.44944 0.721303 0
M  V30 9080 H 884.916 1.36882 3.80848 0
M  V30 9081 H 883.486 0.608895 3.06613 0
M  V30 9082 H 882.706 3.03332 2.51761 0
M  V30 9083 H 883.994 3.60006 3.59546 0
M  V30 9084 H 883.392 1.09079 5.55084 0
M  V30 9085 H 881.949 1.63175 6.31044 0
M  V30 9086 N 885.382 -0.782676 1.36792 0
M  V30 9087 C 886.61 -1.57162 1.34565 0
M  V30 9088 C 887.025 -1.88664 -0.0715501 0
M  V30 9089 O 886.382 -1.50633 -1.03033 0
M  V30 9090 C 886.433 -2.88854 2.1736 0
M  V30 9091 O 886.154 -2.58707 3.53557 0
M  V30 9092 C 887.655 -3.83132 2.2299 0
M  V30 9093 H 884.875 -0.487245 0.461338 0
M  V30 9094 H 887.419 -0.970905 1.79982 0
M  V30 9095 H 885.574 -3.45377 1.7548 0
M  V30 9096 H 885.988 -3.42961 3.96835 0
M  V30 9097 H 887.462 -4.72575 2.85266 0
M  V30 9098 H 887.939 -4.21472 1.23524 0
M  V30 9099 H 888.545 -3.32541 2.65135 0
M  V30 9100 N 886.86 -1.21182 -1.00761 0
M  V30 9101 C 887.79 -0.992773 -2.11344 0
M  V30 9102 C 888.771 0.0813618 -1.69905 0
M  V30 9103 O 889.956 -0.0779503 -1.94043 0
M  V30 9104 C 887.086 -0.553826 -3.42856 0
M  V30 9105 C 886.04 -1.57223 -3.98077 0
M  V30 9106 C 885.366 -0.989605 -5.25463 0
M  V30 9107 C 886.666 -2.95839 -4.30438 0
M  V30 9108 H 888.36 -1.91766 -2.29927 0
M  V30 9109 H 885.906 -0.923426 -1.10494 0
M  V30 9110 H 887.859 -0.387771 -4.19612 0
M  V30 9111 H 886.583 0.406702 -3.24058 0
M  V30 9112 H 885.242 -1.7258 -3.23437 0
M  V30 9113 H 884.89 -0.0208743 -5.02996 0
M  V30 9114 H 884.59 -1.66984 -5.63374 0
M  V30 9115 H 886.114 -0.834815 -6.04866 0
M  V30 9116 H 887.528 -2.8394 -4.98047 0
M  V30 9117 H 885.925 -3.60851 -4.79486 0
M  V30 9118 H 886.995 -3.46882 -3.38823 0
M  V30 9119 N 888.338 1.20213 -1.01915 0
M  V30 9120 C 889.268 2.25336 -0.612023 0
M  V30 9121 C 890.249 1.65933 0.374186 0
M  V30 9122 O 891.434 1.92464 0.259053 0
M  V30 9123 C 888.564 3.47267 0.047904 0
M  V30 9124 C 887.518 4.1928 -0.859557 0
M  V30 9125 C 886.844 5.3466 -0.0652655 0
M  V30 9126 C 888.144 4.75143 -2.1688 0
M  V30 9127 H 889.838 2.59645 -1.49079 0
M  V30 9128 H 887.384 1.24808 -0.718263 0
M  V30 9129 H 889.337 4.19991 0.344294 0
M  V30 9130 H 888.061 3.12129 0.961404 0
M  V30 9131 H 886.72 3.48425 -1.13999 0
M  V30 9132 H 886.368 4.95767 0.849964 0
M  V30 9133 H 886.068 5.83772 -0.669618 0
M  V30 9134 H 887.592 6.10187 0.224612 0
M  V30 9135 H 889.006 5.39672 -1.9346 0
M  V30 9136 H 887.403 5.34702 -2.72422 0
M  V30 9137 H 888.473 3.93744 -2.83008 0
M  V30 9138 N 889.816 0.795718 1.36037 0
M  V30 9139 C 891.232 0.478145 1.52269 0
M  V30 9140 C 891.432 -1.0025 1.74792 0
M  V30 9141 O 890.488 -1.78783 1.78305 0
M  V30 9142 C 891.801 1.31406 2.70468 0
M  V30 9143 C 893.349 1.3084 2.84341 0
M  V30 9144 C 893.824 2.12819 4.05551 0
M  V30 9145 N 895.315 2.10298 4.12709 0
M  V30 9146 C 896.05 2.70495 5.05589 0
M  V30 9147 N 895.546 3.39576 6.03871 0
M  V30 9148 N 897.339 2.60195 4.98252 0
M  V30 9149 H 889.49 1.75477 1.19673 0
M  V30 9150 H 891.753 0.74627 0.584624 0
M  V30 9151 H 891.459 2.36435 2.60368 0
M  V30 9152 H 891.333 0.959726 3.64786 0
M  V30 9153 H 893.72 0.266003 2.93899 0
M  V30 9154 H 893.801 1.70254 1.90912 0
M  V30 9155 H 893.445 3.17093 3.96755 0
M  V30 9156 H 893.375 1.70772 4.98141 0
M  V30 9157 H 895.866 1.60026 3.42345 0
M  V30 9158 H 896.179 3.82823 6.71317 0
M  V30 9159 H 894.524 3.43679 6.04077 0
M  V30 9160 H 897.715 2.05823 4.20422 0
M  V30 9161 H 897.888 3.074 5.70447 0
M  V30 9162 N 891.294 -1.47756 0.548274 0
M  V30 9163 C 892.522 -2.06884 0.0254873 0
M  V30 9164 C 892.937 -1.40225 -1.26422 0
M  V30 9165 O 892.294 -0.495776 -1.75637 0
M  V30 9166 C 892.345 -3.61036 -0.183134 0
M  V30 9167 O 892.066 -4.25195 1.05549 0
M  V30 9168 C 893.567 -4.37008 -0.744222 0
M  V30 9169 H 890.787 -0.669697 0.041789 0
M  V30 9170 H 893.331 -1.89888 0.759138 0
M  V30 9171 H 891.486 -3.77576 -0.866886 0
M  V30 9172 H 891.9 -5.17606 0.847629 0
M  V30 9173 H 893.374 -5.45579 -0.839529 0
M  V30 9174 H 893.851 -4.0268 -1.75344 0
M  V30 9175 H 894.457 -4.25191 -0.0964542 0
M  V30 9176 N 892.772 -0.284283 -1.55015 0
M  V30 9177 C 894.183 0.211681 -1.85496 0
M  V30 9178 C 894.534 1.54735 -1.2063 0
M  V30 9179 O 893.659 2.10594 -0.497918 0
M  V30 9180 C 894.254 0.390864 -3.36538 0
M  V30 9181 C 892.813 0.831055 -3.67111 0
M  V30 9182 C 891.96 -0.0703581 -2.77211 0
M  V30 9183 H 894.911 -0.505803 -1.50424 0
M  V30 9184 H 894.932 1.22803 -3.60138 0
M  V30 9185 H 894.444 -0.581409 -3.8372 0
M  V30 9186 H 892.545 1.81447 -3.25434 0
M  V30 9187 H 892.658 0.662026 -4.74504 0
M  V30 9188 H 891.022 0.447528 -2.50737 0
M  V30 9189 H 891.805 -1.03868 -3.2721 0
M  V30 9190 N 894.251 1.57596 -0.0117121 0
M  V30 9191 C 895.199 2.1029 0.994035 0
M  V30 9192 C 896.193 1.02549 1.34833 0
M  V30 9193 O 897.399 1.21003 1.3326 0
M  V30 9194 H 893.774 0.671624 0.338268 0
M  V30 9195 H 895.745 2.93761 0.524147 0
M  V30 9196 C 894.494 2.63099 2.27319 0
M  V30 9197 H 893.817 3.45642 2.00927 0
M  V30 9198 H 895.257 3.03635 2.95942 0
M  V30 9199 C 893.716 1.55044 2.99104 0
M  V30 9200 O 894.246 0.940127 3.90544 0
M  V30 9201 N 892.452 1.27506 2.61133 0
M  V30 9202 H 891.999 1.77322 1.86855 0
M  V30 9203 H 891.957 0.554292 3.09475 0
M  V30 9204 N 895.729 -0.261212 1.5542 0
M  V30 9205 C 896.975 -0.988533 1.77763 0
M  V30 9206 C 897.33 -1.83504 0.578286 0
M  V30 9207 O 896.623 -1.8674 -0.428808 0
M  V30 9208 C 896.817 -1.89395 3.03091 0
M  V30 9209 C 896.646 -1.13658 4.351 0
M  V30 9210 C 895.416 -0.847467 4.98143 0
M  V30 9211 C 897.614 -0.52118 5.11652 0
M  V30 9212 N 895.596 -0.0645324 6.13866 0
M  V30 9213 C 896.967 0.127016 6.1987 0
M  V30 9214 C 899.022 -0.430206 4.96038 0
M  V30 9215 C 897.725 0.857433 7.14171 0
M  V30 9216 C 899.751 0.286645 5.90705 0
M  V30 9217 C 899.113 0.923534 6.9832 0
M  V30 9218 H 895.212 -0.343317 0.702608 0
M  V30 9219 H 897.796 -0.263035 1.92915 0
M  V30 9220 H 895.967 -2.5916 2.89293 0
M  V30 9221 H 897.699 -2.55576 3.13788 0
M  V30 9222 H 894.454 -1.15569 4.59283 0
M  V30 9223 H 894.878 0.31461 6.76269 0
M  V30 9224 H 899.52 -0.908278 4.12929 0
M  V30 9225 H 897.238 1.34715 7.96792 0
M  V30 9226 H 900.824 0.357511 5.80701 0
M  V30 9227 H 899.704 1.46939 7.70311 0
M  V30 9228 N 897.207 -1.48554 -0.526253 0
M  V30 9229 C 898.623 -1.34757 -0.855138 0
M  V30 9230 C 898.823 -0.36142 -1.98232 0
M  V30 9231 O 897.879 0.216026 -2.51574 0
M  V30 9232 C 899.192 -2.74877 -1.21915 0
M  V30 9233 C 900.74 -2.83393 -1.32882 0
M  V30 9234 C 901.215 -4.24223 -1.72624 0
M  V30 9235 N 902.706 -4.26913 -1.7972 0
M  V30 9236 C 903.441 -5.32824 -2.11863 0
M  V30 9237 N 902.937 -6.49008 -2.42405 0
M  V30 9238 N 904.73 -5.20221 -2.12901 0
M  V30 9239 H 896.881 -2.11284 0.217422 0
M  V30 9240 H 899.144 -0.947367 0.0346362 0
M  V30 9241 H 898.85 -3.48619 -0.464486 0
M  V30 9242 H 898.724 -3.0864 -2.16844 0
M  V30 9243 H 901.111 -2.09904 -2.07424 0
M  V30 9244 H 901.192 -2.53245 -0.360638 0
M  V30 9245 H 900.836 -4.98229 -0.986411 0
M  V30 9246 H 900.766 -4.51817 -2.70498 0
M  V30 9247 H 903.257 -3.4311 -1.58379 0
M  V30 9248 H 903.57 -7.25561 -2.66048 0
M  V30 9249 H 901.915 -6.52277 -2.39917 0
M  V30 9250 H 905.106 -4.28469 -1.885 0
M  V30 9251 H 905.279 -6.02861 -2.37619 0
M  V30 9252 N 898.685 0.775411 -1.37205 0
M  V30 9253 C 900.096 1.35147 -1.28811 0
M  V30 9254 C 900.447 1.96089 0.0659168 0
M  V30 9255 O 899.572 1.93558 0.967684 0
M  V30 9256 C 900.167 2.45715 -2.33258 0
M  V30 9257 C 898.726 2.99099 -2.2851 0
M  V30 9258 C 897.873 1.72286 -2.17285 0
M  V30 9259 H 900.824 0.575954 -1.4788 0
M  V30 9260 H 900.845 3.251 -1.97712 0
M  V30 9261 H 900.357 2.01331 -3.31795 0
M  V30 9262 H 898.458 3.47868 -1.33485 0
M  V30 9263 H 898.571 3.54962 -3.21774 0
M  V30 9264 H 896.935 1.95068 -1.6377 0
M  V30 9265 H 897.718 1.3001 -3.1773 0
M  V30 9266 N 900.163 1.21714 1.00117 0
M  V30 9267 C 901.579 0.97532 1.26332 0
M  V30 9268 C 901.779 -0.336029 1.98678 0
M  V30 9269 O 900.835 -1.06073 2.29139 0
M  V30 9270 C 902.148 2.16848 2.0832 0
M  V30 9271 C 903.696 2.21115 2.21533 0
M  V30 9272 C 904.171 3.3996 3.06906 0
M  V30 9273 N 905.662 3.40071 3.14494 0
M  V30 9274 C 906.397 4.28678 3.80818 0
M  V30 9275 N 905.893 5.2749 4.49139 0
M  V30 9276 N 907.686 4.16476 3.77497 0
M  V30 9277 H 899.837 2.06039 0.515897 0
M  V30 9278 H 902.1 0.902423 0.290408 0
M  V30 9279 H 901.806 3.119 1.62515 0
M  V30 9280 H 901.68 2.16226 3.09073 0
M  V30 9281 H 904.067 1.26616 2.66557 0
M  V30 9282 H 904.148 2.2578 1.20238 0
M  V30 9283 H 903.792 4.34755 2.62585 0
M  V30 9284 H 903.722 3.32534 4.08324 0
M  V30 9285 H 906.213 2.68563 2.65861 0
M  V30 9286 H 906.526 5.91397 4.97463 0
M  V30 9287 H 904.871 5.31412 4.47914 0
M  V30 9288 H 908.062 3.38539 3.23278 0
M  V30 9289 H 908.235 4.85739 4.28908 0
M  V30 9290 N 901.641 -1.19671 1.02551 0
M  V30 9291 C 902.888 -1.89268 0.720002 0
M  V30 9292 C 903.216 -1.79411 -0.751127 0
M  V30 9293 O 902.471 -1.17859 -1.5623 0
M  V30 9294 C 902.77 -3.39647 1.11241 0
M  V30 9295 C 902.436 -3.69706 2.58125 0
M  V30 9296 C 901.098 -3.7762 2.98256 0
M  V30 9297 C 903.45 -3.83301 3.53171 0
M  V30 9298 C 900.778 -3.96594 4.32354 0
M  V30 9299 C 903.13 -4.03788 4.86968 0
M  V30 9300 C 901.794 -4.09934 5.26793 0
M  V30 9301 H 901.064 -0.692579 0.263467 0
M  V30 9302 H 903.711 -1.41738 1.28774 0
M  V30 9303 H 902.016 -3.89052 0.463234 0
M  V30 9304 H 903.713 -3.91809 0.853602 0
M  V30 9305 H 900.303 -3.64152 2.26033 0
M  V30 9306 H 904.487 -3.76534 3.2332 0
M  V30 9307 H 899.743 -3.9959 4.6275 0
M  V30 9308 H 903.917 -4.1325 5.60533 0
M  V30 9309 H 901.544 -4.24389 6.30712 0
M  V30 9310 N 903.119 -0.802921 -1.35613 0
M  V30 9311 C 904.066 -0.20874 -2.29854 0
M  V30 9312 C 905.036 0.655128 -1.52634 0
M  V30 9313 O 906.221 0.600979 -1.81088 0
M  V30 9314 C 903.361 0.639663 -3.3912 0
M  V30 9315 C 902.474 -0.244234 -4.31309 0
M  V30 9316 C 901.609 0.611825 -5.27665 0
M  V30 9317 C 900.648 -0.272698 -6.11492 0
M  V30 9318 N 899.785 0.543122 -6.99996 0
M  V30 9319 H 904.625 -1.01782 -2.80079 0
M  V30 9320 H 902.162 -0.513465 -1.37848 0
M  V30 9321 H 904.12 1.14668 -4.01132 0
M  V30 9322 H 902.75 1.41404 -2.9018 0
M  V30 9323 H 901.802 -0.869322 -3.70334 0
M  V30 9324 H 903.114 -0.925202 -4.90144 0
M  V30 9325 H 902.268 1.18412 -5.95032 0
M  V30 9326 H 901.007 1.32637 -4.69317 0
M  V30 9327 H 900.012 -0.857287 -5.43075 0
M  V30 9328 H 901.237 -0.985051 -6.71918 0
M  V30 9329 H 899.183 1.24171 -6.44141 0
M  V30 9330 H 899.1 -0.0798767 -7.55958 0
M  V30 9331 H 900.368 1.09881 -7.71717 0
M  V30 9332 N 904.597 1.47463 -0.556102 0
M  V30 9333 C 905.827 2.06568 -0.0364056 0
M  V30 9334 C 906.235 1.40939 1.26225 0
M  V30 9335 O 905.578 0.499572 1.76777 0
M  V30 9336 C 905.64 3.58755 0.231278 0
M  V30 9337 C 905.304 4.46417 -0.977776 0
M  V30 9338 C 906.301 4.846 -1.88305 0
M  V30 9339 C 903.986 4.87948 -1.19214 0
M  V30 9340 C 905.98 5.63111 -2.98639 0
M  V30 9341 C 903.667 5.66224 -2.29857 0
M  V30 9342 C 904.665 6.03716 -3.194 0
M  V30 9343 O 904.353 6.80415 -4.28125 0
M  V30 9344 H 904.085 0.674675 -0.042305 0
M  V30 9345 H 906.639 1.9047 -0.768775 0
M  V30 9346 H 904.869 3.73061 1.01794 0
M  V30 9347 H 906.558 3.99884 0.696221 0
M  V30 9348 H 907.324 4.53115 -1.72949 0
M  V30 9349 H 903.203 4.58233 -0.504347 0
M  V30 9350 H 906.747 5.92293 -3.68557 0
M  V30 9351 H 902.644 5.97121 -2.45186 0
M  V30 9352 H 903.412 6.98807 -4.26159 0
M  V30 9353 N 906.075 0.2925 1.54862 0
M  V30 9354 C 907.305 -0.321646 2.04081 0
M  V30 9355 C 907.713 -1.48712 1.16967 0
M  V30 9356 O 907.056 -1.82755 0.18609 0
M  V30 9357 C 907.118 -0.848678 3.49339 0
M  V30 9358 C 906.782 0.190416 4.56603 0
M  V30 9359 C 907.779 1.01595 5.09877 0
M  V30 9360 C 905.464 0.329666 5.01217 0
M  V30 9361 C 907.458 1.96676 6.06298 0
M  V30 9362 C 905.145 1.28393 5.9746 0
M  V30 9363 C 906.143 2.10097 6.49883 0
M  V30 9364 O 905.831 3.03907 7.44242 0
M  V30 9365 H 905.563 -0.075098 0.671816 0
M  V30 9366 H 908.117 0.427531 2.00901 0
M  V30 9367 H 906.347 -1.64823 3.49815 0
M  V30 9368 H 908.036 -1.37779 3.81801 0
M  V30 9369 H 908.802 0.919197 4.7621 0
M  V30 9370 H 904.681 -0.296317 4.60047 0
M  V30 9371 H 908.225 2.60488 6.47141 0
M  V30 9372 H 904.122 1.38144 6.30545 0
M  V30 9373 H 904.89 2.98787 7.62016 0
M  V30 9374 N 907.553 -1.57587 0.0200696 0
M  V30 9375 C 908.503 -2.0616 -0.973751 0
M  V30 9376 C 909.487 -0.960282 -1.29102 0
M  V30 9377 O 910.679 -1.22391 -1.27865 0
M  V30 9378 C 907.808 -2.58487 -2.25919 0
M  V30 9379 C 906.894 -3.75533 -1.97068 0
M  V30 9380 N 907.285 -4.86482 -1.38451 0
M  V30 9381 C 905.583 -3.83847 -2.27107 0
M  V30 9382 C 906.284 -5.67773 -1.26527 0
M  V30 9383 N 905.26 -5.14398 -1.75772 0
M  V30 9384 H 909.062 -2.89346 -0.515365 0
M  V30 9385 H 906.576 -1.61341 -0.185163 0
M  V30 9386 H 908.573 -2.91572 -2.97979 0
M  V30 9387 H 907.233 -1.76728 -2.72392 0
M  V30 9388 H 908.244 -5.06922 -1.06069 0
M  V30 9389 H 904.921 -3.12978 -2.76316 0
M  V30 9390 H 906.311 -6.66966 -0.812785 0
M  V30 9391 N 909.032 0.252966 -1.55557 0
M  V30 9392 C 910.278 0.979092 -1.78284 0
M  V30 9393 C 910.633 1.83194 -0.588009 0
M  V30 9394 O 909.926 1.86965 0.418899 0
M  V30 9395 C 910.12 1.87785 -3.04091 0
M  V30 9396 C 909.949 1.11349 -4.35697 0
M  V30 9397 C 908.719 0.821038 -4.98585 0
M  V30 9398 C 910.917 0.494039 -5.11922 0
M  V30 9399 N 908.899 0.0319767 -6.13892 0
M  V30 9400 C 910.27 -0.159888 -6.19794 0
M  V30 9401 C 912.325 0.403894 -4.96259 0
M  V30 9402 C 911.028 -0.895295 -7.13706 0
M  V30 9403 C 913.054 -0.317968 -5.90545 0
M  V30 9404 C 912.416 -0.960555 -6.9782 0
M  V30 9405 H 908.515 0.339586 -0.704419 0
M  V30 9406 H 911.099 0.252801 -1.93052 0
M  V30 9407 H 909.27 2.57623 -2.90663 0
M  V30 9408 H 911.002 2.53908 -3.15139 0
M  V30 9409 H 907.757 1.13132 -4.59889 0
M  V30 9410 H 908.181 -0.35047 -6.76092 0
M  V30 9411 H 912.823 0.886366 -4.13405 0
M  V30 9412 H 910.541 -1.38939 -7.96066 0
M  V30 9413 H 914.127 -0.388302 -5.80503 0
M  V30 9414 H 913.007 -1.51022 -7.69521 0
M  V30 9415 N 910.51 1.48831 0.518367 0
M  V30 9416 C 911.473 1.63721 1.604 0
M  V30 9417 C 912.473 0.509857 1.52503 0
M  V30 9418 O 913.663 0.775922 1.55965 0
M  V30 9419 C 910.795 1.61831 3.00039 0
M  V30 9420 H 911.988 2.60534 1.48533 0
M  V30 9421 H 909.541 1.37602 0.741309 0
M  V30 9422 H 910.276 0.665387 3.17401 0
M  V30 9423 H 910.061 2.43686 3.0718 0
M  V30 9424 H 911.551 1.75467 3.78947 0
M  V30 9425 N 911.988 -0.768124 1.37614 0
M  V30 9426 C 912.918 -1.89537 1.36374 0
M  V30 9427 C 913.899 -1.68513 0.231803 0
M  V30 9428 O 915.084 -1.89318 0.432705 0
M  V30 9429 C 912.214 -3.26871 1.17358 0
M  V30 9430 C 911.168 -3.62466 2.27602 0
M  V30 9431 C 910.494 -4.9838 1.93705 0
M  V30 9432 C 911.794 -3.68841 3.69802 0
M  V30 9433 H 913.488 -1.90832 2.30702 0
M  V30 9434 H 911.034 -0.91672 1.11051 0
M  V30 9435 H 912.987 -4.05371 1.15119 0
M  V30 9436 H 911.711 -3.26018 0.194865 0
M  V30 9437 H 910.37 -2.86276 2.29002 0
M  V30 9438 H 910.018 -4.94071 0.943539 0
M  V30 9439 H 909.718 -5.23165 2.6753 0
M  V30 9440 H 911.242 -5.79276 1.93059 0
M  V30 9441 H 912.656 -4.37485 3.70513 0
M  V30 9442 H 911.053 -4.05126 4.42711 0
M  V30 9443 H 912.123 -2.69415 4.03167 0
M  V30 9444 N 913.466 -1.22244 -0.994698 0
M  V30 9445 C 914.691 -1.07299 -1.77487 0
M  V30 9446 C 915.116 0.372302 -1.84379 0
M  V30 9447 O 914.474 1.2689 -1.29494 0
M  V30 9448 C 914.522 -1.68675 -3.18718 0
M  V30 9449 O 913.626 -0.939202 -4.01563 0
M  V30 9450 H 912.967 -0.376979 -0.546611 0
M  V30 9451 H 915.497 -1.62003 -1.24965 0
M  V30 9452 H 915.507 -1.73324 -3.69354 0
M  V30 9453 H 914.182 -2.73849 -3.13017 0
M  V30 9454 H 912.759 -0.968583 -3.60101 0
M  V30 9455 N 914.944 1.19125 -1.03184 0
M  V30 9456 C 916.191 1.88883 -0.730029 0
M  V30 9457 C 916.519 1.79807 0.741602 0
M  V30 9458 O 915.774 1.18686 1.55603 0
M  V30 9459 C 916.073 3.39052 -1.13041 0
M  V30 9460 C 915.739 3.68332 -2.60082 0
M  V30 9461 C 914.401 3.76033 -3.00254 0
M  V30 9462 C 916.753 3.81423 -3.55199 0
M  V30 9463 C 914.081 3.94296 -4.34451 0
M  V30 9464 C 916.433 4.012 -4.89103 0
M  V30 9465 C 915.097 4.07134 -5.28959 0
M  V30 9466 H 914.367 0.691172 -0.267137 0
M  V30 9467 H 917.014 1.41053 -1.29523 0
M  V30 9468 H 915.319 3.88801 -0.48386 0
M  V30 9469 H 917.016 3.91351 -0.874368 0
M  V30 9470 H 913.606 3.62948 -2.27961 0
M  V30 9471 H 917.79 3.74814 -3.25313 0
M  V30 9472 H 913.046 3.97131 -4.64863 0
M  V30 9473 H 917.22 4.10271 -5.62717 0
M  V30 9474 H 914.847 4.21038 -6.32954 0
M  V30 9475 N 916.422 0.810101 1.35185 0
M  V30 9476 C 917.352 0.237453 2.32289 0
M  V30 9477 C 918.333 -0.639032 1.5764 0
M  V30 9478 O 919.518 -0.568575 1.8569 0
M  V30 9479 C 916.648 -0.611964 3.41866 0
M  V30 9480 C 915.602 0.166318 4.27677 0
M  V30 9481 C 914.928 -0.805024 5.28605 0
M  V30 9482 C 916.228 1.36729 5.04086 0
M  V30 9483 H 917.922 1.04874 2.80432 0
M  V30 9484 H 915.468 0.505751 1.34826 0
M  V30 9485 H 917.421 -1.02267 4.08802 0
M  V30 9486 H 916.145 -1.45617 2.92341 0
M  V30 9487 H 914.804 0.558238 3.62325 0
M  V30 9488 H 914.452 -1.64483 4.75347 0
M  V30 9489 H 914.152 -0.288577 5.86891 0
M  V30 9490 H 915.676 -1.21386 5.98413 0
M  V30 9491 H 917.09 1.03128 5.63948 0
M  V30 9492 H 915.487 1.81848 5.71884 0
M  V30 9493 H 916.557 2.15214 4.34524 0
M  V30 9494 N 917.9 -1.47166 0.563914 0
M  V30 9495 C 919.148 -2.02056 0.0422873 0
M  V30 9496 C 919.469 -1.43992 -1.31497 0
M  V30 9497 O 918.739 -0.617578 -1.85911 0
M  V30 9498 H 917.319 -0.746893 0.0126427 0
M  V30 9499 H 919.981 -1.80492 0.735441 0
M  V30 9500 H 919.077 -3.12073 -0.0408044 0
M  V30 9501 N 919.378 -0.300708 -1.54705 0
M  V30 9502 C 920.311 0.617513 -2.19686 0
M  V30 9503 C 921.289 1.1331 -1.16617 0
M  V30 9504 O 922.473 1.20135 -1.45258 0
M  V30 9505 C 919.6 1.84486 -2.84047 0
M  V30 9506 C 918.646 1.46253 -4.0064 0
M  V30 9507 S 919.479 0.518718 -5.32982 0
M  V30 9508 C 920.635 1.75387 -6.00825 0
M  V30 9509 H 920.868 0.0654548 -2.97228 0
M  V30 9510 H 918.401 -0.0848492 -1.54167 0
M  V30 9511 H 920.359 2.54921 -3.21754 0
M  V30 9512 H 919.02 2.36808 -2.06351 0
M  V30 9513 H 918.213 2.37648 -4.44454 0
M  V30 9514 H 917.815 0.838129 -3.64488 0
M  V30 9515 H 920.107 2.69448 -6.21614 0
M  V30 9516 H 921.05 1.35829 -6.9495 0
M  V30 9517 H 921.458 1.93045 -5.30466 0
M  V30 9518 N 920.856 1.57574 -0.0284266 0
M  V30 9519 C 922.081 1.96479 0.664137 0
M  V30 9520 C 922.506 0.904826 1.64908 0
M  V30 9521 O 921.864 -0.134339 1.80802 0
M  V30 9522 C 921.912 3.34479 1.34745 0
M  V30 9523 O 921.016 3.30794 2.46271 0
M  V30 9524 H 920.357 0.640654 0.174524 0
M  V30 9525 H 922.887 2.04402 -0.0900729 0
M  V30 9526 H 922.897 3.70694 1.7044 0
M  V30 9527 H 921.572 4.1117 0.625468 0
M  V30 9528 H 920.149 3.06294 2.12693 0
M  V30 9529 N 922.334 -0.244713 1.55689 0
M  V30 9530 C 923.264 -1.30667 1.93516 0
M  V30 9531 C 924.245 -1.50094 0.800371 0
M  V30 9532 O 925.43 -1.62665 1.06083 0
M  V30 9533 C 922.56 -2.66101 2.23176 0
M  V30 9534 C 921.514 -2.61366 3.38927 0
M  V30 9535 C 920.84 -4.00616 3.54134 0
M  V30 9536 C 922.14 -2.18161 4.74555 0
M  V30 9537 H 923.834 -0.992546 2.82469 0
M  V30 9538 H 921.38 -0.476018 1.35905 0
M  V30 9539 H 923.333 -3.4053 2.48228 0
M  V30 9540 H 922.057 -2.99154 1.31051 0
M  V30 9541 H 920.716 -1.89395 3.13887 0
M  V30 9542 H 920.364 -4.30938 2.59426 0
M  V30 9543 H 920.064 -3.98335 4.31975 0
M  V30 9544 H 921.588 -4.76741 3.8151 0
M  V30 9545 H 923.002 -2.82323 4.98965 0
M  V30 9546 H 921.399 -2.26988 5.55515 0
M  V30 9547 H 922.469 -1.13333 4.7147 0
M  V30 9548 N 923.813 -1.49104 -0.510467 0
M  V30 9549 C 925.053 -1.59723 -1.27545 0
M  V30 9550 C 925.417 -0.273525 -1.90042 0
M  V30 9551 O 926.618 -0.254835 -2.67589 0
M  V30 9552 C 924.889 -2.71771 -2.3211 0
M  V30 9553 S 926.448 -3.02282 -3.18074 0
M  V30 9554 H 923.266 -0.563489 -0.433591 0
M  V30 9555 H 925.868 -1.86719 -0.579328 0
M  V30 9556 H 924.572 -3.66483 -1.84711 0
M  V30 9557 H 924.103 -2.46739 -3.06404 0
M  V30 9558 H 926.118 -2.43076 -4.32583 0
M  V30 9559 N 925.291 0.760815 -1.38019 0
M  V30 9560 C 926.221 1.88811 -1.37377 0
M  V30 9561 C 927.202 1.68388 -0.240737 0
M  V30 9562 O 928.387 1.89086 -0.442739 0
M  V30 9563 C 925.517 3.26244 -1.1909 0
M  V30 9564 C 924.471 3.61254 -2.29521 0
M  V30 9565 C 923.797 4.97346 -1.96345 0
M  V30 9566 C 925.097 3.66874 -3.71753 0
M  V30 9567 H 926.791 1.89606 -2.31711 0
M  V30 9568 H 924.337 0.910818 -1.11535 0
M  V30 9569 H 926.29 4.04755 -1.17267 0
M  V30 9570 H 925.014 3.2591 -0.212152 0
M  V30 9571 H 923.673 2.85057 -2.30517 0
M  V30 9572 H 923.321 4.93564 -0.969728 0
M  V30 9573 H 923.021 5.21739 -2.703 0
M  V30 9574 H 924.545 5.78244 -1.96129 0
M  V30 9575 H 925.959 4.35514 -3.72828 0
M  V30 9576 H 924.356 4.02772 -4.44853 0
M  V30 9577 H 925.426 2.67273 -4.0459 0
M  V30 9578 N 926.769 1.22769 0.988202 0
M  V30 9579 C 927.732 1.00325 2.06076 0
M  V30 9580 C 928.732 -0.0320618 1.60768 0
M  V30 9581 O 929.922 0.206912 1.72967 0
M  V30 9582 C 927.054 0.516376 3.36966 0
M  V30 9583 H 928.247 1.95499 2.27421 0
M  V30 9584 H 925.8 1.04704 1.16047 0
M  V30 9585 H 926.535 -0.439498 3.21308 0
M  V30 9586 H 926.32 1.26337 3.71189 0
M  V30 9587 H 927.81 0.37974 4.1587 0
M  V30 9588 N 928.247 -1.18576 1.03814 0
M  V30 9589 C 929.177 -2.24334 0.647795 0
M  V30 9590 C 930.158 -1.66508 -0.34774 0
M  V30 9591 O 931.343 -1.92852 -0.228401 0
M  V30 9592 C 928.473 -3.47299 0.00734922 0
M  V30 9593 C 927.427 -4.17859 0.926152 0
M  V30 9594 C 926.753 -5.34489 0.150317 0
M  V30 9595 C 928.053 -4.71632 2.24411 0
M  V30 9596 H 929.747 -2.57241 1.53191 0
M  V30 9597 H 927.293 -1.23649 0.738028 0
M  V30 9598 H 929.246 -4.20486 -0.277434 0
M  V30 9599 H 927.97 -3.13619 -0.911626 0
M  V30 9600 H 926.629 -3.46567 1.19528 0
M  V30 9601 H 926.277 -4.97056 -0.770985 0
M  V30 9602 H 925.977 -5.82633 0.762407 0
M  V30 9603 H 927.501 -6.10467 -0.127508 0
M  V30 9604 H 928.915 -5.36526 2.02021 0
M  V30 9605 H 927.312 -5.303 2.80894 0
M  V30 9606 H 928.382 -3.89192 2.89236 0
M  V30 9607 N 929.725 -0.817259 -1.34754 0
M  V30 9608 C 930.658 -0.180483 -2.27485 0
M  V30 9609 C 931.636 0.659792 -1.48612 0
M  V30 9610 O 932.82 0.624761 -1.77845 0
M  V30 9611 C 929.947 0.748487 -3.30326 0
M  V30 9612 C 928.993 -0.0135304 -4.26498 0
M  V30 9613 S 929.826 -1.35685 -5.18025 0
M  V30 9614 C 930.982 -0.432605 -6.24403 0
M  V30 9615 H 931.215 -0.966677 -2.81145 0
M  V30 9616 H 928.748 -0.612864 -1.41716 0
M  V30 9617 H 930.706 1.27893 -3.90069 0
M  V30 9618 H 929.367 1.50816 -2.75524 0
M  V30 9619 H 928.56 0.692454 -4.9922 0
M  V30 9620 H 928.162 -0.474344 -3.7098 0
M  V30 9621 H 930.454 0.378035 -6.76444 0
M  V30 9622 H 931.397 -1.12934 -6.99036 0
M  V30 9623 H 931.805 -0.0235533 -5.64495 0
M  V30 9624 N 931.203 1.46865 -0.571711 0
M  V30 9625 C 932.45 2.0243 -0.0531071 0
M  V30 9626 C 932.778 1.44446 1.30252 0
M  V30 9627 O 932.033 0.595182 1.8643 0
M  V30 9628 C 932.332 3.57323 0.0742311 0
M  V30 9629 C 931.998 4.34295 -1.21237 0
M  V30 9630 C 930.66 4.55044 -1.56489 0
M  V30 9631 C 933.012 4.78577 -2.0643 0
M  V30 9632 C 930.34 5.17325 -2.76752 0
M  V30 9633 C 932.692 5.42186 -3.25909 0
M  V30 9634 C 931.356 5.61165 -3.61456 0
M  V30 9635 H 930.626 0.740745 -0.0194333 0
M  V30 9636 H 933.273 1.76366 -0.74614 0
M  V30 9637 H 931.578 3.82461 0.850325 0
M  V30 9638 H 933.275 3.97982 0.491077 0
M  V30 9639 H 929.865 4.18435 -0.927922 0
M  V30 9640 H 934.049 4.62313 -1.80501 0
M  V30 9641 H 929.305 5.30211 -3.04444 0
M  V30 9642 H 933.479 5.75459 -3.92198 0
M  V30 9643 H 931.106 6.09195 -4.54737 0
M  V30 9644 N 932.681 0.308908 1.54543 0
M  V30 9645 C 933.927 -0.298478 2.00592 0
M  V30 9646 C 934.26 -1.52929 1.19692 0
M  V30 9647 O 933.535 -1.9254 0.27542 0
M  V30 9648 C 933.818 -0.647218 3.54236 0
M  V30 9649 C 933.671 0.593284 4.4587 0
M  V30 9650 C 934.99 -1.47064 4.14801 0
M  V30 9651 H 932.109 -0.107012 0.72919 0
M  V30 9652 H 934.751 0.422578 1.85241 0
M  V30 9653 H 932.901 -1.26153 3.67447 0
M  V30 9654 H 934.573 1.2317 4.44552 0
M  V30 9655 H 932.816 1.22501 4.16144 0
M  V30 9656 H 933.487 0.305018 5.51157 0
M  V30 9657 H 935.963 -0.951511 4.05075 0
M  V30 9658 H 934.839 -1.68343 5.22448 0
M  V30 9659 H 935.1 -2.4623 3.67183 0
M  V30 9660 N 934.159 -1.57557 0.0367827 0
M  V30 9661 C 935.384 -1.96828 -0.653707 0
M  V30 9662 C 935.809 -0.913559 -1.64425 0
M  V30 9663 O 935.167 0.124749 -1.8087 0
M  V30 9664 C 935.215 -3.35189 -1.32969 0
M  V30 9665 O 934.319 -3.32095 -2.44513 0
M  V30 9666 H 933.66 -0.64157 -0.171124 0
M  V30 9667 H 936.19 -2.04351 0.100912 0
M  V30 9668 H 936.2 -3.71593 -1.68472 0
M  V30 9669 H 934.875 -4.11496 -0.603654 0
M  V30 9670 H 933.452 -3.07418 -2.11065 0
M  V30 9671 N 935.637 0.236453 -1.55816 0
M  V30 9672 C 936.862 0.98449 -1.82545 0
M  V30 9673 C 937.287 1.77755 -0.615206 0
M  V30 9674 O 936.645 1.75982 0.435895 0
M  V30 9675 C 936.693 1.88973 -3.07118 0
M  V30 9676 O 935.797 2.98298 -2.84766 0
M  V30 9677 H 935.138 0.279577 -0.602273 0
M  V30 9678 H 937.668 0.254277 -2.03014 0
M  V30 9679 H 937.678 2.3024 -3.36829 0
M  V30 9680 H 936.353 1.30671 -3.94839 0
M  V30 9681 H 934.93 2.61085 -2.6625 0
M  V30 9682 N 937.115 1.49373 0.502552 0
M  V30 9683 C 938.361 1.5999 1.25597 0
M  V30 9684 C 938.716 0.282287 1.90318 0
M  V30 9685 O 938.009 -0.71735 1.77664 0
M  V30 9686 C 938.203 2.69508 2.34735 0
M  V30 9687 C 938.032 4.11791 1.80716 0
M  V30 9688 C 936.802 4.78598 1.62087 0
M  V30 9689 C 939 4.97074 1.31991 0
M  V30 9690 N 936.982 6.05201 1.02981 0
M  V30 9691 C 938.353 6.14144 0.850098 0
M  V30 9692 C 940.408 4.83086 1.20549 0
M  V30 9693 C 939.111 7.18766 0.277192 0
M  V30 9694 C 941.137 5.87855 0.64656 0
M  V30 9695 C 940.499 7.04152 0.186968 0
M  V30 9696 H 936.598 0.639822 0.449613 0
M  V30 9697 H 939.182 1.86371 0.563361 0
M  V30 9698 H 937.353 2.44902 3.01459 0
M  V30 9699 H 939.085 2.69656 3.01774 0
M  V30 9700 H 935.84 4.35372 1.8641 0
M  V30 9701 H 936.264 6.72793 0.753601 0
M  V30 9702 H 940.906 3.93489 1.54681 0
M  V30 9703 H 938.624 8.08064 -0.0763971 0
M  V30 9704 H 942.21 5.79091 0.560832 0
M  V30 9705 H 941.09 7.83836 -0.238784 0
M  V30 9706 N 938.594 -0.753485 1.38421 0
M  V30 9707 C 939.824 -1.54049 1.37669 0
M  V30 9708 C 940.232 -1.89167 -0.0353656 0
M  V30 9709 O 939.575 -1.53285 -1.01239 0
M  V30 9710 C 939.637 -2.86777 2.16793 0
M  V30 9711 C 939.301 -2.74196 3.65603 0
M  V30 9712 C 940.298 -2.43985 4.59094 0
M  V30 9713 C 937.983 -2.91645 4.0896 0
M  V30 9714 C 939.977 -2.31379 5.93921 0
M  V30 9715 C 937.664 -2.78658 5.43868 0
M  V30 9716 C 938.662 -2.48568 6.36163 0
M  V30 9717 O 938.35 -2.3564 7.68589 0
M  V30 9718 H 938.082 -0.483276 0.472673 0
M  V30 9719 H 940.636 -0.940267 1.82615 0
M  V30 9720 H 938.866 -3.48988 1.66565 0
M  V30 9721 H 940.555 -3.48289 2.08446 0
M  V30 9722 H 941.321 -2.30172 4.26902 0
M  V30 9723 H 937.2 -3.14063 3.37469 0
M  V30 9724 H 940.744 -2.07813 6.65927 0
M  V30 9725 H 936.641 -2.92044 5.75656 0
M  V30 9726 H 937.409 -2.50851 7.79112 0
M  V30 9727 N 940.072 -1.23292 -0.981677 0
M  V30 9728 C 941.302 -1.0893 -1.7555 0
M  V30 9729 C 941.71 0.362219 -1.857 0
M  V30 9730 O 941.053 1.2624 -1.33451 0
M  V30 9731 C 941.115 -1.6389 -3.19969 0
M  V30 9732 C 940.779 -3.12632 -3.33332 0
M  V30 9733 C 941.776 -4.0994 -3.19758 0
M  V30 9734 C 939.461 -3.52314 -3.58022 0
M  V30 9735 C 941.455 -5.44915 -3.30676 0
M  V30 9736 C 939.142 -4.87434 -3.6858 0
M  V30 9737 C 940.14 -5.83544 -3.54916 0
M  V30 9738 O 939.828 -7.16209 -3.65102 0
M  V30 9739 H 939.56 -0.381901 -0.557788 0
M  V30 9740 H 942.114 -1.63586 -1.24213 0
M  V30 9741 H 940.344 -1.03653 -3.72549 0
M  V30 9742 H 942.033 -1.45023 -3.79108 0
M  V30 9743 H 942.799 -3.80625 -3.00582 0
M  V30 9744 H 938.678 -2.78022 -3.67729 0
M  V30 9745 H 942.222 -6.19913 -3.19928 0
M  V30 9746 H 938.119 -5.16426 -3.87265 0
M  V30 9747 H 938.887 -7.23941 -3.81905 0
M  V30 9748 N 941.55 1.18024 -1.04442 0
M  V30 9749 C 942.513 2.19992 -0.643136 0
M  V30 9750 C 943.513 1.57949 0.301444 0
M  V30 9751 O 944.703 1.73986 0.0863341 0
M  V30 9752 C 941.835 3.40853 0.0565208 0
M  V30 9753 H 943.028 2.57008 -1.54554 0
M  V30 9754 H 940.581 1.31974 -0.837408 0
M  V30 9755 H 941.316 3.09373 0.972553 0
M  V30 9756 H 941.101 3.87128 -0.622439 0
M  V30 9757 H 942.591 4.16344 0.323652 0
M  V30 9758 N 943.028 0.824394 1.34319 0
M  V30 9759 C 943.958 0.262077 2.32025 0
M  V30 9760 C 944.939 -0.622277 1.58309 0
M  V30 9761 O 946.124 -0.548848 1.86283 0
M  V30 9762 C 943.254 -0.57567 3.42496 0
M  V30 9763 C 942.208 0.21167 4.27476 0
M  V30 9764 C 941.534 -0.748913 5.29429 0
M  V30 9765 C 942.834 1.42068 5.02607 0
M  V30 9766 H 944.528 1.07842 2.79304 0
M  V30 9767 H 942.074 0.520022 1.34282 0
M  V30 9768 H 944.027 -0.979251 4.09864 0
M  V30 9769 H 942.751 -1.42508 2.93869 0
M  V30 9770 H 941.41 0.596636 3.61712 0
M  V30 9771 H 941.058 -1.59432 4.77064 0
M  V30 9772 H 940.758 -0.226313 5.87164 0
M  V30 9773 H 942.282 -1.15032 5.99667 0
M  V30 9774 H 943.696 1.09103 5.62823 0
M  V30 9775 H 942.093 1.87903 5.69923 0
M  V30 9776 H 943.163 2.1981 4.32217 0
M  V30 9777 N 944.506 -1.46559 0.579492 0
M  V30 9778 C 945.752 -2.02699 0.0639363 0
M  V30 9779 C 946.085 -1.4504 -1.29139 0
M  V30 9780 O 945.36 -0.614284 -1.84545 0
M  V30 9781 C 945.643 -3.601 -0.00528618 0
M  V30 9782 C 945.496 -4.28149 1.37871 0
M  V30 9783 C 946.815 -4.34375 -0.707537 0
M  V30 9784 H 943.934 -0.736586 0.0247085 0
M  V30 9785 H 946.576 -1.74739 0.746071 0
M  V30 9786 H 944.726 -3.84052 -0.586206 0
M  V30 9787 H 946.398 -4.1547 2.00455 0
M  V30 9788 H 944.641 -3.87636 1.94732 0
M  V30 9789 H 945.312 -5.36888 1.28278 0
M  V30 9790 H 947.788 -4.15549 -0.214064 0
M  V30 9791 H 946.664 -5.44091 -0.724992 0
M  V30 9792 H 946.925 -4.052 -1.7682 0
M  V30 9793 N 945.984 -0.3171 -1.54377 0
M  V30 9794 C 946.947 0.53905 -2.22771 0
M  V30 9795 C 947.947 1.04865 -1.21901 0
M  V30 9796 O 949.137 0.942108 -1.46526 0
M  V30 9797 C 946.269 1.74804 -2.92671 0
M  V30 9798 H 947.462 -0.0587417 -2.99842 0
M  V30 9799 H 945.015 -0.068107 -1.56152 0
M  V30 9800 H 945.75 2.38524 -2.1972 0
M  V30 9801 H 945.535 1.39011 -3.66631 0
M  V30 9802 H 947.025 2.35592 -3.44799 0
M  V30 9803 N 947.462 1.57535 -0.0451378 0
M  V30 9804 C 948.395 2.06721 0.96653 0
M  V30 9805 C 949.373 0.966392 1.30766 0
M  V30 9806 O 950.557 1.23789 1.42157 0
M  V30 9807 C 947.684 2.50266 2.2822 0
M  V30 9808 C 946.73 3.71525 2.09455 0
M  V30 9809 S 947.563 5.17453 1.37851 0
M  V30 9810 C 948.719 5.64308 2.70753 0
M  V30 9811 H 948.952 2.92207 0.547911 0
M  V30 9812 H 946.485 1.53494 0.166973 0
M  V30 9813 H 948.443 2.76019 3.03849 0
M  V30 9814 H 947.104 1.65097 2.67211 0
M  V30 9815 H 946.297 3.99894 3.06759 0
M  V30 9816 H 945.899 3.46008 1.41967 0
M  V30 9817 H 948.191 5.69525 3.66943 0
M  V30 9818 H 949.134 6.63613 2.47028 0
M  V30 9819 H 949.542 4.92014 2.76736 0
M  V30 9820 N 948.94 -0.228186 1.55939 0
M  V30 9821 C 949.87 -1.28607 1.94891 0
M  V30 9822 C 950.851 -1.49236 0.816245 0
M  V30 9823 O 952.036 -1.61531 1.07803 0
M  V30 9824 C 949.166 -2.63719 2.25986 0
M  V30 9825 C 948.12 -2.57757 3.4168 0
M  V30 9826 C 947.446 -3.96837 3.58364 0
M  V30 9827 C 948.746 -2.13116 4.76843 0
M  V30 9828 H 950.44 -0.962531 2.83506 0
M  V30 9829 H 947.986 -0.461577 1.36402 0
M  V30 9830 H 949.939 -3.37878 2.51826 0
M  V30 9831 H 948.663 -2.97747 1.34217 0
M  V30 9832 H 947.322 -1.86055 3.15878 0
M  V30 9833 H 946.97 -4.28162 2.63982 0
M  V30 9834 H 946.67 -3.93731 4.36176 0
M  V30 9835 H 948.194 -4.72668 3.86545 0
M  V30 9836 H 949.608 -2.77015 5.01932 0
M  V30 9837 H 948.005 -2.21083 5.57891 0
M  V30 9838 H 949.075 -1.08326 4.72645 0
M  V30 9839 N 950.418 -1.49637 -0.494624 0
M  V30 9840 C 951.667 -1.58691 -1.24499 0
M  V30 9841 C 951.98 -0.281763 -1.9356 0
M  V30 9842 O 953.186 -0.250925 -2.70338 0
M  V30 9843 C 951.642 -2.8002 -2.26091 0
M  V30 9844 C 951.25 -4.17318 -1.6294 0
M  V30 9845 C 952.994 -2.98407 -3.01916 0
M  V30 9846 C 950.901 -5.29862 -2.62679 0
M  V30 9847 H 949.831 -0.590888 -0.468367 0
M  V30 9848 H 952.482 -1.76034 -0.518112 0
M  V30 9849 H 950.864 -2.56185 -3.01969 0
M  V30 9850 H 952.038 -4.51315 -0.930108 0
M  V30 9851 H 950.353 -4.04342 -0.994819 0
M  V30 9852 H 952.95 -3.79658 -3.76516 0
M  V30 9853 H 953.293 -2.09214 -3.5991 0
M  V30 9854 H 953.826 -3.22312 -2.33152 0
M  V30 9855 H 950.565 -6.21134 -2.09458 0
M  V30 9856 H 950.085 -5.00311 -3.3083 0
M  V30 9857 H 951.764 -5.59461 -3.2498 0
M  V30 9858 N 951.896 0.746133 -1.38819 0
M  V30 9859 C 952.859 1.84167 -1.36437 0
M  V30 9860 C 953.859 1.58626 -0.263499 0
M  V30 9861 O 955.049 1.66233 -0.520801 0
M  V30 9862 C 952.181 3.21769 -1.12596 0
M  V30 9863 H 953.374 1.87684 -2.33912 0
M  V30 9864 H 950.927 0.948625 -1.24221 0
M  V30 9865 H 951.662 3.23917 -0.15758 0
M  V30 9866 H 951.447 3.41702 -1.92307 0
M  V30 9867 H 952.937 4.0184 -1.13643 0
M  V30 9868 N 953.375 1.23811 0.975125 0
M  V30 9869 C 954.623 1.07124 1.71373 0
M  V30 9870 C 954.944 -0.391864 1.91022 0
M  V30 9871 O 954.214 -1.28041 1.48265 0
M  V30 9872 H 952.794 0.393415 0.635007 0
M  V30 9873 H 955.456 1.55612 1.17349 0
M  V30 9874 H 954.552 1.56338 2.7012 0
M  V30 9875 N 954.853 -1.17469 1.05066 0
M  V30 9876 C 955.786 -2.2031 0.594863 0
M  V30 9877 C 956.764 -1.58196 -0.375878 0
M  V30 9878 O 957.948 -1.8629 -0.287798 0
M  V30 9879 C 955.075 -3.38452 -0.129614 0
M  V30 9880 C 954.121 -4.19007 0.795943 0
M  V30 9881 S 954.954 -4.8433 2.28441 0
M  V30 9882 C 956.11 -6.05862 1.57107 0
M  V30 9883 H 956.343 -2.58632 1.46618 0
M  V30 9884 H 953.876 -1.28063 0.862511 0
M  V30 9885 H 955.834 -4.06914 -0.541416 0
M  V30 9886 H 954.495 -2.98521 -0.976948 0
M  V30 9887 H 953.688 -5.0345 0.235396 0
M  V30 9888 H 953.29 -3.55976 1.14705 0
M  V30 9889 H 955.582 -6.71895 0.86969 0
M  V30 9890 H 956.525 -6.66442 2.39292 0
M  V30 9891 H 956.933 -5.54477 1.05903 0
M  V30 9892 N 956.331 -0.831506 -1.3388 0
M  V30 9893 C 957.58 -0.420028 -1.97278 0
M  V30 9894 C 957.893 1.02441 -1.66629 0
M  V30 9895 O 959.099 1.54021 -2.23584 0
M  V30 9896 C 957.555 -0.700116 -3.53025 0
M  V30 9897 C 957.163 -2.15874 -3.92559 0
M  V30 9898 C 958.907 -0.355226 -4.23011 0
M  V30 9899 C 956.814 -2.38327 -5.41252 0
M  V30 9900 H 955.744 -0.153326 -0.738246 0
M  V30 9901 H 958.395 -1.01906 -1.52602 0
M  V30 9902 H 956.777 -0.0308044 -3.95988 0
M  V30 9903 H 957.951 -2.86792 -3.60675 0
M  V30 9904 H 956.266 -2.4659 -3.35533 0
M  V30 9905 H 958.863 -0.500701 -5.32351 0
M  V30 9906 H 959.206 0.70111 -4.10354 0
M  V30 9907 H 959.739 -0.979466 -3.85553 0
M  V30 9908 H 956.478 -3.42498 -5.58906 0
M  V30 9909 H 955.998 -1.71962 -5.74621 0
M  V30 9910 H 957.677 -2.21113 -6.08045 0
M  V30 9911 N 957.809 1.4625 -0.587256 0
M  V30 9912 C 959.039 2.06444 -0.0802135 0
M  V30 9913 C 959.447 1.43585 1.23207 0
M  V30 9914 O 958.79 0.536956 1.75677 0
M  V30 9915 C 958.852 3.59165 0.155129 0
M  V30 9916 C 958.516 4.44243 -1.07225 0
M  V30 9917 C 959.513 4.80497 -1.98542 0
M  V30 9918 C 957.198 4.8531 -1.29537 0
M  V30 9919 C 959.192 5.56649 -3.10516 0
M  V30 9920 C 956.879 5.61221 -2.41815 0
M  V30 9921 C 957.877 5.96805 -3.32134 0
M  V30 9922 O 957.565 6.71181 -4.42461 0
M  V30 9923 H 957.297 0.673626 -0.0566063 0
M  V30 9924 H 959.851 1.88797 -0.809004 0
M  V30 9925 H 958.081 3.75137 0.938583 0
M  V30 9926 H 959.77 4.01271 0.611243 0
M  V30 9927 H 960.536 4.49345 -1.82522 0
M  V30 9928 H 956.415 4.5706 -0.601431 0
M  V30 9929 H 959.959 5.84343 -3.81037 0
M  V30 9930 H 955.856 5.91786 -2.57797 0
M  V30 9931 H 956.624 6.8961 -4.40886 0
M  V30 9932 N 959.287 0.325282 1.54207 0
M  V30 9933 C 960.234 -0.539889 2.24397 0
M  V30 9934 C 961.204 -1.11028 1.2354 0
M  V30 9935 O 962.389 -1.1503 1.52226 0
M  V30 9936 C 959.529 -1.69405 3.00659 0
M  V30 9937 C 958.642 -1.15273 4.16337 0
M  V30 9938 C 957.777 -2.27272 4.80126 0
M  V30 9939 C 956.816 -1.70397 5.87904 0
M  V30 9940 N 955.953 -2.76065 6.45548 0
M  V30 9941 H 960.793 0.0652318 2.97929 0
M  V30 9942 H 958.33 0.043964 1.47034 0
M  V30 9943 H 960.288 -2.37325 3.43122 0
M  V30 9944 H 958.918 -2.27043 2.29458 0
M  V30 9945 H 957.97 -0.365034 3.78645 0
M  V30 9946 H 959.282 -0.696576 4.93912 0
M  V30 9947 H 958.436 -3.03092 5.25566 0
M  V30 9948 H 957.175 -2.76224 4.01935 0
M  V30 9949 H 956.18 -0.930752 5.41864 0
M  V30 9950 H 957.405 -1.22319 6.67993 0
M  V30 9951 H 955.351 -3.24306 5.7023 0
M  V30 9952 H 955.268 -2.35018 7.18542 0
M  V30 9953 H 956.536 -3.5171 6.95644 0
M  V30 9954 N 960.765 -1.57509 0.0534917 0
M  V30 9955 C 961.995 -1.96812 -0.628386 0
M  V30 9956 C 962.403 -0.929808 -1.64776 0
M  V30 9957 O 961.746 0.0941155 -1.83459 0
M  V30 9958 C 961.808 -3.32361 -1.37027 0
M  V30 9959 C 961.472 -4.54185 -0.506465 0
M  V30 9960 C 962.469 -5.19398 0.228412 0
M  V30 9961 C 960.154 -5.00398 -0.43671 0
M  V30 9962 C 962.148 -6.29162 1.02146 0
M  V30 9963 C 959.835 -6.10039 0.360022 0
M  V30 9964 C 960.833 -6.74282 1.08779 0
M  V30 9965 O 960.521 -7.81814 1.87142 0
M  V30 9966 H 960.253 -0.65257 -0.176432 0
M  V30 9967 H 962.807 -2.05067 0.116908 0
M  V30 9968 H 961.037 -3.20667 -2.16125 0
M  V30 9969 H 962.726 -3.56395 -1.94261 0
M  V30 9970 H 963.492 -4.84651 0.184003 0
M  V30 9971 H 959.371 -4.50183 -0.992772 0
M  V30 9972 H 962.915 -6.79238 1.59002 0
M  V30 9973 H 958.812 -6.44222 0.406061 0
M  V30 9974 H 959.58 -7.98602 1.79378 0
M  V30 9975 N 962.243 0.219913 -1.56058 0
M  V30 9976 C 963.492 0.942119 -1.78345 0
M  V30 9977 C 963.805 1.85435 -0.622344 0
M  V30 9978 O 965.011 2.61533 -0.728886 0
M  V30 9979 C 963.467 1.72544 -3.15843 0
M  V30 9980 C 963.075 0.859263 -4.39682 0
M  V30 9981 C 964.819 2.43876 -3.47455 0
M  V30 9982 C 962.726 1.64003 -5.68205 0
M  V30 9983 H 961.656 0.355514 -0.664925 0
M  V30 9984 H 964.307 0.195963 -1.82451 0
M  V30 9985 H 962.689 2.51456 -3.05918 0
M  V30 9986 H 963.863 0.110562 -4.60667 0
M  V30 9987 H 962.178 0.257985 -4.156 0
M  V30 9988 H 964.775 3.02794 -4.40704 0
M  V30 9989 H 965.118 3.16843 -2.7003 0
M  V30 9990 H 965.651 1.71952 -3.58716 0
M  V30 9991 H 962.39 0.953606 -6.48526 0
M  V30 9992 H 961.91 2.3633 -5.51279 0
M  V30 9993 H 963.589 2.20028 -6.08438 0
M  V30 9994 N 963.721 1.49897 0.486681 0
M  V30 9995 C 964.631 1.70379 1.6127 0
M  V30 9996 C 965.647 0.58659 1.63814 0
M  V30 9997 O 966.823 0.863044 1.81971 0
M  V30 9998 C 963.888 1.77911 2.97571 0
M  V30 9999 C 962.949 3.01569 3.0554 0
M  V30 10000 C 962.182 3.08732 4.35339 0
M  V30 10001 O 962.405 2.23099 5.2496 0
M  V30 10002 O 961.339 4.01325 4.48578 0
M  V30 10003 H 965.165 2.65799 1.46916 0
M  V30 10004 H 962.75 1.33808 0.664516 0
M  V30 10005 H 964.632 1.85135 3.78554 0
M  V30 10006 H 963.307 0.856722 3.12157 0
M  V30 10007 H 962.214 2.99854 2.23693 0
M  V30 10008 H 963.547 3.93335 2.95886 0
M  V30 10009 N 965.199 -0.738761 1.39212 0
M  V30 10010 C 966.429 -1.5258 1.39295 0
M  V30 10011 C 966.837 -1.89194 -0.0153 0
M  V30 10012 O 966.18 -1.5435 -0.996073 0
M  V30 10013 C 966.242 -2.84462 2.19822 0
M  V30 10014 C 965.906 -2.70303 3.68491 0
M  V30 10015 C 966.903 -2.39102 4.61656 0
M  V30 10016 C 964.588 -2.87291 4.1203 0
M  V30 10017 C 966.582 -2.25066 5.96342 0
M  V30 10018 C 964.269 -2.72874 5.46793 0
M  V30 10019 C 965.267 -2.41807 6.38763 0
M  V30 10020 O 964.955 -2.27475 7.71045 0
M  V30 10021 H 964.687 -0.478236 0.477772 0
M  V30 10022 H 967.241 -0.920846 1.83602 0
M  V30 10023 H 965.471 -3.47202 1.70257 0
M  V30 10024 H 967.16 -3.46058 2.12129 0
M  V30 10025 H 967.926 -2.25632 4.2932 0
M  V30 10026 H 963.805 -3.10466 3.40781 0
M  V30 10027 H 967.349 -2.00739 6.68094 0
M  V30 10028 H 963.246 -2.85922 5.78722 0
M  V30 10029 H 964.014 -2.42574 7.81729 0
M  V30 10030 N 966.677 -1.24326 -0.968545 0
M  V30 10031 C 967.609 -0.992749 -2.06584 0
M  V30 10032 C 968.622 0.0374902 -1.62757 0
M  V30 10033 O 969.811 -0.199448 -1.77382 0
M  V30 10034 C 966.911 -0.476165 -3.35538 0
M  V30 10035 C 966.084 -1.56934 -4.08277 0
M  V30 10036 C 965.143 -1.05555 -5.15504 0
M  V30 10037 O 964.169 -1.74707 -5.41725 0
M  V30 10038 N 965.371 0.110465 -5.80395 0
M  V30 10039 H 968.136 -1.93752 -2.28649 0
M  V30 10040 H 965.697 -1.15344 -1.13611 0
M  V30 10041 H 967.689 -0.117223 -4.0453 0
M  V30 10042 H 966.259 0.374315 -3.10351 0
M  V30 10043 H 965.479 -2.10051 -3.33575 0
M  V30 10044 H 966.767 -2.30415 -4.53637 0
M  V30 10045 H 966.165 0.688614 -5.61493 0
M  V30 10046 H 964.722 0.41056 -6.50506 0
M  V30 10047 N 968.156 1.1691 -1.05688 0
M  V30 10048 C 969.404 1.86922 -0.768409 0
M  V30 10049 C 969.725 1.81735 0.706921 0
M  V30 10050 O 968.995 1.24671 1.51109 0
M  V30 10051 H 967.575 0.69203 -0.281253 0
M  V30 10052 H 970.237 1.41803 -1.33708 0
M  V30 10053 H 969.333 2.92528 -1.08783 0
M  V30 10054 N 969.634 0.838594 1.33437 0
M  V30 10055 C 970.597 0.276843 2.27522 0
M  V30 10056 C 971.597 -0.554275 1.50945 0
M  V30 10057 O 972.787 -0.368107 1.70266 0
M  V30 10058 C 969.919 -0.610036 3.35397 0
M  V30 10059 H 971.112 1.10705 2.78719 0
M  V30 10060 H 968.665 0.611657 1.43835 0
M  V30 10061 H 969.4 -1.46269 2.89441 0
M  V30 10062 H 969.185 -0.0153615 3.92097 0
M  V30 10063 H 970.675 -0.996368 4.05539 0
M  V30 10064 N 971.112 -1.45937 0.595003 0
M  V30 10065 C 972.022 -2.34221 -0.133325 0
M  V30 10066 C 973.038 -1.50491 -0.873407 0
M  V30 10067 O 974.214 -1.83328 -0.833828 0
M  V30 10068 C 971.279 -3.27896 -1.12628 0
M  V30 10069 C 970.34 -4.27529 -0.389532 0
M  V30 10070 C 969.573 -5.16729 -1.33519 0
M  V30 10071 O 969.796 -5.09102 -2.57238 0
M  V30 10072 O 968.73 -5.96023 -0.839084 0
M  V30 10073 H 972.556 -2.97877 0.591861 0
M  V30 10074 H 970.141 -1.45113 0.355329 0
M  V30 10075 H 972.023 -3.85654 -1.69851 0
M  V30 10076 H 970.698 -2.6682 -1.83272 0
M  V30 10077 H 969.605 -3.73424 0.224843 0
M  V30 10078 H 970.938 -4.91425 0.276169 0
M  V30 10079 N 972.59 -0.333456 -1.54032 0
M  V30 10080 C 973.537 0.527981 -2.2468 0
M  V30 10081 C 974.507 1.10371 -1.24127 0
M  V30 10082 O 975.692 1.14221 -1.52834 0
M  V30 10083 C 972.832 1.67808 -3.01553 0
M  V30 10084 C 971.945 1.13064 -4.16942 0
M  V30 10085 C 971.08 2.24722 -4.81325 0
M  V30 10086 C 970.119 1.67277 -5.88799 0
M  V30 10087 N 969.256 2.72638 -6.47003 0
M  V30 10088 H 974.096 -0.0810308 -2.9789 0
M  V30 10089 H 971.633 -0.051761 -1.47009 0
M  V30 10090 H 973.591 2.35502 -3.44376 0
M  V30 10091 H 972.221 2.25823 -2.30659 0
M  V30 10092 H 971.273 0.344948 -3.78833 0
M  V30 10093 H 972.585 0.670373 -4.94275 0
M  V30 10094 H 971.739 3.00301 -5.27166 0
M  V30 10095 H 970.478 2.74089 -4.03394 0
M  V30 10096 H 969.483 0.902002 -5.4235 0
M  V30 10097 H 970.708 1.18775 -6.68632 0
M  V30 10098 H 968.654 3.21277 -5.71941 0
M  V30 10099 H 968.571 2.31204 -7.19778 0
M  V30 10100 H 969.839 3.48015 -6.97499 0
M  V30 10101 N 974.068 1.57479 -0.061844 0
M  V30 10102 C 974.978 2.15645 0.923826 0
M  V30 10103 C 975.994 1.117 1.33413 0
M  V30 10104 O 977.17 1.4392 1.40887 0
M  V30 10105 C 974.235 2.69857 2.17665 0
M  V30 10106 C 973.296 3.88638 1.8237 0
M  V30 10107 C 972.529 4.40256 3.01679 0
M  V30 10108 O 972.752 3.90908 4.15388 0
M  V30 10109 O 971.686 5.31713 2.82073 0
M  V30 10110 H 975.512 3.0021 0.459094 0
M  V30 10111 H 973.097 1.48534 0.160665 0
M  V30 10112 H 974.979 3.04647 2.9115 0
M  V30 10113 H 973.654 1.88357 2.63255 0
M  V30 10114 H 972.561 3.58719 1.06167 0
M  V30 10115 H 973.894 4.71401 1.4157 0
M  V30 10116 N 975.546 -0.211634 1.56173 0
M  V30 10117 C 976.792 -0.931479 1.80818 0
M  V30 10118 C 977.147 -1.81571 0.636373 0
M  V30 10119 O 976.44 -1.8801 -0.369182 0
M  V30 10120 C 976.634 -1.79657 3.08963 0
M  V30 10121 C 976.463 -0.997577 4.38496 0
M  V30 10122 C 975.233 -0.688558 5.00587 0
M  V30 10123 C 977.431 -0.358138 5.13052 0
M  V30 10124 N 975.413 0.130797 6.13761 0
M  V30 10125 C 976.784 0.324159 6.19152 0
M  V30 10126 C 978.839 -0.272178 4.97156 0
M  V30 10127 C 977.542 1.08421 7.11082 0
M  V30 10128 C 979.568 0.474428 5.89494 0
M  V30 10129 C 978.93 1.14523 6.95028 0
M  V30 10130 H 975.029 -0.32079 0.713174 0
M  V30 10131 H 977.613 -0.201528 1.93654 0
M  V30 10132 H 975.784 -2.49826 2.97392 0
M  V30 10133 H 977.516 -2.45464 3.2176 0
M  V30 10134 H 974.271 -1.00899 4.62727 0
M  V30 10135 H 974.695 0.5296 6.74925 0
M  V30 10136 H 979.337 -0.776448 4.15609 0
M  V30 10137 H 977.055 1.59996 7.92103 0
M  V30 10138 H 980.641 0.542076 5.79269 0
M  V30 10139 H 979.521 1.71371 7.65246 0
M  V30 10140 N 977.024 -1.50153 -0.478725 0
M  V30 10141 C 978.272 -1.60443 -1.22892 0
M  V30 10142 C 978.593 -0.303276 -1.92627 0
M  V30 10143 O 977.863 0.678798 -1.83764 0
M  V30 10144 H 976.443 -0.591205 -0.456602 0
M  V30 10145 H 979.105 -1.86893 -0.552905 0
M  V30 10146 H 978.201 -2.41175 -1.98094 0
M  V30 10147 N 978.502 0.731368 -1.39602 0
M  V30 10148 C 979.779 1.48308 -1.27531 0
M  V30 10149 C 980.159 2.10795 0.113482 0
M  V30 10150 O 979.507 1.98886 1.12501 0
M  V30 10151 C 979.717 2.53156 -2.40235 0
M  V30 10152 C 981.065 3.19436 -2.79725 0
M  V30 10153 O 982.089 2.6347 -2.39712 0
M  V30 10154 O 980.948 4.20714 -3.48801 0
M  V30 10155 H 978.042 0.658753 -0.499973 0
M  V30 10156 H 980.588 0.764884 -1.51485 0
M  V30 10157 H 979.36 2.05387 -3.33064 0
M  V30 10158 H 978.983 3.3253 -2.17966 0
M  V30 10159 N 979.98 1.24838 0.961938 0
M  V30 10160 C 981.228 1.08936 1.70227 0
M  V30 10161 C 981.549 -0.371582 1.91427 0
M  V30 10162 O 980.819 -1.26461 1.49614 0
M  V30 10163 H 979.399 0.400128 0.630799 0
M  V30 10164 H 982.061 1.56848 1.15692 0
M  V30 10165 H 981.157 1.59195 2.68446 0
M  V30 10166 N 981.458 -1.16348 1.06306 0
M  V30 10167 C 982.707 -1.8622 0.774909 0
M  V30 10168 C 983.02 -1.82598 -0.701245 0
M  V30 10169 O 984.226 -2.48051 -1.10377 0
M  V30 10170 C 982.682 -3.34182 1.33604 0
M  V30 10171 C 982.29 -3.46279 2.84245 0
M  V30 10172 C 984.034 -4.09309 1.12544 0
M  V30 10173 C 981.941 -4.88327 3.33602 0
M  V30 10174 H 980.871 -0.697574 0.286194 0
M  V30 10175 H 983.522 -1.31311 1.28179 0
M  V30 10176 H 981.904 -3.88698 0.756937 0
M  V30 10177 H 983.078 -3.01923 3.48108 0
M  V30 10178 H 981.393 -2.84585 3.03974 0
M  V30 10179 H 983.99 -5.14123 1.46909 0
M  V30 10180 H 984.333 -4.16251 0.0638129 0
M  V30 10181 H 984.866 -3.61032 1.67034 0
M  V30 10182 H 981.605 -4.86565 4.39244 0
M  V30 10183 H 981.125 -5.33307 2.74487 0
M  V30 10184 H 982.804 -5.57144 3.28937 0
M  V30 10185 N 982.937 -0.845659 -1.3299 0
M  V30 10186 C 984.353 -0.53433 -1.5039 0
M  V30 10187 C 984.553 0.936939 -1.78392 0
M  V30 10188 O 983.609 1.72043 -1.84818 0
M  V30 10189 C 984.922 -1.41354 -2.65404 0
M  V30 10190 C 986.47 -1.41303 -2.79289 0
M  V30 10191 C 986.945 -2.27724 -3.97373 0
M  V30 10192 N 988.436 -2.25471 -4.0462 0
M  V30 10193 C 989.171 -2.89074 -4.95201 0
M  V30 10194 N 988.667 -3.61755 -5.90851 0
M  V30 10195 N 990.46 -2.78508 -4.88251 0
M  V30 10196 H 982.611 -1.79798 -1.13078 0
M  V30 10197 H 984.874 -0.767454 -0.556524 0
M  V30 10198 H 984.58 -2.45936 -2.51413 0
M  V30 10199 H 984.454 -1.09445 -3.60973 0
M  V30 10200 H 986.841 -0.374899 -2.92709 0
M  V30 10201 H 986.922 -1.77222 -1.84461 0
M  V30 10202 H 986.566 -3.316 -3.84713 0
M  V30 10203 H 986.496 -1.89142 -4.9146 0
M  V30 10204 H 988.987 -1.72622 -3.3617 0
M  V30 10205 H 989.3 -4.07475 -6.56646 0
M  V30 10206 H 987.645 -3.65863 -5.90906 0
M  V30 10207 H 990.836 -2.21285 -4.12493 0
M  V30 10208 H 991.009 -3.2836 -5.58645 0
M  V30 10209 N 984.415 1.45619 -0.602734 0
M  V30 10210 C 985.663 2.01873 -0.095844 0
M  V30 10211 C 985.984 1.47427 1.27633 0
M  V30 10212 O 985.254 0.666652 1.84208 0
M  V30 10213 H 983.834 0.746295 -0.0324408 0
M  V30 10214 H 986.496 1.78478 -0.783037 0
M  V30 10215 H 985.592 3.12072 -0.0419507 0
M  V30 10216 N 985.893 0.34162 1.53853 0
M  V30 10217 C 986.823 -0.508431 2.27897 0
M  V30 10218 C 987.804 -1.10425 1.29384 0
M  V30 10219 O 988.989 -1.126 1.58224 0
M  V30 10220 C 986.119 -1.66048 3.05034 0
M  V30 10221 C 985.073 -1.19309 4.11035 0
M  V30 10222 C 984.399 -2.4335 4.76114 0
M  V30 10223 C 985.699 -0.294952 5.21467 0
M  V30 10224 H 987.393 0.109251 2.99201 0
M  V30 10225 H 984.939 0.0539847 1.43899 0
M  V30 10226 H 986.892 -2.26158 3.5557 0
M  V30 10227 H 985.616 -2.30503 2.31379 0
M  V30 10228 H 984.275 -0.614809 3.61408 0
M  V30 10229 H 983.923 -3.06208 3.99056 0
M  V30 10230 H 983.623 -2.1276 5.47729 0
M  V30 10231 H 985.147 -3.0419 5.29434 0
M  V30 10232 H 986.561 -0.80285 5.67651 0
M  V30 10233 H 984.958 -0.0810221 6.00045 0
M  V30 10234 H 986.028 0.669433 4.80257 0
M  V30 10235 N 987.371 -1.57444 0.0701946 0
M  V30 10236 C 988.596 -1.98171 -0.61181 0
M  V30 10237 C 989.021 -0.94823 -1.62451 0
M  V30 10238 O 988.379 0.0863553 -1.81094 0
M  V30 10239 C 988.427 -3.37934 -1.2583 0
M  V30 10240 O 987.531 -3.37207 -2.37414 0
M  V30 10241 H 986.872 -0.645056 -0.157477 0
M  V30 10242 H 989.402 -2.04091 0.144235 0
M  V30 10243 H 989.412 -3.75083 -1.60552 0
M  V30 10244 H 988.087 -4.12684 -0.516234 0
M  V30 10245 H 986.664 -3.11826 -2.04497 0
M  V30 10246 N 988.849 0.203349 -1.56283 0
M  V30 10247 C 989.779 1.2549 -1.96912 0
M  V30 10248 C 990.76 1.47919 -0.839884 0
M  V30 10249 O 991.945 1.59795 -1.10359 0
M  V30 10250 C 989.075 2.6009 -2.30153 0
M  V30 10251 C 988.029 2.52289 -3.45738 0
M  V30 10252 C 987.355 3.91086 -3.64632 0
M  V30 10253 C 988.655 2.05503 -4.80173 0
M  V30 10254 H 990.349 0.917306 -2.85002 0
M  V30 10255 H 987.895 0.439818 -1.37119 0
M  V30 10256 H 989.848 3.33829 -2.5717 0
M  V30 10257 H 988.572 2.95574 -1.38937 0
M  V30 10258 H 987.231 1.81006 -3.18798 0
M  V30 10259 H 986.879 4.23908 -2.7076 0
M  V30 10260 H 986.579 3.86742 -4.42385 0
M  V30 10261 H 988.103 4.66459 -3.94016 0
M  V30 10262 H 989.517 2.68995 -5.06275 0
M  V30 10263 H 987.914 2.1218 -5.61337 0
M  V30 10264 H 988.984 1.00793 -4.74309 0
M  V30 10265 N 990.327 1.50405 0.470755 0
M  V30 10266 C 991.552 1.65442 1.25075 0
M  V30 10267 C 991.977 0.337612 1.85045 0
M  V30 10268 O 991.335 -0.698555 1.67302 0
M  V30 10269 C 991.383 2.74793 2.33498 0
M  V30 10270 O 990.487 2.36069 3.3815 0
M  V30 10271 H 989.828 0.552728 0.367951 0
M  V30 10272 H 992.358 1.96782 0.560177 0
M  V30 10273 H 992.368 2.97879 2.78804 0
M  V30 10274 H 991.043 3.70363 1.8922 0
M  V30 10275 H 989.62 2.2343 2.98552 0
M  V30 10276 N 991.805 -0.723954 1.39988 0
M  V30 10277 C 992.768 -1.81973 1.3935 0
M  V30 10278 C 993.768 -1.58187 0.288702 0
M  V30 10279 O 994.958 -1.65383 0.547181 0
M  V30 10280 C 992.09 -3.19937 1.177 0
M  V30 10281 H 993.283 -1.83939 2.36868 0
M  V30 10282 H 990.836 -0.928742 1.25714 0
M  V30 10283 H 991.571 -3.23625 0.209093 0
M  V30 10284 H 991.356 -3.386 1.97719 0
M  V30 10285 H 992.846 -3.99981 1.20022 0
M  V30 10286 N 993.283 -1.25346 -0.955304 0
M  V30 10287 C 994.246 -1.05754 -2.03344 0
M  V30 10288 C 995.246 -0.0105743 -1.60797 0
M  V30 10289 O 996.436 -0.252699 -1.72357 0
M  V30 10290 C 993.568 -0.605536 -3.35479 0
M  V30 10291 H 994.761 -2.01459 -2.22158 0
M  V30 10292 H 992.314 -1.07744 -1.1323 0
M  V30 10293 H 993.049 0.354154 -3.2236 0
M  V30 10294 H 992.834 -1.36134 -3.67709 0
M  V30 10295 H 994.324 -0.489867 -4.14717 0
M  V30 10296 N 994.761 1.15782 -1.06922 0
M  V30 10297 C 996.177 1.38454 -0.793896 0
M  V30 10298 C 996.377 1.92238 0.603875 0
M  V30 10299 O 995.433 2.1253 1.36335 0
M  V30 10300 C 996.746 2.3595 -1.86408 0
M  V30 10301 C 998.294 2.49622 -1.88833 0
M  V30 10302 C 998.769 3.50406 -2.94923 0
M  V30 10303 N 1000.26 3.57938 -2.93997 0
M  V30 10304 C 1001 4.35728 -3.72731 0
M  V30 10305 N 1000.49 5.16888 -4.61301 0
M  V30 10306 N 1002.28 4.30774 -3.61096 0
M  V30 10307 H 994.435 0.792101 -1.97077 0
M  V30 10308 H 996.698 0.410779 -0.85438 0
M  V30 10309 H 996.404 2.03537 -2.86819 0
M  V30 10310 H 996.278 3.35677 -1.72049 0
M  V30 10311 H 998.665 2.81335 -0.890759 0
M  V30 10312 H 998.746 1.49909 -2.0727 0
M  V30 10313 H 998.39 3.19429 -3.94877 0
M  V30 10314 H 998.32 4.49864 -2.73734 0
M  V30 10315 H 1000.81 3.00007 -2.29791 0
M  V30 10316 H 1001.12 5.73477 -5.18019 0
M  V30 10317 H 999.469 5.16209 -4.65353 0
M  V30 10318 H 1002.66 3.66432 -2.91282 0
M  V30 10319 H 1002.83 4.91151 -4.22699 0
M  V30 10320 N 996.239 0.8527 1.3254 0
M  V30 10321 C 997.469 0.468363 2.01221 0
M  V30 10322 C 997.877 -0.938966 1.64256 0
M  V30 10323 O 997.22 -1.62387 0.858837 0
M  V30 10324 C 997.282 0.525457 3.55639 0
M  V30 10325 C 996.946 1.89133 4.16026 0
M  V30 10326 C 997.943 2.85652 4.34395 0
M  V30 10327 C 995.628 2.18795 4.52144 0
M  V30 10328 C 997.622 4.09985 4.88048 0
M  V30 10329 C 995.309 3.43381 5.05502 0
M  V30 10330 C 996.307 4.38792 5.23403 0
M  V30 10331 O 995.995 5.61173 5.75622 0
M  V30 10332 H 995.727 0.182712 0.65084 0
M  V30 10333 H 998.281 1.15076 1.70138 0
M  V30 10334 H 996.511 -0.213779 3.86109 0
M  V30 10335 H 998.2 0.156999 4.05596 0
M  V30 10336 H 998.966 2.6404 4.06827 0
M  V30 10337 H 994.845 1.45317 4.37498 0
M  V30 10338 H 998.389 4.84465 5.01936 0
M  V30 10339 H 994.286 3.64844 5.32503 0
M  V30 10340 H 995.054 5.63104 5.94017 0
M  V30 10341 N 997.718 -1.45297 0.610449 0
M  V30 10342 C 998.681 -2.28995 -0.0968194 0
M  V30 10343 C 999.681 -1.39923 -0.792353 0
M  V30 10344 O 1000.87 -1.62014 -0.64008 0
M  V30 10345 C 998.003 -3.21013 -1.14731 0
M  V30 10346 H 999.196 -2.93012 0.639082 0
M  V30 10347 H 996.749 -1.51867 0.369624 0
M  V30 10348 H 997.484 -2.61803 -1.91388 0
M  V30 10349 H 997.269 -3.86628 -0.652753 0
M  V30 10350 H 998.759 -3.8394 -1.64256 0
M  V30 10351 N 999.196 -0.349774 -1.5367 0
M  V30 10352 C 1000.13 0.496338 -2.28164 0
M  V30 10353 C 1001.11 1.09737 -1.29968 0
M  V30 10354 O 1002.29 1.11759 -1.58819 0
M  V30 10355 C 999.422 1.64428 -3.0591 0
M  V30 10356 C 998.376 1.17127 -4.11661 0
M  V30 10357 C 997.702 2.40822 -4.77398 0
M  V30 10358 C 999.002 0.267293 -5.21616 0
M  V30 10359 H 1000.7 -0.125117 -2.99138 0
M  V30 10360 H 998.242 -0.0616152 -1.43868 0
M  V30 10361 H 1000.19 2.2427 -3.56765 0
M  V30 10362 H 998.919 2.29272 -2.32598 0
M  V30 10363 H 997.578 0.595634 -3.61729 0
M  V30 10364 H 997.226 3.04088 -4.00674 0
M  V30 10365 H 996.926 2.09852 -5.48849 0
M  V30 10366 H 998.45 3.01378 -5.3104 0
M  V30 10367 H 999.864 0.772734 -5.68068 0
M  V30 10368 H 998.261 0.0491991 -6.0008 0
M  V30 10369 H 999.331 -0.694892 -4.79895 0
M  V30 10370 N 1000.67 1.57404 -0.0785433 0
M  V30 10371 C 1001.6 2.16131 0.883726 0
M  V30 10372 C 1002.58 1.09015 1.30575 0
M  V30 10373 O 1003.77 1.3708 1.37559 0
M  V30 10374 C 1000.9 2.72836 2.1489 0
M  V30 10375 C 999.854 3.85178 1.86605 0
M  V30 10376 C 999.18 4.28516 3.1981 0
M  V30 10377 C 1000.48 5.09118 1.16601 0
M  V30 10378 H 1002.17 2.9679 0.394484 0
M  V30 10379 H 999.72 1.42763 0.188304 0
M  V30 10380 H 1001.67 3.12567 2.8263 0
M  V30 10381 H 1000.4 1.89408 2.66068 0
M  V30 10382 H 999.056 3.45962 1.21268 0
M  V30 10383 H 998.704 3.42 3.68843 0
M  V30 10384 H 998.404 5.04249 3.01674 0
M  V30 10385 H 999.928 4.70868 3.88737 0
M  V30 10386 H 1001.34 5.46123 1.74422 0
M  V30 10387 H 999.739 5.90173 1.087 0
M  V30 10388 H 1000.81 4.8468 0.146138 0
M  V30 10389 N 1002.15 -0.195058 1.56388 0
M  V30 10390 C 1003.57 -0.545894 1.49974 0
M  V30 10391 C 1003.77 -1.85851 0.778568 0
M  V30 10392 O 1002.82 -2.50346 0.329105 0
M  V30 10393 C 1004.14 -0.600599 2.94641 0
M  V30 10394 C 1005.68 -0.689429 3.05313 0
M  V30 10395 C 1006.16 -0.775243 4.51391 0
M  V30 10396 N 1007.65 -0.838769 4.55542 0
M  V30 10397 C 1008.39 -0.925337 5.65884 0
M  V30 10398 N 1007.88 -0.974204 6.85916 0
M  V30 10399 N 1009.67 -0.962528 5.53798 0
M  V30 10400 H 1001.83 0.66595 2.0169 0
M  V30 10401 H 1004.09 0.237215 0.917842 0
M  V30 10402 H 1003.79 0.29478 3.50462 0
M  V30 10403 H 1003.67 -1.45528 3.47996 0
M  V30 10404 H 1006.06 -1.57524 2.4954 0
M  V30 10405 H 1006.14 0.191451 2.55083 0
M  V30 10406 H 1005.78 0.106215 5.07789 0
M  V30 10407 H 1005.71 -1.67193 4.99354 0
M  V30 10408 H 1008.2 -0.810249 3.69112 0
M  V30 10409 H 1008.51 -1.04077 7.6576 0
M  V30 10410 H 1006.86 -0.942881 6.88574 0
M  V30 10411 H 1010.05 -0.921188 4.58946 0
M  V30 10412 H 1010.22 -1.02653 6.39817 0
M  V30 10413 N 1003.63 -1.50653 -0.462772 0
M  V30 10414 C 1004.56 -1.73056 -1.5676 0
M  V30 10415 C 1005.54 -0.579699 -1.59917 0
M  V30 10416 O 1006.73 -0.819729 -1.76051 0
M  V30 10417 C 1003.86 -1.83234 -2.9503 0
M  V30 10418 C 1002.81 -2.98488 -3.06739 0
M  V30 10419 C 1002.14 -2.93818 -4.46738 0
M  V30 10420 C 1003.44 -4.38869 -2.83181 0
M  V30 10421 H 1005.13 -2.65562 -1.38265 0
M  V30 10422 H 1002.68 -1.27792 -0.663722 0
M  V30 10423 H 1004.63 -1.97491 -3.72257 0
M  V30 10424 H 1003.35 -0.873558 -3.14701 0
M  V30 10425 H 1002.01 -2.83895 -2.31946 0
M  V30 10426 H 1001.66 -1.95769 -4.63339 0
M  V30 10427 H 1001.36 -3.71197 -4.55507 0
M  V30 10428 H 1002.88 -3.10135 -5.25974 0
M  V30 10429 H 1004.3 -4.53945 -3.50153 0
M  V30 10430 H 1002.69 -5.17762 -3.03386 0
M  V30 10431 H 1003.76 -4.50663 -1.78972 0
M  V30 10432 N 1005.11 0.71652 -1.4037 0
M  V30 10433 C 1006.02 1.86074 -1.42876 0
M  V30 10434 C 1007.03 1.71005 -0.321475 0
M  V30 10435 O 1008.21 1.93286 -0.565909 0
M  V30 10436 C 1005.28 3.21862 -1.28863 0
M  V30 10437 C 1004.34 3.49193 -2.49726 0
M  V30 10438 C 1003.57 4.78502 -2.36372 0
M  V30 10439 O 1003.79 5.53529 -1.37703 0
M  V30 10440 O 1002.73 5.06147 -3.25728 0
M  V30 10441 H 1006.55 1.86916 -2.39366 0
M  V30 10442 H 1004.14 0.866818 -1.21683 0
M  V30 10443 H 1006.02 4.02972 -1.23253 0
M  V30 10444 H 1004.69 3.2175 -0.354783 0
M  V30 10445 H 1003.6 2.68095 -2.60913 0
M  V30 10446 H 1004.93 3.54101 -3.41868 0
M  V30 10447 N 1006.59 1.25851 0.948643 0
M  V30 10448 C 1007.5 1.08516 2.07994 0
M  V30 10449 C 1008.51 0.0206696 1.73988 0
M  V30 10450 O 1009.69 0.222854 2.00163 0
M  V30 10451 C 1006.75 0.712145 3.39307 0
M  V30 10452 C 1005.81 1.85523 3.87143 0
M  V30 10453 C 1005.05 1.49992 5.1219 0
M  V30 10454 O 1005.27 0.398268 5.69008 0
M  V30 10455 O 1004.2 2.33215 5.54882 0
M  V30 10456 H 1008.03 2.03405 2.25522 0
M  V30 10457 H 1005.62 1.04844 1.06433 0
M  V30 10458 H 1007.5 0.516512 4.18223 0
M  V30 10459 H 1006.17 -0.207416 3.23035 0
M  V30 10460 H 1005.08 2.10578 3.09205 0
M  V30 10461 H 1006.41 2.75425 4.07924 0
M  V30 10462 N 1008.06 -1.15214 1.07534 0
M  V30 10463 C 1009.31 -1.85676 0.79805 0
M  V30 10464 C 1009.63 -1.82837 -0.677919 0
M  V30 10465 O 1008.9 -1.27059 -1.49107 0
M  V30 10466 H 1007.48 -0.687468 0.292227 0
M  V30 10467 H 1010.15 -1.39658 1.35947 0
M  V30 10468 H 1009.24 -2.9076 1.13423 0
M  V30 10469 N 1009.54 -0.859717 -1.32086 0
M  V30 10470 C 1010.95 -0.519529 -1.79326 0
M  V30 10471 C 1011.3 0.96295 -1.70944 0
M  V30 10472 O 1010.43 1.75139 -1.27104 0
M  V30 10473 C 1011.02 -0.936267 -3.25606 0
M  V30 10474 C 1009.58 -0.647899 -3.70782 0
M  V30 10475 C 1008.73 -1.13323 -2.53087 0
M  V30 10476 H 1011.68 -1.04643 -1.19312 0
M  V30 10477 H 1011.7 -0.254714 -3.79646 0
M  V30 10478 H 1011.21 -2.01527 -3.31675 0
M  V30 10479 H 1009.32 0.420172 -3.70223 0
M  V30 10480 H 1009.43 -1.21774 -4.63366 0
M  V30 10481 H 1007.79 -0.553325 -2.48617 0
M  V30 10482 H 1008.58 -2.21945 -2.61907 0
M  V30 10483 N 1011.02 1.44971 -0.618145 0
M  V30 10484 C 1012.43 1.85611 -0.201334 0
M  V30 10485 C 1012.78 1.51698 1.24427 0
M  V30 10486 O 1011.91 0.94875 1.94493 0
M  V30 10487 C 1012.5 3.36897 -0.358619 0
M  V30 10488 C 1011.06 3.764 0.00358196 0
M  V30 10489 C 1010.21 2.68881 -0.678118 0
M  V30 10490 H 1013.16 1.35622 -0.824152 0
M  V30 10491 H 1013.18 3.78326 0.406176 0
M  V30 10492 H 1012.69 3.61548 -1.41084 0
M  V30 10493 H 1010.79 3.57365 1.05457 0
M  V30 10494 H 1010.91 4.77449 -0.397427 0
M  V30 10495 H 1009.27 2.54442 -0.114699 0
M  V30 10496 H 1010.05 2.96367 -1.73268 0
M  V30 10497 N 1012.5 0.357919 1.53482 0
M  V30 10498 C 1013.45 -0.50845 2.22258 0
M  V30 10499 C 1014.43 -1.05476 1.21506 0
M  V30 10500 O 1015.62 -0.986075 1.46988 0
M  V30 10501 C 1012.75 -1.65157 3.00962 0
M  V30 10502 C 1011.84 -1.11851 4.09084 0
M  V30 10503 N 1012.23 -0.307818 5.04862 0
M  V30 10504 C 1010.53 -1.39405 4.23653 0
M  V30 10505 C 1011.23 -0.016842 5.81698 0
M  V30 10506 N 1010.21 -0.612396 5.40139 0
M  V30 10507 H 1014.01 0.117836 2.93664 0
M  V30 10508 H 1011.52 0.16553 1.61554 0
M  V30 10509 H 1013.52 -2.28435 3.48745 0
M  V30 10510 H 1012.18 -2.281 2.31086 0
M  V30 10511 H 1013.19 0.0523313 5.17874 0
M  V30 10512 H 1009.87 -2.02682 3.65002 0
M  V30 10513 H 1011.26 0.638046 6.68864 0
M  V30 10514 N 1013.98 -1.5736 0.0868897 0
M  V30 10515 C 1015.2 -1.98388 -0.587349 0
M  V30 10516 C 1015.62 -0.965757 -1.6223 0
M  V30 10517 O 1014.98 0.0456981 -1.82443 0
M  V30 10518 C 1015.03 -3.39479 -1.24242 0
M  V30 10519 O 1014.75 -4.37393 -0.248878 0
M  V30 10520 C 1016.25 -3.95465 -2.00305 0
M  V30 10521 H 1013.47 -0.652111 -0.15809 0
M  V30 10522 H 1016.01 -2.03843 0.163754 0
M  V30 10523 H 1014.17 -3.35063 -1.94451 0
M  V30 10524 H 1014.58 -5.19525 -0.720678 0
M  V30 10525 H 1016.06 -4.96363 -2.41511 0
M  V30 10526 H 1016.53 -3.32832 -2.86565 0
M  V30 10527 H 1017.14 -4.03328 -1.34931 0
M  V30 10528 N 1015.45 0.186762 -1.56489 0
M  V30 10529 C 1016.4 1.23141 -1.95205 0
M  V30 10530 C 1017.37 1.44799 -0.81378 0
M  V30 10531 O 1018.56 1.57795 -1.07263 0
M  V30 10532 C 1015.7 2.56926 -2.30397 0
M  V30 10533 C 1014.81 2.42777 -3.57328 0
M  V30 10534 C 1013.94 3.69323 -3.81804 0
M  V30 10535 C 1012.98 3.50041 -5.02133 0
M  V30 10536 N 1012.12 4.68619 -5.2282 0
M  V30 10537 H 1016.96 0.894256 -2.84266 0
M  V30 10538 H 1014.5 0.430187 -1.40669 0
M  V30 10539 H 1016.46 3.3488 -2.4882 0
M  V30 10540 H 1015.09 2.88668 -1.44466 0
M  V30 10541 H 1014.14 1.56078 -3.46906 0
M  V30 10542 H 1015.45 2.24468 -4.45439 0
M  V30 10543 H 1014.6 4.55715 -4.00511 0
M  V30 10544 H 1013.34 3.90595 -2.92039 0
M  V30 10545 H 1012.35 2.62034 -4.8334 0
M  V30 10546 H 1013.57 3.30206 -5.93414 0
M  V30 10547 H 1011.52 4.90139 -4.36005 0
M  V30 10548 H 1011.44 4.53165 -6.05126 0
M  V30 10549 H 1012.7 5.56338 -5.45993 0
M  V30 10550 N 1016.93 1.50896 0.454776 0
M  V30 10551 C 1017.88 1.71497 1.57136 0
M  V30 10552 C 1018.87 0.58098 1.59126 0
M  V30 10553 O 1020.08 0.761916 1.63079 0
M  V30 10554 H 1016.46 0.54158 0.521724 0
M  V30 10555 H 1018.43 2.65129 1.36928 0
M  V30 10556 C 1017.18 1.84125 2.94947 0
M  V30 10557 H 1016.5 2.7078 2.9414 0
M  V30 10558 H 1017.94 2.02558 3.72487 0
M  V30 10559 C 1016.4 0.596752 3.31573 0
M  V30 10560 O 1016.93 -0.256632 4.00879 0
M  V30 10561 N 1015.13 0.445958 2.87158 0
M  V30 10562 H 1014.68 1.14146 2.30929 0
M  V30 10563 H 1014.64 -0.385519 3.12027 0
M  V30 10564 N 1018.41 -0.709066 1.40748 0
M  V30 10565 C 1019.66 -1.46993 1.40587 0
M  V30 10566 C 1020.01 -1.92397 0.00986301 0
M  V30 10567 O 1019.3 -1.65712 -0.961772 0
M  V30 10568 C 1019.5 -2.70543 2.33541 0
M  V30 10569 C 1019.33 -2.37222 3.82041 0
M  V30 10570 C 1018.1 -2.28244 4.50813 0
M  V30 10571 C 1020.3 -2.01069 4.73367 0
M  V30 10572 N 1018.28 -1.87667 5.84512 0
M  V30 10573 C 1019.65 -1.71144 5.95911 0
M  V30 10574 C 1021.7 -1.87761 4.6114 0
M  V30 10575 C 1020.41 -1.2925 7.07592 0
M  V30 10576 C 1022.43 -1.47271 5.7277 0
M  V30 10577 C 1021.79 -1.18249 6.94404 0
M  V30 10578 H 1017.89 -0.535708 0.569685 0
M  V30 10579 H 1020.48 -0.821669 1.76513 0
M  V30 10580 H 1018.65 -3.33109 1.99733 0
M  V30 10581 H 1020.38 -3.36927 2.24192 0
M  V30 10582 H 1017.14 -2.46199 4.04578 0
M  V30 10583 H 1017.56 -1.69899 6.55335 0
M  V30 10584 H 1022.2 -2.08858 3.67611 0
M  V30 10585 H 1019.92 -1.06896 8.00999 0
M  V30 10586 H 1023.51 -1.37544 5.65308 0
M  V30 10587 H 1022.39 -0.873897 7.79316 0
M  V30 10588 N 1019.89 -1.26353 -0.941956 0
M  V30 10589 C 1021.31 -1.03448 -1.21534 0
M  V30 10590 C 1021.51 0.240855 -2.00055 0
M  V30 10591 O 1020.56 0.950199 -2.33939 0
M  V30 10592 C 1021.87 -2.2654 -1.97737 0
M  V30 10593 C 1023.42 -2.31433 -2.10731 0
M  V30 10594 C 1023.9 -3.54216 -2.90336 0
M  V30 10595 N 1025.39 -3.54688 -2.9791 0
M  V30 10596 C 1026.12 -4.4636 -3.59931 0
M  V30 10597 N 1025.62 -5.48319 -4.2346 0
M  V30 10598 N 1027.41 -4.34013 -3.57196 0
M  V30 10599 H 1019.56 -2.08266 -0.417005 0
M  V30 10600 H 1021.83 -0.915251 -0.247021 0
M  V30 10601 H 1021.53 -3.19299 -1.47449 0
M  V30 10602 H 1021.41 -2.30726 -2.98405 0
M  V30 10603 H 1023.79 -1.3919 -2.60212 0
M  V30 10604 H 1023.87 -2.31259 -1.09329 0
M  V30 10605 H 1023.52 -4.46788 -2.41543 0
M  V30 10606 H 1023.45 -3.51637 -3.91993 0
M  V30 10607 H 1025.94 -2.80942 -2.52745 0
M  V30 10608 H 1026.25 -6.14458 -4.6868 0
M  V30 10609 H 1024.6 -5.52177 -4.22049 0
M  V30 10610 H 1027.79 -3.53578 -3.06758 0
M  V30 10611 H 1027.96 -5.0565 -4.05244 0
M  V30 10612 N 1021.37 1.14642 -1.08144 0
M  V30 10613 C 1022.78 1.6719 -0.830923 0
M  V30 10614 C 1023.13 1.85373 0.642749 0
M  V30 10615 O 1022.25 1.56293 1.49671 0
M  V30 10616 C 1022.85 3.03697 -1.50179 0
M  V30 10617 C 1021.41 3.5329 -1.29858 0
M  V30 10618 C 1020.56 2.28828 -1.5663 0
M  V30 10619 H 1023.51 0.987441 -1.24239 0
M  V30 10620 H 1023.53 3.69023 -0.9275 0
M  V30 10621 H 1023.04 2.90431 -2.57432 0
M  V30 10622 H 1021.14 3.71783 -0.246626 0
M  V30 10623 H 1021.25 4.34231 -2.02436 0
M  V30 10624 H 1019.62 2.34769 -0.987716 0
M  V30 10625 H 1020.4 2.18141 -2.65084 0
M  V30 10626 N 1022.85 0.866709 1.31628 0
M  V30 10627 C 1023.78 0.277328 2.27516 0
M  V30 10628 C 1024.79 -0.557786 1.52946 0
M  V30 10629 O 1025.98 -0.38031 1.74402 0
M  V30 10630 C 1023.08 -0.625742 3.33073 0
M  V30 10631 C 1022.25 0.176204 4.37045 0
M  V30 10632 C 1021.31 -0.654497 5.22114 0
M  V30 10633 O 1020.34 -0.0836961 5.69138 0
M  V30 10634 N 1021.54 -1.96708 5.46156 0
M  V30 10635 H 1024.3 1.10133 2.78731 0
M  V30 10636 H 1021.87 0.72787 1.44616 0
M  V30 10637 H 1023.86 -1.18709 3.86898 0
M  V30 10638 H 1022.43 -1.35042 2.81926 0
M  V30 10639 H 1021.65 0.918999 3.83338 0
M  V30 10640 H 1022.94 0.726594 5.03585 0
M  V30 10641 H 1022.33 -2.454 5.09701 0
M  V30 10642 H 1020.89 -2.47629 6.02929 0
M  V30 10643 N 1024.32 -1.44642 0.625825 0
M  V30 10644 C 1025.25 -2.33397 -0.0692188 0
M  V30 10645 C 1026.23 -1.47898 -0.840241 0
M  V30 10646 O 1027.42 -1.7663 -0.807176 0
M  V30 10647 C 1024.55 -3.30888 -1.055 0
M  V30 10648 C 1023.5 -4.26164 -0.395968 0
M  V30 10649 C 1022.83 -5.13483 -1.49128 0
M  V30 10650 C 1024.13 -5.17663 0.694433 0
M  V30 10651 H 1025.82 -2.91763 0.671925 0
M  V30 10652 H 1023.37 -1.40294 0.324573 0
M  V30 10653 H 1025.32 -3.91861 -1.54993 0
M  V30 10654 H 1024.05 -2.7072 -1.82696 0
M  V30 10655 H 1022.71 -3.66516 0.0782691 0
M  V30 10656 H 1022.35 -4.49672 -2.25399 0
M  V30 10657 H 1022.05 -5.78038 -1.05573 0
M  V30 10658 H 1023.58 -5.77327 -1.98813 0
M  V30 10659 H 1024.99 -5.72602 0.282818 0
M  V30 10660 H 1023.39 -5.90793 1.05281 0
M  V30 10661 H 1024.46 -4.58994 1.56372 0
M  V30 10662 N 1025.8 -0.366053 -1.5329 0
M  V30 10663 C 1026.73 0.47211 -2.28677 0
M  V30 10664 C 1027.71 1.08353 -1.31125 0
M  V30 10665 O 1028.9 1.10069 -1.59995 0
M  V30 10666 C 1026.03 1.61174 -3.07637 0
M  V30 10667 C 1024.98 1.12755 -4.12881 0
M  V30 10668 C 1024.31 2.35745 -4.79925 0
M  V30 10669 C 1025.61 0.211954 -5.2187 0
M  V30 10670 H 1027.3 -0.156838 -2.98989 0
M  V30 10671 H 1024.85 -0.0768709 -1.43795 0
M  V30 10672 H 1026.8 2.20473 -3.59123 0
M  V30 10673 H 1025.52 2.26793 -2.35016 0
M  V30 10674 H 1024.18 0.557234 -3.6234 0
M  V30 10675 H 1023.83 2.99821 -4.03877 0
M  V30 10676 H 1023.53 2.04019 -5.51044 0
M  V30 10677 H 1025.06 2.95729 -5.34207 0
M  V30 10678 H 1026.47 0.71244 -5.68856 0
M  V30 10679 H 1024.87 -0.0144501 -6.00098 0
M  V30 10680 H 1025.94 -0.745753 -4.79131 0
M  V30 10681 N 1027.28 1.57312 -0.0952337 0
M  V30 10682 C 1028.53 1.94646 0.569284 0
M  V30 10683 C 1028.86 0.977152 1.67825 0
M  V30 10684 O 1028.13 0.0102318 1.94497 0
M  V30 10685 C 1028.42 3.42098 1.12433 0
M  V30 10686 C 1028.27 4.49795 0.0204016 0
M  V30 10687 C 1029.59 3.90866 2.02266 0
M  V30 10688 H 1026.71 0.707779 0.205469 0
M  V30 10689 H 1029.35 1.89274 -0.16597 0
M  V30 10690 H 1027.5 3.46807 1.75092 0
M  V30 10691 H 1029.17 4.57198 -0.613845 0
M  V30 10692 H 1027.41 4.28964 -0.645965 0
M  V30 10693 H 1028.09 5.50166 0.449579 0
M  V30 10694 H 1030.56 3.88311 1.49512 0
M  V30 10695 H 1029.44 4.94604 2.38029 0
M  V30 10696 H 1029.7 3.30167 2.9401 0
M  V30 10697 N 1028.76 -0.17846 1.56586 0
M  V30 10698 C 1029.69 -1.22342 1.98884 0
M  V30 10699 C 1030.67 -1.46564 0.86331 0
M  V30 10700 O 1031.85 -1.58019 1.12887 0
M  V30 10701 C 1028.98 -2.56396 2.34261 0
M  V30 10702 C 1027.94 -2.46756 3.49708 0
M  V30 10703 C 1027.26 -3.85235 3.70807 0
M  V30 10704 C 1028.56 -1.97838 4.83381 0
M  V30 10705 H 1030.26 -0.871848 2.86425 0
M  V30 10706 H 1027.8 -0.417948 1.37801 0
M  V30 10707 H 1029.76 -3.29695 2.62448 0
M  V30 10708 H 1028.48 -2.93327 1.43621 0
M  V30 10709 H 1027.14 -1.75912 3.21637 0
M  V30 10710 H 1026.79 -4.19547 2.7747 0
M  V30 10711 H 1026.49 -3.79655 4.48481 0
M  V30 10712 H 1028.01 -4.60131 4.01387 0
M  V30 10713 H 1029.43 -2.60906 5.10491 0
M  V30 10714 H 1027.82 -2.03223 5.64642 0
M  V30 10715 H 1028.89 -0.932339 4.75852 0
M  V30 10716 N 1030.24 -1.51135 -0.446768 0
M  V30 10717 C 1031.17 -1.74709 -1.54916 0
M  V30 10718 C 1032.15 -0.596628 -1.59293 0
M  V30 10719 O 1033.33 -0.838356 -1.75172 0
M  V30 10720 C 1030.46 -1.86353 -2.9307 0
M  V30 10721 C 1029.42 -3.01725 -3.03556 0
M  V30 10722 C 1028.74 -2.9854 -4.43597 0
M  V30 10723 C 1030.04 -4.41848 -2.7851 0
M  V30 10724 H 1031.74 -2.67014 -1.3544 0
M  V30 10725 H 1029.28 -1.28489 -0.650131 0
M  V30 10726 H 1031.23 -2.01428 -3.70141 0
M  V30 10727 H 1029.96 -0.906887 -3.13756 0
M  V30 10728 H 1028.62 -2.86339 -2.28922 0
M  V30 10729 H 1028.27 -2.00673 -4.61237 0
M  V30 10730 H 1027.97 -3.76008 -4.51544 0
M  V30 10731 H 1029.49 -3.15696 -5.22655 0
M  V30 10732 H 1030.9 -4.57633 -3.45319 0
M  V30 10733 H 1029.3 -5.2095 -2.97877 0
M  V30 10734 H 1030.37 -4.52536 -1.74182 0
M  V30 10735 N 1031.71 0.701592 -1.41122 0
M  V30 10736 C 1032.66 1.81559 -1.42495 0
M  V30 10737 C 1033.63 1.63722 -0.280078 0
M  V30 10738 O 1034.82 1.84658 -0.480231 0
M  V30 10739 C 1031.96 3.19392 -1.30702 0
M  V30 10740 C 1031.07 3.48704 -2.55009 0
M  V30 10741 C 1030.2 4.76118 -2.35554 0
M  V30 10742 C 1029.24 4.98378 -3.55367 0
M  V30 10743 N 1028.38 6.17014 -3.3502 0
M  V30 10744 H 1033.22 1.7972 -2.37707 0
M  V30 10745 H 1030.76 0.877727 -1.18044 0
M  V30 10746 H 1032.71 3.99004 -1.21867 0
M  V30 10747 H 1031.34 3.20423 -0.391012 0
M  V30 10748 H 1030.4 2.63542 -2.74317 0
M  V30 10749 H 1031.71 3.61057 -3.44151 0
M  V30 10750 H 1030.86 5.63774 -2.24152 0
M  V30 10751 H 1029.6 4.66 -1.43859 0
M  V30 10752 H 1028.61 4.09172 -3.6723 0
M  V30 10753 H 1029.83 5.10359 -4.48007 0
M  V30 10754 H 1027.78 6.0812 -2.4602 0
M  V30 10755 H 1027.69 6.30107 -4.17733 0
M  V30 10756 H 1028.96 7.0742 -3.27379 0
M  V30 10757 N 1033.19 1.2685 0.935242 0
M  V30 10758 C 1034.12 1.1143 2.05196 0
M  V30 10759 C 1035.1 0.0178362 1.70091 0
M  V30 10760 O 1036.29 0.190951 1.93259 0
M  V30 10761 C 1033.42 0.752779 3.39044 0
M  V30 10762 C 1032.37 1.80164 3.88233 0
M  V30 10763 C 1031.7 1.29428 5.18799 0
M  V30 10764 C 1033 3.20431 4.12457 0
M  V30 10765 H 1034.69 2.04845 2.18355 0
M  V30 10766 H 1032.24 0.986276 1.04922 0
M  V30 10767 H 1034.19 0.631757 4.16637 0
M  V30 10768 H 1032.91 -0.217075 3.25878 0
M  V30 10769 H 1031.57 1.91144 3.12825 0
M  V30 10770 H 1031.22 0.3141 5.02018 0
M  V30 10771 H 1030.92 1.99546 5.5268 0
M  V30 10772 H 1032.45 1.18605 5.9897 0
M  V30 10773 H 1033.86 3.12495 4.80645 0
M  V30 10774 H 1032.26 3.88193 4.57631 0
M  V30 10775 H 1033.33 3.66046 3.18023 0
M  V30 10776 N 1034.67 -1.14067 1.0875 0
M  V30 10777 C 1035.95 -1.81389 0.73195 0
M  V30 10778 C 1036.33 -1.96005 -0.78391 0
M  V30 10779 O 1035.68 -1.52267 -1.70373 0
M  V30 10780 C 1035.89 -3.16858 1.46294 0
M  V30 10781 C 1037.23 -3.92305 1.62426 0
M  V30 10782 O 1038.26 -3.26459 1.42488 0
M  V30 10783 O 1037.12 -5.10393 1.9535 0
M  V30 10784 H 1034.21 -0.784354 0.262141 0
M  V30 10785 H 1036.76 -1.21054 1.18929 0
M  V30 10786 H 1035.53 -3.01404 2.49542 0
M  V30 10787 H 1035.15 -3.84889 0.997318 0
M  V30 10788 N 1036.15 -0.873678 -1.31166 0
M  V30 10789 C 1037.06 -0.335726 -2.32185 0
M  V30 10790 C 1038.07 0.556259 -1.64869 0
M  V30 10791 O 1039.25 0.452087 -1.9626 0
M  V30 10792 C 1036.32 0.450822 -3.43756 0
M  V30 10793 C 1035.38 -0.469565 -4.26724 0
M  V30 10794 C 1034.61 0.279538 -5.32967 0
M  V30 10795 O 1034.83 1.50715 -5.50128 0
M  V30 10796 O 1033.77 -0.36452 -6.00795 0
M  V30 10797 H 1037.59 -1.17314 -2.80127 0
M  V30 10798 H 1035.18 -0.637163 -1.35132 0
M  V30 10799 H 1037.06 0.896582 -4.11752 0
M  V30 10800 H 1035.73 1.26472 -2.9797 0
M  V30 10801 H 1034.64 -0.963902 -3.61469 0
M  V30 10802 H 1035.97 -1.24916 -4.76085 0
M  V30 10803 N 1037.63 1.44308 -0.633487 0
M  V30 10804 C 1038.9 1.95476 -0.0697262 0
M  V30 10805 C 1039.28 1.57539 1.40516 0
M  V30 10806 O 1038.63 0.850632 2.12077 0
M  V30 10807 C 1038.84 3.4775 -0.295093 0
M  V30 10808 C 1040.19 4.24177 -0.189542 0
M  V30 10809 O 1041.21 3.55479 -0.226586 0
M  V30 10810 O 1040.07 5.46415 -0.096479 0
M  V30 10811 H 1037.17 0.826734 0.0209582 0
M  V30 10812 H 1039.71 1.54347 -0.705354 0
M  V30 10813 H 1038.48 3.6842 -1.31841 0
M  V30 10814 H 1038.11 3.95832 0.37456 0
M  V30 10815 N 1039.1 0.374177 1.53094 0
M  V30 10816 C 1040.03 -0.459976 2.28925 0
M  V30 10817 C 1041.02 -1.07656 1.31698 0
M  V30 10818 O 1042.2 -1.09219 1.60577 0
M  V30 10819 C 1039.33 -1.5954 3.08487 0
M  V30 10820 C 1038.28 -1.10563 4.13473 0
M  V30 10821 C 1037.61 -2.33196 4.81169 0
M  V30 10822 C 1038.91 -0.184275 5.21975 0
M  V30 10823 H 1040.6 0.172692 2.98902 0
M  V30 10824 H 1038.15 0.0844956 1.43752 0
M  V30 10825 H 1040.1 -2.18565 3.60288 0
M  V30 10826 H 1038.83 -2.25543 2.36216 0
M  V30 10827 H 1037.49 -0.53801 3.62631 0
M  V30 10828 H 1037.13 -2.97675 4.05461 0
M  V30 10829 H 1036.83 -2.01094 5.52119 0
M  V30 10830 H 1038.36 -2.92892 5.35767 0
M  V30 10831 H 1039.77 -0.682262 5.69226 0
M  V30 10832 H 1038.17 0.0462746 6.00082 0
M  V30 10833 H 1039.24 0.771152 4.78729 0
M  V30 10834 N 1040.58 -1.57259 0.103575 0
M  V30 10835 C 1041.53 -2.11032 -0.863101 0
M  V30 10836 C 1042.52 -1.02737 -1.2383 0
M  V30 10837 O 1043.71 -1.28997 -1.21197 0
M  V30 10838 C 1040.84 -2.70099 -2.11899 0
M  V30 10839 C 1039.92 -3.85451 -1.76885 0
M  V30 10840 N 1040.31 -4.93137 -1.12469 0
M  V30 10841 C 1038.61 -3.95346 -2.06441 0
M  V30 10842 C 1039.31 -5.73681 -0.962527 0
M  V30 10843 N 1038.29 -5.22992 -1.48258 0
M  V30 10844 H 1042.09 -2.91671 -0.361264 0
M  V30 10845 H 1039.61 -1.62096 -0.0993794 0
M  V30 10846 H 1041.6 -3.06957 -2.82104 0
M  V30 10847 H 1040.26 -1.90918 -2.62641 0
M  V30 10848 H 1041.27 -5.11832 -0.790489 0
M  V30 10849 H 1037.95 -3.27185 -2.59338 0
M  V30 10850 H 1039.34 -6.70337 -0.458098 0
M  V30 10851 N 1042.06 0.170153 -1.56679 0
M  V30 10852 C 1043.31 0.887906 -1.8233 0
M  V30 10853 C 1043.64 1.81845 -0.681608 0
M  V30 10854 O 1042.91 1.9191 0.316362 0
M  V30 10855 C 1043.2 1.68256 -3.18374 0
M  V30 10856 C 1043.05 0.775059 -4.43072 0
M  V30 10857 C 1044.37 2.65001 -3.51372 0
M  V30 10858 H 1041.49 0.32135 -0.663252 0
M  V30 10859 H 1044.13 0.154065 -1.89374 0
M  V30 10860 H 1042.28 2.30817 -3.12499 0
M  V30 10861 H 1043.95 0.162234 -4.61015 0
M  V30 10862 H 1042.2 0.0831809 -4.3372 0
M  V30 10863 H 1042.87 1.36661 -5.34816 0
M  V30 10864 H 1045.34 2.12566 -3.57708 0
M  V30 10865 H 1044.22 3.17667 -4.47637 0
M  V30 10866 H 1044.48 3.45255 -2.76136 0
M  V30 10867 N 1043.54 1.5137 0.438746 0
M  V30 10868 C 1044.49 1.72582 1.53245 0
M  V30 10869 C 1045.46 0.567488 1.56105 0
M  V30 10870 O 1046.64 0.80176 1.73137 0
M  V30 10871 C 1043.78 1.85551 2.90972 0
M  V30 10872 C 1042.89 3.13094 2.97652 0
M  V30 10873 C 1042.03 3.16666 4.26493 0
M  V30 10874 C 1041.07 4.38529 4.27035 0
M  V30 10875 N 1040.2 4.39659 5.47398 0
M  V30 10876 H 1045.04 2.65941 1.3446 0
M  V30 10877 H 1042.58 1.31801 0.653206 0
M  V30 10878 H 1044.54 1.91053 3.70884 0
M  V30 10879 H 1043.17 0.956025 3.08318 0
M  V30 10880 H 1042.22 3.16909 2.10412 0
M  V30 10881 H 1043.53 4.03009 2.93914 0
M  V30 10882 H 1042.69 3.21075 5.14777 0
M  V30 10883 H 1041.43 2.24637 4.32885 0
M  V30 10884 H 1040.43 4.34297 3.37144 0
M  V30 10885 H 1041.66 5.31821 4.22307 0
M  V30 10886 H 1039.6 3.50499 5.54514 0
M  V30 10887 H 1039.52 5.23382 5.45534 0
M  V30 10888 H 1040.79 4.48259 6.37718 0
M  V30 10889 N 1045.02 -0.694098 1.41492 0
M  V30 10890 C 1046.25 -1.48071 1.44078 0
M  V30 10891 C 1046.65 -1.89147 0.0448984 0
M  V30 10892 O 1046 -1.57441 -0.946464 0
M  V30 10893 C 1046.06 -2.77324 2.28761 0
M  V30 10894 C 1045.72 -2.58443 3.76904 0
M  V30 10895 C 1046.72 -2.24294 4.69029 0
M  V30 10896 C 1044.41 -2.74037 4.20962 0
M  V30 10897 C 1046.4 -2.0598 6.03201 0
M  V30 10898 C 1044.09 -2.5534 5.55198 0
M  V30 10899 C 1045.08 -2.21362 6.46133 0
M  V30 10900 O 1044.77 -2.02829 7.77892 0
M  V30 10901 H 1044.5 -0.462794 0.492745 0
M  V30 10902 H 1047.06 -0.861968 1.86438 0
M  V30 10903 H 1045.29 -3.4161 1.81217 0
M  V30 10904 H 1046.98 -3.39134 2.23031 0
M  V30 10905 H 1047.74 -2.11859 4.36281 0
M  V30 10906 H 1043.62 -2.99467 3.50486 0
M  V30 10907 H 1047.17 -1.79382 6.74142 0
M  V30 10908 H 1043.06 -2.67366 5.87525 0
M  V30 10909 H 1043.83 -2.17581 7.89051 0
M  V30 10910 N 1046.49 -1.27344 -0.928501 0
M  V30 10911 C 1047.91 -1.12361 -1.49103 0
M  V30 10912 C 1048.26 0.291667 -1.9402 0
M  V30 10913 O 1047.38 1.18449 -1.81104 0
M  V30 10914 C 1047.98 -2.03358 -2.70981 0
M  V30 10915 C 1046.54 -1.92483 -3.23461 0
M  V30 10916 C 1045.68 -1.95961 -1.962 0
M  V30 10917 H 1048.63 -1.40249 -0.742689 0
M  V30 10918 H 1048.65 -1.58892 -3.45736 0
M  V30 10919 H 1048.17 -3.06356 -2.38259 0
M  V30 10920 H 1046.27 -0.924676 -3.60944 0
M  V30 10921 H 1046.38 -2.78682 -3.89709 0
M  V30 10922 H 1044.74 -1.40175 -2.12657 0
M  V30 10923 H 1045.53 -3.00612 -1.65793 0
M  V30 10924 N 1047.97 1.13488 -1.09353 0
M  V30 10925 C 1049.39 1.36739 -0.823086 0
M  V30 10926 C 1049.59 1.93476 0.562963 0
M  V30 10927 O 1048.64 2.15374 1.31796 0
M  V30 10928 C 1049.96 2.31943 -1.91371 0
M  V30 10929 C 1051.51 2.4556 -1.94085 0
M  V30 10930 C 1051.98 3.44072 -3.02289 0
M  V30 10931 N 1053.47 3.51622 -3.01524 0
M  V30 10932 C 1054.21 4.27724 -3.8189 0
M  V30 10933 N 1053.7 5.06987 -4.72161 0
M  V30 10934 N 1055.5 4.23018 -3.70152 0
M  V30 10935 H 1047.65 0.75012 -1.98713 0
M  V30 10936 H 1049.91 0.392564 -0.862901 0
M  V30 10937 H 1049.62 1.97408 -2.91072 0
M  V30 10938 H 1049.49 3.31952 -1.79131 0
M  V30 10939 H 1051.88 2.79382 -0.950234 0
M  V30 10940 H 1051.96 1.45479 -2.10403 0
M  V30 10941 H 1051.6 3.10981 -4.01564 0
M  V30 10942 H 1051.53 4.43956 -2.83214 0
M  V30 10943 H 1054.02 2.95066 -2.36103 0
M  V30 10944 H 1054.34 5.6236 -5.30067 0
M  V30 10945 H 1052.68 5.06222 -4.76197 0
M  V30 10946 H 1055.87 3.60171 -2.98989 0
M  V30 10947 H 1056.04 4.82075 -4.33022 0
M  V30 10948 N 1049.45 0.880621 1.30701 0
M  V30 10949 C 1050.38 0.360251 2.30704 0
M  V30 10950 C 1051.36 -0.554572 1.60806 0
M  V30 10951 O 1052.55 -0.469345 1.88443 0
M  V30 10952 C 1049.68 -0.429888 3.44629 0
M  V30 10953 C 1048.63 0.392786 4.26194 0
M  V30 10954 C 1047.96 -0.52369 5.32129 0
M  V30 10955 C 1049.26 1.63258 4.96129 0
M  V30 10956 H 1050.95 1.19591 2.74478 0
M  V30 10957 H 1048.5 0.576508 1.31956 0
M  V30 10958 H 1050.45 -0.804532 4.13649 0
M  V30 10959 H 1049.17 -1.29916 2.99649 0
M  V30 10960 H 1047.83 0.749514 3.58856 0
M  V30 10961 H 1047.48 -1.39054 4.83397 0
M  V30 10962 H 1047.18 0.0229272 5.87596 0
M  V30 10963 H 1048.71 -0.894946 6.04006 0
M  V30 10964 H 1050.12 1.32877 5.57689 0
M  V30 10965 H 1048.52 2.11906 5.61441 0
M  V30 10966 H 1049.59 2.37944 4.22505 0
M  V30 10967 N 1050.93 -1.4397 0.641131 0
M  V30 10968 C 1051.86 -2.33458 -0.04446 0
M  V30 10969 C 1052.84 -1.48781 -0.824507 0
M  V30 10970 O 1054.03 -1.77477 -0.788397 0
M  V30 10971 C 1051.16 -3.31989 -1.01984 0
M  V30 10972 C 1050.11 -4.2656 -0.350745 0
M  V30 10973 C 1049.44 -5.15036 -1.43673 0
M  V30 10974 C 1050.74 -5.16897 0.749299 0
M  V30 10975 H 1052.43 -2.91034 0.702832 0
M  V30 10976 H 1049.98 -1.39942 0.339435 0
M  V30 10977 H 1051.93 -3.93483 -1.50828 0
M  V30 10978 H 1050.65 -2.72643 -1.79815 0
M  V30 10979 H 1049.31 -3.66413 0.117139 0
M  V30 10980 H 1048.96 -4.52037 -2.20617 0
M  V30 10981 H 1048.66 -5.79125 -0.994358 0
M  V30 10982 H 1050.18 -5.79403 -1.92678 0
M  V30 10983 H 1051.6 -5.7227 0.343534 0
M  V30 10984 H 1049.99 -5.89643 1.11541 0
M  V30 10985 H 1051.06 -4.5731 1.61232 0
M  V30 10986 N 1052.41 -0.382291 -1.52893 0
M  V30 10987 C 1053.64 0.202408 -2.05908 0
M  V30 10988 C 1054.05 1.4109 -1.25456 0
M  V30 10989 O 1053.41 1.80027 -0.29942 0
M  V30 10990 C 1053.46 0.579452 -3.56826 0
M  V30 10991 O 1053.18 -0.58102 -4.3423 0
M  V30 10992 C 1054.68 1.22076 -4.2616 0
M  V30 10993 H 1051.9 0.0321859 -0.670228 0
M  V30 10994 H 1054.44 -0.545494 -1.9709 0
M  V30 10995 H 1052.6 1.27726 -3.65739 0
M  V30 10996 H 1053.01 -0.272693 -5.23791 0
M  V30 10997 H 1054.49 1.435 -5.33021 0
M  V30 10998 H 1054.96 2.18605 -3.80931 0
M  V30 10999 H 1055.57 0.563922 -4.21545 0
M  V30 11000 N 1053.89 1.57202 -0.111913 0
M  V30 11001 C 1055.13 1.9495 0.547795 0
M  V30 11002 C 1055.46 0.994763 1.67137 0
M  V30 11003 O 1054.72 0.0173528 1.95692 0
M  V30 11004 C 1055.01 3.39152 1.12741 0
M  V30 11005 C 1054.68 4.50724 0.125916 0
M  V30 11006 C 1053.34 4.80968 -0.149489 0
M  V30 11007 C 1055.69 5.18215 -0.556987 0
M  V30 11008 C 1053.02 5.76023 -1.1142 0
M  V30 11009 C 1055.37 6.14307 -1.51029 0
M  V30 11010 C 1054.04 6.42947 -1.79375 0
M  V30 11011 H 1053.31 0.713372 0.200453 0
M  V30 11012 H 1055.96 1.90542 -0.191316 0
M  V30 11013 H 1054.26 3.4022 1.94313 0
M  V30 11014 H 1055.96 3.65668 1.64584 0
M  V30 11015 H 1052.55 4.27162 0.350756 0
M  V30 11016 H 1056.73 4.95012 -0.357378 0
M  V30 11017 H 1051.99 5.9652 -1.34064 0
M  V30 11018 H 1056.16 6.65692 -2.04516 0
M  V30 11019 H 1053.79 7.1641 -2.54284 0
M  V30 11020 N 1055.36 -0.161842 1.56767 0
M  V30 11021 C 1056.33 -1.18404 1.96247 0
M  V30 11022 C 1057.33 -1.3667 0.84722 0
M  V30 11023 O 1058.52 -1.33915 1.11411 0
M  V30 11024 C 1055.65 -2.54728 2.26553 0
M  V30 11025 H 1056.84 -0.845703 2.87729 0
M  V30 11026 H 1054.39 -0.404645 1.50971 0
M  V30 11027 H 1055.13 -2.93559 1.37816 0
M  V30 11028 H 1054.91 -2.42834 3.07854 0
M  V30 11029 H 1056.4 -3.28378 2.57987 0
M  V30 11030 N 1056.84 -1.516 -0.430713 0
M  V30 11031 C 1058.07 -1.687 -1.20644 0
M  V30 11032 C 1058.49 -0.386555 -1.84085 0
M  V30 11033 O 1057.85 0.653952 -1.69095 0
M  V30 11034 C 1057.9 -2.80887 -2.2613 0
M  V30 11035 O 1057 -2.44952 -3.31772 0
M  V30 11036 H 1056.34 -0.562289 -0.353167 0
M  V30 11037 H 1058.87 -1.98198 -0.507807 0
M  V30 11038 H 1058.88 -3.05167 -2.70809 0
M  V30 11039 H 1057.56 -3.75249 -1.79334 0
M  V30 11040 H 1056.13 -2.31267 -2.92523 0
M  V30 11041 N 1058.32 0.686584 -1.41858 0
M  V30 11042 C 1059.25 1.81202 -1.40352 0
M  V30 11043 C 1060.26 1.5993 -0.304322 0
M  V30 11044 O 1061.45 1.69267 -0.566643 0
M  V30 11045 C 1058.55 3.18116 -1.16856 0
M  V30 11046 C 1057.73 3.66339 -2.38987 0
M  V30 11047 C 1056.79 4.8195 -2.11212 0
M  V30 11048 O 1055.81 4.93102 -2.84323 0
M  V30 11049 N 1057.01 5.69829 -1.10793 0
M  V30 11050 H 1059.78 1.82983 -2.37355 0
M  V30 11051 H 1057.34 0.869244 -1.36586 0
M  V30 11052 H 1059.33 3.93097 -0.962125 0
M  V30 11053 H 1057.9 3.11306 -0.284186 0
M  V30 11054 H 1057.12 2.82166 -2.75274 0
M  V30 11055 H 1058.41 3.95297 -3.2034 0
M  V30 11056 H 1057.81 5.63459 -0.503012 0
M  V30 11057 H 1056.36 6.44671 -0.961379 0
M  V30 11058 N 1059.8 1.27835 0.921735 0
M  V30 11059 C 1060.73 1.136 2.04003 0
M  V30 11060 C 1061.71 0.0358756 1.70062 0
M  V30 11061 O 1062.89 0.211438 1.93046 0
M  V30 11062 C 1060.02 0.788697 3.38226 0
M  V30 11063 C 1058.98 1.84272 3.863 0
M  V30 11064 C 1058.3 1.34923 5.17397 0
M  V30 11065 C 1059.6 3.24788 4.09035 0
M  V30 11066 H 1061.3 2.07149 2.1617 0
M  V30 11067 H 1058.84 0.997349 1.0387 0
M  V30 11068 H 1060.8 0.675911 4.15944 0
M  V30 11069 H 1059.52 -0.182499 3.2609 0
M  V30 11070 H 1058.18 1.94451 3.1078 0
M  V30 11071 H 1057.83 0.367328 5.01657 0
M  V30 11072 H 1057.53 2.05397 5.50532 0
M  V30 11073 H 1059.05 1.24951 5.97678 0
M  V30 11074 H 1060.47 3.17575 4.77304 0
M  V30 11075 H 1058.86 3.93025 4.53488 0
M  V30 11076 H 1059.93 3.69398 3.14122 0
M  V30 11077 N 1061.28 -1.12907 1.09954 0
M  V30 11078 C 1062.22 -2.18485 0.743848 0
M  V30 11079 C 1063.19 -1.63766 -0.277494 0
M  V30 11080 O 1064.38 -1.90146 -0.157899 0
M  V30 11081 C 1061.52 -3.44649 0.176437 0
M  V30 11082 C 1060.63 -4.13445 1.25248 0
M  V30 11083 C 1059.77 -5.27242 0.647242 0
M  V30 11084 C 1058.8 -5.87897 1.70421 0
M  V30 11085 N 1057.94 -6.93116 1.1196 0
M  V30 11086 H 1062.78 -2.48257 1.64841 0
M  V30 11087 H 1060.32 -1.21891 0.823471 0
M  V30 11088 H 1062.28 -4.16852 -0.170384 0
M  V30 11089 H 1060.91 -3.15309 -0.69137 0
M  V30 11090 H 1059.96 -3.39471 1.7165 0
M  V30 11091 H 1061.27 -4.54601 2.05279 0
M  V30 11092 H 1060.42 -6.06186 0.249579 0
M  V30 11093 H 1059.16 -4.87351 -0.184556 0
M  V30 11094 H 1058.17 -5.07643 2.11136 0
M  V30 11095 H 1059.39 -6.2986 2.53877 0
M  V30 11096 H 1057.34 -6.55271 0.309181 0
M  V30 11097 H 1057.26 -7.32843 1.85681 0
M  V30 11098 H 1058.52 -7.759 0.748326 0
M  V30 11099 N 1062.75 -0.88754 -1.30232 0
M  V30 11100 C 1063.72 -0.361095 -2.26338 0
M  V30 11101 C 1064.72 0.497871 -1.52898 0
M  V30 11102 O 1065.91 0.30466 -1.71515 0
M  V30 11103 C 1063.04 0.485135 -3.3743 0
M  V30 11104 H 1064.23 -1.20973 -2.74419 0
M  V30 11105 H 1061.78 -0.664619 -1.41466 0
M  V30 11106 H 1062.52 1.35425 -2.9467 0
M  V30 11107 H 1062.3 -0.130173 -3.91884 0
M  V30 11108 H 1063.79 0.845169 -4.08958 0
M  V30 11109 N 1064.23 1.43628 -0.648757 0
M  V30 11110 C 1065.48 2.01465 -0.16002 0
M  V30 11111 C 1065.8 1.51413 1.22878 0
M  V30 11112 O 1065.07 0.724919 1.81994 0
M  V30 11113 H 1063.65 0.744885 -0.0561672 0
M  V30 11114 H 1066.31 1.75897 -0.839422 0
M  V30 11115 H 1065.41 3.1178 -0.141213 0
M  V30 11116 N 1065.71 0.390394 1.52688 0
M  V30 11117 C 1066.66 -0.444229 2.26485 0
M  V30 11118 C 1067.63 -1.05688 1.28138 0
M  V30 11119 O 1068.81 -1.0847 1.56968 0
M  V30 11120 C 1065.95 -1.56501 3.07574 0
M  V30 11121 C 1065.07 -0.975111 4.20851 0
M  V30 11122 C 1064.2 -2.06704 4.89333 0
M  V30 11123 C 1063.24 -1.45309 5.94602 0
M  V30 11124 N 1062.38 -2.48437 6.56676 0
M  V30 11125 H 1067.22 0.191535 2.97384 0
M  V30 11126 H 1064.75 0.106287 1.46716 0
M  V30 11127 H 1066.71 -2.22558 3.52879 0
M  V30 11128 H 1065.34 -2.17107 2.38881 0
M  V30 11129 H 1064.39 -0.204109 3.79852 0
M  V30 11130 H 1065.71 -0.486465 4.96422 0
M  V30 11131 H 1064.86 -2.80528 5.37949 0
M  V30 11132 H 1063.6 -2.58928 4.13289 0
M  V30 11133 H 1062.6 -0.700091 5.45324 0
M  V30 11134 H 1063.83 -0.938775 6.7258 0
M  V30 11135 H 1061.77 -2.99829 5.83471 0
M  V30 11136 H 1061.69 -2.04331 7.27863 0
M  V30 11137 H 1062.96 -3.21888 7.09935 0
M  V30 11138 N 1067.19 -1.57141 0.120249 0
M  V30 11139 C 1068.44 -1.94852 -0.536387 0
M  V30 11140 C 1068.76 -1.00452 -1.67136 0
M  V30 11141 O 1068.03 -0.061053 -1.95805 0
M  V30 11142 H 1066.61 -0.719411 -0.201138 0
M  V30 11143 H 1069.27 -1.93977 0.189482 0
M  V30 11144 H 1068.37 -2.97917 -0.930145 0
M  V30 11145 N 1068.67 0.153526 -1.5685 0
M  V30 11146 C 1069.6 1.19162 -2.00805 0
M  V30 11147 C 1070.58 1.45172 -0.886518 0
M  V30 11148 O 1071.76 1.56203 -1.15387 0
M  V30 11149 C 1068.89 2.52637 -2.38311 0
M  V30 11150 C 1067.85 2.41161 -3.53589 0
M  V30 11151 C 1067.17 3.79287 -3.76889 0
M  V30 11152 C 1068.47 1.90122 -4.86468 0
M  V30 11153 H 1070.17 0.82617 -2.87776 0
M  V30 11154 H 1067.71 0.395972 -1.38449 0
M  V30 11155 H 1069.67 3.25478 -2.6766 0
M  V30 11156 H 1068.39 2.91005 -1.4827 0
M  V30 11157 H 1067.05 1.70772 -3.24395 0
M  V30 11158 H 1066.7 4.15079 -2.84109 0
M  V30 11159 H 1066.4 3.72472 -4.54465 0
M  V30 11160 H 1067.92 4.53687 -4.08657 0
M  V30 11161 H 1069.33 2.52752 -5.14577 0
M  V30 11162 H 1067.73 1.94214 -5.67804 0
M  V30 11163 H 1068.8 0.856517 -4.77275 0
M  V30 11164 N 1070.14 1.51827 0.422667 0
M  V30 11165 C 1071.37 1.69049 1.1929 0
M  V30 11166 C 1071.79 0.394095 1.84641 0
M  V30 11167 O 1071.14 -0.628731 1.71328 0
M  V30 11168 C 1071.2 2.81657 2.26609 0
M  V30 11169 O 1070.92 4.06275 1.63929 0
M  V30 11170 C 1072.42 3.10274 3.16615 0
M  V30 11171 H 1069.64 0.566894 0.358988 0
M  V30 11172 H 1072.18 1.98318 0.499029 0
M  V30 11173 H 1070.34 2.54945 2.91688 0
M  V30 11174 H 1070.75 4.68924 2.3497 0
M  V30 11175 H 1072.22 3.92613 3.88019 0
M  V30 11176 H 1072.7 2.23273 3.78214 0
M  V30 11177 H 1073.31 3.387 2.57221 0
M  V30 11178 N 1071.62 -0.679052 1.4222 0
M  V30 11179 C 1072.87 -1.43485 1.41757 0
M  V30 11180 C 1073.18 -1.95567 0.0358698 0
M  V30 11181 O 1074.39 -2.71346 -0.0913713 0
M  V30 11182 C 1072.85 -2.59541 2.49332 0
M  V30 11183 C 1072.45 -2.14176 3.93488 0
M  V30 11184 C 1074.2 -3.37078 2.58029 0
M  V30 11185 C 1072.11 -3.27289 4.92581 0
M  V30 11186 H 1071.04 -0.539022 0.52723 0
M  V30 11187 H 1073.69 -0.735581 1.68111 0
M  V30 11188 H 1072.07 -3.31815 2.16135 0
M  V30 11189 H 1073.24 -1.49082 4.36017 0
M  V30 11190 H 1071.56 -1.49589 3.88603 0
M  V30 11191 H 1074.15 -4.21312 3.29242 0
M  V30 11192 H 1074.5 -3.83383 1.62245 0
M  V30 11193 H 1075.03 -2.7187 2.90399 0
M  V30 11194 H 1071.77 -2.8598 5.89827 0
M  V30 11195 H 1071.29 -3.91178 4.54687 0
M  V30 11196 H 1072.97 -3.9282 5.14103 0
M  V30 11197 N 1073.1 -1.28322 -0.914942 0
M  V30 11198 C 1074.35 -1.15578 -1.66642 0
M  V30 11199 C 1074.68 0.295209 -1.91943 0
M  V30 11200 O 1073.95 1.21482 -1.51896 0
M  V30 11201 C 1074.24 -1.9535 -3.02507 0
M  V30 11202 C 1074.09 -3.48504 -2.84367 0
M  V30 11203 C 1075.41 -1.76798 -4.03027 0
M  V30 11204 H 1072.53 -0.421234 -0.604757 0
M  V30 11205 H 1075.17 -1.57625 -1.06087 0
M  V30 11206 H 1073.32 -1.59619 -3.54195 0
M  V30 11207 H 1074.99 -3.94135 -2.39699 0
M  V30 11208 H 1073.24 -3.74198 -2.1945 0
M  V30 11209 H 1073.91 -3.99576 -3.80845 0
M  V30 11210 H 1076.38 -2.07977 -3.60395 0
M  V30 11211 H 1075.26 -2.34987 -4.96057 0
M  V30 11212 H 1075.52 -0.719162 -4.36211 0
M  V30 11213 N 1074.58 1.12322 -1.10551 0
M  V30 11214 C 1075.83 1.83495 -0.846998 0
M  V30 11215 C 1076.15 1.8457 0.629205 0
M  V30 11216 O 1075.42 1.30968 1.45686 0
M  V30 11217 H 1074 0.679479 -0.310351 0
M  V30 11218 H 1076.66 1.36004 -1.39602 0
M  V30 11219 H 1075.76 2.87651 -1.21092 0
M  V30 11220 N 1076.06 0.894434 1.2976 0
M  V30 11221 C 1077.28 0.5322 2.00455 0
M  V30 11222 C 1077.71 -0.874427 1.66539 0
M  V30 11223 O 1077.06 -1.58113 0.887129 0
M  V30 11224 C 1077.11 0.725264 3.53231 0
M  V30 11225 O 1076.22 -0.224612 4.11788 0
M  V30 11226 H 1075.56 0.208562 0.630395 0
M  V30 11227 H 1078.09 1.20458 1.65382 0
M  V30 11228 H 1078.1 0.627889 4.0314 0
M  V30 11229 H 1076.77 1.75079 3.77253 0
M  V30 11230 H 1075.35 -0.0801361 3.72814 0
M  V30 11231 N 1077.53 -1.43282 0.656365 0
M  V30 11232 C 1078.78 -2.02075 0.171293 0
M  V30 11233 C 1079.11 -1.51682 -1.21269 0
M  V30 11234 O 1078.39 -0.711243 -1.81029 0
M  V30 11235 C 1078.67 -3.59621 0.185602 0
M  V30 11236 C 1078.52 -4.20239 1.60373 0
M  V30 11237 C 1079.84 -4.37515 -0.476289 0
M  V30 11238 H 1076.96 -0.73424 0.0637185 0
M  V30 11239 H 1079.6 -1.70539 0.837648 0
M  V30 11240 H 1077.75 -3.86619 -0.381804 0
M  V30 11241 H 1079.43 -4.0426 2.22197 0
M  V30 11242 H 1077.67 -3.76769 2.15006 0
M  V30 11243 H 1078.34 -5.29333 1.56557 0
M  V30 11244 H 1080.82 -4.16099 0.00651073 0
M  V30 11245 H 1079.69 -5.47169 -0.435562 0
M  V30 11246 H 1079.95 -4.14003 -1.55093 0
M  V30 11247 N 1079.01 -0.398486 -1.52479 0
M  V30 11248 C 1080.26 0.182046 -2.00877 0
M  V30 11249 C 1080.58 1.47128 -1.2889 0
M  V30 11250 O 1081.78 2.13242 -1.68048 0
M  V30 11251 C 1080.24 0.374978 -3.57941 0
M  V30 11252 C 1079.85 -0.901544 -4.38835 0
M  V30 11253 C 1081.59 0.911378 -4.14601 0
M  V30 11254 C 1079.5 -0.676385 -5.87519 0
M  V30 11255 H 1078.43 0.0718068 -0.750573 0
M  V30 11256 H 1081.08 -0.522297 -1.7591 0
M  V30 11257 H 1079.46 1.14139 -3.79194 0
M  V30 11258 H 1080.63 -1.67329 -4.29346 0
M  V30 11259 H 1078.95 -1.36357 -3.93441 0
M  V30 11260 H 1081.55 1.09569 -5.23353 0
M  V30 11261 H 1081.89 1.88306 -3.71277 0
M  V30 11262 H 1082.42 0.204296 -3.97275 0
M  V30 11263 H 1079.16 -1.61933 -6.35184 0
M  V30 11264 H 1078.68 0.0562542 -5.99774 0
M  V30 11265 H 1080.36 -0.314454 -6.46235 0
M  V30 11266 N 1080.49 1.57075 -0.12858 0
M  V30 11267 C 1081.42 2.12907 0.848708 0
M  V30 11268 C 1082.44 1.07406 1.22343 0
M  V30 11269 O 1083.63 1.34746 1.17071 0
M  V30 11270 C 1080.73 2.62167 2.1476 0
M  V30 11271 C 1079.9 3.91871 1.94309 0
M  V30 11272 C 1078.96 4.26629 3.08016 0
M  V30 11273 O 1077.98 4.9528 2.80511 0
M  V30 11274 N 1079.19 3.84721 4.34706 0
M  V30 11275 H 1081.95 2.97387 0.371636 0
M  V30 11276 H 1079.51 1.61805 0.0555574 0
M  V30 11277 H 1081.5 2.82444 2.89841 0
M  V30 11278 H 1080.07 1.82514 2.53786 0
M  V30 11279 H 1079.29 3.80406 1.03367 0
M  V30 11280 H 1080.58 4.76662 1.77962 0
M  V30 11281 H 1079.98 3.2937 4.59926 0
M  V30 11282 H 1078.54 4.10087 5.06628 0
M  V30 11283 N 1081.97 -0.145205 1.5693 0
M  V30 11284 C 1083.22 -0.855822 1.83085 0
M  V30 11285 C 1083.54 -1.81625 0.709747 0
M  V30 11286 O 1082.81 -1.94052 -0.268456 0
M  V30 11287 H 1081.39 -0.319032 0.675446 0
M  V30 11288 H 1084.05 -0.138781 1.94405 0
M  V30 11289 H 1083.15 -1.41698 2.78079 0
M  V30 11290 N 1083.45 -1.52049 -0.414609 0
M  V30 11291 C 1084.67 -1.6997 -1.18848 0
M  V30 11292 C 1085.1 -0.406058 -1.83665 0
M  V30 11293 O 1084.46 0.635981 -1.69779 0
M  V30 11294 C 1084.5 -2.8327 -2.23138 0
M  V30 11295 O 1083.61 -2.48457 -3.29155 0
M  V30 11296 H 1082.95 -0.566003 -0.347183 0
M  V30 11297 H 1085.48 -1.98726 -0.486757 0
M  V30 11298 H 1085.49 -3.08022 -2.67557 0
M  V30 11299 H 1084.16 -3.7713 -1.75344 0
M  V30 11300 H 1082.74 -2.34357 -2.90054 0
M  V30 11301 N 1084.93 0.6715 -1.42579 0
M  V30 11302 C 1086.17 1.43154 -1.43224 0
M  V30 11303 C 1086.5 1.94436 -0.0498695 0
M  V30 11304 O 1085.76 1.71521 0.942282 0
M  V30 11305 C 1086.05 2.64256 -2.40632 0
M  V30 11306 C 1085.72 2.31497 -3.86937 0
M  V30 11307 C 1084.38 2.22274 -4.26788 0
M  V30 11308 C 1086.73 2.04957 -4.7921 0
M  V30 11309 C 1084.06 1.84642 -5.56888 0
M  V30 11310 C 1086.41 1.68828 -6.09656 0
M  V30 11311 C 1085.08 1.58118 -6.48502 0
M  V30 11312 H 1084.35 0.523838 -0.524094 0
M  V30 11313 H 1087 0.765363 -1.7554 0
M  V30 11314 H 1085.3 3.35921 -2.01654 0
M  V30 11315 H 1087 3.22443 -2.38394 0
M  V30 11316 H 1083.59 2.39578 -3.55387 0
M  V30 11317 H 1087.77 2.11014 -4.49207 0
M  V30 11318 H 1083.03 1.74921 -5.85843 0
M  V30 11319 H 1087.2 1.47319 -6.8064 0
M  V30 11320 H 1084.83 1.28728 -7.49222 0
M  V30 11321 N 1086.4 1.28806 0.908124 0
M  V30 11322 C 1087.33 1.15758 2.02787 0
M  V30 11323 C 1088.31 0.053911 1.70015 0
M  V30 11324 O 1089.5 0.231901 1.9281 0
M  V30 11325 C 1086.63 0.824526 3.37371 0
M  V30 11326 C 1085.58 1.88359 3.84324 0
M  V30 11327 C 1084.91 1.40404 5.15937 0
M  V30 11328 C 1086.21 3.29108 4.05568 0
M  V30 11329 H 1087.9 2.09431 2.13961 0
M  V30 11330 H 1085.45 1.00831 1.02806 0
M  V30 11331 H 1087.4 0.71999 4.15204 0
M  V30 11332 H 1086.13 -0.147902 3.26265 0
M  V30 11333 H 1084.79 1.97736 3.087 0
M  V30 11334 H 1084.43 0.420515 5.01239 0
M  V30 11335 H 1084.13 2.11224 5.48323 0
M  V30 11336 H 1085.66 1.31283 5.9632 0
M  V30 11337 H 1087.07 3.2262 4.73909 0
M  V30 11338 H 1085.47 3.97812 4.49294 0
M  V30 11339 H 1086.54 3.72709 3.10187 0
M  V30 11340 N 1087.88 -1.11734 1.11145 0
M  V30 11341 C 1088.79 -2.21267 0.779607 0
M  V30 11342 C 1089.81 -1.72526 -0.225986 0
M  V30 11343 O 1090.98 -2.01302 -0.0629166 0
M  V30 11344 C 1088.05 -3.45973 0.22435 0
M  V30 11345 C 1087.11 -4.09518 1.28816 0
M  V30 11346 C 1086.34 -5.28271 0.7593 0
M  V30 11347 O 1086.57 -5.68912 -0.411725 0
M  V30 11348 O 1085.5 -5.82322 1.52266 0
M  V30 11349 H 1089.33 -2.5206 1.6941 0
M  V30 11350 H 1086.91 -1.20211 0.887115 0
M  V30 11351 H 1088.79 -4.21322 -0.0810921 0
M  V30 11352 H 1087.47 -3.1684 -0.662891 0
M  V30 11353 H 1086.37 -3.35915 1.64657 0
M  V30 11354 H 1087.71 -4.42824 2.14868 0
M  V30 11355 N 1089.36 -0.901303 -1.29284 0
M  V30 11356 C 1090.58 -0.542823 -2.0017 0
M  V30 11357 C 1091.01 0.865583 -1.67001 0
M  V30 11358 O 1090.37 1.5764 -0.895502 0
M  V30 11359 C 1090.42 -0.743987 -3.52842 0
M  V30 11360 O 1089.52 0.202771 -4.11901 0
M  V30 11361 H 1088.86 -0.211903 -0.62928 0
M  V30 11362 H 1091.39 -1.21333 -1.64741 0
M  V30 11363 H 1091.4 -0.64926 -4.02801 0
M  V30 11364 H 1090.08 -1.77077 -3.7632 0
M  V30 11365 H 1088.65 0.0603637 -3.72851 0
M  V30 11366 N 1090.84 1.42931 -0.663954 0
M  V30 11367 C 1092.07 2.05729 -0.189532 0
M  V30 11368 C 1092.48 1.49914 1.15423 0
M  V30 11369 O 1091.82 0.629324 1.72584 0
M  V30 11370 C 1091.88 3.59482 -0.0354748 0
M  V30 11371 C 1091.54 4.37935 -1.30622 0
M  V30 11372 C 1092.54 4.69297 -2.23733 0
M  V30 11373 C 1090.23 4.77761 -1.5508 0
M  V30 11374 C 1092.22 5.39407 -3.39586 0
M  V30 11375 C 1089.91 5.47613 -2.71224 0
M  V30 11376 C 1090.91 5.7836 -3.63302 0
M  V30 11377 O 1090.59 6.46783 -4.77417 0
M  V30 11378 H 1090.33 0.669678 -0.0922342 0
M  V30 11379 H 1092.88 1.84243 -0.907943 0
M  V30 11380 H 1091.11 3.79584 0.738412 0
M  V30 11381 H 1092.8 4.03947 0.397679 0
M  V30 11382 H 1093.56 4.39038 -2.06084 0
M  V30 11383 H 1089.44 4.53229 -0.842863 0
M  V30 11384 H 1092.99 5.63323 -4.11476 0
M  V30 11385 H 1088.88 5.77289 -2.88804 0
M  V30 11386 H 1089.65 6.6527 -4.76821 0
M  V30 11387 N 1092.32 0.406567 1.52266 0
M  V30 11388 C 1093.56 -0.169717 2.01386 0
M  V30 11389 C 1093.88 -1.45864 1.29417 0
M  V30 11390 O 1093.15 -1.9136 0.419327 0
M  V30 11391 H 1091.73 -0.0657075 0.744105 0
M  V30 11392 H 1094.4 0.542221 1.87206 0
M  V30 11393 H 1093.49 -0.367659 3.09927 0
M  V30 11394 N 1093.79 -1.57004 0.136909 0
M  V30 11395 C 1094.7 -2.19807 -0.819887 0
M  V30 11396 C 1095.72 -1.17939 -1.27932 0
M  V30 11397 O 1096.9 -1.50478 -1.3386 0
M  V30 11398 C 1093.96 -2.79935 -2.04542 0
M  V30 11399 C 1093.02 -3.96897 -1.6362 0
M  V30 11400 C 1092.26 -4.54148 -2.80331 0
M  V30 11401 O 1092.48 -4.10282 -3.96264 0
M  V30 11402 O 1091.41 -5.44565 -2.56384 0
M  V30 11403 H 1095.24 -3.02058 -0.315337 0
M  V30 11404 H 1092.82 -1.49131 -0.0896151 0
M  V30 11405 H 1094.71 -3.18191 -2.76283 0
M  V30 11406 H 1093.38 -2.00703 -2.53969 0
M  V30 11407 H 1092.29 -3.63376 -0.889316 0
M  V30 11408 H 1093.62 -4.77618 -1.18918 0
M  V30 11409 N 1095.27 0.136881 -1.57004 0
M  V30 11410 C 1096.24 1.15267 -1.98106 0
M  V30 11411 C 1097.24 1.35305 -0.868856 0
M  V30 11412 O 1098.43 1.32126 -1.13527 0
M  V30 11413 C 1095.56 2.51092 -2.30577 0
M  V30 11414 H 1096.75 0.799821 -2.89038 0
M  V30 11415 H 1094.3 0.380576 -1.51596 0
M  V30 11416 H 1095.04 2.9133 -1.42469 0
M  V30 11417 H 1094.82 2.37906 -3.11678 0
M  V30 11418 H 1096.31 3.24232 -2.63179 0
M  V30 11419 N 1096.75 1.52266 0.40654 0
M  V30 11420 C 1097.68 1.72025 1.51459 0
M  V30 11421 C 1098.7 0.600667 1.51314 0
M  V30 11422 O 1099.88 0.875894 1.55532 0
M  V30 11423 C 1096.98 1.7479 2.90348 0
M  V30 11424 C 1096.16 3.03826 3.14656 0
M  V30 11425 C 1095.22 2.98369 4.33431 0
M  V30 11426 O 1094.24 3.7227 4.30586 0
M  V30 11427 N 1095.44 2.16338 5.38682 0
M  V30 11428 H 1098.21 2.67622 1.34903 0
M  V30 11429 H 1095.77 1.50536 0.595867 0
M  V30 11430 H 1097.76 1.68667 3.67877 0
M  V30 11431 H 1096.33 0.86656 3.00349 0
M  V30 11432 H 1095.55 3.23577 2.25148 0
M  V30 11433 H 1096.84 3.89182 3.27742 0
M  V30 11434 H 1096.24 1.55731 5.43842 0
M  V30 11435 H 1094.8 2.1607 6.14945 0
M  V30 11436 N 1098.23 -0.663929 1.42933 0
M  V30 11437 C 1099.19 -1.75899 1.46943 0
M  V30 11438 C 1100.19 -1.5682 0.355535 0
M  V30 11439 O 1101.38 -1.62914 0.616833 0
M  V30 11440 C 1098.51 -3.14657 1.31164 0
M  V30 11441 H 1099.71 -1.73727 2.44456 0
M  V30 11442 H 1097.26 -0.874587 1.2954 0
M  V30 11443 H 1097.99 -3.22447 0.346165 0
M  V30 11444 H 1097.78 -3.29909 2.11902 0
M  V30 11445 H 1099.27 -3.9453 1.36878 0
M  V30 11446 N 1099.71 -1.29285 -0.901281 0
M  V30 11447 C 1100.67 -1.14283 -1.98676 0
M  V30 11448 C 1101.67 -0.0787641 -1.60607 0
M  V30 11449 O 1102.86 -0.325574 -1.71131 0
M  V30 11450 C 1099.99 -0.747279 -3.32609 0
M  V30 11451 H 1101.18 -2.10701 -2.13413 0
M  V30 11452 H 1098.74 -1.12449 -1.08558 0
M  V30 11453 H 1099.47 0.217111 -3.23572 0
M  V30 11454 H 1099.26 -1.51608 -3.61604 0
M  V30 11455 H 1100.75 -0.665322 -4.12266 0
M  V30 11456 N 1101.18 1.11143 -1.11736 0
M  V30 11457 C 1102.09 2.20851 -0.791331 0
M  V30 11458 C 1103.11 1.72644 0.216833 0
M  V30 11459 O 1104.29 2.01332 0.0522401 0
M  V30 11460 C 1101.35 3.4585 -0.242694 0
M  V30 11461 C 1100.41 4.08829 -1.30986 0
M  V30 11462 C 1099.65 5.27861 -0.787305 0
M  V30 11463 O 1099.87 5.69122 0.381549 0
M  V30 11464 O 1098.8 5.81506 -1.55352 0
M  V30 11465 H 1102.63 2.51158 -1.70744 0
M  V30 11466 H 1100.21 1.19739 -0.893478 0
M  V30 11467 H 1102.1 4.21359 0.0587472 0
M  V30 11468 H 1100.77 3.17187 0.646079 0
M  V30 11469 H 1099.68 3.35037 -1.66436 0
M  V30 11470 H 1101.01 4.41678 -2.17213 0
M  V30 11471 N 1102.66 0.908147 1.28804 0
M  V30 11472 C 1103.59 0.34957 2.26519 0
M  V30 11473 C 1104.61 -0.508845 1.54643 0
M  V30 11474 O 1105.8 -0.324633 1.75523 0
M  V30 11475 C 1102.9 -0.519461 3.34895 0
M  V30 11476 C 1102.07 0.315157 4.36263 0
M  V30 11477 C 1101.13 -0.488059 5.23932 0
M  V30 11478 O 1100.15 0.0974133 5.69117 0
M  V30 11479 N 1101.36 -1.79233 5.52137 0
M  V30 11480 H 1104.12 1.18945 2.75086 0
M  V30 11481 H 1101.68 0.77351 1.42227 0
M  V30 11482 H 1103.67 -1.0634 3.90479 0
M  V30 11483 H 1102.24 -1.26004 2.8608 0
M  V30 11484 H 1101.46 1.04049 3.8022 0
M  V30 11485 H 1102.75 0.886438 5.01019 0
M  V30 11486 H 1102.15 -2.2906 5.1725 0
M  V30 11487 H 1100.71 -2.28322 6.10502 0
M  V30 11488 N 1104.14 -1.42577 0.671525 0
M  V30 11489 C 1105.37 -2.05924 0.200731 0
M  V30 11490 C 1105.78 -1.50434 -1.14083 0
M  V30 11491 O 1105.14 -0.642845 -1.70803 0
M  V30 11492 C 1105.19 -3.61289 0.123505 0
M  V30 11493 O 1104.91 -4.1472 1.41205 0
M  V30 11494 C 1106.41 -4.41743 -0.371178 0
M  V30 11495 H 1103.63 -0.663746 0.0983958 0
M  V30 11496 H 1106.18 -1.82771 0.917338 0
M  V30 11497 H 1104.33 -3.83565 -0.543769 0
M  V30 11498 H 1104.75 -5.0856 1.28325 0
M  V30 11499 H 1106.22 -5.50731 -0.374128 0
M  V30 11500 H 1106.7 -4.16092 -1.40585 0
M  V30 11501 H 1107.3 -4.24478 0.264244 0
M  V30 11502 N 1105.62 -0.414636 -1.52048 0
M  V30 11503 C 1106.87 0.16073 -2.01059 0
M  V30 11504 C 1107.18 1.45753 -1.30443 0
M  V30 11505 O 1108.39 2.11448 -1.703 0
M  V30 11506 C 1106.84 0.336993 -3.58319 0
M  V30 11507 C 1106.45 -0.948037 -4.37854 0
M  V30 11508 C 1108.19 0.867353 -4.15545 0
M  V30 11509 C 1106.1 -0.738662 -5.86769 0
M  V30 11510 H 1105.03 0.0638419 -0.751292 0
M  V30 11511 H 1107.68 -0.540925 -1.75346 0
M  V30 11512 H 1106.06 1.10111 -3.80383 0
M  V30 11513 H 1107.24 -1.71873 -4.27547 0
M  V30 11514 H 1105.55 -1.40522 -3.91972 0
M  V30 11515 H 1108.15 1.04012 -5.24486 0
M  V30 11516 H 1108.49 1.84358 -3.73253 0
M  V30 11517 H 1109.03 0.162148 -3.97469 0
M  V30 11518 H 1105.77 -1.6866 -6.3343 0
M  V30 11519 H 1105.29 -0.00736294 -5.998 0
M  V30 11520 H 1106.96 -0.382978 -6.45866 0
M  V30 11521 N 1107.1 1.56929 -0.145233 0
M  V30 11522 C 1108.04 2.16671 0.795128 0
M  V30 11523 C 1109.01 1.09908 1.24537 0
M  V30 11524 O 1110.2 1.37941 1.31821 0
M  V30 11525 C 1107.34 2.79111 2.02956 0
M  V30 11526 C 1106.45 4.00261 1.62528 0
M  V30 11527 C 1105.59 4.50705 2.81137 0
M  V30 11528 C 1104.63 5.64324 2.37075 0
M  V30 11529 N 1103.76 6.09395 3.48687 0
M  V30 11530 H 1108.6 2.96692 0.278865 0
M  V30 11531 H 1106.14 1.4656 0.125934 0
M  V30 11532 H 1108.1 3.13456 2.7532 0
M  V30 11533 H 1106.73 2.01737 2.51996 0
M  V30 11534 H 1105.78 3.71906 0.799365 0
M  V30 11535 H 1107.09 4.8258 1.26166 0
M  V30 11536 H 1106.25 4.87096 3.61693 0
M  V30 11537 H 1104.98 3.67389 3.20744 0
M  V30 11538 H 1103.99 5.27511 1.54958 0
M  V30 11539 H 1105.21 6.49425 1.98556 0
M  V30 11540 H 1103.16 5.29014 3.87917 0
M  V30 11541 H 1103.08 6.86636 3.16333 0
M  V30 11542 H 1104.35 6.50431 4.29605 0
M  V30 11543 N 1108.58 -0.128553 1.57075 0
M  V30 11544 C 1109.52 -1.17719 2.00611 0
M  V30 11545 C 1110.52 -1.43423 0.90146 0
M  V30 11546 O 1111.72 -1.43498 1.08666 0
M  V30 11547 H 1108.1 -0.396683 0.638864 0
M  V30 11548 H 1110.07 -0.783437 2.87932 0
M  V30 11549 C 1108.82 -2.49826 2.41831 0
M  V30 11550 H 1108.14 -2.30883 3.26394 0
M  V30 11551 H 1109.58 -3.21784 2.761 0
M  V30 11552 C 1108.04 -3.11712 1.27816 0
M  V30 11553 O 1108.57 -3.9736 0.588917 0
M  V30 11554 N 1106.78 -2.71442 1.03767 0
M  V30 11555 H 1106.32 -2.01891 1.59994 0
M  V30 11556 H 1106.28 -3.1318 0.276743 0
M  V30 11557 N 1110.05 -1.5248 -0.398459 0
M  V30 11558 C 1110.99 -1.71321 -1.50746 0
M  V30 11559 C 1111.96 -0.5609 -1.52619 0
M  V30 11560 O 1113.15 -0.789557 -1.71167 0
M  V30 11561 C 1110.28 -1.76223 -2.89246 0
M  V30 11562 C 1109.32 -2.97878 -3.05239 0
M  V30 11563 S 1110.15 -4.58031 -2.77431 0
M  V30 11564 C 1111.31 -4.65735 -4.18141 0
M  V30 11565 H 1111.54 -2.65117 -1.34538 0
M  V30 11566 H 1109.08 -1.42653 -0.590727 0
M  V30 11567 H 1111.03 -1.79733 -3.69062 0
M  V30 11568 H 1109.7 -0.83536 -3.02788 0
M  V30 11569 H 1108.89 -2.97821 -4.06594 0
M  V30 11570 H 1108.49 -2.92311 -2.33304 0
M  V30 11571 H 1110.78 -4.43768 -5.11934 0
M  V30 11572 H 1111.73 -5.67709 -4.23217 0
M  V30 11573 H 1112.13 -3.94664 -4.03609 0
M  V30 11574 N 1111.53 0.65634 -1.43283 0
M  V30 11575 C 1112.46 1.78122 -1.42646 0
M  V30 11576 C 1113.44 1.60024 -0.288301 0
M  V30 11577 O 1114.63 1.82249 -0.481407 0
M  V30 11578 C 1111.75 3.1538 -1.23505 0
M  V30 11579 C 1110.8 3.52186 -2.40556 0
M  V30 11580 S 1111.63 3.52515 -4.03105 0
M  V30 11581 C 1112.79 4.92435 -3.8634 0
M  V30 11582 H 1113.02 1.78391 -2.37832 0
M  V30 11583 H 1110.55 0.828699 -1.30276 0
M  V30 11584 H 1112.51 3.94598 -1.13148 0
M  V30 11585 H 1111.17 3.12676 -0.298726 0
M  V30 11586 H 1110.37 4.52002 -2.22959 0
M  V30 11587 H 1109.97 2.80373 -2.47522 0
M  V30 11588 H 1112.26 5.81011 -3.48472 0
M  V30 11589 H 1113.2 5.15082 -4.85897 0
M  V30 11590 H 1113.61 4.65823 -3.18857 0
M  V30 11591 N 1113.01 1.29761 0.894412 0
M  V30 11592 C 1113.92 1.1724 2.03204 0
M  V30 11593 C 1114.94 0.0944452 1.73743 0
M  V30 11594 O 1116.11 0.307549 1.99038 0
M  V30 11595 C 1113.18 0.855416 3.35981 0
M  V30 11596 C 1112.24 2.01777 3.78926 0
M  V30 11597 C 1111.47 1.71581 5.05367 0
M  V30 11598 O 1111.69 0.639245 5.66807 0
M  V30 11599 O 1110.63 2.56539 5.44492 0
M  V30 11600 H 1114.45 2.12787 2.16692 0
M  V30 11601 H 1112.04 1.09264 1.0189 0
M  V30 11602 H 1113.92 0.693429 4.15656 0
M  V30 11603 H 1112.6 -0.0702195 3.23624 0
M  V30 11604 H 1111.5 2.23502 2.99996 0
M  V30 11605 H 1112.84 2.92479 3.95875 0
M  V30 11606 N 1114.49 -1.10549 1.12324 0
M  V30 11607 C 1115.74 -1.81851 0.872531 0
M  V30 11608 C 1116.05 -1.86058 -0.603468 0
M  V30 11609 O 1117.26 -2.53553 -0.970736 0
M  V30 11610 C 1115.71 -3.26631 1.51131 0
M  V30 11611 C 1115.32 -3.30725 3.02201 0
M  V30 11612 C 1117.06 -4.02768 1.34082 0
M  V30 11613 C 1114.97 -4.69957 3.59018 0
M  V30 11614 H 1113.9 -0.681422 0.322769 0
M  V30 11615 H 1116.55 -1.24332 1.34959 0
M  V30 11616 H 1114.93 -3.8414 0.961913 0
M  V30 11617 H 1116.11 -2.83046 3.63623 0
M  V30 11618 H 1114.42 -2.68072 3.18632 0
M  V30 11619 H 1117.02 -5.05612 1.73955 0
M  V30 11620 H 1117.36 -4.15328 0.284369 0
M  V30 11621 H 1117.9 -3.51671 1.85937 0
M  V30 11622 H 1114.63 -4.62597 4.64418 0
M  V30 11623 H 1114.15 -5.18008 3.02371 0
M  V30 11624 H 1115.83 -5.38925 3.58007 0
M  V30 11625 N 1115.97 -0.914965 -1.28321 0
M  V30 11626 C 1116.88 -0.409424 -2.31 0
M  V30 11627 C 1117.89 0.503526 -1.66555 0
M  V30 11628 O 1119.07 0.38942 -1.97599 0
M  V30 11629 C 1116.13 0.34123 -3.45017 0
M  V30 11630 C 1115.19 -0.605087 -4.25014 0
M  V30 11631 C 1114.43 0.109837 -5.33587 0
M  V30 11632 O 1114.65 1.33136 -5.54645 0
M  V30 11633 O 1113.58 -0.555474 -5.99331 0
M  V30 11634 H 1117.41 -1.26167 -2.76253 0
M  V30 11635 H 1114.99 -0.679831 -1.33036 0
M  V30 11636 H 1116.88 0.765132 -4.14396 0
M  V30 11637 H 1115.55 1.16929 -3.01843 0
M  V30 11638 H 1114.46 -1.07841 -3.58219 0
M  V30 11639 H 1115.79 -1.39999 -4.7187 0
M  V30 11640 N 1117.44 1.42219 -0.679077 0
M  V30 11641 C 1118.39 2.308 -0.00340316 0
M  V30 11642 C 1119.36 1.462 0.788334 0
M  V30 11643 O 1120.55 1.75023 0.759716 0
M  V30 11644 C 1117.69 3.32084 0.938854 0
M  V30 11645 C 1116.8 4.31772 0.140485 0
M  V30 11646 C 1115.93 5.20128 1.07888 0
M  V30 11647 C 1114.97 6.11493 0.27245 0
M  V30 11648 N 1114.11 6.92388 1.16378 0
M  V30 11649 H 1118.95 2.88024 -0.764587 0
M  V30 11650 H 1116.49 1.41869 -0.38878 0
M  V30 11651 H 1118.44 3.89339 1.49903 0
M  V30 11652 H 1117.07 2.76448 1.66662 0
M  V30 11653 H 1116.13 3.76599 -0.536376 0
M  V30 11654 H 1117.44 4.96432 -0.485433 0
M  V30 11655 H 1116.59 5.82137 1.70884 0
M  V30 11656 H 1115.33 4.55655 1.73868 0
M  V30 11657 H 1114.34 5.48549 -0.370693 0
M  V30 11658 H 1115.56 6.78017 -0.383315 0
M  V30 11659 H 1113.51 6.30538 1.8099 0
M  V30 11660 H 1113.42 7.5367 0.593043 0
M  V30 11661 H 1114.69 7.58879 1.78107 0
M  V30 11662 N 1118.92 0.422693 1.51826 0
M  V30 11663 C 1120.17 -0.148861 2.02253 0
M  V30 11664 C 1120.5 -1.43629 1.30707 0
M  V30 11665 O 1119.78 -1.89967 0.417482 0
M  V30 11666 C 1120.06 -0.382672 3.58061 0
M  V30 11667 C 1119.91 0.922386 4.40241 0
M  V30 11668 C 1121.23 -1.1589 4.24567 0
M  V30 11669 H 1118.35 -0.0526279 0.735119 0
M  V30 11670 H 1120.99 0.558821 1.81596 0
M  V30 11671 H 1119.14 -0.985495 3.75793 0
M  V30 11672 H 1120.81 1.55806 4.34191 0
M  V30 11673 H 1119.06 1.53032 4.05911 0
M  V30 11674 H 1119.73 0.713012 5.47376 0
M  V30 11675 H 1122.2 -0.648415 4.11017 0
M  V30 11676 H 1121.08 -1.29125 5.33496 0
M  V30 11677 H 1121.34 -2.18315 3.84436 0
M  V30 11678 N 1120.4 -1.5685 0.153553 0
M  V30 11679 C 1121.35 -2.1709 -0.783626 0
M  V30 11680 C 1122.32 -1.10567 -1.23952 0
M  V30 11681 O 1123.5 -1.38638 -1.31088 0
M  V30 11682 C 1120.64 -2.80183 -2.01473 0
M  V30 11683 C 1119.75 -4.01117 -1.60403 0
M  V30 11684 C 1118.89 -4.5219 -2.78743 0
M  V30 11685 C 1117.93 -5.65574 -2.34079 0
M  V30 11686 N 1117.07 -6.11235 -3.4545 0
M  V30 11687 H 1121.91 -2.96836 -0.263127 0
M  V30 11688 H 1119.44 -1.46625 -0.11816 0
M  V30 11689 H 1121.4 -3.14912 -2.73654 0
M  V30 11690 H 1120.03 -2.03071 -2.50923 0
M  V30 11691 H 1119.08 -3.72325 -0.779631 0
M  V30 11692 H 1120.39 -4.83243 -1.23605 0
M  V30 11693 H 1119.55 -4.89008 -3.59105 0
M  V30 11694 H 1118.29 -3.69085 -3.18791 0
M  V30 11695 H 1117.29 -5.28326 -1.52158 0
M  V30 11696 H 1118.52 -6.50468 -1.95109 0
M  V30 11697 H 1116.46 -5.31064 -3.85106 0
M  V30 11698 H 1116.38 -6.88304 -3.12687 0
M  V30 11699 H 1117.65 -6.527 -4.26149 0
M  V30 11700 N 1121.88 0.120221 -1.57141 0
M  V30 11701 C 1123.13 0.826586 -1.84423 0
M  V30 11702 C 1123.45 1.80473 -0.738553 0
M  V30 11703 O 1122.72 1.94454 0.23755 0
M  V30 11704 H 1121.3 0.308246 -0.680436 0
M  V30 11705 H 1123.96 0.107835 -1.94601 0
M  V30 11706 H 1123.05 1.37256 -2.80298 0
M  V30 11707 N 1123.36 1.52689 0.390367 0
M  V30 11708 C 1124.6 1.67666 1.13553 0
M  V30 11709 C 1124.93 0.415903 1.90001 0
M  V30 11710 O 1124.19 -0.601664 1.86222 0
M  V30 11711 C 1124.49 2.86177 2.14096 0
M  V30 11712 C 1124.15 4.23671 1.54316 0
M  V30 11713 C 1122.81 4.61066 1.37739 0
M  V30 11714 C 1125.17 5.09278 1.1084 0
M  V30 11715 C 1122.49 5.81727 0.76231 0
M  V30 11716 C 1124.85 6.30562 0.507433 0
M  V30 11717 C 1123.51 6.66689 0.328945 0
M  V30 11718 H 1122.78 0.613533 0.415521 0
M  V30 11719 H 1125.43 1.8683 0.420339 0
M  V30 11720 H 1123.73 2.61424 2.9183 0
M  V30 11721 H 1125.43 2.9496 2.7166 0
M  V30 11722 H 1122.02 3.94214 1.68207 0
M  V30 11723 H 1126.2 4.80957 1.2245 0
M  V30 11724 H 1121.46 6.08327 0.612208 0
M  V30 11725 H 1125.63 6.96211 0.162248 0
M  V30 11726 H 1123.26 7.60052 -0.149748 0
M  V30 11727 N 1124.83 -0.648732 1.43629 0
M  V30 11728 C 1126.07 -1.42032 1.46991 0
M  V30 11729 C 1126.44 -1.91774 0.0931841 0
M  V30 11730 O 1127.64 -2.688 0.00148504 0
M  V30 11731 C 1125.91 -2.56693 2.48684 0
M  V30 11732 S 1127.47 -3.45149 2.70956 0
M  V30 11733 H 1124.29 -0.484772 0.520113 0
M  V30 11734 H 1126.89 -0.75274 1.80427 0
M  V30 11735 H 1125.59 -2.18431 3.47442 0
M  V30 11736 H 1125.12 -3.28296 2.1676 0
M  V30 11737 H 1127.14 -4.53569 2.01221 0
M  V30 11738 N 1126.31 -1.30234 -0.887518 0
M  V30 11739 C 1127.24 -1.12212 -1.99853 0
M  V30 11740 C 1128.26 -0.0660929 -1.62666 0
M  V30 11741 O 1129.45 -0.311853 -1.75755 0
M  V30 11742 C 1126.55 -0.688591 -3.31831 0
M  V30 11743 C 1125.72 -1.82581 -3.97471 0
M  V30 11744 C 1124.78 -1.38126 -5.07748 0
M  V30 11745 O 1123.8 -2.08805 -5.29518 0
M  V30 11746 N 1125.01 -0.258868 -5.79923 0
M  V30 11747 H 1127.77 -2.07901 -2.15864 0
M  V30 11748 H 1125.33 -1.22336 -1.06045 0
M  V30 11749 H 1127.32 -0.374252 -4.02966 0
M  V30 11750 H 1125.89 0.176185 -3.12103 0
M  V30 11751 H 1125.11 -2.3084 -3.19541 0
M  V30 11752 H 1126.4 -2.58798 -4.38065 0
M  V30 11753 H 1125.8 0.330131 -5.64736 0
M  V30 11754 H 1124.36 -0.00396813 -6.518 0
M  V30 11755 N 1127.79 1.09952 -1.12909 0
M  V30 11756 C 1129.04 1.82286 -0.888797 0
M  V30 11757 C 1129.37 1.85218 0.58379 0
M  V30 11758 O 1128.64 1.31645 1.43177 0
M  V30 11759 C 1128.93 3.28706 -1.47053 0
M  V30 11760 C 1128.78 3.34078 -3.01184 0
M  V30 11761 C 1130.1 4.25233 -1.13424 0
M  V30 11762 H 1127.22 0.661803 -0.324324 0
M  V30 11763 H 1129.86 1.28833 -1.3965 0
M  V30 11764 H 1128.01 3.74356 -1.03874 0
M  V30 11765 H 1129.68 2.96871 -3.5308 0
M  V30 11766 H 1127.93 2.73825 -3.36455 0
M  V30 11767 H 1128.6 4.37202 -3.36984 0
M  V30 11768 H 1131.07 3.87841 -1.50726 0
M  V30 11769 H 1129.95 5.26033 -1.56783 0
M  V30 11770 H 1130.21 4.42075 -0.0471496 0
M  V30 11771 N 1129.27 0.921757 1.27833 0
M  V30 11772 C 1130.51 0.559906 1.94918 0
M  V30 11773 C 1130.85 -0.895532 1.72319 0
M  V30 11774 O 1130.12 -1.638 1.04879 0
M  V30 11775 C 1130.41 0.879458 3.49196 0
M  V30 11776 C 1130.26 2.38821 3.81162 0
M  V30 11777 C 1131.58 0.381183 4.38446 0
M  V30 11778 H 1128.7 0.204893 0.707946 0
M  V30 11779 H 1131.34 1.15246 1.51058 0
M  V30 11780 H 1129.49 0.375177 3.86684 0
M  V30 11781 H 1131.16 2.96373 3.53498 0
M  V30 11782 H 1129.4 2.83988 3.27923 0
M  V30 11783 H 1130.07 2.56234 4.88926 0
M  V30 11784 H 1132.55 0.813289 4.08075 0
M  V30 11785 H 1131.43 0.633778 5.45229 0
M  V30 11786 H 1131.69 -0.718651 4.3622 0
M  V30 11787 N 1130.75 -1.41857 0.686609 0
M  V30 11788 C 1131.99 -2.01666 0.214118 0
M  V30 11789 C 1132.33 -1.5422 -1.18025 0
M  V30 11790 O 1131.6 -0.749482 -1.7948 0
M  V30 11791 C 1131.88 -3.59147 0.261841 0
M  V30 11792 C 1131.74 -4.16742 1.69251 0
M  V30 11793 C 1133.06 -4.38427 -0.383378 0
M  V30 11794 H 1130.17 -0.732724 0.0792785 0
M  V30 11795 H 1132.82 -1.68724 0.873633 0
M  V30 11796 H 1130.97 -3.87342 -0.29971 0
M  V30 11797 H 1132.64 -3.99456 2.30722 0
M  V30 11798 H 1130.88 -3.72124 2.2295 0
M  V30 11799 H 1131.55 -5.25894 1.6775 0
M  V30 11800 H 1134.03 -4.15992 0.0947701 0
M  V30 11801 H 1132.9 -5.4797 -0.319401 0
M  V30 11802 H 1133.17 -4.172 -1.46276 0
M  V30 11803 N 1132.22 -0.430739 -1.51599 0
M  V30 11804 C 1133.19 0.372319 -2.26156 0
M  V30 11805 C 1134.19 0.955338 -1.29344 0
M  V30 11806 O 1135.38 0.830823 -1.53111 0
M  V30 11807 C 1132.51 1.52613 -3.04831 0
M  V30 11808 H 1133.7 -0.280996 -2.98581 0
M  V30 11809 H 1131.26 -0.183749 -1.55216 0
M  V30 11810 H 1131.99 2.21569 -2.36807 0
M  V30 11811 H 1131.78 1.11433 -3.75932 0
M  V30 11812 H 1133.27 2.09366 -3.61325 0
M  V30 11813 N 1133.7 1.56767 -0.161869 0
M  V30 11814 C 1134.93 2.01401 0.49523 0
M  V30 11815 C 1135.35 1.04133 1.56646 0
M  V30 11816 O 1134.71 0.0193747 1.8129 0
M  V30 11817 C 1134.76 3.44695 1.05913 0
M  V30 11818 O 1133.86 3.50475 2.1735 0
M  V30 11819 H 1133.2 0.65314 0.1196 0
M  V30 11820 H 1135.73 2.02903 -0.26298 0
M  V30 11821 H 1135.74 3.83805 1.3841 0
M  V30 11822 H 1134.42 4.14991 0.274749 0
M  V30 11823 H 1133 3.23218 1.85969 0
M  V30 11824 N 1135.18 -0.111886 1.57202 0
M  V30 11825 C 1136.13 -1.13688 2.00858 0
M  V30 11826 C 1137.1 -1.40752 0.881939 0
M  V30 11827 O 1138.28 -1.52498 1.14669 0
M  V30 11828 C 1135.42 -2.45641 2.42393 0
M  V30 11829 C 1134.54 -2.25452 3.68504 0
M  V30 11830 C 1133.67 -3.50686 3.9899 0
M  V30 11831 C 1132.71 -3.25685 5.18262 0
M  V30 11832 N 1131.85 -4.4314 5.44583 0
M  V30 11833 H 1136.69 -0.757611 2.88209 0
M  V30 11834 H 1134.22 -0.362582 1.42561 0
M  V30 11835 H 1136.18 -3.22627 2.64514 0
M  V30 11836 H 1134.81 -2.81447 1.58074 0
M  V30 11837 H 1133.86 -1.39349 3.53958 0
M  V30 11838 H 1135.18 -2.0296 4.55641 0
M  V30 11839 H 1134.33 -4.36087 4.21797 0
M  V30 11840 H 1133.07 -3.76216 3.10343 0
M  V30 11841 H 1132.07 -2.38675 4.95292 0
M  V30 11842 H 1133.3 -3.01518 6.08493 0
M  V30 11843 H 1131.24 -4.68778 4.58893 0
M  V30 11844 H 1131.16 -4.23778 6.26058 0
M  V30 11845 H 1132.43 -5.29654 5.71915 0
M  V30 11846 N 1136.66 -1.52894 -0.382264 0
M  V30 11847 C 1137.9 -1.68515 -1.12829 0
M  V30 11848 C 1138.24 -0.427211 -1.89443 0
M  V30 11849 O 1137.51 0.57516 -1.85801 0
M  V30 11850 C 1137.8 -2.92449 -2.10108 0
M  V30 11851 C 1137.65 -4.2836 -1.37214 0
M  V30 11852 C 1138.97 -3.11944 -3.1045 0
M  V30 11853 H 1136.09 -0.613223 -0.408811 0
M  V30 11854 H 1138.73 -1.85503 -0.410921 0
M  V30 11855 H 1136.88 -2.78097 -2.71283 0
M  V30 11856 H 1138.55 -4.54493 -0.789516 0
M  V30 11857 H 1136.79 -4.28532 -0.673973 0
M  V30 11858 H 1137.46 -5.11178 -2.0833 0
M  V30 11859 H 1139.94 -3.25372 -2.59369 0
M  V30 11860 H 1138.82 -4.00125 -3.75754 0
M  V30 11861 H 1139.08 -2.26465 -3.79692 0
M  V30 11862 N 1138.14 0.641106 -1.43971 0
M  V30 11863 C 1139.55 0.958161 -1.27638 0
M  V30 11864 C 1139.75 2.00456 -0.204885 0
M  V30 11865 O 1138.81 2.49106 0.412606 0
M  V30 11866 C 1140.12 1.43091 -2.64472 0
M  V30 11867 C 1141.67 1.54692 -2.72102 0
M  V30 11868 C 1142.15 2.05353 -4.09382 0
M  V30 11869 N 1143.64 2.12638 -4.11509 0
M  V30 11870 C 1144.37 2.52987 -5.14573 0
M  V30 11871 N 1143.87 2.92544 -6.28005 0
M  V30 11872 N 1145.66 2.53033 -5.01927 0
M  V30 11873 H 1137.81 -0.0510973 -2.12339 0
M  V30 11874 H 1140.07 0.039748 -0.947166 0
M  V30 11875 H 1139.78 0.736389 -3.43904 0
M  V30 11876 H 1139.65 2.40375 -2.90688 0
M  V30 11877 H 1142.04 2.23242 -1.92994 0
M  V30 11878 H 1142.12 0.558083 -2.49638 0
M  V30 11879 H 1141.77 1.37401 -4.88962 0
M  V30 11880 H 1141.7 3.0509 -4.29218 0
M  V30 11881 H 1144.19 1.84792 -3.29636 0
M  V30 11882 H 1144.5 3.22116 -7.02468 0
M  V30 11883 H 1142.85 2.90319 -6.31458 0
M  V30 11884 H 1146.04 2.21514 -4.1237 0
M  V30 11885 H 1146.21 2.84155 -5.82375 0
M  V30 11886 N 1139.62 1.30703 0.880598 0
M  V30 11887 C 1140.53 1.19389 2.01949 0
M  V30 11888 C 1141.54 0.112868 1.73634 0
M  V30 11889 O 1142.72 0.328643 1.98701 0
M  V30 11890 C 1139.78 0.891004 3.35055 0
M  V30 11891 C 1138.84 2.05784 3.76764 0
M  V30 11892 C 1138.08 1.76931 5.03519 0
M  V30 11893 O 1138.3 0.699326 5.66097 0
M  V30 11894 O 1137.23 2.623 5.4174 0
M  V30 11895 H 1141.06 2.15073 2.14423 0
M  V30 11896 H 1138.64 1.10339 1.00726 0
M  V30 11897 H 1140.53 0.737476 4.14897 0
M  V30 11898 H 1139.2 -0.0358909 3.2368 0
M  V30 11899 H 1138.11 2.26672 2.97608 0
M  V30 11900 H 1139.44 2.96661 3.9275 0
M  V30 11901 N 1141.09 -1.09351 1.1349 0
M  V30 11902 C 1142.34 -1.81185 0.89535 0
M  V30 11903 C 1142.66 -1.86173 -0.580048 0
M  V30 11904 O 1141.93 -1.34784 -1.42162 0
M  V30 11905 H 1140.51 -0.671011 0.328257 0
M  V30 11906 H 1143.17 -1.32255 1.43159 0
M  V30 11907 H 1142.27 -2.84339 1.28676 0
M  V30 11908 N 1142.57 -0.928524 -1.27343 0
M  V30 11909 C 1143.5 -0.445627 -2.29208 0
M  V30 11910 C 1144.48 0.494508 -1.62753 0
M  V30 11911 O 1145.67 0.399082 -1.90055 0
M  V30 11912 C 1142.8 0.301684 -3.45987 0
M  V30 11913 C 1141.75 -0.550695 -4.24442 0
M  V30 11914 C 1141.08 0.325833 -5.33706 0
M  V30 11915 C 1142.38 -1.81559 -4.89728 0
M  V30 11916 H 1144.07 -1.29696 -2.69851 0
M  V30 11917 H 1141.62 -0.625085 -1.29725 0
M  V30 11918 H 1143.57 0.650455 -4.1635 0
M  V30 11919 H 1142.29 1.18705 -3.04264 0
M  V30 11920 H 1140.95 -0.882185 -3.55827 0
M  V30 11921 H 1140.6 1.21018 -4.88225 0
M  V30 11922 H 1140.3 -0.240994 -5.87106 0
M  V30 11923 H 1141.83 0.670156 -6.06911 0
M  V30 11924 H 1143.24 -1.53483 -5.52373 0
M  V30 11925 H 1141.64 -2.32598 -5.53189 0
M  V30 11926 H 1142.71 -2.53461 -4.13383 0
M  V30 11927 N 1144.05 1.41491 -0.694123 0
M  V30 11928 C 1145.01 2.2917 -0.0368562 0
M  V30 11929 C 1146.01 1.44305 0.709426 0
M  V30 11930 O 1147.2 1.6547 0.544533 0
M  V30 11931 C 1144.33 3.27156 0.958201 0
M  V30 11932 H 1145.53 2.88787 -0.808829 0
M  V30 11933 H 1143.08 1.49453 -0.457538 0
M  V30 11934 H 1143.82 2.72516 1.75799 0
M  V30 11935 H 1143.6 3.89776 0.426227 0
M  V30 11936 H 1145.09 3.92863 1.41592 0
M  V30 11937 N 1145.53 0.438773 1.51369 0
M  V30 11938 C 1146.48 -0.389921 2.24641 0
M  V30 11939 C 1147.46 -0.988871 1.26926 0
M  V30 11940 O 1148.65 -0.906774 1.52009 0
M  V30 11941 C 1145.78 -1.48972 3.09293 0
M  V30 11942 C 1144.87 -0.900093 4.14438 0
M  V30 11943 N 1145.26 -0.0397688 5.05784 0
M  V30 11944 C 1143.56 -1.16752 4.30447 0
M  V30 11945 C 1144.26 0.291527 5.80969 0
M  V30 11946 N 1143.23 -0.325219 5.42626 0
M  V30 11947 H 1147.04 0.273335 2.92626 0
M  V30 11948 H 1144.55 0.250934 1.6045 0
M  V30 11949 H 1146.55 -2.09627 3.60364 0
M  V30 11950 H 1145.21 -2.1553 2.42852 0
M  V30 11951 H 1146.22 0.326771 5.16868 0
M  V30 11952 H 1142.9 -1.83049 3.75232 0
M  V30 11953 H 1144.29 0.991699 6.64541 0
M  V30 11954 N 1147.01 -1.56678 0.170181 0
M  V30 11955 C 1147.94 -2.20916 -0.756213 0
M  V30 11956 C 1148.92 -1.16442 -1.23997 0
M  V30 11957 O 1150.1 -1.44867 -1.29333 0
M  V30 11958 C 1147.23 -2.84901 -1.98617 0
M  V30 11959 C 1146.19 -3.95403 -1.63831 0
M  V30 11960 C 1145.51 -4.46432 -2.94282 0
M  V30 11961 C 1146.81 -5.15051 -0.867195 0
M  V30 11962 H 1148.51 -2.98585 -0.220776 0
M  V30 11963 H 1146.05 -1.43619 -0.104748 0
M  V30 11964 H 1148 -3.28514 -2.63926 0
M  V30 11965 H 1146.73 -2.04598 -2.54572 0
M  V30 11966 H 1145.39 -3.52444 -1.00891 0
M  V30 11967 H 1145.04 -3.62923 -3.48276 0
M  V30 11968 H 1144.74 -5.20979 -2.71762 0
M  V30 11969 H 1146.26 -4.92731 -3.60622 0
M  V30 11970 H 1147.67 -5.55363 -1.42285 0
M  V30 11971 H 1146.07 -5.95507 -0.741065 0
M  V30 11972 H 1147.14 -4.84707 0.136693 0
M  V30 11973 N 1148.48 0.103547 -1.57259 0
M  V30 11974 C 1149.73 0.807231 -1.84842 0
M  V30 11975 C 1150.05 1.80308 -0.758181 0
M  V30 11976 O 1151.25 2.55406 -0.920877 0
M  V30 11977 C 1149.71 1.4864 -3.27771 0
M  V30 11978 C 1149.32 0.53075 -4.44845 0
M  V30 11979 C 1151.06 2.17431 -3.64587 0
M  V30 11980 C 1148.97 1.21403 -5.78805 0
M  V30 11981 H 1147.9 0.305212 -0.689465 0
M  V30 11982 H 1150.55 0.0600855 -1.83402 0
M  V30 11983 H 1148.93 2.28071 -3.23728 0
M  V30 11984 H 1150.1 -0.231455 -4.60218 0
M  V30 11985 H 1148.42 -0.0510078 -4.16369 0
M  V30 11986 H 1151.02 2.6927 -4.6195 0
M  V30 11987 H 1151.36 2.9594 -2.92789 0
M  V30 11988 H 1151.89 1.4487 -3.70483 0
M  V30 11989 H 1148.63 0.469918 -6.53813 0
M  V30 11990 H 1148.15 1.94787 -5.6729 0
M  V30 11991 H 1149.83 1.74289 -6.23083 0
M  V30 11992 N 1149.96 1.53094 0.37415 0
M  V30 11993 C 1150.89 1.75199 1.47776 0
M  V30 11994 C 1151.91 0.632627 1.50006 0
M  V30 11995 O 1153.1 0.908688 1.5364 0
M  V30 11996 C 1150.2 1.80909 2.86575 0
M  V30 11997 C 1149.37 3.10432 3.08141 0
M  V30 11998 C 1148.43 3.07495 4.27005 0
M  V30 11999 O 1147.45 3.81319 4.22592 0
M  V30 12000 N 1148.66 2.27715 5.33972 0
M  V30 12001 H 1151.42 2.70423 1.29196 0
M  V30 12002 H 1148.98 1.51766 0.563802 0
M  V30 12003 H 1150.97 1.76432 3.64217 0
M  V30 12004 H 1149.54 0.930074 2.98443 0
M  V30 12005 H 1148.76 3.2828 2.18233 0
M  V30 12006 H 1150.05 3.96047 3.19413 0
M  V30 12007 H 1149.45 1.67231 5.40417 0
M  V30 12008 H 1148.01 2.29065 6.10223 0
M  V30 12009 N 1151.44 -0.633461 1.44309 0
M  V30 12010 C 1152.66 -1.42527 1.50668 0
M  V30 12011 C 1153.09 -1.87637 0.131861 0
M  V30 12012 O 1152.45 -1.58595 -0.878477 0
M  V30 12013 C 1152.5 -2.62328 2.47419 0
M  V30 12014 O 1151.6 -3.62081 1.97411 0
M  V30 12015 H 1150.94 -0.426559 0.508864 0
M  V30 12016 H 1153.47 -0.773392 1.8942 0
M  V30 12017 H 1153.48 -3.09901 2.65378 0
M  V30 12018 H 1152.16 -2.2884 3.47283 0
M  V30 12019 H 1150.73 -3.21333 1.89208 0
M  V30 12020 N 1152.92 -1.31168 -0.873655 0
M  V30 12021 C 1154.16 -1.21938 -1.64044 0
M  V30 12022 C 1154.52 0.219903 -1.90737 0
M  V30 12023 O 1155.72 0.435635 -2.65246 0
M  V30 12024 C 1153.99 -2.03633 -2.93715 0
M  V30 12025 S 1155.55 -2.11224 -3.84616 0
M  V30 12026 H 1152.37 -0.43436 -0.562896 0
M  V30 12027 H 1154.97 -1.65786 -1.03612 0
M  V30 12028 H 1153.68 -3.07298 -2.72022 0
M  V30 12029 H 1153.21 -1.6049 -3.59175 0
M  V30 12030 H 1155.22 -1.24787 -4.80253 0
M  V30 12031 N 1154.4 1.08748 -1.14068 0
M  V30 12032 C 1155.64 1.80707 -0.904947 0
M  V30 12033 C 1155.97 1.86478 0.570167 0
M  V30 12034 O 1155.24 1.35536 1.41445 0
M  V30 12035 H 1153.82 0.669261 -0.331811 0
M  V30 12036 H 1156.48 1.31494 -1.43859 0
M  V30 12037 H 1155.57 2.83653 -1.30182 0
M  V30 12038 N 1155.87 0.935264 1.26849 0
M  V30 12039 C 1156.8 0.457776 2.28969 0
M  V30 12040 C 1157.79 -0.48587 1.63013 0
M  V30 12041 O 1158.97 -0.388998 1.90264 0
M  V30 12042 C 1156.1 -0.283332 3.46142 0
M  V30 12043 C 1155.05 0.573196 4.24144 0
M  V30 12044 C 1154.38 -0.297525 5.33872 0
M  V30 12045 C 1155.68 1.84153 4.88759 0
M  V30 12046 H 1157.37 1.31125 2.69159 0
M  V30 12047 H 1154.92 0.631956 1.29392 0
M  V30 12048 H 1156.87 -0.628366 4.16689 0
M  V30 12049 H 1155.6 -1.1709 3.04889 0
M  V30 12050 H 1154.26 0.901043 3.55354 0
M  V30 12051 H 1153.9 -1.18427 4.8886 0
M  V30 12052 H 1153.6 0.272126 5.8697 0
M  V30 12053 H 1155.13 -0.637961 6.07258 0
M  V30 12054 H 1156.54 1.5641 5.51551 0
M  V30 12055 H 1154.94 2.35528 5.51948 0
M  V30 12056 H 1156.01 2.5565 4.12033 0
M  V30 12057 N 1157.35 -1.41121 0.701616 0
M  V30 12058 C 1158.6 -2.00733 0.234682 0
M  V30 12059 C 1158.92 -1.55869 -1.17174 0
M  V30 12060 O 1158.19 -0.791965 -1.79178 0
M  V30 12061 H 1156.77 -0.742288 0.0837745 0
M  V30 12062 H 1159.43 -1.7266 0.904127 0
M  V30 12063 H 1158.53 -3.11041 0.256831 0
M  V30 12064 N 1158.83 -0.446794 -1.51134 0
M  V30 12065 C 1160.08 0.116263 -2.01765 0
M  V30 12066 C 1160.4 1.42382 -1.33238 0
M  V30 12067 O 1159.67 1.9018 -0.469915 0
M  V30 12068 H 1158.25 0.0459558 -0.745585 0
M  V30 12069 H 1160.91 -0.591664 -1.85702 0
M  V30 12070 H 1160.01 0.285358 -3.10793 0
M  V30 12071 N 1160.31 1.56586 -0.178487 0
M  V30 12072 C 1161.24 2.14168 0.787856 0
M  V30 12073 C 1162.22 1.07374 1.22105 0
M  V30 12074 O 1163.4 1.35391 1.31154 0
M  V30 12075 C 1160.53 2.68708 2.06189 0
M  V30 12076 C 1159.58 3.8794 1.77215 0
M  V30 12077 S 1160.41 5.27274 0.935002 0
M  V30 12078 C 1161.57 5.85224 2.21954 0
M  V30 12079 H 1161.8 2.958 0.298293 0
M  V30 12080 H 1159.33 1.54357 0.0362853 0
M  V30 12081 H 1161.29 3.00777 2.79363 0
M  V30 12082 H 1159.95 1.87149 2.52258 0
M  V30 12083 H 1159.14 4.24453 2.71764 0
M  V30 12084 H 1158.75 3.56795 1.12132 0
M  V30 12085 H 1161.04 5.98575 3.17355 0
M  V30 12086 H 1161.98 6.82162 1.89898 0
M  V30 12087 H 1162.39 5.13697 2.34042 0
M  V30 12088 N 1161.79 -0.095206 1.57312 0
M  V30 12089 C 1163.2 -0.449411 1.53142 0
M  V30 12090 C 1163.4 -1.80523 0.895187 0
M  V30 12091 O 1162.46 -2.47746 0.487649 0
M  V30 12092 C 1163.77 -0.412002 2.97864 0
M  V30 12093 C 1165.32 -0.493866 3.09079 0
M  V30 12094 C 1165.79 -0.486606 4.55408 0
M  V30 12095 N 1167.29 -0.547363 4.59955 0
M  V30 12096 C 1168.02 -0.563582 5.70624 0
M  V30 12097 N 1167.52 -0.536015 6.90723 0
M  V30 12098 N 1169.31 -0.608385 5.58798 0
M  V30 12099 H 1161.46 0.792869 1.97047 0
M  V30 12100 H 1163.72 0.295106 0.900898 0
M  V30 12101 H 1163.43 0.517064 3.47878 0
M  V30 12102 H 1163.3 -1.23102 3.56547 0
M  V30 12103 H 1165.69 -1.41335 2.59053 0
M  V30 12104 H 1165.77 0.353286 2.53349 0
M  V30 12105 H 1165.42 0.428935 5.06086 0
M  V30 12106 H 1165.35 -1.35097 5.08976 0
M  V30 12107 H 1167.84 -0.573867 3.73517 0
M  V30 12108 H 1168.15 -0.551671 7.70828 0
M  V30 12109 H 1166.49 -0.503064 6.93177 0
M  V30 12110 H 1169.69 -0.627451 4.63876 0
M  V30 12111 H 1169.86 -0.617556 6.45051 0
M  V30 12112 N 1163.26 -1.53291 -0.366026 0
M  V30 12113 C 1164.21 -1.76077 -1.44847 0
M  V30 12114 C 1165.2 -0.615302 -1.4867 0
M  V30 12115 O 1166.39 -0.873952 -1.53919 0
M  V30 12116 C 1163.52 -1.95371 -2.82286 0
M  V30 12117 C 1162.61 -3.15918 -2.82943 0
M  V30 12118 N 1163 -4.37835 -2.53247 0
M  V30 12119 C 1161.29 -3.16631 -3.14103 0
M  V30 12120 C 1162 -5.19573 -2.6157 0
M  V30 12121 N 1160.97 -4.55773 -2.96263 0
M  V30 12122 H 1164.77 -2.67949 -1.2075 0
M  V30 12123 H 1162.29 -1.5191 -0.574206 0
M  V30 12124 H 1164.28 -2.09823 -3.6025 0
M  V30 12125 H 1162.94 -1.04727 -3.07347 0
M  V30 12126 H 1163.96 -4.65575 -2.26848 0
M  V30 12127 H 1160.63 -2.35878 -3.44482 0
M  V30 12128 H 1162.02 -6.26821 -2.41961 0
M  V30 12129 N 1164.74 0.6258 -1.44643 0
M  V30 12130 C 1165.69 1.75869 -1.52226 0
M  V30 12131 C 1166.68 1.64765 -0.39355 0
M  V30 12132 O 1167.89 1.70779 -0.568718 0
M  V30 12133 H 1164.27 0.580712 -0.477784 0
M  V30 12134 H 1166.24 1.66596 -2.47565 0
M  V30 12135 C 1164.99 3.14217 -1.48873 0
M  V30 12136 H 1164.31 3.23411 -2.35043 0
M  V30 12137 H 1165.75 3.93365 -1.58239 0
M  V30 12138 C 1164.21 3.36243 -0.210299 0
M  V30 12139 O 1164.74 3.95243 0.717335 0
M  V30 12140 N 1162.94 2.90385 -0.111744 0
M  V30 12141 H 1162.49 2.42555 -0.867466 0
M  V30 12142 H 1162.45 3.05498 0.742871 0
M  V30 12143 N 1166.22 1.31629 0.866686 0
M  V30 12144 C 1167.45 1.24609 1.65793 0
M  V30 12145 C 1167.87 -0.184944 1.87189 0
M  V30 12146 O 1167.23 -1.1322 1.41601 0
M  V30 12147 C 1167.28 1.9988 3.00134 0
M  V30 12148 O 1166.38 1.33838 3.90079 0
M  V30 12149 H 1165.72 0.430051 0.505917 0
M  V30 12150 H 1168.25 1.73752 1.08035 0
M  V30 12151 H 1168.26 2.09599 3.50046 0
M  V30 12152 H 1166.94 3.03947 2.83882 0
M  V30 12153 H 1165.51 1.3259 3.48532 0
M  V30 12154 N 1167.7 -1.08142 1.14644 0
M  V30 12155 C 1168.95 -1.80849 0.917685 0
M  V30 12156 C 1169.28 -1.86123 -0.554249 0
M  V30 12157 O 1168.55 -1.33907 -1.41065 0
M  V30 12158 C 1168.84 -3.26325 1.52264 0
M  V30 12159 C 1168.69 -3.29244 3.06461 0
M  V30 12160 C 1170.01 -4.23375 1.20175 0
M  V30 12161 H 1167.13 -0.656559 0.334812 0
M  V30 12162 H 1169.77 -1.26595 1.41682 0
M  V30 12163 H 1167.92 -3.72656 1.09817 0
M  V30 12164 H 1169.59 -2.91216 3.57758 0
M  V30 12165 H 1167.83 -2.68438 3.40769 0
M  V30 12166 H 1168.51 -4.31785 3.43897 0
M  V30 12167 H 1170.98 -3.85394 1.56877 0
M  V30 12168 H 1169.86 -5.23472 1.65132 0
M  V30 12169 H 1170.12 -4.41944 0.117474 0
M  V30 12170 N 1169.18 -0.941978 -1.26351 0
M  V30 12171 C 1170.42 -0.590845 -1.94002 0
M  V30 12172 C 1170.76 0.868004 -1.73722 0
M  V30 12173 O 1170.03 1.62111 -1.07472 0
M  V30 12174 C 1170.31 -0.934901 -3.47752 0
M  V30 12175 C 1170.17 -2.44855 -3.77314 0
M  V30 12176 C 1171.49 -0.450888 -4.37784 0
M  V30 12177 H 1168.61 -0.21613 -0.704597 0
M  V30 12178 H 1171.25 -1.17634 -1.49205 0
M  V30 12179 H 1169.4 -0.436648 -3.86038 0
M  V30 12180 H 1171.07 -3.01959 -3.48738 0
M  V30 12181 H 1169.31 -2.89169 -3.23363 0
M  V30 12182 H 1169.98 -2.6398 -4.84787 0
M  V30 12183 H 1172.46 -0.878107 -4.06729 0
M  V30 12184 H 1171.34 -0.720439 -5.44152 0
M  V30 12185 H 1171.6 0.649162 -4.37308 0
M  V30 12186 N 1170.66 1.40747 -0.709091 0
M  V30 12187 C 1171.59 2.33404 -0.0669763 0
M  V30 12188 C 1172.57 1.52546 0.752582 0
M  V30 12189 O 1173.75 1.81036 0.702823 0
M  V30 12190 C 1170.88 3.36476 0.860285 0
M  V30 12191 C 1169.84 4.27748 0.146828 0
M  V30 12192 C 1169.16 5.21304 1.18937 0
M  V30 12193 C 1170.46 5.12734 -0.995064 0
M  V30 12194 H 1172.16 2.87349 -0.840888 0
M  V30 12195 H 1169.7 1.38163 -0.405817 0
M  V30 12196 H 1171.65 4.00231 1.31883 0
M  V30 12197 H 1170.38 2.80912 1.66602 0
M  V30 12198 H 1169.04 3.65437 -0.291826 0
M  V30 12199 H 1168.69 4.62048 1.98798 0
M  V30 12200 H 1168.39 5.8321 0.716917 0
M  V30 12201 H 1169.91 5.87936 1.64815 0
M  V30 12202 H 1171.32 5.69979 -0.61618 0
M  V30 12203 H 1169.72 5.83649 -1.39547 0
M  V30 12204 H 1170.79 4.49097 -1.82867 0
M  V30 12205 N 1172.13 0.454803 1.50895 0
M  V30 12206 C 1173.38 -0.105562 2.01824 0
M  V30 12207 C 1173.7 -1.41673 1.33992 0
M  V30 12208 O 1172.97 -1.89929 0.479994 0
M  V30 12209 H 1171.55 -0.0420011 0.745818 0
M  V30 12210 H 1174.21 0.601504 1.85386 0
M  V30 12211 H 1173.31 -0.268872 3.1094 0
M  V30 12212 N 1173.61 -1.56489 0.186789 0
M  V30 12213 C 1174.86 -1.98399 -0.448244 0
M  V30 12214 C 1175.21 -1.07139 -1.59809 0
M  V30 12215 O 1174.51 -0.114119 -1.9126 0
M  V30 12216 C 1174.7 -3.44145 -0.964315 0
M  V30 12217 C 1174.53 -4.495 0.133992 0
M  V30 12218 C 1173.3 -5.01857 0.588851 0
M  V30 12219 C 1175.5 -5.05637 0.939971 0
M  V30 12220 N 1173.48 -5.90866 1.66585 0
M  V30 12221 C 1174.85 -5.91236 1.86655 0
M  V30 12222 C 1176.9 -4.88093 0.983319 0
M  V30 12223 C 1175.61 -6.61167 2.83286 0
M  V30 12224 C 1177.63 -5.58757 1.93764 0
M  V30 12225 C 1177 -6.44096 2.85167 0
M  V30 12226 H 1173.09 -0.770833 -0.131684 0
M  V30 12227 H 1175.68 -1.9252 0.290571 0
M  V30 12228 H 1173.85 -3.50541 -1.6726 0
M  V30 12229 H 1175.58 -3.73036 -1.56926 0
M  V30 12230 H 1172.34 -4.73244 0.183712 0
M  V30 12231 H 1172.76 -6.40075 2.2053 0
M  V30 12232 H 1177.4 -4.218 0.290658 0
M  V30 12233 H 1175.12 -7.26664 3.53532 0
M  V30 12234 H 1178.71 -5.47163 1.97748 0
M  V30 12235 H 1177.59 -6.97813 3.57808 0
M  V30 12236 N 1175.09 0.086862 -1.5736 0
M  V30 12237 C 1176.5 0.640442 -1.75372 0
M  V30 12238 C 1176.85 1.78693 -0.81014 0
M  V30 12239 O 1175.98 2.16398 0.00940712 0
M  V30 12240 C 1176.57 1.16856 -3.1801 0
M  V30 12241 C 1175.13 1.66813 -3.37417 0
M  V30 12242 C 1174.28 0.58116 -2.71142 0
M  V30 12243 H 1177.23 -0.139249 -1.58088 0
M  V30 12244 H 1177.25 2.03772 -3.21337 0
M  V30 12245 H 1176.76 0.333909 -3.86661 0
M  V30 12246 H 1174.86 2.52652 -2.73858 0
M  V30 12247 H 1174.98 1.75545 -4.45781 0
M  V30 12248 H 1173.34 1.0226 -2.3327 0
M  V30 12249 H 1174.12 -0.243047 -3.42439 0
M  V30 12250 N 1176.57 1.53483 0.357892 0
M  V30 12251 C 1177.8 1.73704 1.11851 0
M  V30 12252 C 1178.21 0.469388 1.83285 0
M  V30 12253 O 1177.55 -0.567894 1.74702 0
M  V30 12254 C 1177.61 2.85301 2.18732 0
M  V30 12255 C 1177.27 4.25395 1.66998 0
M  V30 12256 C 1178.27 5.07472 1.12994 0
M  V30 12257 C 1175.96 4.71832 1.72279 0
M  V30 12258 C 1177.95 6.34081 0.649574 0
M  V30 12259 C 1175.64 5.98417 1.23854 0
M  V30 12260 C 1176.64 6.79374 0.702839 0
M  V30 12261 O 1176.32 8.03583 0.225763 0
M  V30 12262 H 1176.06 0.584251 0.34004 0
M  V30 12263 H 1178.61 2.01054 0.420313 0
M  V30 12264 H 1176.84 2.53442 2.92068 0
M  V30 12265 H 1178.53 2.93627 2.80247 0
M  V30 12266 H 1179.29 4.72766 1.08248 0
M  V30 12267 H 1175.17 4.08886 2.12916 0
M  V30 12268 H 1178.72 6.97218 0.230774 0
M  V30 12269 H 1174.61 6.32622 1.28296 0
M  V30 12270 H 1175.38 8.17775 0.344381 0
M  V30 12271 N 1178.05 -0.61812 1.44973 0
M  V30 12272 C 1179.29 -1.37468 1.48145 0
M  V30 12273 C 1179.61 -1.94628 0.120366 0
M  V30 12274 O 1178.88 -1.76548 -0.848982 0
M  V30 12275 H 1177.46 -0.510293 0.545536 0
M  V30 12276 H 1180.13 -0.726598 1.8085 0
M  V30 12277 H 1179.22 -2.19944 2.2143 0
M  V30 12278 N 1179.52 -1.32087 -0.859693 0
M  V30 12279 C 1180.77 -1.23551 -1.61575 0
M  V30 12280 C 1181.12 0.20199 -1.91337 0
M  V30 12281 O 1180.42 1.13834 -1.54118 0
M  V30 12282 C 1180.61 -2.0234 -2.94607 0
M  V30 12283 C 1180.44 -3.53606 -2.77836 0
M  V30 12284 C 1179.21 -4.22948 -2.76483 0
M  V30 12285 C 1181.41 -4.48356 -2.51955 0
M  V30 12286 N 1179.39 -5.60301 -2.5087 0
M  V30 12287 C 1180.76 -5.7345 -2.35702 0
M  V30 12288 C 1182.82 -4.37669 -2.37383 0
M  V30 12289 C 1181.52 -6.89064 -2.06357 0
M  V30 12290 C 1183.55 -5.53077 -2.09427 0
M  V30 12291 C 1182.91 -6.77167 -1.93971 0
M  V30 12292 H 1179.01 -0.507252 -0.595164 0
M  V30 12293 H 1181.59 -1.66395 -1.01098 0
M  V30 12294 H 1179.76 -1.6185 -3.53071 0
M  V30 12295 H 1181.49 -1.8574 -3.59559 0
M  V30 12296 H 1178.25 -3.75017 -2.89239 0
M  V30 12297 H 1178.67 -6.32649 -2.41006 0
M  V30 12298 H 1183.31 -3.42386 -2.48056 0
M  V30 12299 H 1181.03 -7.84363 -1.94421 0
M  V30 12300 H 1184.62 -5.46731 -1.98937 0
M  V30 12301 H 1183.5 -7.64959 -1.72646 0
M  V30 12302 N 1181 1.07532 -1.15215 0
M  V30 12303 C 1182.42 1.32183 -0.894411 0
M  V30 12304 C 1182.62 1.96188 0.459614 0
M  V30 12305 O 1181.67 2.22057 1.20195 0
M  V30 12306 C 1182.99 2.21473 -2.03397 0
M  V30 12307 C 1184.53 2.34927 -2.06829 0
M  V30 12308 C 1185.01 3.27564 -3.20103 0
M  V30 12309 N 1186.5 3.35144 -3.19738 0
M  V30 12310 C 1187.24 4.0688 -4.04025 0
M  V30 12311 N 1186.73 4.81246 -4.98371 0
M  V30 12312 N 1188.52 4.02802 -3.92055 0
M  V30 12313 H 1180.68 0.643732 -2.0241 0
M  V30 12314 H 1182.94 0.346272 -0.882496 0
M  V30 12315 H 1182.64 1.81701 -3.01127 0
M  V30 12316 H 1182.52 3.2199 -1.96475 0
M  V30 12317 H 1184.91 2.73953 -1.09699 0
M  V30 12318 H 1184.99 1.34121 -2.17819 0
M  V30 12319 H 1184.63 2.89258 -4.17483 0
M  V30 12320 H 1184.56 4.2832 -3.06349 0
M  V30 12321 H 1187.05 2.82135 -2.51412 0
M  V30 12322 H 1187.36 5.33472 -5.59131 0
M  V30 12323 H 1185.71 4.80268 -5.02362 0
M  V30 12324 H 1188.9 3.43816 -3.17661 0
M  V30 12325 H 1189.07 4.58443 -4.57967 0
M  V30 12326 N 1182.48 0.948665 1.2585 0
M  V30 12327 C 1183.41 0.421458 2.25292 0
M  V30 12328 C 1184.43 -0.459389 1.56184 0
M  V30 12329 O 1185.61 -0.268627 1.76467 0
M  V30 12330 C 1182.71 -0.412653 3.36378 0
M  V30 12331 C 1181.89 0.453792 4.3504 0
M  V30 12332 C 1180.95 -0.321127 5.25219 0
M  V30 12333 O 1179.97 0.278424 5.68519 0
M  V30 12334 N 1181.17 -1.61576 5.5756 0
M  V30 12335 H 1183.94 1.27636 2.71162 0
M  V30 12336 H 1181.5 0.818367 1.39694 0
M  V30 12337 H 1183.49 -0.938637 3.93664 0
M  V30 12338 H 1182.06 -1.16839 2.89944 0
M  V30 12339 H 1181.28 1.16093 3.76718 0
M  V30 12340 H 1182.57 1.04538 4.97945 0
M  V30 12341 H 1181.97 -2.12488 5.24276 0
M  V30 12342 H 1180.53 -2.08783 6.17457 0
M  V30 12343 N 1183.96 -1.40369 0.716545 0
M  V30 12344 C 1185.18 -2.05704 0.264729 0
M  V30 12345 C 1185.61 -1.53634 -1.08527 0
M  V30 12346 O 1184.97 -0.67212 -1.68381 0
M  V30 12347 C 1185.01 -3.59692 0.255778 0
M  V30 12348 O 1184.12 -4.05286 -0.762686 0
M  V30 12349 H 1183.46 -0.652301 0.124092 0
M  V30 12350 H 1185.99 -1.7975 0.977295 0
M  V30 12351 H 1186 -4.07892 0.0937944 0
M  V30 12352 H 1184.67 -3.96955 1.24095 0
M  V30 12353 H 1183.25 -3.68543 -0.568347 0
M  V30 12354 N 1185.44 -0.462799 -1.50652 0
M  V30 12355 C 1186.35 0.341191 -2.32106 0
M  V30 12356 C 1187.36 1.00384 -1.42123 0
M  V30 12357 O 1188.54 0.993635 -1.75182 0
M  V30 12358 C 1185.6 1.41356 -3.16575 0
M  V30 12359 C 1184.66 0.768375 -4.22368 0
M  V30 12360 C 1183.9 1.78964 -5.028 0
M  V30 12361 O 1184.12 3.01515 -4.84195 0
M  V30 12362 O 1183.05 1.36606 -5.86193 0
M  V30 12363 H 1186.88 -0.324482 -3.01962 0
M  V30 12364 H 1184.47 -0.224807 -1.47699 0
M  V30 12365 H 1186.35 2.0349 -3.69012 0
M  V30 12366 H 1185.02 2.06285 -2.49456 0
M  V30 12367 H 1183.93 0.108297 -3.73943 0
M  V30 12368 H 1185.26 0.162164 -4.91933 0
M  V30 12369 N 1186.91 1.56388 -0.195085 0
M  V30 12370 C 1188.19 1.89329 0.491303 0
M  V30 12371 C 1188.57 1.10861 1.79647 0
M  V30 12372 O 1187.92 0.209696 2.27536 0
M  V30 12373 C 1188.13 3.417 0.710096 0
M  V30 12374 C 1189.48 4.11931 1.02947 0
M  V30 12375 O 1190.5 3.4715 0.797817 0
M  V30 12376 O 1189.36 5.26423 1.46767 0
M  V30 12377 H 1186.45 0.786335 0.256137 0
M  V30 12378 H 1189 1.68061 -0.235298 0
M  V30 12379 H 1187.77 3.90727 -0.211604 0
M  V30 12380 H 1187.4 3.6866 1.48916 0
M  V30 12381 N 1188.39 -0.0785156 1.57404 0
M  V30 12382 C 1189.8 -0.631132 1.75709 0
M  V30 12383 C 1190.15 -1.78261 0.819605 0
M  V30 12384 O 1189.28 -2.164 0.00206912 0
M  V30 12385 C 1189.87 -1.15168 3.18625 0
M  V30 12386 C 1188.43 -1.65021 3.38297 0
M  V30 12387 C 1187.58 -0.566773 2.71446 0
M  V30 12388 H 1190.53 0.147631 1.58012 0
M  V30 12389 H 1190.55 -2.02065 3.22413 0
M  V30 12390 H 1190.06 -0.313399 3.86833 0
M  V30 12391 H 1188.17 -2.51196 2.75194 0
M  V30 12392 H 1188.28 -1.73179 4.46706 0
M  V30 12393 H 1186.64 -1.01021 2.33809 0
M  V30 12394 H 1187.43 0.261204 3.42305 0
M  V30 12395 N 1189.87 -1.5367 -0.349747 0
M  V30 12396 C 1191.29 -1.43796 -0.692457 0
M  V30 12397 C 1191.49 -0.58972 -1.92677 0
M  V30 12398 O 1190.54 -0.078294 -2.52379 0
M  V30 12399 C 1191.86 -2.872 -0.890881 0
M  V30 12400 C 1193.4 -2.96935 -0.989892 0
M  V30 12401 C 1193.88 -4.41433 -1.22068 0
M  V30 12402 N 1195.37 -4.44932 -1.28802 0
M  V30 12403 C 1196.1 -5.53864 -1.48398 0
M  V30 12404 N 1195.6 -6.72814 -1.65208 0
M  V30 12405 N 1197.39 -5.41467 -1.50896 0
M  V30 12406 H 1189.54 -2.07317 0.461895 0
M  V30 12407 H 1191.81 -0.936895 0.144681 0
M  V30 12408 H 1191.51 -3.51656 -0.0555095 0
M  V30 12409 H 1191.39 -3.31784 -1.79442 0
M  V30 12410 H 1193.77 -2.32622 -1.81579 0
M  V30 12411 H 1193.86 -2.55721 -0.0633906 0
M  V30 12412 H 1193.5 -5.06325 -0.399729 0
M  V30 12413 H 1193.43 -4.80233 -2.16064 0
M  V30 12414 H 1195.92 -3.59214 -1.17361 0
M  V30 12415 H 1196.23 -7.51598 -1.79779 0
M  V30 12416 H 1194.58 -6.7577 -1.62356 0
M  V30 12417 H 1197.77 -4.47498 -1.37342 0
M  V30 12418 H 1197.94 -6.26423 -1.65826 0
M  V30 12419 N 1191.35 0.610423 -1.45298 0
M  V30 12420 C 1192.31 1.70324 -1.5337 0
M  V30 12421 C 1193.31 1.55393 -0.413492 0
M  V30 12422 O 1194.5 1.60512 -0.676872 0
M  V30 12423 C 1191.63 3.09572 -1.42752 0
M  V30 12424 H 1192.83 1.64535 -2.50736 0
M  V30 12425 H 1190.38 0.825906 -1.32697 0
M  V30 12426 H 1191.11 3.2094 -0.465601 0
M  V30 12427 H 1190.9 3.21817 -2.24 0
M  V30 12428 H 1192.39 3.89178 -1.51427 0
M  V30 12429 N 1192.83 1.32541 0.852676 0
M  V30 12430 C 1194.07 1.24406 1.60918 0
M  V30 12431 C 1194.43 -0.19184 1.91441 0
M  V30 12432 O 1193.72 -1.13016 1.54719 0
M  V30 12433 C 1193.91 2.039 2.9353 0
M  V30 12434 C 1193.74 3.55074 2.75957 0
M  V30 12435 C 1192.51 4.24409 2.74236 0
M  V30 12436 C 1194.71 4.49686 2.49574 0
M  V30 12437 N 1192.69 5.61624 2.47895 0
M  V30 12438 C 1194.06 5.74692 2.32658 0
M  V30 12439 C 1196.12 4.38921 2.35058 0
M  V30 12440 C 1194.82 6.90149 2.027 0
M  V30 12441 C 1196.85 5.5418 2.06491 0
M  V30 12442 C 1196.21 6.78186 1.90377 0
M  V30 12443 H 1192.31 0.510401 0.592465 0
M  V30 12444 H 1194.89 1.66929 1.00214 0
M  V30 12445 H 1193.06 1.6372 3.52208 0
M  V30 12446 H 1194.8 1.87644 3.58569 0
M  V30 12447 H 1191.55 3.76546 2.87246 0
M  V30 12448 H 1191.98 6.33918 2.37648 0
M  V30 12449 H 1196.62 3.43697 2.46236 0
M  V30 12450 H 1194.34 7.85383 1.90259 0
M  V30 12451 H 1197.92 5.47779 1.96035 0
M  V30 12452 H 1196.8 7.65864 1.68587 0
M  V30 12453 N 1194.3 -1.0692 1.15784 0
M  V30 12454 C 1195.25 -2.14235 0.858616 0
M  V30 12455 C 1196.22 -1.65006 -0.190295 0
M  V30 12456 O 1197.41 -1.90715 -0.0568853 0
M  V30 12457 C 1194.55 -3.43229 0.35888 0
M  V30 12458 C 1193.66 -4.06225 1.46987 0
M  V30 12459 C 1192.79 -5.2307 0.925812 0
M  V30 12460 C 1191.83 -5.78037 2.01345 0
M  V30 12461 N 1190.97 -6.86206 1.48544 0
M  V30 12462 H 1195.81 -2.3917 1.77769 0
M  V30 12463 H 1193.35 -1.17354 0.886925 0
M  V30 12464 H 1195.31 -4.17169 0.0508198 0
M  V30 12465 H 1193.94 -3.18531 -0.523259 0
M  V30 12466 H 1192.99 -3.29895 1.89403 0
M  V30 12467 H 1194.3 -4.43081 2.29088 0
M  V30 12468 H 1193.45 -6.04011 0.570555 0
M  V30 12469 H 1192.19 -4.87644 0.0740371 0
M  V30 12470 H 1191.2 -4.95738 2.37748 0
M  V30 12471 H 1192.42 -6.15517 2.86907 0
M  V30 12472 H 1190.37 -6.52711 0.656092 0
M  V30 12473 H 1190.29 -7.2197 2.24266 0
M  V30 12474 H 1191.55 -7.70842 1.15856 0
M  V30 12475 N 1195.78 -0.955326 -1.25345 0
M  V30 12476 C 1197.01 -0.627693 -1.97149 0
M  V30 12477 C 1197.43 0.800349 -1.70997 0
M  V30 12478 O 1196.78 1.53545 -0.986417 0
M  V30 12479 C 1196.83 -0.877675 -3.50684 0
M  V30 12480 O 1196.55 -2.24957 -3.75934 0
M  V30 12481 C 1198.06 -0.562524 -4.39716 0
M  V30 12482 H 1195.28 -0.235269 -0.628402 0
M  V30 12483 H 1197.82 -1.27989 -1.59496 0
M  V30 12484 H 1195.97 -0.271878 -3.86445 0
M  V30 12485 H 1196.39 -2.32022 -4.70389 0
M  V30 12486 H 1197.86 -0.787972 -5.46347 0
M  V30 12487 H 1198.34 0.50293 -4.36311 0
M  V30 12488 H 1198.95 -1.14767 -4.09522 0
M  V30 12489 N 1197.26 1.39987 -0.723979 0
M  V30 12490 C 1198.51 2.00731 -0.267115 0
M  V30 12491 C 1198.84 1.57424 1.14228 0
M  V30 12492 O 1198.09 0.789205 1.79081 0
M  V30 12493 C 1198.39 3.56101 -0.304472 0
M  V30 12494 C 1198.06 4.1902 -1.66533 0
M  V30 12495 C 1196.72 4.3592 -2.03783 0
M  V30 12496 C 1199.07 4.54034 -2.55935 0
M  V30 12497 C 1196.4 4.85119 -3.29964 0
M  V30 12498 C 1198.75 5.04637 -3.81477 0
M  V30 12499 C 1197.41 5.19745 -4.18833 0
M  V30 12500 H 1196.68 0.734525 -0.0977442 0
M  V30 12501 H 1199.33 1.67476 -0.928659 0
M  V30 12502 H 1197.64 3.89314 0.440647 0
M  V30 12503 H 1199.33 4.00944 0.0669875 0
M  V30 12504 H 1195.92 4.0626 -1.36569 0
M  V30 12505 H 1200.11 4.40606 -2.2843 0
M  V30 12506 H 1195.36 4.95001 -3.58865 0
M  V30 12507 H 1199.54 5.30705 -4.50916 0
M  V30 12508 H 1197.16 5.5763 -5.16675 0
M  V30 12509 N 1198.74 0.470782 1.50404 0
M  V30 12510 C 1199.99 -0.0859981 2.01517 0
M  V30 12511 C 1200.3 -1.40811 1.35763 0
M  V30 12512 O 1201.51 -2.04982 1.7803 0
M  V30 12513 C 1199.96 -0.203773 3.59323 0
M  V30 12514 C 1199.57 1.10989 4.34034 0
M  V30 12515 C 1201.32 -0.712528 4.18477 0
M  V30 12516 C 1199.22 0.955928 5.83623 0
M  V30 12517 H 1198.15 -0.0359142 0.753144 0
M  V30 12518 H 1200.8 0.605631 1.73218 0
M  V30 12519 H 1199.19 -0.959177 3.84208 0
M  V30 12520 H 1200.36 1.87623 4.20873 0
M  V30 12521 H 1198.67 1.54973 3.86487 0
M  V30 12522 H 1201.27 -0.844745 5.27985 0
M  V30 12523 H 1201.61 -1.70377 3.79838 0
M  V30 12524 H 1202.15 -0.0145179 3.97797 0
M  V30 12525 H 1198.89 1.92054 6.26734 0
M  V30 12526 H 1198.41 0.22997 5.99359 0
M  V30 12527 H 1200.09 0.622423 6.43999 0
M  V30 12528 N 1200.22 -1.56282 0.203376 0
M  V30 12529 C 1201.49 -1.89587 -0.481256 0
M  V30 12530 C 1201.87 -1.11812 -1.79057 0
M  V30 12531 O 1201.22 -0.221759 -2.27421 0
M  V30 12532 C 1201.43 -3.42071 -0.691965 0
M  V30 12533 C 1202.78 -4.12471 -1.00761 0
M  V30 12534 O 1203.8 -3.47568 -0.779396 0
M  V30 12535 O 1202.66 -5.27194 -1.43974 0
M  V30 12536 H 1199.76 -0.787682 -0.251963 0
M  V30 12537 H 1202.3 -1.67934 0.244207 0
M  V30 12538 H 1201.08 -3.9061 0.232322 0
M  V30 12539 H 1200.7 -3.69444 -1.46958 0
M  V30 12540 N 1201.7 0.070167 -1.57444 0
M  V30 12541 C 1202.92 0.781894 -1.91557 0
M  V30 12542 C 1203.34 1.71037 -0.799489 0
M  V30 12543 O 1202.7 1.81082 0.227062 0
M  V30 12544 C 1202.75 1.57415 -3.25427 0
M  V30 12545 O 1202.47 0.682991 -4.32743 0
M  V30 12546 C 1203.97 2.38673 -3.73564 0
M  V30 12547 H 1201.19 0.222211 -0.633138 0
M  V30 12548 H 1203.73 0.0399504 -2.04461 0
M  V30 12549 H 1201.89 2.26835 -3.14045 0
M  V30 12550 H 1202.3 1.2342 -5.09772 0
M  V30 12551 H 1203.78 2.89716 -4.6986 0
M  V30 12552 H 1204.25 3.18269 -3.02657 0
M  V30 12553 H 1204.86 1.74405 -3.87896 0
M  V30 12554 N 1203.17 1.53854 0.341593 0
M  V30 12555 C 1204.42 1.71447 1.08322 0
M  V30 12556 C 1204.75 0.477289 1.88243 0
M  V30 12557 O 1204.03 -0.525695 1.87261 0
M  V30 12558 C 1204.31 2.97917 2.02281 0
M  V30 12559 C 1204.16 4.31847 1.25809 0
M  V30 12560 C 1205.48 3.20065 3.0207 0
M  V30 12561 H 1202.6 0.623847 0.392408 0
M  V30 12562 H 1205.24 1.86527 0.361594 0
M  V30 12563 H 1203.39 2.85191 2.63815 0
M  V30 12564 H 1205.07 4.56427 0.668737 0
M  V30 12565 H 1203.31 4.30169 0.560119 0
M  V30 12566 H 1203.98 5.16522 1.94704 0
M  V30 12567 H 1206.46 3.32135 2.50651 0
M  V30 12568 H 1205.33 4.09947 3.65013 0
M  V30 12569 H 1205.59 2.36452 3.73554 0
M  V30 12570 N 1204.65 -0.602709 1.4562 0
M  V30 12571 C 1206.07 -0.923983 1.30133 0
M  V30 12572 C 1206.27 -1.99842 0.25796 0
M  V30 12573 O 1205.32 -2.50112 -0.346414 0
M  V30 12574 C 1206.64 -1.36029 2.68173 0
M  V30 12575 C 1208.18 -1.47423 2.76108 0
M  V30 12576 C 1208.66 -1.94427 4.14683 0
M  V30 12577 N 1210.15 -2.01653 4.17002 0
M  V30 12578 C 1210.89 -2.39255 5.211 0
M  V30 12579 N 1210.38 -2.75791 6.3554 0
M  V30 12580 N 1212.17 -2.39636 5.08459 0
M  V30 12581 H 1204.33 0.107377 2.12128 0
M  V30 12582 H 1206.59 -0.0146216 0.947887 0
M  V30 12583 H 1206.29 -0.644949 3.45736 0
M  V30 12584 H 1206.17 -2.32584 2.96959 0
M  V30 12585 H 1208.56 -2.18047 1.98845 0
M  V30 12586 H 1208.64 -0.4917 2.5103 0
M  V30 12587 H 1208.28 -1.24389 4.92433 0
M  V30 12588 H 1208.21 -2.93603 4.37156 0
M  V30 12589 H 1210.7 -1.75988 3.3442 0
M  V30 12590 H 1211.01 -3.03378 7.10761 0
M  V30 12591 H 1209.36 -2.73475 6.38934 0
M  V30 12592 H 1212.55 -2.10502 4.18098 0
M  V30 12593 H 1212.72 -2.68614 5.89704 0
M  V30 12594 N 1206.13 -1.32992 -0.845635 0
M  V30 12595 C 1207.37 -1.2539 -1.61421 0
M  V30 12596 C 1207.73 0.179395 -1.9116 0
M  V30 12597 O 1208.93 0.379275 -2.66111 0
M  V30 12598 C 1207.21 -2.09817 -2.8933 0
M  V30 12599 S 1208.76 -2.19335 -3.80049 0
M  V30 12600 H 1205.58 -0.446202 -0.553556 0
M  V30 12601 H 1208.18 -1.67946 -1.00072 0
M  V30 12602 H 1206.89 -3.12999 -2.65443 0
M  V30 12603 H 1206.42 -1.68073 -3.5569 0
M  V30 12604 H 1208.43 -1.34946 -4.77498 0
M  V30 12605 N 1207.61 1.06304 -1.1635 0
M  V30 12606 C 1208.84 1.82799 -0.96913 0
M  V30 12607 C 1209.25 1.82526 0.482659 0
M  V30 12608 O 1208.61 1.24437 1.33498 0
M  V30 12609 C 1208.66 3.29417 -1.48884 0
M  V30 12610 O 1208.38 3.29803 -2.88377 0
M  V30 12611 C 1209.88 4.22642 -1.33748 0
M  V30 12612 H 1207.1 0.576388 -0.343537 0
M  V30 12613 H 1209.64 1.34122 -1.54375 0
M  V30 12614 H 1207.8 3.75406 -0.956509 0
M  V30 12615 H 1208.21 4.21486 -3.1217 0
M  V30 12616 H 1209.69 5.23545 -1.74942 0
M  V30 12617 H 1210.16 4.38287 -0.283021 0
M  V30 12618 H 1210.77 3.82499 -1.85942 0
M  V30 12619 N 1209.09 0.96196 1.24836 0
M  V30 12620 C 1210.31 0.63814 1.96813 0
M  V30 12621 C 1210.73 -0.79127 1.71419 0
M  V30 12622 O 1210.09 -1.5302 0.994546 0
M  V30 12623 C 1210.14 0.89626 3.50213 0
M  V30 12624 O 1209.86 2.26947 3.74735 0
M  V30 12625 C 1211.36 0.585836 4.39412 0
M  V30 12626 H 1208.58 0.238598 0.627146 0
M  V30 12627 H 1211.12 1.28833 1.58815 0
M  V30 12628 H 1209.28 0.292368 3.86295 0
M  V30 12629 H 1209.69 2.34514 4.69152 0
M  V30 12630 H 1211.17 0.816935 5.45921 0
M  V30 12631 H 1211.64 -0.479784 4.36572 0
M  V30 12632 H 1212.25 1.16938 4.08908 0
M  V30 12633 N 1210.56 -1.39601 0.731392 0
M  V30 12634 C 1211.53 -2.28992 0.0976037 0
M  V30 12635 C 1212.53 -1.46135 -0.670917 0
M  V30 12636 O 1213.72 -1.66856 -0.50047 0
M  V30 12637 C 1210.85 -3.29582 -0.871124 0
M  V30 12638 H 1212.04 -2.86541 0.885112 0
M  V30 12639 H 1209.59 -1.48188 0.497002 0
M  V30 12640 H 1210.33 -2.77082 -1.68512 0
M  V30 12641 H 1210.11 -3.9077 -0.322735 0
M  V30 12642 H 1211.6 -3.96479 -1.31126 0
M  V30 12643 N 1212.04 -0.478751 -1.50152 0
M  V30 12644 C 1213.01 0.300181 -2.27226 0
M  V30 12645 C 1214.01 0.913705 -1.32318 0
M  V30 12646 O 1215.2 0.781692 -1.55677 0
M  V30 12647 C 1212.33 1.42838 -3.09532 0
M  V30 12648 H 1213.52 -0.375845 -2.97536 0
M  V30 12649 H 1211.07 -0.233037 -1.54553 0
M  V30 12650 H 1211.81 2.13923 -2.43737 0
M  V30 12651 H 1211.59 0.994161 -3.79287 0
M  V30 12652 H 1213.08 1.97765 -3.67802 0
M  V30 12653 N 1213.52 1.56172 -0.211661 0
M  V30 12654 C 1214.47 2.16477 0.715675 0
M  V30 12655 C 1215.45 1.11023 1.16459 0
M  V30 12656 O 1216.65 1.3704 1.12023 0
M  V30 12657 C 1213.78 2.84055 1.92789 0
M  V30 12658 C 1212.86 3.96721 1.49911 0
M  V30 12659 N 1213.25 4.99714 0.782304 0
M  V30 12660 C 1211.55 4.08628 1.78716 0
M  V30 12661 C 1212.25 5.78949 0.565043 0
M  V30 12662 N 1211.23 5.31963 1.11878 0
M  V30 12663 H 1215.03 2.93467 0.15948 0
M  V30 12664 H 1212.54 1.62395 -0.012521 0
M  V30 12665 H 1214.54 3.25662 2.60289 0
M  V30 12666 H 1213.2 2.08558 2.48865 0
M  V30 12667 H 1214.21 5.16061 0.436021 0
M  V30 12668 H 1210.89 3.44273 2.36183 0
M  V30 12669 H 1212.28 6.719 -0.00477074 0
M  V30 12670 N 1215 -0.0618163 1.57479 0
M  V30 12671 C 1215.93 -1.07252 2.07411 0
M  V30 12672 C 1216.91 -1.39756 0.969649 0
M  V30 12673 O 1218.09 -1.4921 1.24298 0
M  V30 12674 C 1215.22 -2.38313 2.52635 0
M  V30 12675 C 1214.18 -2.20136 3.67048 0
M  V30 12676 C 1213.5 -3.56668 3.98361 0
M  V30 12677 C 1214.8 -1.61437 4.96725 0
M  V30 12678 H 1216.5 -0.656983 2.92103 0
M  V30 12679 H 1214.04 -0.314579 1.40522 0
M  V30 12680 H 1216 -3.09319 2.86181 0
M  V30 12681 H 1214.72 -2.81865 1.64984 0
M  V30 12682 H 1213.38 -1.51569 3.338 0
M  V30 12683 H 1213.03 -3.97809 3.07826 0
M  V30 12684 H 1212.73 -3.45342 4.75408 0
M  V30 12685 H 1214.25 -4.2909 4.34413 0
M  V30 12686 H 1215.67 -2.2232 5.28438 0
M  V30 12687 H 1214.06 -1.60779 5.78161 0
M  V30 12688 H 1215.13 -0.576795 4.81457 0
M  V30 12689 N 1216.48 -1.54033 -0.333429 0
M  V30 12690 C 1217.44 -1.82021 -1.39288 0
M  V30 12691 C 1218.44 -0.691623 -1.45166 0
M  V30 12692 O 1219.63 -0.959925 -1.45365 0
M  V30 12693 C 1216.76 -1.97136 -2.78119 0
M  V30 12694 H 1217.95 -2.76671 -1.1573 0
M  V30 12695 H 1215.51 -1.45599 -0.568376 0
M  V30 12696 H 1216.24 -1.04663 -3.06946 0
M  V30 12697 H 1216.03 -2.79251 -2.75247 0
M  V30 12698 H 1217.52 -2.20271 -3.54782 0
M  V30 12699 N 1217.95 0.594978 -1.45938 0
M  V30 12700 C 1218.88 1.71536 -1.58422 0
M  V30 12701 C 1219.87 1.64441 -0.435116 0
M  V30 12702 O 1221.05 1.82647 -0.659839 0
M  V30 12703 C 1218.18 3.10163 -1.56257 0
M  V30 12704 C 1217.13 3.3208 -2.70013 0
M  V30 12705 C 1216.46 4.71108 -2.52905 0
M  V30 12706 C 1217.76 3.21105 -4.11933 0
M  V30 12707 H 1219.45 1.61344 -2.52207 0
M  V30 12708 H 1217 0.774791 -1.2138 0
M  V30 12709 H 1218.95 3.88352 -1.63587 0
M  V30 12710 H 1217.68 3.21225 -0.590093 0
M  V30 12711 H 1216.34 2.56286 -2.62132 0
M  V30 12712 H 1215.98 4.7892 -1.53768 0
M  V30 12713 H 1215.68 4.86727 -3.29197 0
M  V30 12714 H 1217.21 5.51482 -2.62107 0
M  V30 12715 H 1218.62 3.89153 -4.2099 0
M  V30 12716 H 1217.02 3.4825 -4.88715 0
M  V30 12717 H 1218.09 2.18359 -4.32952 0
M  V30 12718 N 1219.43 1.33438 0.838571 0
M  V30 12719 C 1220.36 1.26344 1.96365 0
M  V30 12720 C 1221.34 0.143956 1.6949 0
M  V30 12721 O 1222.53 0.333779 1.9131 0
M  V30 12722 C 1219.66 1.0022 3.32526 0
M  V30 12723 C 1218.61 2.08466 3.73799 0
M  V30 12724 C 1217.94 1.67555 5.07769 0
M  V30 12725 C 1219.24 3.50144 3.87552 0
M  V30 12726 H 1220.93 2.20478 2.02558 0
M  V30 12727 H 1218.48 1.06139 0.973168 0
M  V30 12728 H 1220.43 0.939068 4.10803 0
M  V30 12729 H 1219.16 0.0252514 3.2659 0
M  V30 12730 H 1217.81 2.13822 2.97785 0
M  V30 12731 H 1217.46 0.685619 4.98305 0
M  V30 12732 H 1217.16 2.39993 5.36356 0
M  V30 12733 H 1218.69 1.62708 5.88522 0
M  V30 12734 H 1220.1 3.47287 4.56141 0
M  V30 12735 H 1218.5 4.21069 4.27575 0
M  V30 12736 H 1219.57 3.88628 2.89994 0
M  V30 12737 N 1220.91 -1.05686 1.16912 0
M  V30 12738 C 1222.16 -1.78862 0.955839 0
M  V30 12739 C 1222.49 -1.87257 -0.514645 0
M  V30 12740 O 1221.76 -1.36869 -1.38193 0
M  V30 12741 C 1222.05 -3.23021 1.59152 0
M  V30 12742 C 1221.9 -3.22669 3.13376 0
M  V30 12743 C 1223.22 -4.2073 1.29128 0
M  V30 12744 H 1220.34 -0.64931 0.348663 0
M  V30 12745 H 1222.98 -1.23561 1.44335 0
M  V30 12746 H 1221.13 -3.70243 1.17697 0
M  V30 12747 H 1222.8 -2.83562 3.63855 0
M  V30 12748 H 1221.05 -2.61149 3.46386 0
M  V30 12749 H 1221.72 -4.24394 3.52979 0
M  V30 12750 H 1224.19 -3.8198 1.65017 0
M  V30 12751 H 1223.07 -5.19851 1.76198 0
M  V30 12752 H 1223.33 -4.41595 0.21119 0
M  V30 12753 N 1222.39 -0.968567 -1.24324 0
M  V30 12754 C 1223.8 -0.66964 -1.74278 0
M  V30 12755 C 1224.15 0.81461 -1.7849 0
M  V30 12756 O 1223.28 1.63736 -1.4149 0
M  V30 12757 C 1223.87 -1.20885 -3.165 0
M  V30 12758 C 1222.43 -0.959808 -3.63957 0
M  V30 12759 C 1221.58 -1.34365 -2.42573 0
M  V30 12760 H 1224.53 -1.14379 -1.10015 0
M  V30 12761 H 1224.55 -0.57555 -3.76122 0
M  V30 12762 H 1224.06 -2.28912 -3.13402 0
M  V30 12763 H 1222.16 0.104894 -3.72452 0
M  V30 12764 H 1222.27 -1.60606 -4.51378 0
M  V30 12765 H 1220.64 -0.762039 -2.43033 0
M  V30 12766 H 1221.42 -2.43343 -2.42155 0
M  V30 12767 N 1223.87 1.39211 -0.738786 0
M  V30 12768 C 1224.81 2.30578 -0.10129 0
M  V30 12769 C 1225.78 1.49412 0.725616 0
M  V30 12770 O 1226.97 1.78087 0.684799 0
M  V30 12771 C 1224.11 3.35767 0.797161 0
M  V30 12772 C 1223.22 4.31979 -0.0427701 0
M  V30 12773 C 1222.36 5.24236 0.857306 0
M  V30 12774 C 1221.4 6.12099 0.0128501 0
M  V30 12775 N 1220.53 6.96701 0.869067 0
M  V30 12776 H 1225.37 2.84522 -0.88606 0
M  V30 12777 H 1222.91 1.40093 -0.448602 0
M  V30 12778 H 1224.87 3.95347 1.33255 0
M  V30 12779 H 1223.5 2.83268 1.54787 0
M  V30 12780 H 1222.55 3.73986 -0.695622 0
M  V30 12781 H 1223.86 4.93927 -0.69555 0
M  V30 12782 H 1223.02 5.88861 1.4604 0
M  V30 12783 H 1221.75 4.62619 1.54386 0
M  V30 12784 H 1220.76 5.46483 -0.603018 0
M  V30 12785 H 1221.98 6.75781 -0.67054 0
M  V30 12786 H 1219.93 6.37647 1.54084 0
M  V30 12787 H 1219.85 7.55507 0.272852 0
M  V30 12788 H 1221.12 7.65751 1.4576 0
M  V30 12789 N 1225.34 0.486708 1.49896 0
M  V30 12790 C 1226.29 -0.313156 2.30482 0
M  V30 12791 C 1227.29 -0.976043 1.38455 0
M  V30 12792 O 1228.49 -0.905364 1.55574 0
M  V30 12793 H 1224.87 -0.119839 0.74239 0
M  V30 12794 H 1226.84 0.386701 2.95884 0
M  V30 12795 C 1225.59 -1.37334 3.19429 0
M  V30 12796 H 1224.91 -0.87265 3.9016 0
M  V30 12797 H 1226.35 -1.90526 3.78782 0
M  V30 12798 C 1224.81 -2.38378 2.38071 0
M  V30 12799 O 1225.34 -3.43972 2.07476 0
M  V30 12800 N 1223.55 -2.10486 2.00359 0
M  V30 12801 H 1223.09 -1.24638 2.2544 0
M  V30 12802 H 1223.05 -2.78324 1.46229 0
M  V30 12803 N 1226.82 -1.56058 0.219941 0
M  V30 12804 C 1228.07 -1.97436 -0.412543 0
M  V30 12805 C 1228.39 -1.11058 -1.61014 0
M  V30 12806 O 1229.59 -1.42328 -2.31203 0
M  V30 12807 C 1228.05 -3.51227 -0.785362 0
M  V30 12808 C 1227.66 -4.46305 0.389328 0
M  V30 12809 C 1229.4 -4.01321 -1.38354 0
M  V30 12810 C 1227.31 -5.914 -0.00583531 0
M  V30 12811 H 1226.24 -0.73728 -0.157906 0
M  V30 12812 H 1228.89 -1.8076 0.315898 0
M  V30 12813 H 1227.27 -3.63497 -1.57118 0
M  V30 12814 H 1228.44 -4.45781 1.16686 0
M  V30 12815 H 1226.76 -4.06543 0.900633 0
M  V30 12816 H 1229.36 -5.07221 -1.69207 0
M  V30 12817 H 1229.7 -3.47077 -2.29876 0
M  V30 12818 H 1230.23 -3.92267 -0.66119 0
M  V30 12819 H 1226.97 -6.49623 0.87583 0
M  V30 12820 H 1226.49 -5.95121 -0.74772 0
M  V30 12821 H 1228.17 -6.45549 -0.43308 0
M  V30 12822 N 1228.3 0.053464 -1.57509 0
M  V30 12823 C 1229.26 1.04604 -2.03938 0
M  V30 12824 C 1230.26 1.30509 -0.939357 0
M  V30 12825 O 1231.45 1.25922 -1.20371 0
M  V30 12826 C 1228.59 2.38516 -2.43563 0
M  V30 12827 H 1229.78 0.645484 -2.92871 0
M  V30 12828 H 1227.33 0.299683 -1.534 0
M  V30 12829 H 1228.07 2.83368 -1.57712 0
M  V30 12830 H 1227.85 2.2105 -3.23851 0
M  V30 12831 H 1229.34 3.09826 -2.79996 0
M  V30 12832 N 1229.78 1.54207 0.325255 0
M  V30 12833 C 1231.03 1.72331 1.0634 0
M  V30 12834 C 1231.35 0.496115 1.88066 0
M  V30 12835 O 1230.61 -0.52214 1.88606 0
M  V30 12836 C 1230.91 2.95 2.01766 0
M  V30 12837 C 1230.57 4.29835 1.36208 0
M  V30 12838 C 1229.24 4.66493 1.18059 0
M  V30 12839 C 1231.59 5.13521 0.891404 0
M  V30 12840 C 1228.92 5.84436 0.514894 0
M  V30 12841 C 1231.27 6.32146 0.239534 0
M  V30 12842 C 1229.93 6.67484 0.0458839 0
M  V30 12843 H 1229.2 0.630605 0.389125 0
M  V30 12844 H 1231.85 1.88445 0.34072 0
M  V30 12845 H 1230.15 2.73567 2.80479 0
M  V30 12846 H 1231.85 3.06217 2.58906 0
M  V30 12847 H 1228.44 4.00993 1.51335 0
M  V30 12848 H 1232.63 4.85718 1.01941 0
M  V30 12849 H 1227.88 6.10376 0.353644 0
M  V30 12850 H 1232.06 6.96273 -0.133185 0
M  V30 12851 H 1229.68 7.58733 -0.471978 0
M  V30 12852 N 1231.26 -0.58723 1.46251 0
M  V30 12853 C 1232.49 -1.36976 1.54665 0
M  V30 12854 C 1232.9 -1.88293 0.185079 0
M  V30 12855 O 1232.24 -1.64028 -0.82707 0
M  V30 12856 C 1232.3 -2.59591 2.48702 0
M  V30 12857 C 1231.96 -2.29773 3.95036 0
M  V30 12858 C 1232.96 -1.88885 4.84374 0
M  V30 12859 C 1230.65 -2.42057 4.40129 0
M  V30 12860 C 1232.64 -1.60669 6.16818 0
M  V30 12861 C 1230.33 -2.13454 5.72609 0
M  V30 12862 C 1231.33 -1.72824 6.60773 0
M  V30 12863 O 1231.01 -1.44569 7.90794 0
M  V30 12864 H 1230.75 -0.424968 0.525717 0
M  V30 12865 H 1233.3 -0.721298 1.92319 0
M  V30 12866 H 1231.53 -3.27226 2.06058 0
M  V30 12867 H 1233.22 -3.21656 2.47573 0
M  V30 12868 H 1233.98 -1.78913 4.50794 0
M  V30 12869 H 1229.86 -2.72644 3.71734 0
M  V30 12870 H 1233.41 -1.28882 6.85591 0
M  V30 12871 H 1229.3 -2.23048 6.05739 0
M  V30 12872 H 1230.07 -1.58452 8.03016 0
M  V30 12873 N 1232.74 -1.33881 -0.831482 0
M  V30 12874 C 1234.15 -1.23112 -1.40358 0
M  V30 12875 C 1234.5 0.146944 -1.95649 0
M  V30 12876 O 1233.62 1.04689 -1.89391 0
M  V30 12877 C 1234.22 -2.22899 -2.5515 0
M  V30 12878 C 1232.78 -2.15946 -3.08292 0
M  V30 12879 C 1231.92 -2.09975 -1.81124 0
M  V30 12880 H 1234.87 -1.45372 -0.63661 0
M  V30 12881 H 1234.9 -1.841 -3.32997 0
M  V30 12882 H 1234.41 -3.23186 -2.14878 0
M  V30 12883 H 1232.51 -1.18987 -3.53091 0
M  V30 12884 H 1232.62 -3.06822 -3.67964 0
M  V30 12885 H 1230.99 -1.55564 -2.01673 0
M  V30 12886 H 1231.77 -3.12082 -1.43037 0
M  V30 12887 N 1234.21 1.05064 -1.1747 0
M  V30 12888 C 1235.44 1.82299 -0.98903 0
M  V30 12889 C 1235.86 1.82441 0.457907 0
M  V30 12890 O 1235.22 1.23433 1.32793 0
M  V30 12891 C 1235.27 3.26239 -1.53624 0
M  V30 12892 O 1234.37 4.05507 -0.750857 0
M  V30 12893 H 1233.71 0.563601 -0.35107 0
M  V30 12894 H 1236.24 1.32386 -1.55997 0
M  V30 12895 H 1236.25 3.77038 -1.55906 0
M  V30 12896 H 1234.93 3.25451 -2.58949 0
M  V30 12897 H 1233.51 3.64227 -0.799548 0
M  V30 12898 N 1235.69 0.975146 1.23809 0
M  V30 12899 C 1236.64 0.503396 2.27087 0
M  V30 12900 C 1237.63 -0.43689 1.63669 0
M  V30 12901 O 1238.84 -0.31136 1.77287 0
M  V30 12902 H 1235.21 0.144346 0.738017 0
M  V30 12903 H 1237.19 1.38627 2.64244 0
M  V30 12904 C 1235.93 -0.183682 3.47214 0
M  V30 12905 H 1235.26 0.530753 3.96261 0
M  V30 12906 H 1236.7 -0.477479 4.21303 0
M  V30 12907 C 1235.16 -1.41317 3.05829 0
M  V30 12908 O 1235.69 -2.50975 3.13647 0
M  V30 12909 N 1233.89 -1.28191 2.60798 0
M  V30 12910 H 1233.44 -0.38967 2.54636 0
M  V30 12911 H 1233.4 -2.10565 2.33473 0
M  V30 12912 N 1237.17 -1.38817 0.746158 0
M  V30 12913 C 1238.12 -2.27825 0.089362 0
M  V30 12914 C 1239.1 -1.44826 -0.701013 0
M  V30 12915 O 1240.3 -1.67632 -0.568188 0
M  V30 12916 C 1237.42 -3.33639 -0.808682 0
M  V30 12917 C 1236.51 -4.24098 -0.0118582 0
M  V30 12918 N 1236.9 -4.95393 1.02075 0
M  V30 12919 C 1235.2 -4.45355 -0.239815 0
M  V30 12920 C 1235.9 -5.61969 1.5022 0
M  V30 12921 N 1234.88 -5.37398 0.818816 0
M  V30 12922 H 1238.68 -2.80406 0.88033 0
M  V30 12923 H 1236.19 -1.51632 0.581512 0
M  V30 12924 H 1238.19 -3.96284 -1.29478 0
M  V30 12925 H 1236.85 -2.82617 -1.59868 0
M  V30 12926 H 1237.86 -4.98552 1.40237 0
M  V30 12927 H 1234.54 -4.05255 -1.00374 0
M  V30 12928 H 1235.93 -6.29017 2.36192 0
M  V30 12929 N 1238.65 -0.49465 -1.49636 0
M  V30 12930 C 1239.56 0.291881 -2.32777 0
M  V30 12931 C 1240.57 0.973468 -1.44221 0
M  V30 12932 O 1241.75 0.956252 -1.77251 0
M  V30 12933 C 1238.81 1.34609 -3.19502 0
M  V30 12934 C 1237.88 0.678611 -4.23903 0
M  V30 12935 C 1237.11 1.68259 -5.06483 0
M  V30 12936 O 1237.33 2.91176 -4.90482 0
M  V30 12937 O 1236.27 1.24141 -5.88959 0
M  V30 12938 H 1240.09 -0.388459 -3.01205 0
M  V30 12939 H 1237.68 -0.256086 -1.47189 0
M  V30 12940 H 1239.56 1.95617 -3.73245 0
M  V30 12941 H 1238.23 2.00947 -2.53775 0
M  V30 12942 H 1237.14 0.0289541 -3.74089 0
M  V30 12943 H 1238.47 0.0577817 -4.92166 0
M  V30 12944 N 1240.13 1.55939 -0.228214 0
M  V30 12945 C 1241.54 1.59094 0.12704 0
M  V30 12946 C 1241.74 1.24514 1.58425 0
M  V30 12947 O 1240.8 0.983544 2.32557 0
M  V30 12948 C 1242.11 2.99999 -0.205268 0
M  V30 12949 C 1243.66 3.1265 -0.148046 0
M  V30 12950 C 1244.13 4.55743 -0.454122 0
M  V30 12951 N 1245.62 4.61435 -0.403937 0
M  V30 12952 C 1246.36 5.70101 -0.614173 0
M  V30 12953 N 1245.86 6.87104 -0.88654 0
M  V30 12954 N 1247.65 5.5944 -0.546153 0
M  V30 12955 H 1239.8 1.7669 -1.17874 0
M  V30 12956 H 1242.06 0.821599 -0.472947 0
M  V30 12957 H 1241.77 3.29976 -1.21692 0
M  V30 12958 H 1241.64 3.74177 0.476573 0
M  V30 12959 H 1244.03 2.82465 0.854255 0
M  V30 12960 H 1244.11 2.40786 -0.863462 0
M  V30 12961 H 1243.75 4.86646 -1.45389 0
M  V30 12962 H 1243.68 5.25841 0.282561 0
M  V30 12963 H 1246.18 3.77363 -0.201388 0
M  V30 12964 H 1246.49 7.65839 -1.03488 0
M  V30 12965 H 1244.83 6.88833 -0.923808 0
M  V30 12966 H 1248.02 4.6691 -0.33355 0
M  V30 12967 H 1248.2 6.44061 -0.713402 0
M  V30 12968 N 1241.6 -0.0451101 1.57535 0
M  V30 12969 C 1242.83 -0.750231 1.92497 0
M  V30 12970 C 1243.24 -1.70268 0.824946 0
M  V30 12971 O 1242.59 -1.82511 -0.208656 0
M  V30 12972 C 1242.65 -1.57543 3.23141 0
M  V30 12973 C 1242.31 -0.789495 4.50129 0
M  V30 12974 C 1243.31 -0.0968367 5.1981 0
M  V30 12975 C 1240.99 -0.748776 4.96688 0
M  V30 12976 C 1242.99 0.626018 6.34318 0
M  V30 12977 C 1240.67 -0.0221652 6.11096 0
M  V30 12978 C 1241.67 0.664006 6.79765 0
M  V30 12979 O 1241.36 1.37885 7.91987 0
M  V30 12980 H 1241.09 -0.216895 0.64026 0
M  V30 12981 H 1243.65 -0.011558 2.05397 0
M  V30 12982 H 1241.88 -2.35754 3.06524 0
M  V30 12983 H 1243.57 -2.16168 3.4355 0
M  V30 12984 H 1244.33 -0.119429 4.84853 0
M  V30 12985 H 1240.21 -1.27235 4.43094 0
M  V30 12986 H 1243.75 1.16215 6.87852 0
M  V30 12987 H 1239.65 0.00240707 6.455 0
M  V30 12988 H 1240.42 1.29087 8.08257 0
M  V30 12989 N 1243.08 -1.54377 -0.317073 0
M  V30 12990 C 1244.01 -1.8721 -1.39552 0
M  V30 12991 C 1244.99 -0.729483 -1.53664 0
M  V30 12992 O 1246.18 -0.983799 -1.67437 0
M  V30 12993 C 1243.31 -2.1052 -2.76222 0
M  V30 12994 C 1242.26 -3.26366 -2.76892 0
M  V30 12995 C 1241.59 -3.35061 -4.16699 0
M  V30 12996 C 1242.89 -4.63862 -2.40061 0
M  V30 12997 H 1244.58 -2.77532 -1.12323 0
M  V30 12998 H 1242.13 -1.33536 -0.538897 0
M  V30 12999 H 1244.08 -2.32073 -3.51739 0
M  V30 13000 H 1242.81 -1.16953 -3.04942 0
M  V30 13001 H 1241.46 -3.0471 -2.03831 0
M  V30 13002 H 1241.11 -2.39041 -4.4257 0
M  V30 13003 H 1240.81 -4.12923 -4.18053 0
M  V30 13004 H 1242.34 -3.58856 -4.94019 0
M  V30 13005 H 1243.75 -4.85252 -3.05292 0
M  V30 13006 H 1242.15 -5.44321 -2.52655 0
M  V30 13007 H 1243.22 -4.6567 -1.35202 0
M  V30 13008 N 1244.56 0.579466 -1.4656 0
M  V30 13009 C 1245.47 1.71609 -1.59961 0
M  V30 13010 C 1246.49 1.67162 -0.483002 0
M  V30 13011 O 1247.66 1.87012 -0.747561 0
M  V30 13012 C 1244.73 3.08114 -1.58954 0
M  V30 13013 C 1243.79 3.238 -2.81872 0
M  V30 13014 C 1243.02 4.53794 -2.80904 0
M  V30 13015 O 1243.24 5.37884 -1.89835 0
M  V30 13016 O 1242.18 4.72796 -3.72488 0
M  V30 13017 H 1246 1.6325 -2.56092 0
M  V30 13018 H 1243.59 0.746891 -1.2939 0
M  V30 13019 H 1245.47 3.8939 -1.611 0
M  V30 13020 H 1244.15 3.16903 -0.65984 0
M  V30 13021 H 1243.05 2.42006 -2.85279 0
M  V30 13022 H 1244.39 3.19904 -3.74062 0
M  V30 13023 N 1246.04 1.3432 0.824371 0
M  V30 13024 C 1247.29 1.26345 1.57738 0
M  V30 13025 C 1247.61 -0.166836 1.94285 0
M  V30 13026 O 1246.88 -1.09911 1.62162 0
M  V30 13027 H 1245.46 0.46466 0.584893 0
M  V30 13028 H 1248.12 1.68214 0.984373 0
M  V30 13029 H 1247.22 1.8672 2.50084 0
M  V30 13030 N 1247.52 -1.0444 1.18026 0
M  V30 13031 C 1248.47 -2.10671 0.871877 0
M  V30 13032 C 1249.45 -1.60134 -0.156798 0
M  V30 13033 O 1250.64 -1.76938 0.0467129 0
M  V30 13034 C 1247.77 -3.41017 0.395271 0
M  V30 13035 C 1246.86 -3.98331 1.4558 0
M  V30 13036 N 1247.25 -4.29508 2.67127 0
M  V30 13037 C 1245.55 -4.2616 1.31544 0
M  V30 13038 C 1246.25 -4.7532 3.35329 0
M  V30 13039 N 1245.22 -4.75904 2.6271 0
M  V30 13040 H 1249.03 -2.32647 1.79589 0
M  V30 13041 H 1246.54 -1.22158 1.0701 0
M  V30 13042 H 1248.54 -4.16609 0.155861 0
M  V30 13043 H 1247.2 -3.20469 -0.522452 0
M  V30 13044 H 1248.21 -4.19271 3.04027 0
M  V30 13045 H 1244.88 -4.14959 0.459962 0
M  V30 13046 H 1246.27 -5.08493 4.39186 0
M  V30 13047 N 1248.99 -0.981699 -1.2329 0
M  V30 13048 C 1250.24 -0.646818 -1.91048 0
M  V30 13049 C 1250.56 0.823479 -1.77421 0
M  V30 13050 O 1251.76 1.26948 -2.39993 0
M  V30 13051 C 1250.22 -1.1063 -3.42475 0
M  V30 13052 C 1249.83 -2.60103 -3.6476 0
M  V30 13053 C 1251.57 -0.845227 -4.16 0
M  V30 13054 C 1249.48 -2.99712 -5.0983 0
M  V30 13055 H 1248.41 -0.238221 -0.715379 0
M  V30 13056 H 1251.06 -1.18977 -1.39702 0
M  V30 13057 H 1249.44 -0.491554 -3.92937 0
M  V30 13058 H 1250.61 -3.26828 -3.24839 0
M  V30 13059 H 1248.93 -2.83972 -3.04547 0
M  V30 13060 H 1251.53 -1.11699 -5.22903 0
M  V30 13061 H 1251.87 0.218661 -4.15725 0
M  V30 13062 H 1252.4 -1.42162 -3.7153 0
M  V30 13063 H 1249.14 -4.0523 -5.15237 0
M  V30 13064 H 1248.66 -2.37683 -5.50697 0
M  V30 13065 H 1250.34 -2.9039 -5.78172 0
M  V30 13066 N 1250.47 1.3842 -0.753509 0
M  V30 13067 C 1251.75 1.94181 -0.235142 0
M  V30 13068 C 1252.13 1.68881 1.26659 0
M  V30 13069 O 1251.48 1.02731 2.04104 0
M  V30 13070 C 1251.69 3.43998 -0.588751 0
M  V30 13071 C 1253.04 4.21044 -0.548352 0
M  V30 13072 O 1254.06 3.52279 -0.52704 0
M  V30 13073 O 1252.92 5.43631 -0.559221 0
M  V30 13074 H 1250.01 0.825536 -0.0491834 0
M  V30 13075 H 1252.56 1.47813 -0.833626 0
M  V30 13076 H 1251.33 3.55921 -1.6259 0
M  V30 13077 H 1250.95 3.97582 0.0377429 0
M  V30 13078 N 1251.95 0.502579 1.49372 0
M  V30 13079 C 1253.2 -0.0414423 2.02758 0
M  V30 13080 C 1253.53 -1.36499 1.38136 0
M  V30 13081 O 1252.8 -1.87487 0.517593 0
M  V30 13082 C 1253.09 -0.192333 3.59586 0
M  V30 13083 C 1252.94 1.15445 4.34733 0
M  V30 13084 C 1254.26 -0.932218 4.30114 0
M  V30 13085 H 1251.38 -0.0135869 0.736875 0
M  V30 13086 H 1254.02 0.654296 1.78379 0
M  V30 13087 H 1252.17 -0.78491 3.80488 0
M  V30 13088 H 1253.84 1.78603 4.25322 0
M  V30 13089 H 1252.09 1.74333 3.97228 0
M  V30 13090 H 1252.76 1.00216 5.42827 0
M  V30 13091 H 1255.23 -0.429632 4.13876 0
M  V30 13092 H 1254.11 -1.00664 5.39591 0
M  V30 13093 H 1254.37 -1.9763 3.95468 0
M  V30 13094 N 1253.43 -1.55816 0.23648 0
M  V30 13095 C 1254.67 -1.99725 -0.384898 0
M  V30 13096 C 1255.03 -1.12169 -1.5632 0
M  V30 13097 O 1254.32 -0.17491 -1.908 0
M  V30 13098 C 1254.52 -3.47039 -0.85434 0
M  V30 13099 C 1254.35 -4.48847 0.276929 0
M  V30 13100 C 1253.12 -4.9973 0.748215 0
M  V30 13101 C 1255.31 -5.02391 1.10036 0
M  V30 13102 N 1253.3 -5.85267 1.85298 0
M  V30 13103 C 1254.67 -5.84998 2.0537 0
M  V30 13104 C 1256.72 -4.84718 1.1381 0
M  V30 13105 C 1255.42 -6.5182 3.04177 0
M  V30 13106 C 1257.45 -5.5231 2.11442 0
M  V30 13107 C 1256.81 -6.34697 3.05514 0
M  V30 13108 H 1252.91 -0.774632 -0.107094 0
M  V30 13109 H 1255.5 -1.91498 0.351673 0
M  V30 13110 H 1253.67 -3.55684 -1.56023 0
M  V30 13111 H 1255.4 -3.7784 -1.44979 0
M  V30 13112 H 1252.15 -4.7242 0.334178 0
M  V30 13113 H 1252.58 -6.32735 2.40782 0
M  V30 13114 H 1257.22 -4.20662 0.424703 0
M  V30 13115 H 1254.94 -7.15049 3.76471 0
M  V30 13116 H 1258.52 -5.40594 2.15056 0
M  V30 13117 H 1257.4 -6.86077 3.79827 0
M  V30 13118 N 1254.91 0.036755 -1.57557 0
M  V30 13119 C 1256.15 0.72475 -1.9005 0
M  V30 13120 C 1256.51 1.73374 -0.834226 0
M  V30 13121 O 1255.8 1.90948 0.157943 0
M  V30 13122 C 1255.99 1.44206 -3.27016 0
M  V30 13123 C 1255.82 0.504059 -4.46866 0
M  V30 13124 C 1254.59 0.127948 -5.05138 0
M  V30 13125 C 1256.79 -0.214278 -5.13853 0
M  V30 13126 N 1254.77 -0.812111 -6.08505 0
M  V30 13127 C 1256.14 -1.01027 -6.11714 0
M  V30 13128 C 1258.2 -0.28204 -4.97101 0
M  V30 13129 C 1256.9 -1.86778 -6.94627 0
M  V30 13130 C 1258.93 -1.12664 -5.80569 0
M  V30 13131 C 1258.29 -1.91058 -6.77994 0
M  V30 13132 H 1254.39 0.239542 -0.744408 0
M  V30 13133 H 1256.97 -0.0149454 -1.94694 0
M  V30 13134 H 1255.14 2.15226 -3.23314 0
M  V30 13135 H 1256.88 2.08183 -3.47047 0
M  V30 13136 H 1253.63 0.488471 -4.71074 0
M  V30 13137 H 1254.06 -1.27642 -6.64858 0
M  V30 13138 H 1258.7 0.309735 -4.21664 0
M  V30 13139 H 1256.42 -2.47038 -7.69414 0
M  V30 13140 H 1260 -1.18251 -5.69656 0
M  V30 13141 H 1258.88 -2.55358 -7.41459 0
M  V30 13142 N 1256.39 1.54543 0.308881 0
M  V30 13143 C 1257.63 1.7266 1.04266 0
M  V30 13144 C 1257.95 0.51518 1.88694 0
M  V30 13145 O 1259.15 0.577988 2.65276 0
M  V30 13146 C 1257.61 3.05448 1.9034 0
M  V30 13147 C 1257.22 4.34043 1.10953 0
M  V30 13148 C 1258.96 3.32925 2.63365 0
M  V30 13149 C 1256.87 5.57886 1.96258 0
M  V30 13150 H 1255.8 0.643485 0.392992 0
M  V30 13151 H 1258.45 1.8103 0.300077 0
M  V30 13152 H 1256.83 2.91023 2.68555 0
M  V30 13153 H 1258.01 4.59279 0.374069 0
M  V30 13154 H 1256.32 4.13442 0.495453 0
M  V30 13155 H 1258.92 4.22649 3.27524 0
M  V30 13156 H 1259.26 2.51451 3.3178 0
M  V30 13157 H 1259.79 3.48285 1.92204 0
M  V30 13158 H 1256.53 6.42005 1.32326 0
M  V30 13159 H 1256.05 5.36847 2.67498 0
M  V30 13160 H 1257.73 5.94846 2.54494 0
M  V30 13161 N 1257.86 -0.571685 1.46866 0
M  V30 13162 C 1259.11 -1.33145 1.52972 0
M  V30 13163 C 1259.44 -1.93314 0.185344 0
M  V30 13164 O 1258.72 -1.77083 -0.80447 0
M  V30 13165 C 1259 -2.4525 2.63675 0
M  V30 13166 C 1258.85 -1.90044 4.0768 0
M  V30 13167 C 1260.17 -3.47247 2.70384 0
M  V30 13168 H 1257.29 -0.482751 0.556885 0
M  V30 13169 H 1259.93 -0.641163 1.78855 0
M  V30 13170 H 1258.08 -3.04132 2.41735 0
M  V30 13171 H 1259.76 -1.35535 4.4094 0
M  V30 13172 H 1258 -1.20805 4.1664 0
M  V30 13173 H 1258.67 -2.71019 4.80887 0
M  V30 13174 H 1261.15 -2.98263 2.90135 0
M  V30 13175 H 1260.02 -4.23132 3.49643 0
M  V30 13176 H 1260.28 -4.05179 1.76868 0
M  V30 13177 N 1259.34 -1.34755 -0.817236 0
M  V30 13178 C 1260.29 -1.23351 -1.91751 0
M  V30 13179 C 1261.28 -0.131215 -1.60364 0
M  V30 13180 O 1262.47 -0.361425 -1.73271 0
M  V30 13181 C 1259.6 -0.996932 -3.28506 0
M  V30 13182 C 1258.68 -2.14265 -3.65993 0
M  V30 13183 N 1259.07 -3.39424 -3.75 0
M  V30 13184 C 1257.37 -2.05416 -3.95879 0
M  V30 13185 C 1258.07 -4.14701 -4.07919 0
M  V30 13186 N 1257.05 -3.43349 -4.21441 0
M  V30 13187 H 1260.85 -2.18191 -1.96901 0
M  V30 13188 H 1258.36 -1.27075 -1.01122 0
M  V30 13189 H 1260.36 -0.89613 -4.07155 0
M  V30 13190 H 1259.02 -0.0572789 -3.24649 0
M  V30 13191 H 1260.03 -3.73907 -3.58349 0
M  V30 13192 H 1256.71 -1.19242 -4.0011 0
M  V30 13193 H 1258.1 -5.22808 -4.22044 0
M  V30 13194 N 1260.82 1.03812 -1.18578 0
M  V30 13195 C 1262.1 1.74062 -0.892288 0
M  V30 13196 C 1262.48 2.02267 0.604256 0
M  V30 13197 O 1261.82 1.66988 1.55972 0
M  V30 13198 C 1262.03 3.024 -1.74228 0
M  V30 13199 C 1263.38 3.76088 -1.97087 0
M  V30 13200 O 1264.41 3.12305 -1.71302 0
M  V30 13201 O 1263.27 4.90732 -2.40509 0
M  V30 13202 H 1260.36 0.757567 -0.331695 0
M  V30 13203 H 1262.91 1.09855 -1.29345 0
M  V30 13204 H 1261.68 2.77713 -2.75665 0
M  V30 13205 H 1261.3 3.74346 -1.3398 0
M  V30 13206 N 1262.3 0.988223 1.22768 0
M  V30 13207 C 1263.55 0.660154 1.91014 0
M  V30 13208 C 1263.87 -0.809788 1.77391 0
M  V30 13209 O 1263.14 -1.57998 1.15817 0
M  V30 13210 H 1261.72 0.24118 0.706995 0
M  V30 13211 H 1264.38 1.25372 1.49224 0
M  V30 13212 H 1263.47 0.918603 2.98275 0
M  V30 13213 N 1263.78 -1.38018 0.760839 0
M  V30 13214 C 1265.02 -1.99557 0.319609 0
M  V30 13215 C 1265.34 -1.60699 -1.10457 0
M  V30 13216 O 1264.61 -0.867248 -1.75658 0
M  V30 13217 H 1263.19 -0.738066 0.115182 0
M  V30 13218 H 1265.86 -1.6867 0.976544 0
M  V30 13219 H 1264.95 -3.09672 0.388523 0
M  V30 13220 N 1265.25 -0.510493 -1.49103 0
M  V30 13221 C 1266.19 0.309697 -2.26089 0
M  V30 13222 C 1267.16 0.962061 -1.31084 0
M  V30 13223 O 1268.35 0.990296 -1.60391 0
M  V30 13224 C 1265.48 1.43693 -3.06708 0
M  V30 13225 C 1264.52 0.897978 -4.1694 0
M  V30 13226 S 1265.35 -0.218781 -5.35053 0
M  V30 13227 C 1266.51 0.911396 -6.19229 0
M  V30 13228 H 1266.74 -0.343702 -2.95307 0
M  V30 13229 H 1264.28 -0.295944 -1.51537 0
M  V30 13230 H 1266.23 2.08277 -3.53739 0
M  V30 13231 H 1264.9 2.06198 -2.36941 0
M  V30 13232 H 1264.09 1.74303 -4.729 0
M  V30 13233 H 1263.69 0.329192 -3.72548 0
M  V30 13234 H 1265.98 1.8145 -6.5275 0
M  V30 13235 H 1266.93 0.390201 -7.07024 0
M  V30 13236 H 1267.33 1.18301 -5.51965 0
M  V30 13237 N 1266.73 1.55688 -0.24474 0
M  V30 13238 C 1267.66 2.24272 0.64995 0
M  V30 13239 C 1268.64 1.22226 1.183 0
M  V30 13240 O 1269.83 1.50873 1.22274 0
M  V30 13241 C 1266.96 2.94053 1.84798 0
M  V30 13242 C 1265.91 4.02769 1.44779 0
M  V30 13243 C 1265.24 4.59965 2.72647 0
M  V30 13244 C 1266.54 5.18601 0.62047 0
M  V30 13245 H 1268.23 2.99298 0.0780654 0
M  V30 13246 H 1265.78 1.43955 0.0361069 0
M  V30 13247 H 1267.73 3.40732 2.47951 0
M  V30 13248 H 1266.45 2.16511 2.44521 0
M  V30 13249 H 1265.11 3.56856 0.839609 0
M  V30 13250 H 1264.76 3.79126 3.30564 0
M  V30 13251 H 1264.46 5.33352 2.46596 0
M  V30 13252 H 1265.99 5.09376 3.36703 0
M  V30 13253 H 1267.4 5.61519 1.15625 0
M  V30 13254 H 1265.8 5.98364 0.456097 0
M  V30 13255 H 1266.87 4.83503 -0.367798 0
M  V30 13256 N 1268.21 -0.0283989 1.57574 0
M  V30 13257 C 1269.14 -1.06191 2.01987 0
M  V30 13258 C 1270.12 -1.35131 0.90434 0
M  V30 13259 O 1271.3 -1.47777 1.17023 0
M  V30 13260 C 1268.43 -2.39646 2.39348 0
M  V30 13261 C 1267.48 -2.26558 3.6135 0
M  V30 13262 S 1268.31 -1.61839 5.10459 0
M  V30 13263 C 1269.47 -2.96783 5.51063 0
M  V30 13264 H 1269.7 -0.683625 2.89333 0
M  V30 13265 H 1267.23 -0.238394 1.52548 0
M  V30 13266 H 1269.19 -3.16394 2.61544 0
M  V30 13267 H 1267.85 -2.74622 1.52452 0
M  V30 13268 H 1267.04 -3.25079 3.85149 0
M  V30 13269 H 1266.65 -1.57954 3.39008 0
M  V30 13270 H 1268.94 -3.93111 5.51788 0
M  V30 13271 H 1269.88 -2.77716 6.51367 0
M  V30 13272 H 1270.29 -2.99386 4.78569 0
M  V30 13273 N 1269.69 -1.54705 -0.300681 0
M  V30 13274 C 1270.62 -1.88679 -1.37559 0
M  V30 13275 C 1271.6 -0.74574 -1.52881 0
M  V30 13276 O 1272.78 -1.0015 -1.66384 0
M  V30 13277 C 1269.91 -2.13438 -2.73974 0
M  V30 13278 C 1268.87 -3.29284 -2.73415 0
M  V30 13279 C 1268.19 -3.39462 -4.13122 0
M  V30 13280 C 1269.49 -4.66382 -2.35128 0
M  V30 13281 H 1271.19 -2.78707 -1.09373 0
M  V30 13282 H 1268.73 -1.341 -0.524704 0
M  V30 13283 H 1270.69 -2.35791 -3.49257 0
M  V30 13284 H 1269.41 -1.20181 -3.03684 0
M  V30 13285 H 1268.07 -3.06855 -2.00588 0
M  V30 13286 H 1267.72 -2.43721 -4.4001 0
M  V30 13287 H 1267.42 -4.17334 -4.1365 0
M  V30 13288 H 1268.94 -3.64075 -4.90185 0
M  V30 13289 H 1270.36 -4.88463 -3.00128 0
M  V30 13290 H 1268.75 -5.4697 -2.46867 0
M  V30 13291 H 1269.82 -4.67078 -1.30256 0
M  V30 13292 N 1271.17 0.563888 -1.47167 0
M  V30 13293 C 1272.1 1.68137 -1.62025 0
M  V30 13294 C 1273.08 1.63481 -0.469899 0
M  V30 13295 O 1274.26 1.81206 -0.698432 0
M  V30 13296 C 1271.39 3.06779 -1.62801 0
M  V30 13297 C 1270.35 3.26278 -2.76996 0
M  V30 13298 C 1269.67 4.65638 -2.62841 0
M  V30 13299 C 1270.97 3.12295 -4.18651 0
M  V30 13300 H 1272.67 1.55958 -2.55573 0
M  V30 13301 H 1270.21 0.74887 -1.22996 0
M  V30 13302 H 1272.17 3.84795 -1.71787 0
M  V30 13303 H 1270.89 3.19901 -0.658097 0
M  V30 13304 H 1269.55 2.50668 -2.67509 0
M  V30 13305 H 1269.2 4.75551 -1.63892 0
M  V30 13306 H 1268.9 4.79635 -3.39447 0
M  V30 13307 H 1270.42 5.45798 -2.73746 0
M  V30 13308 H 1271.83 3.80136 -4.2915 0
M  V30 13309 H 1270.23 3.37805 -4.95992 0
M  V30 13310 H 1271.3 2.09126 -4.37486 0
M  V30 13311 N 1272.64 1.35187 0.810078 0
M  V30 13312 C 1274.06 1.25329 1.38381 0
M  V30 13313 C 1274.41 -0.115799 1.95858 0
M  V30 13314 O 1273.53 -1.01663 1.91033 0
M  V30 13315 C 1274.13 2.2693 2.51572 0
M  V30 13316 C 1272.69 2.20824 3.04818 0
M  V30 13317 C 1271.83 2.1283 1.7776 0
M  V30 13318 H 1274.78 1.46366 0.613402 0
M  V30 13319 H 1274.8 1.89375 3.30026 0
M  V30 13320 H 1274.32 3.26563 2.09709 0
M  V30 13321 H 1272.42 1.24589 3.51153 0
M  V30 13322 H 1272.53 3.12637 3.63036 0
M  V30 13323 H 1270.89 1.58752 1.99173 0
M  V30 13324 H 1271.68 3.14318 1.38054 0
M  V30 13325 N 1274.12 -1.03182 1.19127 0
M  V30 13326 C 1275.37 -1.76533 0.992093 0
M  V30 13327 C 1275.7 -1.88549 -0.477429 0
M  V30 13328 O 1274.95 -1.39675 -1.37074 0
M  V30 13329 C 1275.25 -3.19452 1.60267 0
M  V30 13330 C 1274.92 -3.27449 3.09981 0
M  V30 13331 C 1273.58 -3.29338 3.50841 0
M  V30 13332 C 1275.93 -3.26833 4.05992 0
M  V30 13333 C 1273.26 -3.28265 4.86271 0
M  V30 13334 C 1275.61 -3.27299 5.41348 0
M  V30 13335 C 1274.28 -3.27485 5.81644 0
M  V30 13336 H 1273.55 -0.645979 0.363033 0
M  V30 13337 H 1276.19 -1.21127 1.48326 0
M  V30 13338 H 1274.5 -3.77917 1.03372 0
M  V30 13339 H 1276.19 -3.74869 1.42388 0
M  V30 13340 H 1272.78 -3.26704 2.77421 0
M  V30 13341 H 1276.97 -3.24556 3.75469 0
M  V30 13342 H 1272.22 -3.26731 5.16775 0
M  V30 13343 H 1276.4 -3.25773 6.15504 0
M  V30 13344 H 1274.03 -3.26407 6.86558 0
M  V30 13345 N 1275.6 -0.99472 -1.22242 0
M  V30 13346 C 1276.53 -0.566499 -2.26524 0
M  V30 13347 C 1277.51 0.407541 -1.65146 0
M  V30 13348 O 1278.7 0.297777 -1.91903 0
M  V30 13349 C 1275.83 0.11786 -3.471 0
M  V30 13350 C 1274.78 -0.774908 -4.20927 0
M  V30 13351 C 1274.11 0.0424687 -5.34683 0
M  V30 13352 C 1275.41 -2.07263 -4.79416 0
M  V30 13353 H 1277.1 -1.43818 -2.62596 0
M  V30 13354 H 1274.65 -0.692971 -1.2623 0
M  V30 13355 H 1276.6 0.428842 -4.19212 0
M  V30 13356 H 1275.32 1.0241 -3.10129 0
M  V30 13357 H 1273.98 -1.06956 -3.50651 0
M  V30 13358 H 1273.63 0.949677 -4.93954 0
M  V30 13359 H 1273.33 -0.551867 -5.85003 0
M  V30 13360 H 1274.85 0.347504 -6.0961 0
M  V30 13361 H 1276.27 -1.82548 -5.4346 0
M  V30 13362 H 1274.67 -2.61594 -5.40082 0
M  V30 13363 H 1275.74 -2.75017 -3.99366 0
M  V30 13364 N 1277.08 1.37613 -0.768148 0
M  V30 13365 C 1278.01 2.3291 -0.165911 0
M  V30 13366 C 1278.99 1.556 0.687205 0
M  V30 13367 O 1280.17 1.83854 0.625407 0
M  V30 13368 C 1277.3 3.39822 0.7168 0
M  V30 13369 C 1276.26 4.27986 -0.0347264 0
M  V30 13370 C 1275.58 5.2588 0.967192 0
M  V30 13371 C 1276.88 5.08052 -1.21164 0
M  V30 13372 H 1278.58 2.83524 -0.962006 0
M  V30 13373 H 1276.12 1.36318 -0.464051 0
M  V30 13374 H 1278.08 4.05464 1.14789 0
M  V30 13375 H 1276.8 2.87725 1.54538 0
M  V30 13376 H 1275.46 3.6387 -0.446557 0
M  V30 13377 H 1275.11 4.70064 1.79022 0
M  V30 13378 H 1274.81 5.85726 0.468913 0
M  V30 13379 H 1276.33 5.94397 1.3973 0
M  V30 13380 H 1277.75 5.66853 -0.857373 0
M  V30 13381 H 1276.14 5.77206 -1.64176 0
M  V30 13382 H 1277.21 4.40936 -2.0175 0
M  V30 13383 N 1278.56 0.518393 1.4883 0
M  V30 13384 C 1279.97 0.175476 1.58632 0
M  V30 13385 C 1280.17 -1.32081 1.52174 0
M  V30 13386 O 1279.23 -2.09817 1.40474 0
M  V30 13387 C 1280.54 0.767722 2.90734 0
M  V30 13388 C 1282.09 0.735402 3.04238 0
M  V30 13389 C 1282.56 1.30602 4.38984 0
M  V30 13390 N 1284.06 1.26748 4.45521 0
M  V30 13391 C 1284.79 1.679 5.48267 0
M  V30 13392 N 1284.29 2.16728 6.58028 0
M  V30 13393 N 1286.08 1.59209 5.39082 0
M  V30 13394 H 1278.23 1.491 1.51271 0
M  V30 13395 H 1280.49 0.619497 0.717584 0
M  V30 13396 H 1280.2 1.81777 3.01081 0
M  V30 13397 H 1280.07 0.238119 3.76448 0
M  V30 13398 H 1282.46 -0.305852 2.93511 0
M  V30 13399 H 1282.54 1.30235 2.20165 0
M  V30 13400 H 1282.19 2.34614 4.50465 0
M  V30 13401 H 1282.12 0.714858 5.21725 0
M  V30 13402 H 1284.61 0.90991 3.66782 0
M  V30 13403 H 1284.92 2.46154 7.32549 0
M  V30 13404 H 1283.26 2.20714 6.59022 0
M  V30 13405 H 1286.46 1.20869 4.52226 0
M  V30 13406 H 1286.63 1.91602 6.19025 0
M  V30 13407 N 1280.03 -1.55556 0.252993 0
M  V30 13408 C 1280.97 -2.18978 -0.676837 0
M  V30 13409 C 1281.98 -1.16788 -1.13421 0
M  V30 13410 O 1283.17 -1.43623 -1.05993 0
M  V30 13411 C 1280.27 -2.78404 -1.93248 0
M  V30 13412 C 1279.44 -4.06072 -1.62555 0
M  V30 13413 C 1278.5 -4.49757 -2.7314 0
M  V30 13414 O 1277.53 -5.16005 -2.40266 0
M  V30 13415 N 1278.73 -4.18049 -4.0276 0
M  V30 13416 H 1281.49 -2.994 -0.134142 0
M  V30 13417 H 1279.05 -1.61734 0.0731965 0
M  V30 13418 H 1281.05 -3.04583 -2.6648 0
M  V30 13419 H 1279.62 -2.02104 -2.3848 0
M  V30 13420 H 1278.84 -3.87417 -0.728115 0
M  V30 13421 H 1280.12 -4.89297 -1.39521 0
M  V30 13422 H 1279.52 -3.64876 -4.32298 0
M  V30 13423 H 1278.08 -4.4905 -4.72438 0
M  V30 13424 N 1281.51 0.0200419 -1.57587 0
M  V30 13425 C 1282.46 1.0259 -2.03615 0
M  V30 13426 C 1283.45 1.31504 -0.927116 0
M  V30 13427 O 1284.64 1.30938 -1.19098 0
M  V30 13428 C 1281.77 2.32424 -2.52654 0
M  V30 13429 C 1280.85 2.06561 -3.70396 0
M  V30 13430 N 1281.24 1.50787 -4.82801 0
M  V30 13431 C 1279.54 2.36802 -3.77943 0
M  V30 13432 C 1280.24 1.40935 -5.64369 0
M  V30 13433 N 1279.22 1.88806 -5.09758 0
M  V30 13434 H 1283.02 0.588835 -2.87941 0
M  V30 13435 H 1280.54 0.226163 -1.60817 0
M  V30 13436 H 1282.53 3.05303 -2.83894 0
M  V30 13437 H 1281.19 2.76801 -1.69738 0
M  V30 13438 H 1282.2 1.18935 -5.04058 0
M  V30 13439 H 1278.88 2.84192 -3.05845 0
M  V30 13440 H 1280.27 0.982261 -6.64681 0
M  V30 13441 N 1282.99 1.54862 0.292472 0
M  V30 13442 C 1283.94 1.86403 1.36098 0
M  V30 13443 C 1284.91 0.713694 1.49985 0
M  V30 13444 O 1286.09 0.963134 1.64707 0
M  V30 13445 C 1283.23 2.1244 2.71962 0
M  V30 13446 C 1282.35 3.40038 2.66454 0
M  V30 13447 C 1281.48 3.55875 3.94368 0
M  V30 13448 C 1280.52 4.77235 3.83293 0
M  V30 13449 N 1279.66 4.89832 5.03 0
M  V30 13450 H 1284.5 2.77546 1.085 0
M  V30 13451 H 1282.03 1.37427 0.524607 0
M  V30 13452 H 1283.99 2.25533 3.50985 0
M  V30 13453 H 1282.62 1.24554 2.97802 0
M  V30 13454 H 1281.67 3.35521 1.79248 0
M  V30 13455 H 1282.99 4.29188 2.54163 0
M  V30 13456 H 1282.14 3.68679 4.8183 0
M  V30 13457 H 1280.88 2.64874 4.09503 0
M  V30 13458 H 1279.88 4.64455 2.94214 0
M  V30 13459 H 1281.11 5.69651 3.69695 0
M  V30 13460 H 1279.05 4.01756 5.18582 0
M  V30 13461 H 1278.97 5.72996 4.93165 0
M  V30 13462 H 1280.24 5.07001 5.92089 0
M  V30 13463 N 1284.47 -0.556076 1.47464 0
M  V30 13464 C 1285.71 -1.31515 1.54375 0
M  V30 13465 C 1286.05 -1.93106 0.205837 0
M  V30 13466 O 1285.32 -1.77927 -0.785643 0
M  V30 13467 C 1285.61 -2.4244 2.66261 0
M  V30 13468 C 1285.46 -1.8571 4.09673 0
M  V30 13469 C 1286.78 -3.4436 2.74051 0
M  V30 13470 H 1283.9 -0.476817 0.561974 0
M  V30 13471 H 1286.54 -0.622157 1.79525 0
M  V30 13472 H 1284.69 -3.01551 2.44948 0
M  V30 13473 H 1286.36 -1.30851 4.42353 0
M  V30 13474 H 1284.6 -1.16379 4.17898 0
M  V30 13475 H 1285.27 -2.65904 4.83735 0
M  V30 13476 H 1287.75 -2.95169 2.93282 0
M  V30 13477 H 1286.63 -4.194 3.54111 0
M  V30 13478 H 1286.89 -4.03281 1.81155 0
M  V30 13479 N 1285.95 -1.35615 -0.802897 0
M  V30 13480 C 1287.19 -1.30293 -1.5619 0
M  V30 13481 C 1287.55 0.120656 -1.92021 0
M  V30 13482 O 1286.84 1.07195 -1.58807 0
M  V30 13483 C 1287.04 -2.14653 -2.8576 0
M  V30 13484 C 1286.86 -3.65072 -2.62589 0
M  V30 13485 C 1285.63 -4.34294 -2.58295 0
M  V30 13486 C 1287.83 -4.58639 -2.32712 0
M  V30 13487 N 1285.81 -5.70437 -2.2688 0
M  V30 13488 C 1287.19 -5.82931 -2.11168 0
M  V30 13489 C 1289.24 -4.47343 -2.18606 0
M  V30 13490 C 1287.94 -6.97196 -1.76946 0
M  V30 13491 C 1289.97 -5.61462 -1.85781 0
M  V30 13492 C 1289.33 -6.84784 -1.65075 0
M  V30 13493 H 1285.43 -0.532038 -0.573114 0
M  V30 13494 H 1288.01 -1.70533 -0.939498 0
M  V30 13495 H 1286.19 -1.76679 -3.45889 0
M  V30 13496 H 1287.92 -2.00823 -3.51358 0
M  V30 13497 H 1284.67 -3.86947 -2.73073 0
M  V30 13498 H 1285.1 -6.42302 -2.13956 0
M  V30 13499 H 1289.74 -3.52599 -2.33311 0
M  V30 13500 H 1287.46 -7.91904 -1.60979 0
M  V30 13501 H 1291.04 -5.54677 -1.7557 0
M  V30 13502 H 1289.92 -7.71594 -1.40046 0
M  V30 13503 N 1287.43 1.02549 -1.19673 0
M  V30 13504 C 1288.84 1.28271 -0.94967 0
M  V30 13505 C 1289.04 1.97961 0.37599 0
M  V30 13506 O 1288.1 2.26955 1.10668 0
M  V30 13507 C 1289.41 2.12647 -2.12607 0
M  V30 13508 C 1290.96 2.25943 -2.16607 0
M  V30 13509 C 1291.43 3.13693 -3.33708 0
M  V30 13510 N 1292.92 3.21281 -3.33665 0
M  V30 13511 C 1293.66 3.89377 -4.20919 0
M  V30 13512 N 1293.16 4.59675 -5.18334 0
M  V30 13513 N 1294.95 3.85811 -4.08786 0
M  V30 13514 H 1287.1 0.557304 -2.04958 0
M  V30 13515 H 1289.36 0.308531 -0.896389 0
M  V30 13516 H 1289.07 1.68766 -3.08563 0
M  V30 13517 H 1288.94 3.13367 -2.09955 0
M  V30 13518 H 1291.33 2.69053 -1.2122 0
M  V30 13519 H 1291.41 1.24762 -2.23311 0
M  V30 13520 H 1291.05 2.7129 -4.29376 0
M  V30 13521 H 1290.98 4.14941 -3.2424 0
M  V30 13522 H 1293.48 2.71218 -2.63152 0
M  V30 13523 H 1293.79 5.09277 -5.81254 0
M  V30 13524 H 1292.13 4.58529 -5.22279 0
M  V30 13525 H 1295.32 3.30033 -3.31957 0
M  V30 13526 H 1295.5 4.38607 -4.76999 0
M  V30 13527 N 1288.9 1.00119 1.21713 0
M  V30 13528 C 1289.85 0.558388 2.23943 0
M  V30 13529 C 1290.82 -0.413576 1.60869 0
M  V30 13530 O 1292.01 -0.316478 1.88157 0
M  V30 13531 C 1289.15 -0.112618 3.44916 0
M  V30 13532 C 1288.26 0.902071 4.22477 0
M  V30 13533 C 1287.39 0.203722 5.30809 0
M  V30 13534 C 1286.43 1.20622 6.00097 0
M  V30 13535 N 1285.57 0.535607 7.00054 0
M  V30 13536 H 1290.41 1.43486 2.61182 0
M  V30 13537 H 1287.95 0.718572 1.28355 0
M  V30 13538 H 1289.9 -0.51865 4.13964 0
M  V30 13539 H 1288.53 -0.952827 3.08417 0
M  V30 13540 H 1287.59 1.42637 3.52645 0
M  V30 13541 H 1288.9 1.66513 4.70186 0
M  V30 13542 H 1288.05 -0.258614 6.06149 0
M  V30 13543 H 1286.79 -0.591773 4.84096 0
M  V30 13544 H 1285.8 1.6791 5.23532 0
M  V30 13545 H 1287.02 2.00273 6.48897 0
M  V30 13546 H 1284.97 -0.2403 6.5556 0
M  V30 13547 H 1284.88 1.23698 7.45812 0
M  V30 13548 H 1286.15 0.0963489 7.7944 0
M  V30 13549 N 1290.38 -1.37203 0.775435 0
M  V30 13550 C 1291.62 -2.01439 0.346649 0
M  V30 13551 C 1291.99 -1.60223 -1.05795 0
M  V30 13552 O 1293.19 -2.16947 -1.58706 0
M  V30 13553 C 1291.46 -3.54031 0.489584 0
M  V30 13554 S 1293.02 -4.38555 0.146606 0
M  V30 13555 H 1289.83 -0.698417 0.133173 0
M  V30 13556 H 1292.44 -1.67338 1.01086 0
M  V30 13557 H 1291.14 -3.81516 1.51241 0
M  V30 13558 H 1290.67 -3.92936 -0.19105 0
M  V30 13559 H 1292.69 -4.8482 -1.05661 0
M  V30 13560 N 1291.86 -0.526279 -1.48553 0
M  V30 13561 C 1293.28 -0.183886 -1.58537 0
M  V30 13562 C 1293.48 1.31272 -1.52872 0
M  V30 13563 O 1292.53 2.09069 -1.41585 0
M  V30 13564 C 1293.84 -0.78313 -2.90323 0
M  V30 13565 C 1295.39 -0.751527 -3.03844 0
M  V30 13566 C 1295.87 -1.32928 -4.38285 0
M  V30 13567 N 1297.36 -1.29109 -4.44843 0
M  V30 13568 C 1298.09 -1.70806 -5.47369 0
M  V30 13569 N 1297.59 -2.20215 -6.56869 0
M  V30 13570 N 1299.38 -1.62065 -5.3823 0
M  V30 13571 H 1291.53 -1.499 -1.50478 0
M  V30 13572 H 1293.8 -0.623294 -0.714289 0
M  V30 13573 H 1293.5 -1.83371 -3.00113 0
M  V30 13574 H 1293.38 -0.25808 -3.76316 0
M  V30 13575 H 1295.76 0.290282 -2.93669 0
M  V30 13576 H 1295.84 -1.314 -2.19471 0
M  V30 13577 H 1295.49 -2.37 -4.49214 0
M  V30 13578 H 1295.42 -0.742516 -5.21339 0
M  V30 13579 H 1297.91 -0.929348 -3.66294 0
M  V30 13580 H 1298.22 -2.50035 -7.31233 0
M  V30 13581 H 1296.57 -2.24206 -6.57842 0
M  V30 13582 H 1299.76 -1.23265 -4.51579 0
M  V30 13583 H 1299.93 -1.94883 -6.18001 0
M  V30 13584 N 1293.34 1.5542 -0.261239 0
M  V30 13585 C 1294.27 2.18043 0.673222 0
M  V30 13586 C 1295.25 1.13696 1.16242 0
M  V30 13587 O 1296.43 1.42153 1.23793 0
M  V30 13588 C 1293.56 2.7926 1.91655 0
M  V30 13589 C 1292.61 3.96788 1.56402 0
M  V30 13590 S 1293.44 5.31489 0.654191 0
M  V30 13591 C 1294.59 5.96167 1.9062 0
M  V30 13592 H 1294.83 2.96965 0.141076 0
M  V30 13593 H 1292.36 1.54333 -0.0455871 0
M  V30 13594 H 1294.32 3.15162 2.63026 0
M  V30 13595 H 1292.98 2.00257 2.41983 0
M  V30 13596 H 1292.17 4.38262 2.48882 0
M  V30 13597 H 1291.77 3.62237 0.930618 0
M  V30 13598 H 1294.07 6.14556 2.8518 0
M  V30 13599 H 1295.01 6.91269 1.53471 0
M  V30 13600 H 1295.42 5.25381 2.06483 0
M  V30 13601 N 1294.82 -0.0116844 1.57596 0
M  V30 13602 C 1296.23 -0.367602 1.55309 0
M  V30 13603 C 1296.43 -1.75524 0.98962 0
M  V30 13604 O 1295.49 -2.44813 0.618289 0
M  V30 13605 C 1296.8 -0.253532 2.99629 0
M  V30 13606 C 1298.35 -0.329335 3.11263 0
M  V30 13607 C 1298.82 -0.24452 4.57347 0
M  V30 13608 N 1300.31 -0.302782 4.62209 0
M  V30 13609 C 1301.05 -0.260315 5.72809 0
M  V30 13610 N 1300.55 -0.169124 6.92594 0
M  V30 13611 N 1302.34 -0.311323 5.61237 0
M  V30 13612 H 1294.49 0.896204 1.92567 0
M  V30 13613 H 1296.75 0.342445 0.883988 0
M  V30 13614 H 1296.46 0.70074 3.44648 0
M  V30 13615 H 1296.33 -1.04029 3.62571 0
M  V30 13616 H 1298.72 -1.27405 2.66181 0
M  V30 13617 H 1298.8 0.487084 2.5112 0
M  V30 13618 H 1298.44 0.696597 5.031 0
M  V30 13619 H 1298.37 -1.07927 5.15421 0
M  V30 13620 H 1300.87 -0.375067 3.76034 0
M  V30 13621 H 1301.18 -0.142296 7.72669 0
M  V30 13622 H 1299.52 -0.134919 6.94869 0
M  V30 13623 H 1302.71 -0.380678 4.6655 0
M  V30 13624 H 1302.89 -0.274761 6.47417 0
M  V30 13625 N 1296.29 -1.55015 -0.284256 0
M  V30 13626 C 1297.54 -1.74297 -1.01506 0
M  V30 13627 C 1297.86 -0.545134 -1.8785 0
M  V30 13628 O 1299.06 -0.620118 -2.64323 0
M  V30 13629 C 1297.52 -3.08438 -1.85456 0
M  V30 13630 C 1297.13 -4.35753 -1.04034 0
M  V30 13631 C 1298.87 -3.37073 -2.58035 0
M  V30 13632 C 1296.78 -5.60938 -1.87358 0
M  V30 13633 H 1295.71 -0.649656 -0.382705 0
M  V30 13634 H 1298.36 -1.81484 -0.271239 0
M  V30 13635 H 1296.74 -2.95259 -2.63891 0
M  V30 13636 H 1297.91 -4.59816 -0.300954 0
M  V30 13637 H 1296.23 -4.14178 -0.429616 0
M  V30 13638 H 1298.83 -4.27806 -3.20759 0
M  V30 13639 H 1299.17 -2.56698 -3.27738 0
M  V30 13640 H 1299.7 -3.51299 -1.86638 0
M  V30 13641 H 1296.44 -6.44029 -1.22096 0
M  V30 13642 H 1295.96 -5.41035 -2.58923 0
M  V30 13643 H 1297.64 -5.98819 -2.44999 0
M  V30 13644 N 1297.77 0.548248 -1.47757 0
M  V30 13645 C 1299.02 1.30501 -1.54841 0
M  V30 13646 C 1299.35 1.93314 -0.214476 0
M  V30 13647 O 1298.6 1.7889 0.793526 0
M  V30 13648 C 1298.9 2.42911 -2.62162 0
M  V30 13649 C 1298.57 1.97871 -4.05164 0
M  V30 13650 C 1297.23 1.85304 -4.4409 0
M  V30 13651 C 1299.58 1.63606 -4.94856 0
M  V30 13652 C 1296.91 1.36781 -5.70533 0
M  V30 13653 C 1299.26 1.16552 -6.2177 0
M  V30 13654 C 1297.92 1.02588 -6.5957 0
M  V30 13655 H 1297.19 0.477536 -0.566604 0
M  V30 13656 H 1299.84 0.613837 -1.81395 0
M  V30 13657 H 1298.15 3.17622 -2.29398 0
M  V30 13658 H 1299.84 3.01078 -2.64864 0
M  V30 13659 H 1296.43 2.08597 -3.74413 0
M  V30 13660 H 1300.62 1.72184 -4.65474 0
M  V30 13661 H 1295.87 1.24641 -5.9856 0
M  V30 13662 H 1300.05 0.891041 -6.90676 0
M  V30 13663 H 1297.67 0.647675 -7.57436 0
M  V30 13664 N 1299.25 1.36039 0.795694 0
M  V30 13665 C 1300.48 1.33059 1.58439 0
M  V30 13666 C 1300.89 -0.0895496 1.88588 0
M  V30 13667 O 1300.25 -1.04466 1.49643 0
M  V30 13668 C 1300.3 2.14594 2.90915 0
M  V30 13669 O 1300.02 3.51072 2.62069 0
M  V30 13670 C 1301.52 2.19324 3.85242 0
M  V30 13671 H 1298.74 0.456668 0.491625 0
M  V30 13672 H 1301.29 1.79048 0.988035 0
M  V30 13673 H 1299.44 1.72177 3.47036 0
M  V30 13674 H 1299.86 3.93545 3.46732 0
M  V30 13675 H 1301.33 2.80744 4.75276 0
M  V30 13676 H 1301.81 1.19496 4.22631 0
M  V30 13677 H 1302.41 2.6195 3.35056 0
M  V30 13678 N 1300.73 -1.01913 1.20215 0
M  V30 13679 C 1301.97 -1.7573 1.01226 0
M  V30 13680 C 1302.31 -1.88799 -0.45481 0
M  V30 13681 O 1301.58 -1.41196 -1.33768 0
M  V30 13682 C 1301.87 -3.17795 1.69348 0
M  V30 13683 C 1301.72 -3.12536 3.23483 0
M  V30 13684 C 1303.04 -4.16409 1.42448 0
M  V30 13685 H 1300.16 -0.637889 0.369144 0
M  V30 13686 H 1302.8 -1.18907 1.48193 0
M  V30 13687 H 1300.95 -3.66311 1.29416 0
M  V30 13688 H 1302.62 -2.71843 3.72692 0
M  V30 13689 H 1300.86 -2.49997 3.54519 0
M  V30 13690 H 1301.53 -4.12949 3.66302 0
M  V30 13691 H 1304.01 -3.76537 1.77086 0
M  V30 13692 H 1302.89 -5.13983 1.92648 0
M  V30 13693 H 1303.15 -4.407 0.351574 0
M  V30 13694 N 1302.21 -1.00763 -1.2118 0
M  V30 13695 C 1303.17 -0.575183 -2.21865 0
M  V30 13696 C 1304.17 0.349871 -1.56948 0
M  V30 13697 O 1305.36 0.139795 -1.73638 0
M  V30 13698 C 1302.49 0.161308 -3.40518 0
M  V30 13699 H 1303.68 -1.46578 -2.61639 0
M  V30 13700 H 1301.24 -0.79643 -1.34487 0
M  V30 13701 H 1301.97 1.06723 -3.06236 0
M  V30 13702 H 1301.76 -0.503101 -3.88859 0
M  V30 13703 H 1303.25 0.451527 -4.15152 0
M  V30 13704 N 1303.68 1.3679 -0.7827 0
M  V30 13705 C 1304.62 2.28805 -0.13451 0
M  V30 13706 C 1305.63 1.49159 0.652338 0
M  V30 13707 O 1306.82 1.71682 0.488626 0
M  V30 13708 C 1303.92 3.28508 0.832802 0
M  V30 13709 C 1303.09 4.37291 0.0974435 0
M  V30 13710 C 1302.15 5.16999 0.979715 0
M  V30 13711 O 1301.18 5.67501 0.439439 0
M  V30 13712 N 1302.38 5.32786 2.30477 0
M  V30 13713 H 1305.14 2.85072 -0.924873 0
M  V30 13714 H 1302.7 1.48884 -0.636012 0
M  V30 13715 H 1304.7 3.78718 1.42671 0
M  V30 13716 H 1303.27 2.7293 1.52408 0
M  V30 13717 H 1302.49 3.88335 -0.677483 0
M  V30 13718 H 1303.77 5.07143 -0.410259 0
M  V30 13719 H 1303.17 4.93358 2.76793 0
M  V30 13720 H 1301.73 5.86264 2.84848 0
M  V30 13721 N 1305.16 0.53415 1.48272 0
M  V30 13722 C 1306.1 -0.273689 2.26553 0
M  V30 13723 C 1307.07 -0.941085 1.32598 0
M  V30 13724 O 1308.26 -0.964653 1.61947 0
M  V30 13725 C 1305.38 -1.38796 3.08955 0
M  V30 13726 C 1304.43 -0.831533 4.18315 0
M  V30 13727 S 1305.26 0.303875 5.34637 0
M  V30 13728 C 1306.42 -0.812767 6.206 0
M  V30 13729 H 1306.65 0.390639 2.94722 0
M  V30 13730 H 1304.19 0.320014 1.51047 0
M  V30 13731 H 1306.14 -2.02622 3.57008 0
M  V30 13732 H 1304.8 -2.02402 2.40192 0
M  V30 13733 H 1304 -1.66758 4.75613 0
M  V30 13734 H 1303.6 -0.269881 3.73025 0
M  V30 13735 H 1305.89 -1.71043 6.55554 0
M  V30 13736 H 1306.83 -0.27767 7.07555 0
M  V30 13737 H 1307.24 -1.09505 5.53777 0
M  V30 13738 N 1306.64 -1.55279 0.269478 0
M  V30 13739 C 1307.92 -1.91458 -0.400412 0
M  V30 13740 C 1308.3 -1.19306 -1.74153 0
M  V30 13741 O 1307.65 -0.318017 -2.26276 0
M  V30 13742 C 1307.86 -3.44698 -0.546258 0
M  V30 13743 C 1309.2 -4.16374 -0.831758 0
M  V30 13744 O 1310.23 -3.50561 -0.631279 0
M  V30 13745 O 1309.09 -5.32826 -1.21484 0
M  V30 13746 H 1306.18 -0.79766 -0.218328 0
M  V30 13747 H 1308.73 -1.66747 0.315214 0
M  V30 13748 H 1307.5 -3.89273 0.397784 0
M  V30 13749 H 1307.12 -3.75345 -1.31157 0
M  V30 13750 N 1308.12 0.00332656 -1.576 0
M  V30 13751 C 1309.4 0.725722 -1.81639 0
M  V30 13752 C 1309.78 1.92173 -0.87365 0
M  V30 13753 O 1309.12 2.28365 0.0783931 0
M  V30 13754 C 1309.33 1.13458 -3.30043 0
M  V30 13755 C 1310.68 1.53982 -3.95695 0
M  V30 13756 O 1311.71 1.22846 -3.34346 0
M  V30 13757 O 1310.56 2.11866 -5.03761 0
M  V30 13758 H 1307.66 0.353083 -0.747838 0
M  V30 13759 H 1310.2 -0.0218724 -1.69686 0
M  V30 13760 H 1308.98 0.281925 -3.90283 0
M  V30 13761 H 1308.6 1.94138 -3.46982 0
M  V30 13762 N 1309.6 1.55164 0.276031 0
M  V30 13763 C 1310.54 1.88623 1.36104 0
M  V30 13764 C 1311.54 0.762265 1.51281 0
M  V30 13765 O 1312.74 0.946573 1.53101 0
M  V30 13766 H 1309.12 0.59863 0.455133 0
M  V30 13767 H 1311.09 2.79266 1.05134 0
M  V30 13768 C 1309.84 2.17207 2.71508 0
M  V30 13769 H 1309.16 3.03179 2.6062 0
M  V30 13770 H 1310.6 2.44541 3.46375 0
M  V30 13771 C 1309.06 0.978671 3.22372 0
M  V30 13772 O 1309.59 0.211766 4.01141 0
M  V30 13773 N 1307.8 0.777199 2.80014 0
M  V30 13774 H 1307.34 1.40252 2.16072 0
M  V30 13775 H 1307.3 -0.0196754 3.14394 0
M  V30 13776 N 1311.07 -0.540404 1.48045 0
M  V30 13777 C 1312.3 -1.32656 1.59427 0
M  V30 13778 C 1312.72 -1.86419 0.250924 0
M  V30 13779 O 1312.08 -1.63861 -0.775838 0
M  V30 13780 C 1312.13 -2.46062 2.63602 0
M  V30 13781 O 1311.23 -3.48794 2.20038 0
M  V30 13782 H 1310.58 -0.393334 0.534962 0
M  V30 13783 H 1313.11 -0.651363 1.93955 0
M  V30 13784 H 1313.12 -2.92396 2.84549 0
M  V30 13785 H 1311.79 -2.06291 3.61133 0
M  V30 13786 H 1310.37 -3.0865 2.0926 0
M  V30 13787 N 1312.55 -1.36459 -0.788468 0
M  V30 13788 C 1313.8 -1.3007 -1.54158 0
M  V30 13789 C 1314.11 0.117574 -1.95246 0
M  V30 13790 O 1315.32 0.303837 -2.69795 0
M  V30 13791 C 1313.78 -2.28216 -2.78291 0
M  V30 13792 C 1313.38 -3.75484 -2.44368 0
M  V30 13793 C 1315.13 -2.30806 -3.56271 0
M  V30 13794 C 1313.04 -4.65404 -3.64902 0
M  V30 13795 H 1311.97 -0.483345 -0.5787 0
M  V30 13796 H 1314.62 -1.61827 -0.865123 0
M  V30 13797 H 1313 -1.89454 -3.4774 0
M  V30 13798 H 1314.17 -4.22986 -1.82809 0
M  V30 13799 H 1312.49 -3.75678 -1.79597 0
M  V30 13800 H 1315.08 -2.95196 -4.45829 0
M  V30 13801 H 1315.43 -1.31687 -3.94923 0
M  V30 13802 H 1315.96 -2.68189 -2.93802 0
M  V30 13803 H 1312.7 -5.65589 -3.31344 0
M  V30 13804 H 1312.22 -4.22617 -4.25623 0
M  V30 13805 H 1313.9 -4.81721 -4.31919 0
M  V30 13806 N 1314.03 1.01274 -1.20754 0
M  V30 13807 C 1314.96 2.10029 -0.917628 0
M  V30 13808 C 1315.98 1.62516 0.0961411 0
M  V30 13809 O 1317.16 1.77986 -0.135371 0
M  V30 13810 C 1314.26 3.37037 -0.354891 0
M  V30 13811 C 1313.44 4.1367 -1.42113 0
M  V30 13812 C 1312.5 5.18974 -0.869023 0
M  V30 13813 O 1311.52 5.47671 -1.55063 0
M  V30 13814 N 1312.72 5.79619 0.319631 0
M  V30 13815 H 1315.49 2.35485 -1.85383 0
M  V30 13816 H 1313.05 1.17695 -1.11173 0
M  V30 13817 H 1315.04 4.0469 0.0286895 0
M  V30 13818 H 1313.61 3.088 0.485956 0
M  V30 13819 H 1312.83 3.40931 -1.97889 0
M  V30 13820 H 1314.12 4.61649 -2.13911 0
M  V30 13821 H 1313.52 5.58646 0.89059 0
M  V30 13822 H 1312.08 6.48603 0.644807 0
M  V30 13823 N 1315.51 1.01404 1.20644 0
M  V30 13824 C 1316.44 0.526835 2.22035 0
M  V30 13825 C 1317.42 -0.424347 1.56965 0
M  V30 13826 O 1318.6 -0.344947 1.85317 0
M  V30 13827 C 1315.73 -0.233628 3.37893 0
M  V30 13828 C 1314.78 0.666719 4.21257 0
M  V30 13829 S 1315.61 2.13439 4.91125 0
M  V30 13830 C 1316.77 1.38402 6.10406 0
M  V30 13831 H 1317 1.38595 2.63018 0
M  V30 13832 H 1314.53 0.822723 1.30655 0
M  V30 13833 H 1316.49 -0.666289 4.05057 0
M  V30 13834 H 1315.15 -1.06828 2.95375 0
M  V30 13835 H 1314.34 0.0804713 5.03936 0
M  V30 13836 H 1313.95 1.03705 3.59335 0
M  V30 13837 H 1316.24 0.662667 6.74251 0
M  V30 13838 H 1317.18 2.18686 6.73485 0
M  V30 13839 H 1317.59 0.888021 5.57471 0
M  V30 13840 N 1316.99 -1.36373 0.789944 0
M  V30 13841 C 1317.93 -2.30043 0.186798 0
M  V30 13842 C 1318.9 -1.52002 -0.669663 0
M  V30 13843 O 1320.09 -1.80506 -0.618232 0
M  V30 13844 C 1317.23 -3.38494 -0.671994 0
M  V30 13845 C 1316.34 -4.31522 0.203067 0
M  V30 13846 C 1315.48 -5.27057 -0.662148 0
M  V30 13847 C 1314.52 -6.11725 0.214335 0
M  V30 13848 N 1313.65 -6.99446 -0.609892 0
M  V30 13849 H 1318.49 -2.81038 0.991048 0
M  V30 13850 H 1316.03 -1.38331 0.500288 0
M  V30 13851 H 1317.99 -4.0002 -1.1849 0
M  V30 13852 H 1316.62 -2.88818 -1.44167 0
M  V30 13853 H 1315.67 -3.71146 0.833945 0
M  V30 13854 H 1316.98 -4.91005 0.878389 0
M  V30 13855 H 1316.14 -5.93875 -1.24084 0
M  V30 13856 H 1314.88 -4.6803 -1.37109 0
M  V30 13857 H 1313.88 -5.43868 0.805426 0
M  V30 13858 H 1315.11 -6.72827 0.92089 0
M  V30 13859 H 1313.05 -6.42927 -1.30312 0
M  V30 13860 H 1312.97 -7.56 0.00773786 0
M  V30 13861 H 1314.24 -7.70633 -1.1724 0
M  V30 13862 N 1318.47 -0.542005 -1.47987 0
M  V30 13863 C 1319.41 0.214151 -2.29804 0
M  V30 13864 C 1320.38 0.922625 -1.38119 0
M  V30 13865 O 1321.57 0.921301 -1.67083 0
M  V30 13866 C 1318.71 1.24768 -3.21756 0
M  V30 13867 C 1317.82 0.546824 -4.28525 0
M  V30 13868 C 1316.96 1.56432 -5.07644 0
M  V30 13869 C 1315.99 0.847598 -6.06203 0
M  V30 13870 N 1315.13 1.81121 -6.78336 0
M  V30 13871 H 1319.97 -0.489707 -2.93949 0
M  V30 13872 H 1317.51 -0.253331 -1.44902 0
M  V30 13873 H 1319.47 1.85933 -3.73477 0
M  V30 13874 H 1318.1 1.91976 -2.59509 0
M  V30 13875 H 1317.15 -0.179026 -3.79978 0
M  V30 13876 H 1318.46 -0.0153623 -4.98798 0
M  V30 13877 H 1317.61 2.24992 -5.63439 0
M  V30 13878 H 1316.35 2.16041 -4.37238 0
M  V30 13879 H 1315.36 0.147989 -5.49601 0
M  V30 13880 H 1316.58 0.257454 -6.78612 0
M  V30 13881 H 1314.53 2.39615 -6.10672 0
M  V30 13882 H 1314.45 1.30077 -7.44725 0
M  V30 13883 H 1315.71 2.48842 -7.38714 0
M  V30 13884 N 1319.94 1.55134 -0.277709 0
M  V30 13885 C 1321.22 1.91667 0.390253 0
M  V30 13886 C 1321.6 1.20228 1.73518 0
M  V30 13887 O 1320.95 0.330013 2.26104 0
M  V30 13888 C 1321.16 3.44983 0.52797 0
M  V30 13889 C 1322.51 4.16809 0.809665 0
M  V30 13890 O 1323.53 3.50891 0.612679 0
M  V30 13891 O 1322.39 5.33463 1.18656 0
M  V30 13892 H 1319.48 0.798807 0.214095 0
M  V30 13893 H 1322.03 1.66577 -0.324053 0
M  V30 13894 H 1320.8 3.89056 -0.418422 0
M  V30 13895 H 1320.42 3.76035 1.29164 0
M  V30 13896 N 1321.42 0.00503138 1.57599 0
M  V30 13897 C 1322.35 -0.983586 2.11773 0
M  V30 13898 C 1323.33 -1.35518 1.02805 0
M  V30 13899 O 1324.52 -1.43804 1.30514 0
M  V30 13900 C 1321.65 -2.27383 2.62515 0
M  V30 13901 C 1320.6 -2.0437 3.76054 0
M  V30 13902 C 1319.93 -3.39451 4.1313 0
M  V30 13903 C 1321.23 -1.40223 5.03125 0
M  V30 13904 H 1322.92 -0.532501 2.94627 0
M  V30 13905 H 1320.47 -0.254696 1.4173 0
M  V30 13906 H 1322.42 -2.96903 2.99043 0
M  V30 13907 H 1321.14 -2.74614 1.7679 0
M  V30 13908 H 1319.8 -1.37275 3.39928 0
M  V30 13909 H 1319.45 -3.84395 3.24422 0
M  V30 13910 H 1319.15 -3.24868 4.89627 0
M  V30 13911 H 1320.68 -4.10279 4.52221 0
M  V30 13912 H 1322.09 -1.99708 5.37392 0
M  V30 13913 H 1320.49 -1.36112 5.8446 0
M  V30 13914 H 1321.56 -0.372073 4.8347 0
M  V30 13915 N 1322.9 -1.55308 -0.267798 0
M  V30 13916 C 1323.86 -1.87765 -1.31442 0
M  V30 13917 C 1324.86 -0.752571 -1.42102 0
M  V30 13918 O 1326.05 -1.02072 -1.41163 0
M  V30 13919 C 1323.18 -2.08754 -2.69508 0
M  V30 13920 H 1324.38 -2.8133 -1.03891 0
M  V30 13921 H 1321.93 -1.47879 -0.506111 0
M  V30 13922 H 1322.67 -1.17588 -3.02231 0
M  V30 13923 H 1322.45 -2.90674 -2.63156 0
M  V30 13924 H 1323.94 -2.3512 -3.4512 0
M  V30 13925 N 1324.38 0.532545 -1.4833 0
M  V30 13926 C 1325.62 1.29042 -1.56448 0
M  V30 13927 C 1325.96 1.92754 -0.236532 0
M  V30 13928 O 1325.23 1.79154 0.757237 0
M  V30 13929 C 1325.51 2.38173 -2.70084 0
M  V30 13930 C 1325.37 1.79169 -4.12576 0
M  V30 13931 C 1326.69 3.39957 -2.79495 0
M  V30 13932 H 1323.81 0.467816 -0.569488 0
M  V30 13933 H 1326.45 0.593517 -1.80492 0
M  V30 13934 H 1324.6 2.97616 -2.49714 0
M  V30 13935 H 1326.27 1.23797 -4.44378 0
M  V30 13936 H 1324.51 1.09716 -4.19696 0
M  V30 13937 H 1325.18 2.58174 -4.87904 0
M  V30 13938 H 1327.66 2.90466 -2.97941 0
M  V30 13939 H 1326.54 4.13714 -3.60739 0
M  V30 13940 H 1326.8 4.00347 -1.87548 0
M  V30 13941 N 1325.86 1.36875 0.78122 0
M  V30 13942 C 1327.1 1.31559 1.53943 0
M  V30 13943 C 1327.43 -0.10273 1.94229 0
M  V30 13944 O 1326.69 -1.07386 1.63605 0
M  V30 13945 C 1326.98 2.19173 2.82309 0
M  V30 13946 C 1326.65 3.67595 2.61121 0
M  V30 13947 C 1325.31 4.08047 2.55051 0
M  V30 13948 C 1327.66 4.61665 2.41898 0
M  V30 13949 C 1324.99 5.40697 2.27736 0
M  V30 13950 C 1327.34 5.94542 2.16108 0
M  V30 13951 C 1326.01 6.34109 2.08476 0
M  V30 13952 H 1325.28 0.48141 0.563317 0
M  V30 13953 H 1327.93 1.68999 0.900638 0
M  V30 13954 H 1326.23 1.74696 3.50697 0
M  V30 13955 H 1327.93 2.12379 3.40141 0
M  V30 13956 H 1324.52 3.35509 2.66705 0
M  V30 13957 H 1328.7 4.3128 2.45584 0
M  V30 13958 H 1323.96 5.70325 2.20315 0
M  V30 13959 H 1328.13 6.66994 2.0023 0
M  V30 13960 H 1325.76 7.36823 1.87073 0
M  V30 13961 N 1327.33 -1.00632 1.21289 0
M  V30 13962 C 1328.26 -2.11238 0.995021 0
M  V30 13963 C 1329.24 -1.69914 -0.0795537 0
M  V30 13964 O 1330.43 -1.94035 0.0800152 0
M  V30 13965 C 1327.56 -3.42797 0.557475 0
M  V30 13966 C 1326.51 -3.97909 1.57646 0
M  V30 13967 C 1325.84 -5.25357 0.995197 0
M  V30 13968 C 1327.14 -4.30123 2.96297 0
M  V30 13969 H 1328.83 -2.29722 1.9201 0
M  V30 13970 H 1326.38 -1.10395 0.924602 0
M  V30 13971 H 1328.33 -4.19571 0.392236 0
M  V30 13972 H 1327.06 -3.24101 -0.403253 0
M  V30 13973 H 1325.72 -3.23254 1.72924 0
M  V30 13974 H 1325.36 -5.02993 0.026227 0
M  V30 13975 H 1325.06 -5.63196 1.67583 0
M  V30 13976 H 1326.59 -6.04777 0.841251 0
M  V30 13977 H 1328 -4.97744 2.8447 0
M  V30 13978 H 1326.4 -4.79101 3.61361 0
M  V30 13979 H 1327.47 -3.38454 3.47242 0
M  V30 13980 N 1328.81 -1.02043 -1.20104 0
M  V30 13981 C 1330.04 -0.730255 -1.93264 0
M  V30 13982 C 1330.45 0.71359 -1.75227 0
M  V30 13983 O 1329.79 1.49609 -1.06597 0
M  V30 13984 C 1329.85 -0.990978 -3.45572 0
M  V30 13985 C 1329.52 -2.4247 -3.87373 0
M  V30 13986 C 1330.52 -3.40569 -3.92822 0
M  V30 13987 C 1328.2 -2.76645 -4.19253 0
M  V30 13988 C 1330.19 -4.70904 -4.29568 0
M  V30 13989 C 1327.88 -4.07192 -4.55673 0
M  V30 13990 C 1328.88 -5.04132 -4.60804 0
M  V30 13991 O 1328.57 -6.32341 -4.96386 0
M  V30 13992 H 1328.3 -0.267146 -0.620974 0
M  V30 13993 H 1330.85 -1.36557 -1.53432 0
M  V30 13994 H 1329.08 -0.298508 -3.85546 0
M  V30 13995 H 1330.77 -0.691793 -3.99961 0
M  V30 13996 H 1331.54 -3.15503 -3.68352 0
M  V30 13997 H 1327.42 -2.01876 -4.14448 0
M  V30 13998 H 1330.96 -5.46566 -4.33487 0
M  V30 13999 H 1326.86 -4.32035 -4.796 0
M  V30 14000 H 1327.63 -6.36687 -5.14365 0
M  V30 14001 N 1330.29 1.35952 -0.797165 0
M  V30 14002 C 1331.24 2.27336 -0.173856 0
M  V30 14003 C 1332.22 1.47328 0.646778 0
M  V30 14004 O 1333.42 1.69626 0.505581 0
M  V30 14005 C 1330.55 3.36411 0.684297 0
M  V30 14006 C 1329.63 4.2385 -0.145551 0
M  V30 14007 N 1330.02 4.91263 -1.20391 0
M  V30 14008 C 1328.32 4.45938 0.074359 0
M  V30 14009 C 1329.02 5.56006 -1.70974 0
M  V30 14010 N 1328 5.33989 -1.0177 0
M  V30 14011 H 1331.8 2.76945 -0.983794 0
M  V30 14012 H 1329.31 1.49369 -0.637388 0
M  V30 14013 H 1331.31 4.00817 1.14681 0
M  V30 14014 H 1329.97 2.88355 1.49269 0
M  V30 14015 H 1330.98 4.93004 -1.58644 0
M  V30 14016 H 1327.66 4.08701 0.852644 0
M  V30 14017 H 1329.05 6.19818 -2.59375 0
M  V30 14018 N 1331.77 0.549846 1.47697 0
M  V30 14019 C 1332.7 -0.190364 2.32723 0
M  V30 14020 C 1333.68 -0.915933 1.43334 0
M  V30 14021 O 1334.86 -0.897838 1.72199 0
M  V30 14022 C 1331.99 -1.22545 3.24961 0
M  V30 14023 C 1330.95 -0.616805 4.23532 0
M  V30 14024 C 1330.27 -1.75599 5.05044 0
M  V30 14025 C 1331.57 0.424595 5.20571 0
M  V30 14026 H 1333.27 0.519461 2.94859 0
M  V30 14027 H 1330.81 0.251259 1.41791 0
M  V30 14028 H 1332.77 -1.75139 3.83281 0
M  V30 14029 H 1331.49 -1.96512 2.60865 0
M  V30 14030 H 1330.15 -0.112224 3.66428 0
M  V30 14031 H 1329.8 -2.48453 4.37356 0
M  V30 14032 H 1329.5 -1.35456 5.71774 0
M  V30 14033 H 1331.02 -2.28533 5.6622 0
M  V30 14034 H 1332.44 -0.0150025 5.73298 0
M  V30 14035 H 1330.83 0.7445 5.95464 0
M  V30 14036 H 1331.9 1.32318 4.66497 0
M  V30 14037 N 1333.25 -1.54984 0.285932 0
M  V30 14038 C 1334.66 -1.59455 -0.0679061 0
M  V30 14039 C 1334.86 -1.30308 -1.53695 0
M  V30 14040 O 1333.92 -1.06918 -2.28746 0
M  V30 14041 C 1335.23 -2.9903 0.316469 0
M  V30 14042 C 1336.78 -3.11885 0.263982 0
M  V30 14043 C 1337.25 -4.53744 0.622956 0
M  V30 14044 N 1338.75 -4.59618 0.574917 0
M  V30 14045 C 1339.48 -5.67429 0.825339 0
M  V30 14046 N 1338.98 -6.83341 1.14094 0
M  V30 14047 N 1340.77 -5.57028 0.75341 0
M  V30 14048 H 1332.92 -1.72194 1.2435 0
M  V30 14049 H 1335.18 -0.80348 0.503114 0
M  V30 14050 H 1334.89 -3.25232 1.33855 0
M  V30 14051 H 1334.76 -3.75688 -0.337371 0
M  V30 14052 H 1337.15 -2.85441 -0.748832 0
M  V30 14053 H 1337.23 -2.37416 0.952233 0
M  V30 14054 H 1336.88 -4.80915 1.63351 0
M  V30 14055 H 1336.81 -5.26528 -0.0872039 0
M  V30 14056 H 1339.3 -3.76356 0.341305 0
M  V30 14057 H 1339.61 -7.61471 1.3184 0
M  V30 14058 H 1337.95 -6.8493 1.17883 0
M  V30 14059 H 1341.15 -4.6535 0.506611 0
M  V30 14060 H 1341.32 -6.4097 0.95195 0
M  V30 14061 N 1334.72 -0.0133892 -1.57594 0
M  V30 14062 C 1335.65 0.972341 -2.12292 0
M  V30 14063 C 1336.64 1.34971 -1.03522 0
M  V30 14064 O 1337.82 1.4311 -1.31275 0
M  V30 14065 C 1334.95 2.25988 -2.63717 0
M  V30 14066 C 1333.9 2.02373 -3.77133 0
M  V30 14067 C 1333.23 3.37256 -4.14925 0
M  V30 14068 C 1334.53 1.37553 -5.03861 0
M  V30 14069 H 1336.22 0.516869 -2.94905 0
M  V30 14070 H 1333.77 0.247176 -1.41863 0
M  V30 14071 H 1335.72 2.95313 -3.00613 0
M  V30 14072 H 1334.45 2.73672 -1.78244 0
M  V30 14073 H 1333.11 1.3547 -3.40651 0
M  V30 14074 H 1332.75 3.82669 -3.26456 0
M  V30 14075 H 1332.45 3.22267 -4.91343 0
M  V30 14076 H 1333.98 4.07875 -4.5439 0
M  V30 14077 H 1335.39 1.96855 -5.38443 0
M  V30 14078 H 1333.79 1.33011 -5.85174 0
M  V30 14079 H 1334.86 0.346429 -4.83661 0
M  V30 14080 N 1336.2 1.55448 0.259558 0
M  V30 14081 C 1337.11 1.92364 1.34289 0
M  V30 14082 C 1338.13 0.822492 1.53333 0
M  V30 14083 O 1339.3 1.12277 1.672 0
M  V30 14084 C 1336.37 2.19978 2.67975 0
M  V30 14085 C 1335.43 3.43454 2.57562 0
M  V30 14086 C 1334.66 3.69741 3.84873 0
M  V30 14087 O 1334.89 2.9831 4.86176 0
M  V30 14088 O 1333.82 4.63274 3.84267 0
M  V30 14089 H 1337.65 2.8461 1.05975 0
M  V30 14090 H 1335.23 1.42167 0.459239 0
M  V30 14091 H 1337.11 2.39104 3.46998 0
M  V30 14092 H 1335.79 1.30912 2.96047 0
M  V30 14093 H 1334.7 3.29649 1.76869 0
M  V30 14094 H 1336.03 4.32782 2.34437 0
M  V30 14095 N 1337.68 -0.524672 1.4861 0
M  V30 14096 C 1338.64 -1.61092 1.63039 0
M  V30 14097 C 1339.64 -1.52718 0.503387 0
M  V30 14098 O 1340.83 -1.56293 0.769304 0
M  V30 14099 C 1337.97 -3.00722 1.60558 0
M  V30 14100 H 1339.16 -1.49636 2.59902 0
M  V30 14101 H 1336.71 -0.747135 1.37287 0
M  V30 14102 H 1337.45 -3.1768 0.651926 0
M  V30 14103 H 1337.23 -3.0821 2.42382 0
M  V30 14104 H 1338.72 -3.79688 1.73859 0
M  V30 14105 N 1339.16 -1.37287 -0.77395 0
M  V30 14106 C 1340.07 -1.35059 -1.91823 0
M  V30 14107 C 1341.08 -0.250489 -1.72188 0
M  V30 14108 O 1342.26 -0.485501 -1.95461 0
M  V30 14109 C 1339.33 -1.15444 -3.26915 0
M  V30 14110 C 1338.39 -2.35073 -3.5922 0
M  V30 14111 C 1337.62 -2.16384 -4.87867 0
M  V30 14112 O 1337.84 -1.14696 -5.58749 0
M  V30 14113 O 1336.78 -3.0452 -5.19183 0
M  V30 14114 H 1340.6 -2.31432 -1.96654 0
M  V30 14115 H 1338.19 -1.17994 -0.916392 0
M  V30 14116 H 1340.07 -1.06484 -4.07724 0
M  V30 14117 H 1338.74 -0.221435 -3.22942 0
M  V30 14118 H 1337.65 -2.49604 -2.78655 0
M  V30 14119 H 1338.98 -3.26933 -3.67934 0
M  V30 14120 N 1340.64 0.999871 -1.21821 0
M  V30 14121 C 1341.88 1.74098 -1.04009 0
M  V30 14122 C 1342.22 1.89499 0.424716 0
M  V30 14123 O 1341.49 1.43306 1.31505 0
M  V30 14124 C 1341.77 3.1506 -1.74382 0
M  V30 14125 C 1341.63 3.0735 -3.28414 0
M  V30 14126 C 1342.95 4.1409 -1.49055 0
M  V30 14127 H 1340.06 0.631935 -0.379245 0
M  V30 14128 H 1342.71 1.16534 -1.50066 0
M  V30 14129 H 1340.86 3.64206 -1.35227 0
M  V30 14130 H 1342.53 2.65879 -3.76969 0
M  V30 14131 H 1340.77 2.44325 -3.58452 0
M  V30 14132 H 1341.44 4.07069 -3.72825 0
M  V30 14133 H 1343.92 3.73672 -1.83054 0
M  V30 14134 H 1342.79 5.10853 -2.008 0
M  V30 14135 H 1343.06 4.40085 -0.421641 0
M  V30 14136 N 1342.11 1.02678 1.19562 0
M  V30 14137 C 1343.02 0.615738 2.26375 0
M  V30 14138 C 1344.04 -0.351525 1.70412 0
M  V30 14139 O 1345.22 -0.209932 2.00303 0
M  V30 14140 C 1342.28 -0.0292135 3.46688 0
M  V30 14141 C 1341.34 0.985284 4.1784 0
M  V30 14142 C 1340.58 0.371016 5.32409 0
M  V30 14143 O 1340.8 -0.826591 5.64379 0
M  V30 14144 O 1339.73 1.09282 5.91896 0
M  V30 14145 H 1343.56 1.50526 2.63772 0
M  V30 14146 H 1341.14 0.796847 1.26375 0
M  V30 14147 H 1343.03 -0.38893 4.19601 0
M  V30 14148 H 1341.7 -0.892778 3.11145 0
M  V30 14149 H 1340.61 1.39655 3.47055 0
M  V30 14150 H 1341.94 1.81915 4.57349 0
M  V30 14151 N 1343.59 -1.35528 0.804364 0
M  V30 14152 C 1344.84 -1.99126 0.384261 0
M  V30 14153 C 1345.17 -1.63668 -1.0453 0
M  V30 14154 O 1344.45 -0.898896 -1.72482 0
M  V30 14155 C 1344.73 -3.55636 0.565278 0
M  V30 14156 C 1344.58 -4.00899 2.03961 0
M  V30 14157 C 1345.9 -4.40099 -0.0104301 0
M  V30 14158 H 1343.02 -0.723369 0.141092 0
M  V30 14159 H 1345.66 -1.60712 1.01348 0
M  V30 14160 H 1343.81 -3.88489 0.0296425 0
M  V30 14161 H 1345.48 -3.78465 2.63746 0
M  V30 14162 H 1343.73 -3.5189 2.53685 0
M  V30 14163 H 1344.4 -5.09785 2.11716 0
M  V30 14164 H 1346.87 -4.13692 0.446985 0
M  V30 14165 H 1345.75 -5.48705 0.146155 0
M  V30 14166 H 1346.01 -4.28096 -1.10392 0
M  V30 14167 N 1345.07 -0.557671 -1.47404 0
M  V30 14168 C 1346.32 -0.0338384 -2.02772 0
M  V30 14169 C 1346.65 1.31278 -1.43107 0
M  V30 14170 O 1345.93 1.85436 -0.58682 0
M  V30 14171 C 1346.21 0.0587427 -3.60052 0
M  V30 14172 C 1346.06 -1.315 -4.30148 0
M  V30 14173 C 1347.38 0.771942 -4.33277 0
M  V30 14174 H 1344.5 -0.0137711 -0.736871 0
M  V30 14175 H 1347.14 -0.720049 -1.75827 0
M  V30 14176 H 1345.29 0.643154 -3.83139 0
M  V30 14177 H 1346.96 -1.94265 -4.184 0
M  V30 14178 H 1345.21 -1.88956 -3.90484 0
M  V30 14179 H 1345.88 -1.20294 -5.38733 0
M  V30 14180 H 1348.35 0.275729 -4.15185 0
M  V30 14181 H 1347.23 0.805683 -5.42955 0
M  V30 14182 H 1347.49 1.82816 -4.0253 0
M  V30 14183 N 1346.55 1.54831 -0.294147 0
M  V30 14184 C 1347.46 2.26939 0.594621 0
M  V30 14185 C 1348.48 1.30209 1.15419 0
M  V30 14186 O 1349.65 1.6318 1.18044 0
M  V30 14187 C 1346.72 2.9909 1.75345 0
M  V30 14188 C 1345.78 4.11342 1.22865 0
M  V30 14189 C 1345.01 4.80043 2.33225 0
M  V30 14190 O 1345.23 4.48062 3.52983 0
M  V30 14191 O 1344.17 5.67593 2.00304 0
M  V30 14192 H 1347.99 3.03698 0.00989235 0
M  V30 14193 H 1345.58 1.49276 -0.0608528 0
M  V30 14194 H 1347.46 3.44369 2.42875 0
M  V30 14195 H 1346.14 2.25232 2.32492 0
M  V30 14196 H 1345.04 3.70478 0.519279 0
M  V30 14197 H 1346.38 4.87158 0.702703 0
M  V30 14198 N 1348.03 0.0217466 1.57585 0
M  V30 14199 C 1348.96 -0.997112 2.05263 0
M  V30 14200 C 1349.94 -1.32186 0.946873 0
M  V30 14201 O 1351.12 -1.43979 1.21665 0
M  V30 14202 C 1348.25 -2.3191 2.46851 0
M  V30 14203 C 1347.3 -2.14948 3.68375 0
M  V30 14204 S 1348.13 -1.45517 5.15349 0
M  V30 14205 C 1349.28 -2.79101 5.60226 0
M  V30 14206 H 1349.52 -0.591229 2.91362 0
M  V30 14207 H 1347.05 -0.189741 1.5323 0
M  V30 14208 H 1349.01 -3.07913 2.71477 0
M  V30 14209 H 1347.67 -2.69633 1.61112 0
M  V30 14210 H 1346.86 -3.12661 3.95296 0
M  V30 14211 H 1346.46 -1.47088 3.43862 0
M  V30 14212 H 1348.76 -3.75357 5.64015 0
M  V30 14213 H 1349.7 -2.56853 6.59873 0
M  V30 14214 H 1350.11 -2.84009 4.87851 0
M  V30 14215 N 1349.51 -1.55583 -0.251311 0
M  V30 14216 C 1350.46 -1.86337 -1.31387 0
M  V30 14217 C 1351.44 -0.723887 -1.43697 0
M  V30 14218 O 1352.63 -0.985717 -1.47012 0
M  V30 14219 C 1349.76 -2.15772 -2.67016 0
M  V30 14220 C 1348.85 -3.36036 -2.58729 0
M  V30 14221 N 1349.24 -4.55414 -2.20071 0
M  V30 14222 C 1347.54 -3.39058 -2.89751 0
M  V30 14223 C 1348.24 -5.37544 -2.22309 0
M  V30 14224 N 1347.21 -4.76494 -2.61638 0
M  V30 14225 H 1351.01 -2.76168 -1.00541 0
M  V30 14226 H 1348.53 -1.55751 -0.459941 0
M  V30 14227 H 1350.53 -2.35967 -3.43693 0
M  V30 14228 H 1349.19 -1.27237 -2.98732 0
M  V30 14229 H 1350.2 -4.8112 -1.91688 0
M  V30 14230 H 1346.87 -2.60781 -3.26036 0
M  V30 14231 H 1348.26 -6.43042 -1.94798 0
M  V30 14232 N 1350.98 0.516783 -1.48886 0
M  V30 14233 C 1351.93 1.64093 -1.64853 0
M  V30 14234 C 1352.93 1.61392 -0.514685 0
M  V30 14235 O 1354.13 1.6609 -0.693831 0
M  V30 14236 H 1350.51 0.543672 -0.519543 0
M  V30 14237 H 1352.48 1.47774 -2.5924 0
M  V30 14238 C 1351.23 3.02308 -1.71771 0
M  V30 14239 H 1350.55 3.05085 -2.58385 0
M  V30 14240 H 1351.99 3.80544 -1.86982 0
M  V30 14241 C 1350.45 3.33757 -0.459136 0
M  V30 14242 O 1350.98 3.99475 0.422177 0
M  V30 14243 N 1349.18 2.88756 -0.326837 0
M  V30 14244 H 1348.73 2.35452 -1.045 0
M  V30 14245 H 1348.69 3.10166 0.514213 0
M  V30 14246 N 1352.46 1.37696 0.766659 0
M  V30 14247 C 1353.69 1.36564 1.56093 0
M  V30 14248 C 1354.11 -0.0455828 1.88045 0
M  V30 14249 O 1353.47 -1.02405 1.49609 0
M  V30 14250 C 1353.52 2.21592 2.84481 0
M  V30 14251 O 1352.62 1.62404 3.79076 0
M  V30 14252 H 1351.96 0.466394 0.472623 0
M  V30 14253 H 1354.49 1.81287 0.948486 0
M  V30 14254 H 1354.5 2.34987 3.33534 0
M  V30 14255 H 1353.18 3.24167 2.60554 0
M  V30 14256 H 1351.75 1.58078 3.37736 0
M  V30 14257 N 1353.94 -0.993397 1.22349 0
M  V30 14258 C 1355.22 -1.7063 0.956275 0
M  V30 14259 C 1355.6 -2.0437 -0.52877 0
M  V30 14260 O 1354.94 -1.72662 -1.49667 0
M  V30 14261 C 1355.15 -2.95725 1.85331 0
M  V30 14262 C 1356.5 -3.68514 2.10909 0
M  V30 14263 O 1357.53 -3.05732 1.82775 0
M  V30 14264 O 1356.39 -4.81468 2.58556 0
M  V30 14265 H 1353.48 -0.744734 0.359583 0
M  V30 14266 H 1356.03 -1.04979 1.33333 0
M  V30 14267 H 1354.8 -2.6729 2.85782 0
M  V30 14268 H 1354.42 -3.69116 1.47781 0
M  V30 14269 N 1355.42 -1.03311 -1.19015 0
M  V30 14270 C 1356.67 -0.727266 -1.88132 0
M  V30 14271 C 1356.98 0.747488 -1.80754 0
M  V30 14272 O 1358.19 1.16654 -2.45161 0
M  V30 14273 C 1356.64 -1.25056 -3.37474 0
M  V30 14274 C 1356.25 -2.7534 -3.534 0
M  V30 14275 C 1357.99 -1.02091 -4.12041 0
M  V30 14276 C 1355.9 -3.21066 -4.96659 0
M  V30 14277 H 1354.83 -0.268349 -0.704631 0
M  V30 14278 H 1357.48 -1.24795 -1.3453 0
M  V30 14279 H 1355.86 -0.65777 -3.90499 0
M  V30 14280 H 1357.04 -3.40311 -3.10684 0
M  V30 14281 H 1355.35 -2.96633 -2.92229 0
M  V30 14282 H 1357.95 -1.33777 -5.17695 0
M  V30 14283 H 1358.29 0.0421413 -4.16279 0
M  V30 14284 H 1358.83 -1.57792 -3.65166 0
M  V30 14285 H 1355.56 -4.26719 -4.97586 0
M  V30 14286 H 1355.08 -2.60826 -5.4012 0
M  V30 14287 H 1356.76 -3.14651 -5.65335 0
M  V30 14288 N 1356.9 1.35099 -0.81154 0
M  V30 14289 C 1358.12 2.03391 -0.405805 0
M  V30 14290 C 1358.55 1.60745 0.97686 0
M  V30 14291 O 1357.9 0.786518 1.63351 0
M  V30 14292 C 1357.95 3.57075 -0.502954 0
M  V30 14293 O 1357.06 4.09577 0.481681 0
M  V30 14294 H 1356.4 0.642203 -0.168733 0
M  V30 14295 H 1358.93 1.72591 -1.0988 0
M  V30 14296 H 1358.94 4.06277 -0.37456 0
M  V30 14297 H 1357.61 3.87463 -1.51145 0
M  V30 14298 H 1356.19 3.71583 0.313115 0
M  V30 14299 N 1358.37 0.56548 1.47106 0
M  V30 14300 C 1359.34 -0.167191 2.28589 0
M  V30 14301 C 1360.34 -0.835005 1.3742 0
M  V30 14302 O 1361.53 -0.689598 1.59969 0
M  V30 14303 C 1358.66 -1.24548 3.17333 0
M  V30 14304 H 1359.85 0.548677 2.94838 0
M  V30 14305 H 1357.4 0.322749 1.52931 0
M  V30 14306 H 1358.14 -1.99348 2.55794 0
M  V30 14307 H 1357.92 -0.771335 3.84438 0
M  V30 14308 H 1359.41 -1.75985 3.78707 0
M  V30 14309 N 1359.85 -1.54672 0.302354 0
M  V30 14310 C 1361.08 -2.04282 -0.308645 0
M  V30 14311 C 1361.49 -1.17912 -1.47965 0
M  V30 14312 O 1360.83 -0.197723 -1.82633 0
M  V30 14313 C 1360.9 -3.49872 -0.826417 0
M  V30 14314 C 1360.56 -4.56473 0.219486 0
M  V30 14315 C 1361.56 -5.0922 1.0484 0
M  V30 14316 C 1359.24 -5.00997 0.361574 0
M  V30 14317 C 1361.24 -6.05033 2.00533 0
M  V30 14318 C 1358.92 -5.9663 1.32195 0
M  V30 14319 C 1359.92 -6.48532 2.1423 0
M  V30 14320 O 1359.61 -7.42292 3.08639 0
M  V30 14321 H 1359.34 -0.67228 -0.0708187 0
M  V30 14322 H 1361.89 -2.00625 0.440314 0
M  V30 14323 H 1360.12 -3.50857 -1.62593 0
M  V30 14324 H 1361.81 -3.8267 -1.35345 0
M  V30 14325 H 1362.58 -4.75615 0.949501 0
M  V30 14326 H 1358.46 -4.60226 -0.267018 0
M  V30 14327 H 1362 -6.45469 2.64604 0
M  V30 14328 H 1357.9 -6.29652 1.42156 0
M  V30 14329 H 1358.67 -7.60098 3.03633 0
M  V30 14330 N 1361.33 -0.0301034 -1.57571 0
M  V30 14331 C 1362.56 0.658488 -1.96142 0
M  V30 14332 C 1362.97 1.65606 -0.906644 0
M  V30 14333 O 1362.33 1.82159 0.111441 0
M  V30 14334 C 1362.38 1.364 -3.34779 0
M  V30 14335 O 1362.1 0.4064 -4.36211 0
M  V30 14336 C 1363.6 2.14432 -3.87987 0
M  V30 14337 H 1360.82 0.181496 -0.645988 0
M  V30 14338 H 1363.37 -0.09016 -2.04301 0
M  V30 14339 H 1361.52 2.06404 -3.27836 0
M  V30 14340 H 1361.94 0.907503 -5.16589 0
M  V30 14341 H 1363.41 2.59248 -4.87334 0
M  V30 14342 H 1363.89 2.98377 -3.22285 0
M  V30 14343 H 1364.49 1.49383 -3.98202 0
M  V30 14344 N 1362.81 1.55714 0.243056 0
M  V30 14345 C 1364.04 1.81522 0.986577 0
M  V30 14346 C 1364.45 0.604051 1.79298 0
M  V30 14347 O 1363.79 -0.43674 1.78433 0
M  V30 14348 C 1363.85 3.0074 1.96967 0
M  V30 14349 C 1363.52 4.3661 1.34983 0
M  V30 14350 C 1364.51 5.14456 0.7504 0
M  V30 14351 C 1362.2 4.83311 1.36805 0
M  V30 14352 C 1364.19 6.37153 0.177438 0
M  V30 14353 C 1361.88 6.05956 0.791233 0
M  V30 14354 C 1362.88 6.82716 0.196959 0
M  V30 14355 O 1362.56 8.03044 -0.370938 0
M  V30 14356 H 1362.3 0.607864 0.295765 0
M  V30 14357 H 1364.85 2.03617 0.270018 0
M  V30 14358 H 1363.08 2.74409 2.72464 0
M  V30 14359 H 1364.77 3.13606 2.57694 0
M  V30 14360 H 1365.54 4.79493 0.728809 0
M  V30 14361 H 1361.41 4.23553 1.81999 0
M  V30 14362 H 1364.96 6.97009 -0.287042 0
M  V30 14363 H 1360.86 6.40396 0.810164 0
M  V30 14364 H 1361.62 8.18077 -0.263173 0
M  V30 14365 N 1364.29 -0.50888 1.49158 0
M  V30 14366 C 1365.2 -1.63782 1.67966 0
M  V30 14367 C 1366.21 -1.64667 0.562207 0
M  V30 14368 O 1367.39 -1.83232 0.835935 0
M  V30 14369 C 1364.45 -3.00179 1.73474 0
M  V30 14370 C 1363.51 -3.09983 2.97 0
M  V30 14371 C 1362.75 -4.39875 3.02235 0
M  V30 14372 O 1362.97 -5.28214 2.15282 0
M  V30 14373 O 1361.9 -4.54486 3.94621 0
M  V30 14374 H 1365.73 -1.50846 2.63589 0
M  V30 14375 H 1363.32 -0.684306 1.32807 0
M  V30 14376 H 1365.2 -3.8126 1.79495 0
M  V30 14377 H 1363.87 -3.13394 0.810287 0
M  V30 14378 H 1362.78 -2.28119 2.965 0
M  V30 14379 H 1364.11 -3.01693 3.88899 0
M  V30 14380 N 1365.76 -1.381 -0.759346 0
M  V30 14381 C 1367.18 -1.19171 -1.06162 0
M  V30 14382 C 1367.38 -0.0364043 -2.01467 0
M  V30 14383 O 1366.44 0.619635 -2.44779 0
M  V30 14384 C 1367.75 -2.51569 -1.64723 0
M  V30 14385 C 1369.3 -2.58201 -1.76921 0
M  V30 14386 C 1369.77 -3.9076 -2.38894 0
M  V30 14387 N 1371.26 -3.92269 -2.46331 0
M  V30 14388 C 1372 -4.91595 -2.95164 0
M  V30 14389 N 1371.49 -6.01318 -3.44075 0
M  V30 14390 N 1373.29 -4.7899 -2.94152 0
M  V30 14391 H 1365.44 -2.12021 -0.126788 0
M  V30 14392 H 1367.7 -0.940517 -0.118877 0
M  V30 14393 H 1367.41 -3.36535 -1.02162 0
M  V30 14394 H 1367.28 -2.69551 -2.6386 0
M  V30 14395 H 1369.67 -1.73634 -2.38611 0
M  V30 14396 H 1369.75 -2.44092 -0.765047 0
M  V30 14397 H 1369.39 -4.75747 -1.7784 0
M  V30 14398 H 1369.32 -4.02179 -3.39941 0
M  V30 14399 H 1371.81 -3.13015 -2.11731 0
M  V30 14400 H 1372.13 -6.73046 -3.79776 0
M  V30 14401 H 1370.47 -6.04946 -3.42148 0
M  V30 14402 H 1373.66 -3.92385 -2.55248 0
M  V30 14403 H 1373.84 -5.5655 -3.31897 0
M  V30 14404 N 1367.24 0.986894 -1.22875 0
M  V30 14405 C 1368.47 1.76266 -1.08342 0
M  V30 14406 C 1368.89 1.85226 0.365602 0
M  V30 14407 O 1368.24 1.32675 1.25314 0
M  V30 14408 C 1368.29 3.19282 -1.69533 0
M  V30 14409 O 1368.01 3.10796 -3.08768 0
M  V30 14410 C 1369.52 4.13281 -1.60355 0
M  V30 14411 H 1366.74 0.553374 -0.379497 0
M  V30 14412 H 1369.28 1.24033 -1.62592 0
M  V30 14413 H 1367.43 3.68563 -1.19332 0
M  V30 14414 H 1367.85 4.0078 -3.38343 0
M  V30 14415 H 1369.32 5.11359 -2.07884 0
M  V30 14416 H 1369.8 4.356 -0.561182 0
M  V30 14417 H 1370.41 3.699 -2.09891 0
M  V30 14418 N 1368.72 1.0394 1.18466 0
M  V30 14419 C 1369.65 0.650182 2.24265 0
M  V30 14420 C 1370.63 -0.345968 1.66545 0
M  V30 14421 O 1371.82 -0.226348 1.92876 0
M  V30 14422 C 1368.95 0.0110451 3.47298 0
M  V30 14423 C 1367.9 0.930599 4.17761 0
M  V30 14424 C 1367.23 0.156005 5.34472 0
M  V30 14425 C 1368.53 2.24913 4.71393 0
M  V30 14426 H 1370.22 1.53465 2.57078 0
M  V30 14427 H 1367.77 0.739343 1.23571 0
M  V30 14428 H 1369.72 -0.272959 4.20515 0
M  V30 14429 H 1368.44 -0.908288 3.13716 0
M  V30 14430 H 1367.1 1.19897 3.4644 0
M  V30 14431 H 1366.75 -0.765695 4.97138 0
M  V30 14432 H 1366.45 0.768606 5.82551 0
M  V30 14433 H 1367.97 -0.121011 6.1048 0
M  V30 14434 H 1369.39 2.02592 5.36311 0
M  V30 14435 H 1367.79 2.81459 5.30001 0
M  V30 14436 H 1368.86 2.8965 3.88884 0
M  V30 14437 N 1370.2 -1.34667 0.818693 0
M  V30 14438 C 1371.13 -2.27466 0.182904 0
M  V30 14439 C 1372.11 -1.48682 -0.65821 0
M  V30 14440 O 1373.29 -1.77912 -0.622868 0
M  V30 14441 C 1370.42 -3.30406 -0.744971 0
M  V30 14442 C 1369.47 -4.26496 0.018069 0
M  V30 14443 S 1370.3 -5.1788 1.36236 0
M  V30 14444 C 1371.46 -6.24357 0.43925 0
M  V30 14445 H 1371.69 -2.81042 0.969668 0
M  V30 14446 H 1369.22 -1.4165 0.614372 0
M  V30 14447 H 1371.18 -3.90205 -1.27478 0
M  V30 14448 H 1369.84 -2.75684 -1.50522 0
M  V30 14449 H 1369.03 -4.99294 -0.687141 0
M  V30 14450 H 1368.64 -3.70929 0.478291 0
M  V30 14451 H 1370.93 -6.76484 -0.370837 0
M  V30 14452 H 1371.87 -6.98916 1.13678 0
M  V30 14453 H 1372.28 -5.64492 0.0295605 0
M  V30 14454 N 1371.68 -0.573274 -1.46804 0
M  V30 14455 C 1372.61 0.213527 -2.27199 0
M  V30 14456 C 1373.59 0.905598 -1.35047 0
M  V30 14457 O 1374.77 0.921377 -1.64447 0
M  V30 14458 C 1371.9 1.30556 -3.12527 0
M  V30 14459 C 1370.94 0.720331 -4.20373 0
M  V30 14460 S 1371.78 -0.445518 -5.33644 0
M  V30 14461 C 1372.93 0.64794 -6.22537 0
M  V30 14462 H 1373.17 -0.468642 -2.93583 0
M  V30 14463 H 1370.7 -0.359949 -1.50146 0
M  V30 14464 H 1372.66 1.93086 -3.62254 0
M  V30 14465 H 1371.32 1.95963 -2.45474 0
M  V30 14466 H 1370.51 1.54089 -4.79867 0
M  V30 14467 H 1370.11 0.170885 -3.73609 0
M  V30 14468 H 1372.41 1.53602 -6.59858 0
M  V30 14469 H 1373.35 0.0899764 -7.08043 0
M  V30 14470 H 1373.76 0.94784 -5.56486 0
M  V30 14471 N 1373.15 1.5451 -0.310553 0
M  V30 14472 C 1374.06 2.27557 0.570518 0
M  V30 14473 C 1375.08 1.31426 1.14032 0
M  V30 14474 O 1376.26 1.64423 1.16306 0
M  V30 14475 C 1373.32 3.00933 1.72163 0
M  V30 14476 C 1372.38 4.12623 1.18495 0
M  V30 14477 C 1371.62 4.8249 2.28121 0
M  V30 14478 O 1371.84 4.5178 3.48211 0
M  V30 14479 O 1370.77 5.69686 1.94273 0
M  V30 14480 H 1374.6 3.03692 -0.0223195 0
M  V30 14481 H 1372.18 1.49203 -0.0766821 0
M  V30 14482 H 1374.07 3.46925 2.39208 0
M  V30 14483 H 1372.74 2.27685 2.3009 0
M  V30 14484 H 1371.65 3.71008 0.479956 0
M  V30 14485 H 1372.98 4.87876 0.650994 0
M  V30 14486 N 1374.63 0.0384594 1.57553 0
M  V30 14487 C 1375.57 -0.969185 2.077 0
M  V30 14488 C 1376.58 -1.2829 1.00227 0
M  V30 14489 O 1377.77 -1.24592 1.27824 0
M  V30 14490 C 1374.87 -2.29414 2.49444 0
M  V30 14491 C 1374.04 -2.16422 3.80106 0
M  V30 14492 C 1373.1 -3.31931 4.08299 0
M  V30 14493 O 1372.13 -3.08401 4.78412 0
M  V30 14494 N 1373.33 -4.56015 3.59208 0
M  V30 14495 H 1376.09 -0.541252 2.94772 0
M  V30 14496 H 1373.65 -0.148084 1.61221 0
M  V30 14497 H 1375.65 -3.05533 2.6539 0
M  V30 14498 H 1374.22 -2.63817 1.67688 0
M  V30 14499 H 1373.44 -1.24973 3.73866 0
M  V30 14500 H 1374.72 -2.04954 4.65694 0
M  V30 14501 H 1374.12 -4.78025 3.02503 0
M  V30 14502 H 1372.68 -5.29271 3.80415 0
M  V30 14503 N 1376.11 -1.55841 -0.234795 0
M  V30 14504 C 1377.53 -1.48536 -0.583885 0
M  V30 14505 C 1377.73 -0.731018 -1.87772 0
M  V30 14506 O 1376.78 -0.265287 -2.51103 0
M  V30 14507 C 1378.1 -2.93017 -0.675389 0
M  V30 14508 C 1379.64 -3.03459 -0.766906 0
M  V30 14509 C 1380.12 -4.49272 -0.889868 0
M  V30 14510 N 1381.61 -4.5326 -0.95443 0
M  V30 14511 C 1382.35 -5.63346 -1.06905 0
M  V30 14512 N 1381.84 -6.83215 -1.14845 0
M  V30 14513 N 1383.63 -5.51169 -1.10315 0
M  V30 14514 H 1375.79 -2.0332 0.614405 0
M  V30 14515 H 1378.05 -0.923581 0.213779 0
M  V30 14516 H 1377.75 -3.51099 0.205493 0
M  V30 14517 H 1377.63 -3.4418 -1.54337 0
M  V30 14518 H 1380.02 -2.4545 -1.63823 0
M  V30 14519 H 1380.1 -2.55487 0.126472 0
M  V30 14520 H 1379.74 -5.07895 -0.0230489 0
M  V30 14521 H 1379.67 -4.94937 -1.79847 0
M  V30 14522 H 1382.16 -3.6693 -0.903923 0
M  V30 14523 H 1382.47 -7.62863 -1.23532 0
M  V30 14524 H 1380.82 -6.85952 -1.11781 0
M  V30 14525 H 1384.01 -4.56453 -1.03769 0
M  V30 14526 H 1384.18 -6.36998 -1.18903 0
M  V30 14527 N 1377.59 0.500963 -1.49426 0
M  V30 14528 C 1378.81 1.28383 -1.62888 0
M  V30 14529 C 1379.24 1.85688 -0.300262 0
M  V30 14530 O 1378.6 1.6586 0.73212 0
M  V30 14531 C 1378.65 2.38987 -2.70033 0
M  V30 14532 O 1377.75 3.42837 -2.29208 0
M  V30 14533 H 1377.09 0.379012 -0.545202 0
M  V30 14534 H 1379.62 0.59971 -1.95613 0
M  V30 14535 H 1379.63 2.84749 -2.92202 0
M  V30 14536 H 1378.31 1.96643 -3.66475 0
M  V30 14537 H 1376.88 3.02993 -2.1737 0
M  V30 14538 N 1379.07 1.38501 0.752011 0
M  V30 14539 C 1380 1.31746 1.87551 0
M  V30 14540 C 1381.01 0.229386 1.61176 0
M  V30 14541 O 1382.2 0.487066 1.71726 0
M  V30 14542 C 1379.3 1.01889 3.23221 0
M  V30 14543 C 1378.47 2.21637 3.77088 0
M  V30 14544 C 1377.53 1.885 4.91278 0
M  V30 14545 O 1376.56 2.61011 5.05828 0
M  V30 14546 N 1377.76 0.840909 5.74377 0
M  V30 14547 H 1380.53 2.28561 1.93856 0
M  V30 14548 H 1378.09 1.32383 0.932013 0
M  V30 14549 H 1380.08 0.777704 3.97157 0
M  V30 14550 H 1378.65 0.138658 3.12292 0
M  V30 14551 H 1377.87 2.61812 2.947 0
M  V30 14552 H 1379.16 3.01551 4.0981 0
M  V30 14553 H 1378.56 0.23962 5.65192 0
M  V30 14554 H 1377.11 0.659604 6.48454 0
M  V30 14555 N 1380.55 -0.980364 1.23396 0
M  V30 14556 C 1381.48 -2.07099 0.958403 0
M  V30 14557 C 1382.46 -1.62272 -0.1033 0
M  V30 14558 O 1383.64 -1.88475 0.0309639 0
M  V30 14559 C 1380.77 -3.35779 0.443864 0
M  V30 14560 C 1379.81 -3.99545 1.49218 0
M  V30 14561 S 1380.65 -4.3879 3.06958 0
M  V30 14562 C 1381.8 -5.70624 2.57174 0
M  V30 14563 H 1382.04 -2.30154 1.88192 0
M  V30 14564 H 1379.57 -1.11656 1.06641 0
M  V30 14565 H 1381.53 -4.10213 0.153603 0
M  V30 14566 H 1380.19 -3.10732 -0.458738 0
M  V30 14567 H 1379.38 -4.92242 1.0823 0
M  V30 14568 H 1378.98 -3.31489 1.73179 0
M  V30 14569 H 1381.27 -6.47555 1.99197 0
M  V30 14570 H 1382.22 -6.16454 3.48411 0
M  V30 14571 H 1382.63 -5.28626 1.98028 0
M  V30 14572 N 1382.02 -1.04567 -1.17913 0
M  V30 14573 C 1382.95 -0.662066 -2.23917 0
M  V30 14574 C 1383.93 0.33713 -1.66726 0
M  V30 14575 O 1385.12 0.216116 -1.92994 0
M  V30 14576 C 1382.25 -0.029463 -3.47288 0
M  V30 14577 C 1381.2 -0.95274 -4.17261 0
M  V30 14578 C 1380.53 -0.184347 -5.34382 0
M  V30 14579 C 1381.83 -2.2741 -4.70194 0
M  V30 14580 H 1383.52 -1.54826 -2.5626 0
M  V30 14581 H 1381.07 -0.745886 -1.23177 0
M  V30 14582 H 1383.02 0.250654 -4.20654 0
M  V30 14583 H 1381.75 0.891638 -3.14193 0
M  V30 14584 H 1380.41 -1.21732 -3.45799 0
M  V30 14585 H 1380.05 0.73932 -4.97537 0
M  V30 14586 H 1379.75 -0.79949 -5.82136 0
M  V30 14587 H 1381.28 0.0886344 -6.10536 0
M  V30 14588 H 1382.69 -2.05433 -5.35229 0
M  V30 14589 H 1381.09 -2.84265 -5.28501 0
M  V30 14590 H 1382.16 -2.91708 -3.87342 0
M  V30 14591 N 1383.5 1.34231 -0.825823 0
M  V30 14592 C 1384.92 1.51166 -0.511945 0
M  V30 14593 C 1385.12 1.76981 0.963318 0
M  V30 14594 O 1384.17 1.82243 1.74767 0
M  V30 14595 C 1385.49 2.67474 -1.37399 0
M  V30 14596 C 1387.03 2.81356 -1.37141 0
M  V30 14597 C 1387.51 4.0071 -2.218 0
M  V30 14598 N 1389 4.07922 -2.19439 0
M  V30 14599 C 1389.74 4.99438 -2.81691 0
M  V30 14600 N 1389.23 5.96157 -3.52944 0
M  V30 14601 N 1391.02 4.92332 -2.7123 0
M  V30 14602 H 1383.18 1.15734 -1.78099 0
M  V30 14603 H 1385.44 0.567856 -0.759107 0
M  V30 14604 H 1385.14 2.55036 -2.42176 0
M  V30 14605 H 1385.02 3.62558 -1.04075 0
M  V30 14606 H 1387.41 2.93233 -0.331405 0
M  V30 14607 H 1387.49 1.87072 -1.74464 0
M  V30 14608 H 1387.13 3.89593 -3.25852 0
M  V30 14609 H 1387.06 4.94213 -1.81826 0
M  V30 14610 H 1389.55 3.38695 -1.67612 0
M  V30 14611 H 1389.86 6.62623 -3.97682 0
M  V30 14612 H 1388.21 5.96272 -3.5705 0
M  V30 14613 H 1391.4 4.15733 -2.15137 0
M  V30 14614 H 1391.57 5.63458 -3.20031 0
M  V30 14615 N 1384.98 0.581051 1.46498 0
M  V30 14616 C 1385.91 -0.19094 2.28403 0
M  V30 14617 C 1386.92 -0.857039 1.38415 0
M  V30 14618 O 1388.11 -0.726881 1.6303 0
M  V30 14619 C 1385.21 -1.28972 3.134 0
M  V30 14620 C 1384.39 -0.715867 4.31502 0
M  V30 14621 C 1383.45 -1.70215 4.97909 0
M  V30 14622 O 1382.47 -1.23885 5.55555 0
M  V30 14623 N 1383.67 -3.0362 4.94768 0
M  V30 14624 H 1386.44 0.511754 2.95298 0
M  V30 14625 H 1384 0.41871 1.56392 0
M  V30 14626 H 1385.99 -1.94877 3.5469 0
M  V30 14627 H 1384.56 -1.8953 2.4859 0
M  V30 14628 H 1383.78 0.120591 3.94016 0
M  V30 14629 H 1385.07 -0.312226 5.07841 0
M  V30 14630 H 1384.47 -3.43885 4.49177 0
M  V30 14631 H 1383.02 -3.65018 5.40005 0
M  V30 14632 N 1386.46 -1.54343 0.318742 0
M  V30 14633 C 1387.39 -2.20392 -0.591833 0
M  V30 14634 C 1388.37 -1.17931 -1.11942 0
M  V30 14635 O 1389.55 -1.4665 -1.18432 0
M  V30 14636 C 1386.68 -2.8618 -1.81159 0
M  V30 14637 C 1385.73 -4.02319 -1.41568 0
M  V30 14638 S 1386.56 -5.33551 -0.456481 0
M  V30 14639 C 1387.71 -6.02831 -1.68363 0
M  V30 14640 H 1387.95 -2.97284 -0.0307625 0
M  V30 14641 H 1385.48 -1.54057 0.102835 0
M  V30 14642 H 1387.44 -3.24707 -2.51148 0
M  V30 14643 H 1386.1 -2.091 -2.34384 0
M  V30 14644 H 1385.29 -4.47197 -2.32445 0
M  V30 14645 H 1384.89 -3.65441 -0.795535 0
M  V30 14646 H 1387.19 -6.24716 -2.62175 0
M  V30 14647 H 1388.13 -6.96488 -1.27709 0
M  V30 14648 H 1388.54 -5.32682 -1.86841 0
M  V30 14649 N 1387.94 -0.0468143 -1.5753 0
M  V30 14650 C 1389.35 0.309707 -1.56566 0
M  V30 14651 C 1389.55 1.7173 -1.05408 0
M  V30 14652 O 1388.61 2.4235 -0.708723 0
M  V30 14653 C 1389.92 0.142151 -3.00364 0
M  V30 14654 C 1391.47 0.213585 -3.1227 0
M  V30 14655 C 1391.94 0.0746102 -4.57939 0
M  V30 14656 N 1393.43 0.131027 -4.63015 0
M  V30 14657 C 1394.17 0.0475409 -5.7338 0
M  V30 14658 N 1393.67 -0.0880445 -6.92744 0
M  V30 14659 N 1395.46 0.102809 -5.62006 0
M  V30 14660 H 1387.61 -0.967057 -1.89108 0
M  V30 14661 H 1389.87 -0.375018 -0.870669 0
M  V30 14662 H 1389.58 -0.828171 -3.4181 0
M  V30 14663 H 1389.45 0.905006 -3.66182 0
M  V30 14664 H 1391.84 1.17438 -2.70726 0
M  V30 14665 H 1391.92 -0.57995 -2.49139 0
M  V30 14666 H 1391.56 -0.882839 -5.00168 0
M  V30 14667 H 1391.49 0.887235 -5.19072 0
M  V30 14668 H 1393.99 0.235246 -3.77167 0
M  V30 14669 H 1394.3 -0.144574 -7.72665 0
M  V30 14670 H 1392.64 -0.12307 -6.94891 0
M  V30 14671 H 1395.83 0.207259 -4.67641 0
M  V30 14672 H 1396.01 0.0342865 -6.47991 0
M  V30 14673 N 1389.41 1.55964 0.226527 0
M  V30 14674 C 1390.34 1.95028 1.284 0
M  V30 14675 C 1391.33 0.817833 1.49149 0
M  V30 14676 O 1392.51 1.07975 1.61416 0
M  V30 14677 C 1389.64 2.26266 2.63478 0
M  V30 14678 C 1388.59 3.41954 2.57393 0
M  V30 14679 C 1387.92 3.58786 3.96456 0
M  V30 14680 C 1389.22 4.77069 2.12608 0
M  V30 14681 H 1390.91 2.83608 0.959513 0
M  V30 14682 H 1388.46 1.36451 0.460125 0
M  V30 14683 H 1390.41 2.52186 3.3761 0
M  V30 14684 H 1389.14 1.34533 2.97604 0
M  V30 14685 H 1387.8 3.16076 1.85719 0
M  V30 14686 H 1387.44 2.64437 4.27881 0
M  V30 14687 H 1387.14 4.36595 3.93267 0
M  V30 14688 H 1388.67 3.87048 4.72256 0
M  V30 14689 H 1390.08 5.02226 2.76481 0
M  V30 14690 H 1388.48 5.58126 2.2049 0
M  V30 14691 H 1389.55 4.7276 1.07823 0
M  V30 14692 N 1390.89 -0.493031 1.4969 0
M  V30 14693 C 1392.12 -1.27046 1.633 0
M  V30 14694 C 1392.54 -1.86278 0.307534 0
M  V30 14695 O 1391.89 -1.68208 -0.707968 0
M  V30 14696 C 1391.94 -2.39501 2.70779 0
M  V30 14697 O 1391.66 -1.82702 3.98185 0
M  V30 14698 C 1393.17 -3.30744 2.95166 0
M  V30 14699 H 1390.39 -0.385042 0.54953 0
M  V30 14700 H 1392.93 -0.590998 1.95774 0
M  V30 14701 H 1391.08 -3.03263 2.41061 0
M  V30 14702 H 1391.5 -2.56588 4.57452 0
M  V30 14703 H 1392.97 -4.05912 3.74085 0
M  V30 14704 H 1393.45 -3.88217 2.05387 0
M  V30 14705 H 1394.06 -2.72741 3.26332 0
M  V30 14706 N 1392.37 -1.38898 -0.744656 0
M  V30 14707 C 1393.32 -1.36845 -1.85855 0
M  V30 14708 C 1394.29 -0.2296 -1.64505 0
M  V30 14709 O 1395.47 -0.423221 -1.86047 0
M  V30 14710 C 1392.61 -1.20818 -3.2326 0
M  V30 14711 C 1391.73 -2.44166 -3.5638 0
M  V30 14712 C 1390.86 -2.20801 -4.83136 0
M  V30 14713 C 1389.9 -3.39874 -5.0907 0
M  V30 14714 N 1389.04 -3.15888 -6.27024 0
M  V30 14715 H 1393.88 -2.32068 -1.86945 0
M  V30 14716 H 1391.41 -1.15289 -0.913611 0
M  V30 14717 H 1393.37 -1.0954 -4.02563 0
M  V30 14718 H 1392 -0.292295 -3.21474 0
M  V30 14719 H 1391.05 -2.66083 -2.71852 0
M  V30 14720 H 1392.37 -3.32885 -3.71469 0
M  V30 14721 H 1391.52 -2.0671 -5.704 0
M  V30 14722 H 1390.26 -1.29462 -4.70203 0
M  V30 14723 H 1389.26 -3.54474 -4.20271 0
M  V30 14724 H 1390.49 -4.32102 -5.23894 0
M  V30 14725 H 1388.43 -2.27204 -6.15398 0
M  V30 14726 H 1388.35 -3.9816 -6.42655 0
M  V30 14727 H 1389.62 -3.0547 -7.17153 0
M  V30 14728 N 1393.85 0.973806 -1.23914 0
M  V30 14729 C 1395.08 1.75107 -1.10206 0
M  V30 14730 C 1395.49 1.85604 0.345935 0
M  V30 14731 O 1394.85 1.33996 1.239 0
M  V30 14732 C 1394.9 3.17466 -1.72909 0
M  V30 14733 O 1394.62 3.07504 -3.12047 0
M  V30 14734 C 1396.12 4.11557 -1.6473 0
M  V30 14735 H 1393.34 0.549318 -0.385345 0
M  V30 14736 H 1395.89 1.22301 -1.63898 0
M  V30 14737 H 1394.04 3.67277 -1.23234 0
M  V30 14738 H 1394.45 3.97169 -3.42575 0
M  V30 14739 H 1395.93 5.09126 -2.13295 0
M  V30 14740 H 1396.41 4.3498 -0.607352 0
M  V30 14741 H 1397.01 3.67653 -2.13802 0
M  V30 14742 N 1395.33 1.05191 1.17357 0
M  V30 14743 C 1396.24 0.663617 2.25018 0
M  V30 14744 C 1397.25 -0.315299 1.71119 0
M  V30 14745 O 1398.43 -0.167398 2.00703 0
M  V30 14746 C 1395.49 0.0443307 3.46672 0
M  V30 14747 C 1394.55 1.07369 4.15656 0
M  V30 14748 C 1393.79 0.483864 5.31502 0
M  V30 14749 O 1394.01 -0.706692 5.66005 0
M  V30 14750 O 1392.94 1.21812 5.89445 0
M  V30 14751 H 1396.77 1.56088 2.60519 0
M  V30 14752 H 1394.36 0.823474 1.24657 0
M  V30 14753 H 1396.24 -0.299839 4.20332 0
M  V30 14754 H 1394.91 -0.826579 3.12969 0
M  V30 14755 H 1393.82 1.46985 3.44015 0
M  V30 14756 H 1395.15 1.91575 4.53387 0
M  V30 14757 N 1396.8 -1.33791 0.83293 0
M  V30 14758 C 1398.22 -1.50893 0.519955 0
M  V30 14759 C 1398.42 -1.7749 -0.953919 0
M  V30 14760 O 1397.48 -1.83168 -1.73798 0
M  V30 14761 C 1398.79 -2.66741 1.38815 0
M  V30 14762 C 1400.34 -2.80625 1.38631 0
M  V30 14763 C 1400.81 -3.99528 2.23922 0
M  V30 14764 N 1402.3 -4.06753 2.21599 0
M  V30 14765 C 1403.04 -4.97937 2.84335 0
M  V30 14766 N 1402.53 -5.94276 3.561 0
M  V30 14767 N 1404.33 -4.90887 2.73837 0
M  V30 14768 H 1396.48 -1.14788 1.7871 0
M  V30 14769 H 1398.74 -0.563822 0.762108 0
M  V30 14770 H 1398.45 -2.53748 2.43525 0
M  V30 14771 H 1398.32 -3.62001 1.05996 0
M  V30 14772 H 1400.71 -2.93053 0.346951 0
M  V30 14773 H 1400.79 -1.86144 1.75454 0
M  V30 14774 H 1400.43 -3.8786 3.27914 0
M  V30 14775 H 1400.36 -4.93242 1.84444 0
M  V30 14776 H 1402.85 -3.37802 1.69406 0
M  V30 14777 H 1403.17 -6.60504 4.01191 0
M  V30 14778 H 1401.51 -5.9437 3.60207 0
M  V30 14779 H 1404.7 -4.14586 2.17338 0
M  V30 14780 H 1404.88 -5.61752 3.23014 0
M  V30 14781 N 1398.28 -0.588812 -1.46187 0
M  V30 14782 C 1399.19 0.143253 -2.34162 0
M  V30 14783 C 1400.21 0.879779 -1.5012 0
M  V30 14784 O 1401.38 0.841592 -1.82973 0
M  V30 14785 C 1398.45 1.14017 -3.27416 0
M  V30 14786 C 1397.51 0.407651 -4.2736 0
M  V30 14787 C 1396.74 1.35708 -5.16158 0
M  V30 14788 O 1396.97 2.59394 -5.08007 0
M  V30 14789 O 1395.9 0.864343 -5.95662 0
M  V30 14790 H 1399.73 -0.579228 -2.98125 0
M  V30 14791 H 1397.31 -0.349174 -1.45262 0
M  V30 14792 H 1399.19 1.71484 -3.8493 0
M  V30 14793 H 1397.87 1.84401 -2.66041 0
M  V30 14794 H 1396.78 -0.209011 -3.73516 0
M  V30 14795 H 1398.11 -0.255334 -4.91537 0
M  V30 14796 N 1399.76 1.54172 -0.326923 0
M  V30 14797 C 1401.18 1.59579 0.0256055 0
M  V30 14798 C 1401.38 1.34337 1.50186 0
M  V30 14799 O 1400.43 1.12945 2.25831 0
M  V30 14800 C 1401.75 2.98086 -0.395641 0
M  V30 14801 C 1403.29 3.11075 -0.346579 0
M  V30 14802 C 1403.77 4.51932 -0.743039 0
M  V30 14803 N 1405.26 4.57932 -0.696575 0
M  V30 14804 C 1405.99 5.65041 -0.975493 0
M  V30 14805 N 1405.49 6.80075 -1.32172 0
M  V30 14806 N 1407.28 5.54835 -0.900831 0
M  V30 14807 H 1399.43 1.68836 -1.28872 0
M  V30 14808 H 1401.7 0.789858 -0.52424 0
M  V30 14809 H 1401.4 3.21568 -1.42431 0
M  V30 14810 H 1401.28 3.76451 0.237645 0
M  V30 14811 H 1403.66 2.87326 0.672889 0
M  V30 14812 H 1403.75 2.34807 -1.01484 0
M  V30 14813 H 1403.39 4.76415 -1.76044 0
M  V30 14814 H 1403.32 5.26574 -0.0524263 0
M  V30 14815 H 1405.81 3.75318 -0.440969 0
M  V30 14816 H 1406.12 7.57708 -1.51983 0
M  V30 14817 H 1404.47 6.81563 -1.36001 0
M  V30 14818 H 1407.66 4.63844 -0.629812 0
M  V30 14819 H 1407.83 6.3822 -1.12156 0
M  V30 14820 N 1401.24 0.0551678 1.57503 0
M  V30 14821 C 1402.15 -0.932959 2.15251 0
M  V30 14822 C 1403.16 -1.33885 1.11134 0
M  V30 14823 O 1404.34 -1.41495 1.43321 0
M  V30 14824 C 1401.41 -2.18807 2.68932 0
M  V30 14825 C 1400.47 -1.84016 3.87862 0
M  V30 14826 C 1399.7 -3.03543 4.38973 0
M  V30 14827 O 1399.92 -4.17041 3.89144 0
M  V30 14828 O 1398.86 -2.84325 5.30512 0
M  V30 14829 H 1402.68 -0.471816 3.00013 0
M  V30 14830 H 1400.27 -0.16696 1.48464 0
M  V30 14831 H 1402.15 -2.92439 3.0341 0
M  V30 14832 H 1400.82 -2.64051 1.87239 0
M  V30 14833 H 1399.73 -1.07687 3.58266 0
M  V30 14834 H 1401.06 -1.43567 4.70796 0
M  V30 14835 N 1402.72 -1.56081 -0.218252 0
M  V30 14836 C 1403.68 -1.91851 -1.25402 0
M  V30 14837 C 1404.68 -0.797399 -1.39636 0
M  V30 14838 O 1405.87 -1.06511 -1.37844 0
M  V30 14839 C 1403 -2.17223 -2.6273 0
M  V30 14840 H 1404.19 -2.84493 -0.948882 0
M  V30 14841 H 1401.75 -1.49414 -0.458809 0
M  V30 14842 H 1402.48 -1.27144 -2.98337 0
M  V30 14843 H 1402.27 -2.98899 -2.53775 0
M  V30 14844 H 1403.76 -2.45981 -3.37466 0
M  V30 14845 N 1404.2 0.485086 -1.49949 0
M  V30 14846 C 1405.13 1.60191 -1.63926 0
M  V30 14847 C 1406.14 1.5423 -0.521256 0
M  V30 14848 O 1407.33 1.59872 -0.79392 0
M  V30 14849 C 1404.43 2.99035 -1.59472 0
M  V30 14850 C 1403.6 3.30014 -2.87071 0
M  V30 14851 C 1402.66 4.48345 -2.75451 0
M  V30 14852 O 1401.69 4.49342 -3.494 0
M  V30 14853 N 1402.89 5.49192 -1.88064 0
M  V30 14854 H 1405.65 1.48622 -2.60253 0
M  V30 14855 H 1403.22 0.673258 -1.47237 0
M  V30 14856 H 1405.21 3.76142 -1.4933 0
M  V30 14857 H 1403.78 3.04445 -0.709373 0
M  V30 14858 H 1403 2.41652 -3.11445 0
M  V30 14859 H 1404.29 3.47515 -3.71632 0
M  V30 14860 H 1403.68 5.51198 -1.2727 0
M  V30 14861 H 1402.24 6.25338 -1.83835 0
M  V30 14862 N 1405.67 1.39291 0.737279 0
M  V30 14863 C 1406.6 1.40562 1.86452 0
M  V30 14864 C 1407.58 0.269283 1.67955 0
M  V30 14865 O 1408.77 0.474769 1.88307 0
M  V30 14866 C 1405.9 1.2461 3.24175 0
M  V30 14867 C 1404.85 2.35619 3.57306 0
M  V30 14868 C 1404.18 2.04758 4.93941 0
M  V30 14869 C 1405.48 3.77927 3.60512 0
M  V30 14870 H 1407.17 2.34896 1.85646 0
M  V30 14871 H 1404.72 1.13065 0.891756 0
M  V30 14872 H 1406.67 1.2412 4.02706 0
M  V30 14873 H 1405.4 0.267438 3.25503 0
M  V30 14874 H 1404.06 2.35322 2.81104 0
M  V30 14875 H 1403.7 1.05336 4.91847 0
M  V30 14876 H 1403.4 2.79117 5.17076 0
M  V30 14877 H 1404.93 2.05915 5.74832 0
M  V30 14878 H 1406.34 3.80166 4.29123 0
M  V30 14879 H 1404.74 4.51626 3.95164 0
M  V30 14880 H 1405.81 4.09068 2.60368 0
M  V30 14881 N 1407.15 -0.967221 1.24429 0
M  V30 14882 C 1408.4 -1.71279 1.08588 0
M  V30 14883 C 1408.73 -1.90558 -0.374325 0
M  V30 14884 O 1408.01 -1.46742 -1.27659 0
M  V30 14885 C 1408.29 -3.10326 1.82674 0
M  V30 14886 C 1408.14 -2.98535 3.36447 0
M  V30 14887 C 1409.46 -4.09993 1.59981 0
M  V30 14888 H 1406.58 -0.621658 0.395867 0
M  V30 14889 H 1409.22 -1.12514 1.53103 0
M  V30 14890 H 1407.37 -3.60492 1.44836 0
M  V30 14891 H 1409.04 -2.55791 3.83886 0
M  V30 14892 H 1407.29 -2.34736 3.64803 0
M  V30 14893 H 1407.96 -3.97041 3.83487 0
M  V30 14894 H 1410.43 -3.68687 1.92897 0
M  V30 14895 H 1409.31 -5.05349 2.14274 0
M  V30 14896 H 1409.57 -4.38812 0.538173 0
M  V30 14897 N 1408.63 -1.05812 -1.16797 0
M  V30 14898 C 1409.58 -0.664599 -2.21024 0
M  V30 14899 C 1410.55 0.336352 -1.62659 0
M  V30 14900 O 1411.73 0.226346 -1.89453 0
M  V30 14901 C 1408.87 -0.0520739 -3.45061 0
M  V30 14902 C 1407.98 -1.10261 -4.17692 0
M  V30 14903 C 1407.12 -0.456746 -5.29233 0
M  V30 14904 C 1406.16 -1.49116 -5.93659 0
M  V30 14905 N 1405.3 -0.869002 -6.96701 0
M  V30 14906 H 1410.14 -1.55784 -2.54038 0
M  V30 14907 H 1407.67 -0.778993 -1.2478 0
M  V30 14908 H 1409.63 0.320552 -4.15967 0
M  V30 14909 H 1408.26 0.804592 -3.12612 0
M  V30 14910 H 1407.31 -1.593 -3.45438 0
M  V30 14911 H 1408.62 -1.88757 -4.61706 0
M  V30 14912 H 1407.78 -0.0308814 -6.06692 0
M  V30 14913 H 1406.52 0.360131 -4.86369 0
M  V30 14914 H 1405.52 -1.92697 -5.14925 0
M  V30 14915 H 1406.75 -2.31005 -6.38603 0
M  V30 14916 H 1404.69 -0.0727494 -6.5596 0
M  V30 14917 H 1404.61 -1.59141 -7.3906 0
M  V30 14918 H 1405.88 -0.46812 -7.78093 0
M  V30 14919 N 1410.11 1.33347 -0.840014 0
M  V30 14920 C 1411.38 1.92293 -0.358158 0
M  V30 14921 C 1411.76 1.76594 1.15662 0
M  V30 14922 O 1411.11 1.15503 1.97158 0
M  V30 14923 C 1411.32 3.39558 -0.806329 0
M  V30 14924 C 1412.67 4.16705 -0.81501 0
M  V30 14925 O 1413.69 3.48214 -0.75001 0
M  V30 14926 O 1412.55 5.38974 -0.903818 0
M  V30 14927 H 1409.65 0.820737 -0.101585 0
M  V30 14928 H 1412.19 1.42213 -0.925942 0
M  V30 14929 H 1410.97 3.44861 -1.84897 0
M  V30 14930 H 1410.59 3.97017 -0.215181 0
M  V30 14931 N 1411.59 0.596556 1.45873 0
M  V30 14932 C 1413 0.259317 1.57479 0
M  V30 14933 C 1413.2 -1.23829 1.58961 0
M  V30 14934 O 1412.26 -2.02076 1.51399 0
M  V30 14935 C 1413.57 0.920755 2.86256 0
M  V30 14936 C 1415.12 0.895638 2.99912 0
M  V30 14937 C 1415.59 1.53688 4.31444 0
M  V30 14938 N 1417.08 1.50186 4.38176 0
M  V30 14939 C 1417.82 1.96727 5.38596 0
M  V30 14940 N 1417.32 2.51304 6.45615 0
M  V30 14941 N 1419.11 1.87561 5.29884 0
M  V30 14942 H 1411.26 1.56909 1.43155 0
M  V30 14943 H 1413.52 0.656664 0.683737 0
M  V30 14944 H 1413.23 1.97481 2.91023 0
M  V30 14945 H 1413.1 0.437331 3.74656 0
M  V30 14946 H 1415.49 -0.149838 2.94719 0
M  V30 14947 H 1415.57 1.41722 2.12952 0
M  V30 14948 H 1415.21 2.58163 4.37395 0
M  V30 14949 H 1415.14 0.990408 5.17203 0
M  V30 14950 H 1417.64 1.10305 3.61443 0
M  V30 14951 H 1417.95 2.84639 7.18471 0
M  V30 14952 H 1416.29 2.55337 6.46396 0
M  V30 14953 H 1419.48 1.4467 4.45183 0
M  V30 14954 H 1419.66 2.24146 6.07999 0
M  V30 14955 N 1413.06 -1.53996 0.335095 0
M  V30 14956 C 1414.01 -2.21479 -0.541388 0
M  V30 14957 C 1415 -1.19926 -1.07268 0
M  V30 14958 O 1416.19 -1.45508 -1.00779 0
M  V30 14959 C 1413.32 -2.98477 -1.69607 0
M  V30 14960 C 1412.4 -4.07379 -1.17912 0
M  V30 14961 N 1412.8 -5.0435 -0.382732 0
M  V30 14962 C 1411.09 -4.21537 -1.45679 0
M  V30 14963 C 1411.79 -5.81608 -0.103194 0
M  V30 14964 N 1410.77 -5.39171 -0.692513 0
M  V30 14965 H 1414.57 -2.93806 0.0742285 0
M  V30 14966 H 1412.09 -1.61782 0.141529 0
M  V30 14967 H 1414.08 -3.45316 -2.33587 0
M  V30 14968 H 1412.74 -2.27674 -2.31505 0
M  V30 14969 H 1413.75 -5.17894 -0.0245533 0
M  V30 14970 H 1410.43 -3.61953 -2.08078 0
M  V30 14971 H 1411.82 -6.69737 0.538682 0
M  V30 14972 N 1414.54 -0.0635198 -1.57472 0
M  V30 14973 C 1415.77 0.620205 -1.9791 0
M  V30 14974 C 1416.19 1.62851 -0.941335 0
M  V30 14975 O 1415.55 1.81056 0.0940313 0
M  V30 14976 C 1415.6 1.27261 -3.37397 0
M  V30 14977 O 1414.7 2.38841 -3.36197 0
M  V30 14978 H 1414.04 0.16021 -0.644382 0
M  V30 14979 H 1416.57 -0.135582 -2.0415 0
M  V30 14980 H 1416.58 1.6214 -3.74399 0
M  V30 14981 H 1415.26 0.533723 -4.12461 0
M  V30 14982 H 1413.83 2.05817 -3.10956 0
M  V30 14983 N 1416.02 1.56195 0.209972 0
M  V30 14984 C 1416.98 1.92514 1.24383 0
M  V30 14985 C 1417.98 0.804793 1.39211 0
M  V30 14986 O 1419.17 1.0724 1.37278 0
M  V30 14987 C 1416.3 2.18613 2.61574 0
M  V30 14988 H 1417.5 2.84992 0.933781 0
M  V30 14989 H 1415.05 1.49656 0.450878 0
M  V30 14990 H 1415.79 1.28724 2.97659 0
M  V30 14991 H 1415.57 3.00241 2.52186 0
M  V30 14992 H 1417.06 2.47767 3.36156 0
M  V30 14993 N 1417.5 -0.477127 1.50204 0
M  V30 14994 C 1418.43 -1.58405 1.71552 0
M  V30 14995 C 1419.41 -1.60463 0.564413 0
M  V30 14996 O 1420.59 -1.76826 0.802893 0
M  V30 14997 C 1417.72 -2.96765 1.8041 0
M  V30 14998 C 1416.68 -3.09573 2.95548 0
M  V30 14999 C 1416 -4.49522 2.89542 0
M  V30 15000 C 1417.3 -2.87356 4.36147 0
M  V30 15001 H 1419 -1.40792 2.64231 0
M  V30 15002 H 1416.54 -0.675886 1.27153 0
M  V30 15003 H 1418.5 -3.74125 1.9393 0
M  V30 15004 H 1417.22 -3.1552 0.843489 0
M  V30 15005 H 1415.88 -2.34645 2.81669 0
M  V30 15006 H 1415.53 -4.65186 1.91339 0
M  V30 15007 H 1415.23 -4.59028 3.66834 0
M  V30 15008 H 1416.75 -5.28909 3.05102 0
M  V30 15009 H 1418.17 -3.54469 4.50583 0
M  V30 15010 H 1416.56 -3.08313 5.14843 0
M  V30 15011 H 1417.63 -1.83264 4.48935 0
M  V30 15012 N 1418.98 -1.3968 -0.729882 0
M  V30 15013 C 1420.39 -1.21396 -1.0361 0
M  V30 15014 C 1420.59 -0.0791302 -2.01345 0
M  V30 15015 O 1419.65 0.567575 -2.46038 0
M  V30 15016 C 1420.96 -2.55006 -1.59349 0
M  V30 15017 C 1422.51 -2.61896 -1.71405 0
M  V30 15018 C 1422.98 -3.9574 -2.30552 0
M  V30 15019 N 1424.48 -3.97406 -2.37955 0
M  V30 15020 C 1425.21 -4.97745 -2.8467 0
M  V30 15021 N 1424.71 -6.08482 -3.31243 0
M  V30 15022 N 1426.5 -4.85121 -2.83925 0
M  V30 15023 H 1418.65 -2.12242 -0.081787 0
M  V30 15024 H 1420.91 -0.942827 -0.0989005 0
M  V30 15025 H 1420.62 -3.38626 -0.950005 0
M  V30 15026 H 1420.49 -2.75087 -2.58083 0
M  V30 15027 H 1422.88 -1.78656 -2.34874 0
M  V30 15028 H 1422.96 -2.45659 -0.7131 0
M  V30 15029 H 1422.61 -4.79412 -1.67709 0
M  V30 15030 H 1422.54 -4.09299 -3.31334 0
M  V30 15031 H 1425.03 -3.17435 -2.05044 0
M  V30 15032 H 1425.34 -6.8095 -3.65414 0
M  V30 15033 H 1423.68 -6.12068 -3.29239 0
M  V30 15034 H 1426.88 -3.97711 -2.46867 0
M  V30 15035 H 1427.05 -5.63465 -3.20017 0
M  V30 15036 N 1420.45 0.960609 -1.2494 0
M  V30 15037 C 1421.38 2.074 -1.07274 0
M  V30 15038 C 1422.37 1.70092 0.0164365 0
M  V30 15039 O 1423.55 1.93604 -0.151975 0
M  V30 15040 C 1420.68 3.40491 -0.684317 0
M  V30 15041 C 1419.63 3.91784 -1.72306 0
M  V30 15042 C 1418.96 5.21301 -1.18949 0
M  V30 15043 C 1420.26 4.18829 -3.12056 0
M  V30 15044 H 1421.95 2.22438 -2.00404 0
M  V30 15045 H 1419.5 1.06888 -0.964937 0
M  V30 15046 H 1421.45 4.17826 -0.547686 0
M  V30 15047 H 1420.18 3.25374 0.282687 0
M  V30 15048 H 1418.84 3.16613 -1.84802 0
M  V30 15049 H 1418.48 5.02549 -0.212892 0
M  V30 15050 H 1418.18 5.56588 -1.8837 0
M  V30 15051 H 1419.71 6.01238 -1.06513 0
M  V30 15052 H 1421.12 4.86844 -3.02748 0
M  V30 15053 H 1419.52 4.6536 -3.78894 0
M  V30 15054 H 1420.59 3.25333 -3.59564 0
M  V30 15055 N 1421.93 1.0643 1.16234 0
M  V30 15056 C 1422.84 0.687446 2.24302 0
M  V30 15057 C 1423.86 -0.297132 1.71444 0
M  V30 15058 O 1425.03 -0.146101 2.00869 0
M  V30 15059 C 1422.1 0.0810973 3.46605 0
M  V30 15060 C 1421.16 1.11772 4.14494 0
M  V30 15061 C 1420.39 0.54021 5.30959 0
M  V30 15062 O 1420.62 -0.646619 5.66723 0
M  V30 15063 O 1419.55 1.28057 5.8812 0
M  V30 15064 H 1423.38 1.58842 2.58849 0
M  V30 15065 H 1420.96 0.836649 1.23776 0
M  V30 15066 H 1422.84 -0.25524 4.20626 0
M  V30 15067 H 1421.52 -0.793338 3.13828 0
M  V30 15068 H 1420.43 1.50626 3.42436 0
M  V30 15069 H 1421.76 1.96373 4.5133 0
M  V30 15070 N 1423.41 -1.329 0.847073 0
M  V30 15071 C 1424.64 -2.02244 0.459588 0
M  V30 15072 C 1425.06 -1.63279 -0.933897 0
M  V30 15073 O 1424.42 -0.829551 -1.61208 0
M  V30 15074 C 1424.47 -3.55616 0.59745 0
M  V30 15075 O 1423.57 -4.1071 -0.372919 0
M  V30 15076 H 1422.91 -0.637504 0.1857 0
M  V30 15077 H 1425.44 -1.69617 1.14417 0
M  V30 15078 H 1425.45 -4.05141 0.482145 0
M  V30 15079 H 1424.13 -3.8332 1.61365 0
M  V30 15080 H 1422.7 -3.72283 -0.214487 0
M  V30 15081 N 1424.89 -0.604284 -1.45555 0
M  V30 15082 C 1425.82 0.103859 -2.33269 0
M  V30 15083 C 1426.8 0.862104 -1.46635 0
M  V30 15084 O 1427.98 0.833308 -1.75413 0
M  V30 15085 C 1425.11 1.104 -3.29286 0
M  V30 15086 C 1424.07 0.459189 -4.2553 0
M  V30 15087 C 1423.39 1.56734 -5.11213 0
M  V30 15088 C 1424.69 -0.617509 -5.18637 0
M  V30 15089 H 1426.39 -0.628538 -2.92728 0
M  V30 15090 H 1423.93 -0.303711 -1.40761 0
M  V30 15091 H 1425.89 1.60794 -3.89517 0
M  V30 15092 H 1424.61 1.86695 -2.67979 0
M  V30 15093 H 1423.27 -0.0238508 -3.66592 0
M  V30 15094 H 1422.92 2.32049 -4.46276 0
M  V30 15095 H 1422.62 1.14142 -5.76407 0
M  V30 15096 H 1424.14 2.07361 -5.74312 0
M  V30 15097 H 1425.56 -0.197784 -5.72959 0
M  V30 15098 H 1423.95 -0.96499 -5.9229 0
M  V30 15099 H 1425.02 -1.49541 -4.61265 0
M  V30 15100 N 1426.37 1.53816 -0.343257 0
M  V30 15101 C 1427.6 2.05028 0.254375 0
M  V30 15102 C 1428 1.21793 1.44786 0
M  V30 15103 O 1427.35 0.246075 1.82044 0
M  V30 15104 C 1427.41 3.5194 0.733364 0
M  V30 15105 C 1427.07 4.5573 -0.340434 0
M  V30 15106 C 1428.07 5.06261 -1.18304 0
M  V30 15107 C 1425.76 4.99862 -0.494277 0
M  V30 15108 C 1427.75 5.99504 -2.16503 0
M  V30 15109 C 1425.44 5.92916 -1.47967 0
M  V30 15110 C 1426.43 6.42625 -2.3135 0
M  V30 15111 O 1426.12 7.33848 -3.28211 0
M  V30 15112 H 1425.85 0.673922 0.0529695 0
M  V30 15113 H 1428.41 1.99387 -0.493352 0
M  V30 15114 H 1426.64 3.55044 1.53233 0
M  V30 15115 H 1428.33 3.86124 1.25151 0
M  V30 15116 H 1429.09 4.7293 -1.07527 0
M  V30 15117 H 1424.97 4.60772 0.144904 0
M  V30 15118 H 1428.52 6.38227 -2.81624 0
M  V30 15119 H 1424.41 6.25662 -1.588 0
M  V30 15120 H 1425.18 7.51781 -3.23679 0
M  V30 15121 N 1427.84 0.0718701 1.57436 0
M  V30 15122 C 1429.07 -0.609701 1.98236 0
M  V30 15123 C 1429.49 -1.6235 0.949959 0
M  V30 15124 O 1428.85 -1.81103 -0.0844281 0
M  V30 15125 C 1428.9 -1.2547 3.38068 0
M  V30 15126 O 1428 -2.37055 3.37459 0
M  V30 15127 H 1427.35 -0.15679 0.645223 0
M  V30 15128 H 1429.88 0.146407 2.04076 0
M  V30 15129 H 1429.89 -1.60152 3.75254 0
M  V30 15130 H 1428.56 -0.511842 4.12738 0
M  V30 15131 H 1427.14 -2.04165 3.12043 0
M  V30 15132 N 1429.32 -1.56304 -0.201686 0
M  V30 15133 C 1430.6 -1.71059 -0.948595 0
M  V30 15134 C 1430.98 -0.624794 -2.01642 0
M  V30 15135 O 1430.33 0.365235 -2.25562 0
M  V30 15136 C 1430.54 -3.13136 -1.54101 0
M  V30 15137 C 1431.89 -3.73165 -2.02567 0
M  V30 15138 O 1432.91 -3.16223 -1.63956 0
M  V30 15139 O 1431.77 -4.73084 -2.73594 0
M  V30 15140 H 1428.86 -0.697443 -0.444412 0
M  V30 15141 H 1431.41 -1.68611 -0.191901 0
M  V30 15142 H 1430.18 -3.8363 -0.770968 0
M  V30 15143 H 1429.8 -3.19784 -2.36271 0
M  V30 15144 N 1430.8 0.469154 -1.50455 0
M  V30 15145 C 1431.71 1.59271 -1.7225 0
M  V30 15146 C 1432.73 1.63119 -0.605668 0
M  V30 15147 O 1433.9 1.80952 -0.884222 0
M  V30 15148 C 1430.97 2.95475 -1.81372 0
M  V30 15149 C 1430.03 3.02 -3.05114 0
M  V30 15150 C 1429.26 4.31707 -3.13791 0
M  V30 15151 O 1429.48 5.2232 -2.29211 0
M  V30 15152 O 1428.42 4.43864 -4.06532 0
M  V30 15153 H 1432.24 1.43804 -2.67496 0
M  V30 15154 H 1429.83 0.648855 -1.34574 0
M  V30 15155 H 1431.71 3.76367 -1.89541 0
M  V30 15156 H 1430.39 3.11136 -0.893094 0
M  V30 15157 H 1429.29 2.20178 -3.02444 0
M  V30 15158 H 1430.63 2.91275 -3.96761 0
M  V30 15159 N 1432.28 1.40065 0.722464 0
M  V30 15160 C 1433.19 1.42086 1.86678 0
M  V30 15161 C 1434.2 0.314223 1.71139 0
M  V30 15162 O 1435.38 0.55771 1.93524 0
M  V30 15163 C 1432.45 1.27498 3.22405 0
M  V30 15164 C 1431.51 2.48243 3.50248 0
M  V30 15165 C 1430.74 2.34342 4.79499 0
M  V30 15166 O 1430.96 1.35355 5.54108 0
M  V30 15167 O 1429.9 3.23579 5.07523 0
M  V30 15168 H 1433.72 2.38571 1.87929 0
M  V30 15169 H 1431.31 1.21314 0.871968 0
M  V30 15170 H 1433.19 1.21543 4.03491 0
M  V30 15171 H 1431.86 0.341141 3.21897 0
M  V30 15172 H 1430.77 2.59775 2.69199 0
M  V30 15173 H 1432.1 3.40364 3.55547 0
M  V30 15174 N 1433.76 -0.95397 1.25448 0
M  V30 15175 C 1435.03 -1.67502 1.01008 0
M  V30 15176 C 1435.41 -2.05949 -0.463483 0
M  V30 15177 O 1434.76 -1.77336 -1.44098 0
M  V30 15178 C 1434.97 -2.89679 1.94645 0
M  V30 15179 C 1436.32 -3.61617 2.22526 0
M  V30 15180 O 1437.34 -2.99762 1.92409 0
M  V30 15181 O 1436.2 -4.72998 2.73743 0
M  V30 15182 H 1433.3 -0.732917 0.383094 0
M  V30 15183 H 1435.84 -1.00684 1.36605 0
M  V30 15184 H 1434.62 -2.58063 2.94141 0
M  V30 15185 H 1434.24 -3.64228 1.59449 0
M  V30 15186 N 1435.24 -1.07045 -1.15668 0
M  V30 15187 C 1436.15 -0.699332 -2.23934 0
M  V30 15188 C 1437.16 0.288036 -1.71599 0
M  V30 15189 O 1438.34 0.135447 -2.00944 0
M  V30 15190 C 1435.4 -0.0994775 -3.46557 0
M  V30 15191 C 1434.46 -1.13968 -4.13896 0
M  V30 15192 C 1433.7 -0.56836 -5.30665 0
M  V30 15193 O 1433.92 0.616556 -5.67058 0
M  V30 15194 O 1432.85 -1.31174 -5.87432 0
M  V30 15195 H 1436.68 -1.60212 -2.58003 0
M  V30 15196 H 1434.26 -0.843202 -1.23331 0
M  V30 15197 H 1436.15 0.23293 -4.20756 0
M  V30 15198 H 1434.82 0.776684 -3.14244 0
M  V30 15199 H 1433.73 -1.5244 -3.41633 0
M  V30 15200 H 1435.06 -1.98764 -4.50282 0
M  V30 15201 N 1436.71 1.32449 -0.85411 0
M  V30 15202 C 1437.94 2.01997 -0.470307 0
M  V30 15203 C 1438.36 1.63772 0.925225 0
M  V30 15204 O 1437.72 0.838089 1.60766 0
M  V30 15205 C 1437.77 3.55294 -0.616301 0
M  V30 15206 O 1436.87 4.10902 0.351133 0
M  V30 15207 H 1436.21 0.63651 -0.189079 0
M  V30 15208 H 1438.74 1.69008 -1.15315 0
M  V30 15209 H 1438.75 4.0488 -0.503624 0
M  V30 15210 H 1437.43 3.82459 -1.63396 0
M  V30 15211 H 1436.01 3.72391 0.194741 0
M  V30 15212 N 1438.19 0.611994 1.45232 0
M  V30 15213 C 1439.15 -0.0943825 2.29006 0
M  V30 15214 C 1440.15 -0.790863 1.40007 0
M  V30 15215 O 1441.34 -0.638356 1.62082 0
M  V30 15216 C 1438.48 -1.1439 3.21135 0
M  V30 15217 H 1439.67 0.6422 2.92943 0
M  V30 15218 H 1437.22 0.37124 1.51827 0
M  V30 15219 H 1437.96 -1.9111 2.62007 0
M  V30 15220 H 1437.74 -0.648638 3.86698 0
M  V30 15221 H 1439.23 -1.63848 3.84114 0
M  V30 15222 N 1439.67 -1.53632 0.351409 0
M  V30 15223 C 1440.92 -2.01338 -0.243047 0
M  V30 15224 C 1441.25 -1.23864 -1.4957 0
M  V30 15225 O 1440.52 -0.328412 -1.91707 0
M  V30 15226 C 1440.81 -3.55886 -0.549284 0
M  V30 15227 C 1440.66 -4.44064 0.716016 0
M  V30 15228 C 1441.98 -4.18699 -1.35569 0
M  V30 15229 H 1439.1 -0.731863 -0.0868627 0
M  V30 15230 H 1441.74 -1.84005 0.473501 0
M  V30 15231 H 1439.89 -3.70787 -1.15972 0
M  V30 15232 H 1441.56 -4.40987 1.35383 0
M  V30 15233 H 1439.8 -4.12608 1.3393 0
M  V30 15234 H 1440.48 -5.50106 0.456895 0
M  V30 15235 H 1442.95 -4.07545 -0.839441 0
M  V30 15236 H 1441.83 -5.26892 -1.53871 0
M  V30 15237 H 1442.09 -3.73834 -2.3601 0
M  V30 15238 N 1441.15 -0.0802183 -1.57396 0
M  V30 15239 C 1442.4 0.585802 -1.93424 0
M  V30 15240 C 1442.72 1.69638 -0.961662 0
M  V30 15241 O 1441.99 1.95897 -0.011202 0
M  V30 15242 H 1440.57 0.219382 -0.714059 0
M  V30 15243 H 1443.23 -0.140055 -1.94396 0
M  V30 15244 H 1442.32 1.00566 -2.95454 0
M  V30 15245 N 1442.63 1.56409 0.193394 0
M  V30 15246 C 1443.59 1.93822 1.22334 0
M  V30 15247 C 1444.59 0.819513 1.3835 0
M  V30 15248 O 1445.78 1.0869 1.36132 0
M  V30 15249 C 1442.91 2.21375 2.59241 0
M  V30 15250 H 1444.1 2.85967 0.903502 0
M  V30 15251 H 1441.66 1.50125 0.43498 0
M  V30 15252 H 1442.39 1.31874 2.96277 0
M  V30 15253 H 1442.18 3.02899 2.48988 0
M  V30 15254 H 1443.67 2.51319 3.33509 0
M  V30 15255 N 1444.1 -0.461169 1.50702 0
M  V30 15256 C 1445.38 -1.22225 1.52711 0
M  V30 15257 C 1445.76 -2.09268 0.27749 0
M  V30 15258 O 1445.11 -2.16232 -0.738642 0
M  V30 15259 C 1445.32 -2.04472 2.82829 0
M  V30 15260 C 1446.67 -2.62326 3.33872 0
M  V30 15261 O 1447.69 -2.14706 2.84218 0
M  V30 15262 O 1446.55 -3.49116 4.20453 0
M  V30 15263 H 1443.64 -0.555168 0.612958 0
M  V30 15264 H 1446.19 -0.47218 1.62999 0
M  V30 15265 H 1444.96 -1.40392 3.65247 0
M  V30 15266 H 1444.58 -2.86593 2.75591 0
M  V30 15267 N 1445.58 -1.40446 -0.715026 0
M  V30 15268 C 1446.53 -1.40756 -1.82911 0
M  V30 15269 C 1447.5 -0.264443 -1.63981 0
M  V30 15270 O 1448.68 -0.462589 -1.85107 0
M  V30 15271 C 1445.82 -1.27648 -3.20624 0
M  V30 15272 C 1444.94 -2.5167 -3.51121 0
M  V30 15273 C 1444.07 -2.31 -4.78344 0
M  V30 15274 C 1443.11 -3.50596 -5.01746 0
M  V30 15275 N 1442.25 -3.29117 -6.20183 0
M  V30 15276 H 1447.09 -2.35981 -1.8198 0
M  V30 15277 H 1444.62 -1.17201 -0.888951 0
M  V30 15278 H 1446.58 -1.18054 -4.00149 0
M  V30 15279 H 1445.21 -0.360419 -3.20782 0
M  V30 15280 H 1444.26 -2.7179 -2.66147 0
M  V30 15281 H 1445.58 -3.4069 -3.64324 0
M  V30 15282 H 1444.73 -2.18763 -5.65887 0
M  V30 15283 H 1443.47 -1.39406 -4.67351 0
M  V30 15284 H 1442.47 -3.63309 -4.12658 0
M  V30 15285 H 1443.7 -4.43117 -5.14611 0
M  V30 15286 H 1441.65 -2.40206 -6.1044 0
M  V30 15287 H 1441.56 -4.11702 -6.34064 0
M  V30 15288 H 1442.83 -3.20614 -7.10512 0
M  V30 15289 N 1447.06 0.947303 -1.25952 0
M  V30 15290 C 1448.31 1.68721 -1.10527 0
M  V30 15291 C 1448.62 1.92403 0.352215 0
M  V30 15292 O 1449.83 2.6416 0.627036 0
M  V30 15293 C 1448.28 3.03785 -1.92983 0
M  V30 15294 C 1447.89 2.87873 -3.43268 0
M  V30 15295 C 1449.64 3.81509 -1.86149 0
M  V30 15296 C 1447.54 4.18373 -4.17993 0
M  V30 15297 H 1446.47 0.632774 -0.410016 0
M  V30 15298 H 1449.12 1.054 -1.5021 0
M  V30 15299 H 1447.51 3.68052 -1.46128 0
M  V30 15300 H 1448.68 2.32493 -3.97848 0
M  V30 15301 H 1446.99 2.23598 -3.51273 0
M  V30 15302 H 1449.59 4.78179 -2.39267 0
M  V30 15303 H 1449.93 4.07923 -0.83091 0
M  V30 15304 H 1450.47 3.24005 -2.30794 0
M  V30 15305 H 1447.21 3.97145 -5.21494 0
M  V30 15306 H 1446.73 4.7349 -3.68194 0
M  V30 15307 H 1448.41 4.86869 -4.26108 0
M  V30 15308 N 1448.54 1.07657 1.15099 0
M  V30 15309 C 1449.47 0.657598 2.19564 0
M  V30 15310 C 1450.48 -0.29146 1.6017 0
M  V30 15311 O 1451.67 -0.0802981 1.78319 0
M  V30 15312 C 1448.77 -0.0542221 3.38857 0
M  V30 15313 C 1447.95 0.911803 4.27791 0
M  V30 15314 C 1447 0.236709 5.25667 0
M  V30 15315 O 1446.03 0.878731 5.62376 0
M  V30 15316 N 1447.23 -1.01641 5.71532 0
M  V30 15317 H 1450 1.55626 2.56126 0
M  V30 15318 H 1447.56 0.961657 1.30245 0
M  V30 15319 H 1449.55 -0.516603 4.01389 0
M  V30 15320 H 1448.12 -0.854871 3.00684 0
M  V30 15321 H 1447.34 1.55322 3.6231 0
M  V30 15322 H 1448.63 1.56667 4.8408 0
M  V30 15323 H 1448.03 -1.55791 5.43825 0
M  V30 15324 H 1446.58 -1.42242 6.3609 0
M  V30 15325 N 1450.02 -1.31994 0.861122 0
M  V30 15326 C 1450.95 -2.26769 0.255177 0
M  V30 15327 C 1451.93 -1.50701 -0.610574 0
M  V30 15328 O 1453.11 -1.79803 -0.565952 0
M  V30 15329 C 1450.24 -3.32608 -0.639478 0
M  V30 15330 C 1449.28 -4.26223 0.153746 0
M  V30 15331 S 1450.12 -5.13284 1.52643 0
M  V30 15332 C 1451.27 -6.22643 0.637662 0
M  V30 15333 H 1451.51 -2.77815 1.05859 0
M  V30 15334 H 1449.04 -1.39624 0.659126 0
M  V30 15335 H 1451 -3.94063 -1.14999 0
M  V30 15336 H 1449.66 -2.80334 -1.41675 0
M  V30 15337 H 1448.85 -5.01227 -0.527946 0
M  V30 15338 H 1448.45 -3.6922 0.596058 0
M  V30 15339 H 1450.75 -6.77322 -0.155431 0
M  V30 15340 H 1451.69 -6.94945 1.35856 0
M  V30 15341 H 1452.1 -5.64112 0.209134 0
M  V30 15342 N 1451.49 -0.619688 -1.44906 0
M  V30 15343 C 1452.72 -0.126363 -2.06514 0
M  V30 15344 C 1453.14 1.19432 -1.46224 0
M  V30 15345 O 1452.49 1.7301 -0.580851 0
M  V30 15346 C 1452.55 0.00682319 -3.61499 0
M  V30 15347 O 1452.27 -1.26162 -4.19541 0
M  V30 15348 C 1453.77 0.530189 -4.40118 0
M  V30 15349 H 1450.99 -0.0744032 -0.666862 0
M  V30 15350 H 1453.53 -0.850851 -1.85959 0
M  V30 15351 H 1451.69 0.681694 -3.81355 0
M  V30 15352 H 1452.1 -1.09908 -5.12855 0
M  V30 15353 H 1453.57 0.572428 -5.49024 0
M  V30 15354 H 1454.05 1.55494 -4.10753 0
M  V30 15355 H 1454.66 -0.111044 -4.25155 0
M  V30 15356 N 1452.97 1.53444 -0.359552 0
M  V30 15357 C 1454.22 2.02152 0.224969 0
M  V30 15358 C 1454.57 1.24236 1.46912 0
M  V30 15359 O 1453.87 0.325976 1.88807 0
M  V30 15360 C 1454.06 3.5273 0.575863 0
M  V30 15361 C 1453.89 4.45226 -0.63273 0
M  V30 15362 C 1452.66 4.92204 -1.14296 0
M  V30 15363 C 1454.86 4.92058 -1.49611 0
M  V30 15364 N 1452.84 5.68692 -2.31221 0
M  V30 15365 C 1454.21 5.66829 -2.51208 0
M  V30 15366 C 1456.27 4.74141 -1.51969 0
M  V30 15367 C 1454.97 6.25587 -3.55012 0
M  V30 15368 C 1456.99 5.33761 -2.54663 0
M  V30 15369 C 1456.36 6.08412 -3.54984 0
M  V30 15370 H 1452.46 0.780693 0.0451987 0
M  V30 15371 H 1455.04 1.88097 -0.502735 0
M  V30 15372 H 1453.21 3.66958 1.27265 0
M  V30 15373 H 1454.94 3.88166 1.14495 0
M  V30 15374 H 1451.7 4.6827 -0.70853 0
M  V30 15375 H 1452.12 6.116 -2.90301 0
M  V30 15376 H 1456.76 4.15956 -0.757639 0
M  V30 15377 H 1454.48 6.82871 -4.32102 0
M  V30 15378 H 1458.07 5.21795 -2.57334 0
M  V30 15379 H 1456.95 6.53724 -4.33145 0
M  V30 15380 N 1454.45 0.0885642 1.57351 0
M  V30 15381 C 1455.68 -0.585238 1.9845 0
M  V30 15382 C 1456.09 -1.62127 0.967483 0
M  V30 15383 O 1455.45 -1.82448 -0.0437565 0
M  V30 15384 C 1455.5 -1.23881 3.39611 0
M  V30 15385 O 1455.22 -0.244223 4.37419 0
M  V30 15386 C 1456.72 -1.99885 3.95678 0
M  V30 15387 H 1453.94 -0.157396 0.652279 0
M  V30 15388 H 1456.49 0.165923 2.03826 0
M  V30 15389 H 1454.64 -1.94094 3.3527 0
M  V30 15390 H 1455.06 -0.715149 5.19602 0
M  V30 15391 H 1456.53 -2.40983 4.9662 0
M  V30 15392 H 1457.01 -2.8621 3.33137 0
M  V30 15393 H 1457.61 -1.34501 4.03472 0
M  V30 15394 N 1455.93 -1.56509 -0.185096 0
M  V30 15395 C 1457.34 -1.50318 -0.536334 0
M  V30 15396 C 1457.54 -0.790387 -1.85351 0
M  V30 15397 O 1456.6 -0.345039 -2.50131 0
M  V30 15398 C 1457.91 -2.95017 -0.581825 0
M  V30 15399 C 1459.46 -3.05746 -0.669974 0
M  V30 15400 C 1459.94 -4.51876 -0.746485 0
M  V30 15401 N 1461.43 -4.56067 -0.809746 0
M  V30 15402 C 1462.16 -5.66462 -0.889286 0
M  V30 15403 N 1461.66 -6.86523 -0.930509 0
M  V30 15404 N 1463.45 -5.54399 -0.927246 0
M  V30 15405 H 1455.6 -2.01262 0.678778 0
M  V30 15406 H 1457.87 -0.916313 0.243054 0
M  V30 15407 H 1457.57 -3.50268 0.317089 0
M  V30 15408 H 1457.45 -3.48916 -1.43309 0
M  V30 15409 H 1459.83 -2.50538 -1.55932 0
M  V30 15410 H 1459.91 -2.54955 0.207689 0
M  V30 15411 H 1459.56 -5.07711 0.138546 0
M  V30 15412 H 1459.49 -5.00408 -1.6401 0
M  V30 15413 H 1461.98 -3.6962 -0.786729 0
M  V30 15414 H 1462.29 -7.66407 -0.991992 0
M  V30 15415 H 1460.64 -6.89161 -0.899017 0
M  V30 15416 H 1463.83 -4.59524 -0.891947 0
M  V30 15417 H 1464 -6.40458 -0.985773 0
M  V30 15418 N 1457.41 0.45317 -1.50944 0
M  V30 15419 C 1458.68 1.21413 -1.53357 0
M  V30 15420 C 1459.06 2.09118 -0.288584 0
M  V30 15421 O 1458.41 2.16621 0.727164 0
M  V30 15422 C 1458.62 2.02969 -2.83909 0
M  V30 15423 C 1459.97 2.60551 -3.35258 0
M  V30 15424 O 1460.99 2.13196 -2.85353 0
M  V30 15425 O 1459.85 3.46881 -4.22298 0
M  V30 15426 H 1456.95 0.551909 -0.615894 0
M  V30 15427 H 1459.49 0.463529 -1.63247 0
M  V30 15428 H 1458.26 1.38453 -3.65987 0
M  V30 15429 H 1457.89 2.85127 -2.77107 0
M  V30 15430 N 1458.88 1.40823 0.707568 0
M  V30 15431 C 1459.83 1.41724 1.82162 0
M  V30 15432 C 1460.8 0.273135 1.63839 0
M  V30 15433 O 1461.99 0.472399 1.84859 0
M  V30 15434 C 1459.13 1.29347 3.19943 0
M  V30 15435 C 1458.24 2.53529 3.49782 0
M  V30 15436 C 1457.37 2.33533 4.77112 0
M  V30 15437 C 1456.41 3.53252 4.9988 0
M  V30 15438 N 1455.55 3.32401 6.18429 0
M  V30 15439 H 1460.39 2.36943 1.80726 0
M  V30 15440 H 1457.93 1.17671 0.882723 0
M  V30 15441 H 1459.89 1.20175 3.99517 0
M  V30 15442 H 1458.52 0.377426 3.20586 0
M  V30 15443 H 1457.57 2.73198 2.64702 0
M  V30 15444 H 1458.88 3.42617 3.62512 0
M  V30 15445 H 1458.03 2.2176 5.64719 0
M  V30 15446 H 1456.77 1.41883 4.66605 0
M  V30 15447 H 1455.78 3.65492 4.10725 0
M  V30 15448 H 1457 4.4584 5.12253 0
M  V30 15449 H 1454.95 2.4344 6.09158 0
M  V30 15450 H 1454.87 4.15059 6.31872 0
M  V30 15451 H 1456.13 3.24377 7.08802 0
M  V30 15452 N 1460.36 -0.94061 1.26453 0
M  V30 15453 C 1461.59 -1.71874 1.14643 0
M  V30 15454 C 1462 -1.86791 -0.300969 0
M  V30 15455 O 1461.34 -1.37529 -1.21784 0
M  V30 15456 C 1461.41 -3.14408 1.74321 0
M  V30 15457 C 1461.07 -3.22873 3.23422 0
M  V30 15458 C 1462.07 -3.06107 4.20231 0
M  V30 15459 C 1459.75 -3.46245 3.63895 0
M  V30 15460 C 1461.75 -3.12581 5.55492 0
M  V30 15461 C 1459.43 -3.52354 4.99289 0
M  V30 15462 C 1460.43 -3.35539 5.94897 0
M  V30 15463 O 1460.12 -3.41357 7.27826 0
M  V30 15464 H 1459.85 -0.544931 0.400033 0
M  V30 15465 H 1462.4 -1.18767 1.67581 0
M  V30 15466 H 1460.63 -3.6894 1.15846 0
M  V30 15467 H 1462.32 -3.74135 1.57409 0
M  V30 15468 H 1463.09 -2.87906 3.90302 0
M  V30 15469 H 1458.97 -3.58389 2.89962 0
M  V30 15470 H 1462.51 -2.99374 6.30096 0
M  V30 15471 H 1458.41 -3.70077 5.2888 0
M  V30 15472 H 1459.18 -3.57897 7.36106 0
M  V30 15473 N 1461.84 -1.08266 -1.14527 0
M  V30 15474 C 1462.77 -0.655392 -2.18586 0
M  V30 15475 C 1463.75 0.332109 -1.59172 0
M  V30 15476 O 1464.94 0.236315 -1.87013 0
M  V30 15477 C 1462.06 0.0362295 -3.38681 0
M  V30 15478 C 1461.11 -0.91119 -4.16653 0
M  V30 15479 S 1461.94 -2.4171 -4.77846 0
M  V30 15480 C 1463.1 -1.73755 -6.01299 0
M  V30 15481 H 1463.33 -1.53694 -2.54491 0
M  V30 15482 H 1460.86 -0.897499 -1.25636 0
M  V30 15483 H 1462.82 0.428996 -4.08252 0
M  V30 15484 H 1461.48 0.894253 -3.01101 0
M  V30 15485 H 1460.68 -0.374143 -5.02609 0
M  V30 15486 H 1460.28 -1.24478 -3.52677 0
M  V30 15487 H 1462.57 -1.05465 -6.69241 0
M  V30 15488 H 1463.51 -2.5758 -6.59589 0
M  V30 15489 H 1463.92 -1.21153 -5.51346 0
M  V30 15490 N 1463.32 1.31536 -0.86811 0
M  V30 15491 C 1464.55 2.00952 -0.492529 0
M  V30 15492 C 1464.96 1.65174 0.914487 0
M  V30 15493 O 1464.32 0.880002 1.59882 0
M  V30 15494 C 1464.37 3.55829 -0.637798 0
M  V30 15495 O 1464.09 3.90326 -1.9894 0
M  V30 15496 C 1465.59 4.42519 -0.262986 0
M  V30 15497 H 1462.81 0.642913 -0.192105 0
M  V30 15498 H 1465.36 1.6781 -1.16876 0
M  V30 15499 H 1463.51 3.87399 -0.0091406 0
M  V30 15500 H 1463.93 4.85043 -1.99583 0
M  V30 15501 H 1465.4 5.50433 -0.415591 0
M  V30 15502 H 1465.88 4.31895 0.797705 0
M  V30 15503 H 1466.48 4.16363 -0.867268 0
M  V30 15504 N 1464.8 0.627364 1.44575 0
M  V30 15505 C 1465.71 -0.0811184 2.3446 0
M  V30 15506 C 1466.72 -0.839668 1.52399 0
M  V30 15507 O 1467.9 -0.792784 1.8514 0
M  V30 15508 C 1464.96 -1.05296 3.30323 0
M  V30 15509 C 1464.03 -0.294201 4.28291 0
M  V30 15510 C 1463.26 -1.21975 5.19575 0
M  V30 15511 O 1463.48 -2.45834 5.14706 0
M  V30 15512 O 1462.42 -0.70611 5.97744 0
M  V30 15513 H 1466.24 0.658067 2.96485 0
M  V30 15514 H 1463.83 0.387565 1.44285 0
M  V30 15515 H 1465.71 -1.61218 3.89341 0
M  V30 15516 H 1464.38 -1.77283 2.70837 0
M  V30 15517 H 1463.29 0.307969 3.7283 0
M  V30 15518 H 1464.62 0.385567 4.90687 0
M  V30 15519 N 1466.28 -1.53251 0.367684 0
M  V30 15520 C 1467.5 -2.05705 -0.222047 0
M  V30 15521 C 1467.92 -1.24104 -1.4228 0
M  V30 15522 O 1467.28 -0.282228 -1.80305 0
M  V30 15523 C 1467.33 -3.56257 -0.613475 0
M  V30 15524 O 1467.05 -4.34765 0.539558 0
M  V30 15525 C 1468.55 -4.24976 -1.26137 0
M  V30 15526 H 1465.77 -0.66989 -0.0385799 0
M  V30 15527 H 1468.31 -1.97602 0.526663 0
M  V30 15528 H 1466.47 -3.64503 -1.3121 0
M  V30 15529 H 1466.88 -5.24027 0.222699 0
M  V30 15530 H 1468.36 -5.31628 -1.4858 0
M  V30 15531 H 1468.83 -3.78828 -2.2223 0
M  V30 15532 H 1469.44 -4.20987 -0.604121 0
M  V30 15533 N 1467.75 -0.0969077 -1.57302 0
M  V30 15534 C 1469 0.561074 -1.95508 0
M  V30 15535 C 1469.35 1.6568 -0.97816 0
M  V30 15536 O 1468.65 1.91599 -0.00445428 0
M  V30 15537 C 1468.84 1.15972 -3.38061 0
M  V30 15538 C 1468.67 0.123524 -4.4953 0
M  V30 15539 C 1467.44 -0.30062 -5.04405 0
M  V30 15540 C 1469.64 -0.649001 -5.10189 0
M  V30 15541 N 1467.62 -1.3249 -5.99433 0
M  V30 15542 C 1468.99 -1.52506 -6.00951 0
M  V30 15543 C 1471.05 -0.70232 -4.92922 0
M  V30 15544 C 1469.75 -2.44976 -6.76298 0
M  V30 15545 C 1471.78 -1.61463 -5.68932 0
M  V30 15546 C 1471.14 -2.47831 -6.59363 0
M  V30 15547 H 1467.24 0.175591 -0.762031 0
M  V30 15548 H 1469.82 -0.179896 -1.93867 0
M  V30 15549 H 1467.99 1.87051 -3.40392 0
M  V30 15550 H 1469.72 1.78022 -3.63442 0
M  V30 15551 H 1466.48 0.0874763 -4.73519 0
M  V30 15552 H 1466.9 -1.8353 -6.51648 0
M  V30 15553 H 1471.54 -0.0487412 -4.22772 0
M  V30 15554 H 1469.26 -3.11358 -7.45709 0
M  V30 15555 H 1472.85 -1.66104 -5.57585 0
M  V30 15556 H 1471.73 -3.17278 -7.1715 0
M  V30 15557 N 1469.23 1.56605 0.176793 0
M  V30 15558 C 1470.51 1.72546 0.921261 0
M  V30 15559 C 1470.89 0.656794 2.00623 0
M  V30 15560 O 1470.24 -0.329303 2.26115 0
M  V30 15561 C 1470.45 3.15548 1.491 0
M  V30 15562 C 1471.79 3.7634 1.96604 0
M  V30 15563 O 1472.82 3.18791 1.58905 0
M  V30 15564 O 1471.68 4.77377 2.66033 0
M  V30 15565 H 1468.77 0.704425 0.43326 0
M  V30 15566 H 1471.32 1.68895 0.165052 0
M  V30 15567 H 1470.09 3.84808 0.709839 0
M  V30 15568 H 1469.71 3.23502 2.31154 0
M  V30 15569 N 1470.71 -0.445159 1.51182 0
M  V30 15570 C 1472.12 -1.02528 1.56028 0
M  V30 15571 C 1472.47 -1.92503 0.379087 0
M  V30 15572 O 1471.6 -2.10424 -0.505056 0
M  V30 15573 C 1472.19 -1.86621 2.82768 0
M  V30 15574 C 1470.75 -2.39697 2.90211 0
M  V30 15575 C 1469.9 -1.18705 2.50608 0
M  V30 15576 H 1472.85 -0.226732 1.57072 0
M  V30 15577 H 1472.87 -2.71987 2.66089 0
M  V30 15578 H 1472.38 -1.2111 3.68719 0
M  V30 15579 H 1470.48 -3.08686 2.08672 0
M  V30 15580 H 1470.6 -2.73029 3.9369 0
M  V30 15581 H 1468.96 -1.52995 2.03629 0
M  V30 15582 H 1469.74 -0.548156 3.38895 0
M  V30 15583 N 1472.19 -1.41197 -0.700089 0
M  V30 15584 C 1473.41 -1.43856 -1.494 0
M  V30 15585 C 1473.84 -0.0441877 -1.88048 0
M  V30 15586 O 1473.2 0.951503 -1.54325 0
M  V30 15587 C 1473.24 -2.34913 -2.73584 0
M  V30 15588 O 1472.35 -1.80305 -3.70896 0
M  V30 15589 H 1471.69 -0.488412 -0.449833 0
M  V30 15590 H 1474.22 -1.85606 -0.860911 0
M  V30 15591 H 1474.23 -2.50633 -3.21943 0
M  V30 15592 H 1472.9 -3.36229 -2.44791 0
M  V30 15593 H 1471.48 -1.74012 -3.29809 0
M  V30 15594 N 1473.67 0.933891 -1.2695 0
M  V30 15595 C 1474.62 2.01966 -1.05801 0
M  V30 15596 C 1475.6 1.60896 0.0119868 0
M  V30 15597 O 1476.79 1.75799 -0.205827 0
M  V30 15598 C 1473.92 3.36073 -0.700695 0
M  V30 15599 C 1473.01 3.83606 -1.80852 0
M  V30 15600 N 1473.4 4.03713 -3.04712 0
M  V30 15601 C 1471.7 4.12586 -1.69378 0
M  V30 15602 C 1472.4 4.43199 -3.76762 0
M  V30 15603 N 1471.37 4.50319 -3.0449 0
M  V30 15604 H 1475.17 2.15534 -1.99806 0
M  V30 15605 H 1472.69 1.12027 -1.17574 0
M  V30 15606 H 1474.69 4.13513 -0.530316 0
M  V30 15607 H 1473.35 3.23872 0.231801 0
M  V30 15608 H 1474.36 3.90196 -3.4054 0
M  V30 15609 H 1471.03 4.09132 -0.831695 0
M  V30 15610 H 1472.42 4.66887 -4.83184 0
M  V30 15611 N 1475.14 1.08871 1.13951 0
M  V30 15612 C 1476.11 0.726655 2.17376 0
M  V30 15613 C 1477.11 -0.240922 1.58985 0
M  V30 15614 O 1478.3 -0.0198472 1.74189 0
M  V30 15615 C 1475.43 0.0736505 3.4082 0
M  V30 15616 H 1476.62 1.64254 2.5092 0
M  V30 15617 H 1474.17 0.887183 1.28681 0
M  V30 15618 H 1474.91 -0.853733 3.12861 0
M  V30 15619 H 1474.69 0.769782 3.84469 0
M  V30 15620 H 1476.18 -0.164465 4.17276 0
M  V30 15621 N 1476.62 -1.31073 0.875073 0
M  V30 15622 C 1478.03 -1.78707 0.540422 0
M  V30 15623 C 1478.38 -1.72056 -0.942935 0
M  V30 15624 O 1477.51 -1.29139 -1.73643 0
M  V30 15625 C 1478.1 -3.24491 0.974203 0
M  V30 15626 C 1476.66 -3.70001 0.691127 0
M  V30 15627 C 1475.81 -2.51748 1.16269 0
M  V30 15628 H 1478.76 -1.18083 1.06029 0
M  V30 15629 H 1478.78 -3.79323 0.299003 0
M  V30 15630 H 1478.29 -3.29301 2.05384 0
M  V30 15631 H 1476.39 -3.70688 -0.376937 0
M  V30 15632 H 1476.51 -4.61913 1.27173 0
M  V30 15633 H 1474.87 -2.47954 0.582302 0
M  V30 15634 H 1475.65 -2.59299 2.24986 0
M  V30 15635 N 1478.1 -0.635022 -1.4424 0
M  V30 15636 C 1479.38 -0.0718064 -1.95468 0
M  V30 15637 C 1479.76 1.40348 -1.57689 0
M  V30 15638 O 1479.11 2.11986 -0.852888 0
M  V30 15639 C 1479.32 -0.298793 -3.47719 0
M  V30 15640 C 1480.66 -0.194056 -4.24156 0
M  V30 15641 O 1481.69 -0.230368 -3.55454 0
M  V30 15642 O 1480.55 -0.102294 -5.46404 0
M  V30 15643 H 1477.64 0.0200784 -0.826756 0
M  V30 15644 H 1480.19 -0.706996 -1.54271 0
M  V30 15645 H 1478.96 -1.32233 -3.6828 0
M  V30 15646 H 1478.58 0.370347 -3.95871 0
M  V30 15647 N 1479.58 1.53054 -0.375806 0
M  V30 15648 C 1480.53 2.27576 0.480838 0
M  V30 15649 C 1481.52 1.30948 1.07466 0
M  V30 15650 O 1482.73 1.48538 1.01669 0
M  V30 15651 H 1479.1 0.731641 0.173799 0
M  V30 15652 H 1481.07 2.97919 -0.169327 0
M  V30 15653 C 1479.82 3.08533 1.60321 0
M  V30 15654 H 1479.14 3.82735 1.15558 0
M  V30 15655 H 1480.58 3.63837 2.17712 0
M  V30 15656 C 1479.04 2.20004 2.55147 0
M  V30 15657 O 1479.57 1.81771 3.58221 0
M  V30 15658 N 1477.78 1.84433 2.24573 0
M  V30 15659 H 1477.33 2.15723 1.40788 0
M  V30 15660 H 1477.28 1.25488 2.88271 0
M  V30 15661 N 1481.06 0.105248 1.57248 0
M  V30 15662 C 1482.3 -0.556054 1.94716 0
M  V30 15663 C 1482.63 -1.67557 0.987669 0
M  V30 15664 O 1481.89 -1.95698 0.00905706 0
M  V30 15665 C 1482.19 -1.14178 3.38671 0
M  V30 15666 C 1481.85 -0.145022 4.50667 0
M  V30 15667 C 1480.51 0.129099 4.81027 0
M  V30 15668 C 1482.87 0.535015 5.18447 0
M  V30 15669 C 1480.19 1.08978 5.7649 0
M  V30 15670 C 1482.55 1.48423 6.14942 0
M  V30 15671 C 1481.21 1.76648 6.43702 0
M  V30 15672 H 1480.48 -0.203475 0.712516 0
M  V30 15673 H 1483.13 0.183237 1.90621 0
M  V30 15674 H 1481.43 -1.95754 3.39393 0
M  V30 15675 H 1483.13 -1.66132 3.64967 0
M  V30 15676 H 1479.72 -0.36886 4.2701 0
M  V30 15677 H 1483.9 0.336391 4.95159 0
M  V30 15678 H 1479.16 1.31535 5.97083 0
M  V30 15679 H 1483.33 2.01693 6.66553 0
M  V30 15680 H 1480.96 2.51245 7.17482 0
M  V30 15681 N 1482.53 -1.56697 -0.168486 0
M  V30 15682 C 1483.95 -1.50879 -0.52036 0
M  V30 15683 C 1484.15 -0.810001 -1.84503 0
M  V30 15684 O 1483.21 -0.371549 -2.49751 0
M  V30 15685 C 1484.52 -2.95618 -0.550502 0
M  V30 15686 C 1486.07 -3.06439 -0.637508 0
M  V30 15687 C 1486.54 -4.52642 -0.698516 0
M  V30 15688 N 1488.03 -4.569 -0.761328 0
M  V30 15689 C 1488.77 -5.67373 -0.829155 0
M  V30 15690 N 1488.26 -6.87471 -0.857642 0
M  V30 15691 N 1490.06 -5.55352 -0.868392 0
M  V30 15692 H 1482.21 -2.00531 0.700087 0
M  V30 15693 H 1484.47 -0.913683 0.252759 0
M  V30 15694 H 1484.18 -3.49912 0.354222 0
M  V30 15695 H 1484.05 -3.50416 -1.396 0
M  V30 15696 H 1486.44 -2.52178 -1.53266 0
M  V30 15697 H 1486.52 -2.54721 0.234719 0
M  V30 15698 H 1486.16 -5.07535 0.192387 0
M  V30 15699 H 1486.09 -5.0212 -1.58693 0
M  V30 15700 H 1488.58 -3.70434 -0.747482 0
M  V30 15701 H 1488.9 -7.67416 -0.910648 0
M  V30 15702 H 1487.24 -6.90076 -0.825872 0
M  V30 15703 H 1490.43 -4.60444 -0.843158 0
M  V30 15704 H 1490.61 -6.41468 -0.917789 0
M  V30 15705 N 1484.01 0.437135 -1.51416 0
M  V30 15706 C 1484.92 1.55581 -1.75589 0
M  V30 15707 C 1485.94 1.61797 -0.640132 0
M  V30 15708 O 1487.11 1.79035 -0.922406 0
M  V30 15709 C 1484.18 2.91561 -1.87598 0
M  V30 15710 C 1483.24 2.9546 -3.11451 0
M  V30 15711 C 1482.47 4.24954 -3.22878 0
M  V30 15712 O 1482.7 5.17341 -2.40238 0
M  V30 15713 O 1481.63 4.35141 -4.15856 0
M  V30 15714 H 1485.46 1.38098 -2.70486 0
M  V30 15715 H 1483.04 0.620163 -1.3592 0
M  V30 15716 H 1484.92 3.72262 -1.97481 0
M  V30 15717 H 1483.6 3.09171 -0.958889 0
M  V30 15718 H 1482.51 2.13713 -3.07046 0
M  V30 15719 H 1483.84 2.82794 -4.0285 0
M  V30 15720 N 1485.49 1.41566 0.692592 0
M  V30 15721 C 1486.42 1.46423 1.81886 0
M  V30 15722 C 1487.4 0.32258 1.67013 0
M  V30 15723 O 1488.59 0.534437 1.86701 0
M  V30 15724 C 1485.72 1.3486 3.20047 0
M  V30 15725 C 1484.67 2.46867 3.49629 0
M  V30 15726 C 1484 2.20369 4.87177 0
M  V30 15727 C 1485.3 3.89205 3.48306 0
M  V30 15728 H 1486.99 2.40683 1.78079 0
M  V30 15729 H 1484.54 1.15845 0.855334 0
M  V30 15730 H 1486.49 1.36869 3.98553 0
M  V30 15731 H 1485.21 0.370859 3.24488 0
M  V30 15732 H 1483.87 2.44146 2.73475 0
M  V30 15733 H 1483.52 1.20931 4.88247 0
M  V30 15734 H 1483.22 2.95426 5.07934 0
M  V30 15735 H 1484.74 2.24099 5.6799 0
M  V30 15736 H 1486.16 3.93626 4.16811 0
M  V30 15737 H 1484.56 4.63969 3.80595 0
M  V30 15738 H 1485.63 4.17144 2.47222 0
M  V30 15739 N 1486.97 -0.927146 1.27443 0
M  V30 15740 C 1488.21 -1.67738 1.13982 0
M  V30 15741 C 1488.55 -1.91653 -0.313511 0
M  V30 15742 O 1487.82 -1.50729 -1.22926 0
M  V30 15743 C 1488.11 -3.04357 1.92454 0
M  V30 15744 C 1487.96 -2.8768 3.45775 0
M  V30 15745 C 1489.28 -4.04696 1.72944 0
M  V30 15746 H 1486.4 -0.608749 0.415444 0
M  V30 15747 H 1489.04 -1.07587 1.56605 0
M  V30 15748 H 1487.19 -3.55702 1.56232 0
M  V30 15749 H 1488.86 -2.43449 3.9183 0
M  V30 15750 H 1487.1 -2.23011 3.72087 0
M  V30 15751 H 1487.77 -3.8464 3.95924 0
M  V30 15752 H 1490.25 -3.62364 2.04528 0
M  V30 15753 H 1489.13 -4.98276 2.30243 0
M  V30 15754 H 1489.39 -4.36878 0.677505 0
M  V30 15755 N 1488.45 -1.09474 -1.13372 0
M  V30 15756 C 1489.4 -0.704018 -2.16858 0
M  V30 15757 C 1490.38 0.281867 -1.58412 0
M  V30 15758 O 1491.57 0.0921582 -1.7676 0
M  V30 15759 C 1488.7 -0.126682 -3.43066 0
M  V30 15760 C 1487.79 -1.13901 -4.08518 0
M  V30 15761 N 1488.18 -2.3263 -4.49129 0
M  V30 15762 C 1486.48 -0.977263 -4.35162 0
M  V30 15763 C 1487.18 -2.9703 -5.00148 0
M  V30 15764 N 1486.15 -2.24588 -4.95037 0
M  V30 15765 H 1489.96 -1.60796 -2.46012 0
M  V30 15766 H 1487.47 -0.97103 -1.30172 0
M  V30 15767 H 1489.47 0.171257 -4.16548 0
M  V30 15768 H 1488.13 0.772105 -3.15386 0
M  V30 15769 H 1489.14 -2.70218 -4.41817 0
M  V30 15770 H 1485.81 -0.1332 -4.17287 0
M  V30 15771 H 1487.2 -3.97966 -5.41362 0
M  V30 15772 N 1489.92 1.30607 -0.882012 0
M  V30 15773 C 1491.17 1.95531 -0.495038 0
M  V30 15774 C 1491.49 1.70418 0.96005 0
M  V30 15775 O 1492.69 2.29301 1.45373 0
M  V30 15776 C 1491.15 3.50094 -0.834382 0
M  V30 15777 C 1490.76 3.84031 -2.30704 0
M  V30 15778 C 1492.5 4.21347 -0.516463 0
M  V30 15779 C 1490.41 5.31759 -2.58817 0
M  V30 15780 H 1489.34 0.731854 -0.181399 0
M  V30 15781 H 1491.99 1.486 -1.07658 0
M  V30 15782 H 1490.37 3.95582 -0.181961 0
M  V30 15783 H 1491.54 3.49463 -3.00353 0
M  V30 15784 H 1489.86 3.25874 -2.5922 0
M  V30 15785 H 1492.46 5.30051 -0.703576 0
M  V30 15786 H 1492.8 4.12731 0.543935 0
M  V30 15787 H 1493.33 3.81533 -1.12595 0
M  V30 15788 H 1490.07 5.45422 -3.63586 0
M  V30 15789 H 1489.59 5.67637 -1.93774 0
M  V30 15790 H 1491.27 5.9916 -2.44165 0
M  V30 15791 N 1491.4 0.642663 1.43901 0
M  V30 15792 C 1492.35 -0.0553351 2.30734 0
M  V30 15793 C 1493.32 -0.825286 1.44147 0
M  V30 15794 O 1494.5 -0.804012 1.73033 0
M  V30 15795 C 1491.64 -1.02306 3.29587 0
M  V30 15796 C 1490.76 -0.250323 4.31274 0
M  V30 15797 C 1489.89 -1.2109 5.17214 0
M  V30 15798 C 1488.93 -0.427984 6.10602 0
M  V30 15799 N 1488.07 -1.33961 6.89202 0
M  V30 15800 H 1492.91 0.691038 2.89877 0
M  V30 15801 H 1490.45 0.352549 1.42813 0
M  V30 15802 H 1492.4 -1.59763 3.85398 0
M  V30 15803 H 1491.03 -1.73643 2.72117 0
M  V30 15804 H 1490.09 0.440359 3.77843 0
M  V30 15805 H 1491.4 0.358937 4.97507 0
M  V30 15806 H 1490.55 -1.85644 5.776 0
M  V30 15807 H 1489.29 -1.85408 4.51082 0
M  V30 15808 H 1488.3 0.230971 5.49315 0
M  V30 15809 H 1489.52 0.210639 6.78773 0
M  V30 15810 H 1487.47 -1.96978 6.25728 0
M  V30 15811 H 1487.38 -0.784655 7.51917 0
M  V30 15812 H 1488.65 -1.97363 7.54101 0
M  V30 15813 N 1492.88 -1.52852 0.383918 0
M  V30 15814 C 1494.29 -1.86477 -0.0912997 0
M  V30 15815 C 1494.64 -1.30382 -1.46611 0
M  V30 15816 O 1493.77 -0.633042 -2.06934 0
M  V30 15817 C 1494.36 -3.38361 -0.172447 0
M  V30 15818 C 1492.92 -3.71716 -0.591948 0
M  V30 15819 C 1492.07 -2.76176 0.24945 0
M  V30 15820 H 1495.02 -1.46839 0.602006 0
M  V30 15821 H 1495.04 -3.67325 -0.992603 0
M  V30 15822 H 1494.55 -3.79158 0.8283 0
M  V30 15823 H 1492.65 -3.36486 -1.60026 0
M  V30 15824 H 1492.77 -4.77792 -0.353835 0
M  V30 15825 H 1491.13 -2.53106 -0.284469 0
M  V30 15826 H 1491.91 -3.19809 1.24808 0
M  V30 15827 N 1494.36 -0.113586 -1.5719 0
M  V30 15828 C 1495.64 0.588987 -1.86522 0
M  V30 15829 C 1496.02 1.85163 -1.01379 0
M  V30 15830 O 1495.36 2.28318 -0.0912188 0
M  V30 15831 C 1495.57 0.886633 -3.3755 0
M  V30 15832 C 1496.92 1.24206 -4.06027 0
M  V30 15833 O 1497.95 0.977068 -3.42537 0
M  V30 15834 O 1496.81 1.73914 -5.18089 0
M  V30 15835 H 1493.9 0.296637 -0.771968 0
M  V30 15836 H 1496.45 -0.147681 -1.69056 0
M  V30 15837 H 1495.22 -0.00835421 -3.91299 0
M  V30 15838 H 1494.84 1.67865 -3.60426 0
M  V30 15839 N 1495.84 1.56784 0.160173 0
M  V30 15840 C 1496.77 1.93848 1.22293 0
M  V30 15841 C 1497.78 0.832803 1.39886 0
M  V30 15842 O 1498.97 1.11124 1.39692 0
M  V30 15843 C 1496.07 2.18581 2.58989 0
M  V30 15844 C 1495.24 3.49839 2.62548 0
M  V30 15845 C 1494.3 3.63268 3.80687 0
M  V30 15846 O 1493.33 4.35785 3.6617 0
M  V30 15847 N 1494.53 2.98948 4.97605 0
M  V30 15848 H 1497.3 2.85614 0.908004 0
M  V30 15849 H 1494.86 1.58075 0.349851 0
M  V30 15850 H 1496.85 2.24819 3.36509 0
M  V30 15851 H 1495.42 1.33145 2.82827 0
M  V30 15852 H 1494.64 3.5516 1.7104 0
M  V30 15853 H 1495.93 4.3619 2.61945 0
M  V30 15854 H 1495.33 2.39924 5.12302 0
M  V30 15855 H 1493.88 3.10765 5.72947 0
M  V30 15856 N 1497.32 -0.429099 1.51646 0
M  V30 15857 C 1498.54 -1.20465 1.68828 0
M  V30 15858 C 1498.97 -1.84044 0.388514 0
M  V30 15859 O 1498.32 -1.69165 -0.652152 0
M  V30 15860 C 1498.37 -2.25831 2.81128 0
M  V30 15861 O 1497.48 -3.31511 2.45305 0
M  V30 15862 H 1496.82 -0.352568 0.562665 0
M  V30 15863 H 1499.35 -0.505698 1.98252 0
M  V30 15864 H 1499.36 -2.70484 3.05455 0
M  V30 15865 H 1498.03 -1.78934 3.7544 0
M  V30 15866 H 1496.61 -2.92277 2.31579 0
M  V30 15867 N 1498.79 -1.41931 -0.685074 0
M  V30 15868 C 1499.74 -1.44824 -1.82013 0
M  V30 15869 C 1500.74 -0.325083 -1.66252 0
M  V30 15870 O 1501.94 -0.497614 -1.72985 0
M  V30 15871 H 1498.32 -0.453362 -0.599972 0
M  V30 15872 H 1500.29 -2.40464 -1.76691 0
M  V30 15873 C 1499.04 -1.35753 -3.20104 0
M  V30 15874 H 1498.36 -2.21469 -3.32854 0
M  V30 15875 H 1499.8 -1.41838 -3.99572 0
M  V30 15876 C 1498.26 -0.0710816 -3.36825 0
M  V30 15877 O 1498.79 0.880155 -3.91939 0
M  V30 15878 N 1496.99 0.00842652 -2.90599 0
M  V30 15879 H 1496.54 -0.766427 -2.45934 0
M  V30 15880 H 1496.5 0.868559 -3.02165 0
M  V30 15881 N 1500.27 0.920374 -1.27933 0
M  V30 15882 C 1501.52 1.67131 -1.1487 0
M  V30 15883 C 1501.85 1.91816 0.303343 0
M  V30 15884 O 1501.13 1.51379 1.22125 0
M  V30 15885 C 1501.41 3.03332 -1.94066 0
M  V30 15886 C 1501.26 2.85842 -3.47296 0
M  V30 15887 C 1502.58 4.03773 -1.75087 0
M  V30 15888 H 1499.7 0.606537 -0.418666 0
M  V30 15889 H 1502.34 1.06755 -1.57173 0
M  V30 15890 H 1500.49 3.54869 -1.58116 0
M  V30 15891 H 1502.16 2.41367 -3.93115 0
M  V30 15892 H 1500.41 2.21035 -3.73264 0
M  V30 15893 H 1501.08 3.82535 -3.97958 0
M  V30 15894 H 1503.55 3.61274 -2.06447 0
M  V30 15895 H 1502.43 4.97048 -2.32882 0
M  V30 15896 H 1502.69 4.36512 -0.700665 0
M  V30 15897 N 1501.75 1.10074 1.1279 0
M  V30 15898 C 1503.17 0.831776 1.36212 0
M  V30 15899 C 1503.37 -0.550632 1.93831 0
M  V30 15900 O 1502.42 -1.30422 2.16209 0
M  V30 15901 C 1503.73 1.92844 2.3072 0
M  V30 15902 C 1505.28 1.95645 2.4432 0
M  V30 15903 C 1505.76 3.04474 3.4214 0
M  V30 15904 N 1507.25 3.03756 3.49695 0
M  V30 15905 C 1507.98 3.84605 4.25284 0
M  V30 15906 N 1507.48 4.7538 5.0397 0
M  V30 15907 N 1509.27 3.72838 4.20652 0
M  V30 15908 H 1501.42 1.99187 0.737452 0
M  V30 15909 H 1503.69 0.865383 0.387062 0
M  V30 15910 H 1503.39 2.92323 1.9555 0
M  V30 15911 H 1503.27 1.81241 3.30805 0
M  V30 15912 H 1505.65 0.968004 2.78772 0
M  V30 15913 H 1505.73 2.11325 1.44136 0
M  V30 15914 H 1505.38 4.03536 3.08418 0
M  V30 15915 H 1505.31 2.86036 4.42144 0
M  V30 15916 H 1507.8 2.37977 2.93556 0
M  V30 15917 H 1508.11 5.33637 5.58974 0
M  V30 15918 H 1506.46 4.79411 5.0318 0
M  V30 15919 H 1509.65 3.01276 3.5826 0
M  V30 15920 H 1509.82 4.36083 4.79308 0
M  V30 15921 N 1503.23 -1.30138 0.888926 0
M  V30 15922 C 1504.64 -1.48552 0.583486 0
M  V30 15923 C 1504.84 -1.81376 -0.877781 0
M  V30 15924 O 1503.9 -1.90374 -1.65873 0
M  V30 15925 C 1505.21 -2.60613 1.50004 0
M  V30 15926 C 1506.76 -2.74493 1.50409 0
M  V30 15927 C 1507.24 -3.89672 2.40666 0
M  V30 15928 N 1508.73 -3.96988 2.38652 0
M  V30 15929 C 1509.46 -4.85429 3.05199 0
M  V30 15930 N 1508.96 -5.78638 3.80985 0
M  V30 15931 N 1510.75 -4.78831 2.9441 0
M  V30 15932 H 1502.9 -1.07105 1.83418 0
M  V30 15933 H 1505.16 -0.530991 0.785336 0
M  V30 15934 H 1504.87 -2.43191 2.54069 0
M  V30 15935 H 1504.74 -3.5718 1.21254 0
M  V30 15936 H 1507.13 -2.91318 0.470933 0
M  V30 15937 H 1507.21 -1.78535 1.83191 0
M  V30 15938 H 1506.86 -3.73603 3.44069 0
M  V30 15939 H 1506.79 -4.84975 2.05198 0
M  V30 15940 H 1509.28 -3.30313 1.83581 0
M  V30 15941 H 1509.59 -6.42894 4.28844 0
M  V30 15942 H 1507.94 -5.78558 3.85092 0
M  V30 15943 H 1511.13 -4.04995 2.34727 0
M  V30 15944 H 1511.3 -5.47547 3.46549 0
M  V30 15945 N 1504.71 -0.650285 -1.43559 0
M  V30 15946 C 1505.64 0.0927934 -2.28011 0
M  V30 15947 C 1506.62 0.832739 -1.39657 0
M  V30 15948 O 1507.8 0.832912 -1.691 0
M  V30 15949 C 1504.93 1.13806 -3.19008 0
M  V30 15950 C 1503.97 0.496488 -4.236 0
M  V30 15951 S 1504.81 -0.727765 -5.30532 0
M  V30 15952 C 1505.96 0.317035 -6.25097 0
M  V30 15953 H 1506.2 -0.623605 -2.90686 0
M  V30 15954 H 1503.73 -0.439032 -1.48027 0
M  V30 15955 H 1505.69 1.73612 -3.7198 0
M  V30 15956 H 1504.35 1.82676 -2.55516 0
M  V30 15957 H 1503.54 1.28436 -4.87361 0
M  V30 15958 H 1503.14 -0.0273975 -3.7399 0
M  V30 15959 H 1505.43 1.18408 -6.67073 0
M  V30 15960 H 1506.38 -0.285468 -7.07524 0
M  V30 15961 H 1506.79 0.651527 -5.60728 0
M  V30 15962 N 1506.18 1.52647 -0.392018 0
M  V30 15963 C 1507.13 2.23336 0.458815 0
M  V30 15964 C 1508.12 1.23825 1.02743 0
M  V30 15965 O 1509.31 1.49148 0.953089 0
M  V30 15966 C 1506.44 3.04566 1.58412 0
M  V30 15967 C 1505.52 4.11474 1.02711 0
M  V30 15968 N 1505.92 5.05423 0.195282 0
M  V30 15969 C 1504.21 4.26654 1.29934 0
M  V30 15970 C 1504.91 5.81591 -0.112738 0
M  V30 15971 N 1503.89 5.4137 0.491926 0
M  V30 15972 H 1507.69 2.93328 -0.183222 0
M  V30 15973 H 1505.21 1.61145 -0.201476 0
M  V30 15974 H 1507.2 3.53747 2.2061 0
M  V30 15975 H 1505.86 2.36109 2.22896 0
M  V30 15976 H 1506.87 5.17628 -0.167677 0
M  V30 15977 H 1503.55 3.69426 1.94501 0
M  V30 15978 H 1504.94 6.67276 -0.786879 0
M  V30 15979 N 1507.66 0.121921 1.57128 0
M  V30 15980 C 1508.89 -0.543012 1.99647 0
M  V30 15981 C 1509.31 -1.60038 1.00165 0
M  V30 15982 O 1508.66 -1.82499 -0.00504688 0
M  V30 15983 C 1508.71 -1.1665 3.42162 0
M  V30 15984 O 1508.43 -0.151385 4.37838 0
M  V30 15985 C 1509.94 -1.91447 3.99829 0
M  V30 15986 H 1507.16 -0.143524 0.655471 0
M  V30 15987 H 1509.7 0.20912 2.03428 0
M  V30 15988 H 1507.85 -1.86939 3.39312 0
M  V30 15989 H 1508.27 -0.604773 5.21002 0
M  V30 15990 H 1509.74 -2.30394 5.0162 0
M  V30 15991 H 1510.22 -2.7908 3.39133 0
M  V30 15992 H 1510.83 -1.25913 4.06234 0
M  V30 15993 N 1509.14 -1.56867 -0.151857 0
M  V30 15994 C 1510.1 -1.96997 -1.17152 0
M  V30 15995 C 1511.1 -0.855905 -1.36128 0
M  V30 15996 O 1512.29 -1.12261 -1.33203 0
M  V30 15997 C 1509.43 -2.28171 -2.5328 0
M  V30 15998 H 1510.62 -2.88261 -0.827365 0
M  V30 15999 H 1508.17 -1.51226 -0.395024 0
M  V30 16000 H 1508.91 -1.39683 -2.92676 0
M  V30 16001 H 1508.69 -3.09394 -2.40869 0
M  V30 16002 H 1510.18 -2.60073 -3.26729 0
M  V30 16003 N 1510.62 0.421051 -1.51871 0
M  V30 16004 C 1511.86 1.17082 -1.65589 0
M  V30 16005 C 1512.2 1.90469 -0.378861 0
M  V30 16006 O 1511.47 1.84277 0.622259 0
M  V30 16007 C 1511.76 2.17483 -2.87007 0
M  V30 16008 C 1511.61 1.48071 -4.24729 0
M  V30 16009 C 1512.93 3.18288 -3.03942 0
M  V30 16010 H 1510.05 0.424284 -0.602621 0
M  V30 16011 H 1512.69 0.457998 -1.84397 0
M  V30 16012 H 1510.84 2.78273 -2.71102 0
M  V30 16013 H 1512.51 0.904926 -4.52337 0
M  V30 16014 H 1510.75 0.782814 -4.26678 0
M  V30 16015 H 1511.42 2.21272 -5.0571 0
M  V30 16016 H 1513.9 2.67565 -3.18666 0
M  V30 16017 H 1512.78 3.85815 -3.90433 0
M  V30 16018 H 1513.04 3.85333 -2.16728 0
M  V30 16019 N 1512.1 1.42293 0.677538 0
M  V30 16020 C 1513.04 1.45556 1.79114 0
M  V30 16021 C 1514.01 0.307826 1.63223 0
M  V30 16022 O 1515.2 0.511504 1.83816 0
M  V30 16023 C 1512.34 1.36104 3.17127 0
M  V30 16024 C 1511.45 2.60891 3.44325 0
M  V30 16025 C 1510.59 2.43601 4.72051 0
M  V30 16026 C 1509.63 3.63775 4.92274 0
M  V30 16027 N 1508.76 3.45444 6.11239 0
M  V30 16028 H 1513.6 2.40723 1.7566 0
M  V30 16029 H 1511.14 1.19517 0.857565 0
M  V30 16030 H 1513.1 1.28622 3.96878 0
M  V30 16031 H 1511.73 0.445342 3.19713 0
M  V30 16032 H 1510.78 2.78751 2.58848 0
M  V30 16033 H 1512.09 3.50229 3.55163 0
M  V30 16034 H 1511.25 2.33689 5.59888 0
M  V30 16035 H 1509.98 1.51748 4.63491 0
M  V30 16036 H 1508.99 3.74122 4.0288 0
M  V30 16037 H 1510.21 4.56605 5.02681 0
M  V30 16038 H 1508.16 2.56306 6.03857 0
M  V30 16039 H 1508.08 4.28368 6.22926 0
M  V30 16040 H 1509.35 3.39339 7.01762 0
M  V30 16041 N 1513.57 -0.913576 1.28419 0
M  V30 16042 C 1514.5 -2.03275 1.14897 0
M  V30 16043 C 1515.49 -1.70036 0.0467034 0
M  V30 16044 O 1516.67 -1.92907 0.223725 0
M  V30 16045 C 1513.8 -3.37717 0.810217 0
M  V30 16046 C 1512.75 -3.85119 1.86728 0
M  V30 16047 C 1512.08 -5.16527 1.38215 0
M  V30 16048 C 1513.38 -4.06959 3.27386 0
M  V30 16049 H 1515.07 -2.14847 2.08522 0
M  V30 16050 H 1512.62 -1.03233 1.00394 0
M  V30 16051 H 1514.57 -4.15505 0.702382 0
M  V30 16052 H 1513.3 -3.26199 -0.161732 0
M  V30 16053 H 1511.96 -3.09536 1.96426 0
M  V30 16054 H 1511.6 -5.01413 0.399263 0
M  V30 16055 H 1511.3 -5.49213 2.08898 0
M  V30 16056 H 1512.83 -5.96871 1.28754 0
M  V30 16057 H 1514.24 -4.75272 3.20608 0
M  V30 16058 H 1512.64 -4.50977 3.95904 0
M  V30 16059 H 1513.71 -3.11764 3.71391 0
M  V30 16060 N 1515.05 -1.1067 -1.12204 0
M  V30 16061 C 1516 -0.752659 -2.20086 0
M  V30 16062 C 1516.99 0.252284 -1.67511 0
M  V30 16063 O 1518.2 0.112398 -1.79649 0
M  V30 16064 H 1514.58 -0.225473 -0.717402 0
M  V30 16065 H 1516.55 -1.67136 -2.472 0
M  V30 16066 C 1515.3 -0.203345 -3.47105 0
M  V30 16067 H 1514.62 -0.967864 -3.87908 0
M  V30 16068 H 1516.06 0.00629123 -4.24 0
M  V30 16069 C 1514.52 1.06452 -3.1964 0
M  V30 16070 O 1515.05 2.14562 -3.39597 0
M  V30 16071 N 1513.25 0.984122 -2.73429 0
M  V30 16072 H 1512.8 0.104258 -2.57389 0
M  V30 16073 H 1512.76 1.83312 -2.55429 0
M  V30 16074 N 1516.53 1.29665 -0.895815 0
M  V30 16075 C 1517.44 2.31582 -0.375086 0
M  V30 16076 C 1518.46 1.65789 0.528196 0
M  V30 16077 O 1519.63 1.96999 0.41871 0
M  V30 16078 C 1516.7 3.44472 0.39241 0
M  V30 16079 C 1515.76 4.25866 -0.541926 0
M  V30 16080 C 1514.99 5.33365 0.189037 0
M  V30 16081 O 1515.21 5.52607 1.41355 0
M  V30 16082 O 1514.15 6.0009 -0.466441 0
M  V30 16083 H 1517.97 2.78095 -1.22052 0
M  V30 16084 H 1515.56 1.34031 -0.660007 0
M  V30 16085 H 1517.44 4.13214 0.826565 0
M  V30 16086 H 1516.12 3.00074 1.21397 0
M  V30 16087 H 1515.02 3.59781 -1.02512 0
M  V30 16088 H 1516.36 4.73896 -1.32979 0
M  V30 16089 N 1518.01 0.657889 1.43212 0
M  V30 16090 C 1519.25 0.173443 2.02057 0
M  V30 16091 C 1519.59 -1.21108 1.51811 0
M  V30 16092 O 1518.86 -1.80953 0.71317 0
M  V30 16093 C 1519.15 0.189429 3.59601 0
M  V30 16094 C 1519 1.6082 4.20068 0
M  V30 16095 C 1520.32 -0.471633 4.37566 0
M  V30 16096 H 1517.44 0.0644999 0.734172 0
M  V30 16097 H 1520.08 0.839462 1.7045 0
M  V30 16098 H 1518.23 -0.377689 3.8666 0
M  V30 16099 H 1519.9 2.22627 4.04024 0
M  V30 16100 H 1518.14 2.15407 3.7654 0
M  V30 16101 H 1518.81 1.5712 5.29167 0
M  V30 16102 H 1521.29 0.0109387 4.16099 0
M  V30 16103 H 1520.17 -0.429739 5.47215 0
M  V30 16104 H 1520.43 -1.54652 4.14168 0
M  V30 16105 N 1519.49 -1.52437 0.400108 0
M  V30 16106 C 1520.74 -2.00896 -0.179909 0
M  V30 16107 C 1521.05 -1.29046 -1.46991 0
M  V30 16108 O 1522.25 -1.68274 -2.13063 0
M  V30 16109 C 1520.71 -3.57981 -0.371169 0
M  V30 16110 C 1520.32 -4.38739 0.906213 0
M  V30 16111 C 1522.06 -4.14698 -0.906965 0
M  V30 16112 C 1519.97 -5.87447 0.682637 0
M  V30 16113 H 1518.9 -0.750649 -0.071008 0
M  V30 16114 H 1521.55 -1.75854 0.524169 0
M  V30 16115 H 1519.93 -3.79315 -1.13736 0
M  V30 16116 H 1521.11 -4.29167 1.67785 0
M  V30 16117 H 1519.42 -3.93296 1.36776 0
M  V30 16118 H 1522.02 -5.2347 -1.09012 0
M  V30 16119 H 1522.36 -3.71477 -1.87911 0
M  V30 16120 H 1522.89 -3.97297 -0.200068 0
M  V30 16121 H 1519.63 -6.35011 1.62608 0
M  V30 16122 H 1519.15 -5.99779 -0.0498716 0
M  V30 16123 H 1520.83 -6.46202 0.321331 0
M  V30 16124 N 1520.96 -0.130252 -1.57061 0
M  V30 16125 C 1522.21 0.525784 -1.95866 0
M  V30 16126 C 1522.54 1.65607 -1.01429 0
M  V30 16127 O 1521.82 1.94426 -0.0535544 0
M  V30 16128 C 1522.1 1.04784 -3.44517 0
M  V30 16129 C 1521.95 -0.0797972 -4.49729 0
M  V30 16130 C 1523.27 1.9351 -3.95275 0
M  V30 16131 H 1520.39 0.189652 -0.71218 0
M  V30 16132 H 1523.03 -0.208091 -1.88857 0
M  V30 16133 H 1521.18 1.67324 -3.50621 0
M  V30 16134 H 1522.86 -0.715535 -4.55717 0
M  V30 16135 H 1521.1 -0.741358 -4.27418 0
M  V30 16136 H 1521.77 0.326915 -5.51031 0
M  V30 16137 H 1524.25 1.40825 -3.91545 0
M  V30 16138 H 1523.12 2.26952 -4.99784 0
M  V30 16139 H 1523.38 2.86583 -3.36634 0
M  V30 16140 N 1522.44 1.56945 0.143535 0
M  V30 16141 C 1523.67 1.87701 0.870401 0
M  V30 16142 C 1524.09 0.718833 1.7458 0
M  V30 16143 O 1523.44 -0.311286 1.79826 0
M  V30 16144 C 1523.49 3.1773 1.72424 0
M  V30 16145 O 1523.22 4.29086 0.884115 0
M  V30 16146 C 1524.72 3.62024 2.55839 0
M  V30 16147 H 1521.94 0.622083 0.251504 0
M  V30 16148 H 1524.48 2.04052 0.135285 0
M  V30 16149 H 1522.64 3.03122 2.41238 0
M  V30 16150 H 1523.05 5.0346 1.47065 0
M  V30 16151 H 1524.52 4.55834 3.11319 0
M  V30 16152 H 1525 2.87481 3.32041 0
M  V30 16153 H 1525.61 3.79338 1.9231 0
M  V30 16154 N 1523.92 -0.412991 1.52093 0
M  V30 16155 C 1525.34 -0.751324 1.40809 0
M  V30 16156 C 1525.54 -1.94951 0.509543 0
M  V30 16157 O 1524.59 -2.52486 -0.026132 0
M  V30 16158 C 1525.91 -1.00888 2.8327 0
M  V30 16159 C 1527.45 -1.11183 2.92587 0
M  V30 16160 C 1527.93 -1.40217 4.36008 0
M  V30 16161 N 1529.42 -1.4709 4.39225 0
M  V30 16162 C 1530.16 -1.71174 5.47254 0
M  V30 16163 N 1529.65 -1.92887 6.65407 0
M  V30 16164 N 1531.44 -1.73157 5.34765 0
M  V30 16165 H 1523.6 0.375774 2.0905 0
M  V30 16166 H 1525.86 0.105817 0.942076 0
M  V30 16167 H 1525.56 -0.200872 3.51126 0
M  V30 16168 H 1525.44 -1.93008 3.2408 0
M  V30 16169 H 1527.83 -1.91043 2.24915 0
M  V30 16170 H 1527.91 -0.169078 2.55241 0
M  V30 16171 H 1527.55 -0.608754 5.04239 0
M  V30 16172 H 1527.48 -2.35737 4.70888 0
M  V30 16173 H 1529.97 -1.32114 3.54054 0
M  V30 16174 H 1530.28 -2.10704 7.43521 0
M  V30 16175 H 1528.63 -1.9016 6.68479 0
M  V30 16176 H 1531.82 -1.55728 4.41437 0
M  V30 16177 H 1531.99 -1.91587 6.1903 0
M  V30 16178 N 1525.4 -1.4265 -0.669982 0
M  V30 16179 C 1526.62 -1.46992 -1.46315 0
M  V30 16180 C 1527.05 -0.0840655 -1.87912 0
M  V30 16181 O 1526.41 0.918554 -1.56308 0
M  V30 16182 C 1526.46 -2.40663 -2.6854 0
M  V30 16183 O 1525.56 -1.88132 -3.66988 0
M  V30 16184 H 1524.9 -0.497844 -0.439372 0
M  V30 16185 H 1527.43 -1.8739 -0.821348 0
M  V30 16186 H 1527.44 -2.57405 -3.16554 0
M  V30 16187 H 1526.12 -3.41346 -2.37604 0
M  V30 16188 H 1524.69 -1.80969 -3.26044 0
M  V30 16189 N 1526.88 0.906753 -1.28902 0
M  V30 16190 C 1527.83 1.99676 -1.10061 0
M  V30 16191 C 1528.81 1.60885 -0.0221442 0
M  V30 16192 O 1530 1.75323 -0.24307 0
M  V30 16193 C 1527.13 3.34511 -0.771823 0
M  V30 16194 C 1526.22 3.79683 -1.88948 0
M  V30 16195 N 1526.61 3.97159 -3.13207 0
M  V30 16196 C 1524.91 4.089 -1.78092 0
M  V30 16197 C 1525.61 4.35108 -3.86078 0
M  V30 16198 N 1524.58 4.43759 -3.13973 0
M  V30 16199 H 1528.39 2.11247 -2.04333 0
M  V30 16200 H 1525.9 1.09508 -1.19924 0
M  V30 16201 H 1527.9 4.12295 -0.617909 0
M  V30 16202 H 1526.56 3.2429 0.16305 0
M  V30 16203 H 1527.57 3.82884 -3.4874 0
M  V30 16204 H 1524.25 4.07276 -0.918291 0
M  V30 16205 H 1525.64 4.56533 -4.92978 0
M  V30 16206 N 1528.36 1.11264 1.11616 0
M  V30 16207 C 1529.63 0.772174 1.79713 0
M  V30 16208 C 1530.01 -0.740055 1.97703 0
M  V30 16209 O 1529.36 -1.66939 1.56024 0
M  V30 16210 C 1529.57 1.53316 3.13521 0
M  V30 16211 C 1530.92 1.71124 3.88589 0
M  V30 16212 O 1531.94 1.49725 3.23204 0
M  V30 16213 O 1530.8 2.0667 5.05915 0
M  V30 16214 H 1527.9 0.279548 0.77832 0
M  V30 16215 H 1530.44 1.21596 1.18375 0
M  V30 16216 H 1529.21 2.56194 2.95771 0
M  V30 16217 H 1528.84 1.08281 3.82572 0
M  V30 16218 N 1529.83 -1.29188 0.902679 0
M  V30 16219 C 1530.8 -2.25901 0.387485 0
M  V30 16220 C 1531.8 -1.53469 -0.479993 0
M  V30 16221 O 1532.99 -1.71859 -0.284623 0
M  V30 16222 C 1530.12 -3.37974 -0.445723 0
M  V30 16223 H 1531.31 -2.72988 1.24167 0
M  V30 16224 H 1528.86 -1.4068 0.681083 0
M  V30 16225 H 1529.6 -2.9623 -1.31977 0
M  V30 16226 H 1529.38 -3.91705 0.175899 0
M  V30 16227 H 1530.87 -4.09917 -0.797384 0
M  V30 16228 N 1531.31 -0.665475 -1.42861 0
M  V30 16229 C 1532.73 -0.334157 -1.56063 0
M  V30 16230 C 1532.93 1.16104 -1.64688 0
M  V30 16231 O 1531.98 1.94622 -1.60867 0
M  V30 16232 C 1533.3 -1.05628 -2.81537 0
M  V30 16233 C 1534.84 -1.03771 -2.95297 0
M  V30 16234 C 1535.32 -1.74098 -4.2362 0
M  V30 16235 N 1536.81 -1.7092 -4.30512 0
M  V30 16236 C 1537.55 -2.222 -5.28597 0
M  V30 16237 N 1537.04 -2.81821 -6.32889 0
M  V30 16238 N 1538.83 -2.12628 -5.20332 0
M  V30 16239 H 1530.99 -1.6356 -1.35506 0
M  V30 16240 H 1533.25 -0.688538 -0.651628 0
M  V30 16241 H 1532.95 -2.11141 -2.81269 0
M  V30 16242 H 1532.83 -0.615586 -3.72143 0
M  V30 16243 H 1535.22 0.00905324 -2.95099 0
M  V30 16244 H 1535.3 -1.51721 -2.05948 0
M  V30 16245 H 1534.94 -2.78737 -4.2458 0
M  V30 16246 H 1534.87 -1.23604 -5.11888 0
M  V30 16247 H 1537.36 -1.27425 -3.55769 0
M  V30 16248 H 1537.67 -3.18594 -7.04072 0
M  V30 16249 H 1536.02 -2.85887 -6.33478 0
M  V30 16250 H 1539.21 -1.65746 -4.37774 0
M  V30 16251 H 1539.38 -2.52899 -5.96612 0
M  V30 16252 N 1532.79 1.52222 -0.408187 0
M  V30 16253 C 1533.72 2.29892 0.408868 0
M  V30 16254 C 1534.7 1.34063 1.04695 0
M  V30 16255 O 1535.89 1.6297 1.05615 0
M  V30 16256 C 1533.02 3.11964 1.52629 0
M  V30 16257 C 1531.97 4.15833 1.01326 0
M  V30 16258 C 1531.3 4.86244 2.2242 0
M  V30 16259 C 1532.6 5.22256 0.0679573 0
M  V30 16260 H 1534.29 2.98443 -0.23923 0
M  V30 16261 H 1531.84 1.43528 -0.116496 0
M  V30 16262 H 1533.79 3.65067 2.10486 0
M  V30 16263 H 1532.51 2.41181 2.20225 0
M  V30 16264 H 1531.17 3.63739 0.4571 0
M  V30 16265 H 1530.82 4.11991 2.88569 0
M  V30 16266 H 1530.52 5.56461 1.88746 0
M  V30 16267 H 1532.04 5.42159 2.80885 0
M  V30 16268 H 1533.46 5.70604 0.555295 0
M  V30 16269 H 1531.85 5.9983 -0.179934 0
M  V30 16270 H 1532.92 4.76892 -0.877599 0
M  V30 16271 N 1534.27 0.138579 1.5699 0
M  V30 16272 C 1535.51 -0.51539 1.96142 0
M  V30 16273 C 1535.85 -1.65067 1.02306 0
M  V30 16274 O 1535.12 -1.94395 0.0638645 0
M  V30 16275 C 1535.4 -1.02956 3.45068 0
M  V30 16276 C 1535.26 0.103646 4.49681 0
M  V30 16277 C 1536.58 -1.91411 3.96295 0
M  V30 16278 H 1533.7 -0.185873 0.713176 0
M  V30 16279 H 1536.34 0.218103 1.88744 0
M  V30 16280 H 1534.49 -1.65462 3.51503 0
M  V30 16281 H 1536.16 0.739693 4.55331 0
M  V30 16282 H 1534.4 0.764014 4.27019 0
M  V30 16283 H 1535.07 -0.297688 5.51197 0
M  V30 16284 H 1537.55 -1.38746 3.92286 0
M  V30 16285 H 1536.43 -2.24298 5.0098 0
M  V30 16286 H 1536.69 -2.84793 3.38149 0
M  V30 16287 N 1535.75 -1.57019 -0.13521 0
M  V30 16288 C 1536.68 -2.02182 -1.16811 0
M  V30 16289 C 1537.66 -0.9034 -1.44127 0
M  V30 16290 O 1538.84 -1.17202 -1.54846 0
M  V30 16291 C 1535.97 -2.41243 -2.49838 0
M  V30 16292 C 1534.93 -3.56379 -2.37018 0
M  V30 16293 C 1534.25 -3.8129 -3.74863 0
M  V30 16294 C 1535.55 -4.88653 -1.84432 0
M  V30 16295 H 1537.25 -2.8872 -0.792529 0
M  V30 16296 H 1534.79 -1.38901 -0.379788 0
M  V30 16297 H 1536.74 -2.7144 -3.22332 0
M  V30 16298 H 1535.47 -1.51656 -2.89254 0
M  V30 16299 H 1534.13 -3.26366 -1.66975 0
M  V30 16300 H 1533.78 -2.88934 -4.11735 0
M  V30 16301 H 1533.48 -4.58781 -3.67143 0
M  V30 16302 H 1535 -4.13924 -4.48887 0
M  V30 16303 H 1536.41 -5.17492 -2.46729 0
M  V30 16304 H 1534.81 -5.70032 -1.87574 0
M  V30 16305 H 1535.88 -4.78242 -0.800759 0
M  V30 16306 N 1537.22 0.404919 -1.52309 0
M  V30 16307 C 1538.15 1.50039 -1.78915 0
M  V30 16308 C 1539.14 1.57587 -0.640329 0
M  V30 16309 O 1540.32 1.72793 -0.886344 0
M  V30 16310 C 1537.45 2.87819 -1.94364 0
M  V30 16311 C 1536.4 2.9512 -3.09981 0
M  V30 16312 C 1535.73 4.35195 -3.10659 0
M  V30 16313 C 1537.03 2.66219 -4.4936 0
M  V30 16314 H 1538.72 1.28025 -2.70647 0
M  V30 16315 H 1536.27 0.61445 -1.30233 0
M  V30 16316 H 1538.22 3.64446 -2.11559 0
M  V30 16317 H 1536.95 3.11136 -0.993067 0
M  V30 16318 H 1535.61 2.20939 -2.92543 0
M  V30 16319 H 1535.25 4.55528 -2.13316 0
M  V30 16320 H 1534.95 4.41003 -3.88317 0
M  V30 16321 H 1536.48 5.1375 -3.29989 0
M  V30 16322 H 1537.89 3.32567 -4.66982 0
M  V30 16323 H 1536.29 2.83398 -5.28967 0
M  V30 16324 H 1537.36 1.61636 -4.57167 0
M  V30 16325 N 1538.7 1.43003 0.662408 0
M  V30 16326 C 1539.65 1.47701 1.79686 0
M  V30 16327 C 1540.64 0.351491 1.65713 0
M  V30 16328 O 1541.85 0.525071 1.72171 0
M  V30 16329 H 1538.23 0.46285 0.592684 0
M  V30 16330 H 1540.2 2.43245 1.72843 0
M  V30 16331 C 1538.95 1.40828 3.17904 0
M  V30 16332 H 1538.27 2.26736 3.29288 0
M  V30 16333 H 1539.71 1.48177 3.97265 0
M  V30 16334 C 1538.17 0.124659 3.36669 0
M  V30 16335 O 1538.7 -0.81769 3.9329 0
M  V30 16336 N 1536.9 0.0378063 2.90575 0
M  V30 16337 H 1536.45 0.805456 2.44684 0
M  V30 16338 H 1536.41 -0.820377 3.03508 0
M  V30 16339 N 1540.18 -0.899904 1.29381 0
M  V30 16340 C 1541.11 -2.00584 1.08817 0
M  V30 16341 C 1542.09 -1.626 0.000108013 0
M  V30 16342 O 1543.28 -1.87896 0.150764 0
M  V30 16343 C 1540.4 -3.32276 0.656508 0
M  V30 16344 C 1539.45 -3.89247 1.74325 0
M  V30 16345 S 1540.28 -4.18381 3.34242 0
M  V30 16346 C 1541.44 -5.53114 2.92943 0
M  V30 16347 H 1541.67 -2.1772 2.02448 0
M  V30 16348 H 1539.2 -1.04648 1.13526 0
M  V30 16349 H 1541.16 -4.08405 0.414172 0
M  V30 16350 H 1539.82 -3.1302 -0.260196 0
M  V30 16351 H 1539.02 -4.84363 1.39315 0
M  V30 16352 H 1538.62 -3.19805 1.9391 0
M  V30 16353 H 1540.91 -6.33576 2.39976 0
M  V30 16354 H 1541.85 -5.93048 3.8691 0
M  V30 16355 H 1542.26 -5.14962 2.31245 0
M  V30 16356 N 1541.66 -1.11854 -1.11024 0
M  V30 16357 C 1543.07 -0.885443 -1.64368 0
M  V30 16358 C 1543.42 0.581455 -1.87386 0
M  V30 16359 O 1542.55 1.44452 -1.61129 0
M  V30 16360 C 1543.14 -1.60082 -2.98595 0
M  V30 16361 C 1541.7 -1.41403 -3.4883 0
M  V30 16362 C 1540.85 -1.64069 -2.23555 0
M  V30 16363 H 1543.8 -1.27418 -0.94606 0
M  V30 16364 H 1543.82 -1.04832 -3.65774 0
M  V30 16365 H 1543.33 -2.66842 -2.8181 0
M  V30 16366 H 1541.43 -0.368727 -3.70771 0
M  V30 16367 H 1541.54 -2.16603 -4.27341 0
M  V30 16368 H 1539.91 -1.06437 -2.31394 0
M  V30 16369 H 1540.69 -2.72112 -2.09308 0
M  V30 16370 N 1543.14 1.28707 -0.909517 0
M  V30 16371 C 1544.38 1.94768 -0.539413 0
M  V30 16372 C 1544.71 1.7198 0.919133 0
M  V30 16373 O 1543.98 1.0571 1.64931 0
M  V30 16374 H 1542.56 0.720693 -0.196496 0
M  V30 16375 H 1545.22 1.56772 -1.15795 0
M  V30 16376 H 1544.31 3.03436 -0.730281 0
M  V30 16377 N 1544.61 0.673042 1.42506 0
M  V30 16378 C 1546.03 0.272049 1.84707 0
M  V30 16379 C 1546.38 -1.18545 1.56338 0
M  V30 16380 O 1545.5 -1.9073 1.02231 0
M  V30 16381 C 1546.1 0.486977 3.35282 0
M  V30 16382 C 1544.66 0.140122 3.76139 0
M  V30 16383 C 1543.8 0.780276 2.66096 0
M  V30 16384 H 1546.75 0.875329 1.32377 0
M  V30 16385 H 1546.77 -0.261443 3.79601 0
M  V30 16386 H 1546.29 1.54784 3.55898 0
M  V30 16387 H 1544.39 -0.917366 3.6113 0
M  V30 16388 H 1544.5 0.579417 4.75583 0
M  V30 16389 H 1542.86 0.211756 2.53818 0
M  V30 16390 H 1543.65 1.84456 2.89536 0
M  V30 16391 N 1546.09 -1.52004 0.416254 0
M  V30 16392 C 1547.5 -1.86628 -0.0517247 0
M  V30 16393 C 1547.85 -1.33463 -1.43813 0
M  V30 16394 O 1546.98 -0.676793 -2.05544 0
M  V30 16395 C 1547.57 -3.38651 -0.100637 0
M  V30 16396 C 1546.13 -3.72888 -0.512969 0
M  V30 16397 C 1545.28 -2.75584 0.307975 0
M  V30 16398 H 1548.23 -1.45529 0.633018 0
M  V30 16399 H 1548.25 -3.69348 -0.914465 0
M  V30 16400 H 1547.76 -3.77316 0.908538 0
M  V30 16401 H 1545.87 -3.39804 -1.52852 0
M  V30 16402 H 1545.98 -4.78435 -0.252408 0
M  V30 16403 H 1544.34 -2.53653 -0.230717 0
M  V30 16404 H 1545.13 -3.1709 1.31563 0
M  V30 16405 N 1547.57 -0.146903 -1.56914 0
M  V30 16406 C 1548.99 0.20951 -1.58219 0
M  V30 16407 C 1549.19 1.64679 -1.16116 0
M  V30 16408 O 1548.24 2.37352 -0.861414 0
M  V30 16409 C 1549.56 -0.0491564 -3.0066 0
M  V30 16410 C 1551.1 0.0145605 -3.12997 0
M  V30 16411 C 1551.58 -0.216773 -4.57487 0
M  V30 16412 N 1553.07 -0.163698 -4.62911 0
M  V30 16413 C 1553.8 -0.317204 -5.72522 0
M  V30 16414 N 1553.3 -0.528426 -6.90782 0
M  V30 16415 N 1555.09 -0.254814 -5.61522 0
M  V30 16416 H 1547.24 -1.08536 -1.82575 0
M  V30 16417 H 1549.51 -0.42963 -0.845057 0
M  V30 16418 H 1549.21 -1.04387 -3.35851 0
M  V30 16419 H 1549.09 0.670296 -3.71197 0
M  V30 16420 H 1551.47 0.999829 -2.77646 0
M  V30 16421 H 1551.56 -0.737219 -2.44946 0
M  V30 16422 H 1551.2 -1.19914 -4.93541 0
M  V30 16423 H 1551.13 0.555329 -5.23664 0
M  V30 16424 H 1553.62 -0.00509433 -3.779 0
M  V30 16425 H 1553.93 -0.635667 -7.70181 0
M  V30 16426 H 1552.28 -0.564746 -6.92702 0
M  V30 16427 H 1555.47 -0.0905626 -4.68012 0
M  V30 16428 H 1555.64 -0.377881 -6.46897 0
M  V30 16429 N 1549.05 1.57088 0.126881 0
M  V30 16430 C 1550 2.00736 1.17506 0
M  V30 16431 C 1550.99 0.902986 1.43327 0
M  V30 16432 O 1552.2 1.08819 1.43382 0
M  V30 16433 H 1548.57 0.639285 0.396003 0
M  V30 16434 H 1550.54 2.88015 0.780373 0
M  V30 16435 C 1549.29 2.42096 2.49569 0
M  V30 16436 H 1548.61 3.26639 2.30536 0
M  V30 16437 H 1550.05 2.76442 3.2149 0
M  V30 16438 C 1548.51 1.28148 3.11576 0
M  V30 16439 O 1549.04 0.593145 3.97297 0
M  V30 16440 N 1547.25 1.04055 2.71332 0
M  V30 16441 H 1546.8 1.60208 2.0172 0
M  V30 16442 H 1546.75 0.280075 3.1315 0
M  V30 16443 N 1550.53 -0.396836 1.52522 0
M  V30 16444 C 1551.75 -1.16857 1.71345 0
M  V30 16445 C 1552.18 -1.83178 0.427465 0
M  V30 16446 O 1551.53 -1.7051 -0.616123 0
M  V30 16447 C 1551.58 -2.19817 2.85855 0
M  V30 16448 O 1550.69 -3.26233 2.52281 0
M  V30 16449 H 1550.03 -0.340554 0.570017 0
M  V30 16450 H 1552.56 -0.463532 1.9928 0
M  V30 16451 H 1552.57 -2.63944 3.11123 0
M  V30 16452 H 1551.24 -1.70931 3.79151 0
M  V30 16453 H 1549.82 -2.87299 2.37726 0
M  V30 16454 N 1552.01 -1.43353 -0.654814 0
M  V30 16455 C 1552.92 -1.50831 -1.79687 0
M  V30 16456 C 1553.93 -0.395518 -1.69445 0
M  V30 16457 O 1555.11 -0.649408 -1.90643 0
M  V30 16458 C 1552.17 -1.42735 -3.15955 0
M  V30 16459 C 1551.23 -2.64671 -3.38005 0
M  V30 16460 C 1550.47 -2.56952 -4.67773 0
M  V30 16461 O 1550.69 -1.61638 -5.47019 0
M  V30 16462 O 1549.62 -3.47425 -4.91507 0
M  V30 16463 H 1553.45 -2.47266 -1.76333 0
M  V30 16464 H 1551.03 -1.25336 -0.813095 0
M  V30 16465 H 1552.92 -1.40656 -3.97233 0
M  V30 16466 H 1551.59 -0.494334 -3.19903 0
M  V30 16467 H 1550.5 -2.72323 -2.56498 0
M  V30 16468 H 1551.83 -3.5694 -3.38903 0
M  V30 16469 N 1553.48 0.89303 -1.29857 0
M  V30 16470 C 1554.73 1.64088 -1.17981 0
M  V30 16471 C 1555.05 1.93156 0.267533 0
M  V30 16472 O 1554.32 1.56233 1.18186 0
M  V30 16473 H 1552.9 0.608241 -0.43365 0
M  V30 16474 H 1555.56 1.07042 -1.62874 0
M  V30 16475 H 1554.66 2.59446 -1.73477 0
M  V30 16476 N 1554.96 1.12442 1.10429 0
M  V30 16477 C 1556.24 0.791191 1.78884 0
M  V30 16478 C 1556.62 -0.719044 1.98477 0
M  V30 16479 O 1555.97 -1.65275 1.57786 0
M  V30 16480 C 1556.18 1.56632 3.11877 0
M  V30 16481 C 1557.52 1.75236 3.86752 0
M  V30 16482 O 1558.55 1.53145 3.21598 0
M  V30 16483 O 1557.41 2.12025 5.03694 0
M  V30 16484 H 1554.5 0.287788 0.775311 0
M  V30 16485 H 1557.05 1.22844 1.17078 0
M  V30 16486 H 1555.82 2.59317 2.93037 0
M  V30 16487 H 1555.44 1.12332 3.81402 0
M  V30 16488 N 1556.44 -1.28223 0.91633 0
M  V30 16489 C 1557.35 -2.30956 0.411882 0
M  V30 16490 C 1558.37 -1.66609 -0.501753 0
M  V30 16491 O 1559.54 -1.97641 -0.387317 0
M  V30 16492 C 1556.61 -3.45053 -0.337558 0
M  V30 16493 C 1555.67 -4.2495 0.609609 0
M  V30 16494 C 1554.9 -5.33598 -0.104159 0
M  V30 16495 O 1555.12 -5.54786 -1.32546 0
M  V30 16496 O 1554.06 -5.99272 0.561851 0
M  V30 16497 H 1557.88 -2.76118 1.26461 0
M  V30 16498 H 1555.47 -1.32964 0.681246 0
M  V30 16499 H 1557.35 -4.14477 -0.760722 0
M  V30 16500 H 1556.03 -3.01968 -1.16607 0
M  V30 16501 H 1554.93 -3.58104 1.08222 0
M  V30 16502 H 1556.27 -4.7172 1.40502 0
M  V30 16503 N 1557.92 -0.68059 -1.42147 0
M  V30 16504 C 1558.87 0.00572503 -2.32599 0
M  V30 16505 C 1559.86 0.784449 -1.50142 0
M  V30 16506 O 1561.07 0.69176 -1.66177 0
M  V30 16507 H 1557.44 0.0206483 -0.751716 0
M  V30 16508 H 1559.41 -0.774447 -2.88175 0
M  V30 16509 C 1558.16 0.939019 -3.3478 0
M  V30 16510 H 1557.48 0.349225 -3.98272 0
M  V30 16511 H 1558.92 1.38782 -4.00644 0
M  V30 16512 C 1557.38 2.04814 -2.67493 0
M  V30 16513 O 1557.91 3.13526 -2.51126 0
M  V30 16514 N 1556.12 1.82153 -2.26426 0
M  V30 16515 H 1555.67 0.93743 -2.39938 0
M  V30 16516 H 1555.62 2.56551 -1.81738 0
M  V30 16517 N 1559.4 1.51781 -0.424309 0
M  V30 16518 C 1560.63 2.06088 0.145337 0
M  V30 16519 C 1561.03 1.29297 1.38127 0
M  V30 16520 O 1560.38 0.342227 1.80484 0
M  V30 16521 C 1560.44 3.55333 0.545777 0
M  V30 16522 C 1560.1 4.53285 -0.581528 0
M  V30 16523 C 1561.1 4.99278 -1.44973 0
M  V30 16524 C 1558.78 4.96539 -0.758549 0
M  V30 16525 C 1560.78 5.87185 -2.47977 0
M  V30 16526 C 1558.47 5.84239 -1.79188 0
M  V30 16527 C 1559.46 6.29458 -2.65089 0
M  V30 16528 O 1559.15 7.15418 -3.6665 0
M  V30 16529 H 1558.88 0.675782 0.0171719 0
M  V30 16530 H 1561.44 1.96492 -0.598349 0
M  V30 16531 H 1559.67 3.62668 1.34197 0
M  V30 16532 H 1561.36 3.92215 1.04508 0
M  V30 16533 H 1562.12 4.66566 -1.32445 0
M  V30 16534 H 1558 4.60893 -0.0995452 0
M  V30 16535 H 1561.55 6.22401 -3.15059 0
M  V30 16536 H 1557.44 6.16365 -1.91742 0
M  V30 16537 H 1558.21 7.33566 -3.63074 0
M  V30 16538 N 1560.87 0.155222 1.56834 0
M  V30 16539 C 1561.81 -0.819563 2.12975 0
M  V30 16540 C 1562.78 -1.23685 1.05549 0
M  V30 16541 O 1563.97 -1.3315 1.33429 0
M  V30 16542 C 1561.1 -2.10155 2.65617 0
M  V30 16543 C 1560.14 -1.82954 3.85266 0
M  V30 16544 S 1560.97 -1.01317 5.25828 0
M  V30 16545 C 1562.13 -2.30617 5.81865 0
M  V30 16546 H 1562.36 -0.342172 2.95324 0
M  V30 16547 H 1559.9 -0.0591958 1.54286 0
M  V30 16548 H 1561.85 -2.83797 2.96597 0
M  V30 16549 H 1560.52 -2.55008 1.83383 0
M  V30 16550 H 1559.71 -2.78035 4.20372 0
M  V30 16551 H 1559.31 -1.17417 3.55091 0
M  V30 16552 H 1561.6 -3.26206 5.93798 0
M  V30 16553 H 1562.55 -2.00004 6.79267 0
M  V30 16554 H 1562.95 -2.41642 5.10166 0
M  V30 16555 N 1562.35 -1.57153 -0.118549 0
M  V30 16556 C 1563.26 -2.03673 -1.16424 0
M  V30 16557 C 1564.28 -0.957203 -1.45305 0
M  V30 16558 O 1565.45 -1.26874 -1.56413 0
M  V30 16559 C 1562.52 -2.43211 -2.47082 0
M  V30 16560 C 1561.58 -3.65248 -2.25593 0
M  V30 16561 C 1560.81 -4.02891 -3.50021 0
M  V30 16562 O 1561.04 -3.40871 -4.57344 0
M  V30 16563 O 1559.97 -4.95989 -3.40996 0
M  V30 16564 H 1563.8 -2.92996 -0.799206 0
M  V30 16565 H 1561.38 -1.45724 -0.329376 0
M  V30 16566 H 1563.26 -2.69374 -3.24061 0
M  V30 16567 H 1561.94 -1.57034 -2.83058 0
M  V30 16568 H 1560.84 -3.44234 -1.46471 0
M  V30 16569 H 1562.18 -4.52131 -1.94521 0
M  V30 16570 N 1563.83 0.388742 -1.5273 0
M  V30 16571 C 1565.08 1.13375 -1.67787 0
M  V30 16572 C 1565.4 1.89957 -0.417925 0
M  V30 16573 O 1564.66 1.86286 0.599682 0
M  V30 16574 C 1564.96 2.13792 -2.86405 0
M  V30 16575 C 1564.62 1.53865 -4.23835 0
M  V30 16576 C 1563.29 1.37248 -4.61212 0
M  V30 16577 C 1565.64 1.10298 -5.09395 0
M  V30 16578 C 1562.97 0.756119 -5.81807 0
M  V30 16579 C 1565.32 0.500723 -6.30615 0
M  V30 16580 C 1563.98 0.321851 -6.66724 0
M  V30 16581 H 1563.25 0.414868 -0.613975 0
M  V30 16582 H 1565.9 0.418351 -1.86874 0
M  V30 16583 H 1564.2 2.91551 -2.61735 0
M  V30 16584 H 1565.9 2.71346 -2.95249 0
M  V30 16585 H 1562.49 1.67787 -3.94393 0
M  V30 16586 H 1566.68 1.21938 -4.81087 0
M  V30 16587 H 1561.93 0.605734 -6.08392 0
M  V30 16588 H 1566.11 0.154839 -6.96228 0
M  V30 16589 H 1563.73 -0.157836 -7.60036 0
M  V30 16590 N 1565.31 1.43698 0.647203 0
M  V30 16591 C 1566.24 1.52135 1.77136 0
M  V30 16592 C 1567.22 0.375551 1.65902 0
M  V30 16593 O 1568.4 0.593564 1.84907 0
M  V30 16594 C 1565.53 1.44974 3.15594 0
M  V30 16595 C 1564.49 2.57866 3.41598 0
M  V30 16596 C 1563.81 2.35757 4.7992 0
M  V30 16597 C 1565.11 4.00089 3.35747 0
M  V30 16598 H 1566.81 2.46227 1.70332 0
M  V30 16599 H 1564.35 1.18507 0.818046 0
M  V30 16600 H 1566.31 1.4948 3.93997 0
M  V30 16601 H 1565.03 0.473905 3.23143 0
M  V30 16602 H 1563.69 2.52722 2.65569 0
M  V30 16603 H 1563.34 1.36403 4.84152 0
M  V30 16604 H 1563.04 3.11436 4.98278 0
M  V30 16605 H 1564.56 2.42055 5.60572 0
M  V30 16606 H 1565.98 4.06687 4.04078 0
M  V30 16607 H 1564.37 4.75842 3.65642 0
M  V30 16608 H 1565.44 4.24798 2.33825 0
M  V30 16609 N 1566.79 -0.886131 1.30328 0
M  V30 16610 C 1567.7 -2.02453 1.18532 0
M  V30 16611 C 1568.71 -1.7368 0.105506 0
M  V30 16612 O 1569.89 -1.98838 0.320217 0
M  V30 16613 C 1566.95 -3.3543 0.876792 0
M  V30 16614 C 1566.01 -3.77633 2.04185 0
M  V30 16615 C 1565.25 -5.04264 1.74795 0
M  V30 16616 O 1565.47 -5.66388 0.675323 0
M  V30 16617 O 1564.4 -5.42847 2.60001 0
M  V30 16618 H 1568.23 -2.15333 2.14162 0
M  V30 16619 H 1565.82 -1.01193 1.09911 0
M  V30 16620 H 1567.7 -4.15206 0.719882 0
M  V30 16621 H 1566.37 -3.23662 -0.0496117 0
M  V30 16622 H 1565.28 -2.98567 2.25408 0
M  V30 16623 H 1566.61 -3.94004 2.94994 0
M  V30 16624 N 1568.26 -1.13026 -1.09832 0
M  V30 16625 C 1569.51 -0.890736 -1.82191 0
M  V30 16626 C 1569.84 0.581818 -1.8528 0
M  V30 16627 O 1569.12 1.43037 -1.31798 0
M  V30 16628 C 1569.4 -1.47403 -3.28549 0
M  V30 16629 C 1569.25 -3.0154 -3.33757 0
M  V30 16630 C 1570.57 -1.13876 -4.25112 0
M  V30 16631 H 1567.69 -0.325028 -0.661457 0
M  V30 16632 H 1570.33 -1.39787 -1.28684 0
M  V30 16633 H 1568.48 -1.04272 -3.74245 0
M  V30 16634 H 1570.16 -3.53395 -2.96495 0
M  V30 16635 H 1568.4 -3.36746 -2.73467 0
M  V30 16636 H 1569.07 -3.37449 -4.36843 0
M  V30 16637 H 1571.55 -1.51139 -3.87681 0
M  V30 16638 H 1570.42 -1.57343 -5.25865 0
M  V30 16639 H 1570.68 -0.051854 -4.4207 0
M  V30 16640 N 1569.74 1.27735 -0.923117 0
M  V30 16641 C 1570.67 2.29395 -0.435907 0
M  V30 16642 C 1571.65 1.62542 0.501403 0
M  V30 16643 O 1572.84 1.89884 0.407135 0
M  V30 16644 C 1569.97 3.45856 0.316348 0
M  V30 16645 C 1568.92 4.24672 -0.532697 0
M  V30 16646 C 1568.25 5.33563 0.348454 0
M  V30 16647 C 1569.55 4.90494 -1.79481 0
M  V30 16648 H 1571.24 2.70398 -1.28551 0
M  V30 16649 H 1568.79 1.29989 -0.619581 0
M  V30 16650 H 1570.74 4.1607 0.668098 0
M  V30 16651 H 1569.47 3.03758 1.19994 0
M  V30 16652 H 1568.12 3.56198 -0.867093 0
M  V30 16653 H 1567.77 4.87708 1.23086 0
M  V30 16654 H 1567.47 5.87202 -0.216104 0
M  V30 16655 H 1569 6.06622 0.695878 0
M  V30 16656 H 1570.41 5.53019 -1.5114 0
M  V30 16657 H 1568.81 5.5417 -2.30251 0
M  V30 16658 H 1569.88 4.14454 -2.51707 0
M  V30 16659 N 1571.22 0.688118 1.41784 0
M  V30 16660 C 1572.45 0.22475 2.05676 0
M  V30 16661 C 1572.86 -1.1232 1.51755 0
M  V30 16662 O 1572.22 -1.70041 0.662735 0
M  V30 16663 C 1572.27 0.165661 3.6112 0
M  V30 16664 O 1571.99 1.46035 4.13044 0
M  V30 16665 C 1573.49 -0.319599 4.42146 0
M  V30 16666 H 1570.71 0.106135 0.662553 0
M  V30 16667 H 1573.26 0.938605 1.81688 0
M  V30 16668 H 1571.41 -0.498968 3.84173 0
M  V30 16669 H 1571.83 1.34252 5.07027 0
M  V30 16670 H 1573.3 -0.30983 5.5113 0
M  V30 16671 H 1573.78 -1.3572 4.17704 0
M  V30 16672 H 1574.38 0.313764 4.24141 0
M  V30 16673 N 1572.7 -1.51554 0.432352 0
M  V30 16674 C 1573.61 -2.31371 -0.387885 0
M  V30 16675 C 1574.62 -1.40072 -1.03227 0
M  V30 16676 O 1575.8 -1.73145 -1.02873 0
M  V30 16677 C 1572.87 -3.13662 -1.47705 0
M  V30 16678 C 1571.93 -4.20734 -0.853315 0
M  V30 16679 C 1571.16 -4.99092 -1.89058 0
M  V30 16680 O 1571.38 -4.78022 -3.11209 0
M  V30 16681 O 1570.32 -5.83322 -1.48389 0
M  V30 16682 H 1574.14 -3.02554 0.263578 0
M  V30 16683 H 1571.73 -1.48122 0.195004 0
M  V30 16684 H 1573.61 -3.64837 -2.10884 0
M  V30 16685 H 1572.28 -2.45249 -2.11269 0
M  V30 16686 H 1571.19 -3.73649 -0.183616 0
M  V30 16687 H 1572.52 -4.91506 -0.261244 0
M  V30 16688 N 1574.18 -0.163538 -1.56749 0
M  V30 16689 C 1575.42 0.482449 -1.96257 0
M  V30 16690 C 1575.75 1.64302 -1.05023 0
M  V30 16691 O 1575.02 1.95562 -0.115027 0
M  V30 16692 H 1573.6 0.181222 -0.724684 0
M  V30 16693 H 1576.26 -0.242903 -1.9338 0
M  V30 16694 H 1575.35 0.847634 -3.00369 0
M  V30 16695 N 1575.65 1.57214 0.110213 0
M  V30 16696 C 1576.58 2.04015 1.13579 0
M  V30 16697 C 1577.57 0.926215 1.42672 0
M  V30 16698 O 1578.75 1.19651 1.52962 0
M  V30 16699 C 1575.88 2.45187 2.45969 0
M  V30 16700 C 1574.83 3.60105 2.31319 0
M  V30 16701 C 1574.16 3.87205 3.68749 0
M  V30 16702 C 1575.46 4.91526 1.76635 0
M  V30 16703 H 1577.15 2.89944 0.746496 0
M  V30 16704 H 1574.7 1.39488 0.357642 0
M  V30 16705 H 1576.65 2.76534 3.17973 0
M  V30 16706 H 1575.38 1.56238 2.86805 0
M  V30 16707 H 1574.04 3.28981 1.61762 0
M  V30 16708 H 1573.68 2.95448 4.07087 0
M  V30 16709 H 1573.38 4.64563 3.59798 0
M  V30 16710 H 1574.91 4.21013 4.42245 0
M  V30 16711 H 1576.32 5.21351 2.38465 0
M  V30 16712 H 1574.72 5.72944 1.78482 0
M  V30 16713 H 1575.79 4.79456 0.724573 0
M  V30 16714 N 1577.13 -0.380637 1.52934 0
M  V30 16715 C 1578.04 -1.48957 1.81243 0
M  V30 16716 C 1579.06 -1.5931 0.69974 0
M  V30 16717 O 1580.23 -1.75488 0.988218 0
M  V30 16718 C 1577.3 -2.84397 1.9829 0
M  V30 16719 C 1576.36 -2.83697 3.22202 0
M  V30 16720 C 1575.59 -4.12677 3.38427 0
M  V30 16721 O 1575.82 -5.08068 2.59274 0
M  V30 16722 O 1574.75 -4.19407 4.31719 0
M  V30 16723 H 1578.58 -1.27964 2.75425 0
M  V30 16724 H 1576.16 -0.56929 1.38128 0
M  V30 16725 H 1578.04 -3.64676 2.11161 0
M  V30 16726 H 1576.72 -3.054 1.07298 0
M  V30 16727 H 1575.63 -2.0217 3.14767 0
M  V30 16728 H 1576.96 -2.67648 4.13068 0
M  V30 16729 N 1578.61 -1.44039 -0.639573 0
M  V30 16730 C 1580.03 -1.2774 -0.956802 0
M  V30 16731 C 1580.23 -0.207018 -2.00434 0
M  V30 16732 O 1579.28 0.409954 -2.4915 0
M  V30 16733 C 1580.6 -2.64624 -1.42809 0
M  V30 16734 C 1582.14 -2.72266 -1.54402 0
M  V30 16735 C 1582.62 -4.09601 -2.04918 0
M  V30 16736 N 1584.11 -4.11735 -2.122 0
M  V30 16737 C 1584.84 -5.14842 -2.52439 0
M  V30 16738 N 1584.34 -6.28316 -2.91875 0
M  V30 16739 N 1586.13 -5.02196 -2.52499 0
M  V30 16740 H 1578.28 -2.12333 0.0533569 0
M  V30 16741 H 1580.55 -0.947208 -0.0387401 0
M  V30 16742 H 1580.25 -3.43983 -0.732728 0
M  V30 16743 H 1580.13 -2.90944 -2.40066 0
M  V30 16744 H 1582.51 -1.93232 -2.23037 0
M  V30 16745 H 1582.6 -2.49697 -0.555426 0
M  V30 16746 H 1582.24 -4.89108 -1.3688 0
M  V30 16747 H 1582.17 -4.29542 -3.04633 0
M  V30 16748 H 1584.66 -3.29833 -1.84441 0
M  V30 16749 H 1584.97 -7.0281 -3.21368 0
M  V30 16750 H 1583.32 -6.31767 -2.89647 0
M  V30 16751 H 1586.51 -4.12606 -2.21075 0
M  V30 16752 H 1586.68 -5.82677 -2.83535 0
M  V30 16753 N 1580.09 0.879207 -1.30796 0
M  V30 16754 C 1581.33 1.63392 -1.20129 0
M  V30 16755 C 1581.67 1.92684 0.242164 0
M  V30 16756 O 1580.94 1.55188 1.17247 0
M  V30 16757 C 1581.23 2.97005 -2.03618 0
M  V30 16758 C 1581.08 2.74649 -3.56214 0
M  V30 16759 C 1582.4 3.97998 -1.87845 0
M  V30 16760 H 1579.52 0.592911 -0.437751 0
M  V30 16761 H 1582.16 1.017 -1.6049 0
M  V30 16762 H 1580.31 3.49659 -1.69326 0
M  V30 16763 H 1581.98 2.28738 -4.00595 0
M  V30 16764 H 1580.22 2.09048 -3.80107 0
M  V30 16765 H 1580.89 3.69681 -4.09927 0
M  V30 16766 H 1583.37 3.54523 -2.17836 0
M  V30 16767 H 1582.25 4.89388 -2.48578 0
M  V30 16768 H 1582.51 4.34062 -0.839183 0
M  V30 16769 N 1581.57 1.13606 1.09231 0
M  V30 16770 C 1582.5 0.837908 2.17948 0
M  V30 16771 C 1583.48 -0.203575 1.68877 0
M  V30 16772 O 1584.66 -0.0620702 1.94101 0
M  V30 16773 C 1581.79 0.305342 3.45955 0
M  V30 16774 C 1580.75 1.2813 4.08371 0
M  V30 16775 C 1580.07 0.608412 5.31227 0
M  V30 16776 C 1581.37 2.64055 4.50636 0
M  V30 16777 H 1583.07 1.747 2.43147 0
M  V30 16778 H 1580.61 0.84141 1.1686 0
M  V30 16779 H 1582.57 0.0844116 4.21315 0
M  V30 16780 H 1581.29 -0.639144 3.20285 0
M  V30 16781 H 1579.95 1.48826 3.35032 0
M  V30 16782 H 1579.6 -0.341613 5.01839 0
M  V30 16783 H 1579.3 1.25956 5.73942 0
M  V30 16784 H 1580.82 0.396809 6.09309 0
M  V30 16785 H 1582.24 2.47316 5.17212 0
M  V30 16786 H 1580.63 3.25364 5.0424 0
M  V30 16787 H 1581.7 3.21566 3.62937 0
M  V30 16788 N 1583.05 -1.27244 0.929878 0
M  V30 16789 C 1583.98 -2.29161 0.448066 0
M  V30 16790 C 1584.96 -1.62806 -0.492776 0
M  V30 16791 O 1586.14 -1.90098 -0.39706 0
M  V30 16792 C 1583.27 -3.46019 -0.298002 0
M  V30 16793 C 1582.23 -4.24384 0.555211 0
M  V30 16794 C 1581.55 -5.33741 -0.320153 0
M  V30 16795 C 1582.85 -4.89535 1.8208 0
M  V30 16796 H 1584.55 -2.69712 1.29983 0
M  V30 16797 H 1582.09 -1.29659 0.626466 0
M  V30 16798 H 1584.04 -4.16419 -0.646024 0
M  V30 16799 H 1582.77 -3.0439 -1.18381 0
M  V30 16800 H 1581.43 -3.55733 0.885971 0
M  V30 16801 H 1581.08 -4.88354 -1.20498 0
M  V30 16802 H 1580.78 -5.8708 0.247241 0
M  V30 16803 H 1582.3 -6.06982 -0.663697 0
M  V30 16804 H 1583.71 -5.52209 1.54071 0
M  V30 16805 H 1582.11 -5.52941 2.33186 0
M  V30 16806 H 1583.18 -4.13113 2.53901 0
M  V30 16807 N 1584.52 -0.695628 -1.41417 0
M  V30 16808 C 1585.77 -0.226954 -2.01526 0
M  V30 16809 C 1586.1 1.1704 -1.54968 0
M  V30 16810 O 1585.38 1.78999 -0.760895 0
M  V30 16811 C 1585.66 -0.284704 -3.58973 0
M  V30 16812 C 1585.51 -1.71901 -4.15656 0
M  V30 16813 C 1586.83 0.355454 -4.38662 0
M  V30 16814 H 1583.95 -0.0839425 -0.732204 0
M  V30 16815 H 1586.59 -0.884359 -1.68164 0
M  V30 16816 H 1584.74 0.275041 -3.87525 0
M  V30 16817 H 1586.42 -2.3326 -3.97979 0
M  V30 16818 H 1584.66 -2.25314 -3.70696 0
M  V30 16819 H 1585.33 -1.71095 -5.24815 0
M  V30 16820 H 1587.81 -0.121256 -4.15923 0
M  V30 16821 H 1586.68 0.284503 -5.48162 0
M  V30 16822 H 1586.94 1.43617 -4.18123 0
M  V30 16823 N 1586 1.51322 -0.440383 0
M  V30 16824 C 1587.42 1.5933 -0.0928372 0
M  V30 16825 C 1587.62 1.45107 1.39807 0
M  V30 16826 O 1586.67 1.29385 2.16831 0
M  V30 16827 C 1587.99 2.9433 -0.615663 0
M  V30 16828 C 1589.53 3.07647 -0.576373 0
M  V30 16829 C 1590.01 4.45176 -1.07622 0
M  V30 16830 N 1591.5 4.51504 -1.03434 0
M  V30 16831 C 1592.24 5.56249 -1.39194 0
M  V30 16832 N 1591.73 6.68398 -1.82254 0
M  V30 16833 N 1593.52 5.46624 -1.30991 0
M  V30 16834 H 1585.68 1.58812 -1.41041 0
M  V30 16835 H 1587.94 0.748795 -0.581386 0
M  V30 16836 H 1587.64 3.10117 -1.65892 0
M  V30 16837 H 1587.52 3.77176 -0.0422513 0
M  V30 16838 H 1589.91 2.91526 0.457904 0
M  V30 16839 H 1589.99 2.26633 -1.18622 0
M  V30 16840 H 1589.63 4.62044 -2.10898 0
M  V30 16841 H 1589.56 5.24734 -0.442882 0
M  V30 16842 H 1592.05 3.71013 -0.718156 0
M  V30 16843 H 1592.36 7.44347 -2.07769 0
M  V30 16844 H 1590.71 6.69598 -1.86183 0
M  V30 16845 H 1593.9 4.57894 -0.972145 0
M  V30 16846 H 1594.07 6.28143 -1.59188 0
M  V30 16847 N 1587.48 0.171848 1.5666 0
M  V30 16848 C 1588.73 -0.472034 1.9651 0
M  V30 16849 C 1589.05 -1.63743 1.05893 0
M  V30 16850 O 1588.32 -1.95498 0.125396 0
M  V30 16851 H 1586.9 -0.177377 0.725635 0
M  V30 16852 H 1589.56 0.253155 1.93249 0
M  V30 16853 H 1588.66 -0.831693 3.00814 0
M  V30 16854 N 1588.96 -1.5727 -0.101874 0
M  V30 16855 C 1590.21 -1.85375 -0.805007 0
M  V30 16856 C 1590.53 -0.759564 -1.79599 0
M  V30 16857 O 1589.8 0.21484 -1.94718 0
M  V30 16858 H 1588.38 -0.683987 -0.300284 0
M  V30 16859 H 1591.04 -1.94714 -0.0851166 0
M  V30 16860 H 1590.13 -2.81881 -1.33976 0
M  V30 16861 N 1590.44 0.372521 -1.53134 0
M  V30 16862 C 1591.68 1.11368 -1.68646 0
M  V30 16863 C 1592 1.90034 -0.437275 0
M  V30 16864 O 1591.27 1.88062 0.548593 0
M  V30 16865 H 1589.85 0.414129 -0.621696 0
M  V30 16866 H 1592.52 0.42082 -1.90303 0
M  V30 16867 H 1591.61 1.80738 -2.54441 0
M  V30 16868 N 1591.91 1.44376 0.631925 0
M  V30 16869 C 1593.33 1.28245 0.950014 0
M  V30 16870 C 1593.53 0.217644 2.00321 0
M  V30 16871 O 1592.59 -0.396736 2.49364 0
M  V30 16872 C 1593.9 2.65378 1.41404 0
M  V30 16873 C 1595.45 2.73081 1.52956 0
M  V30 16874 C 1595.92 4.10682 2.02742 0
M  V30 16875 N 1597.41 4.12854 2.10014 0
M  V30 16876 C 1598.15 5.16173 2.49705 0
M  V30 16877 N 1597.64 6.29855 2.88539 0
M  V30 16878 N 1599.44 5.03528 2.49832 0
M  V30 16879 H 1591.59 2.12302 -0.0646167 0
M  V30 16880 H 1593.85 0.9474 0.0337162 0
M  V30 16881 H 1593.56 3.44366 0.714476 0
M  V30 16882 H 1593.43 2.92213 2.3852 0
M  V30 16883 H 1595.82 1.94412 2.22009 0
M  V30 16884 H 1595.9 2.49988 0.542176 0
M  V30 16885 H 1595.54 4.89827 1.34285 0
M  V30 16886 H 1595.47 4.31152 3.02351 0
M  V30 16887 H 1597.96 3.30806 1.8269 0
M  V30 16888 H 1598.28 7.04505 3.17637 0
M  V30 16889 H 1596.62 6.33294 2.86293 0
M  V30 16890 H 1599.81 4.13773 2.18883 0
M  V30 16891 H 1599.99 5.84172 2.80441 0
M  V30 16892 N 1593.39 -0.872258 1.31261 0
M  V30 16893 C 1594.3 -2.01185 1.20673 0
M  V30 16894 C 1595.32 -1.73558 0.123921 0
M  V30 16895 O 1596.49 -1.98487 0.341288 0
M  V30 16896 C 1593.56 -3.34481 0.91232 0
M  V30 16897 C 1592.62 -3.75446 2.08179 0
M  V30 16898 C 1591.85 -5.02382 1.80134 0
M  V30 16899 O 1592.08 -5.6564 0.735358 0
M  V30 16900 O 1591.01 -5.40059 2.65744 0
M  V30 16901 H 1594.84 -2.13049 2.16434 0
M  V30 16902 H 1592.42 -1.00021 1.10978 0
M  V30 16903 H 1594.3 -4.14419 0.763879 0
M  V30 16904 H 1592.98 -3.23696 -0.0152802 0
M  V30 16905 H 1591.88 -2.96159 2.28562 0
M  V30 16906 H 1593.22 -3.90853 2.99156 0
M  V30 16907 N 1594.87 -1.14184 -1.08627 0
M  V30 16908 C 1596.12 -0.91001 -1.81236 0
M  V30 16909 C 1596.45 0.562134 -1.85886 0
M  V30 16910 O 1595.72 1.41631 -1.33307 0
M  V30 16911 C 1596.01 -1.50879 -3.26967 0
M  V30 16912 C 1595.86 -3.05063 -3.3054 0
M  V30 16913 C 1597.18 -1.18379 -4.2388 0
M  V30 16914 H 1594.3 -0.332025 -0.657973 0
M  V30 16915 H 1596.94 -1.41144 -1.27194 0
M  V30 16916 H 1595.09 -1.08236 -3.73118 0
M  V30 16917 H 1596.76 -3.5652 -2.9273 0
M  V30 16918 H 1595 -3.39628 -2.6988 0
M  V30 16919 H 1595.68 -3.42064 -4.33239 0
M  V30 16920 H 1598.15 -1.55242 -3.86056 0
M  V30 16921 H 1597.03 -1.62911 -5.24167 0
M  V30 16922 H 1597.29 -0.0987385 -4.4199 0
M  V30 16923 N 1596.35 1.26749 -0.936613 0
M  V30 16924 C 1597.6 1.93255 -0.577524 0
M  V30 16925 C 1597.91 1.74337 0.886905 0
M  V30 16926 O 1599.12 2.3526 1.35517 0
M  V30 16927 C 1597.57 3.4624 -0.982119 0
M  V30 16928 C 1597.18 3.739 -2.46784 0
M  V30 16929 C 1598.92 4.18777 -0.694706 0
M  V30 16930 C 1596.83 5.20303 -2.81138 0
M  V30 16931 H 1595.76 0.723502 -0.212276 0
M  V30 16932 H 1598.41 1.43901 -1.13863 0
M  V30 16933 H 1596.79 3.94454 -0.349577 0
M  V30 16934 H 1597.97 3.3641 -3.14905 0
M  V30 16935 H 1596.28 3.14587 -2.72808 0
M  V30 16936 H 1598.88 5.2659 -0.927756 0
M  V30 16937 H 1599.22 4.14667 0.368392 0
M  V30 16938 H 1599.76 3.76414 -1.28676 0
M  V30 16939 H 1596.5 5.29511 -3.86392 0
M  V30 16940 H 1596.02 5.58907 -2.17675 0
M  V30 16941 H 1597.69 5.88265 -2.69358 0
M  V30 16942 N 1597.83 0.703118 1.41046 0
M  V30 16943 C 1599.05 0.246552 2.05426 0
M  V30 16944 C 1599.47 -1.10704 1.52938 0
M  V30 16945 O 1598.83 -1.69329 0.680733 0
M  V30 16946 C 1598.88 0.203953 3.60924 0
M  V30 16947 O 1598.6 1.50408 4.11472 0
M  V30 16948 C 1600.1 -0.272686 4.42461 0
M  V30 16949 H 1597.32 0.113157 0.66139 0
M  V30 16950 H 1599.86 0.957823 1.80682 0
M  V30 16951 H 1598.02 -0.458194 3.84681 0
M  V30 16952 H 1598.43 1.39622 5.05575 0
M  V30 16953 H 1599.91 -0.251357 5.51427 0
M  V30 16954 H 1600.38 -1.31282 4.1912 0
M  V30 16955 H 1600.99 0.358733 4.23784 0
M  V30 16956 N 1599.3 -1.51086 0.448402 0
M  V30 16957 C 1600.55 -2.01367 -0.115904 0
M  V30 16958 C 1600.87 -1.33658 -1.42811 0
M  V30 16959 O 1602.07 -1.74968 -2.07602 0
M  V30 16960 C 1600.53 -3.58981 -0.257092 0
M  V30 16961 C 1600.14 -4.35634 1.04534 0
M  V30 16962 C 1601.88 -4.17373 -0.774573 0
M  V30 16963 C 1599.79 -5.84978 0.869184 0
M  V30 16964 H 1598.72 -0.752528 -0.0470907 0
M  V30 16965 H 1601.37 -1.74098 0.57985 0
M  V30 16966 H 1599.75 -3.82742 -1.01611 0
M  V30 16967 H 1600.92 -4.23612 1.81354 0
M  V30 16968 H 1599.24 -3.88745 1.49219 0
M  V30 16969 H 1601.84 -5.26673 -0.923032 0
M  V30 16970 H 1602.18 -3.77267 -1.75997 0
M  V30 16971 H 1602.71 -3.97732 -0.0735697 0
M  V30 16972 H 1599.45 -6.29516 1.82729 0
M  V30 16973 H 1598.97 -5.99634 0.140969 0
M  V30 16974 H 1600.65 -6.44852 0.526752 0
M  V30 16975 N 1600.78 -0.180154 -1.56567 0
M  V30 16976 C 1602.01 0.467861 -2.01233 0
M  V30 16977 C 1602.42 1.56754 -1.05948 0
M  V30 16978 O 1601.76 1.83621 -0.0539219 0
M  V30 16979 C 1601.83 1.09819 -3.42316 0
M  V30 16980 C 1601.49 0.139084 -4.56788 0
M  V30 16981 C 1602.49 -0.64592 -5.15872 0
M  V30 16982 C 1600.17 0.0323422 -5.0229 0
M  V30 16983 C 1602.17 -1.52478 -6.18894 0
M  V30 16984 C 1599.85 -0.850092 -6.05158 0
M  V30 16985 C 1600.85 -1.62723 -6.63333 0
M  V30 16986 O 1600.54 -2.4949 -7.64205 0
M  V30 16987 H 1600.27 0.12331 -0.664658 0
M  V30 16988 H 1602.82 -0.28166 -2.0346 0
M  V30 16989 H 1601.05 1.89601 -3.37029 0
M  V30 16990 H 1602.74 1.64931 -3.70881 0
M  V30 16991 H 1603.51 -0.573675 -4.81595 0
M  V30 16992 H 1599.39 0.627034 -4.56716 0
M  V30 16993 H 1602.93 -2.13182 -6.64228 0
M  V30 16994 H 1598.83 -0.923507 -6.3886 0
M  V30 16995 H 1599.6 -2.43104 -7.81564 0
M  V30 16996 N 1602.26 1.57322 0.0935319 0
M  V30 16997 C 1603.49 1.90754 0.814111 0
M  V30 16998 C 1603.91 0.774571 1.71412 0
M  V30 16999 O 1603.27 -0.273775 1.79221 0
M  V30 17000 C 1603.32 3.23055 1.60211 0
M  V30 17001 O 1602.42 3.10755 2.71118 0
M  V30 17002 H 1601.76 0.625237 0.223552 0
M  V30 17003 H 1604.29 2.04486 0.068288 0
M  V30 17004 H 1604.3 3.56401 1.986 0
M  V30 17005 H 1602.98 4.05101 0.941607 0
M  V30 17006 H 1601.55 2.88926 2.35745 0
M  V30 17007 O 1603.78 -0.237487 1.59744 0
M  V30 17008 H 1604.47 -0.879979 1.72557 0
M  V30 END ATOM
M  V30 BEGIN BOND
M  V30 END BOND
M  V30 END CTAB
M  END
$$$$
