drugbank_target|Q9UP52 Transferrin receptor protein 2 (DB13257; DB15617)
 OpenBabel12092120593D

  0  0  0     0  0            999 V3000
M  V30 BEGIN CTAB
M  V30 COUNTS 12395 12559 0 0 0
M  V30 BEGIN ATOM
M  V30 1 H -0.908 1.98254 -0.117106 0
M  V30 2 N 0 1.576 0 0
M  V30 3 C 0.933 2.03868 1.02534 0
M  V30 4 C 1.911 0.928543 1.3348 0
M  V30 5 O 3.095 1.19667 1.45644 0
M  V30 6 C 0.222 2.43627 2.35294 0
M  V30 7 C -0.732 3.65373 2.2001 0
M  V30 8 S 0.101 5.13292 1.52614 0
M  V30 9 C 1.257 5.56322 2.86805 0
M  V30 10 H 1.49 2.90518 0.631377 0
M  V30 11 H -0.977 1.52953 0.210867 0
M  V30 12 H 0.981 2.67203 3.11629 0
M  V30 13 H -0.358 1.57376 2.7183 0
M  V30 14 H -1.165 3.90944 3.18086 0
M  V30 15 H -1.563 3.418 1.51819 0
M  V30 16 H 0.729 5.58782 3.83104 0
M  V30 17 H 1.672 6.56266 2.65933 0
M  V30 18 H 2.08 4.83886 2.90714 0
M  V30 19 N 1.4781 -0.272755 1.55222 0
M  V30 20 C 2.3881 -1.35918 1.91216 0
M  V30 21 C 3.4041 -1.54026 0.809436 0
M  V30 22 O 4.5801 -1.68148 1.10852 0
M  V30 23 C 1.6451 -2.69834 2.17693 0
M  V30 24 C 0.7061 -2.6047 3.41253 0
M  V30 25 C -0.0609 -3.88 3.66458 0
M  V30 26 O 0.1621 -4.88693 2.94169 0
M  V30 27 O -0.9039 -3.88189 4.59992 0
M  V30 28 H 2.9221 -1.0839 2.83699 0
M  V30 29 H 0.5071 -0.471301 1.41771 0
M  V30 30 H 2.3891 -3.49017 2.36147 0
M  V30 31 H 1.0641 -2.97148 1.28392 0
M  V30 32 H -0.0289 -1.79663 3.28134 0
M  V30 33 H 1.3041 -2.38106 4.30774 0
M  V30 34 N 2.9562 -1.48159 -0.537278 0
M  V30 35 C 4.3722 -1.34118 -0.865129 0
M  V30 36 C 4.5722 -0.346678 -1.98495 0
M  V30 37 O 3.6282 0.234715 -2.51407 0
M  V30 38 C 4.9412 -2.73963 -1.23954 0
M  V30 39 C 6.4892 -2.82397 -1.34984 0
M  V30 40 C 6.9642 -4.22928 -1.75772 0
M  V30 41 N 8.4552 -4.25566 -1.82887 0
M  V30 42 C 9.1902 -5.31235 -2.15817 0
M  V30 43 N 8.6862 -6.47189 -2.47222 0
M  V30 44 N 10.4792 -5.18624 -2.16761 0
M  V30 45 H 2.6302 -2.1144 0.201715 0
M  V30 46 H 4.8932 -0.947598 0.0275949 0
M  V30 47 H 4.5992 -3.48264 -0.490381 0
M  V30 48 H 4.4732 -3.0702 -2.19132 0
M  V30 49 H 6.8602 -2.08356 -2.08978 0
M  V30 50 H 6.9412 -2.5297 -0.379448 0
M  V30 51 H 6.5852 -4.97482 -1.02341 0
M  V30 52 H 6.5152 -4.49794 -2.73848 0
M  V30 53 H 9.0062 -3.41924 -1.60924 0
M  V30 54 H 9.3192 -7.23564 -2.71433 0
M  V30 55 H 7.6642 -6.50476 -2.44757 0
M  V30 56 H 10.8552 -4.27056 -1.91679 0
M  V30 57 H 11.0282 -6.01078 -2.42093 0
M  V30 58 N 4.4343 0.785586 -1.36625 0
M  V30 59 C 5.3643 1.91259 -1.33949 0
M  V30 60 C 6.3453 1.68795 -0.210325 0
M  V30 61 O 7.5303 1.89854 -0.408561 0
M  V30 62 C 4.6603 3.28339 -1.13186 0
M  V30 63 C 3.6143 3.65335 -2.22967 0
M  V30 64 C 2.9403 5.00806 -1.87342 0
M  V30 65 C 4.2403 3.7352 -3.65075 0
M  V30 66 H 5.9343 1.93755 -2.28253 0
M  V30 67 H 3.4803 0.930788 -1.09874 0
M  V30 68 H 5.4333 4.06804 -1.09948 0
M  V30 69 H 4.1573 3.2624 -0.153332 0
M  V30 70 H 2.8163 2.89169 -2.25337 0
M  V30 71 H 2.4643 4.95233 -0.880545 0
M  V30 72 H 2.1643 5.26529 -2.60846 0
M  V30 73 H 3.6883 5.81687 -1.85667 0
M  V30 74 H 5.1023 4.42168 -3.64911 0
M  V30 75 H 3.4993 4.10731 -4.37516 0
M  V30 76 H 4.5693 2.74527 -3.99703 0
M  V30 77 N 5.9124 1.20967 1.01018 0
M  V30 78 C 7.1584 1.0353 1.7508 0
M  V30 79 C 7.5134 -0.42734 1.87594 0
M  V30 80 O 6.8064 -1.31298 1.3954 0
M  V30 81 C 7.0004 1.65997 3.16512 0
M  V30 82 C 6.8294 3.18184 3.17788 0
M  V30 83 C 5.5994 3.87198 3.24662 0
M  V30 84 C 7.7974 4.15334 3.03319 0
M  V30 85 N 5.7794 5.26618 3.15509 0
M  V30 86 C 7.1504 5.41472 3.02007 0
M  V30 87 C 9.2054 4.06449 2.87583 0
M  V30 88 C 7.9084 6.5975 2.86571 0
M  V30 89 C 9.9344 5.24357 2.73503 0
M  V30 90 C 9.2964 6.49404 2.72862 0
M  V30 91 H 5.3954 0.433137 0.651089 0
M  V30 92 H 7.9794 1.5324 1.20107 0
M  V30 93 H 6.1504 1.18863 3.69765 0
M  V30 94 H 7.8824 1.41816 3.79039 0
M  V30 95 H 4.6374 3.38093 3.31648 0
M  V30 96 H 5.0614 5.99626 3.14289 0
M  V30 97 H 9.7034 3.10573 2.86887 0
M  V30 98 H 7.4214 7.55792 2.86015 0
M  V30 99 H 11.0074 5.19299 2.62334 0
M  V30 100 H 9.8874 7.39105 2.62093 0
M  V30 101 N 7.3905 -1.2043 1.01659 0
M  V30 102 C 8.6385 -1.89423 0.704522 0
M  V30 103 C 8.9595 -1.79231 -0.768197 0
M  V30 104 O 8.2295 -1.1947 -1.55254 0
M  V30 105 H 6.8095 -0.701178 0.257602 0
M  V30 106 H 9.4715 -1.4626 1.28818 0
M  V30 107 H 8.5675 -2.96052 0.987916 0
M  V30 108 N 8.8686 -0.792821 -1.36206 0
M  V30 109 C 9.7986 -0.207853 -2.32573 0
M  V30 110 C 10.7796 0.659055 -1.56813 0
M  V30 111 O 11.9646 0.592176 -1.84951 0
M  V30 112 C 9.0946 0.655449 -3.41059 0
M  V30 113 C 8.0486 -0.111842 -4.27854 0
M  V30 114 C 7.3746 0.872274 -5.27537 0
M  V30 115 C 8.6746 -1.30299 -5.05786 0
M  V30 116 H 10.3686 -1.01294 -2.81744 0
M  V30 117 H 7.9146 -0.48854 -1.3546 0
M  V30 118 H 9.8676 1.07464 -4.07467 0
M  V30 119 H 8.5916 1.49328 -2.90463 0
M  V30 120 H 7.2506 -0.512053 -3.63006 0
M  V30 121 H 6.8986 1.70523 -4.73214 0
M  V30 122 H 6.5986 0.363291 -5.86476 0
M  V30 123 H 8.1226 1.28996 -5.96818 0
M  V30 124 H 9.5366 -0.959379 -5.65216 0
M  V30 125 H 7.9336 -1.7455 -5.74154 0
M  V30 126 H 9.0036 -2.09663 -4.37229 0
M  V30 127 N 10.3467 1.47872 -0.545128 0
M  V30 128 C 11.5937 2.02493 -0.0165858 0
M  V30 129 C 11.9217 1.42073 1.32836 0
M  V30 130 O 11.1767 0.561459 1.87473 0
M  V30 131 C 11.4757 3.57131 0.13867 0
M  V30 132 C 11.1417 4.36411 -1.13384 0
M  V30 133 C 9.8037 4.57792 -1.48256 0
M  V30 134 C 12.1557 4.82223 -1.97764 0
M  V30 135 C 9.4837 5.22233 -2.67376 0
M  V30 136 C 11.8357 5.47977 -3.16076 0
M  V30 137 C 10.4997 5.67593 -3.51275 0
M  V30 138 H 9.7697 0.740975 -0.00606918 0
M  V30 139 H 12.4167 1.77683 -0.714207 0
M  V30 140 H 10.7217 3.80865 0.919172 0
M  V30 141 H 12.4187 3.97031 0.562782 0
M  V30 142 H 9.0087 4.2004 -0.852297 0
M  V30 143 H 13.1927 4.65493 -1.72132 0
M  V30 144 H 8.4487 5.35616 -2.94831 0
M  V30 145 H 12.6227 5.8244 -3.81755 0
M  V30 146 H 10.2497 6.17298 -4.43675 0
M  V30 147 N 11.8248 0.280983 1.55075 0
M  V30 148 C 12.7568 -0.637268 2.20163 0
M  V30 149 C 13.7698 -1.11298 1.18813 0
M  V30 150 O 14.9588 -1.03388 1.4551 0
M  V30 151 C 12.0588 -1.88199 2.81841 0
M  V30 152 C 11.2318 -1.55211 4.08936 0
M  V30 153 C 10.2908 -2.64991 4.54606 0
M  V30 154 O 9.3168 -2.30929 5.2025 0
M  V30 155 N 10.5188 -3.95161 4.25238 0
M  V30 156 H 13.2838 -0.0801694 2.99593 0
M  V30 157 H 10.8448 0.102329 1.61576 0
M  V30 158 H 12.8368 -2.60948 3.09335 0
M  V30 159 H 11.4068 -2.34799 2.06369 0
M  V30 160 H 10.6268 -0.658185 3.88666 0
M  V30 161 H 11.9148 -1.30681 4.91732 0
M  V30 162 H 11.3128 -4.25653 3.72607 0
M  V30 163 H 9.8698 -4.6427 4.5749 0
M  V30 164 N 13.3029 -1.57598 0.00835791 0
M  V30 165 C 14.7189 -1.55764 -0.347822 0
M  V30 166 C 14.9189 -1.01186 -1.74252 0
M  V30 167 O 13.9749 -0.649371 -2.44007 0
M  V30 168 C 15.2879 -2.99927 -0.215407 0
M  V30 169 C 16.8359 -3.11656 -0.289725 0
M  V30 170 C 17.3109 -4.57621 -0.18634 0
M  V30 171 N 18.8019 -4.62557 -0.243978 0
M  V30 172 C 19.5369 -5.73094 -0.18745 0
M  V30 173 N 19.0329 -6.92753 -0.0810331 0
M  V30 174 N 20.8259 -5.61588 -0.239925 0
M  V30 175 H 12.9769 -1.91411 0.92062 0
M  V30 176 H 15.2399 -0.879562 0.353659 0
M  V30 177 H 14.9459 -3.43729 0.744512 0
M  V30 178 H 14.8199 -3.63865 -0.994097 0
M  V30 179 H 17.2069 -2.67779 -1.24009 0
M  V30 180 H 17.2879 -2.5048 0.51898 0
M  V30 181 H 16.9319 -5.02174 0.760519 0
M  V30 182 H 16.8619 -5.16752 -1.01364 0
M  V30 183 H 19.3529 -3.76481 -0.327217 0
M  V30 184 H 19.6659 -7.72787 -0.0440241 0
M  V30 185 H 18.0109 -6.94984 -0.0465419 0
M  V30 186 H 21.2019 -4.66996 -0.321317 0
M  V30 187 H 21.3749 -6.47714 -0.192407 0
M  V30 188 N 14.781 0.264519 -1.55364 0
M  V30 189 C 15.744 1.31046 -1.88042 0
M  V30 190 C 16.744 1.41943 -0.755569 0
M  V30 191 O 17.934 1.40947 -1.02369 0
M  V30 192 C 15.066 2.69067 -2.09323 0
M  V30 193 H 16.259 1.03297 -2.81549 0
M  V30 194 H 13.812 0.502989 -1.47986 0
M  V30 195 H 14.547 3.01982 -1.18226 0
M  V30 196 H 14.332 2.62542 -2.91229 0
M  V30 197 H 15.822 3.44623 -2.35848 0
M  V30 198 N 16.2591 1.48442 0.529413 0
M  V30 199 C 17.1911 1.59095 1.64989 0
M  V30 200 C 18.2041 0.475212 1.5571 0
M  V30 201 O 19.3931 0.746081 1.6216 0
M  V30 202 C 16.4931 1.50518 3.0364 0
M  V30 203 C 15.6661 2.77142 3.38395 0
M  V30 204 C 14.7251 2.62012 4.56329 0
M  V30 205 O 13.7511 3.35898 4.59522 0
M  V30 206 N 14.9531 1.71667 5.54536 0
M  V30 207 H 17.7181 2.55723 1.56287 0
M  V30 208 H 15.2791 1.45173 0.716697 0
M  V30 209 H 17.2711 1.38091 3.80412 0
M  V30 210 H 15.8411 0.618627 3.06418 0
M  V30 211 H 15.0611 3.0413 2.50796 0
M  V30 212 H 16.3491 3.61146 3.58401 0
M  V30 213 H 15.7471 1.10841 5.54735 0
M  V30 214 H 14.3041 1.65178 6.30523 0
M  V30 215 N 17.7372 -0.778329 1.37039 0
M  V30 216 C 18.6692 -1.90034 1.2814 0
M  V30 217 C 19.6822 -1.61585 0.198558 0
M  V30 218 O 20.8712 -1.72625 0.454175 0
M  V30 219 C 17.9712 -3.25108 0.956968 0
M  V30 220 C 17.1442 -3.81253 2.14394 0
M  V30 221 C 16.2032 -4.94789 1.79082 0
M  V30 222 O 15.2292 -5.10721 2.51301 0
M  V30 223 N 16.4312 -5.75878 0.731043 0
M  V30 224 H 19.1962 -1.98186 2.24816 0
M  V30 225 H 16.7572 -0.957129 1.30578 0
M  V30 226 H 18.7492 -3.9857 0.701701 0
M  V30 227 H 17.3192 -3.125 0.0789812 0
M  V30 228 H 16.5392 -2.99647 2.56135 0
M  V30 229 H 17.8272 -4.15495 2.93668 0
M  V30 230 H 17.2252 -5.65547 0.131618 0
M  V30 231 H 15.7822 -6.49596 0.535622 0
M  V30 232 N 19.2153 -1.21501 -1.00376 0
M  V30 233 C 20.1453 -0.999478 -2.11028 0
M  V30 234 C 21.1263 0.0759671 -1.6993 0
M  V30 235 O 22.3113 -0.0841106 -1.94018 0
M  V30 236 C 19.4413 -0.564709 -3.42678 0
M  V30 237 C 18.3953 -1.58486 -3.97576 0
M  V30 238 C 17.7213 -1.00628 -5.25146 0
M  V30 239 C 19.0213 -2.97204 -4.29496 0
M  V30 240 H 20.7153 -1.92495 -2.29317 0
M  V30 241 H 18.2613 -0.92693 -1.102 0
M  V30 242 H 20.2143 -0.401091 -4.19487 0
M  V30 243 H 18.9383 0.396411 -3.24185 0
M  V30 244 H 17.5973 -1.73606 -3.22888 0
M  V30 245 H 17.2453 -0.0368439 -5.02987 0
M  V30 246 H 16.9453 -1.68771 -5.62841 0
M  V30 247 H 18.4693 -0.854015 -6.04598 0
M  V30 248 H 19.8833 -2.8552 -4.97143 0
M  V30 249 H 18.2803 -3.62372 -4.78338 0
M  V30 250 H 19.3503 -3.47956 -3.3772 0
M  V30 251 N 20.6934 1.19889 -1.02296 0
M  V30 252 C 21.9184 1.9393 -0.735237 0
M  V30 253 C 22.3434 1.74639 0.698782 0
M  V30 254 O 21.7014 1.04481 1.48167 0
M  V30 255 C 21.7494 3.43916 -1.08417 0
M  V30 256 O 20.8534 4.11917 -0.199446 0
M  V30 257 H 20.1944 0.605645 -0.272196 0
M  V30 258 H 22.7244 1.52137 -1.36804 0
M  V30 259 H 22.7344 3.9456 -1.03856 0
M  V30 260 H 21.4094 3.5728 -2.12894 0
M  V30 261 H 19.9864 3.71666 -0.303136 0
M  V30 262 N 22.1715 0.800033 1.35784 0
M  V30 263 C 23.5825 0.439142 1.81462 0
M  V30 264 C 23.9335 -1.03813 1.66485 0
M  V30 265 O 23.0585 -1.80626 1.19177 0
M  V30 266 C 23.6535 0.790314 3.29453 0
M  V30 267 C 22.2125 0.482111 3.733 0
M  V30 268 C 21.3595 1.01938 2.57883 0
M  V30 269 H 24.3105 0.992254 1.23855 0
M  V30 270 H 24.3315 0.0853677 3.80404 0
M  V30 271 H 23.8435 1.86554 3.40322 0
M  V30 272 H 21.9445 -0.584652 3.67984 0
M  V30 273 H 22.0575 1.01015 4.6833 0
M  V30 274 H 20.4215 0.442043 2.50835 0
M  V30 275 H 21.2045 2.10059 2.71533 0
M  V30 276 N 23.6496 -1.47581 0.552962 0
M  V30 277 C 25.0656 -1.5818 0.212424 0
M  V30 278 C 25.2656 -1.55213 -1.28496 0
M  V30 279 O 24.3216 -1.45329 -2.06484 0
M  V30 280 C 25.6346 -2.88865 0.835318 0
M  V30 281 C 27.1826 -3.0244 0.806156 0
M  V30 282 C 27.6576 -4.35819 1.40804 0
M  V30 283 N 29.1486 -4.42444 1.37103 0
M  V30 284 C 29.8836 -5.44202 1.80641 0
M  V30 285 N 29.3796 -6.52795 2.32015 0
M  V30 286 N 31.1726 -5.35222 1.71738 0
M  V30 287 H 23.3236 -1.47753 1.52587 0
M  V30 288 H 25.5866 -0.702941 0.636064 0
M  V30 289 H 25.2926 -2.9676 1.88749 0
M  V30 290 H 25.1666 -3.7579 0.325848 0
M  V30 291 H 27.5536 -2.94144 -0.237317 0
M  V30 292 H 27.6346 -2.17068 1.35334 0
M  V30 293 H 27.2786 -4.44871 2.45056 0
M  V30 294 H 27.2086 -5.19916 0.836338 0
M  V30 295 H 29.6996 -3.6456 0.995202 0
M  V30 296 H 30.0126 -7.26609 2.63171 0
M  V30 297 H 28.3576 -6.53696 2.36023 0
M  V30 298 H 31.5486 -4.49284 1.31382 0
M  V30 299 H 31.7216 -6.14389 2.05987 0
M  V30 300 N 25.1277 -0.289203 -1.54924 0
M  V30 301 C 26.3527 0.329299 -2.04769 0
M  V30 302 C 26.7777 1.4763 -1.16564 0
M  V30 303 O 26.1357 1.80527 -0.167186 0
M  V30 304 C 26.1837 0.774438 -3.52186 0
M  V30 305 O 25.2877 1.88038 -3.67036 0
M  V30 306 H 24.6287 0.0659259 -0.660719 0
M  V30 307 H 27.1587 -0.42761 -2.00082 0
M  V30 308 H 27.1687 1.06642 -3.93816 0
M  V30 309 H 25.8437 -0.0646707 -4.1585 0
M  V30 310 H 24.4207 1.58985 -3.3731 0
M  V30 311 N 26.6058 1.57591 -0.0167156 0
M  V30 312 C 27.8308 1.9598 0.67872 0
M  V30 313 C 28.2558 0.892546 1.65575 0
M  V30 314 O 27.6138 -0.147772 1.80697 0
M  V30 315 C 27.6618 3.33468 1.37227 0
M  V30 316 O 26.7658 3.28954 2.48722 0
M  V30 317 H 26.1068 0.639339 0.17928 0
M  V30 318 H 28.6368 2.04463 -0.0748802 0
M  V30 319 H 28.6468 3.69417 1.7319 0
M  V30 320 H 27.3218 4.10694 0.656007 0
M  V30 321 H 25.8988 3.04705 2.14963 0
M  V30 322 N 28.0839 -0.256276 1.55502 0
M  V30 323 C 29.0159 -1.33981 1.85962 0
M  V30 324 C 30.0289 -1.44743 0.745212 0
M  V30 325 O 31.2179 -1.4626 1.02324 0
M  V30 326 C 28.3179 -2.7194 2.02242 0
M  V30 327 C 27.4909 -2.83562 3.33033 0
M  V30 328 C 26.5499 -4.02304 3.39172 0
M  V30 329 O 25.5759 -3.92273 4.12444 0
M  V30 330 N 26.7779 -5.15045 2.67784 0
M  V30 331 H 29.5429 -1.08191 2.7949 0
M  V30 332 H 27.1039 -0.446388 1.55624 0
M  V30 333 H 29.0959 -3.49697 2.03701 0
M  V30 334 H 27.6659 -2.90479 1.15502 0
M  V30 335 H 26.8859 -1.92555 3.43971 0
M  V30 336 H 28.1739 -2.88271 4.19258 0
M  V30 337 H 27.5719 -5.26085 2.07968 0
M  V30 338 H 26.1289 -5.90972 2.74947 0
M  V30 339 N 29.562 -1.4872 -0.521534 0
M  V30 340 C 30.79 -1.60843 -1.30142 0
M  V30 341 C 31.205 -0.271897 -1.86832 0
M  V30 342 O 30.562 0.739969 -1.66825 0
M  V30 343 C 30.613 -2.66155 -2.4463 0
M  V30 344 O 30.334 -3.94623 -1.90275 0
M  V30 345 C 31.835 -2.88795 -3.36322 0
M  V30 346 H 29.055 -0.542075 -0.395468 0
M  V30 347 H 31.599 -1.94609 -0.628285 0
M  V30 348 H 29.754 -2.35224 -3.07812 0
M  V30 349 H 30.168 -4.52468 -2.65279 0
M  V30 350 H 31.642 -3.66264 -4.12983 0
M  V30 351 H 32.119 -1.97934 -3.9207 0
M  V30 352 H 32.725 -3.21063 -2.78924 0
M  V30 353 N 31.0401 0.771051 -1.3745 0
M  V30 354 C 32.2861 1.5319 -1.32894 0
M  V30 355 C 32.6191 1.94008 0.0862511 0
M  V30 356 O 31.8941 1.64124 1.04373 0
M  V30 357 C 32.1771 2.79648 -2.26868 0
M  V30 358 C 32.0301 2.45079 -3.77169 0
M  V30 359 C 33.3491 3.81583 -2.19277 0
M  V30 360 H 30.4681 0.555744 -0.484064 0
M  V30 361 H 33.1101 0.884492 -1.68157 0
M  V30 362 H 31.2601 3.34891 -1.96926 0
M  V30 363 H 32.9321 1.95745 -4.1771 0
M  V30 364 H 31.1751 1.77767 -3.95704 0
M  V30 365 H 31.8461 3.35478 -4.38359 0
M  V30 366 H 34.3221 3.35835 -2.45671 0
M  V30 367 H 33.1981 4.67787 -2.87171 0
M  V30 368 H 33.4591 4.25897 -1.18592 0
M  V30 369 N 32.5182 1.22032 0.997298 0
M  V30 370 C 33.7482 1.06686 1.76923 0
M  V30 371 C 34.1562 -0.385838 1.85224 0
M  V30 372 O 33.4992 -1.27929 1.31833 0
M  V30 373 C 33.5612 1.59802 3.22031 0
M  V30 374 C 33.2252 3.08362 3.37286 0
M  V30 375 C 34.2222 4.05835 3.24952 0
M  V30 376 C 31.9072 3.47727 3.6248 0
M  V30 377 C 33.9012 5.4066 3.37588 0
M  V30 378 C 31.5882 4.82701 3.74757 0
M  V30 379 C 32.5862 5.78977 3.62319 0
M  V30 380 O 32.2742 7.11502 3.74193 0
M  V30 381 H 32.0062 0.374767 0.562606 0
M  V30 382 H 34.5602 1.61991 1.26286 0
M  V30 383 H 32.7902 0.989003 3.73839 0
M  V30 384 H 34.4792 1.40184 3.80924 0
M  V30 385 H 35.2452 3.76766 3.05405 0
M  V30 386 H 31.1242 2.73317 3.7124 0
M  V30 387 H 34.6682 6.15788 3.27796 0
M  V30 388 H 30.5652 5.11453 3.9381 0
M  V30 389 H 31.3332 7.19019 3.91093 0
M  V30 390 N 33.9963 -1.19345 1.0293 0
M  V30 391 C 34.9283 -2.22036 0.56857 0
M  V30 392 C 35.9413 -1.58865 -0.355779 0
M  V30 393 O 37.1303 -1.77851 -0.152103 0
M  V30 394 C 34.2303 -3.38363 -0.190752 0
M  V30 395 C 33.4033 -4.31118 0.738643 0
M  V30 396 C 32.4623 -5.26194 0.0246497 0
M  V30 397 O 31.4883 -5.65461 0.651354 0
M  V30 398 N 32.6903 -5.66971 -1.24594 0
M  V30 399 H 35.4553 -2.6219 1.45177 0
M  V30 400 H 33.0163 -1.34015 0.908381 0
M  V30 401 H 35.0083 -3.98981 -0.677961 0
M  V30 402 H 33.5783 -2.96994 -0.975366 0
M  V30 403 H 32.7983 -3.68276 1.40593 0
M  V30 404 H 34.0863 -4.90001 1.37029 0
M  V30 405 H 33.4843 -5.37104 -1.77583 0
M  V30 406 H 32.0413 -6.2984 -1.67764 0
M  V30 407 N 35.4744 -0.807222 -1.35358 0
M  V30 408 C 36.8904 -0.491038 -1.51858 0
M  V30 409 C 37.0904 0.987648 -1.75635 0
M  V30 410 O 36.1464 1.77265 -1.79815 0
M  V30 411 C 37.4594 -1.33695 -2.69344 0
M  V30 412 C 39.0074 -1.33246 -2.83222 0
M  V30 413 C 39.4824 -2.1625 -4.03733 0
M  V30 414 N 40.9734 -2.1379 -4.10911 0
M  V30 415 C 41.7084 -2.74772 -5.03277 0
M  V30 416 N 41.2044 -3.44684 -6.0097 0
M  V30 417 N 42.9974 -2.6441 -4.96028 0
M  V30 418 H 35.1484 -1.76485 -1.18181 0
M  V30 419 H 37.4114 -0.751199 -0.578276 0
M  V30 420 H 37.1174 -2.38634 -2.58354 0
M  V30 421 H 36.9914 -0.990618 -3.6396 0
M  V30 422 H 39.3784 -0.290911 -2.93663 0
M  V30 423 H 39.4594 -1.71866 -1.89461 0
M  V30 424 H 39.1034 -3.20445 -3.94052 0
M  V30 425 H 39.0334 -1.74989 -4.96675 0
M  V30 426 H 41.5244 -1.62923 -3.40976 0
M  V30 427 H 41.8374 -3.88501 -6.68047 0
M  V30 428 H 40.1824 -3.48788 -6.01142 0
M  V30 429 H 43.3734 -2.0938 -4.18662 0
M  V30 430 H 43.5464 -3.12225 -5.6782 0
M  V30 431 N 36.9525 1.47285 -0.560781 0
M  V30 432 C 38.1985 2.02764 -0.0381184 0
M  V30 433 C 38.5315 1.43384 1.30976 0
M  V30 434 O 37.8065 0.590733 1.85312 0
M  V30 435 C 38.0895 3.60064 0.0511427 0
M  V30 436 C 37.9425 4.2987 -1.32408 0
M  V30 437 C 39.2615 4.33439 0.762795 0
M  V30 438 H 36.3805 0.736841 -0.0153264 0
M  V30 439 H 39.0225 1.75675 -0.723759 0
M  V30 440 H 37.1725 3.83274 0.635065 0
M  V30 441 H 38.8445 4.17989 -1.95148 0
M  V30 442 H 37.0875 3.90085 -1.8978 0
M  V30 443 H 37.7585 5.38478 -1.21431 0
M  V30 444 H 40.2345 4.15243 0.266965 0
M  V30 445 H 39.1105 5.43124 0.794221 0
M  V30 446 H 39.3715 4.02915 1.81966 0
M  V30 447 N 38.4306 0.297415 1.54768 0
M  V30 448 C 39.3406 -0.58983 2.27064 0
M  V30 449 C 40.3566 -1.15144 1.30453 0
M  V30 450 O 41.5326 -1.17699 1.63428 0
M  V30 451 C 38.5976 -1.74714 2.9946 0
M  V30 452 C 37.6586 -1.21997 4.11601 0
M  V30 453 C 36.8916 -2.32212 4.80535 0
M  V30 454 O 37.1146 -3.52036 4.48806 0
M  V30 455 O 36.0486 -1.99106 5.68014 0
M  V30 456 H 39.8746 -0.00348199 3.037 0
M  V30 457 H 37.4596 0.0640035 1.49263 0
M  V30 458 H 39.3416 -2.42147 3.44881 0
M  V30 459 H 38.0166 -2.32016 2.25722 0
M  V30 460 H 36.9236 -0.511458 3.70587 0
M  V30 461 H 38.2566 -0.692419 4.87305 0
M  V30 462 N 39.9087 -1.5758 0.0250728 0
M  V30 463 C 41.1567 -1.91255 -0.653151 0
M  V30 464 C 41.4777 -0.901691 -1.729 0
M  V30 465 O 40.7477 0.0573785 -1.95816 0
M  V30 466 H 39.3277 -0.705942 -0.244243 0
M  V30 467 H 41.9897 -1.94767 0.0719209 0
M  V30 468 H 41.0857 -2.91752 -1.10847 0
M  V30 469 N 41.3868 0.248026 -1.55636 0
M  V30 470 C 42.7978 0.817177 -1.67866 0
M  V30 471 C 43.1488 1.86069 -0.622322 0
M  V30 472 O 42.2738 2.15157 0.231618 0
M  V30 473 C 42.8688 1.489 -3.04326 0
M  V30 474 C 41.4278 2.00587 -3.185 0
M  V30 475 C 40.5748 0.856573 -2.63739 0
M  V30 476 H 43.5258 0.0238579 -1.58682 0
M  V30 477 H 43.5468 2.35698 -2.98708 0
M  V30 478 H 43.0588 0.729279 -3.81186 0
M  V30 479 H 41.1598 2.79443 -2.4646 0
M  V30 480 H 41.2728 2.20402 -4.25393 0
M  V30 481 H 39.6368 1.25678 -2.21534 0
M  V30 482 H 40.4198 0.109953 -3.43124 0
M  V30 483 N 42.8649 1.48995 0.513639 0
M  V30 484 C 44.2809 1.35478 0.843682 0
M  V30 485 C 44.4809 0.378213 1.97919 0
M  V30 486 O 43.5369 -0.194689 2.51748 0
M  V30 487 C 44.8499 2.75901 1.1958 0
M  V30 488 C 46.3979 2.84509 1.30474 0
M  V30 489 C 46.8729 4.25671 1.69021 0
M  V30 490 N 48.3639 4.28422 1.76094 0
M  V30 491 C 49.0989 5.34601 2.07338 0
M  V30 492 N 48.5949 6.5104 2.36894 0
M  V30 493 N 50.3879 5.22007 2.08483 0
M  V30 494 H 42.5389 2.11092 -0.235328 0
M  V30 495 H 44.8019 0.947039 -0.0426669 0
M  V30 496 H 44.5079 3.49001 0.434913 0
M  V30 497 H 44.3819 3.10467 2.1422 0
M  V30 498 H 46.7689 2.11655 2.05637 0
M  V30 499 H 46.8499 2.53542 0.339155 0
M  V30 500 H 46.4939 4.99048 0.944135 0
M  V30 501 H 46.4239 4.54094 2.66658 0
M  V30 502 H 48.9149 3.44441 1.55464 0
M  V30 503 H 49.2279 7.2779 2.59887 0
M  V30 504 H 47.5729 6.54287 2.34378 0
M  V30 505 H 50.7639 4.30051 1.84861 0
M  V30 506 H 50.9369 6.04854 2.325 0
M  V30 507 N 44.343 -0.763751 1.37857 0
M  V30 508 C 45.29 -1.87726 1.34267 0
M  V30 509 C 46.26 -1.64807 0.206879 0
M  V30 510 O 47.445 -1.86613 0.397508 0
M  V30 511 C 44.585 -3.24896 1.16346 0
M  V30 512 C 43.698 -3.59716 2.39225 0
M  V30 513 C 42.833 -4.86137 2.14114 0
M  V30 514 C 41.872 -5.13711 3.32817 0
M  V30 515 N 41.009 -6.31323 3.07206 0
M  V30 516 H 45.849 -1.90129 2.29466 0
M  V30 517 H 43.386 -0.929433 1.14017 0
M  V30 518 H 45.344 -4.04036 1.03975 0
M  V30 519 H 43.974 -3.21847 0.247909 0
M  V30 520 H 43.026 -2.75498 2.62307 0
M  V30 521 H 44.338 -3.76027 3.27728 0
M  V30 522 H 43.492 -5.73198 1.9882 0
M  V30 523 H 42.231 -4.71945 1.22961 0
M  V30 524 H 41.236 -4.25123 3.48641 0
M  V30 525 H 42.461 -5.29807 4.24832 0
M  V30 526 H 40.407 -6.18474 2.1869 0
M  V30 527 H 40.324 -6.48087 3.89254 0
M  V30 528 H 41.592 -7.213 2.95546 0
M  V30 529 N 45.8211 -1.22559 -0.990812 0
M  V30 530 C 47.0691 -1.04933 -1.72724 0
M  V30 531 C 47.3901 0.416158 -1.90508 0
M  V30 532 O 46.6601 1.29918 -1.46622 0
M  V30 533 H 45.2401 -0.385296 -0.639965 0
M  V30 534 H 47.9021 -1.54105 -1.19322 0
M  V30 535 H 46.9981 -1.52886 -2.72089 0
M  V30 536 N 47.2992 1.18797 -1.03562 0
M  V30 537 C 48.2492 2.20161 -0.592724 0
M  V30 538 C 49.2332 1.56772 0.362133 0
M  V30 539 O 50.4252 1.76062 0.182009 0
M  V30 540 C 47.5542 3.43266 0.0481024 0
M  V30 541 C 46.6402 4.13786 -0.9296 0
M  V30 542 N 47.0312 4.60388 -2.09467 0
M  V30 543 C 45.3292 4.39572 -0.754499 0
M  V30 544 C 46.0302 5.14619 -2.71187 0
M  V30 545 N 45.0062 5.05826 -1.991 0
M  V30 546 H 48.8082 2.53877 -1.48066 0
M  V30 547 H 46.3222 1.34946 -0.903514 0
M  V30 548 H 48.3192 4.15136 0.383058 0
M  V30 549 H 46.9792 3.11048 0.931636 0
M  V30 550 H 47.9902 4.54999 -2.47379 0
M  V30 551 H 44.6672 4.17425 0.0793713 0
M  V30 552 H 46.0572 5.60917 -3.69895 0
M  V30 553 N 48.7773 0.814389 1.34928 0
M  V30 554 C 49.7073 0.244827 2.32213 0
M  V30 555 C 50.6883 -0.634024 1.57842 0
M  V30 556 O 51.8733 -0.562676 1.8587 0
M  V30 557 C 49.0033 -0.601106 3.42058 0
M  V30 558 C 47.9573 0.179896 4.27622 0
M  V30 559 C 47.2833 -0.788237 5.28858 0
M  V30 560 C 48.5833 1.38329 5.03649 0
M  V30 561 H 50.2773 1.05763 2.80097 0
M  V30 562 H 47.8233 0.510029 1.34665 0
M  V30 563 H 49.7763 -1.00968 4.09125 0
M  V30 564 H 48.5003 -1.44688 2.92802 0
M  V30 565 H 47.1593 0.569739 3.62146 0
M  V30 566 H 46.8073 -1.62973 4.75866 0
M  V30 567 H 46.5073 -0.269942 5.8698 0
M  V30 568 H 48.0313 -1.19485 5.98795 0
M  V30 569 H 49.4453 1.04918 5.63618 0
M  V30 570 H 47.8423 1.83662 5.71304 0
M  V30 571 H 48.9123 2.16592 4.33839 0
M  V30 572 N 50.2554 -1.46986 0.568584 0
M  V30 573 C 51.1654 -2.33942 -0.17555 0
M  V30 574 C 52.1814 -1.48891 -0.90041 0
M  V30 575 O 53.3574 -1.81794 -0.86676 0
M  V30 576 C 50.4224 -3.25811 -1.18524 0
M  V30 577 C 49.4834 -4.26757 -0.466582 0
M  V30 578 C 48.7164 -5.14236 -1.42817 0
M  V30 579 O 48.9394 -5.04379 -2.66379 0
M  V30 580 O 47.8734 -5.94412 -0.946453 0
M  V30 581 H 51.6994 -2.98896 0.538036 0
M  V30 582 H 49.2844 -1.4573 0.329097 0
M  V30 583 H 51.1664 -3.82527 -1.76779 0
M  V30 584 H 49.8414 -2.63471 -1.88055 0
M  V30 585 H 48.7484 -3.73769 0.157451 0
M  V30 586 H 50.0814 -4.91843 0.187485 0
M  V30 587 N 51.7335 -0.305618 -1.54608 0
M  V30 588 C 52.6435 0.57778 -2.27374 0
M  V30 589 C 53.6595 1.14451 -1.31061 0
M  V30 590 O 54.8355 1.16831 -1.6405 0
M  V30 591 C 51.9005 1.73123 -3.00382 0
M  V30 592 C 50.9615 1.19812 -4.12242 0
M  V30 593 C 50.1945 2.2966 -4.81759 0
M  V30 594 O 50.4175 3.49651 -4.50666 0
M  V30 595 O 49.3515 1.96091 -5.69062 0
M  V30 596 H 53.1775 -0.012624 -3.03697 0
M  V30 597 H 50.7625 -0.0719184 -1.49227 0
M  V30 598 H 52.6445 2.40315 -3.4616 0
M  V30 599 H 51.3195 2.30815 -2.26949 0
M  V30 600 H 50.2265 0.491798 -3.70853 0
M  V30 601 H 51.5595 0.666566 -4.87666 0
M  V30 602 N 53.2116 1.57565 -0.0334293 0
M  V30 603 C 54.1216 2.13943 0.962572 0
M  V30 604 C 55.1376 1.09276 1.35406 0
M  V30 605 O 56.3136 1.41355 1.4346 0
M  V30 606 C 53.3786 2.65887 2.22497 0
M  V30 607 C 52.4396 3.85286 1.8935 0
M  V30 608 C 51.6726 4.34743 3.09571 0
M  V30 609 O 51.8956 3.83352 4.22371 0
M  V30 610 O 50.8296 5.26538 2.91618 0
M  V30 611 H 54.6556 2.99333 0.513169 0
M  V30 612 H 52.2406 1.4822 0.18743 0
M  V30 613 H 54.1226 2.99346 2.96598 0
M  V30 614 H 52.7976 1.83578 2.6661 0
M  V30 615 H 51.7046 3.56746 1.1262 0
M  V30 616 H 53.0376 4.68771 1.5005 0
M  V30 617 N 54.6897 -0.239769 1.55765 0
M  V30 618 C 55.5997 -1.31831 1.94056 0
M  V30 619 C 56.6157 -1.52275 0.841925 0
M  V30 620 O 57.7917 -1.65759 1.14394 0
M  V30 621 C 54.8567 -2.65156 2.23368 0
M  V30 622 C 53.9177 -2.53173 3.46701 0
M  V30 623 C 53.1507 -3.8014 3.74606 0
M  V30 624 O 53.3737 -4.82343 3.04469 0
M  V30 625 O 52.3077 -3.78344 4.68123 0
M  V30 626 H 56.1337 -1.02347 2.85935 0
M  V30 627 H 53.7187 -0.441123 1.42739 0
M  V30 628 H 55.6007 -3.43929 2.43497 0
M  V30 629 H 54.2757 -2.94358 1.34666 0
M  V30 630 H 53.1827 -1.72662 3.31871 0
M  V30 631 H 54.5157 -2.28915 4.35728 0
M  V30 632 N 56.1678 -1.49265 -0.50573 0
M  V30 633 C 57.0778 -1.68312 -1.63427 0
M  V30 634 C 58.0938 -0.565682 -1.64548 0
M  V30 635 O 59.2698 -0.839801 -1.83055 0
M  V30 636 C 56.3348 -1.74107 -2.99813 0
M  V30 637 C 55.3958 -2.97653 -3.09356 0
M  V30 638 C 54.6288 -3.03163 -4.39236 0
M  V30 639 O 54.8518 -2.16396 -5.27758 0
M  V30 640 O 53.7858 -3.9558 -4.53652 0
M  V30 641 H 57.6118 -2.63907 -1.50289 0
M  V30 642 H 55.1968 -1.32951 -0.681502 0
M  V30 643 H 57.0788 -1.803 -3.80881 0
M  V30 644 H 55.7538 -0.816901 -3.13223 0
M  V30 645 H 54.6608 -2.96981 -2.27493 0
M  V30 646 H 55.9938 -3.89535 -3.00871 0
M  V30 647 N 57.6459 0.756429 -1.3826 0
M  V30 648 C 58.9229 1.50584 -1.24835 0
M  V30 649 C 59.3029 2.10556 0.151485 0
M  V30 650 O 58.6509 1.96825 1.1607 0
M  V30 651 C 58.8609 2.57448 -2.3563 0
M  V30 652 C 60.2089 3.24429 -2.73917 0
M  V30 653 O 61.2329 2.67751 -2.34921 0
M  V30 654 O 60.0919 4.26937 -3.41156 0
M  V30 655 H 57.1859 0.667664 -0.48801 0
M  V30 656 H 59.7319 0.792083 -1.5008 0
M  V30 657 H 58.5039 2.11362 -3.29305 0
M  V30 658 H 58.1269 3.36408 -2.11933 0
M  V30 659 N 59.124 1.23083 0.984299 0
M  V30 660 C 60.372 1.05848 1.72165 0
M  V30 661 C 60.693 -0.406049 1.90726 0
M  V30 662 O 59.963 -1.29139 1.47309 0
M  V30 663 H 58.543 0.388685 0.637913 0
M  V30 664 H 61.205 1.54736 1.18503 0
M  V30 665 H 60.301 1.54327 2.71274 0
M  V30 666 N 60.6021 -1.18246 1.0419 0
M  V30 667 C 61.5121 -2.25574 0.644476 0
M  V30 668 C 62.5281 -1.70845 -0.329826 0
M  V30 669 O 63.7041 -2.00554 -0.184443 0
M  V30 670 C 60.7691 -3.46697 0.014877 0
M  V30 671 C 59.8301 -4.16554 1.03834 0
M  V30 672 C 59.0631 -5.31894 0.438692 0
M  V30 673 O 59.2861 -5.65385 -0.754752 0
M  V30 674 O 58.2201 -5.90459 1.168 0
M  V30 675 H 62.0461 -2.61836 1.53869 0
M  V30 676 H 59.6311 -1.25352 0.812854 0
M  V30 677 H 61.5131 -4.20062 -0.335538 0
M  V30 678 H 60.1881 -3.12255 -0.853138 0
M  V30 679 H 59.0951 -3.45251 1.44057 0
M  V30 680 H 60.4281 -4.54998 1.87716 0
M  V30 681 N 62.0802 -0.821533 -1.34494 0
M  V30 682 C 62.9902 -0.244355 -2.33324 0
M  V30 683 C 64.0062 0.620527 -1.62559 0
M  V30 684 O 65.1822 0.528754 -1.94335 0
M  V30 685 C 62.2472 0.585368 -3.41723 0
M  V30 686 C 61.3082 -0.301752 -4.28238 0
M  V30 687 C 60.5412 0.488466 -5.3146 0
M  V30 688 O 60.7642 1.72186 -5.4379 0
M  V30 689 O 59.6982 -0.12848 -6.01763 0
M  V30 690 H 63.5242 -1.06231 -2.84515 0
M  V30 691 H 61.1092 -0.583645 -1.37528 0
M  V30 692 H 62.9912 1.05747 -4.07916 0
M  V30 693 H 61.6662 1.38068 -2.92778 0
M  V30 694 H 60.5732 -0.821315 -3.64973 0
M  V30 695 H 61.9062 -1.06138 -4.8062 0
M  V30 696 N 63.5583 1.46682 -0.576371 0
M  V30 697 C 64.8063 2.02013 -0.0594163 0
M  V30 698 C 65.1273 1.45101 1.30271 0
M  V30 699 O 64.3973 0.633317 1.8538 0
M  V30 700 H 62.9773 0.746759 -0.0189745 0
M  V30 701 H 65.6393 1.79862 -0.750717 0
M  V30 702 H 64.7353 3.12097 0.014345 0
M  V30 703 N 65.0364 0.313813 1.54444 0
M  V30 704 C 65.9994 -0.54379 2.22656 0
M  V30 705 C 66.9994 -1.05124 1.21678 0
M  V30 706 O 68.1894 -0.945225 1.46325 0
M  V30 707 C 65.3214 -1.75427 2.92298 0
M  V30 708 H 66.5144 0.0523599 2.99854 0
M  V30 709 H 64.0674 0.0647834 1.56166 0
M  V30 710 H 64.8024 -2.38991 2.19211 0
M  V30 711 H 64.5874 -1.39791 3.66334 0
M  V30 712 H 66.0774 -2.36325 3.44297 0
M  V30 713 N 66.5145 -1.57545 0.0417849 0
M  V30 714 C 67.4245 -2.14451 -0.951213 0
M  V30 715 C 68.4405 -1.09992 -1.34825 0
M  V30 716 O 69.6165 -1.42114 -1.42708 0
M  V30 717 C 66.6815 -2.67063 -2.21084 0
M  V30 718 C 65.7425 -3.86284 -1.87304 0
M  V30 719 C 64.9755 -4.36378 -3.07261 0
M  V30 720 O 65.1985 -3.85587 -4.20332 0
M  V30 721 O 64.1325 -5.28077 -2.88822 0
M  V30 722 H 67.9585 -2.99601 -0.497287 0
M  V30 723 H 65.5435 -1.48317 -0.179567 0
M  V30 724 H 67.4255 -3.00914 -2.95006 0
M  V30 725 H 66.1005 -1.84989 -2.65633 0
M  V30 726 H 65.0075 -3.57338 -1.10727 0
M  V30 727 H 66.3405 -4.6956 -1.47562 0
M  V30 728 N 67.9926 0.231505 -1.5589 0
M  V30 729 C 69.2206 0.974505 -1.82513 0
M  V30 730 C 69.6356 1.78344 -0.619591 0
M  V30 731 O 68.9926 1.77792 0.411848 0
M  V30 732 C 69.0436 1.90007 -3.07538 0
M  V30 733 O 68.7646 1.12385 -4.2344 0
M  V30 734 C 70.2656 2.75779 -3.47075 0
M  V30 735 H 67.4856 0.286065 -0.606966 0
M  V30 736 H 70.0296 0.249739 -2.02969 0
M  V30 737 H 68.1846 2.57891 -2.89086 0
M  V30 738 H 68.5986 1.75125 -4.944 0
M  V30 739 H 70.0726 3.36443 -4.37619 0
M  V30 740 H 70.5496 3.47672 -2.68367 0
M  V30 741 H 71.1556 2.13323 -3.67931 0
M  V30 742 N 69.4707 1.49531 0.497807 0
M  V30 743 C 70.4007 1.6935 1.60757 0
M  V30 744 C 71.3817 0.542218 1.61227 0
M  V30 745 O 72.5667 0.778417 1.77917 0
M  V30 746 C 69.6967 1.76298 2.99226 0
M  V30 747 C 68.6507 2.91248 3.13622 0
M  V30 748 C 67.9767 2.83312 4.53474 0
M  V30 749 C 69.2767 4.3214 2.93346 0
M  V30 750 H 70.9707 2.62263 1.44425 0
M  V30 751 H 68.5167 1.26208 0.693367 0
M  V30 752 H 70.4697 1.88749 3.76765 0
M  V30 753 H 69.1937 0.799871 3.16654 0
M  V30 754 H 67.8527 2.78404 2.38509 0
M  V30 755 H 67.5007 1.84902 4.67782 0
M  V30 756 H 67.2007 3.60465 4.64046 0
M  V30 757 H 68.7247 2.97775 5.33069 0
M  V30 758 H 70.1387 4.45649 3.60652 0
M  V30 759 H 68.5357 5.1054 3.15387 0
M  V30 760 H 69.6057 4.46363 1.89441 0
M  V30 761 N 70.9488 -0.749086 1.3866 0
M  V30 762 C 71.9118 -1.84457 1.36045 0
M  V30 763 C 72.9118 -1.58682 0.260122 0
M  V30 764 O 74.1018 -1.66343 0.517261 0
M  V30 765 C 71.2338 -3.22008 1.11911 0
M  V30 766 H 72.4268 -1.88182 2.33512 0
M  V30 767 H 69.9798 -0.951266 1.24019 0
M  V30 768 H 70.7148 -3.2395 0.150686 0
M  V30 769 H 70.4998 -3.42111 1.91579 0
M  V30 770 H 71.9898 -4.0208 1.12788 0
M  V30 771 N 72.4269 -1.23603 -0.977757 0
M  V30 772 C 73.3769 -0.986664 -2.05545 0
M  V30 773 C 74.3609 0.0683009 -1.60755 0
M  V30 774 O 75.5529 -0.144162 -1.76412 0
M  V30 775 C 72.6819 -0.582623 -3.3832 0
M  V30 776 C 71.7679 -1.67313 -3.89701 0
M  V30 777 N 72.1589 -2.90394 -4.14132 0
M  V30 778 C 70.4569 -1.54832 -4.18262 0
M  V30 779 C 71.1579 -3.61017 -4.56116 0
M  V30 780 N 70.1339 -2.8854 -4.60701 0
M  V30 781 H 73.9359 -1.92139 -2.22396 0
M  V30 782 H 71.4499 -1.1358 -1.16074 0
M  V30 783 H 73.4469 -0.38524 -4.15116 0
M  V30 784 H 72.1069 0.34503 -3.22862 0
M  V30 785 H 73.1179 -3.26673 -4.01877 0
M  V30 786 H 69.7949 -0.687969 -4.11793 0
M  V30 787 H 71.1849 -4.66544 -4.83514 0
M  V30 788 N 73.905 1.17692 -1.04816 0
M  V30 789 C 75.152 1.87859 -0.75599 0
M  V30 790 C 75.48 1.80812 0.716752 0
M  V30 791 O 74.735 1.20819 1.53952 0
M  V30 792 C 75.034 3.37462 -1.17703 0
M  V30 793 C 74.7 3.64713 -2.65133 0
M  V30 794 C 73.362 3.71859 -3.05408 0
M  V30 795 C 75.714 3.76492 -3.60421 0
M  V30 796 C 73.042 3.88271 -4.39843 0
M  V30 797 C 75.394 3.94421 -4.94585 0
M  V30 798 C 74.058 3.99806 -5.3452 0
M  V30 799 H 73.328 0.687425 -0.276636 0
M  V30 800 H 75.975 1.39255 -1.31455 0
M  V30 801 H 74.28 3.88097 -0.537395 0
M  V30 802 H 75.977 3.90109 -0.928218 0
M  V30 803 H 72.567 3.59772 -2.32942 0
M  V30 804 H 76.751 3.70295 -3.30447 0
M  V30 805 H 72.007 3.90687 -4.70291 0
M  V30 806 H 76.181 4.02477 -5.68318 0
M  V30 807 H 73.808 4.12276 -6.38696 0
M  V30 808 N 75.3831 0.828654 1.34056 0
M  V30 809 C 76.6231 0.425394 1.99924 0
M  V30 810 C 76.9871 -0.994294 1.64249 0
M  V30 811 O 78.1881 -1.50074 2.23005 0
M  V30 812 C 76.4591 0.628071 3.51838 0
M  V30 813 S 78.0181 0.318511 4.37642 0
M  V30 814 H 74.8361 0.160465 0.692656 0
M  V30 815 H 77.4381 1.07572 1.63244 0
M  V30 816 H 76.1421 1.66089 3.7529 0
M  V30 817 H 75.6731 -0.0367799 3.93383 0
M  V30 818 H 77.6881 -0.865632 4.88591 0
M  V30 819 N 76.8612 -1.46375 0.584142 0
M  V30 820 C 78.2722 -1.86031 0.157959 0
M  V30 821 C 78.6232 -1.48753 -1.27933 0
M  V30 822 O 77.7482 -0.903098 -1.96655 0
M  V30 823 C 78.3432 -3.37642 0.279892 0
M  V30 824 C 76.9022 -3.76289 -0.09143 0
M  V30 825 C 76.0492 -2.7039 0.615178 0
M  V30 826 H 79.0002 -1.37509 0.792274 0
M  V30 827 H 79.0212 -3.77275 -0.494364 0
M  V30 828 H 78.5332 -3.64742 1.32607 0
M  V30 829 H 76.6342 -3.54806 -1.13769 0
M  V30 830 H 76.7472 -4.78246 0.285886 0
M  V30 831 H 75.1112 -2.5464 0.0552833 0
M  V30 832 H 75.8942 -3.0033 1.66303 0
M  V30 833 N 78.3393 -0.321999 -1.54275 0
M  V30 834 C 79.2723 0.58718 -2.20516 0
M  V30 835 C 80.2503 1.11693 -1.18167 0
M  V30 836 O 81.4343 1.18122 -1.46899 0
M  V30 837 C 78.5613 1.80554 -2.86562 0
M  V30 838 C 77.6073 1.40718 -4.02617 0
M  V30 839 S 78.4403 0.445218 -5.33646 0
M  V30 840 C 79.5963 1.6709 -6.03185 0
M  V30 841 H 79.8293 0.0244875 -2.9729 0
M  V30 842 H 77.3623 -0.106087 -1.54035 0
M  V30 843 H 79.3203 2.50462 -3.25237 0
M  V30 844 H 77.9813 2.33942 -2.09595 0
M  V30 845 H 77.1743 2.31501 -4.47687 0
M  V30 846 H 76.7763 0.78782 -3.65608 0
M  V30 847 H 79.0683 2.60856 -6.25268 0
M  V30 848 H 80.0113 1.26239 -6.96756 0
M  V30 849 H 80.4193 1.85716 -5.33076 0
M  V30 850 N 79.8174 1.5752 -0.0501392 0
M  V30 851 C 80.7274 2.14952 0.939827 0
M  V30 852 C 81.7434 1.10706 1.34239 0
M  V30 853 O 82.9194 1.42869 1.41952 0
M  V30 854 C 79.9844 2.68232 2.19665 0
M  V30 855 C 79.0454 3.87272 1.85253 0
M  V30 856 C 78.2784 4.38002 3.04943 0
M  V30 857 O 78.5014 3.87811 4.18281 0
M  V30 858 O 77.4354 5.29602 2.86017 0
M  V30 859 H 81.2614 2.9986 0.481392 0
M  V30 860 H 78.8464 1.4841 0.171699 0
M  V30 861 H 80.7284 3.02475 2.93406 0
M  V30 862 H 79.4034 1.86395 2.64648 0
M  V30 863 H 78.3104 3.5792 1.0883 0
M  V30 864 H 79.6434 4.70336 1.4507 0
M  V30 865 N 81.2955 -0.223234 1.56011 0
M  V30 866 C 82.2255 -1.27988 1.95298 0
M  V30 867 C 83.2065 -1.48976 0.820979 0
M  V30 868 O 84.3915 -1.61188 1.08315 0
M  V30 869 C 81.5215 -2.63 2.26822 0
M  V30 870 C 80.4755 -2.56671 3.42497 0
M  V30 871 C 79.8015 -3.95697 3.59622 0
M  V30 872 C 81.1015 -2.11601 4.77517 0
M  V30 873 H 82.7955 -0.953525 2.8381 0
M  V30 874 H 80.3415 -0.457244 1.36548 0
M  V30 875 H 82.2945 -3.37077 2.52898 0
M  V30 876 H 81.0185 -2.9732 1.35161 0
M  V30 877 H 79.6775 -1.85051 3.16467 0
M  V30 878 H 79.3255 -4.27322 2.6534 0
M  V30 879 H 79.0255 -3.92345 4.37424 0
M  V30 880 H 80.5495 -4.71438 3.88044 0
M  V30 881 H 81.9635 -2.7542 5.02809 0
M  V30 882 H 80.3605 -2.19311 5.5859 0
M  V30 883 H 81.4305 -1.06824 4.72987 0
M  V30 884 N 82.7736 -1.49793 -0.48987 0
M  V30 885 C 84.1896 -1.36803 -0.822022 0
M  V30 886 C 84.3896 -0.409652 -1.97292 0
M  V30 887 O 83.4456 0.154614 -2.52026 0
M  V30 888 C 84.7586 -2.77768 -1.15175 0
M  V30 889 C 86.3066 -2.86549 -1.25931 0
M  V30 890 C 86.7816 -4.28306 -1.62228 0
M  V30 891 N 88.2726 -4.31169 -1.69256 0
M  V30 892 C 89.0076 -5.37832 -1.98807 0
M  V30 893 N 88.5036 -6.54726 -2.26507 0
M  V30 894 N 90.2966 -5.25258 -2.00152 0
M  V30 895 H 82.4476 -2.10691 0.268881 0
M  V30 896 H 84.7106 -0.946241 0.057728 0
M  V30 897 H 84.4166 -3.49648 -0.379335 0
M  V30 898 H 84.2906 -3.13836 -2.09253 0
M  V30 899 H 86.6776 -2.14899 -2.02243 0
M  V30 900 H 86.7586 -2.54049 -0.298776 0
M  V30 901 H 86.4026 -5.00486 -0.864622 0
M  V30 902 H 86.3326 -4.58279 -2.594 0
M  V30 903 H 88.8236 -3.4687 -1.49965 0
M  V30 904 H 89.1366 -7.31833 -2.48276 0
M  V30 905 H 87.4816 -6.57933 -2.23939 0
M  V30 906 H 90.6726 -4.32938 -1.77996 0
M  V30 907 H 90.8456 -6.08476 -2.22848 0
M  V30 908 N 84.2517 0.741722 -1.39055 0
M  V30 909 C 85.4997 1.49818 -1.35643 0
M  V30 910 C 85.8207 1.94938 0.0491642 0
M  V30 911 O 85.0907 1.68505 0.999141 0
M  V30 912 H 83.6707 0.555755 -0.499144 0
M  V30 913 H 86.3327 0.880957 -1.73854 0
M  V30 914 H 85.4287 2.38348 -2.01486 0
M  V30 915 N 85.7298 1.2412 0.971189 0
M  V30 916 C 87.1408 1.07236 1.52831 0
M  V30 917 C 87.4918 -0.357352 1.92918 0
M  V30 918 O 86.6168 -1.24528 1.76979 0
M  V30 919 C 87.2118 1.94043 2.77728 0
M  V30 920 C 85.7708 1.81394 3.29808 0
M  V30 921 C 84.9178 1.89189 2.02738 0
M  V30 922 H 87.8688 1.37648 0.789864 0
M  V30 923 H 87.8898 1.47066 3.5093 0
M  V30 924 H 87.4018 2.98093 2.4852 0
M  V30 925 H 85.5028 0.801634 3.63874 0
M  V30 926 H 85.6158 2.65294 3.98944 0
M  V30 927 H 83.9798 1.32877 2.17292 0
M  V30 928 H 84.7628 2.94812 1.759 0
M  V30 929 N 87.2079 -1.17134 1.05439 0
M  V30 930 C 88.1179 -2.24878 0.668365 0
M  V30 931 C 89.1339 -1.71186 -0.311687 0
M  V30 932 O 90.3099 -2.00738 -0.163161 0
M  V30 933 C 87.3749 -3.46662 0.051648 0
M  V30 934 C 86.4359 -4.15429 1.08246 0
M  V30 935 C 85.6689 -5.31399 0.495082 0
M  V30 936 O 85.8919 -5.66153 -0.694743 0
M  V30 937 O 84.8259 -5.89187 1.23056 0
M  V30 938 H 88.6519 -2.60189 1.56637 0
M  V30 939 H 86.2369 -1.24482 0.826104 0
M  V30 940 H 88.1189 -4.20394 -0.290966 0
M  V30 941 H 86.7939 -3.13142 -0.819971 0
M  V30 942 H 85.7009 -3.43704 1.47711 0
M  V30 943 H 87.0339 -4.52982 1.92532 0
M  V30 944 N 88.686 -0.835752 -1.33615 0
M  V30 945 C 90.097 -0.487099 -1.80234 0
M  V30 946 C 90.448 0.993627 -1.69179 0
M  V30 947 O 89.573 1.77403 -1.23924 0
M  V30 948 C 90.168 -0.877385 -3.27242 0
M  V30 949 C 88.727 -0.580915 -3.7189 0
M  V30 950 C 87.874 -1.0874 -2.5509 0
M  V30 951 H 90.825 -1.02474 -1.2118 0
M  V30 952 H 90.846 -0.186195 -3.80044 0
M  V30 953 H 90.358 -1.95512 -3.35256 0
M  V30 954 H 88.459 0.486881 -3.69405 0
M  V30 955 H 88.572 -1.13396 -4.65487 0
M  V30 956 H 86.936 -0.508392 -2.49575 0
M  V30 957 H 87.719 -2.17184 -2.65868 0
M  V30 958 N 90.1641 1.46063 -0.591896 0
M  V30 959 C 91.0941 2.33172 0.123673 0
M  V30 960 C 92.0751 1.45897 0.87453 0
M  V30 961 O 93.2601 1.74698 0.848181 0
M  V30 962 C 90.3901 3.28336 1.13194 0
M  V30 963 C 89.3441 4.25124 0.495324 0
M  V30 964 C 88.6701 5.09863 1.61071 0
M  V30 965 C 89.9701 5.19143 -0.573425 0
M  V30 966 H 91.6641 2.93252 -0.603646 0
M  V30 967 H 89.2101 1.41014 -0.291741 0
M  V30 968 H 91.1631 3.88137 1.64097 0
M  V30 969 H 89.8871 2.66383 1.88965 0
M  V30 970 H 88.5461 3.66599 0.00729452 0
M  V30 971 H 88.1941 4.44288 2.35832 0
M  V30 972 H 87.8941 5.75417 1.19035 0
M  V30 973 H 89.4181 5.72529 2.12233 0
M  V30 974 H 90.8321 5.73106 -0.1491 0
M  V30 975 H 89.2291 5.93089 -0.914636 0
M  V30 976 H 90.2991 4.62519 -1.45617 0
M  V30 977 N 91.6422 0.330177 1.54103 0
M  V30 978 C 92.8902 -0.269871 2.0029 0
M  V30 979 C 93.2112 -1.52133 1.21986 0
M  V30 980 O 92.4812 -1.93212 0.323438 0
M  V30 981 H 91.0612 -0.10271 0.739905 0
M  V30 982 H 93.7232 0.448249 1.89675 0
M  V30 983 H 92.8192 -0.52166 3.07709 0
M  V30 984 N 93.1203 -1.57491 0.0584922 0
M  V30 985 C 94.3453 -1.97711 -0.62652 0
M  V30 986 C 94.7703 -0.936132 -1.63151 0
M  V30 987 O 94.1283 0.099811 -1.81025 0
M  V30 988 C 94.1763 -3.36989 -1.28338 0
M  V30 989 O 93.2803 -3.35433 -2.39913 0
M  V30 990 H 92.6213 -0.643868 -0.162266 0
M  V30 991 H 95.1513 -2.04193 0.129064 0
M  V30 992 H 95.1613 -3.73879 -1.63335 0
M  V30 993 H 93.8363 -4.12289 -0.546889 0
M  V30 994 H 92.4133 -3.10298 -2.06809 0
M  V30 995 N 94.5984 0.214957 -1.56127 0
M  V30 996 C 96.0144 0.564948 -1.49267 0
M  V30 997 C 96.2144 1.86827 -0.754838 0
M  V30 998 O 95.2704 2.50745 -0.297198 0
M  V30 999 C 96.5834 0.638071 -2.93852 0
M  V30 1000 C 98.1314 0.728253 -3.0441 0
M  V30 1001 C 98.6064 0.832663 -4.50367 0
M  V30 1002 N 100.097 0.896712 -4.54437 0
M  V30 1003 C 100.832 0.997324 -5.6466 0
M  V30 1004 N 100.328 1.06147 -6.8462 0
M  V30 1005 N 102.121 1.03297 -5.52527 0
M  V30 1006 H 94.2724 -0.640211 -2.02522 0
M  V30 1007 H 96.5354 -0.225507 -0.920788 0
M  V30 1008 H 96.2414 -0.250126 -3.50809 0
M  V30 1009 H 96.1154 1.49947 -3.46115 0
M  V30 1010 H 98.5024 1.60689 -2.47514 0
M  V30 1011 H 98.5834 -0.158952 -2.55306 0
M  V30 1012 H 98.2274 -0.0415417 -5.07883 0
M  V30 1013 H 98.1574 1.73538 -4.97184 0
M  V30 1014 H 100.648 0.857188 -3.6805 0
M  V30 1015 H 100.961 1.1382 -7.64372 0
M  V30 1016 H 99.3064 1.03049 -6.87318 0
M  V30 1017 H 102.497 0.979558 -4.57736 0
M  V30 1018 H 102.67 1.10793 -6.38458 0
M  V30 1019 N 96.0765 1.50051 0.48192 0
M  V30 1020 C 97.4875 1.5348 1.06305 0
M  V30 1021 C 97.8385 0.331997 1.93371 0
M  V30 1022 O 96.9635 -0.556256 2.09129 0
M  V30 1023 C 97.5585 2.7813 1.93466 0
M  V30 1024 C 96.1175 2.84275 2.46707 0
M  V30 1025 C 95.2645 2.47637 1.24785 0
M  V30 1026 H 98.2155 1.56472 0.264995 0
M  V30 1027 H 98.2365 2.59372 2.78399 0
M  V30 1028 H 97.7485 3.65654 1.30072 0
M  V30 1029 H 95.8495 2.01077 3.13686 0
M  V30 1030 H 95.9625 3.8691 2.82555 0
M  V30 1031 H 94.3265 1.99835 1.57918 0
M  V30 1032 H 95.1095 3.37457 0.630694 0
M  V30 1033 N 97.5546 -0.734337 1.39446 0
M  V30 1034 C 98.9706 -1.03997 1.21065 0
M  V30 1035 C 99.1706 -2.01369 0.0727019 0
M  V30 1036 O 98.2266 -2.45856 -0.575426 0
M  V30 1037 C 99.5396 -1.60163 2.54496 0
M  V30 1038 C 101.088 -1.7224 2.61347 0
M  V30 1039 C 101.563 -2.31814 3.95002 0
M  V30 1040 N 103.054 -2.39223 3.96644 0
M  V30 1041 C 103.789 -2.86258 4.96834 0
M  V30 1042 N 103.285 -3.33184 6.07421 0
M  V30 1043 N 105.078 -2.85473 4.84213 0
M  V30 1044 H 97.2286 -0.0885624 2.12215 0
M  V30 1045 H 99.4916 -0.10191 0.942506 0
M  V30 1046 H 99.1976 -0.960811 3.38321 0
M  V30 1047 H 99.0716 -2.5896 2.74262 0
M  V30 1048 H 101.459 -2.35443 1.77906 0
M  V30 1049 H 101.54 -0.720939 2.4543 0
M  V30 1050 H 101.184 -1.69238 4.78875 0
M  V30 1051 H 101.114 -3.32638 4.08239 0
M  V30 1052 H 103.605 -2.06057 3.16779 0
M  V30 1053 H 103.918 -3.67586 6.7978 0
M  V30 1054 H 102.263 -3.31191 6.11013 0
M  V30 1055 H 105.454 -2.48136 3.96921 0
M  V30 1056 H 105.627 -3.21814 5.62441 0
M  V30 1057 N 99.0327 -1.24633 -0.964593 0
M  V30 1058 C 99.9647 -0.999302 -2.06268 0
M  V30 1059 C 100.978 0.0323226 -1.62768 0
M  V30 1060 O 102.167 -0.205079 -1.77318 0
M  V30 1061 C 99.2667 -0.486816 -3.35385 0
M  V30 1062 C 98.4397 -1.5823 -4.07777 0
M  V30 1063 C 97.4987 -1.07191 -5.15166 0
M  V30 1064 O 96.5247 -1.76426 -5.41168 0
M  V30 1065 N 97.7267 0.0920373 -5.80427 0
M  V30 1066 H 100.492 -1.94477 -2.28033 0
M  V30 1067 H 98.0527 -1.15704 -1.13244 0
M  V30 1068 H 100.045 -0.130066 -4.04491 0
M  V30 1069 H 98.6147 0.364459 -3.10468 0
M  V30 1070 H 97.8347 -2.11109 -3.32906 0
M  V30 1071 H 99.1227 -2.31854 -4.52903 0
M  V30 1072 H 98.5207 0.670784 -5.61709 0
M  V30 1073 H 97.0777 0.389905 -6.50633 0
M  V30 1074 N 100.511 1.16574 -1.06058 0
M  V30 1075 C 101.922 1.68662 -0.800632 0
M  V30 1076 C 102.273 1.84184 0.67608 0
M  V30 1077 O 101.398 1.53568 1.52466 0
M  V30 1078 C 101.993 3.06356 -1.44676 0
M  V30 1079 C 100.552 3.55575 -1.23465 0
M  V30 1080 C 99.6988 2.31616 -1.52477 0
M  V30 1081 H 102.65 1.00969 -1.22438 0
M  V30 1082 H 102.671 3.70636 -0.860788 0
M  V30 1083 H 102.183 2.95027 -2.52152 0
M  V30 1084 H 100.284 3.72167 -0.179527 0
M  V30 1085 H 100.397 4.37812 -1.94571 0
M  V30 1086 H 98.7608 2.36512 -0.945209 0
M  V30 1087 H 99.5438 2.22887 -2.61106 0
M  V30 1088 N 101.989 0.842826 1.3317 0
M  V30 1089 C 102.937 0.267495 2.31057 0
M  V30 1090 C 103.931 -0.602682 1.58316 0
M  V30 1091 O 105.137 -0.491803 1.73151 0
M  V30 1092 H 101.512 0.0677813 0.748939 0
M  V30 1093 H 103.483 1.10754 2.77085 0
M  V30 1094 C 102.232 -0.539331 3.43492 0
M  V30 1095 H 101.555 0.12095 3.99617 0
M  V30 1096 H 102.995 -0.90767 4.14171 0
M  V30 1097 C 101.454 -1.71981 2.89697 0
M  V30 1098 O 101.984 -2.81862 2.86211 0
M  V30 1099 N 100.19 -1.54299 2.46252 0
M  V30 1100 H 99.7369 -0.649143 2.49287 0
M  V30 1101 H 99.6949 -2.33431 2.10612 0
M  V30 1102 N 103.467 -1.45747 0.599634 0
M  V30 1103 C 104.397 -2.33235 -0.111306 0
M  V30 1104 C 105.378 -1.46359 -0.866781 0
M  V30 1105 O 106.563 -1.75146 -0.838904 0
M  V30 1106 C 103.693 -3.28932 -1.11451 0
M  V30 1107 C 102.647 -4.25381 -0.472772 0
M  V30 1108 C 101.973 -5.1071 -1.58365 0
M  V30 1109 C 103.273 -5.18831 0.600948 0
M  V30 1110 H 104.967 -2.92927 0.61919 0
M  V30 1111 H 102.513 -1.40857 0.299215 0
M  V30 1112 H 104.466 -3.89002 -1.62036 0
M  V30 1113 H 103.19 -2.67381 -1.8755 0
M  V30 1114 H 101.849 -3.66598 0.0121472 0
M  V30 1115 H 101.497 -4.45533 -2.33473 0
M  V30 1116 H 101.197 -5.7604 -1.15982 0
M  V30 1117 H 102.721 -5.73647 -2.09194 0
M  V30 1118 H 104.135 -5.73019 0.179491 0
M  V30 1119 H 102.532 -5.92595 0.946076 0
M  V30 1120 H 103.602 -4.6174 1.48068 0
M  V30 1121 N 104.945 -0.338344 -1.53925 0
M  V30 1122 C 106.194 0.260732 -2.00008 0
M  V30 1123 C 106.507 1.52073 -1.23017 0
M  V30 1124 O 107.713 2.19672 -1.5955 0
M  V30 1125 C 106.169 0.51515 -3.56194 0
M  V30 1126 C 105.777 -0.728645 -4.42035 0
M  V30 1127 C 107.521 1.07337 -4.10706 0
M  V30 1128 C 105.428 -0.445315 -5.89721 0
M  V30 1129 H 104.358 0.101205 -0.747177 0
M  V30 1130 H 107.009 -0.452866 -1.77824 0
M  V30 1131 H 105.391 1.28932 -3.74423 0
M  V30 1132 H 106.565 -1.50352 -4.35581 0
M  V30 1133 H 104.88 -1.20813 -3.98489 0
M  V30 1134 H 107.477 1.30022 -5.18651 0
M  V30 1135 H 107.82 2.0273 -3.63602 0
M  V30 1136 H 108.353 0.360034 -3.96167 0
M  V30 1137 H 105.092 -1.36883 -6.41049 0
M  V30 1138 H 104.612 0.291569 -5.99091 0
M  V30 1139 H 106.291 -0.0606218 -6.46972 0
M  V30 1140 N 106.423 1.57458 -0.0668435 0
M  V30 1141 C 107.834 1.80776 0.466558 0
M  V30 1142 C 108.185 0.980361 1.69951 0
M  V30 1143 O 107.31 0.201441 2.1546 0
M  V30 1144 C 107.905 3.27881 0.85321 0
M  V30 1145 C 106.464 3.52062 1.3315 0
M  V30 1146 C 105.611 2.75513 0.314264 0
M  V30 1147 H 108.562 1.5598 -0.292588 0
M  V30 1148 H 108.583 3.39659 1.715 0
M  V30 1149 H 108.095 3.88075 -0.0443439 0
M  V30 1150 H 106.196 2.97167 2.24772 0
M  V30 1151 H 106.309 4.60762 1.31285 0
M  V30 1152 H 104.673 2.42123 0.790492 0
M  V30 1153 H 105.456 3.38442 -0.575477 0
M  V30 1154 N 107.901 -0.206675 1.56239 0
M  V30 1155 C 109.147 -0.925733 1.81113 0
M  V30 1156 C 109.502 -1.81368 0.642135 0
M  V30 1157 O 108.795 -1.88126 -0.363211 0
M  V30 1158 C 108.989 -1.78675 3.09532 0
M  V30 1159 C 108.818 -0.98365 4.3881 0
M  V30 1160 C 107.588 -0.672661 5.00803 0
M  V30 1161 C 109.786 -0.341847 5.13163 0
M  V30 1162 N 107.768 0.150283 6.13716 0
M  V30 1163 C 109.139 0.343815 6.19046 0
M  V30 1164 C 111.194 -0.256392 4.97239 0
M  V30 1165 C 109.897 1.10678 7.10734 0
M  V30 1166 C 111.923 0.493142 5.8934 0
M  V30 1167 C 111.285 1.16729 6.94661 0
M  V30 1168 H 107.384 -0.318524 0.714189 0
M  V30 1169 H 109.968 -0.195378 1.93717 0
M  V30 1170 H 108.139 -2.4888 2.98183 0
M  V30 1171 H 109.871 -2.44441 3.22538 0
M  V30 1172 H 106.626 -0.994294 4.63045 0
M  V30 1173 H 107.05 0.551026 6.74754 0
M  V30 1174 H 111.692 -0.763249 4.15854 0
M  V30 1175 H 109.41 1.6251 7.91591 0
M  V30 1176 H 112.996 0.560465 5.79094 0
M  V30 1177 H 111.876 1.738 7.64698 0
M  V30 1178 N 109.379 -1.50304 -0.473955 0
M  V30 1179 C 110.342 -1.6841 -1.55469 0
M  V30 1180 C 111.342 -0.554905 -1.50922 0
M  V30 1181 O 112.532 -0.821882 -1.53593 0
M  V30 1182 C 109.664 -1.70667 -2.95102 0
M  V30 1183 H 110.857 -2.64828 -1.40733 0
M  V30 1184 H 108.41 -1.39742 -0.700132 0
M  V30 1185 H 109.145 -0.75932 -3.15285 0
M  V30 1186 H 108.93 -2.52698 -2.9981 0
M  V30 1187 H 110.42 -1.8664 -3.73571 0
M  V30 1188 N 110.857 0.726932 -1.39834 0
M  V30 1189 C 111.82 1.82269 -1.38962 0
M  V30 1190 C 112.82 1.58248 -0.285334 0
M  V30 1191 O 114.01 1.65499 -0.54366 0
M  V30 1192 C 111.142 3.20186 -1.17019 0
M  V30 1193 H 112.335 1.84443 -2.36476 0
M  V30 1194 H 109.888 0.931416 -1.25516 0
M  V30 1195 H 110.623 3.23669 -0.202204 0
M  V30 1196 H 110.408 3.3902 -1.96998 0
M  V30 1197 H 111.898 4.00235 -1.1917 0
M  V30 1198 N 112.336 1.25143 0.95797 0
M  V30 1199 C 113.299 1.05321 2.03569 0
M  V30 1200 C 114.299 0.007152 1.60798 0
M  V30 1201 O 115.489 0.24903 1.72411 0
M  V30 1202 C 112.621 0.598394 3.35607 0
M  V30 1203 H 113.814 2.00986 2.22586 0
M  V30 1204 H 111.367 1.07502 1.13459 0
M  V30 1205 H 112.102 -0.361014 3.22284 0
M  V30 1206 H 111.887 1.35351 3.67998 0
M  V30 1207 H 113.377 0.48104 4.1482 0
M  V30 1208 N 113.814 -1.1601 1.06675 0
M  V30 1209 C 115.062 -1.86264 0.784229 0
M  V30 1210 C 115.383 -1.82328 -0.691488 0
M  V30 1211 O 114.653 -1.25947 -1.50047 0
M  V30 1212 H 113.233 -0.689621 0.28711 0
M  V30 1213 H 115.895 -1.40664 1.34906 0
M  V30 1214 H 114.991 -2.91595 1.11259 0
M  V30 1215 N 115.292 -0.849877 -1.32721 0
M  V30 1216 C 116.708 -0.539102 -1.50219 0
M  V30 1217 C 116.908 0.931271 -1.78689 0
M  V30 1218 O 115.964 1.71455 -1.85363 0
M  V30 1219 C 117.277 -1.42196 -2.64954 0
M  V30 1220 C 118.825 -1.42189 -2.78839 0
M  V30 1221 C 119.3 -2.28985 -3.96648 0
M  V30 1222 N 120.791 -2.26754 -4.03902 0
M  V30 1223 C 121.526 -2.90644 -4.94281 0
M  V30 1224 N 121.022 -3.63629 -5.897 0
M  V30 1225 N 122.815 -2.80057 -4.87365 0
M  V30 1226 H 114.966 -1.80156 -1.12506 0
M  V30 1227 H 117.229 -0.769217 -0.554085 0
M  V30 1228 H 116.935 -2.46733 -2.50631 0
M  V30 1229 H 116.809 -1.10591 -3.60624 0
M  V30 1230 H 119.196 -0.38419 -2.92588 0
M  V30 1231 H 119.277 -1.77807 -1.83898 0
M  V30 1232 H 118.921 -3.32819 -3.83658 0
M  V30 1233 H 118.851 -1.90702 -4.90857 0
M  V30 1234 H 121.342 -1.73688 -3.3562 0
M  V30 1235 H 121.655 -4.09558 -6.55349 0
M  V30 1236 H 120 -3.67737 -5.89741 0
M  V30 1237 H 123.191 -2.22593 -4.11789 0
M  V30 1238 H 123.364 -3.30132 -5.57599 0
M  V30 1239 N 116.77 1.45427 -0.607355 0
M  V30 1240 C 118.186 1.57283 -0.270985 0
M  V30 1241 C 118.386 1.59875 1.22647 0
M  V30 1242 O 117.442 1.52893 2.00948 0
M  V30 1243 C 118.755 2.85566 -0.941952 0
M  V30 1244 C 120.303 2.9924 -0.917849 0
M  V30 1245 C 120.778 4.30293 -1.56882 0
M  V30 1246 N 122.269 4.37051 -1.5343 0
M  V30 1247 C 123.004 5.37123 -2.00715 0
M  V30 1248 N 122.5 6.43734 -2.56084 0
M  V30 1249 N 124.293 5.28479 -1.91484 0
M  V30 1250 H 116.444 1.41988 -1.57966 0
M  V30 1251 H 118.707 0.67885 -0.661715 0
M  V30 1252 H 118.413 2.8955 -1.99633 0
M  V30 1253 H 118.287 3.74322 -0.465096 0
M  V30 1254 H 120.674 2.94822 0.127984 0
M  V30 1255 H 120.755 2.11895 -1.43297 0
M  V30 1256 H 120.399 4.35469 -2.61398 0
M  V30 1257 H 120.329 5.16454 -1.02873 0
M  V30 1258 H 122.82 3.60615 -1.12982 0
M  V30 1259 H 123.133 7.16341 -2.89958 0
M  V30 1260 H 121.478 6.44485 -2.60122 0
M  V30 1261 H 124.669 4.44098 -1.47967 0
M  V30 1262 H 124.842 6.0632 -2.28648 0
M  V30 1263 N 118.248 0.346503 1.53744 0
M  V30 1264 C 119.211 -0.496439 2.23759 0
M  V30 1265 C 120.211 -1.0252 1.2388 0
M  V30 1266 O 121.401 -0.913974 1.48297 0
M  V30 1267 C 118.533 -1.69187 2.95954 0
M  V30 1268 H 119.726 0.115952 2.99676 0
M  V30 1269 H 117.279 0.0978939 1.55993 0
M  V30 1270 H 118.014 -2.34288 2.24231 0
M  V30 1271 H 117.799 -1.31989 3.69217 0
M  V30 1272 H 119.289 -2.28969 3.49232 0
M  V30 1273 N 119.726 -1.57421 0.075193 0
M  V30 1274 C 120.689 -2.11791 -0.876203 0
M  V30 1275 C 121.689 -1.04268 -1.22412 0
M  V30 1276 O 122.879 -1.30242 -1.15684 0
M  V30 1277 C 120.011 -2.62207 -2.17854 0
M  V30 1278 H 121.204 -2.9716 -0.40444 0
M  V30 1279 H 118.757 -1.55333 -0.173557 0
M  V30 1280 H 119.492 -1.803 -2.6956 0
M  V30 1281 H 119.277 -3.40802 -1.93897 0
M  V30 1282 H 120.767 -3.04335 -2.85955 0
M  V30 1283 N 121.204 0.198386 -1.56346 0
M  V30 1284 C 122.615 0.763358 -1.70381 0
M  V30 1285 C 122.966 1.83995 -0.681203 0
M  V30 1286 O 122.091 2.15785 0.16305 0
M  V30 1287 C 122.686 1.39143 -3.08909 0
M  V30 1288 C 121.245 1.90352 -3.2472 0
M  V30 1289 C 120.392 0.772233 -2.6633 0
M  V30 1290 H 123.343 -0.0266377 -1.58678 0
M  V30 1291 H 123.364 2.26076 -3.06055 0
M  V30 1292 H 122.876 0.607638 -3.83314 0
M  V30 1293 H 120.977 2.71461 -2.55225 0
M  V30 1294 H 121.09 2.06757 -4.3219 0
M  V30 1295 H 119.454 1.18566 -2.2542 0
M  V30 1296 H 120.237 0.00073556 -3.433 0
M  V30 1297 N 122.682 1.50554 0.465978 0
M  V30 1298 C 123.912 1.65323 1.23903 0
M  V30 1299 C 124.32 0.338051 1.86155 0
M  V30 1300 O 123.663 -0.690518 1.70228 0
M  V30 1301 C 123.725 2.69048 2.3844 0
M  V30 1302 C 123.389 4.12462 1.96784 0
M  V30 1303 C 124.386 4.98168 1.48745 0
M  V30 1304 C 122.071 4.58407 2.05349 0
M  V30 1305 C 124.065 6.27868 1.0982 0
M  V30 1306 C 121.752 5.88112 1.66035 0
M  V30 1307 C 122.75 6.72668 1.18349 0
M  V30 1308 O 122.438 7.99951 0.795825 0
M  V30 1309 H 122.17 0.558629 0.38067 0
M  V30 1310 H 124.724 1.97561 0.562022 0
M  V30 1311 H 122.954 2.32062 3.09328 0
M  V30 1312 H 124.643 2.72985 3.0039 0
M  V30 1313 H 125.409 4.63885 1.41546 0
M  V30 1314 H 121.288 3.92735 2.41414 0
M  V30 1315 H 124.832 6.93819 0.725293 0
M  V30 1316 H 120.729 6.21914 1.72895 0
M  V30 1317 H 121.497 8.13265 0.924222 0
M  V30 1318 N 124.16 -0.719506 1.40217 0
M  V30 1319 C 125.09 -1.8465 1.42922 0
M  V30 1320 C 126.071 -1.67599 0.29062 0
M  V30 1321 O 127.256 -1.87688 0.498677 0
M  V30 1322 C 124.386 -3.22565 1.28722 0
M  V30 1323 C 123.34 -3.54281 2.40144 0
M  V30 1324 C 122.666 -4.91298 2.11023 0
M  V30 1325 C 123.966 -3.55676 3.82481 0
M  V30 1326 H 125.66 -1.82644 2.37237 0
M  V30 1327 H 123.206 -0.877305 1.1419 0
M  V30 1328 H 125.159 -4.01095 1.29232 0
M  V30 1329 H 123.883 -3.25137 0.308811 0
M  V30 1330 H 122.542 -2.78088 2.38877 0
M  V30 1331 H 122.19 -4.90468 1.11582 0
M  V30 1332 H 121.89 -5.13485 2.8567 0
M  V30 1333 H 123.414 -5.72166 2.13209 0
M  V30 1334 H 124.828 -4.24254 3.85592 0
M  V30 1335 H 123.225 -3.89388 4.56614 0
M  V30 1336 H 124.295 -2.55144 4.12346 0
M  V30 1337 N 125.638 -1.25649 -0.95132 0
M  V30 1338 C 126.884 -1.10757 -1.69884 0
M  V30 1339 C 127.217 0.350061 -1.91019 0
M  V30 1340 O 126.492 1.25783 -1.48354 0
M  V30 1341 C 126.775 -1.86606 -3.07978 0
M  V30 1342 C 126.628 -3.40217 -2.94232 0
M  V30 1343 C 127.947 -1.65182 -4.07925 0
M  V30 1344 H 125.066 -0.40374 -0.616574 0
M  V30 1345 H 127.708 -1.54521 -1.10558 0
M  V30 1346 H 125.858 -1.49409 -3.58621 0
M  V30 1347 H 127.53 -3.87108 -2.50889 0
M  V30 1348 H 125.773 -3.67759 -2.30078 0
M  V30 1349 H 126.444 -3.88505 -3.92133 0
M  V30 1350 H 128.92 -1.9757 -3.66204 0
M  V30 1351 H 127.796 -2.20683 -5.02583 0
M  V30 1352 H 128.057 -0.593933 -4.38092 0
M  V30 1353 N 127.117 1.15442 -1.07289 0
M  V30 1354 C 128.047 2.22312 -0.714107 0
M  V30 1355 C 129.028 1.67467 0.298155 0
M  V30 1356 O 130.213 1.93445 0.171048 0
M  V30 1357 C 127.343 3.47124 -0.110448 0
M  V30 1358 C 126.297 4.14926 -1.04979 0
M  V30 1359 C 125.623 5.33807 -0.308924 0
M  V30 1360 C 126.923 4.64762 -2.38314 0
M  V30 1361 H 128.617 2.5258 -1.6076 0
M  V30 1362 H 126.163 1.21404 -0.77441 0
M  V30 1363 H 128.116 4.21124 0.152482 0
M  V30 1364 H 126.84 3.16187 0.81812 0
M  V30 1365 H 125.499 3.42866 -1.29764 0
M  V30 1366 H 125.147 4.99126 0.623084 0
M  V30 1367 H 124.847 5.80113 -0.935036 0
M  V30 1368 H 126.371 6.10576 -0.0537771 0
M  V30 1369 H 127.785 5.30292 -2.1786 0
M  V30 1370 H 126.182 5.21728 -2.96514 0
M  V30 1371 H 127.252 3.80434 -3.00663 0
M  V30 1372 N 128.595 0.856903 1.32268 0
M  V30 1373 C 129.823 0.475439 2.01363 0
M  V30 1374 C 130.238 -0.928486 1.64392 0
M  V30 1375 O 129.595 -1.60624 0.866387 0
M  V30 1376 C 129.646 0.607545 3.56358 0
M  V30 1377 O 129.367 1.95617 3.92002 0
M  V30 1378 C 130.868 0.225382 4.42727 0
M  V30 1379 H 128.088 0.186636 0.644521 0
M  V30 1380 H 130.632 1.15446 1.68797 0
M  V30 1381 H 128.787 -0.0237719 3.87393 0
M  V30 1382 H 129.201 1.95455 4.86721 0
M  V30 1383 H 130.675 0.368813 5.50767 0
M  V30 1384 H 131.152 -0.834369 4.31202 0
M  V30 1385 H 131.758 0.831864 4.17085 0
M  V30 1386 N 130.073 -1.45103 0.615059 0
M  V30 1387 C 131.036 -2.29025 -0.0895485 0
M  V30 1388 C 132.036 -1.40174 -0.787906 0
M  V30 1389 O 133.226 -1.62217 -0.634933 0
M  V30 1390 C 130.358 -3.21376 -1.13711 0
M  V30 1391 H 131.551 -2.92807 0.648382 0
M  V30 1392 H 129.104 -1.51749 0.374444 0
M  V30 1393 H 129.839 -2.6241 -1.90556 0
M  V30 1394 H 129.624 -3.86834 -0.640475 0
M  V30 1395 H 131.114 -3.84459 -1.63036 0
M  V30 1396 N 131.551 -0.354651 -1.53558 0
M  V30 1397 C 132.481 0.489091 -2.2832 0
M  V30 1398 C 133.462 1.09324 -1.30316 0
M  V30 1399 O 134.647 1.11255 -1.59173 0
M  V30 1400 C 131.777 1.63456 -3.0643 0
M  V30 1401 C 130.731 1.1582 -4.12031 0
M  V30 1402 C 130.057 2.39305 -4.7816 0
M  V30 1403 C 131.357 0.250731 -5.21698 0
M  V30 1404 H 133.051 -0.134614 -2.99097 0
M  V30 1405 H 130.597 -0.0661826 -1.43848 0
M  V30 1406 H 132.55 2.23136 -3.57475 0
M  V30 1407 H 131.274 2.28533 -2.33325 0
M  V30 1408 H 129.933 0.584146 -3.61916 0
M  V30 1409 H 129.581 3.02814 -4.01637 0
M  V30 1410 H 129.281 2.08109 -5.49513 0
M  V30 1411 H 130.805 2.99691 -5.31994 0
M  V30 1412 H 132.219 0.754695 -5.68311 0
M  V30 1413 H 130.616 0.0301468 -6.00092 0
M  V30 1414 H 131.686 -0.710125 -4.79672 0
M  V30 1415 N 133.029 1.57378 -0.0835403 0
M  V30 1416 C 133.959 2.1641 0.87686 0
M  V30 1417 C 134.94 1.09429 1.30228 0
M  V30 1418 O 136.125 1.37516 1.37124 0
M  V30 1419 C 133.255 2.73517 2.14022 0
M  V30 1420 C 132.209 3.85769 1.85381 0
M  V30 1421 C 131.535 4.29529 3.18448 0
M  V30 1422 C 132.835 5.09486 1.14984 0
M  V30 1423 H 134.529 2.96914 0.385059 0
M  V30 1424 H 132.075 1.42823 0.18377 0
M  V30 1425 H 134.028 3.13463 2.81636 0
M  V30 1426 H 132.752 1.90252 2.65465 0
M  V30 1427 H 131.411 3.46345 1.20169 0
M  V30 1428 H 131.059 3.43169 3.67755 0
M  V30 1429 H 130.759 5.05204 3.00071 0
M  V30 1430 H 132.283 4.72099 3.8724 0
M  V30 1431 H 133.697 5.46674 1.72687 0
M  V30 1432 H 132.094 5.90515 1.06826 0
M  V30 1433 H 133.164 4.84724 0.130749 0
M  V30 1434 N 134.507 -0.190092 1.56449 0
M  V30 1435 C 135.756 -0.907912 1.80111 0
M  V30 1436 C 136.069 -1.84214 0.657619 0
M  V30 1437 O 137.275 -2.60094 0.778663 0
M  V30 1438 C 135.731 -1.66485 3.19078 0
M  V30 1439 C 135.339 -0.7752 4.41242 0
M  V30 1440 C 137.083 -2.37201 3.52045 0
M  V30 1441 C 134.99 -1.53129 5.71231 0
M  V30 1442 H 133.92 -0.34276 0.671589 0
M  V30 1443 H 136.571 -0.161109 1.82791 0
M  V30 1444 H 134.953 -2.45572 3.10661 0
M  V30 1445 H 136.127 -0.0226298 4.60794 0
M  V30 1446 H 134.442 -0.178627 4.16017 0
M  V30 1447 H 137.039 -2.94329 4.46402 0
M  V30 1448 H 137.382 -3.11632 2.76028 0
M  V30 1449 H 137.915 -1.65075 3.61932 0
M  V30 1450 H 134.654 -0.82967 6.50228 0
M  V30 1451 H 134.174 -2.25767 5.55688 0
M  V30 1452 H 135.853 -2.08377 6.12526 0
M  V30 1453 N 135.985 -1.50799 -0.457987 0
M  V30 1454 C 137.232 -1.62442 -1.20908 0
M  V30 1455 C 137.56 -0.330865 -1.91665 0
M  V30 1456 O 136.815 0.68401 -1.83357 0
M  V30 1457 C 137.114 -2.76358 -2.2663 0
M  V30 1458 C 136.78 -4.16378 -1.73033 0
M  V30 1459 C 135.442 -4.54473 -1.58138 0
M  V30 1460 C 137.794 -5.03836 -1.33413 0
M  V30 1461 C 135.122 -5.77754 -1.02065 0
M  V30 1462 C 137.474 -6.27676 -0.78778 0
M  V30 1463 C 136.138 -6.64562 -0.625561 0
M  V30 1464 H 135.408 -0.594417 -0.442435 0
M  V30 1465 H 138.055 -1.84772 -0.503136 0
M  V30 1466 H 136.36 -2.48167 -3.03184 0
M  V30 1467 H 138.057 -2.82568 -2.84528 0
M  V30 1468 H 134.647 -3.86331 -1.85598 0
M  V30 1469 H 138.831 -4.75026 -1.4375 0
M  V30 1470 H 134.087 -6.04997 -0.882547 0
M  V30 1471 H 138.261 -6.94797 -0.472177 0
M  V30 1472 H 135.888 -7.59965 -0.188926 0
M  V30 1473 N 137.463 0.71206 -1.40597 0
M  V30 1474 C 138.691 1.50111 -1.42388 0
M  V30 1475 C 139.106 1.88784 -0.0245395 0
M  V30 1476 O 138.463 1.55681 0.952351 0
M  V30 1477 C 138.514 2.7742 -2.31776 0
M  V30 1478 O 138.235 2.40382 -3.66262 0
M  V30 1479 C 139.736 3.7129 -2.42196 0
M  V30 1480 H 136.956 0.46314 -0.485533 0
M  V30 1481 H 139.5 0.878068 -1.8469 0
M  V30 1482 H 137.655 3.36001 -1.92827 0
M  V30 1483 H 138.069 3.22324 -4.13772 0
M  V30 1484 H 139.543 4.57448 -3.08943 0
M  V30 1485 H 140.02 4.14641 -1.44809 0
M  V30 1486 H 140.626 3.18619 -2.81712 0
M  V30 1487 N 138.941 1.26152 0.944643 0
M  V30 1488 C 140.189 1.11271 1.6871 0
M  V30 1489 C 140.51 -0.345166 1.91921 0
M  V30 1490 O 139.78 -1.24387 1.51343 0
M  V30 1491 H 138.36 0.408783 0.625224 0
M  V30 1492 H 141.022 1.58427 1.1352 0
M  V30 1493 H 140.118 1.62879 2.66227 0
M  V30 1494 N 140.419 -1.14872 1.07899 0
M  V30 1495 C 141.382 -2.17986 0.708161 0
M  V30 1496 C 142.382 -1.58775 -0.25442 0
M  V30 1497 O 143.572 -1.74166 -0.034645 0
M  V30 1498 C 140.704 -3.40871 0.0446929 0
M  V30 1499 H 141.897 -2.52306 1.62116 0
M  V30 1500 H 139.45 -1.2943 0.876218 0
M  V30 1501 H 140.185 -3.12124 -0.880281 0
M  V30 1502 H 139.97 -3.8511 0.737091 0
M  V30 1503 H 141.46 -4.17121 -0.19991 0
M  V30 1504 N 141.898 -0.863906 -1.31812 0
M  V30 1505 C 143.145 -0.471836 -1.96926 0
M  V30 1506 C 143.473 0.974578 -1.68322 0
M  V30 1507 O 142.728 1.7003 -0.968933 0
M  V30 1508 C 143.027 -0.668547 -3.51091 0
M  V30 1509 C 142.693 -2.08683 -3.99703 0
M  V30 1510 C 141.355 -2.47471 -4.12688 0
M  V30 1511 C 143.707 -3.01207 -4.25351 0
M  V30 1512 C 141.035 -3.78037 -4.4867 0
M  V30 1513 C 143.387 -4.31282 -4.62794 0
M  V30 1514 C 142.051 -4.69992 -4.73987 0
M  V30 1515 H 141.321 -0.172657 -0.720604 0
M  V30 1516 H 143.968 -1.09573 -1.57054 0
M  V30 1517 H 142.273 0.0385252 -3.91781 0
M  V30 1518 H 143.97 -0.345102 -3.99512 0
M  V30 1519 H 140.56 -1.77566 -3.90087 0
M  V30 1520 H 144.744 -2.72469 -4.14819 0
M  V30 1521 H 140 -4.078 -4.55532 0
M  V30 1522 H 144.174 -5.03031 -4.81594 0
M  V30 1523 H 141.801 -5.71207 -5.01624 0
M  V30 1524 N 143.376 1.44774 -0.622745 0
M  V30 1525 C 144.306 2.33382 0.0741861 0
M  V30 1526 C 145.287 1.47719 0.843387 0
M  V30 1527 O 146.472 1.76458 0.810934 0
M  V30 1528 C 143.602 3.30663 1.06204 0
M  V30 1529 C 142.556 4.26079 0.405037 0
M  V30 1530 C 141.882 5.13165 1.5022 0
M  V30 1531 C 143.182 5.1781 -0.683414 0
M  V30 1532 H 144.876 2.91905 -0.665713 0
M  V30 1533 H 142.422 1.40363 -0.321587 0
M  V30 1534 H 144.375 3.9153 1.55827 0
M  V30 1535 H 143.099 2.70331 1.83272 0
M  V30 1536 H 141.758 3.66532 -0.0704683 0
M  V30 1537 H 141.406 4.49191 2.26355 0
M  V30 1538 H 141.106 5.77812 1.06803 0
M  V30 1539 H 142.63 5.76902 2.00041 0
M  V30 1540 H 144.044 5.72661 -0.270631 0
M  V30 1541 H 142.441 5.91015 -1.04023 0
M  V30 1542 H 143.511 4.59326 -1.55395 0
M  V30 1543 N 144.854 0.36279 1.53368 0
M  V30 1544 C 145.784 -0.476976 2.28576 0
M  V30 1545 C 146.765 -1.08631 1.30894 0
M  V30 1546 O 147.95 -1.10409 1.59761 0
M  V30 1547 C 145.08 -1.61828 3.07293 0
M  V30 1548 C 144.034 -1.13633 4.1264 0
M  V30 1549 C 143.36 -2.36766 4.79423 0
M  V30 1550 C 144.66 -0.223061 5.21823 0
M  V30 1551 H 146.354 0.150474 2.99022 0
M  V30 1552 H 143.9 0.0738103 1.43811 0
M  V30 1553 H 145.853 -2.21237 3.58653 0
M  V30 1554 H 144.577 -2.27292 2.34533 0
M  V30 1555 H 143.236 -0.564945 3.62221 0
M  V30 1556 H 142.884 -3.0068 4.03238 0
M  V30 1557 H 142.584 -2.05192 5.50609 0
M  V30 1558 H 144.108 -2.96865 5.33576 0
M  V30 1559 H 145.522 -0.724545 5.68703 0
M  V30 1560 H 143.919 0.001678 6.001 0
M  V30 1561 H 144.989 0.735553 4.79289 0
M  V30 1562 N 146.332 -1.57332 0.0918853 0
M  V30 1563 C 147.58 -1.93853 -0.571446 0
M  V30 1564 C 147.901 -0.974212 -1.6892 0
M  V30 1565 O 147.171 -0.0257254 -1.95883 0
M  V30 1566 H 145.751 -0.715666 -0.214082 0
M  V30 1567 H 148.413 -1.94287 0.154464 0
M  V30 1568 H 147.509 -2.96191 -0.983729 0
M  V30 1569 N 147.81 0.181792 -1.56548 0
M  V30 1570 C 149.04 0.914618 -1.85252 0
M  V30 1571 C 149.448 1.76791 -0.673914 0
M  V30 1572 O 148.791 1.80009 0.366416 0
M  V30 1573 C 148.853 1.85019 -3.08234 0
M  V30 1574 C 148.517 1.17754 -4.41569 0
M  V30 1575 C 149.514 0.548035 -5.17003 0
M  V30 1576 C 147.199 1.17742 -4.88305 0
M  V30 1577 C 149.193 -0.0726128 -6.37359 0
M  V30 1578 C 146.88 0.552946 -6.08593 0
M  V30 1579 C 147.878 -0.070978 -6.82963 0
M  V30 1580 O 147.566 -0.685635 -8.00971 0
M  V30 1581 H 147.298 0.271695 -0.618998 0
M  V30 1582 H 149.852 0.189944 -2.0452 0
M  V30 1583 H 148.082 2.61491 -2.84885 0
M  V30 1584 H 149.771 2.45195 -3.23472 0
M  V30 1585 H 150.537 0.540174 -4.81982 0
M  V30 1586 H 146.416 1.65246 -4.30366 0
M  V30 1587 H 149.96 -0.560213 -6.95347 0
M  V30 1588 H 145.857 0.558354 -6.43081 0
M  V30 1589 H 146.625 -0.58385 -8.16415 0
M  V30 1590 N 149.288 1.51039 0.449983 0
M  V30 1591 C 150.534 1.63322 1.20223 0
M  V30 1592 C 150.867 0.34241 1.91158 0
M  V30 1593 O 150.142 -0.657344 1.83055 0
M  V30 1594 C 150.425 2.82801 2.22925 0
M  V30 1595 C 150.278 4.21823 1.56157 0
M  V30 1596 C 151.597 2.97807 3.24035 0
M  V30 1597 H 148.716 0.594407 0.435718 0
M  V30 1598 H 151.358 1.83489 0.493136 0
M  V30 1599 H 149.508 2.65738 2.834 0
M  V30 1600 H 151.18 4.50526 0.991162 0
M  V30 1601 H 149.423 4.25105 0.864172 0
M  V30 1602 H 150.094 5.01391 2.30891 0
M  V30 1603 H 152.57 3.13497 2.73603 0
M  V30 1604 H 151.446 3.82992 3.93202 0
M  V30 1605 H 151.707 2.09328 3.89402 0
M  V30 1606 N 150.766 -0.704594 1.40972 0
M  V30 1607 C 151.729 -1.80035 1.41845 0
M  V30 1608 C 152.729 -1.57774 0.310474 0
M  V30 1609 O 153.919 -1.64613 0.56992 0
M  V30 1610 C 151.051 -3.18284 1.22098 0
M  V30 1611 H 152.244 -1.80658 2.3938 0
M  V30 1612 H 149.797 -0.911329 1.26982 0
M  V30 1613 H 150.532 -3.23306 0.253672 0
M  V30 1614 H 150.317 -3.35843 2.02366 0
M  V30 1615 H 151.807 -3.98289 1.25522 0
M  V30 1616 N 152.244 -1.26651 -0.937939 0
M  V30 1617 C 153.491 -1.12387 -1.6845 0
M  V30 1618 C 153.819 0.332208 -1.91642 0
M  V30 1619 O 153.074 1.2602 -1.49725 0
M  V30 1620 C 153.373 -1.84168 -3.06295 0
M  V30 1621 C 153.039 -3.34056 -3.02849 0
M  V30 1622 C 151.701 -3.74942 -3.01616 0
M  V30 1623 C 154.053 -4.29741 -2.9491 0
M  V30 1624 C 151.381 -5.09894 -2.90215 0
M  V30 1625 C 153.733 -5.64738 -2.8505 0
M  V30 1626 C 152.397 -6.0493 -2.82162 0
M  V30 1627 H 151.667 -0.411252 -0.616403 0
M  V30 1628 H 154.314 -1.57134 -1.09459 0
M  V30 1629 H 152.619 -1.319 -3.6893 0
M  V30 1630 H 154.316 -1.70569 -3.62915 0
M  V30 1631 H 150.906 -3.01534 -3.0459 0
M  V30 1632 H 155.09 -3.99133 -2.94969 0
M  V30 1633 H 150.346 -5.40194 -2.86358 0
M  V30 1634 H 154.52 -6.38561 -2.77872 0
M  V30 1635 H 152.147 -7.09457 -2.73084 0
M  V30 1636 N 153.722 1.14298 -1.08507 0
M  V30 1637 C 155.138 1.37347 -0.812901 0
M  V30 1638 C 155.338 1.93052 0.577325 0
M  V30 1639 O 154.394 2.14389 1.33393 0
M  V30 1640 C 155.707 2.33359 -1.89642 0
M  V30 1641 C 157.255 2.46996 -1.92255 0
M  V30 1642 C 157.73 3.46309 -2.99724 0
M  V30 1643 N 159.221 3.53853 -2.98902 0
M  V30 1644 C 159.956 4.3055 -3.787 0
M  V30 1645 N 159.452 5.10482 -4.6838 0
M  V30 1646 N 161.245 4.25757 -3.66998 0
M  V30 1647 H 153.396 0.764867 -1.9815 0
M  V30 1648 H 155.659 0.398966 -0.859959 0
M  V30 1649 H 155.365 1.99565 -2.89597 0
M  V30 1650 H 155.239 3.33274 -1.76659 0
M  V30 1651 H 157.626 2.80081 -0.929445 0
M  V30 1652 H 157.707 1.47039 -2.09316 0
M  V30 1653 H 157.351 3.13957 -3.99241 0
M  V30 1654 H 157.281 4.46049 -2.79907 0
M  V30 1655 H 159.772 2.96812 -2.33904 0
M  V30 1656 H 160.085 5.66284 -5.25873 0
M  V30 1657 H 158.43 5.09747 -4.72422 0
M  V30 1658 H 161.621 3.62383 -2.96304 0
M  V30 1659 H 161.794 4.85279 -4.29427 0
M  V30 1660 N 155.201 0.870884 1.31352 0
M  V30 1661 C 156.449 0.48132 1.96285 0
M  V30 1662 C 156.77 -0.969813 1.69173 0
M  V30 1663 O 156.04 -1.67998 1.00764 0
M  V30 1664 H 154.62 0.175002 0.726212 0
M  V30 1665 H 157.282 1.11087 1.60143 0
M  V30 1666 H 156.378 0.639825 3.05471 0
M  V30 1667 N 156.679 -1.44442 0.630414 0
M  V30 1668 C 157.904 -2.06927 0.139944 0
M  V30 1669 C 158.329 -1.46795 -1.17613 0
M  V30 1670 O 157.687 -0.569144 -1.72135 0
M  V30 1671 C 157.735 -3.6058 0.0379581 0
M  V30 1672 O 156.839 -3.99937 -1.0062 0
M  V30 1673 H 156.18 -0.658608 0.0844483 0
M  V30 1674 H 158.71 -1.85327 0.866891 0
M  V30 1675 H 158.72 -4.07714 -0.152856 0
M  V30 1676 H 157.395 -4.03728 0.998809 0
M  V30 1677 H 155.972 -3.64436 -0.79001 0
M  V30 1678 N 158.157 -0.370918 -1.53173 0
M  V30 1679 C 159.397 0.217106 -2.03244 0
M  V30 1680 C 159.761 1.45558 -1.25207 0
M  V30 1681 O 160.962 2.11957 -1.65311 0
M  V30 1682 C 159.233 0.496664 -3.53932 0
M  V30 1683 S 160.792 1.0576 -4.25864 0
M  V30 1684 H 157.61 0.0627827 -0.708223 0
M  V30 1685 H 160.212 -0.515019 -1.88594 0
M  V30 1686 H 158.916 -0.412096 -4.08326 0
M  V30 1687 H 158.447 1.25772 -3.72753 0
M  V30 1688 H 160.462 2.34145 -4.37482 0
M  V30 1689 N 159.635 1.57281 -0.100228 0
M  V30 1690 C 160.567 2.11342 0.886972 0
M  V30 1691 C 161.58 1.05182 1.24261 0
M  V30 1692 O 162.769 1.32613 1.19483 0
M  V30 1693 C 159.869 2.5825 2.19454 0
M  V30 1694 C 159.042 3.88302 2.01346 0
M  V30 1695 C 158.101 4.21004 3.15661 0
M  V30 1696 O 157.127 4.9014 2.89398 0
M  V30 1697 N 158.329 3.76818 4.41575 0
M  V30 1698 H 161.094 2.96668 0.425216 0
M  V30 1699 H 158.655 1.61678 0.0847334 0
M  V30 1700 H 160.647 2.7717 2.94888 0
M  V30 1701 H 159.217 1.77907 2.57037 0
M  V30 1702 H 158.437 3.7848 1.10212 0
M  V30 1703 H 159.725 4.73375 1.8653 0
M  V30 1704 H 159.123 3.2102 4.65792 0
M  V30 1705 H 157.68 4.00882 5.13942 0
M  V30 1706 N 161.113 -0.173488 1.56642 0
M  V30 1707 C 162.076 -1.19859 1.95362 0
M  V30 1708 C 163.076 -1.37296 0.83704 0
M  V30 1709 O 164.266 -1.34739 1.10413 0
M  V30 1710 C 161.398 -2.56405 2.24654 0
M  V30 1711 H 162.591 -0.867062 2.87092 0
M  V30 1712 H 160.144 -0.415853 1.50666 0
M  V30 1713 H 160.879 -2.94576 1.35631 0
M  V30 1714 H 160.664 -2.45115 3.06041 0
M  V30 1715 H 162.154 -3.30287 2.5554 0
M  V30 1716 N 162.591 -1.51276 -0.441967 0
M  V30 1717 C 163.831 -1.65372 -1.20132 0
M  V30 1718 C 164.195 -0.359871 -1.88597 0
M  V30 1719 O 165.396 -0.376551 -2.66149 0
M  V30 1720 C 163.667 -2.8207 -2.1948 0
M  V30 1721 S 165.226 -3.16467 -3.03964 0
M  V30 1722 H 162.044 -0.582669 -0.407453 0
M  V30 1723 H 164.646 -1.89166 -0.493609 0
M  V30 1724 H 163.35 -3.74523 -1.67812 0
M  V30 1725 H 162.881 -2.6045 -2.94838 0
M  V30 1726 H 164.896 -2.62543 -4.21053 0
M  V30 1727 N 164.069 0.697108 -1.41344 0
M  V30 1728 C 165.317 1.45426 -1.40341 0
M  V30 1729 C 165.638 1.94996 -0.0128787 0
M  V30 1730 O 164.908 1.71599 0.945027 0
M  V30 1731 H 163.488 0.539594 -0.516573 0
M  V30 1732 H 166.15 0.825201 -1.76569 0
M  V30 1733 H 165.246 2.31817 -2.08967 0
M  V30 1734 N 165.547 1.27147 0.931209 0
M  V30 1735 C 166.824 1.0401 1.65654 0
M  V30 1736 C 167.204 -0.426297 2.06751 0
M  V30 1737 O 166.552 -1.40879 1.79904 0
M  V30 1738 C 166.762 1.99834 2.86125 0
M  V30 1739 C 168.11 2.29007 3.57549 0
M  V30 1740 O 169.134 1.97779 2.96246 0
M  V30 1741 O 167.993 2.82222 4.67989 0
M  V30 1742 H 165.087 0.396239 0.725895 0
M  V30 1743 H 167.633 1.38397 0.982056 0
M  V30 1744 H 166.405 2.98744 2.52721 0
M  V30 1745 H 166.028 1.65987 3.61295 0
M  V30 1746 N 167.025 -1.13721 1.09112 0
M  V30 1747 C 168.25 -1.89314 0.847053 0
M  V30 1748 C 168.675 -1.78416 -0.595774 0
M  V30 1749 O 168.033 -1.12942 -1.41823 0
M  V30 1750 C 168.081 -3.3701 1.28284 0
M  V30 1751 O 167.185 -4.10054 0.439267 0
M  V30 1752 H 166.526 -0.588745 0.307044 0
M  V30 1753 H 169.056 -1.43902 1.45442 0
M  V30 1754 H 169.066 -3.87834 1.26683 0
M  V30 1755 H 167.741 -3.4426 2.33363 0
M  V30 1756 H 166.318 -3.69266 0.519312 0
M  V30 1757 N 168.503 -0.877838 -1.30888 0
M  V30 1758 C 169.749 -0.493426 -1.96706 0
M  V30 1759 C 170.082 0.953504 -1.6918 0
M  V30 1760 O 169.357 1.67266 -0.992594 0
M  V30 1761 C 169.64 -0.760429 -3.51979 0
M  V30 1762 C 169.493 -2.25747 -3.89048 0
M  V30 1763 C 170.812 -0.232148 -4.39487 0
M  V30 1764 H 167.931 -0.180746 -0.714493 0
M  V30 1765 H 170.573 -1.10052 -1.54882 0
M  V30 1766 H 168.723 -0.243715 -3.87735 0
M  V30 1767 H 170.395 -2.84204 -3.63354 0
M  V30 1768 H 168.638 -2.72694 -3.37373 0
M  V30 1769 H 169.309 -2.39491 -4.97341 0
M  V30 1770 H 171.785 -0.674314 -4.106 0
M  V30 1771 H 170.661 -0.448355 -5.47066 0
M  V30 1772 H 170.922 0.866297 -4.33529 0
M  V30 1773 N 169.982 1.44106 -0.638065 0
M  V30 1774 C 170.912 2.33448 0.0494287 0
M  V30 1775 C 171.893 1.48606 0.827672 0
M  V30 1776 O 173.078 1.77308 0.792173 0
M  V30 1777 C 170.208 3.31771 1.02691 0
M  V30 1778 C 169.162 4.26485 0.359823 0
M  V30 1779 C 168.488 5.14729 1.44769 0
M  V30 1780 C 169.788 5.17056 -0.738296 0
M  V30 1781 H 171.482 2.91183 -0.696636 0
M  V30 1782 H 169.028 1.40014 -0.336456 0
M  V30 1783 H 170.981 3.93161 1.51666 0
M  V30 1784 H 169.705 2.7226 1.80395 0
M  V30 1785 H 168.364 3.66437 -0.10934 0
M  V30 1786 H 168.012 4.51566 2.21578 0
M  V30 1787 H 167.712 5.78913 1.00668 0
M  V30 1788 H 169.236 5.78991 1.93911 0
M  V30 1789 H 170.65 5.72342 -0.331354 0
M  V30 1790 H 169.047 5.89879 -1.10286 0
M  V30 1791 H 170.117 4.57652 -1.60258 0
M  V30 1792 N 171.46 0.379036 1.52974 0
M  V30 1793 C 172.706 -0.206727 2.01744 0
M  V30 1794 C 173.039 -1.47314 1.26539 0
M  V30 1795 O 172.314 -1.91084 0.362903 0
M  V30 1796 C 172.597 -0.485066 3.56818 0
M  V30 1797 C 172.45 0.795919 4.42702 0
M  V30 1798 C 173.769 -1.28003 4.21074 0
M  V30 1799 H 170.888 -0.0736607 0.73331 0
M  V30 1800 H 173.53 0.506581 1.83122 0
M  V30 1801 H 171.68 -1.09272 3.72816 0
M  V30 1802 H 173.352 1.43307 4.38476 0
M  V30 1803 H 171.595 1.41344 4.10127 0
M  V30 1804 H 172.266 0.555947 5.49193 0
M  V30 1805 H 174.742 -0.765867 4.08991 0
M  V30 1806 H 173.618 -1.44352 5.29579 0
M  V30 1807 H 173.879 -2.29236 3.78026 0
M  V30 1808 N 172.938 -1.57226 0.108567 0
M  V30 1809 C 174.184 -1.95121 -0.552761 0
M  V30 1810 C 174.517 -0.991345 -1.66991 0
M  V30 1811 O 173.792 -0.0267211 -1.94482 0
M  V30 1812 C 174.075 -3.43039 -1.09528 0
M  V30 1813 C 173.928 -4.49797 0.0177332 0
M  V30 1814 C 175.247 -3.92567 -1.98945 0
M  V30 1815 H 172.366 -0.709496 -0.199461 0
M  V30 1816 H 175.008 -1.89126 0.182011 0
M  V30 1817 H 173.158 -3.48279 -1.72146 0
M  V30 1818 H 174.83 -4.56661 0.652584 0
M  V30 1819 H 173.073 -4.284 0.682309 0
M  V30 1820 H 173.744 -5.50528 -0.402919 0
M  V30 1821 H 176.22 -3.89565 -1.46214 0
M  V30 1822 H 175.096 -4.96605 -2.33827 0
M  V30 1823 H 175.357 -3.32648 -2.91201 0
M  V30 1824 N 174.416 0.165178 -1.56732 0
M  V30 1825 C 175.641 0.900253 -1.86843 0
M  V30 1826 C 176.066 1.74766 -0.695596 0
M  V30 1827 O 175.424 1.77786 0.35522 0
M  V30 1828 C 175.472 1.74777 -3.15413 0
M  V30 1829 O 174.576 2.85007 -2.98068 0
M  V30 1830 H 173.917 0.251832 -0.614391 0
M  V30 1831 H 176.447 0.161468 -2.03962 0
M  V30 1832 H 176.457 2.14646 -3.46974 0
M  V30 1833 H 175.132 1.12537 -4.00385 0
M  V30 1834 H 173.709 2.48676 -2.77875 0
M  V30 1835 N 175.894 1.51508 0.433938 0
M  V30 1836 C 176.804 1.75917 1.5521 0
M  V30 1837 C 177.82 0.643545 1.61662 0
M  V30 1838 O 178.996 0.926183 1.7884 0
M  V30 1839 C 176.061 1.88213 2.91164 0
M  V30 1840 C 175.122 3.12074 2.94802 0
M  V30 1841 C 174.355 3.23774 4.24271 0
M  V30 1842 O 174.578 2.4133 5.16833 0
M  V30 1843 O 173.512 4.16774 4.34262 0
M  V30 1844 H 177.338 2.70777 1.37527 0
M  V30 1845 H 174.923 1.36051 0.617293 0
M  V30 1846 H 176.805 1.98267 3.71845 0
M  V30 1847 H 175.48 0.965413 3.08968 0
M  V30 1848 H 174.387 3.07497 2.13065 0
M  V30 1849 H 175.72 4.03446 2.81943 0
M  V30 1850 N 177.372 -0.689602 1.41712 0
M  V30 1851 C 178.649 -1.44457 1.31877 0
M  V30 1852 C 179.029 -2.11039 -0.0508537 0
M  V30 1853 O 178.377 -2.02138 -1.06547 0
M  V30 1854 C 178.587 -2.45913 2.47645 0
M  V30 1855 C 179.935 -3.10991 2.89084 0
M  V30 1856 O 180.959 -2.56238 2.47428 0
M  V30 1857 O 179.818 -4.10174 3.61137 0
M  V30 1858 H 176.912 -0.64362 0.519309 0
M  V30 1859 H 179.458 -0.719576 1.53689 0
M  V30 1860 H 178.23 -1.95409 3.39015 0
M  V30 1861 H 177.853 -3.25913 2.27742 0
M  V30 1862 N 178.85 -1.27639 -0.924453 0
M  V30 1863 C 180.096 -1.14336 -1.67497 0
M  V30 1864 C 180.429 0.309465 -1.91718 0
M  V30 1865 O 179.704 1.22608 -1.50989 0
M  V30 1866 C 179.987 -1.93096 -3.0395 0
M  V30 1867 C 179.84 -3.46381 -2.8695 0
M  V30 1868 C 181.159 -1.73798 -4.0433 0
M  V30 1869 H 178.278 -0.416728 -0.607871 0
M  V30 1870 H 180.92 -1.56832 -1.07256 0
M  V30 1871 H 179.07 -1.56982 -3.55372 0
M  V30 1872 H 180.742 -3.92343 -2.42621 0
M  V30 1873 H 178.985 -3.72557 -2.22225 0
M  V30 1874 H 179.656 -3.96735 -3.83804 0
M  V30 1875 H 182.132 -2.05293 -3.61931 0
M  V30 1876 H 181.008 -2.31294 -4.97789 0
M  V30 1877 H 181.269 -0.686725 -4.36734 0
M  V30 1878 N 180.328 1.1314 -1.09713 0
M  V30 1879 C 181.276 2.20717 -0.733934 0
M  V30 1880 C 182.27 1.6729 0.266506 0
M  V30 1881 O 183.476 1.79547 0.127656 0
M  V30 1882 H 179.851 0.719292 -0.21937 0
M  V30 1883 H 181.822 2.48611 -1.6503 0
M  V30 1884 C 180.571 3.47265 -0.173849 0
M  V30 1885 H 179.894 3.88716 -0.934873 0
M  V30 1886 H 181.334 4.23979 0.0423126 0
M  V30 1887 C 179.793 3.18724 1.09164 0
M  V30 1888 O 180.323 3.37762 2.17439 0
M  V30 1889 N 178.529 2.72583 1.00732 0
M  V30 1890 H 178.076 2.57291 0.126121 0
M  V30 1891 H 178.034 2.53862 1.85476 0
M  V30 1892 N 181.806 0.884767 1.30421 0
M  V30 1893 C 183.036 0.517293 2.00019 0
M  V30 1894 C 183.444 -0.898632 1.66497 0
M  V30 1895 O 182.787 -1.60245 0.898181 0
M  V30 1896 C 182.849 0.612025 3.54252 0
M  V30 1897 C 182.513 1.99222 4.1129 0
M  V30 1898 C 183.51 2.9616 4.273 0
M  V30 1899 C 181.195 2.29755 4.46674 0
M  V30 1900 C 183.189 4.21764 4.77906 0
M  V30 1901 C 180.876 3.55606 4.96979 0
M  V30 1902 C 181.874 4.51425 5.12547 0
M  V30 1903 O 181.562 5.75043 5.61766 0
M  V30 1904 H 181.294 0.198529 0.64619 0
M  V30 1905 H 183.848 1.1919 1.67281 0
M  V30 1906 H 182.078 -0.119561 3.86515 0
M  V30 1907 H 183.767 0.255859 4.05093 0
M  V30 1908 H 184.533 2.73882 4.00267 0
M  V30 1909 H 180.412 1.55942 4.33824 0
M  V30 1910 H 183.956 4.96561 4.89972 0
M  V30 1911 H 179.853 3.7772 5.23448 0
M  V30 1912 H 180.621 5.77422 5.80109 0
M  V30 1913 N 183.284 -1.43765 0.645699 0
M  V30 1914 C 184.194 -2.34544 -0.0512957 0
M  V30 1915 C 185.21 -1.53455 -0.82022 0
M  V30 1916 O 186.386 -1.86133 -0.769176 0
M  V30 1917 C 183.451 -3.31636 -1.01087 0
M  V30 1918 C 182.512 -4.2863 -0.239712 0
M  V30 1919 C 181.745 -5.21084 -1.15358 0
M  V30 1920 O 181.968 -5.1779 -2.39269 0
M  V30 1921 O 180.902 -5.98593 -0.630038 0
M  V30 1922 H 184.728 -2.95624 0.695718 0
M  V30 1923 H 182.313 -1.43781 0.405882 0
M  V30 1924 H 184.195 -3.9136 -1.56254 0
M  V30 1925 H 182.87 -2.73069 -1.73824 0
M  V30 1926 H 181.777 -3.72408 0.355356 0
M  V30 1927 H 183.11 -4.90157 0.447936 0
M  V30 1928 N 184.763 -0.387143 -1.52771 0
M  V30 1929 C 186.174 0.0873634 -1.86495 0
M  V30 1930 C 186.525 1.46336 -1.30691 0
M  V30 1931 O 185.65 2.068 -0.637409 0
M  V30 1932 C 186.245 0.165305 -3.38396 0
M  V30 1933 C 184.804 0.584101 -3.7184 0
M  V30 1934 C 183.951 -0.255279 -2.76122 0
M  V30 1935 H 186.902 -0.605104 -1.46711 0
M  V30 1936 H 186.923 0.984848 -3.67534 0
M  V30 1937 H 186.435 -0.836301 -3.78982 0
M  V30 1938 H 184.536 1.59315 -3.36823 0
M  V30 1939 H 184.649 0.343749 -4.77865 0
M  V30 1940 H 183.013 0.279126 -2.53166 0
M  V30 1941 H 183.796 -1.25482 -3.19545 0
M  V30 1942 N 186.241 1.57166 -0.116904 0
M  V30 1943 C 187.518 1.86645 0.585049 0
M  V30 1944 C 187.898 1.0177 1.84949 0
M  V30 1945 O 187.246 0.0960379 2.28298 0
M  V30 1946 C 187.456 3.37736 0.879507 0
M  V30 1947 C 188.804 4.06289 1.23348 0
M  V30 1948 O 189.828 3.42743 0.969836 0
M  V30 1949 O 188.687 5.18455 1.7282 0
M  V30 1950 H 185.781 0.772593 0.295007 0
M  V30 1951 H 188.327 1.69025 -0.151249 0
M  V30 1952 H 187.099 3.91296 -0.0166136 0
M  V30 1953 H 186.722 3.6078 1.67103 0
M  V30 1954 N 187.719 -0.156864 1.56817 0
M  V30 1955 C 188.649 -1.19589 2.00551 0
M  V30 1956 C 189.63 -1.4536 0.883426 0
M  V30 1957 O 190.815 -1.56449 1.15054 0
M  V30 1958 C 187.945 -2.53143 2.37773 0
M  V30 1959 C 186.899 -2.41913 3.53075 0
M  V30 1960 C 186.225 -3.80088 3.76081 0
M  V30 1961 C 187.525 -1.91157 4.86062 0
M  V30 1962 H 189.219 -0.832293 2.87599 0
M  V30 1963 H 186.765 -0.398918 1.38364 0
M  V30 1964 H 188.718 -3.26047 2.66967 0
M  V30 1965 H 187.442 -2.91319 1.4765 0
M  V30 1966 H 186.101 -1.71462 3.24031 0
M  V30 1967 H 185.749 -4.15683 2.83225 0
M  V30 1968 H 185.449 -3.73439 4.53671 0
M  V30 1969 H 186.973 -4.54556 4.0769 0
M  V30 1970 H 188.387 -2.53846 5.14038 0
M  V30 1971 H 186.784 -1.95422 5.67389 0
M  V30 1972 H 187.854 -0.866673 4.77092 0
M  V30 1973 N 189.197 -1.51736 -0.425897 0
M  V30 1974 C 190.474 -1.55519 -1.1863 0
M  V30 1975 C 190.854 -0.326219 -2.08564 0
M  V30 1976 O 190.202 0.688012 -2.17896 0
M  V30 1977 C 190.412 -2.87521 -1.9782 0
M  V30 1978 C 191.76 -3.39899 -2.54468 0
M  V30 1979 O 192.784 -2.89148 -2.08019 0
M  V30 1980 O 191.643 -4.2848 -3.39215 0
M  V30 1981 H 188.737 -0.625739 -0.540721 0
M  V30 1982 H 191.283 -1.64055 -0.434038 0
M  V30 1983 H 190.055 -3.68422 -1.31836 0
M  V30 1984 H 189.678 -2.822 -2.80088 0
M  V30 1985 N 190.675 0.682077 -1.42076 0
M  V30 1986 C 191.922 1.44215 -1.42156 0
M  V30 1987 C 192.25 1.94468 -0.0354186 0
M  V30 1988 O 191.505 1.70816 0.955002 0
M  V30 1989 C 191.804 2.66036 -2.38662 0
M  V30 1990 C 191.47 2.34366 -3.85206 0
M  V30 1991 C 190.132 2.25439 -4.25124 0
M  V30 1992 C 192.484 2.08513 -4.77673 0
M  V30 1993 C 189.812 1.88775 -5.55501 0
M  V30 1994 C 192.164 1.73354 -6.08384 0
M  V30 1995 C 190.828 1.62933 -6.47309 0
M  V30 1996 H 190.098 0.527718 -0.520187 0
M  V30 1997 H 192.745 0.778387 -1.74967 0
M  V30 1998 H 191.05 3.3741 -1.99152 0
M  V30 1999 H 192.747 3.24205 -2.35991 0
M  V30 2000 H 189.337 2.42213 -3.53597 0
M  V30 2001 H 193.521 2.14346 -4.47626 0
M  V30 2002 H 188.777 1.7927 -5.84527 0
M  V30 2003 H 192.951 1.52373 -6.79526 0
M  V30 2004 H 190.578 1.34292 -7.48244 0
M  V30 2005 N 192.153 1.28127 0.917671 0
M  V30 2006 C 193.103 1.08361 2.00604 0
M  V30 2007 C 194.087 0.00847518 1.60898 0
M  V30 2008 O 195.279 0.228167 1.75523 0
M  V30 2009 C 192.408 0.743376 3.35155 0
M  V30 2010 C 191.494 1.85716 3.81275 0
M  V30 2011 N 191.885 3.09822 3.99805 0
M  V30 2012 C 190.183 1.74612 4.10398 0
M  V30 2013 C 190.884 3.82368 4.38372 0
M  V30 2014 N 189.86 3.10192 4.4641 0
M  V30 2015 H 193.662 2.02531 2.12975 0
M  V30 2016 H 191.176 1.18989 1.10523 0
M  V30 2017 H 193.173 0.582859 4.12805 0
M  V30 2018 H 191.833 -0.190595 3.2414 0
M  V30 2019 H 192.844 3.45475 3.85833 0
M  V30 2020 H 189.521 0.883657 4.08041 0
M  V30 2021 H 190.911 4.89082 4.60704 0
M  V30 2022 N 193.631 -1.12557 1.10312 0
M  V30 2023 C 194.563 -2.17971 0.708625 0
M  V30 2024 C 195.576 -1.60806 -0.254027 0
M  V30 2025 O 196.765 -1.78458 -0.0386891 0
M  V30 2026 C 193.865 -3.38891 0.0248198 0
M  V30 2027 C 193.038 -4.25548 1.01132 0
M  V30 2028 C 192.097 -5.24972 0.35924 0
M  V30 2029 O 191.123 -5.60174 1.00965 0
M  V30 2030 N 192.325 -5.73747 -0.882847 0
M  V30 2031 H 195.09 -2.52427 1.61557 0
M  V30 2032 H 192.651 -1.27967 0.991771 0
M  V30 2033 H 194.643 -4.02485 -0.422852 0
M  V30 2034 H 193.213 -3.02596 -0.784514 0
M  V30 2035 H 192.433 -3.58589 1.6373 0
M  V30 2036 H 193.721 -4.80294 1.67914 0
M  V30 2037 H 193.119 -5.4731 -1.43065 0
M  V30 2038 H 191.676 -6.39234 -1.27369 0
M  V30 2039 N 195.109 -0.891671 -1.2995 0
M  V30 2040 C 196.357 -0.512486 -1.95494 0
M  V30 2041 C 196.678 0.942776 -1.70695 0
M  V30 2042 O 195.948 1.66374 -1.03424 0
M  V30 2043 H 194.528 -0.186533 -0.723336 0
M  V30 2044 H 197.19 -1.13621 -1.58355 0
M  V30 2045 H 196.286 -0.688342 -3.04415 0
M  V30 2046 N 196.587 1.43421 -0.653314 0
M  V30 2047 C 198.003 1.56341 -0.320886 0
M  V30 2048 C 198.203 1.63696 1.17499 0
M  V30 2049 O 197.259 1.59208 1.95982 0
M  V30 2050 C 198.572 2.82424 -1.03233 0
M  V30 2051 C 200.12 2.96168 -1.01259 0
M  V30 2052 C 200.595 4.25084 -1.70492 0
M  V30 2053 N 202.086 4.31948 -1.67257 0
M  V30 2054 C 202.821 5.30466 -2.17701 0
M  V30 2055 N 202.317 6.35261 -2.76434 0
M  V30 2056 N 204.11 5.2212 -2.082 0
M  V30 2057 H 196.261 1.3689 -1.62403 0
M  V30 2058 H 198.524 0.657455 -0.682977 0
M  V30 2059 H 198.23 2.83053 -2.08744 0
M  V30 2060 H 198.104 3.72653 -0.583948 0
M  V30 2061 H 200.491 2.9508 0.0341235 0
M  V30 2062 H 200.572 2.07229 -1.49966 0
M  V30 2063 H 200.216 4.26932 -2.7512 0
M  V30 2064 H 200.146 5.1292 -1.19251 0
M  V30 2065 H 202.637 3.56838 -1.24398 0
M  V30 2066 H 202.95 7.06754 -3.12601 0
M  V30 2067 H 201.295 6.35884 -2.80495 0
M  V30 2068 H 204.486 4.39166 -1.62021 0
M  V30 2069 H 204.659 5.98739 -2.47822 0
M  V30 2070 N 198.065 0.39524 1.52563 0
M  V30 2071 C 198.995 -0.428384 2.29537 0
M  V30 2072 C 199.976 -1.05831 1.33169 0
M  V30 2073 O 201.161 -1.06995 1.62067 0
M  V30 2074 C 198.291 -1.55274 3.10656 0
M  V30 2075 C 197.245 -1.04855 4.14957 0
M  V30 2076 C 196.571 -2.26543 4.84337 0
M  V30 2077 C 197.871 -0.112324 5.22179 0
M  V30 2078 H 199.565 0.213867 2.98635 0
M  V30 2079 H 197.111 0.104298 1.43622 0
M  V30 2080 H 199.064 -2.1358 3.63265 0
M  V30 2081 H 197.788 -2.22266 2.39302 0
M  V30 2082 H 196.447 -0.487985 3.63338 0
M  V30 2083 H 196.095 -2.92059 4.09525 0
M  V30 2084 H 195.795 -1.93466 5.54837 0
M  V30 2085 H 197.319 -2.85481 5.39753 0
M  V30 2086 H 198.733 -0.603752 5.70112 0
M  V30 2087 H 197.13 0.128968 5.99961 0
M  V30 2088 H 198.2 0.837052 4.77621 0
M  V30 2089 N 199.544 -1.57102 0.125237 0
M  V30 2090 C 200.774 -1.99472 -0.538015 0
M  V30 2091 C 201.182 -1.00395 -1.60366 0
M  V30 2092 O 200.525 0.0103875 -1.83697 0
M  V30 2093 C 200.587 -3.38262 -1.21734 0
M  V30 2094 C 200.251 -4.56021 -0.298897 0
M  V30 2095 C 201.248 -5.17817 0.464943 0
M  V30 2096 C 198.933 -5.01869 -0.208149 0
M  V30 2097 C 200.927 -6.23852 1.3072 0
M  V30 2098 C 198.614 -6.07763 0.637736 0
M  V30 2099 C 199.612 -6.68622 1.39403 0
M  V30 2100 O 199.3 -7.7247 2.22586 0
M  V30 2101 H 199.032 -0.659934 -0.146501 0
M  V30 2102 H 201.586 -2.04321 0.210267 0
M  V30 2103 H 199.816 -3.30185 -2.01282 0
M  V30 2104 H 201.505 -3.6488 -1.77813 0
M  V30 2105 H 202.271 -4.83308 0.404741 0
M  V30 2106 H 198.15 -4.54241 -0.786522 0
M  V30 2107 H 201.694 -6.71284 1.898 0
M  V30 2108 H 197.591 -6.41701 0.699309 0
M  V30 2109 H 198.359 -7.89595 2.15596 0
M  V30 2110 N 201.022 0.148545 -1.56898 0
M  V30 2111 C 202.268 0.857877 -1.84424 0
M  V30 2112 C 202.623 1.7886 -0.709006 0
M  V30 2113 O 201.916 1.89344 0.293139 0
M  V30 2114 C 202.11 1.67064 -3.1595 0
M  V30 2115 C 201.939 0.82011 -4.42159 0
M  V30 2116 C 200.709 0.486328 -5.02954 0
M  V30 2117 C 202.907 0.151155 -5.14078 0
M  V30 2118 N 200.889 -0.377956 -6.12735 0
M  V30 2119 C 202.26 -0.573333 -6.17343 0
M  V30 2120 C 204.315 0.0716685 -4.97848 0
M  V30 2121 C 203.018 -1.3698 -7.06137 0
M  V30 2122 C 205.044 -0.711532 -5.87104 0
M  V30 2123 C 204.406 -1.42431 -6.8985 0
M  V30 2124 H 200.505 0.291798 -0.725519 0
M  V30 2125 H 203.089 0.123347 -1.94309 0
M  V30 2126 H 201.26 2.37642 -3.07215 0
M  V30 2127 H 202.992 2.32302 -3.31388 0
M  V30 2128 H 199.747 0.821753 -4.66416 0
M  V30 2129 H 200.171 -0.801077 -6.72244 0
M  V30 2130 H 204.813 0.608381 -4.184 0
M  V30 2131 H 202.531 -1.91778 -7.85014 0
M  V30 2132 H 206.117 -0.775005 -5.76615 0
M  V30 2133 H 204.997 -2.02061 -7.57721 0
M  V30 2134 N 202.5 1.5196 0.417844 0
M  V30 2135 C 203.725 1.69717 1.1921 0
M  V30 2136 C 204.15 0.402148 1.83751 0
M  V30 2137 O 203.508 -0.639593 1.69643 0
M  V30 2138 C 203.556 2.82794 2.2374 0
M  V30 2139 O 202.66 2.47756 3.29683 0
M  V30 2140 H 202.001 0.565263 0.348387 0
M  V30 2141 H 204.531 1.98621 0.490985 0
M  V30 2142 H 204.541 3.07452 2.68212 0
M  V30 2143 H 203.216 3.76756 1.76146 0
M  V30 2144 H 201.793 2.33739 2.90552 0
M  V30 2145 N 203.978 -0.674533 1.42435 0
M  V30 2146 C 205.255 -1.4305 1.33402 0
M  V30 2147 C 205.635 -2.11081 -0.0284674 0
M  V30 2148 O 204.983 -2.03257 -1.04397 0
M  V30 2149 C 205.193 -2.43272 2.50239 0
M  V30 2150 C 206.541 -3.07907 2.92367 0
M  V30 2151 O 207.565 -2.53599 2.50132 0
M  V30 2152 O 206.424 -4.0632 3.65467 0
M  V30 2153 H 203.518 -0.638076 0.526106 0
M  V30 2154 H 206.064 -0.703235 1.54443 0
M  V30 2155 H 204.836 -1.91803 3.41068 0
M  V30 2156 H 204.459 -3.23479 2.31186 0
M  V30 2157 N 205.456 -1.28612 -0.910864 0
M  V30 2158 C 206.386 -1.15326 -2.03032 0
M  V30 2159 C 207.367 -0.0502924 -1.70026 0
M  V30 2160 O 208.552 -0.227797 -1.92859 0
M  V30 2161 C 205.682 -0.817343 -3.37545 0
M  V30 2162 C 204.636 -1.8754 -3.84724 0
M  V30 2163 C 203.962 -1.39305 -5.16235 0
M  V30 2164 C 205.262 -3.28244 -4.06267 0
M  V30 2165 H 206.956 -2.08975 -2.14406 0
M  V30 2166 H 204.502 -1.00612 -1.03021 0
M  V30 2167 H 206.455 -0.711151 -4.15356 0
M  V30 2168 H 205.179 0.154846 -3.26233 0
M  V30 2169 H 203.838 -1.97079 -3.09121 0
M  V30 2170 H 203.486 -0.409846 -5.01328 0
M  V30 2171 H 203.186 -2.10057 -5.48771 0
M  V30 2172 H 204.71 -1.30014 -5.96598 0
M  V30 2173 H 206.124 -3.21611 -4.74594 0
M  V30 2174 H 204.521 -3.96855 -4.5014 0
M  V30 2175 H 205.591 -3.72048 -3.10979 0
M  V30 2176 N 206.934 1.1197 -1.10907 0
M  V30 2177 C 207.866 2.17592 -0.720175 0
M  V30 2178 C 208.879 1.60938 0.245495 0
M  V30 2179 O 210.068 1.78476 0.0292245 0
M  V30 2180 C 207.168 3.38873 -0.0427917 0
M  V30 2181 C 206.341 4.25006 -1.03388 0
M  V30 2182 C 205.4 5.24774 -0.387075 0
M  V30 2183 O 204.426 5.59631 -1.03934 0
M  V30 2184 N 205.628 5.74208 0.852407 0
M  V30 2185 H 208.393 2.51567 -1.62893 0
M  V30 2186 H 205.954 1.27439 -0.998543 0
M  V30 2187 H 207.946 4.02703 0.401501 0
M  V30 2188 H 206.516 3.03007 0.768456 0
M  V30 2189 H 205.736 3.57716 -1.65629 0
M  V30 2190 H 207.024 4.79397 -1.70458 0
M  V30 2191 H 206.422 5.48062 1.40161 0
M  V30 2192 H 204.979 6.39901 1.23977 0
M  V30 2193 N 208.412 0.89855 1.29475 0
M  V30 2194 C 209.375 0.380272 2.26023 0
M  V30 2195 C 210.375 -0.484891 1.53315 0
M  V30 2196 O 211.565 -0.290108 1.71767 0
M  V30 2197 C 208.697 -0.45651 3.3783 0
M  V30 2198 H 209.89 1.23295 2.73383 0
M  V30 2199 H 207.443 0.676589 1.40897 0
M  V30 2200 H 208.178 -1.32922 2.95808 0
M  V30 2201 H 207.963 0.163393 3.91759 0
M  V30 2202 H 209.453 -0.810466 4.0966 0
M  V30 2203 N 209.89 -1.43072 0.660911 0
M  V30 2204 C 210.823 -2.28074 -0.0758862 0
M  V30 2205 C 211.801 -1.40271 -0.822362 0
M  V30 2206 O 212.985 -1.69713 -0.820352 0
M  V30 2207 C 210.112 -3.19843 -1.11437 0
M  V30 2208 C 209.158 -4.23957 -0.465069 0
M  V30 2209 S 209.991 -5.29978 0.767078 0
M  V30 2210 C 211.147 -6.25314 -0.270682 0
M  V30 2211 H 211.38 -2.90216 0.645139 0
M  V30 2212 H 208.913 -1.47697 0.449995 0
M  V30 2213 H 210.871 -3.73257 -1.70849 0
M  V30 2214 H 209.532 -2.56863 -1.80776 0
M  V30 2215 H 208.725 -4.88299 -1.24819 0
M  V30 2216 H 208.327 -3.73959 0.0551242 0
M  V30 2217 H 210.619 -6.67932 -1.13459 0
M  V30 2218 H 211.562 -7.07293 0.337916 0
M  V30 2219 H 211.97 -5.61195 -0.609937 0
M  V30 2220 N 211.368 -0.403325 -1.52352 0
M  V30 2221 C 212.615 0.174347 -2.01748 0
M  V30 2222 C 212.943 1.45636 -1.2892 0
M  V30 2223 O 212.198 1.9193 -0.382258 0
M  V30 2224 C 212.497 0.474665 -3.54234 0
M  V30 2225 C 212.163 -0.717458 -4.45155 0
M  V30 2226 C 210.825 -1.04447 -4.69728 0
M  V30 2227 C 213.177 -1.51432 -4.98716 0
M  V30 2228 C 210.505 -2.16963 -5.45109 0
M  V30 2229 C 212.857 -2.6302 -5.75329 0
M  V30 2230 C 211.521 -2.96213 -5.98175 0
M  V30 2231 H 210.791 0.0637981 -0.738248 0
M  V30 2232 H 213.438 -0.543553 -1.83624 0
M  V30 2233 H 211.743 1.27406 -3.70506 0
M  V30 2234 H 213.44 0.934496 -3.89959 0
M  V30 2235 H 210.03 -0.452596 -4.26204 0
M  V30 2236 H 214.214 -1.27491 -4.79645 0
M  V30 2237 H 209.47 -2.43034 -5.61021 0
M  V30 2238 H 213.644 -3.25158 -6.15829 0
M  V30 2239 H 211.271 -3.83516 -6.56368 0
M  V30 2240 N 212.846 1.57033 -0.133567 0
M  V30 2241 C 213.776 2.1909 0.807567 0
M  V30 2242 C 214.757 1.13517 1.26681 0
M  V30 2243 O 215.942 1.41809 1.32679 0
M  V30 2244 C 213.072 2.80188 2.05212 0
M  V30 2245 C 212.026 3.91471 1.73015 0
M  V30 2246 C 211.352 4.39443 3.04622 0
M  V30 2247 C 212.652 5.12886 0.987168 0
M  V30 2248 H 214.346 2.97988 0.290403 0
M  V30 2249 H 211.892 1.43335 0.138239 0
M  V30 2250 H 213.845 3.22264 2.71521 0
M  V30 2251 H 212.569 1.98601 2.59278 0
M  V30 2252 H 211.228 3.49993 1.0909 0
M  V30 2253 H 210.876 3.54695 3.56651 0
M  V30 2254 H 210.576 5.14495 2.83847 0
M  V30 2255 H 212.1 4.8418 3.72024 0
M  V30 2256 H 213.514 5.51891 1.55208 0
M  V30 2257 H 211.911 5.93615 0.87985 0
M  V30 2258 H 212.981 4.84894 -0.0235286 0
M  V30 2259 N 214.325 -0.140222 1.56975 0
M  V30 2260 C 215.257 -1.19818 1.95388 0
M  V30 2261 C 216.27 -1.38816 0.850525 0
M  V30 2262 O 217.459 -1.38267 1.12891 0
M  V30 2263 C 214.559 -2.56189 2.21857 0
M  V30 2264 C 213.732 -2.58077 3.5315 0
M  V30 2265 C 212.791 -3.76037 3.6808 0
M  V30 2266 O 211.817 -3.60598 4.40406 0
M  V30 2267 N 213.019 -4.93763 3.05251 0
M  V30 2268 H 215.784 -0.871609 2.86746 0
M  V30 2269 H 213.345 -0.32972 1.58507 0
M  V30 2270 H 215.337 -3.33623 2.2908 0
M  V30 2271 H 213.907 -2.81111 1.36731 0
M  V30 2272 H 213.127 -1.6651 3.57307 0
M  V30 2273 H 214.415 -2.56377 4.39486 0
M  V30 2274 H 213.813 -5.09209 2.46419 0
M  V30 2275 H 212.37 -5.68949 3.18026 0
M  V30 2276 N 215.803 -1.52179 -0.40978 0
M  V30 2277 C 217.05 -1.66206 -1.15679 0
M  V30 2278 C 217.378 -0.391674 -1.90516 0
M  V30 2279 O 216.633 0.62533 -1.8544 0
M  V30 2280 C 216.932 -2.83428 -2.17723 0
M  V30 2281 C 216.598 -4.21672 -1.59699 0
M  V30 2282 C 215.26 -4.59274 -1.43599 0
M  V30 2283 C 217.612 -5.07825 -1.17317 0
M  V30 2284 C 214.94 -5.80709 -0.836328 0
M  V30 2285 C 217.292 -6.29864 -0.587691 0
M  V30 2286 C 215.956 -6.66216 -0.413818 0
M  V30 2287 H 215.226 -0.608192 -0.423301 0
M  V30 2288 H 217.873 -1.86279 -0.444097 0
M  V30 2289 H 216.178 -2.57687 -2.95135 0
M  V30 2290 H 217.875 -2.91477 -2.75394 0
M  V30 2291 H 214.465 -3.9204 -1.73213 0
M  V30 2292 H 218.649 -4.79359 -1.28565 0
M  V30 2293 H 213.905 -6.07498 -0.689626 0
M  V30 2294 H 218.079 -6.95948 -0.250894 0
M  V30 2295 H 215.706 -7.60182 0.0529471 0
M  V30 2296 N 217.281 0.66697 -1.42791 0
M  V30 2297 C 218.211 1.79218 -1.49677 0
M  V30 2298 C 219.192 1.66405 -0.352623 0
M  V30 2299 O 220.377 1.85708 -0.567993 0
M  V30 2300 C 217.507 3.17565 -1.40605 0
M  V30 2301 C 216.461 3.45124 -2.53127 0
M  V30 2302 C 215.787 4.83127 -2.29112 0
M  V30 2303 C 217.087 3.41236 -3.95418 0
M  V30 2304 H 218.781 1.73713 -2.43853 0
M  V30 2305 H 216.327 0.83432 -1.17367 0
M  V30 2306 H 218.28 3.96022 -1.44029 0
M  V30 2307 H 217.004 3.23767 -0.429271 0
M  V30 2308 H 215.663 2.69031 -2.49034 0
M  V30 2309 H 215.311 4.85988 -1.29709 0
M  V30 2310 H 215.011 5.02528 -3.04531 0
M  V30 2311 H 216.535 5.63859 -2.34297 0
M  V30 2312 H 217.949 4.09651 -4.01073 0
M  V30 2313 H 216.346 3.72173 -4.70752 0
M  V30 2314 H 217.416 2.39665 -4.21532 0
M  V30 2315 N 218.759 1.29093 0.90403 0
M  V30 2316 C 220.007 1.16583 1.65085 0
M  V30 2317 C 220.328 -0.283933 1.92922 0
M  V30 2318 O 219.598 -1.19509 1.55224 0
M  V30 2319 H 218.178 0.428467 0.611903 0
M  V30 2320 H 220.84 1.61959 1.08422 0
M  V30 2321 H 219.936 1.71266 2.6091 0
M  V30 2322 N 220.237 -1.11381 1.11499 0
M  V30 2323 C 221.147 -2.21019 0.786628 0
M  V30 2324 C 222.163 -1.72597 -0.220507 0
M  V30 2325 O 223.339 -2.01321 -0.0565251 0
M  V30 2326 C 220.404 -3.459 0.235333 0
M  V30 2327 C 219.465 -4.09107 1.30115 0
M  V30 2328 C 218.698 -5.28027 0.776068 0
M  V30 2329 O 218.921 -5.6904 -0.393661 0
M  V30 2330 O 217.855 -5.81835 1.54114 0
M  V30 2331 H 221.681 -2.51521 1.70209 0
M  V30 2332 H 219.266 -1.19928 0.890928 0
M  V30 2333 H 221.148 -4.21346 -0.067715 0
M  V30 2334 H 219.823 -3.17049 -0.652828 0
M  V30 2335 H 218.73 -3.35391 1.65722 0
M  V30 2336 H 220.063 -4.42139 2.16273 0
M  V30 2337 N 221.715 -0.905404 -1.28997 0
M  V30 2338 C 222.963 -0.533192 -1.9494 0
M  V30 2339 C 223.284 0.924618 -1.71685 0
M  V30 2340 O 222.554 1.65268 -1.05183 0
M  V30 2341 H 221.134 -0.194194 -0.721317 0
M  V30 2342 H 223.796 -1.15294 -1.57141 0
M  V30 2343 H 222.892 -0.72059 -3.03667 0
M  V30 2344 N 223.193 1.4272 -0.668489 0
M  V30 2345 C 224.609 1.55992 -0.33745 0
M  V30 2346 C 224.809 1.64933 1.15756 0
M  V30 2347 O 223.865 1.61278 1.94282 0
M  V30 2348 C 225.178 2.81314 -1.06222 0
M  V30 2349 C 226.726 2.95078 -1.04394 0
M  V30 2350 C 227.201 4.23252 -1.74991 0
M  V30 2351 N 228.692 4.3015 -1.71829 0
M  V30 2352 C 229.427 5.28127 -2.23315 0
M  V30 2353 N 228.923 6.32293 -2.83156 0
M  V30 2354 N 230.716 5.19882 -2.13726 0
M  V30 2355 H 222.867 1.3516 -1.63846 0
M  V30 2356 H 225.13 0.650174 -0.689912 0
M  V30 2357 H 224.836 2.80823 -2.11734 0
M  V30 2358 H 224.71 3.72012 -0.62344 0
M  V30 2359 H 227.097 2.951 0.0028244 0
M  V30 2360 H 227.178 2.05627 -1.52155 0
M  V30 2361 H 226.822 4.2399 -2.79633 0
M  V30 2362 H 226.752 5.11626 -1.24685 0
M  V30 2363 H 229.243 3.55499 -1.28175 0
M  V30 2364 H 229.556 7.03398 -3.20079 0
M  V30 2365 H 227.901 6.32873 -2.87223 0
M  V30 2366 H 231.092 4.37423 -1.66669 0
M  V30 2367 H 231.265 5.96077 -2.54158 0
M  V30 2368 N 224.671 0.411399 1.52136 0
M  V30 2369 C 225.601 -0.404015 2.29978 0
M  V30 2370 C 226.582 -1.04412 1.34284 0
M  V30 2371 O 227.767 -1.0527 1.63192 0
M  V30 2372 C 224.897 -1.5197 3.12286 0
M  V30 2373 C 223.851 -1.00448 4.16046 0
M  V30 2374 C 223.177 -2.21393 4.86712 0
M  V30 2375 C 224.477 -0.0569336 5.22269 0
M  V30 2376 H 226.171 0.245529 2.98392 0
M  V30 2377 H 223.717 0.119525 1.43503 0
M  V30 2378 H 225.67 -2.09715 3.6551 0
M  V30 2379 H 224.394 -2.19716 2.41646 0
M  V30 2380 H 223.053 -0.449421 3.63835 0
M  V30 2381 H 222.701 -2.87699 4.12599 0
M  V30 2382 H 222.401 -1.87571 5.56858 0
M  V30 2383 H 223.925 -2.7974 5.4275 0
M  V30 2384 H 225.339 -0.54325 5.7072 0
M  V30 2385 H 223.736 0.192594 5.99791 0
M  V30 2386 H 224.806 0.887663 4.76706 0
M  V30 2387 N 226.149 -1.5696 0.141893 0
M  V30 2388 C 227.059 -2.20066 -0.812905 0
M  V30 2389 C 228.075 -1.18344 -1.27557 0
M  V30 2390 O 229.251 -1.50902 -1.33381 0
M  V30 2391 C 226.316 -2.80583 -2.03652 0
M  V30 2392 C 225.377 -3.97414 -1.62359 0
M  V30 2393 C 224.61 -4.55036 -2.78887 0
M  V30 2394 O 224.833 -4.11538 -3.94959 0
M  V30 2395 O 223.767 -5.45376 -2.54653 0
M  V30 2396 H 227.593 -3.02157 -0.305746 0
M  V30 2397 H 225.178 -1.49159 -0.0848799 0
M  V30 2398 H 227.06 -3.19067 -2.75272 0
M  V30 2399 H 225.735 -2.01508 -2.5333 0
M  V30 2400 H 224.642 -3.63656 -0.877775 0
M  V30 2401 H 225.975 -4.77994 -1.17401 0
M  V30 2402 N 227.627 0.131896 -1.57047 0
M  V30 2403 C 228.904 0.871495 -1.75112 0
M  V30 2404 C 229.284 1.9866 -0.713949 0
M  V30 2405 O 228.632 2.26965 0.264447 0
M  V30 2406 C 228.842 1.40007 -3.19686 0
M  V30 2407 C 230.19 1.85752 -3.81813 0
M  V30 2408 O 231.214 1.49715 -3.23209 0
M  V30 2409 O 230.073 2.5226 -4.84796 0
M  V30 2410 H 227.167 0.412919 -0.716538 0
M  V30 2411 H 229.713 0.116641 -1.69299 0
M  V30 2412 H 228.485 0.599404 -3.86682 0
M  V30 2413 H 228.108 2.218 -3.29986 0
M  V30 2414 N 229.106 1.52395 0.401703 0
M  V30 2415 C 230.334 1.70676 1.16949 0
M  V30 2416 C 230.749 0.419503 1.8408 0
M  V30 2417 O 230.106 -0.605061 1.72178 0
M  V30 2418 C 230.157 2.84753 2.22706 0
M  V30 2419 O 229.878 4.08495 1.58314 0
M  V30 2420 C 231.379 3.14608 3.12309 0
M  V30 2421 H 228.599 0.571787 0.351142 0
M  V30 2422 H 231.143 1.98987 0.471652 0
M  V30 2423 H 229.298 2.58941 2.88147 0
M  V30 2424 H 229.712 4.72117 2.28485 0
M  V30 2425 H 231.186 3.97923 3.82572 0
M  V30 2426 H 231.663 2.28464 3.75101 0
M  V30 2427 H 232.269 3.42212 2.52529 0
M  V30 2428 N 230.584 -0.659388 1.43143 0
M  V30 2429 C 231.833 -1.41518 1.43721 0
M  V30 2430 C 232.146 -1.95499 0.0628176 0
M  V30 2431 O 233.352 -2.71446 -0.0539683 0
M  V30 2432 C 231.808 -2.5608 2.52885 0
M  V30 2433 C 231.416 -2.08733 3.96402 0
M  V30 2434 C 233.16 -3.3349 2.62649 0
M  V30 2435 C 231.067 -3.20469 4.97045 0
M  V30 2436 H 229.997 -0.531705 0.534608 0
M  V30 2437 H 232.648 -0.712343 1.69109 0
M  V30 2438 H 231.03 -3.28805 2.20688 0
M  V30 2439 H 232.204 -1.43059 4.3803 0
M  V30 2440 H 230.519 -1.44219 3.90627 0
M  V30 2441 H 233.116 -4.16734 3.35017 0
M  V30 2442 H 233.459 -3.8111 1.67513 0
M  V30 2443 H 233.992 -2.67842 2.94118 0
M  V30 2444 H 230.731 -2.77824 5.93712 0
M  V30 2445 H 230.251 -3.84874 4.60034 0
M  V30 2446 H 231.93 -3.85698 5.19467 0
M  V30 2447 N 232.062 -1.29571 -0.897171 0
M  V30 2448 C 233.478 -1.07637 -1.17841 0
M  V30 2449 C 233.678 0.170713 -2.00776 0
M  V30 2450 O 232.734 0.867768 -2.3712 0
M  V30 2451 C 234.047 -2.3332 -1.8969 0
M  V30 2452 C 235.595 -2.38664 -2.02505 0
M  V30 2453 C 236.07 -3.64157 -2.77765 0
M  V30 2454 N 237.561 -3.64894 -2.85318 0
M  V30 2455 C 238.296 -4.58679 -3.44094 0
M  V30 2456 N 237.792 -5.62799 -4.04017 0
M  V30 2457 N 239.585 -4.46245 -3.41793 0
M  V30 2458 H 231.736 -2.09598 -0.343883 0
M  V30 2459 H 233.999 -0.923333 -0.214848 0
M  V30 2460 H 233.705 -3.24262 -1.36187 0
M  V30 2461 H 233.579 -2.41025 -2.9015 0
M  V30 2462 H 235.966 -1.48208 -2.55183 0
M  V30 2463 H 236.047 -2.34943 -1.01171 0
M  V30 2464 H 235.691 -4.54965 -2.25763 0
M  V30 2465 H 235.621 -3.65137 -3.7945 0
M  V30 2466 H 238.112 -2.89613 -2.42761 0
M  V30 2467 H 238.425 -6.3048 -4.46895 0
M  V30 2468 H 236.77 -5.66605 -4.02472 0
M  V30 2469 H 239.961 -3.64094 -2.94199 0
M  V30 2470 H 240.134 -5.19518 -3.87304 0
M  V30 2471 N 233.54 1.10788 -1.12088 0
M  V30 2472 C 234.472 2.16816 -0.743213 0
M  V30 2473 C 235.485 1.6119 0.228412 0
M  V30 2474 O 236.674 1.78497 0.0102931 0
M  V30 2475 C 233.774 3.38809 -0.0787313 0
M  V30 2476 C 232.947 4.23885 -1.0789 0
M  V30 2477 C 232.006 5.24334 -0.442713 0
M  V30 2478 O 231.032 5.58497 -1.09864 0
M  V30 2479 N 232.234 5.75079 0.791457 0
M  V30 2480 H 234.999 2.49825 -1.65552 0
M  V30 2481 H 232.56 1.26373 -1.012 0
M  V30 2482 H 234.552 4.03107 0.358766 0
M  V30 2483 H 233.122 3.03805 0.736275 0
M  V30 2484 H 232.342 3.55939 -1.69414 0
M  V30 2485 H 233.63 4.77562 -1.75533 0
M  V30 2486 H 233.028 5.49517 1.3434 0
M  V30 2487 H 231.585 6.4118 1.17183 0
M  V30 2488 N 235.018 0.912232 1.28515 0
M  V30 2489 C 236.246 0.560416 1.99166 0
M  V30 2490 C 236.661 -0.857927 1.68182 0
M  V30 2491 O 236.018 -1.56805 0.933733 0
M  V30 2492 C 236.069 0.758142 3.53461 0
M  V30 2493 O 235.79 2.12067 3.83352 0
M  V30 2494 C 237.291 0.412954 4.41372 0
M  V30 2495 H 234.511 0.213805 0.636026 0
M  V30 2496 H 237.055 1.22502 1.63749 0
M  V30 2497 H 235.21 0.140556 3.87145 0
M  V30 2498 H 235.624 2.15923 4.77993 0
M  V30 2499 H 237.098 0.60208 5.48707 0
M  V30 2500 H 237.575 -0.65073 4.34353 0
M  V30 2501 H 238.181 1.00802 4.13182 0
M  V30 2502 N 236.496 -1.42363 0.676048 0
M  V30 2503 C 237.721 -2.06377 0.205705 0
M  V30 2504 C 238.146 -1.50463 -1.12883 0
M  V30 2505 O 237.504 -0.623619 -1.70237 0
M  V30 2506 C 237.552 -3.60277 0.152655 0
M  V30 2507 O 236.656 -4.02935 -0.87845 0
M  V30 2508 H 235.997 -0.655588 0.105359 0
M  V30 2509 H 238.527 -1.82475 0.925412 0
M  V30 2510 H 238.537 -4.07993 -0.0230675 0
M  V30 2511 H 237.212 -4.00346 1.12675 0
M  V30 2512 H 235.789 -3.66764 -0.673668 0
M  V30 2513 N 237.974 -0.419461 -1.51915 0
M  V30 2514 C 238.904 0.391813 -2.30189 0
M  V30 2515 C 239.885 1.03699 -1.34836 0
M  V30 2516 O 241.07 1.04403 -1.63748 0
M  V30 2517 C 238.2 1.50312 -3.13087 0
M  V30 2518 C 237.154 0.9824 -4.16573 0
M  V30 2519 C 236.48 2.18809 -4.8788 0
M  V30 2520 C 237.78 0.0292356 -5.22292 0
M  V30 2521 H 239.474 -0.26135 -2.98257 0
M  V30 2522 H 237.02 -0.127134 -1.43438 0
M  V30 2523 H 238.973 2.07773 -3.66617 0
M  V30 2524 H 237.697 2.18431 -2.42807 0
M  V30 2525 H 236.356 0.430119 -3.64068 0
M  V30 2526 H 236.004 2.85507 -4.14119 0
M  V30 2527 H 235.704 1.84615 -5.57845 0
M  V30 2528 H 237.228 2.76858 -5.44226 0
M  V30 2529 H 238.642 0.512976 -5.71 0
M  V30 2530 H 237.039 -0.2244 -5.9968 0
M  V30 2531 H 238.109 -0.912931 -4.76228 0
M  V30 2532 N 239.452 1.56882 -0.150215 0
M  V30 2533 C 240.868 1.58263 0.20617 0
M  V30 2534 C 241.068 1.16464 1.64434 0
M  V30 2535 O 240.124 0.866422 2.3717 0
M  V30 2536 C 241.437 3.00649 -0.0555025 0
M  V30 2537 C 242.985 3.12999 0.00795388 0
M  V30 2538 C 243.46 4.5744 -0.226429 0
M  V30 2539 N 244.951 4.62875 -0.173469 0
M  V30 2540 C 245.686 5.72454 -0.329288 0
M  V30 2541 N 245.182 6.90669 -0.543005 0
M  V30 2542 N 246.975 5.61467 -0.266666 0
M  V30 2543 H 239.126 1.82345 -1.08922 0
M  V30 2544 H 241.389 0.844149 -0.431413 0
M  V30 2545 H 241.095 3.3563 -1.05096 0
M  V30 2546 H 240.969 3.71337 0.66246 0
M  V30 2547 H 243.356 2.77857 0.993966 0
M  V30 2548 H 243.437 2.4479 -0.742388 0
M  V30 2549 H 243.081 4.93287 -1.20956 0
M  V30 2550 H 243.011 5.2378 0.544274 0
M  V30 2551 H 245.502 3.77898 -0.0130709 0
M  V30 2552 H 245.815 7.70045 -0.651922 0
M  V30 2553 H 244.16 6.92581 -0.579366 0
M  V30 2554 H 247.351 4.67992 -0.100441 0
M  V30 2555 H 247.524 6.46816 -0.391535 0
M  V30 2556 N 240.93 -0.123565 1.57115 0
M  V30 2557 C 241.84 -1.17074 2.033 0
M  V30 2558 C 242.856 -1.4561 0.952559 0
M  V30 2559 O 244.032 -1.56817 1.26374 0
M  V30 2560 C 241.097 -2.47857 2.42421 0
M  V30 2561 C 240.158 -2.26758 3.64526 0
M  V30 2562 C 239.391 -3.51305 4.01771 0
M  V30 2563 O 239.614 -4.5843 3.39409 0
M  V30 2564 O 238.548 -3.42578 4.94898 0
M  V30 2565 H 242.374 -0.808555 2.92739 0
M  V30 2566 H 239.959 -0.334027 1.45618 0
M  V30 2567 H 241.841 -3.2492 2.68338 0
M  V30 2568 H 240.516 -2.83558 1.5613 0
M  V30 2569 H 239.423 -1.47569 3.43765 0
M  V30 2570 H 240.756 -1.95963 4.51508 0
M  V30 2571 N 242.408 -1.52605 -0.393616 0
M  V30 2572 C 243.824 -1.41753 -0.733357 0
M  V30 2573 C 244.024 -0.534293 -1.94287 0
M  V30 2574 O 243.08 -0.0059787 -2.52499 0
M  V30 2575 C 244.393 -2.84531 -0.972772 0
M  V30 2576 C 245.941 -2.93978 -1.07453 0
M  V30 2577 C 246.416 -4.37756 -1.3466 0
M  V30 2578 N 247.907 -4.4106 -1.41492 0
M  V30 2579 C 248.642 -5.49387 -1.642 0
M  V30 2580 N 248.138 -6.67806 -1.8441 0
M  V30 2581 N 249.931 -5.36923 -1.66342 0
M  V30 2582 H 242.082 -2.08555 0.402328 0
M  V30 2583 H 244.345 -0.940654 0.117789 0
M  V30 2584 H 244.051 -3.51353 -0.156204 0
M  V30 2585 H 243.925 -3.26508 -1.88871 0
M  V30 2586 H 246.312 -2.27326 -1.88167 0
M  V30 2587 H 246.393 -2.55435 -0.136605 0
M  V30 2588 H 246.037 -5.04972 -0.544581 0
M  V30 2589 H 245.967 -4.73848 -2.2973 0
M  V30 2590 H 248.458 -3.55705 -1.27601 0
M  V30 2591 H 248.771 -7.46141 -2.01231 0
M  V30 2592 H 247.116 -6.70843 -1.81644 0
M  V30 2593 H 250.307 -4.43381 -1.50102 0
M  V30 2594 H 250.48 -6.21416 -1.837 0
M  V30 2595 N 243.887 0.651787 -1.4349 0
M  V30 2596 C 245.133 1.41376 -1.45398 0
M  V30 2597 C 245.466 1.94041 -0.0784823 0
M  V30 2598 O 244.741 1.72379 0.900878 0
M  V30 2599 C 245.024 2.59414 -2.49752 0
M  V30 2600 C 244.877 2.12232 -3.96582 0
M  V30 2601 C 246.196 3.61626 -2.50827 0
M  V30 2602 H 243.315 0.512719 -0.529422 0
M  V30 2603 H 245.957 0.738796 -1.75048 0
M  V30 2604 H 244.107 3.16997 -2.246 0
M  V30 2605 H 245.779 1.59639 -4.32797 0
M  V30 2606 H 244.022 1.43592 -4.09346 0
M  V30 2607 H 244.693 2.9712 -4.65214 0
M  V30 2608 H 247.169 3.13805 -2.7325 0
M  V30 2609 H 246.045 4.41766 -3.25783 0
M  V30 2610 H 246.306 4.14314 -1.5426 0
M  V30 2611 N 245.365 1.30045 0.890287 0
M  V30 2612 C 246.328 1.15963 1.977 0
M  V30 2613 C 247.328 0.0923777 1.60534 0
M  V30 2614 O 248.518 0.340071 1.70848 0
M  V30 2615 C 245.65 0.775451 3.31963 0
M  V30 2616 H 246.843 2.12502 2.11619 0
M  V30 2617 H 244.396 1.13366 1.07601 0
M  V30 2618 H 245.131 -0.189671 3.23745 0
M  V30 2619 H 244.916 1.54668 3.60306 0
M  V30 2620 H 246.406 0.700251 4.11687 0
M  V30 2621 N 246.843 -1.10192 1.12674 0
M  V30 2622 C 248.091 -1.81845 0.881861 0
M  V30 2623 C 248.412 -1.85737 -0.593867 0
M  V30 2624 O 247.682 -1.33724 -1.4316 0
M  V30 2625 H 246.262 -0.673432 0.323261 0
M  V30 2626 H 248.924 -1.33316 1.42172 0
M  V30 2627 H 248.02 -2.85288 1.2656 0
M  V30 2628 N 248.321 -0.919034 -1.28029 0
M  V30 2629 C 249.546 -0.570357 -1.99403 0
M  V30 2630 C 249.971 0.842486 -1.68178 0
M  V30 2631 O 249.329 1.56391 -0.917141 0
M  V30 2632 C 249.377 -0.792541 -3.51783 0
M  V30 2633 O 248.481 0.145988 -4.12142 0
M  V30 2634 H 247.822 -0.220555 -0.6263 0
M  V30 2635 H 250.352 -1.23592 -1.63053 0
M  V30 2636 H 250.362 -0.704708 -4.01868 0
M  V30 2637 H 249.037 -1.82247 -3.73844 0
M  V30 2638 H 247.614 0.00897528 -3.72899 0
M  V30 2639 N 249.799 1.42003 -0.683588 0
M  V30 2640 C 250.762 2.29191 -0.0198243 0
M  V30 2641 C 251.762 1.43773 0.72013 0
M  V30 2642 O 252.952 1.65061 0.556815 0
M  V30 2643 C 250.084 3.26435 0.982487 0
M  V30 2644 H 251.277 2.8938 -0.787345 0
M  V30 2645 H 248.83 1.49789 -0.446418 0
M  V30 2646 H 249.565 2.71203 1.77819 0
M  V30 2647 H 249.35 3.89449 0.455182 0
M  V30 2648 H 250.84 3.918 1.44508 0
M  V30 2649 N 251.277 0.427512 1.51691 0
M  V30 2650 C 252.525 -0.141948 2.01601 0
M  V30 2651 C 252.846 -1.44067 1.31414 0
M  V30 2652 O 252.116 -1.90763 0.445658 0
M  V30 2653 H 250.696 -0.0554468 0.744939 0
M  V30 2654 H 253.358 0.567968 1.86441 0
M  V30 2655 H 252.454 -0.324913 3.10404 0
M  V30 2656 N 252.755 -1.56801 0.158532 0
M  V30 2657 C 253.688 -2.13148 -0.815065 0
M  V30 2658 C 254.666 -1.0581 -1.23462 0
M  V30 2659 O 255.85 -1.3371 -1.32868 0
M  V30 2660 C 252.977 -2.6606 -2.09594 0
M  V30 2661 C 252.023 -3.85651 -1.82141 0
M  V30 2662 S 252.856 -5.26041 -1.00207 0
M  V30 2663 C 254.012 -5.8235 -2.29389 0
M  V30 2664 H 254.245 -2.95396 -0.335937 0
M  V30 2665 H 251.778 -1.54299 -0.0559391 0
M  V30 2666 H 253.736 -2.97195 -2.8317 0
M  V30 2667 H 252.397 -1.83921 -2.54621 0
M  V30 2668 H 251.59 -4.20958 -2.77147 0
M  V30 2669 H 251.192 -3.55338 -1.16667 0
M  V30 2670 H 253.484 -5.94485 -3.24952 0
M  V30 2671 H 254.427 -6.79688 -1.9857 0
M  V30 2672 H 254.835 -5.10675 -2.40564 0
M  V30 2673 N 254.233 0.115231 -1.57178 0
M  V30 2674 C 255.196 1.12526 -1.99676 0
M  V30 2675 C 256.196 1.34095 -0.88742 0
M  V30 2676 O 257.386 1.30548 -1.15337 0
M  V30 2677 C 254.518 2.4789 -2.34015 0
M  V30 2678 H 255.711 0.759912 -2.90113 0
M  V30 2679 H 253.264 0.359648 -1.52106 0
M  V30 2680 H 253.999 2.89339 -1.4647 0
M  V30 2681 H 253.784 2.33588 -3.14927 0
M  V30 2682 H 255.274 3.20575 -2.67622 0
M  V30 2683 N 255.711 1.52812 0.385517 0
M  V30 2684 C 256.674 1.77188 1.45386 0
M  V30 2685 C 257.674 0.641953 1.4743 0
M  V30 2686 O 258.864 0.910033 1.4854 0
M  V30 2687 C 255.996 1.87582 2.8465 0
M  V30 2688 H 257.189 2.72583 1.25054 0
M  V30 2689 H 254.742 1.43586 0.617467 0
M  V30 2690 H 255.477 0.941849 3.10322 0
M  V30 2691 H 255.262 2.69748 2.84567 0
M  V30 2692 H 256.752 2.08102 3.62054 0
M  V30 2693 N 257.189 -0.644168 1.43834 0
M  V30 2694 C 258.119 -1.76814 1.52509 0
M  V30 2695 C 259.1 -1.65823 0.379052 0
M  V30 2696 O 260.285 -1.84781 0.597466 0
M  V30 2697 C 257.415 -3.15288 1.4564 0
M  V30 2698 C 256.369 -3.41053 2.58586 0
M  V30 2699 C 255.695 -4.79421 2.36769 0
M  V30 2700 C 256.995 -3.34902 4.00797 0
M  V30 2701 H 258.689 -1.69812 2.46586 0
M  V30 2702 H 256.235 -0.815542 1.1868 0
M  V30 2703 H 258.188 -3.93681 1.50311 0
M  V30 2704 H 256.912 -3.23043 0.480725 0
M  V30 2705 H 255.571 -2.65035 2.53282 0
M  V30 2706 H 255.219 -4.83863 1.37424 0
M  V30 2707 H 254.919 -4.9762 3.12487 0
M  V30 2708 H 256.443 -5.6006 2.43238 0
M  V30 2709 H 257.857 -4.03218 4.07539 0
M  V30 2710 H 256.254 -3.64637 4.76613 0
M  V30 2711 H 257.324 -2.32928 4.25291 0
M  V30 2712 N 258.668 -1.30515 -0.883378 0
M  V30 2713 C 259.896 -1.22359 -1.66841 0
M  V30 2714 C 260.311 0.213296 -1.87591 0
M  V30 2715 O 259.668 1.14075 -1.42454 0
M  V30 2716 C 259.719 -1.95011 -3.04389 0
M  V30 2717 O 259.44 -3.3309 -2.84575 0
M  V30 2718 C 260.941 -1.93532 -3.98824 0
M  V30 2719 H 258.161 -0.423371 -0.520575 0
M  V30 2720 H 260.705 -1.72167 -1.10357 0
M  V30 2721 H 258.86 -1.48997 -3.57601 0
M  V30 2722 H 259.274 -3.69907 -3.71846 0
M  V30 2723 H 260.748 -2.48902 -4.92699 0
M  V30 2724 H 261.225 -0.914627 -4.29571 0
M  V30 2725 H 261.831 -2.39364 -3.51547 0
M  V30 2726 N 260.146 1.09593 -1.13257 0
M  V30 2727 C 261.078 2.16015 -0.766167 0
M  V30 2728 C 262.091 1.61423 0.211303 0
M  V30 2729 O 263.28 1.78498 -0.00863946 0
M  V30 2730 C 260.38 3.38706 -0.114662 0
M  V30 2731 C 259.553 4.22717 -1.12379 0
M  V30 2732 C 258.612 5.23835 -0.498301 0
M  V30 2733 O 257.638 5.573 -1.15781 0
M  V30 2734 N 258.84 5.75886 0.730417 0
M  V30 2735 H 261.605 2.48055 -1.68193 0
M  V30 2736 H 259.166 1.25292 -1.02535 0
M  V30 2737 H 261.158 4.03464 0.315991 0
M  V30 2738 H 259.728 3.04569 0.704011 0
M  V30 2739 H 258.948 3.54122 -1.73179 0
M  V30 2740 H 260.236 4.75673 -1.80589 0
M  V30 2741 H 259.634 5.50911 1.28504 0
M  V30 2742 H 258.191 6.42387 1.10376 0
M  V30 2743 N 261.624 0.925811 1.2754 0
M  V30 2744 C 262.901 0.483726 1.89524 0
M  V30 2745 C 263.281 -1.03809 1.83812 0
M  V30 2746 O 262.629 -1.89143 1.28207 0
M  V30 2747 C 262.839 1.02769 3.33526 0
M  V30 2748 C 264.187 1.08703 4.10449 0
M  V30 2749 O 265.211 0.977175 3.42534 0
M  V30 2750 O 264.07 1.25599 5.31871 0
M  V30 2751 H 261.164 0.15529 0.812289 0
M  V30 2752 H 263.71 1.01738 1.35822 0
M  V30 2753 H 262.482 2.07155 3.31967 0
M  V30 2754 H 262.105 0.475567 3.94746 0
M  V30 2755 N 263.102 -1.41638 0.69111 0
M  V30 2756 C 264.351 -2.00526 0.217318 0
M  V30 2757 C 264.664 -1.55353 -1.18848 0
M  V30 2758 O 265.87 -2.06769 -1.75951 0
M  V30 2759 C 264.326 -3.58313 0.337639 0
M  V30 2760 C 263.934 -4.12469 1.74852 0
M  V30 2761 C 265.678 -4.24431 -0.0766066 0
M  V30 2762 C 263.585 -5.62675 1.82074 0
M  V30 2763 H 262.515 -0.750008 0.0774893 0
M  V30 2764 H 265.166 -1.6217 0.858661 0
M  V30 2765 H 263.548 -3.9425 -0.371879 0
M  V30 2766 H 264.722 -3.8796 2.48644 0
M  V30 2767 H 263.037 -3.58861 2.11205 0
M  V30 2768 H 265.634 -5.34683 -0.0430284 0
M  V30 2769 H 265.977 -4.01101 -1.1146 0
M  V30 2770 H 266.51 -3.93512 0.582476 0
M  V30 2771 H 263.249 -5.90826 2.83911 0
M  V30 2772 H 262.769 -5.89124 1.12661 0
M  V30 2773 H 264.448 -6.27371 1.58159 0
M  V30 2774 N 264.58 -0.43555 -1.51462 0
M  V30 2775 C 265.996 -0.0877501 -1.59359 0
M  V30 2776 C 266.196 1.4027 -1.4466 0
M  V30 2777 O 265.252 2.17243 -1.28693 0
M  V30 2778 C 266.565 -0.606264 -2.94525 0
M  V30 2779 C 268.113 -0.566548 -3.0783 0
M  V30 2780 C 268.588 -1.06201 -4.45517 0
M  V30 2781 N 270.079 -1.01992 -4.51832 0
M  V30 2782 C 270.814 -1.37417 -5.5669 0
M  V30 2783 N 270.31 -1.80119 -6.68976 0
M  V30 2784 N 272.103 -1.29245 -5.47039 0
M  V30 2785 H 264.254 -1.40533 -1.59261 0
M  V30 2786 H 266.517 -0.578992 -0.750648 0
M  V30 2787 H 266.223 -1.64901 -3.10645 0
M  V30 2788 H 266.097 -0.0302097 -3.77188 0
M  V30 2789 H 268.484 0.467208 -2.91378 0
M  V30 2790 H 268.565 -1.17898 -2.2701 0
M  V30 2791 H 268.209 -2.09422 -4.62715 0
M  V30 2792 H 268.139 -0.426127 -5.24873 0
M  V30 2793 H 270.63 -0.706308 -3.71241 0
M  V30 2794 H 270.943 -2.05392 -7.45006 0
M  V30 2795 H 269.288 -1.84044 -6.70189 0
M  V30 2796 H 272.479 -0.957522 -4.58202 0
M  V30 2797 H 272.652 -1.57182 -6.28648 0
M  V30 2798 N 266.058 1.56714 -0.166846 0
M  V30 2799 C 267.021 2.16539 0.751232 0
M  V30 2800 C 268.021 1.11228 1.16125 0
M  V30 2801 O 269.211 1.36765 1.07894 0
M  V30 2802 C 266.343 2.74462 2.02196 0
M  V30 2803 H 267.536 2.99013 0.230499 0
M  V30 2804 H 265.089 1.56081 0.0826982 0
M  V30 2805 H 265.824 1.95709 2.58589 0
M  V30 2806 H 265.609 3.51527 1.73698 0
M  V30 2807 H 267.099 3.20489 2.67725 0
M  V30 2808 N 267.536 -0.106894 1.57237 0
M  V30 2809 C 268.499 -1.11466 2.0027 0
M  V30 2810 C 269.499 -1.33623 0.894519 0
M  V30 2811 O 270.689 -1.29935 1.16028 0
M  V30 2812 C 267.821 -2.46646 2.35327 0
M  V30 2813 H 269.014 -0.744516 2.90512 0
M  V30 2814 H 266.567 -0.351576 1.52295 0
M  V30 2815 H 267.302 -2.88558 1.48003 0
M  V30 2816 H 267.087 -2.31915 3.16161 0
M  V30 2817 H 268.577 -3.19151 2.69318 0
M  V30 2818 N 269.014 -1.53014 -0.377408 0
M  V30 2819 C 269.944 -1.81589 -1.46791 0
M  V30 2820 C 270.925 -0.668622 -1.56408 0
M  V30 2821 O 272.11 -0.917337 -1.71168 0
M  V30 2822 C 269.24 -1.99519 -2.8427 0
M  V30 2823 C 268.194 -3.15249 -2.89486 0
M  V30 2824 C 267.52 -3.18451 -4.29527 0
M  V30 2825 C 268.82 -4.54084 -2.58079 0
M  V30 2826 H 270.514 -2.7291 -1.23127 0
M  V30 2827 H 268.06 -1.31319 -0.590883 0
M  V30 2828 H 270.013 -2.18092 -3.60575 0
M  V30 2829 H 268.737 -1.04897 -3.09296 0
M  V30 2830 H 267.396 -2.96477 -2.15631 0
M  V30 2831 H 267.044 -2.2149 -4.5161 0
M  V30 2832 H 266.744 -3.962 -4.33934 0
M  V30 2833 H 268.268 -3.39193 -5.07721 0
M  V30 2834 H 269.682 -4.72899 -3.24098 0
M  V30 2835 H 268.079 -5.33987 -2.7382 0
M  V30 2836 H 269.149 -4.60006 -1.53372 0
M  V30 2837 N 270.492 0.636531 -1.44174 0
M  V30 2838 C 271.717 1.42847 -1.50364 0
M  V30 2839 C 272.142 1.87665 -0.127867 0
M  V30 2840 O 271.5 1.58408 0.88185 0
M  V30 2841 C 271.548 2.62854 -2.4686 0
M  V30 2842 O 270.652 3.62501 -1.9664 0
M  V30 2843 H 269.993 0.427642 -0.507955 0
M  V30 2844 H 272.523 0.777422 -1.89255 0
M  V30 2845 H 272.533 3.10465 -2.64718 0
M  V30 2846 H 271.208 2.29578 -3.46795 0
M  V30 2847 H 269.785 3.21735 -1.88523 0
M  V30 2848 N 271.97 1.30982 0.876444 0
M  V30 2849 C 273.386 1.09498 1.16113 0
M  V30 2850 C 273.586 -0.13875 2.01022 0
M  V30 2851 O 272.642 -0.829935 2.38471 0
M  V30 2852 C 273.955 2.36308 1.85954 0
M  V30 2853 C 275.503 2.41856 1.98683 0
M  V30 2854 C 275.978 3.6853 2.71937 0
M  V30 2855 N 277.469 3.69387 2.79477 0
M  V30 2856 C 278.204 4.64096 3.36753 0
M  V30 2857 N 277.7 5.69155 3.95012 0
M  V30 2858 N 279.493 4.51626 3.3465 0
M  V30 2859 H 271.644 2.10118 0.310494 0
M  V30 2860 H 273.907 0.926634 0.200131 0
M  V30 2861 H 273.613 3.26388 1.31011 0
M  V30 2862 H 273.487 2.4561 2.86278 0
M  V30 2863 H 275.874 1.52249 2.52793 0
M  V30 2864 H 275.955 2.36523 0.9742 0
M  V30 2865 H 275.599 4.58499 2.18496 0
M  V30 2866 H 275.529 3.71127 3.73593 0
M  V30 2867 H 278.02 2.93438 2.38123 0
M  V30 2868 H 278.333 6.3751 4.36808 0
M  V30 2869 H 276.678 5.72937 3.93406 0
M  V30 2870 H 279.869 3.68728 2.8837 0
M  V30 2871 H 280.042 5.25614 3.7899 0
M  V30 2872 N 273.449 -1.08991 1.13837 0
M  V30 2873 C 274.381 -2.15606 0.777612 0
M  V30 2874 C 275.394 -1.61533 -0.202739 0
M  V30 2875 O 276.583 -1.78491 0.0181055 0
M  V30 2876 C 273.683 -3.3864 0.132623 0
M  V30 2877 C 272.856 -4.22115 1.1462 0
M  V30 2878 C 271.915 -5.23564 0.526074 0
M  V30 2879 O 270.941 -5.56678 1.18735 0
M  V30 2880 N 272.143 -5.76266 -0.699866 0
M  V30 2881 H 274.908 -2.47159 1.69506 0
M  V30 2882 H 272.469 -1.24747 1.03198 0
M  V30 2883 H 274.461 -4.03626 -0.29459 0
M  V30 2884 H 273.031 -3.04938 -0.687849 0
M  V30 2885 H 272.251 -3.53199 1.75055 0
M  V30 2886 H 273.539 -4.74709 1.83109 0
M  V30 2887 H 272.937 -5.51585 -1.25581 0
M  V30 2888 H 271.494 -6.42963 -1.06968 0
M  V30 2889 N 274.927 -0.932562 -1.27047 0
M  V30 2890 C 275.874 -0.434072 -2.26681 0
M  V30 2891 C 276.844 0.501639 -1.58344 0
M  V30 2892 O 278.029 0.419734 -1.86126 0
M  V30 2893 C 275.169 0.30261 -3.43771 0
M  V30 2894 C 274.282 -0.667774 -4.26808 0
M  V30 2895 C 273.417 0.0892393 -5.31125 0
M  V30 2896 C 272.456 -0.873532 -6.05835 0
M  V30 2897 N 271.593 -0.148832 -7.01942 0
M  V30 2898 H 276.433 -1.28868 -2.68695 0
M  V30 2899 H 273.97 -0.646713 -1.32121 0
M  V30 2900 H 275.928 0.746092 -4.10474 0
M  V30 2901 H 274.558 1.12142 -3.02695 0
M  V30 2902 H 273.61 -1.22978 -3.59973 0
M  V30 2903 H 274.922 -1.40337 -4.78651 0
M  V30 2904 H 274.076 0.592409 -6.03801 0
M  V30 2905 H 272.815 0.85777 -4.80097 0
M  V30 2906 H 271.82 -1.38791 -5.31994 0
M  V30 2907 H 273.045 -1.64193 -6.58952 0
M  V30 2908 H 270.991 0.601365 -6.53238 0
M  V30 2909 H 270.908 -0.82391 -7.51497 0
M  V30 2910 H 272.176 0.333527 -7.78786 0
M  V30 2911 N 276.405 1.4127 -0.698611 0
M  V30 2912 C 277.335 2.33447 -0.049629 0
M  V30 2913 C 278.316 1.51982 0.763898 0
M  V30 2914 O 279.501 1.80509 0.716257 0
M  V30 2915 C 276.631 3.35828 0.885267 0
M  V30 2916 C 275.585 4.27627 0.178613 0
M  V30 2917 C 274.911 5.20406 1.22807 0
M  V30 2918 C 276.211 5.13459 -0.956933 0
M  V30 2919 H 277.905 2.87966 -0.81951 0
M  V30 2920 H 275.451 1.38461 -0.395538 0
M  V30 2921 H 277.404 3.9924 1.34854 0
M  V30 2922 H 276.128 2.79666 1.68685 0
M  V30 2923 H 274.787 3.65643 -0.26466 0
M  V30 2924 H 274.435 4.60558 2.02226 0
M  V30 2925 H 274.135 5.82661 0.760239 0
M  V30 2926 H 275.659 5.86695 1.69179 0
M  V30 2927 H 277.073 5.70421 -0.573805 0
M  V30 2928 H 275.47 5.8467 -1.35205 0
M  V30 2929 H 276.54 4.50443 -1.79524 0
M  V30 2930 N 277.883 0.443576 1.51229 0
M  V30 2931 C 279.16 -0.181038 1.9476 0
M  V30 2932 C 279.54 -1.59523 1.38259 0
M  V30 2933 O 278.888 -2.2122 0.572198 0
M  V30 2934 C 279.098 -0.152422 3.48667 0
M  V30 2935 C 280.446 -0.354923 4.23114 0
M  V30 2936 O 281.47 -0.230257 3.55455 0
M  V30 2937 O 280.329 -0.603674 5.43156 0
M  V30 2938 H 277.423 -0.1266 0.817252 0
M  V30 2939 H 279.969 0.502004 1.62105 0
M  V30 2940 H 278.741 0.836022 3.82265 0
M  V30 2941 H 278.364 -0.878107 3.87782 0
M  V30 2942 N 279.361 -1.56624 0.175154 0
M  V30 2943 C 280.311 -2.14747 -0.766004 0
M  V30 2944 C 281.295 -1.08275 -1.19018 0
M  V30 2945 O 282.487 -1.34388 -1.15191 0
M  V30 2946 C 279.616 -2.79478 -1.99366 0
M  V30 2947 C 278.702 -3.93114 -1.5913 0
M  V30 2948 N 279.093 -4.97752 -0.89872 0
M  V30 2949 C 277.391 -4.04345 -1.88204 0
M  V30 2950 C 278.092 -5.77473 -0.700012 0
M  V30 2951 N 277.068 -5.29207 -1.24263 0
M  V30 2952 H 280.87 -2.93015 -0.22793 0
M  V30 2953 H 278.384 -1.6238 -0.0253843 0
M  V30 2954 H 280.381 -3.19498 -2.67818 0
M  V30 2955 H 279.041 -2.02692 -2.53665 0
M  V30 2956 H 280.052 -5.14903 -0.556347 0
M  V30 2957 H 276.729 -3.38667 -2.44153 0
M  V30 2958 H 278.119 -6.71728 -0.152047 0
M  V30 2959 N 280.839 0.0985539 -1.57292 0
M  V30 2960 C 282.085 0.803867 -1.86188 0
M  V30 2961 C 282.418 1.78549 -0.763794 0
M  V30 2962 O 281.693 1.93153 0.22855 0
M  V30 2963 C 281.976 1.53568 -3.25713 0
M  V30 2964 C 281.829 0.572277 -4.46145 0
M  V30 2965 C 283.148 2.48708 -3.63087 0
M  V30 2966 H 280.267 0.290781 -0.677211 0
M  V30 2967 H 282.909 0.0675783 -1.8988 0
M  V30 2968 H 281.059 2.16332 -3.22696 0
M  V30 2969 H 282.731 -0.0480894 -4.61275 0
M  V30 2970 H 280.974 -0.114618 -4.33649 0
M  V30 2971 H 281.645 1.12139 -5.40489 0
M  V30 2972 H 284.121 1.96039 -3.67026 0
M  V30 2973 H 282.997 2.96932 -4.61652 0
M  V30 2974 H 283.258 3.32309 -2.91588 0
M  V30 2975 N 282.317 1.53212 0.369288 0
M  V30 2976 C 283.563 1.70413 1.11046 0
M  V30 2977 C 283.918 0.448509 1.87099 0
M  V30 2978 O 283.211 -0.558382 1.83283 0
M  V30 2979 C 283.405 2.89101 2.10132 0
M  V30 2980 C 283.234 4.26084 1.43814 0
M  V30 2981 C 282.004 4.90994 1.19384 0
M  V30 2982 C 284.202 5.06754 0.877802 0
M  V30 2983 N 282.184 6.11911 0.49377 0
M  V30 2984 C 283.555 6.1924 0.306891 0
M  V30 2985 C 285.61 4.91814 0.776129 0
M  V30 2986 C 284.313 7.1842 -0.355774 0
M  V30 2987 C 286.339 5.91263 0.127252 0
M  V30 2988 C 285.701 7.03069 -0.432801 0
M  V30 2989 H 281.8 0.676872 0.391623 0
M  V30 2990 H 284.384 1.90603 0.397334 0
M  V30 2991 H 282.555 2.70456 2.78761 0
M  V30 2992 H 284.287 2.95142 2.76899 0
M  V30 2993 H 281.042 4.50074 1.47413 0
M  V30 2994 H 281.466 6.76813 0.159207 0
M  V30 2995 H 286.108 4.05564 1.19489 0
M  V30 2996 H 283.826 8.04264 -0.786499 0
M  V30 2997 H 287.412 5.81779 0.0495613 0
M  V30 2998 H 286.292 7.78702 -0.926958 0
M  V30 2999 N 283.795 -0.628877 1.44509 0
M  V30 3000 C 285.023 -1.41554 1.50897 0
M  V30 3001 C 285.438 -1.8832 0.134564 0
M  V30 3002 O 284.795 -1.60969 -0.859965 0
M  V30 3003 C 284.846 -2.63435 2.47556 0
M  V30 3004 O 284.567 -2.18619 3.79654 0
M  V30 3005 C 286.068 -3.56537 2.63431 0
M  V30 3006 H 283.288 -0.434044 0.511709 0
M  V30 3007 H 285.832 -0.768895 1.89495 0
M  V30 3008 H 283.987 -3.24187 2.12089 0
M  V30 3009 H 284.401 -2.97652 4.31861 0
M  V30 3010 H 285.875 -4.38657 3.35088 0
M  V30 3011 H 286.352 -4.05493 1.68738 0
M  V30 3012 H 286.958 -3.01653 2.9981 0
M  V30 3013 N 285.273 -1.31445 -0.869486 0
M  V30 3014 C 286.55 -1.11795 -1.60503 0
M  V30 3015 C 286.93 0.327168 -2.08549 0
M  V30 3016 O 286.278 1.32135 -1.8642 0
M  V30 3017 C 286.488 -2.13258 -2.76265 0
M  V30 3018 C 287.836 -2.45805 -3.46215 0
M  V30 3019 O 288.86 -2.11688 -2.86473 0
M  V30 3020 O 287.719 -3.04228 -4.5399 0
M  V30 3021 H 284.813 -0.430421 -0.706163 0
M  V30 3022 H 287.359 -1.42925 -0.914907 0
M  V30 3023 H 286.131 -3.10461 -2.3818 0
M  V30 3024 H 285.754 -1.83035 -3.52964 0
M  V30 3025 N 286.751 1.08385 -1.14413 0
M  V30 3026 C 287.979 1.84517 -0.936001 0
M  V30 3027 C 288.394 1.81626 0.515503 0
M  V30 3028 O 287.751 1.22008 1.35721 0
M  V30 3029 C 287.802 3.32049 -1.42918 0
M  V30 3030 O 287.523 3.34951 -2.82381 0
M  V30 3031 C 289.024 4.24986 -1.26103 0
M  V30 3032 H 286.244 0.582491 -0.333084 0
M  V30 3033 H 288.788 1.36885 -1.5193 0
M  V30 3034 H 286.943 3.7707 -0.888641 0
M  V30 3035 H 287.357 4.27048 -3.04517 0
M  V30 3036 H 288.831 5.26615 -1.6547 0
M  V30 3037 H 289.308 4.38726 -0.20392 0
M  V30 3038 H 289.914 3.85791 -1.79012 0
M  V30 3039 N 288.23 0.939286 1.26551 0
M  V30 3040 C 289.18 0.418284 2.2413 0
M  V30 3041 C 290.164 -0.483935 1.5345 0
M  V30 3042 O 291.356 -0.319489 1.74093 0
M  V30 3043 C 288.485 -0.31709 3.41832 0
M  V30 3044 C 287.571 0.602311 4.19801 0
M  V30 3045 N 287.962 1.72726 4.75394 0
M  V30 3046 C 286.26 0.407534 4.44134 0
M  V30 3047 C 286.961 2.30004 5.34297 0
M  V30 3048 N 285.937 1.58828 5.1988 0
M  V30 3049 H 289.739 1.27705 2.64705 0
M  V30 3050 H 287.253 0.794929 1.41614 0
M  V30 3051 H 289.25 -0.707364 4.10855 0
M  V30 3052 H 287.91 -1.17264 3.02786 0
M  V30 3053 H 288.921 2.10944 4.72994 0
M  V30 3054 H 285.598 -0.406406 4.15517 0
M  V30 3055 H 286.988 3.24778 5.88191 0
M  V30 3056 N 289.708 -1.40897 0.706093 0
M  V30 3057 C 290.938 -2.05075 0.250523 0
M  V30 3058 C 291.346 -1.53275 -1.10921 0
M  V30 3059 O 290.689 -0.680281 -1.7064 0
M  V30 3060 C 290.751 -3.59219 0.142178 0
M  V30 3061 C 290.415 -4.33864 1.43566 0
M  V30 3062 C 291.412 -4.62448 2.37566 0
M  V30 3063 C 289.097 -4.72946 1.69195 0
M  V30 3064 C 291.091 -5.29088 3.5545 0
M  V30 3065 C 288.778 -5.3932 2.87362 0
M  V30 3066 C 289.776 -5.6732 3.80312 0
M  V30 3067 O 289.464 -6.32325 4.96408 0
M  V30 3068 H 289.196 -0.666645 0.112074 0
M  V30 3069 H 291.75 -1.81467 0.962239 0
M  V30 3070 H 289.98 -3.81609 -0.6254 0
M  V30 3071 H 291.669 -4.0495 -0.277584 0
M  V30 3072 H 292.435 -4.32727 2.19027 0
M  V30 3073 H 288.314 -4.50527 0.977042 0
M  V30 3074 H 291.858 -5.50859 4.28018 0
M  V30 3075 H 287.755 -5.68461 3.05814 0
M  V30 3076 H 288.523 -6.50821 4.9636 0
M  V30 3077 N 291.186 -0.45159 -1.50991 0
M  V30 3078 C 292.432 0.110237 -2.025 0
M  V30 3079 C 292.765 1.41109 -1.33424 0
M  V30 3080 O 292.04 1.89135 -0.453659 0
M  V30 3081 C 292.323 0.314271 -3.58726 0
M  V30 3082 C 292.176 -1.00623 -4.38401 0
M  V30 3083 C 293.495 1.07767 -4.26702 0
M  V30 3084 H 290.614 0.0385897 -0.735989 0
M  V30 3085 H 293.256 -0.593374 -1.80497 0
M  V30 3086 H 291.406 0.913601 -3.77605 0
M  V30 3087 H 293.078 -1.64064 -4.31139 0
M  V30 3088 H 291.321 -1.6075 -4.02917 0
M  V30 3089 H 291.992 -0.817341 -5.45915 0
M  V30 3090 H 294.468 0.56986 -4.12179 0
M  V30 3091 H 293.344 1.18921 -5.35863 0
M  V30 3092 H 293.605 2.10939 -3.88532 0
M  V30 3093 N 292.664 1.56529 -0.183458 0
M  V30 3094 C 293.912 1.96855 0.457452 0
M  V30 3095 C 294.233 1.07104 1.62953 0
M  V30 3096 O 293.503 0.139887 1.954 0
M  V30 3097 H 292.083 0.72693 0.171992 0
M  V30 3098 H 294.745 1.93056 -0.267476 0
M  V30 3099 H 293.841 3.01423 0.809368 0
M  V30 3100 N 294.142 -0.090211 1.57342 0
M  V30 3101 C 295.072 -1.10976 2.05443 0
M  V30 3102 C 296.053 -1.41482 0.944284 0
M  V30 3103 O 297.238 -1.51428 1.21586 0
M  V30 3104 C 294.368 -2.42831 2.48295 0
M  V30 3105 C 293.322 -2.26721 3.63018 0
M  V30 3106 C 292.648 -3.63796 3.91863 0
M  V30 3107 C 293.948 -1.7037 4.93732 0
M  V30 3108 H 295.642 -0.709564 2.9087 0
M  V30 3109 H 293.188 -0.339874 1.39932 0
M  V30 3110 H 295.141 -3.14431 2.80555 0
M  V30 3111 H 293.865 -2.84795 1.59873 0
M  V30 3112 H 292.524 -1.57565 3.31012 0
M  V30 3113 H 292.172 -4.03297 3.00601 0
M  V30 3114 H 291.872 -3.53861 4.69101 0
M  V30 3115 H 293.396 -4.36855 4.26603 0
M  V30 3116 H 294.81 -2.31816 5.24342 0
M  V30 3117 H 293.207 -1.71181 5.75167 0
M  V30 3118 H 294.277 -0.663542 4.80339 0
M  V30 3119 N 295.62 -1.53406 -0.361157 0
M  V30 3120 C 296.552 -1.76446 -1.46286 0
M  V30 3121 C 297.565 -0.645322 -1.49464 0
M  V30 3122 O 298.754 -0.921681 -1.52864 0
M  V30 3123 C 295.854 -1.83332 -2.85031 0
M  V30 3124 C 295.027 -3.13033 -3.05498 0
M  V30 3125 C 294.086 -3.11104 -4.24383 0
M  V30 3126 O 293.112 -3.84888 -4.19344 0
M  V30 3127 N 294.314 -2.32234 -5.32022 0
M  V30 3128 H 297.079 -2.71508 -1.26899 0
M  V30 3129 H 294.64 -1.52238 -0.550915 0
M  V30 3130 H 296.632 -1.79514 -3.62708 0
M  V30 3131 H 295.202 -0.955342 -2.97644 0
M  V30 3132 H 294.422 -3.30119 -2.15442 0
M  V30 3133 H 295.71 -3.9874 -3.16044 0
M  V30 3134 H 295.108 -1.71807 -5.38979 0
M  V30 3135 H 293.665 -2.3423 -6.08259 0
M  V30 3136 N 297.098 0.621204 -1.44841 0
M  V30 3137 C 298.345 1.38055 -1.48145 0
M  V30 3138 C 298.673 1.94143 -0.117867 0
M  V30 3139 O 297.928 1.74713 0.881694 0
M  V30 3140 C 298.227 2.55675 -2.4973 0
M  V30 3141 C 297.893 2.17817 -3.94799 0
M  V30 3142 C 296.555 2.07205 -4.34303 0
M  V30 3143 C 298.907 1.88065 -4.86087 0
M  V30 3144 C 296.235 1.65045 -5.63007 0
M  V30 3145 C 298.587 1.47394 -6.15189 0
M  V30 3146 C 297.251 1.35331 -6.53637 0
M  V30 3147 H 296.521 0.505181 -0.542101 0
M  V30 3148 H 299.168 0.703477 -1.78111 0
M  V30 3149 H 297.473 3.2866 -2.13284 0
M  V30 3150 H 299.17 3.13904 -2.4953 0
M  V30 3151 H 295.76 2.26998 -3.63552 0
M  V30 3152 H 299.944 1.95168 -4.56315 0
M  V30 3153 H 295.2 1.54317 -5.91605 0
M  V30 3154 H 299.374 1.23415 -6.85377 0
M  V30 3155 H 297.001 1.02435 -7.53267 0
M  V30 3156 N 298.576 1.31904 0.862503 0
M  V30 3157 C 299.987 1.19803 1.43193 0
M  V30 3158 C 300.338 -0.192567 1.95253 0
M  V30 3159 O 299.463 -1.09081 1.86896 0
M  V30 3160 C 300.058 2.16883 2.60283 0
M  V30 3161 C 298.617 2.08692 3.13248 0
M  V30 3162 C 297.764 2.05691 1.85975 0
M  V30 3163 H 300.715 1.43846 0.670365 0
M  V30 3164 H 300.736 1.76278 3.37204 0
M  V30 3165 H 300.248 3.18083 2.22363 0
M  V30 3166 H 298.349 1.10713 3.55771 0
M  V30 3167 H 298.462 2.9815 3.75025 0
M  V30 3168 H 296.826 1.50814 2.05249 0
M  V30 3169 H 297.609 3.08659 1.50282 0
M  V30 3170 N 300.054 -1.07777 1.14986 0
M  V30 3171 C 301.331 -1.7699 0.832695 0
M  V30 3172 C 301.711 -2.001 -0.672561 0
M  V30 3173 O 301.059 -1.61598 -1.6155 0
M  V30 3174 C 301.269 -3.08139 1.63863 0
M  V30 3175 C 302.617 -3.8256 1.84208 0
M  V30 3176 O 303.641 -3.17939 1.60603 0
M  V30 3177 O 302.5 -4.98612 2.23714 0
M  V30 3178 H 299.594 -0.768389 0.305791 0
M  V30 3179 H 302.14 -1.14182 1.25541 0
M  V30 3180 H 300.912 -2.86909 2.6608 0
M  V30 3181 H 300.535 -3.78678 1.21197 0
M  V30 3182 N 301.532 -0.945985 -1.26051 0
M  V30 3183 C 302.943 -0.638096 -1.75457 0
M  V30 3184 C 303.294 0.846672 -1.76991 0
M  V30 3185 O 302.419 1.66262 -1.38513 0
M  V30 3186 C 303.014 -1.15157 -3.18629 0
M  V30 3187 C 301.573 -0.894004 -3.65629 0
M  V30 3188 C 300.72 -1.29967 -2.44957 0
M  V30 3189 H 303.671 -1.12376 -1.1206 0
M  V30 3190 H 303.692 -0.507615 -3.77099 0
M  V30 3191 H 303.204 -2.23222 -3.1748 0
M  V30 3192 H 301.305 0.172057 -3.72203 0
M  V30 3193 H 301.418 -1.52439 -4.54202 0
M  V30 3194 H 299.782 -0.718078 -2.44368 0
M  V30 3195 H 300.565 -2.38935 -2.46505 0
M  V30 3196 N 303.011 1.40521 -0.713556 0
M  V30 3197 C 303.974 2.29098 -0.0684347 0
M  V30 3198 C 304.974 1.45268 0.689472 0
M  V30 3199 O 306.164 1.66205 0.521677 0
M  V30 3200 C 303.296 3.28446 0.913024 0
M  V30 3201 H 304.489 2.87645 -0.84855 0
M  V30 3202 H 302.042 1.48809 -0.47809 0
M  V30 3203 H 302.777 2.74913 1.72027 0
M  V30 3204 H 302.562 3.90327 0.372472 0
M  V30 3205 H 304.052 3.94777 1.36165 0
M  V30 3206 N 304.489 0.459591 1.5075 0
M  V30 3207 C 305.439 -0.358926 2.25157 0
M  V30 3208 C 306.423 -0.971285 1.28276 0
M  V30 3209 O 307.615 -0.885739 1.53244 0
M  V30 3210 C 304.744 -1.44695 3.11317 0
M  V30 3211 C 303.83 -0.842894 4.15639 0
M  V30 3212 N 304.221 0.0299373 5.05791 0
M  V30 3213 C 302.519 -1.10809 4.32015 0
M  V30 3214 C 303.22 0.371563 5.80512 0
M  V30 3215 N 302.196 -0.250409 5.43023 0
M  V30 3216 H 305.998 0.313636 2.92222 0
M  V30 3217 H 303.512 0.273021 1.60089 0
M  V30 3218 H 305.509 -2.04641 3.63218 0
M  V30 3219 H 304.169 -2.12162 2.45799 0
M  V30 3220 H 305.18 0.39797 5.16369 0
M  V30 3221 H 301.857 -1.7786 3.77719 0
M  V30 3222 H 303.247 1.08319 6.63111 0
M  V30 3223 N 305.967 -1.56429 0.191757 0
M  V30 3224 C 307.378 -1.83912 -0.321428 0
M  V30 3225 C 307.729 -1.11231 -1.61623 0
M  V30 3226 O 306.854 -0.37202 -2.13178 0
M  V30 3227 C 307.449 -3.33624 -0.589961 0
M  V30 3228 C 306.008 -3.6153 -1.04753 0
M  V30 3229 C 305.155 -2.7714 -0.0943327 0
M  V30 3230 H 308.106 -1.53161 0.415612 0
M  V30 3231 H 308.127 -3.52213 -1.43966 0
M  V30 3232 H 307.639 -3.86495 0.352588 0
M  V30 3233 H 305.74 -3.14089 -2.00447 0
M  V30 3234 H 305.853 -4.69737 -0.942549 0
M  V30 3235 H 304.217 -2.47638 -0.595589 0
M  V30 3236 H 305 -3.32799 0.842601 0
M  V30 3237 N 307.445 0.0818655 -1.57387 0
M  V30 3238 C 308.393 1.11712 -2.04018 0
M  V30 3239 C 309.387 1.40683 -0.94364 0
M  V30 3240 O 310.593 1.40209 -1.12878 0
M  V30 3241 H 306.968 0.377542 -0.650358 0
M  V30 3242 H 308.939 0.697614 -2.90131 0
M  V30 3243 C 307.688 2.42537 -2.49141 0
M  V30 3244 H 307.011 2.21092 -3.33104 0
M  V30 3245 H 308.451 3.13446 -2.85531 0
M  V30 3246 C 306.91 3.0778 -1.37014 0
M  V30 3247 O 307.44 3.95436 -0.706621 0
M  V30 3248 N 305.646 2.68242 -1.11779 0
M  V30 3249 H 305.193 1.97052 -1.65917 0
M  V30 3250 H 305.151 3.1222 -0.369594 0
M  V30 3251 N 308.923 1.53595 0.353017 0
M  V30 3252 C 310.151 1.74311 1.1146 0
M  V30 3253 C 310.566 0.477854 1.82653 0
M  V30 3254 O 309.923 -0.549977 1.74016 0
M  V30 3255 C 309.974 2.91694 2.13534 0
M  V30 3256 O 309.695 4.13325 1.45238 0
M  V30 3257 C 311.196 3.24384 3.02142 0
M  V30 3258 H 308.416 0.582669 0.332773 0
M  V30 3259 H 310.96 2.00386 0.408107 0
M  V30 3260 H 309.115 2.67977 2.79763 0
M  V30 3261 H 309.529 4.79148 2.13349 0
M  V30 3262 H 311.003 4.09893 3.69718 0
M  V30 3263 H 311.48 2.40282 3.67643 0
M  V30 3264 H 312.086 3.50073 2.41514 0
M  V30 3265 N 310.401 -0.613514 1.45168 0
M  V30 3266 C 311.331 -1.7354 1.56225 0
M  V30 3267 C 312.312 -1.64981 0.41414 0
M  V30 3268 O 313.497 -1.83472 0.636526 0
M  V30 3269 C 310.627 -3.12128 1.52295 0
M  V30 3270 C 309.581 -3.35491 2.65762 0
M  V30 3271 C 308.907 -4.74291 2.46885 0
M  V30 3272 C 310.207 -3.26325 4.0781 0
M  V30 3273 H 311.901 -1.64543 2.50132 0
M  V30 3274 H 309.447 -0.790185 1.20383 0
M  V30 3275 H 311.4 -3.90404 1.58628 0
M  V30 3276 H 310.124 -3.2195 0.549139 0
M  V30 3277 H 308.783 -2.59603 2.58847 0
M  V30 3278 H 308.431 -4.80839 1.47657 0
M  V30 3279 H 308.131 -4.9088 3.22972 0
M  V30 3280 H 309.655 -5.54775 2.55063 0
M  V30 3281 H 311.069 -3.94483 4.16 0
M  V30 3282 H 309.466 -3.54445 4.8424 0
M  V30 3283 H 310.536 -2.23855 4.30136 0
M  V30 3284 N 311.879 -1.3236 -0.855495 0
M  V30 3285 C 312.829 -1.17809 -1.95205 0
M  V30 3286 C 313.813 -0.0852319 -1.60674 0
M  V30 3287 O 315.005 -0.311651 -1.74235 0
M  V30 3288 C 312.134 -0.902437 -3.31226 0
M  V30 3289 C 311.22 -2.03695 -3.7198 0
M  V30 3290 N 311.611 -3.28544 -3.84568 0
M  V30 3291 C 309.909 -1.93993 -4.016 0
M  V30 3292 C 310.61 -4.02847 -4.19629 0
M  V30 3293 N 309.586 -3.31138 -4.31102 0
M  V30 3294 H 313.388 -2.12462 -2.0307 0
M  V30 3295 H 310.902 -1.24127 -1.0472 0
M  V30 3296 H 312.899 -0.77915 -4.09554 0
M  V30 3297 H 311.559 0.0357267 -3.2468 0
M  V30 3298 H 312.57 -3.6349 -3.68911 0
M  V30 3299 H 309.247 -1.07733 -4.03361 0
M  V30 3300 H 310.637 -5.10506 -4.36845 0
M  V30 3301 N 313.357 1.07166 -1.15556 0
M  V30 3302 C 314.603 1.80222 -0.942961 0
M  V30 3303 C 314.958 1.85121 0.524209 0
M  V30 3304 O 314.251 1.32531 1.38369 0
M  V30 3305 C 314.445 3.24707 -1.49332 0
M  V30 3306 C 314.274 3.33887 -3.01247 0
M  V30 3307 C 313.044 3.44337 -3.69811 0
M  V30 3308 C 315.242 3.24484 -3.99017 0
M  V30 3309 N 313.224 3.42439 -5.09518 0
M  V30 3310 C 314.595 3.29726 -5.25053 0
M  V30 3311 C 316.65 3.08307 -3.90962 0
M  V30 3312 C 315.353 3.20455 -6.43973 0
M  V30 3313 C 317.379 3.00371 -5.09442 0
M  V30 3314 C 316.741 3.06227 -6.34354 0
M  V30 3315 H 312.84 0.672709 -0.398731 0
M  V30 3316 H 315.424 1.27905 -1.46794 0
M  V30 3317 H 313.595 3.7544 -0.994946 0
M  V30 3318 H 315.327 3.85894 -1.21935 0
M  V30 3319 H 312.082 3.48762 -3.20409 0
M  V30 3320 H 312.506 3.45013 -5.8249 0
M  V30 3321 H 317.148 3.02633 -2.95251 0
M  V30 3322 H 314.866 3.24888 -7.39914 0
M  V30 3323 H 318.452 2.88955 -5.04971 0
M  V30 3324 H 317.332 3.00132 -7.24493 0
M  V30 3325 N 314.835 0.952656 1.25548 0
M  V30 3326 C 316.081 0.607272 1.93494 0
M  V30 3327 C 316.414 -0.853245 1.74452 0
M  V30 3328 O 315.689 -1.61194 1.08843 0
M  V30 3329 C 315.972 0.96435 3.46947 0
M  V30 3330 C 315.825 2.48045 3.75225 0
M  V30 3331 C 317.144 0.487987 4.37386 0
M  V30 3332 H 314.263 0.222096 0.702739 0
M  V30 3333 H 316.905 1.18895 1.48203 0
M  V30 3334 H 315.055 0.469361 3.85654 0
M  V30 3335 H 316.727 3.04905 3.46166 0
M  V30 3336 H 314.97 2.919 3.209 0
M  V30 3337 H 315.641 2.6808 4.82532 0
M  V30 3338 H 318.117 0.912558 4.0597 0
M  V30 3339 H 316.993 0.766547 5.43521 0
M  V30 3340 H 317.254 -0.612063 4.37843 0
M  V30 3341 N 316.313 -1.40141 0.720998 0
M  V30 3342 C 317.59 -1.94677 0.189757 0
M  V30 3343 C 317.97 -1.65879 -1.30566 0
M  V30 3344 O 317.318 -0.979391 -2.06447 0
M  V30 3345 C 317.528 -3.45279 0.508304 0
M  V30 3346 C 318.876 -4.22209 0.449934 0
M  V30 3347 O 319.9 -3.53413 0.444677 0
M  V30 3348 O 318.759 -5.44788 0.432189 0
M  V30 3349 H 315.853 -0.826459 0.0299026 0
M  V30 3350 H 318.399 -1.49719 0.7989 0
M  V30 3351 H 317.171 -3.59619 1.54239 0
M  V30 3352 H 316.794 -3.97386 -0.130525 0
M  V30 3353 N 317.792 -0.46758 -1.50504 0
M  V30 3354 C 318.702 0.33382 -2.32213 0
M  V30 3355 C 319.718 0.999323 -1.42441 0
M  V30 3356 O 320.894 0.988068 -1.75497 0
M  V30 3357 C 317.959 1.4035 -3.17022 0
M  V30 3358 C 317.02 0.754961 -4.2261 0
M  V30 3359 C 316.253 1.77367 -5.03365 0
M  V30 3360 O 316.476 2.99976 -4.8515 0
M  V30 3361 O 315.41 1.34744 -5.86624 0
M  V30 3362 H 319.236 -0.334067 -3.01857 0
M  V30 3363 H 316.821 -0.229496 -1.47627 0
M  V30 3364 H 318.703 2.02318 -3.69656 0
M  V30 3365 H 317.378 2.05492 -2.5011 0
M  V30 3366 H 316.285 0.0964244 -3.73976 0
M  V30 3367 H 317.618 0.146545 -4.91982 0
M  V30 3368 N 319.27 1.56325 -0.20005 0
M  V30 3369 C 320.233 2.18084 0.705132 0
M  V30 3370 C 321.233 1.13666 1.1374 0
M  V30 3371 O 322.423 1.39023 1.04968 0
M  V30 3372 C 319.555 2.78689 1.96329 0
M  V30 3373 H 320.748 2.99435 0.167023 0
M  V30 3374 H 318.301 1.56221 0.0495725 0
M  V30 3375 H 319.036 2.0115 2.5438 0
M  V30 3376 H 318.821 3.55133 1.66202 0
M  V30 3377 H 320.311 3.26096 2.60866 0
M  V30 3378 N 320.748 -0.0735177 1.57428 0
M  V30 3379 C 321.996 -0.771472 1.86796 0
M  V30 3380 C 322.317 -1.78201 0.791804 0
M  V30 3381 O 321.587 -1.95074 -0.179718 0
M  V30 3382 H 320.167 -0.28791 0.689287 0
M  V30 3383 H 322.829 -0.0500161 1.94836 0
M  V30 3384 H 321.925 -1.28874 2.8425 0
M  V30 3385 N 322.226 -1.5378 -0.344866 0
M  V30 3386 C 323.173 -1.81676 -1.42346 0
M  V30 3387 C 324.143 -0.662376 -1.52321 0
M  V30 3388 O 325.328 -0.906675 -1.67881 0
M  V30 3389 C 322.468 -2.03087 -2.79015 0
M  V30 3390 C 321.581 -3.30799 -2.77842 0
M  V30 3391 C 320.716 -3.42285 -4.0622 0
M  V30 3392 C 319.755 -4.6395 -3.9927 0
M  V30 3393 N 318.892 -4.72477 -5.19336 0
M  V30 3394 H 323.732 -2.73703 -1.17858 0
M  V30 3395 H 321.269 -1.35568 -0.570949 0
M  V30 3396 H 323.227 -2.1349 -3.58438 0
M  V30 3397 H 321.857 -1.14375 -3.01858 0
M  V30 3398 H 320.909 -3.29244 -1.90533 0
M  V30 3399 H 322.221 -4.20314 -2.68584 0
M  V30 3400 H 321.375 -3.52113 -4.94066 0
M  V30 3401 H 320.114 -2.50823 -4.18258 0
M  V30 3402 H 319.119 -4.54201 -3.09809 0
M  V30 3403 H 320.344 -5.56775 -3.88817 0
M  V30 3404 H 318.29 -3.83924 -5.3192 0
M  V30 3405 H 318.207 -5.55927 -5.12329 0
M  V30 3406 H 319.475 -4.86613 -6.08957 0
M  V30 3407 N 323.704 0.605807 -1.45491 0
M  V30 3408 C 324.95 1.36679 -1.49823 0
M  V30 3409 C 325.283 1.93693 -0.140175 0
M  V30 3410 O 324.558 1.75158 0.845581 0
M  V30 3411 C 324.841 2.51337 -2.57879 0
M  V30 3412 C 324.694 1.99508 -4.03134 0
M  V30 3413 C 326.013 3.53463 -2.62205 0
M  V30 3414 H 323.132 0.495617 -0.545466 0
M  V30 3415 H 325.774 0.682732 -1.7731 0
M  V30 3416 H 323.924 3.09691 -2.34571 0
M  V30 3417 H 325.596 1.45789 -4.37656 0
M  V30 3418 H 323.839 1.30496 -4.13707 0
M  V30 3419 H 324.51 2.82169 -4.74431 0
M  V30 3420 H 326.986 3.04953 -2.83095 0
M  V30 3421 H 325.862 4.31178 -3.39672 0
M  V30 3422 H 326.123 4.09197 -1.67363 0
M  V30 3423 N 325.182 1.32811 0.848464 0
M  V30 3424 C 326.43 1.23479 1.59991 0
M  V30 3425 C 326.751 -0.201853 1.93952 0
M  V30 3426 O 326.021 -1.12818 1.60153 0
M  V30 3427 H 324.601 0.454034 0.593179 0
M  V30 3428 H 327.263 1.66412 1.01455 0
M  V30 3429 H 326.359 1.82178 2.53412 0
M  V30 3430 N 326.66 -1.06551 1.16123 0
M  V30 3431 C 327.57 -2.17484 0.879662 0
M  V30 3432 C 328.586 -1.73377 -0.147104 0
M  V30 3433 O 329.762 -2.01379 0.0289128 0
M  V30 3434 C 326.827 -3.44591 0.381829 0
M  V30 3435 C 325.888 -4.0322 1.4735 0
M  V30 3436 C 325.121 -5.24261 0.999324 0
M  V30 3437 O 325.344 -5.70198 -0.151957 0
M  V30 3438 O 324.278 -5.74775 1.78653 0
M  V30 3439 H 328.104 -2.44075 1.80724 0
M  V30 3440 H 325.689 -1.16042 0.940992 0
M  V30 3441 H 327.571 -4.21254 0.111053 0
M  V30 3442 H 326.246 -3.19532 -0.51777 0
M  V30 3443 H 325.153 -3.2806 1.79798 0
M  V30 3444 H 326.486 -4.32568 2.34831 0
M  V30 3445 N 328.138 -0.959301 -1.25041 0
M  V30 3446 C 329.07 -0.440543 -2.24926 0
M  V30 3447 C 330.083 0.446131 -1.56568 0
M  V30 3448 O 331.272 0.253657 -1.76689 0
M  V30 3449 C 328.372 0.38412 -3.36716 0
M  V30 3450 C 327.545 -0.490658 -4.34639 0
M  V30 3451 C 326.604 0.276587 -5.25473 0
M  V30 3452 O 325.63 -0.326614 -5.68262 0
M  V30 3453 N 326.832 1.56844 -5.5891 0
M  V30 3454 H 329.597 -1.29931 -2.70071 0
M  V30 3455 H 327.158 -0.830181 -1.38995 0
M  V30 3456 H 329.15 0.905228 -3.94446 0
M  V30 3457 H 327.72 1.14377 -2.90924 0
M  V30 3458 H 326.94 -1.19282 -3.7572 0
M  V30 3459 H 328.228 -1.08756 -4.97041 0
M  V30 3460 H 327.626 2.08036 -5.26059 0
M  V30 3461 H 326.183 2.03541 -6.19205 0
M  V30 3462 N 329.616 1.39756 -0.72842 0
M  V30 3463 C 330.546 2.33289 -0.0991354 0
M  V30 3464 C 331.527 1.53568 0.731489 0
M  V30 3465 O 332.712 1.81987 0.677807 0
M  V30 3466 C 329.842 3.3763 0.813834 0
M  V30 3467 C 328.796 4.2791 0.0878663 0
M  V30 3468 C 328.122 5.22894 1.11741 0
M  V30 3469 C 329.422 5.11314 -1.06563 0
M  V30 3470 H 331.116 2.86163 -0.880408 0
M  V30 3471 H 328.662 1.37591 -0.424819 0
M  V30 3472 H 330.615 4.0201 1.26355 0
M  V30 3473 H 329.339 2.83181 1.62715 0
M  V30 3474 H 327.998 3.65 -0.342159 0
M  V30 3475 H 327.646 4.64744 1.92412 0
M  V30 3476 H 327.346 5.84143 0.636477 0
M  V30 3477 H 328.87 5.90151 1.56697 0
M  V30 3478 H 330.284 5.69076 -0.694671 0
M  V30 3479 H 328.681 5.81671 -1.47577 0
M  V30 3480 H 329.751 4.46534 -1.89038 0
M  V30 3481 N 331.094 0.475555 1.50254 0
M  V30 3482 C 332.505 0.0215174 1.86688 0
M  V30 3483 C 332.856 -1.38467 1.39001 0
M  V30 3484 O 331.981 -2.02732 0.756894 0
M  V30 3485 C 332.576 0.0322715 3.38785 0
M  V30 3486 C 331.135 -0.366314 3.74613 0
M  V30 3487 C 330.282 0.415832 2.74164 0
M  V30 3488 H 333.233 0.689612 1.42934 0
M  V30 3489 H 333.254 -0.76889 3.7265 0
M  V30 3490 H 332.766 1.05584 3.73462 0
M  V30 3491 H 330.867 -1.39406 3.45538 0
M  V30 3492 H 330.98 -0.064555 4.79057 0
M  V30 3493 H 329.344 -0.131048 2.54363 0
M  V30 3494 H 330.127 1.43899 3.11686 0
M  V30 3495 N 332.573 -1.56217 0.208337 0
M  V30 3496 C 333.503 -2.22694 -0.702116 0
M  V30 3497 C 334.484 -1.19432 -1.2112 0
M  V30 3498 O 335.669 -1.47978 -1.25762 0
M  V30 3499 C 332.799 -2.8966 -1.9161 0
M  V30 3500 C 331.753 -3.9928 -1.5414 0
M  V30 3501 C 331.079 -4.53476 -2.83308 0
M  V30 3502 C 332.379 -5.17012 -0.741339 0
M  V30 3503 H 334.073 -2.99034 -0.147898 0
M  V30 3504 H 331.619 -1.43831 -0.0696951 0
M  V30 3505 H 333.572 -3.34852 -2.55836 0
M  V30 3506 H 332.296 -2.10746 -2.49507 0
M  V30 3507 H 330.955 -3.54799 -0.922668 0
M  V30 3508 H 330.603 -3.71308 -3.39322 0
M  V30 3509 H 330.303 -5.27451 -2.58976 0
M  V30 3510 H 331.827 -5.01378 -3.485 0
M  V30 3511 H 333.241 -5.58667 -1.28699 0
M  V30 3512 H 331.638 -5.97137 -0.595627 0
M  V30 3513 H 332.708 -4.8423 0.254851 0
M  V30 3514 N 334.051 0.0651679 -1.57465 0
M  V30 3515 C 334.961 1.09448 -2.07505 0
M  V30 3516 C 335.977 1.41974 -1.00595 0
M  V30 3517 O 337.153 1.52018 -1.32107 0
M  V30 3518 C 334.218 2.38689 -2.51453 0
M  V30 3519 C 333.279 2.13073 -3.72691 0
M  V30 3520 C 332.512 3.36152 -4.14533 0
M  V30 3521 O 332.735 4.45517 -3.56189 0
M  V30 3522 O 331.669 3.23974 -5.07272 0
M  V30 3523 H 335.495 0.69935 -2.95538 0
M  V30 3524 H 333.08 0.279752 -1.46757 0
M  V30 3525 H 334.962 3.14736 -2.80212 0
M  V30 3526 H 333.637 2.77568 -1.66546 0
M  V30 3527 H 332.544 1.34709 -3.49005 0
M  V30 3528 H 333.877 1.79071 -4.5847 0
M  V30 3529 N 335.529 1.53961 0.336706 0
M  V30 3530 C 336.806 1.62171 1.09361 0
M  V30 3531 C 337.186 0.447263 2.06307 0
M  V30 3532 O 336.534 -0.559802 2.21537 0
M  V30 3533 C 336.744 2.98565 1.80721 0
M  V30 3534 C 338.092 3.54157 2.34218 0
M  V30 3535 O 339.116 3.00784 1.90807 0
M  V30 3536 O 337.975 4.47528 3.13657 0
M  V30 3537 H 335.069 0.6562 0.503319 0
M  V30 3538 H 337.615 1.66307 0.33765 0
M  V30 3539 H 336.387 3.75482 1.10132 0
M  V30 3540 H 336.01 2.9805 2.63158 0
M  V30 3541 N 337.007 -0.598083 1.45811 0
M  V30 3542 C 338.418 -1.18011 1.44673 0
M  V30 3543 C 338.769 -1.95378 0.179364 0
M  V30 3544 O 337.894 -2.04124 -0.718509 0
M  V30 3545 C 338.489 -2.14677 2.62105 0
M  V30 3546 C 337.048 -2.68236 2.64057 0
M  V30 3547 C 336.195 -1.43816 2.37091 0
M  V30 3548 H 339.146 -0.38686 1.53913 0
M  V30 3549 H 339.167 -2.97878 2.36746 0
M  V30 3550 H 338.679 -1.5834 3.5433 0
M  V30 3551 H 336.78 -3.28486 1.75864 0
M  V30 3552 H 336.893 -3.12021 3.63566 0
M  V30 3553 H 335.257 -1.731 1.86838 0
M  V30 3554 H 336.04 -0.893333 3.31473 0
M  V30 3555 N 338.485 -1.33259 -0.841409 0
M  V30 3556 C 339.762 -1.15174 -1.58096 0
M  V30 3557 C 340.142 0.282858 -2.09196 0
M  V30 3558 O 339.49 1.28151 -1.89181 0
M  V30 3559 C 339.7 -2.1907 -2.71679 0
M  V30 3560 C 341.048 -2.53093 -3.40924 0
M  V30 3561 O 342.072 -2.17717 -2.81918 0
M  V30 3562 O 340.931 -3.1379 -4.47435 0
M  V30 3563 H 338.025 -0.445303 -0.696875 0
M  V30 3564 H 340.571 -1.44833 -0.884385 0
M  V30 3565 H 339.343 -3.15443 -2.31541 0
M  V30 3566 H 338.966 -1.90481 -3.49002 0
M  V30 3567 N 339.963 1.05934 -1.16686 0
M  V30 3568 C 341.209 1.79065 -0.95203 0
M  V30 3569 C 341.542 1.87147 0.518629 0
M  V30 3570 O 340.817 1.36574 1.38484 0
M  V30 3571 C 341.1 3.23359 -1.58464 0
M  V30 3572 C 340.953 3.23336 -3.12689 0
M  V30 3573 C 342.272 4.21004 -1.28232 0
M  V30 3574 H 339.391 0.65005 -0.34728 0
M  V30 3575 H 342.033 1.23868 -1.44072 0
M  V30 3576 H 340.183 3.70493 -1.16908 0
M  V30 3577 H 341.855 2.84336 -3.6325 0
M  V30 3578 H 340.098 2.61886 -3.4583 0
M  V30 3579 H 340.769 4.25144 -3.52075 0
M  V30 3580 H 343.245 3.8233 -1.64203 0
M  V30 3581 H 342.121 5.20225 -1.75092 0
M  V30 3582 H 342.382 4.41639 -0.201791 0
M  V30 3583 N 341.441 0.965919 1.2453 0
M  V30 3584 C 342.671 0.643451 1.96324 0
M  V30 3585 C 343.079 -0.790927 1.71875 0
M  V30 3586 O 342.422 -1.54208 0.998273 0
M  V30 3587 C 342.484 0.836078 3.49643 0
M  V30 3588 C 342.148 2.24975 3.97788 0
M  V30 3589 C 343.145 3.22735 4.07601 0
M  V30 3590 C 340.83 2.57697 4.31158 0
M  V30 3591 C 342.824 4.51303 4.50116 0
M  V30 3592 C 340.511 3.86492 4.73357 0
M  V30 3593 C 341.509 4.83107 4.828 0
M  V30 3594 O 341.197 6.09605 5.24058 0
M  V30 3595 H 340.929 0.239223 0.632257 0
M  V30 3596 H 343.483 1.29587 1.59362 0
M  V30 3597 H 341.713 0.12649 3.86493 0
M  V30 3598 H 343.402 0.512965 4.02646 0
M  V30 3599 H 344.168 2.98783 3.82039 0
M  V30 3600 H 340.047 1.83216 4.23028 0
M  V30 3601 H 343.591 5.26716 4.57401 0
M  V30 3602 H 339.488 4.10245 4.98366 0
M  V30 3603 H 340.256 6.13146 5.42213 0
M  V30 3604 N 342.919 -1.39368 0.735821 0
M  V30 3605 C 344.159 -2.02349 0.288813 0
M  V30 3606 C 344.523 -1.57127 -1.10341 0
M  V30 3607 O 345.724 -2.12312 -1.64854 0
M  V30 3608 C 343.995 -3.55288 0.387986 0
M  V30 3609 S 345.554 -4.38795 0.0209408 0
M  V30 3610 H 342.372 -0.701944 0.113115 0
M  V30 3611 H 344.974 -1.70164 0.962518 0
M  V30 3612 H 343.678 -3.85691 1.40252 0
M  V30 3613 H 343.209 -3.92227 -0.303512 0
M  V30 3614 H 345.224 -4.81595 -1.19503 0
M  V30 3615 N 344.397 -0.483516 -1.5 0
M  V30 3616 C 345.808 -0.0314176 -1.86674 0
M  V30 3617 C 346.159 1.37728 -1.39733 0
M  V30 3618 O 345.284 2.02327 -0.767635 0
M  V30 3619 C 345.879 -0.0502376 -3.38763 0
M  V30 3620 C 344.438 0.346442 -3.74802 0
M  V30 3621 C 343.585 -0.430366 -2.7394 0
M  V30 3622 H 346.536 -0.697182 -1.42566 0
M  V30 3623 H 346.557 0.749116 -3.73053 0
M  V30 3624 H 346.069 -1.07563 -3.72897 0
M  V30 3625 H 344.17 1.37572 -3.46273 0
M  V30 3626 H 344.283 0.0391486 -4.79084 0
M  V30 3627 H 342.647 0.117557 -2.54429 0
M  V30 3628 H 343.43 -1.4555 -3.10918 0
M  V30 3629 N 345.875 1.56104 -0.216619 0
M  V30 3630 C 347.105 2.02269 0.420802 0
M  V30 3631 C 347.513 1.09575 1.5424 0
M  V30 3632 O 346.856 0.0967308 1.83445 0
M  V30 3633 C 346.918 3.44784 1.01806 0
M  V30 3634 C 346.582 4.56988 0.0325154 0
M  V30 3635 C 347.579 5.14225 -0.766055 0
M  V30 3636 C 345.264 5.02228 -0.0848092 0
M  V30 3637 C 347.258 6.15169 -1.6687 0
M  V30 3638 C 344.945 6.03011 -0.990994 0
M  V30 3639 C 345.943 6.59357 -1.78149 0
M  V30 3640 O 345.631 7.58179 -2.67245 0
M  V30 3641 H 345.363 0.667353 0.107776 0
M  V30 3642 H 347.917 2.02747 -0.329034 0
M  V30 3643 H 346.147 3.41359 1.81689 0
M  V30 3644 H 347.836 3.74626 1.56237 0
M  V30 3645 H 348.602 4.80126 -0.685836 0
M  V30 3646 H 344.481 4.58054 0.520349 0
M  V30 3647 H 348.025 6.59076 -2.28615 0
M  V30 3648 H 343.922 6.36532 -1.07225 0
M  V30 3649 H 344.69 7.75682 -2.61265 0
M  V30 3650 N 347.353 -0.0568162 1.57498 0
M  V30 3651 C 348.578 -0.769402 1.92601 0
M  V30 3652 C 349.003 -1.69559 0.814336 0
M  V30 3653 O 348.361 -1.79811 -0.231903 0
M  V30 3654 C 348.409 -1.52634 3.26704 0
M  V30 3655 O 347.513 -2.63797 3.16994 0
M  V30 3656 H 346.854 -0.208909 0.63028 0
M  V30 3657 H 349.384 -0.0205798 2.0459 0
M  V30 3658 H 349.394 -1.90234 3.60936 0
M  V30 3659 H 348.069 -0.846875 4.07186 0
M  V30 3660 H 346.646 -2.28943 2.94346 0
M  V30 3661 N 348.832 -1.54138 -0.328536 0
M  V30 3662 C 349.795 -1.82462 -1.38709 0
M  V30 3663 C 350.795 -0.696229 -1.44946 0
M  V30 3664 O 351.985 -0.964535 -1.4506 0
M  V30 3665 C 349.117 -1.98018 -2.77492 0
M  V30 3666 H 350.31 -2.77037 -1.14851 0
M  V30 3667 H 347.863 -1.45779 -0.563751 0
M  V30 3668 H 348.598 -1.05637 -3.06613 0
M  V30 3669 H 348.383 -2.80124 -2.74359 0
M  V30 3670 H 349.873 -2.21396 -3.54081 0
M  V30 3671 N 350.31 0.590341 -1.46126 0
M  V30 3672 C 351.559 1.34499 -1.50309 0
M  V30 3673 C 351.872 1.94977 -0.156021 0
M  V30 3674 O 353.078 2.71395 -0.0756037 0
M  V30 3675 C 351.534 2.43723 -2.64815 0
M  V30 3676 C 351.142 1.89582 -4.0591 0
M  V30 3677 C 352.886 3.20579 -2.78262 0
M  V30 3678 C 350.793 2.9639 -5.11769 0
M  V30 3679 H 349.723 0.505593 -0.559368 0
M  V30 3680 H 352.374 0.630848 -1.72315 0
M  V30 3681 H 350.756 3.17902 -2.36124 0
M  V30 3682 H 351.93 1.21997 -4.44357 0
M  V30 3683 H 350.245 1.25418 -3.97063 0
M  V30 3684 H 352.842 4.00276 -3.54519 0
M  V30 3685 H 353.185 3.72684 -1.85505 0
M  V30 3686 H 353.718 2.53505 -3.06562 0
M  V30 3687 H 350.457 2.49181 -6.06291 0
M  V30 3688 H 349.977 3.62487 -4.77873 0
M  V30 3689 H 351.656 3.60474 -5.37278 0
M  V30 3690 N 351.788 1.33704 0.83433 0
M  V30 3691 C 353.036 1.25169 1.58673 0
M  V30 3692 C 353.357 -0.18127 1.94156 0
M  V30 3693 O 352.627 -1.11113 1.6134 0
M  V30 3694 H 351.207 0.4603 0.58833 0
M  V30 3695 H 353.869 1.67478 0.996847 0
M  V30 3696 H 352.965 1.84856 2.51465 0
M  V30 3697 N 353.266 -1.05314 1.17247 0
M  V30 3698 C 354.214 -2.15137 0.884238 0
M  V30 3699 C 355.208 -1.68729 -0.15063 0
M  V30 3700 O 356.414 -1.8 -0.00366673 0
M  V30 3701 H 352.789 -0.702471 0.2684 0
M  V30 3702 H 354.76 -2.36652 1.81764 0
M  V30 3703 C 353.509 -3.45243 0.412659 0
M  V30 3704 H 352.832 -3.81352 1.20043 0
M  V30 3705 H 354.272 -4.23263 0.249858 0
M  V30 3706 C 352.731 -3.25487 -0.86948 0
M  V30 3707 O 353.261 -3.51938 -1.93655 0
M  V30 3708 N 351.467 -2.78875 -0.817147 0
M  V30 3709 H 351.014 -2.57549 0.0514211 0
M  V30 3710 H 350.972 -2.66036 -1.67547 0
M  V30 3711 N 354.744 -0.972509 -1.24016 0
M  V30 3712 C 355.99 -0.637978 -1.92504 0
M  V30 3713 C 356.323 0.825383 -1.75787 0
M  V30 3714 O 355.598 1.59442 -1.11393 0
M  V30 3715 C 355.881 -1.01942 -3.45369 0
M  V30 3716 C 355.734 -2.53983 -3.71231 0
M  V30 3717 C 357.053 -0.55751 -4.36555 0
M  V30 3718 H 354.172 -0.233248 -0.699117 0
M  V30 3719 H 356.814 -1.21238 -1.46292 0
M  V30 3720 H 354.964 -0.530656 -3.84859 0
M  V30 3721 H 356.636 -3.10374 -3.41271 0
M  V30 3722 H 354.879 -2.96968 -3.16216 0
M  V30 3723 H 355.55 -2.75723 -4.78206 0
M  V30 3724 H 358.026 -0.977029 -4.04467 0
M  V30 3725 H 356.902 -0.85292 -5.42233 0
M  V30 3726 H 357.163 0.542328 -4.38761 0
M  V30 3727 N 356.222 1.38976 -0.743202 0
M  V30 3728 C 357.45 2.04636 -0.30525 0
M  V30 3729 C 357.865 1.56044 1.06281 0
M  V30 3730 O 357.222 0.728921 1.67311 0
M  V30 3731 C 357.273 3.60193 -0.307177 0
M  V30 3732 O 356.994 4.06998 -1.62124 0
M  V30 3733 C 358.495 4.4306 0.145928 0
M  V30 3734 H 355.715 0.65788 -0.132041 0
M  V30 3735 H 358.259 1.77866 -1.00915 0
M  V30 3736 H 356.414 3.85835 0.347898 0
M  V30 3737 H 356.828 5.01371 -1.54036 0
M  V30 3738 H 358.302 5.51921 0.0934183 0
M  V30 3739 H 358.779 4.22706 1.19231 0
M  V30 3740 H 359.385 4.22584 -0.479886 0
M  V30 3741 N 357.7 0.491464 1.49741 0
M  V30 3742 C 358.948 -0.0563141 2.02022 0
M  V30 3743 C 359.269 -1.38363 1.37407 0
M  V30 3744 O 358.539 -1.88702 0.526166 0
M  V30 3745 H 357.119 -0.0238014 0.746621 0
M  V30 3746 H 359.781 0.646533 1.83864 0
M  V30 3747 H 358.877 -0.192967 3.11503 0
M  V30 3748 N 359.178 -1.55987 0.224894 0
M  V30 3749 C 360.088 -2.24066 -0.69511 0
M  V30 3750 C 361.104 -1.24939 -1.21104 0
M  V30 3751 O 362.28 -1.5776 -1.25195 0
M  V30 3752 C 359.345 -2.90983 -1.88493 0
M  V30 3753 C 358.406 -4.05462 -1.41064 0
M  V30 3754 C 357.639 -4.69179 -2.54375 0
M  V30 3755 O 357.862 -4.31895 -3.72589 0
M  V30 3756 O 356.796 -5.58108 -2.25386 0
M  V30 3757 H 360.622 -3.03353 -0.145149 0
M  V30 3758 H 358.207 -1.49399 -0.00569476 0
M  V30 3759 H 360.089 -3.33209 -2.57972 0
M  V30 3760 H 358.764 -2.14653 -2.42293 0
M  V30 3761 H 357.671 -3.67798 -0.683774 0
M  V30 3762 H 359.004 -4.83545 -0.918985 0
M  V30 3763 N 360.656 0.0484629 -1.57525 0
M  V30 3764 C 361.586 1.0549 -2.08313 0
M  V30 3765 C 362.567 1.38929 -0.981463 0
M  V30 3766 O 363.752 1.48151 -1.25558 0
M  V30 3767 C 360.882 2.36162 -2.54646 0
M  V30 3768 C 359.836 2.17016 -3.68901 0
M  V30 3769 C 359.162 3.53278 -4.01371 0
M  V30 3770 C 360.462 1.57219 -4.98076 0
M  V30 3771 H 362.156 0.632195 -2.92649 0
M  V30 3772 H 359.702 0.302654 -1.40784 0
M  V30 3773 H 361.655 3.06882 -2.88793 0
M  V30 3774 H 360.379 2.80456 -1.67368 0
M  V30 3775 H 359.038 1.48733 -3.35073 0
M  V30 3776 H 358.686 3.95185 -3.11188 0
M  V30 3777 H 358.386 3.41299 -4.78318 0
M  V30 3778 H 359.91 4.25391 -4.38035 0
M  V30 3779 H 361.324 2.17832 -5.30304 0
M  V30 3780 H 359.721 1.55871 -5.79503 0
M  V30 3781 H 360.791 0.535956 -4.81929 0
M  V30 3782 N 362.134 1.5431 0.320358 0
M  V30 3783 C 363.38 1.72924 1.05949 0
M  V30 3784 C 363.713 0.503185 1.87568 0
M  V30 3785 O 362.988 -0.499839 1.87968 0
M  V30 3786 C 363.271 3.00676 1.98156 0
M  V30 3787 C 363.124 4.3354 1.19845 0
M  V30 3788 C 364.443 3.24198 2.9763 0
M  V30 3789 H 361.562 0.629195 0.383774 0
M  V30 3790 H 364.204 1.87008 0.335854 0
M  V30 3791 H 362.354 2.888 2.59859 0
M  V30 3792 H 364.026 4.57305 0.605773 0
M  V30 3793 H 362.269 4.309 0.500784 0
M  V30 3794 H 362.94 5.19156 1.87567 0
M  V30 3795 H 365.416 3.35557 2.4605 0
M  V30 3796 H 364.292 4.14938 3.59329 0
M  V30 3797 H 364.553 2.41577 3.7026 0
M  V30 3798 N 363.613 -0.582584 1.46437 0
M  V30 3799 C 364.843 -1.36484 1.55099 0
M  V30 3800 C 365.251 -1.88233 0.191056 0
M  V30 3801 O 364.594 -1.6429 -0.821858 0
M  V30 3802 C 364.656 -2.588 2.49525 0
M  V30 3803 C 364.32 -2.28517 3.95764 0
M  V30 3804 C 365.317 -1.87346 4.84972 0
M  V30 3805 C 363.002 -2.40658 4.40896 0
M  V30 3806 C 364.996 -1.5871 6.17325 0
M  V30 3807 C 362.683 -2.11635 5.73284 0
M  V30 3808 C 363.681 -1.70725 6.61318 0
M  V30 3809 O 363.369 -1.42057 7.91249 0
M  V30 3810 H 363.101 -0.423297 0.527063 0
M  V30 3811 H 365.655 -0.715188 1.92547 0
M  V30 3812 H 363.885 -3.26571 2.07095 0
M  V30 3813 H 365.574 -3.20868 2.48593 0
M  V30 3814 H 366.34 -1.77481 4.5136 0
M  V30 3815 H 362.219 -2.71463 3.72598 0
M  V30 3816 H 365.763 -1.26704 6.85997 0
M  V30 3817 H 361.66 -2.21124 6.06444 0
M  V30 3818 H 362.428 -1.55901 8.03515 0
M  V30 3819 N 365.091 -1.34144 -0.827227 0
M  V30 3820 C 366.054 -1.25264 -1.91942 0
M  V30 3821 C 367.054 -0.168866 -1.59911 0
M  V30 3822 O 368.244 -0.421198 -1.69031 0
M  V30 3823 C 365.376 -0.932952 -3.27885 0
M  V30 3824 H 366.569 -2.22357 -2.0124 0
M  V30 3825 H 364.122 -1.1837 -1.0207 0
M  V30 3826 H 364.857 0.0349917 -3.24281 0
M  V30 3827 H 364.642 -1.71682 -3.52516 0
M  V30 3828 H 366.132 -0.895874 -4.07877 0
M  V30 3829 N 366.569 1.04691 -1.17803 0
M  V30 3830 C 367.519 2.10856 -0.867391 0
M  V30 3831 C 368.503 1.601 0.160206 0
M  V30 3832 O 369.695 1.76948 -0.042947 0
M  V30 3833 C 366.824 3.411 -0.388012 0
M  V30 3834 C 365.91 3.9864 -1.44732 0
M  V30 3835 N 366.301 4.30075 -2.66212 0
M  V30 3836 C 364.599 4.26439 -1.30637 0
M  V30 3837 C 365.3 4.76033 -3.34317 0
M  V30 3838 N 364.276 4.76462 -2.61696 0
M  V30 3839 H 368.078 2.33029 -1.79094 0
M  V30 3840 H 365.592 1.22386 -1.0675 0
M  V30 3841 H 367.589 4.16641 -0.146994 0
M  V30 3842 H 366.249 3.20357 0.529271 0
M  V30 3843 H 367.26 4.19917 -3.03134 0
M  V30 3844 H 363.937 4.15056 -0.451129 0
M  V30 3845 H 365.327 5.09427 -4.38103 0
M  V30 3846 N 368.047 0.979072 1.23499 0
M  V30 3847 C 369.277 0.664237 1.95631 0
M  V30 3848 C 369.685 -0.772653 1.72704 0
M  V30 3849 O 369.028 -1.53141 1.01457 0
M  V30 3850 C 369.09 0.873115 3.48736 0
M  V30 3851 C 368.754 2.29182 3.95379 0
M  V30 3852 C 369.751 3.2704 4.04155 0
M  V30 3853 C 367.436 2.62256 4.28401 0
M  V30 3854 C 369.43 4.56052 4.45304 0
M  V30 3855 C 367.117 3.91491 4.69231 0
M  V30 3856 C 368.115 4.88201 4.77649 0
M  V30 3857 O 367.803 6.15129 5.17563 0
M  V30 3858 H 367.535 0.245915 0.629684 0
M  V30 3859 H 370.089 1.3127 1.57979 0
M  V30 3860 H 368.319 0.167476 3.86337 0
M  V30 3861 H 370.008 0.555642 4.02079 0
M  V30 3862 H 370.774 3.02819 3.78848 0
M  V30 3863 H 366.653 1.87692 4.21061 0
M  V30 3864 H 370.197 5.31538 4.51789 0
M  V30 3865 H 366.094 4.15508 4.93987 0
M  V30 3866 H 366.862 6.18862 5.35679 0
M  V30 3867 N 369.525 -1.3858 0.750561 0
M  V30 3868 C 370.773 -1.99789 0.30477 0
M  V30 3869 C 371.094 -1.59874 -1.11649 0
M  V30 3870 O 370.364 -0.85417 -1.76297 0
M  V30 3871 H 368.944 -0.738902 0.109694 0
M  V30 3872 H 371.606 -1.69391 0.963983 0
M  V30 3873 H 370.702 -3.09952 0.365499 0
M  V30 3874 N 371.003 -0.499398 -1.49478 0
M  V30 3875 C 372.419 -0.155261 -1.58843 0
M  V30 3876 C 372.619 1.34008 -1.50479 0
M  V30 3877 O 371.675 2.11589 -1.37791 0
M  V30 3878 C 372.988 -0.730636 -2.91689 0
M  V30 3879 C 374.536 -0.696599 -3.0515 0
M  V30 3880 C 375.011 -1.25001 -4.40612 0
M  V30 3881 N 376.502 -1.21064 -4.47099 0
M  V30 3882 C 377.237 -1.60905 -5.50361 0
M  V30 3883 N 376.733 -2.08331 -6.60735 0
M  V30 3884 N 378.526 -1.52331 -5.41065 0
M  V30 3885 H 370.677 -1.47162 -1.53158 0
M  V30 3886 H 372.94 -0.610309 -0.725415 0
M  V30 3887 H 372.646 -1.77928 -3.03372 0
M  V30 3888 H 372.52 -0.190161 -3.7672 0
M  V30 3889 H 374.907 0.343204 -2.93097 0
M  V30 3890 H 374.988 -1.2742 -2.21806 0
M  V30 3891 H 374.632 -2.28859 -4.53416 0
M  V30 3892 H 374.562 -0.64836 -5.22593 0
M  V30 3893 H 377.053 -0.863128 -3.67911 0
M  V30 3894 H 377.366 -2.36805 -7.35624 0
M  V30 3895 H 375.711 -2.12304 -6.6178 0
M  V30 3896 H 378.902 -1.151 -4.53729 0
M  V30 3897 H 379.075 -1.83704 -6.21415 0
M  V30 3898 N 372.481 1.55866 -0.233164 0
M  V30 3899 C 373.892 1.847 0.272554 0
M  V30 3900 C 374.243 1.15477 1.58617 0
M  V30 3901 O 373.368 0.42841 2.12117 0
M  V30 3902 C 373.963 3.35071 0.501299 0
M  V30 3903 C 372.522 3.6418 0.951304 0
M  V30 3904 C 371.669 2.77292 0.0208209 0
M  V30 3905 H 374.62 1.52005 -0.456074 0
M  V30 3906 H 374.641 3.55906 1.34577 0
M  V30 3907 H 374.153 3.85424 -0.454936 0
M  V30 3908 H 372.254 3.19293 1.92049 0
M  V30 3909 H 372.367 4.72071 0.817675 0
M  V30 3910 H 370.731 2.49131 0.529723 0
M  V30 3911 H 371.514 3.30448 -0.93054 0
M  V30 3912 N 373.959 -0.0401083 1.57549 0
M  V30 3913 C 374.869 -1.06133 2.0922 0
M  V30 3914 C 375.885 -1.40356 1.0284 0
M  V30 3915 O 377.061 -1.49897 1.34509 0
M  V30 3916 C 374.126 -2.34658 2.55218 0
M  V30 3917 C 373.187 -2.07117 3.76033 0
M  V30 3918 C 372.42 -3.29514 4.19829 0
M  V30 3919 O 372.643 -4.39794 3.63232 0
M  V30 3920 O 371.577 -3.15863 5.12362 0
M  V30 3921 H 375.403 -0.652244 2.96613 0
M  V30 3922 H 372.988 -0.256368 1.47184 0
M  V30 3923 H 374.87 -3.10239 2.85184 0
M  V30 3924 H 373.545 -2.74883 1.70941 0
M  V30 3925 H 372.452 -1.29139 3.51104 0
M  V30 3926 H 373.785 -1.71754 4.61261 0
M  V30 3927 N 375.437 -1.54477 -0.31217 0
M  V30 3928 C 376.714 -1.63891 -1.06767 0
M  V30 3929 C 377.094 -0.480028 -2.0557 0
M  V30 3930 O 376.442 0.524487 -2.22399 0
M  V30 3931 C 376.652 -3.01402 -1.75948 0
M  V30 3932 C 378 -3.57838 -2.28554 0
M  V30 3933 O 379.024 -3.03782 -1.85998 0
M  V30 3934 O 377.883 -4.52462 -3.06497 0
M  V30 3935 H 374.977 -0.664125 -0.492816 0
M  V30 3936 H 377.523 -1.66823 -0.311149 0
M  V30 3937 H 376.295 -3.77187 -1.04144 0
M  V30 3938 H 375.918 -3.02199 -2.58383 0
M  V30 3939 N 376.915 0.57481 -1.46744 0
M  V30 3940 C 377.845 1.69337 -1.60771 0
M  V30 3941 C 378.826 1.63825 -0.457736 0
M  V30 3942 O 380.011 1.8172 -0.684947 0
M  V30 3943 C 377.141 3.0798 -1.60517 0
M  V30 3944 C 376.095 3.28327 -2.74564 0
M  V30 3945 C 375.421 4.67578 -2.59373 0
M  V30 3946 C 376.721 3.15398 -4.16319 0
M  V30 3947 H 378.415 1.57853 -2.54407 0
M  V30 3948 H 375.961 0.75799 -1.22436 0
M  V30 3949 H 377.914 3.86061 -1.68923 0
M  V30 3950 H 376.638 3.20381 -0.634305 0
M  V30 3951 H 375.297 2.52649 -2.65639 0
M  V30 3952 H 374.945 4.76755 -1.60353 0
M  V30 3953 H 374.645 4.82144 -3.35873 0
M  V30 3954 H 376.169 5.47817 -2.69682 0
M  V30 3955 H 377.583 3.83315 -4.26313 0
M  V30 3956 H 375.98 3.41482 -4.93468 0
M  V30 3957 H 377.05 2.12372 -4.3592 0
M  V30 3958 N 378.394 1.34581 0.820102 0
M  V30 3959 C 379.326 1.22236 1.93884 0
M  V30 3960 C 380.339 0.148776 1.62119 0
M  V30 3961 O 381.528 0.400877 1.7394 0
M  V30 3962 C 378.628 0.856542 3.27897 0
M  V30 3963 C 377.801 2.02569 3.87666 0
M  V30 3964 C 376.86 1.63782 5.00062 0
M  V30 3965 O 375.886 2.35477 5.18208 0
M  V30 3966 N 377.088 0.553611 5.77854 0
M  V30 3967 H 379.853 2.18615 2.05006 0
M  V30 3968 H 377.414 1.27573 0.99683 0
M  V30 3969 H 379.406 0.578806 4.0054 0
M  V30 3970 H 377.976 -0.0171518 3.12595 0
M  V30 3971 H 377.196 2.468 3.07382 0
M  V30 3972 H 378.484 2.80752 4.24329 0
M  V30 3973 H 377.882 -0.0423528 5.65684 0
M  V30 3974 H 376.439 0.335614 6.50935 0
M  V30 3975 N 379.872 -1.04064 1.18357 0
M  V30 3976 C 381.149 -1.74252 0.888581 0
M  V30 3977 C 381.529 -2.02138 -0.60856 0
M  V30 3978 O 380.877 -1.66656 -1.56327 0
M  V30 3979 C 381.087 -3.0277 1.73584 0
M  V30 3980 C 382.435 -3.76506 1.96286 0
M  V30 3981 O 383.459 -3.12668 1.70637 0
M  V30 3982 O 382.318 -4.91243 2.39464 0
M  V30 3983 H 379.412 -0.758271 0.330082 0
M  V30 3984 H 381.958 -1.1013 1.2911 0
M  V30 3985 H 380.73 -2.78299 2.75073 0
M  V30 3986 H 380.353 -3.74631 1.33183 0
M  V30 3987 N 381.35 -0.985608 -1.22978 0
M  V30 3988 C 382.28 -0.549649 -2.26939 0
M  V30 3989 C 383.261 0.419803 -1.64838 0
M  V30 3990 O 384.446 0.31203 -1.91677 0
M  V30 3991 C 381.576 0.143652 -3.47003 0
M  V30 3992 C 380.53 -0.743606 -4.21491 0
M  V30 3993 C 379.856 0.0822027 -5.34637 0
M  V30 3994 C 381.156 -2.03694 -4.80943 0
M  V30 3995 H 382.85 -1.41862 -2.63658 0
M  V30 3996 H 380.396 -0.683571 -1.26741 0
M  V30 3997 H 382.349 0.459985 -4.18882 0
M  V30 3998 H 381.073 1.04711 -3.09359 0
M  V30 3999 H 379.732 -1.04347 -3.51436 0
M  V30 4000 H 379.38 0.986359 -4.93234 0
M  V30 4001 H 379.08 -0.508377 -5.85397 0
M  V30 4002 H 380.604 0.392797 -6.09335 0
M  V30 4003 H 382.018 -1.78504 -5.44802 0
M  V30 4004 H 380.415 -2.57573 -5.42011 0
M  V30 4005 H 381.485 -2.72042 -4.01399 0
M  V30 4006 N 382.828 1.3818 -0.7579 0
M  V30 4007 C 384.244 1.5353 -0.435972 0
M  V30 4008 C 384.444 1.71961 1.05032 0
M  V30 4009 O 383.5 1.73307 1.83633 0
M  V30 4010 C 384.813 2.73989 -1.23898 0
M  V30 4011 C 386.361 2.87841 -1.22949 0
M  V30 4012 C 386.836 4.11266 -2.01554 0
M  V30 4013 N 388.327 4.18352 -1.98837 0
M  V30 4014 C 389.062 5.12856 -2.5645 0
M  V30 4015 N 388.558 6.13005 -3.22794 0
M  V30 4016 N 390.351 5.05238 -2.46356 0
M  V30 4017 H 382.502 1.24467 -1.7211 0
M  V30 4018 H 384.765 0.604982 -0.729864 0
M  V30 4019 H 384.471 2.66789 -2.29165 0
M  V30 4020 H 384.345 3.67294 -0.858764 0
M  V30 4021 H 386.732 2.9452 -0.184854 0
M  V30 4022 H 386.813 1.95534 -1.64924 0
M  V30 4023 H 386.457 4.05349 -3.06031 0
M  V30 4024 H 386.387 5.02661 -1.5697 0
M  V30 4025 H 388.878 3.46628 -1.50524 0
M  V30 4026 H 389.191 6.81619 -3.64165 0
M  V30 4027 H 387.536 6.13325 -3.2689 0
M  V30 4028 H 390.727 4.25938 -1.9415 0
M  V30 4029 H 390.9 5.78707 -2.91552 0
M  V30 4030 N 384.306 0.507319 1.49211 0
M  V30 4031 C 385.269 -0.256763 2.27757 0
M  V30 4032 C 386.269 -0.888287 1.34038 0
M  V30 4033 O 387.459 -0.751841 1.5714 0
M  V30 4034 C 384.591 -1.36905 3.12202 0
M  V30 4035 H 385.784 0.432557 2.96764 0
M  V30 4036 H 383.337 0.262488 1.5408 0
M  V30 4037 H 384.072 -2.09233 2.47775 0
M  V30 4038 H 383.857 -0.921599 3.81115 0
M  V30 4039 H 385.347 -1.9071 3.7151 0
M  V30 4040 N 385.784 -1.5574 0.241426 0
M  V30 4041 C 387.2 -1.59196 -0.113548 0
M  V30 4042 C 387.4 -1.25852 -1.57364 0
M  V30 4043 O 386.456 -1.00322 -2.31715 0
M  V30 4044 C 387.769 -2.99814 0.230695 0
M  V30 4045 C 389.317 -3.12513 0.174547 0
M  V30 4046 C 389.792 -4.55342 0.492744 0
M  V30 4047 N 391.283 -4.61076 0.443043 0
M  V30 4048 C 392.018 -5.6956 0.662484 0
M  V30 4049 N 391.514 -6.86328 0.944761 0
M  V30 4050 N 393.307 -5.58957 0.593564 0
M  V30 4051 H 385.458 -1.75685 1.19368 0
M  V30 4052 H 387.721 -0.81756 0.479896 0
M  V30 4053 H 387.427 -3.28932 1.24485 0
M  V30 4054 H 387.301 -3.74568 -0.444833 0
M  V30 4055 H 389.688 -2.83179 -0.830277 0
M  V30 4056 H 389.769 -2.40045 0.883845 0
M  V30 4057 H 389.413 -4.85396 1.4951 0
M  V30 4058 H 389.343 -5.26062 -0.23797 0
M  V30 4059 H 391.834 -3.77179 0.233374 0
M  V30 4060 H 392.147 -7.64935 1.09977 0
M  V30 4061 H 390.492 -6.88025 0.982175 0
M  V30 4062 H 393.683 -4.66611 0.373123 0
M  V30 4063 H 393.856 -6.43433 0.767981 0
M  V30 4064 N 387.262 0.0317525 -1.57568 0
M  V30 4065 C 388.51 0.721676 -1.88776 0
M  V30 4066 C 388.831 1.76039 -0.838772 0
M  V30 4067 O 388.101 1.95482 0.127935 0
M  V30 4068 H 386.681 0.269534 -0.696678 0
M  V30 4069 H 389.343 -0.00165879 -1.949 0
M  V30 4070 H 388.439 1.21293 -2.87566 0
M  V30 4071 N 388.74 1.54641 0.303973 0
M  V30 4072 C 389.986 1.74038 1.04109 0
M  V30 4073 C 390.319 0.523051 1.87024 0
M  V30 4074 O 389.594 -0.479874 1.88487 0
M  V30 4075 C 389.877 3.02761 1.94955 0
M  V30 4076 C 389.73 4.34787 1.1524 0
M  V30 4077 C 391.049 3.27336 2.94175 0
M  V30 4078 H 388.168 0.63323 0.377079 0
M  V30 4079 H 390.81 1.87354 0.316001 0
M  V30 4080 H 388.96 2.9154 2.56782 0
M  V30 4081 H 390.632 4.57922 0.557236 0
M  V30 4082 H 388.875 4.31407 0.455053 0
M  V30 4083 H 389.546 5.21116 1.8205 0
M  V30 4084 H 392.022 3.38148 2.42477 0
M  V30 4085 H 390.898 4.18726 3.54908 0
M  V30 4086 H 391.159 2.45491 3.67677 0
M  V30 4087 N 390.218 -0.567019 1.47046 0
M  V30 4088 C 391.495 -1.3276 1.43646 0
M  V30 4089 C 391.875 -2.1071 0.128186 0
M  V30 4090 O 391.223 -2.10441 -0.890326 0
M  V30 4091 C 391.433 -2.2404 2.67595 0
M  V30 4092 C 392.781 -2.85372 3.14401 0
M  V30 4093 O 393.805 -2.34346 2.68254 0
M  V30 4094 O 392.664 -3.78091 3.946 0
M  V30 4095 H 389.758 -0.597293 0.571988 0
M  V30 4096 H 392.304 -0.586735 1.59234 0
M  V30 4097 H 391.076 -1.65975 3.54356 0
M  V30 4098 H 390.699 -3.05439 2.54544 0
M  V30 4099 N 391.696 -1.35014 -0.812953 0
M  V30 4100 C 393.107 -1.25035 -1.38648 0
M  V30 4101 C 393.458 0.119967 -1.95833 0
M  V30 4102 O 392.583 1.02069 -1.90816 0
M  V30 4103 C 393.178 -2.26394 -2.52054 0
M  V30 4104 C 391.737 -2.20175 -3.05287 0
M  V30 4105 C 390.884 -2.12451 -1.78213 0
M  V30 4106 H 393.835 -1.46235 -0.616516 0
M  V30 4107 H 393.856 -1.88672 -3.30429 0
M  V30 4108 H 393.368 -3.26116 -2.10404 0
M  V30 4109 H 391.469 -1.23841 -3.51417 0
M  V30 4110 H 391.582 -3.11863 -3.63701 0
M  V30 4111 H 389.946 -1.58328 -1.9951 0
M  V30 4112 H 390.729 -3.14024 -1.38723 0
M  V30 4113 N 393.175 1.03435 -1.18907 0
M  V30 4114 C 394.421 1.77005 -0.989798 0
M  V30 4115 C 394.754 1.88205 0.478816 0
M  V30 4116 O 394.029 1.39481 1.35556 0
M  V30 4117 C 394.312 3.19925 -1.65287 0
M  V30 4118 C 394.165 3.1663 -3.19477 0
M  V30 4119 C 395.484 4.18189 -1.37134 0
M  V30 4120 H 392.603 0.642538 -0.360991 0
M  V30 4121 H 395.245 1.20784 -1.46667 0
M  V30 4122 H 393.395 3.67929 -1.24741 0
M  V30 4123 H 395.067 2.76567 -3.692 0
M  V30 4124 H 393.31 2.54491 -3.51307 0
M  V30 4125 H 393.981 4.1758 -3.61013 0
M  V30 4126 H 396.457 3.78761 -1.72276 0
M  V30 4127 H 395.333 5.16394 -1.86087 0
M  V30 4128 H 395.594 4.41112 -0.295424 0
M  V30 4129 N 394.653 0.992116 1.22453 0
M  V30 4130 C 395.901 0.666215 1.90804 0
M  V30 4131 C 396.222 -0.804152 1.77647 0
M  V30 4132 O 395.492 -1.57629 1.16318 0
M  V30 4133 H 394.072 0.243423 0.706225 0
M  V30 4134 H 396.734 1.25845 1.48825 0
M  V30 4135 H 395.83 0.928069 2.97982 0
M  V30 4136 N 396.131 -1.37776 0.765217 0
M  V30 4137 C 397.547 -1.53297 0.444108 0
M  V30 4138 C 397.747 -1.72515 -1.04119 0
M  V30 4139 O 396.803 -1.74278 -1.82711 0
M  V30 4140 C 398.116 -2.73328 1.25349 0
M  V30 4141 C 399.664 -2.87185 1.24473 0
M  V30 4142 C 400.139 -4.10191 2.03733 0
M  V30 4143 N 401.63 -4.17291 2.01053 0
M  V30 4144 C 402.365 -5.11488 2.59166 0
M  V30 4145 N 401.861 -6.11285 3.26041 0
M  V30 4146 N 403.654 -5.03924 2.49032 0
M  V30 4147 H 395.805 -1.23552 1.72768 0
M  V30 4148 H 398.068 -0.601103 0.733062 0
M  V30 4149 H 397.774 -2.6557 2.30577 0
M  V30 4150 H 397.648 -3.66834 0.87823 0
M  V30 4151 H 400.035 -2.94418 0.20047 0
M  V30 4152 H 400.116 -1.94657 1.65959 0
M  V30 4153 H 399.76 -4.0372 3.08176 0
M  V30 4154 H 399.69 -5.01821 1.59633 0
M  V30 4155 H 402.181 -3.45825 1.5236 0
M  V30 4156 H 402.494 -6.79678 3.67774 0
M  V30 4157 H 400.839 -6.11583 3.30138 0
M  V30 4158 H 404.03 -4.24902 1.96407 0
M  V30 4159 H 404.203 -5.77152 2.94617 0
M  V30 4160 N 397.609 -0.515225 -1.4894 0
M  V30 4161 C 398.539 0.244628 -2.32215 0
M  V30 4162 C 399.52 0.949136 -1.41157 0
M  V30 4163 O 400.705 0.937783 -1.70057 0
M  V30 4164 C 397.835 1.30096 -3.22013 0
M  V30 4165 C 396.789 0.715486 -4.21977 0
M  V30 4166 C 396.115 1.87339 -5.00808 0
M  V30 4167 C 397.415 -0.302982 -5.2142 0
M  V30 4168 H 399.109 -0.450501 -2.95991 0
M  V30 4169 H 396.655 -0.218098 -1.42339 0
M  V30 4170 H 398.608 1.84037 -3.79089 0
M  V30 4171 H 397.332 2.02547 -2.56207 0
M  V30 4172 H 395.991 0.197715 -3.66066 0
M  V30 4173 H 395.639 2.58592 -4.31438 0
M  V30 4174 H 395.339 1.48764 -5.68457 0
M  V30 4175 H 396.863 2.41686 -5.60732 0
M  V30 4176 H 398.277 0.148802 -5.73107 0
M  V30 4177 H 396.674 -0.60532 -5.97039 0
M  V30 4178 H 397.744 -1.21395 -4.69459 0
M  V30 4179 N 399.087 1.5561 -0.249682 0
M  V30 4180 C 400.017 2.24477 0.642826 0
M  V30 4181 C 400.998 1.22601 1.17911 0
M  V30 4182 O 402.183 1.5126 1.21795 0
M  V30 4183 C 399.313 2.94638 1.83863 0
M  V30 4184 C 398.267 4.03227 1.435 0
M  V30 4185 C 397.593 4.60828 2.71186 0
M  V30 4186 C 398.893 5.18796 0.604002 0
M  V30 4187 H 400.587 2.99321 0.0685625 0
M  V30 4188 H 398.133 1.43965 0.0315363 0
M  V30 4189 H 400.086 3.41517 2.46868 0
M  V30 4190 H 398.81 2.17287 2.43832 0
M  V30 4191 H 397.469 3.57121 0.828275 0
M  V30 4192 H 397.117 3.80174 3.29358 0
M  V30 4193 H 396.817 5.34132 2.44901 0
M  V30 4194 H 398.341 5.10442 3.35084 0
M  V30 4195 H 399.755 5.61883 1.13842 0
M  V30 4196 H 398.152 5.98506 0.437097 0
M  V30 4197 H 399.222 4.83384 -0.383147 0
M  V30 4198 N 400.565 -0.0233959 1.57583 0
M  V30 4199 C 401.495 -1.02162 2.09965 0
M  V30 4200 C 402.476 -1.3735 1.00344 0
M  V30 4201 O 403.661 -1.46135 1.27899 0
M  V30 4202 C 400.791 -2.32081 2.58371 0
M  V30 4203 C 399.745 -2.1112 3.72307 0
M  V30 4204 C 399.071 -3.46848 4.06941 0
M  V30 4205 C 400.371 -1.49276 5.00514 0
M  V30 4206 H 402.065 -0.585557 2.93618 0
M  V30 4207 H 399.611 -0.280218 1.41247 0
M  V30 4208 H 401.564 -3.02249 2.93639 0
M  V30 4209 H 400.288 -2.77758 1.71808 0
M  V30 4210 H 398.947 -1.43384 3.37397 0
M  V30 4211 H 398.595 -3.90184 3.17436 0
M  V30 4212 H 398.295 -3.33646 4.83688 0
M  V30 4213 H 399.819 -4.18369 4.44747 0
M  V30 4214 H 401.233 -2.09368 5.33702 0
M  V30 4215 H 399.63 -1.46632 5.8191 0
M  V30 4216 H 400.7 -0.459217 4.82721 0
M  V30 4217 N 402.043 -1.548 -0.295768 0
M  V30 4218 C 403.289 -1.74588 -1.03184 0
M  V30 4219 C 403.622 -0.532962 -1.86744 0
M  V30 4220 O 402.897 0.469872 -1.88739 0
M  V30 4221 C 403.18 -3.03791 -1.93347 0
M  V30 4222 C 403.033 -4.35392 -1.12933 0
M  V30 4223 C 404.352 -3.28892 -2.92435 0
M  V30 4224 H 401.471 -0.635221 -0.373715 0
M  V30 4225 H 404.113 -1.87519 -0.30606 0
M  V30 4226 H 402.263 -2.92898 -2.55232 0
M  V30 4227 H 403.935 -4.58211 -0.532943 0
M  V30 4228 H 402.178 -4.31642 -0.432168 0
M  V30 4229 H 402.849 -5.22074 -1.79284 0
M  V30 4230 H 405.325 -3.39429 -2.4068 0
M  V30 4231 H 404.201 -4.20603 -3.52682 0
M  V30 4232 H 404.462 -2.47437 -3.6637 0
M  V30 4233 N 403.521 0.559213 -1.47345 0
M  V30 4234 C 404.937 0.884943 -1.32819 0
M  V30 4235 C 405.137 1.98988 -0.317173 0
M  V30 4236 O 404.193 2.51031 0.272011 0
M  V30 4237 C 405.506 1.28007 -2.72093 0
M  V30 4238 C 407.054 1.39161 -2.80363 0
M  V30 4239 C 407.529 1.82031 -4.20272 0
M  V30 4240 N 409.02 1.89185 -4.22804 0
M  V30 4241 C 409.755 2.2368 -5.27973 0
M  V30 4242 N 409.251 2.56802 -6.43447 0
M  V30 4243 N 411.044 2.24436 -5.15349 0
M  V30 4244 H 403.195 -0.170304 -2.11716 0
M  V30 4245 H 405.458 -0.0135247 -0.947904 0
M  V30 4246 H 405.164 0.542027 -3.47498 0
M  V30 4247 H 405.038 2.23665 -3.03733 0
M  V30 4248 H 407.425 2.12048 -2.05231 0
M  V30 4249 H 407.506 0.41696 -2.52379 0
M  V30 4250 H 407.15 1.09715 -4.95908 0
M  V30 4251 H 407.08 2.80495 -4.45679 0
M  V30 4252 H 409.571 1.65982 -3.39497 0
M  V30 4253 H 409.884 2.82144 -7.19454 0
M  V30 4254 H 408.229 2.54387 -6.46771 0
M  V30 4255 H 411.42 1.97998 -4.24163 0
M  V30 4256 H 411.593 2.50989 -5.97418 0
M  V30 4257 N 404.999 1.35443 0.805782 0
M  V30 4258 C 406.245 1.28952 1.56522 0
M  V30 4259 C 406.578 -0.135597 1.93726 0
M  V30 4260 O 405.853 -1.08516 1.61414 0
M  V30 4261 C 406.136 2.19678 2.85331 0
M  V30 4262 C 405.989 3.7081 2.54598 0
M  V30 4263 C 407.308 2.09495 3.8704 0
M  V30 4264 H 404.427 0.469764 0.567883 0
M  V30 4265 H 407.069 1.65851 0.927001 0
M  V30 4266 H 405.219 1.8834 3.39795 0
M  V30 4267 H 406.891 4.12593 2.06312 0
M  V30 4268 H 405.134 3.91051 1.8778 0
M  V30 4269 H 405.805 4.29679 3.46525 0
M  V30 4270 H 408.281 2.37045 3.41978 0
M  V30 4271 H 407.157 2.75173 4.74943 0
M  V30 4272 H 407.418 1.07714 4.28777 0
M  V30 4273 N 406.477 -1.02803 1.19454 0
M  V30 4274 C 407.725 -1.75869 0.995722 0
M  V30 4275 C 408.046 -1.89138 -0.474543 0
M  V30 4276 O 407.316 -1.42558 -1.34366 0
M  V30 4277 H 405.896 -0.651511 0.365435 0
M  V30 4278 H 408.558 -1.24004 1.50363 0
M  V30 4279 H 407.654 -2.76661 1.44447 0
M  V30 4280 N 407.956 -0.998596 -1.21925 0
M  V30 4281 C 409.202 -0.678667 -1.91107 0
M  V30 4282 C 409.535 0.78791 -1.77498 0
M  V30 4283 O 408.81 1.57043 -1.1475 0
M  V30 4284 C 409.093 -1.09245 -3.43129 0
M  V30 4285 C 408.946 -2.61801 -3.6576 0
M  V30 4286 C 410.265 -0.649984 -4.35274 0
M  V30 4287 H 407.384 -0.248025 -0.694012 0
M  V30 4288 H 410.026 -1.24314 -1.43688 0
M  V30 4289 H 408.176 -0.612171 -3.83647 0
M  V30 4290 H 409.848 -3.17543 -3.34611 0
M  V30 4291 H 408.091 -3.03609 -3.09845 0
M  V30 4292 H 408.762 -2.85804 -4.7225 0
M  V30 4293 H 411.238 -1.0626 -4.02303 0
M  V30 4294 H 410.114 -0.967743 -5.40302 0
M  V30 4295 H 410.375 0.449139 -4.39813 0
M  V30 4296 N 409.434 1.37368 -0.772513 0
M  V30 4297 C 410.683 1.98918 -0.333861 0
M  V30 4298 C 410.996 1.62017 1.09589 0
M  V30 4299 O 412.202 2.16676 1.63596 0
M  V30 4300 C 410.658 3.55735 -0.545971 0
M  V30 4301 C 410.266 4.01573 -1.98603 0
M  V30 4302 C 412.01 4.24156 -0.170979 0
M  V30 4303 C 409.917 5.51102 -2.1457 0
M  V30 4304 H 408.847 0.744214 -0.121085 0
M  V30 4305 H 411.498 1.56888 -0.95175 0
M  V30 4306 H 409.88 3.95748 0.141387 0
M  V30 4307 H 411.054 3.72803 -2.7084 0
M  V30 4308 H 409.369 3.45937 -2.31769 0
M  V30 4309 H 411.966 5.34024 -0.26878 0
M  V30 4310 H 412.309 4.06917 0.878855 0
M  V30 4311 H 412.842 3.89447 -0.810914 0
M  V30 4312 H 409.581 5.73268 -3.17875 0
M  V30 4313 H 409.101 5.81554 -1.46817 0
M  V30 4314 H 410.78 6.17083 -1.94468 0
M  V30 4315 N 410.912 0.523116 1.48665 0
M  V30 4316 C 412.137 -0.0117284 2.07397 0
M  V30 4317 C 412.562 -1.28031 1.37803 0
M  V30 4318 O 411.92 -1.75836 0.441762 0
M  V30 4319 C 411.968 -0.225786 3.59892 0
M  V30 4320 O 411.072 -1.29592 3.91509 0
M  V30 4321 H 410.413 0.0360673 0.66302 0
M  V30 4322 H 412.943 0.729066 1.9117 0
M  V30 4323 H 412.953 -0.450552 4.05505 0
M  V30 4324 H 411.628 0.700944 4.09951 0
M  V30 4325 H 410.205 -1.05436 3.57684 0
M  V30 4326 N 412.39 -1.55475 0.257931 0
M  V30 4327 C 413.637 -1.99207 -0.363728 0
M  V30 4328 C 413.965 -1.1462 -1.57139 0
M  V30 4329 O 413.22 -0.199653 -1.94679 0
M  V30 4330 C 413.519 -3.48183 -0.806433 0
M  V30 4331 C 413.185 -4.49936 0.294684 0
M  V30 4332 C 411.847 -4.77481 0.597076 0
M  V30 4333 C 414.199 -5.10769 1.03751 0
M  V30 4334 C 411.527 -5.63132 1.64618 0
M  V30 4335 C 413.879 -5.97558 2.07622 0
M  V30 4336 C 412.543 -6.23432 2.38514 0
M  V30 4337 H 411.813 -0.728949 -0.133097 0
M  V30 4338 H 414.46 -1.8793 0.368059 0
M  V30 4339 H 412.765 -3.56848 -1.61761 0
M  V30 4340 H 414.462 -3.79415 -1.29789 0
M  V30 4341 H 411.052 -4.28572 0.0488649 0
M  V30 4342 H 415.236 -4.89527 0.817149 0
M  V30 4343 H 410.492 -5.8143 1.89074 0
M  V30 4344 H 414.666 -6.43735 2.65666 0
M  V30 4345 H 412.293 -6.89594 3.19943 0
M  V30 4346 N 413.868 0.0150385 -1.57593 0
M  V30 4347 C 414.831 0.995996 -2.06428 0
M  V30 4348 C 415.831 1.2818 -0.970903 0
M  V30 4349 O 417.021 1.22949 -1.23406 0
M  V30 4350 C 414.153 2.32506 -2.49307 0
M  V30 4351 H 415.346 0.573873 -2.94358 0
M  V30 4352 H 412.899 0.262186 -1.54085 0
M  V30 4353 H 413.634 2.79438 -1.64575 0
M  V30 4354 H 413.419 2.13087 -3.29145 0
M  V30 4355 H 414.909 3.02906 -2.87468 0
M  V30 4356 N 415.346 1.54954 0.287554 0
M  V30 4357 C 416.278 1.83224 1.37701 0
M  V30 4358 C 417.291 0.715898 1.46215 0
M  V30 4359 O 418.48 0.993565 1.48292 0
M  V30 4360 C 415.58 1.96723 2.75959 0
M  V30 4361 C 414.753 3.27253 2.90215 0
M  V30 4362 C 413.812 3.30998 4.09056 0
M  V30 4363 O 412.838 4.04457 4.00503 0
M  V30 4364 N 414.04 2.57353 5.20336 0
M  V30 4365 H 416.805 2.77254 1.138 0
M  V30 4366 H 414.366 1.54694 0.477652 0
M  V30 4367 H 416.358 1.96615 3.5373 0
M  V30 4368 H 414.928 1.09626 2.92747 0
M  V30 4369 H 414.148 3.40022 1.99447 0
M  V30 4370 H 415.436 4.13365 2.96659 0
M  V30 4371 H 414.834 1.97327 5.30169 0
M  V30 4372 H 413.391 2.62984 5.96391 0
M  V30 4373 N 416.824 -0.551391 1.4764 0
M  V30 4374 C 417.771 -1.65796 1.60563 0
M  V30 4375 C 418.741 -1.59932 0.448428 0
M  V30 4376 O 419.926 -1.78679 0.669222 0
M  V30 4377 C 417.066 -3.04108 1.63133 0
M  V30 4378 C 416.179 -3.20365 2.89811 0
M  V30 4379 C 415.314 -4.49109 2.8368 0
M  V30 4380 C 414.353 -4.58819 4.05156 0
M  V30 4381 N 413.49 -5.78926 3.97227 0
M  V30 4382 H 418.33 -1.54088 2.5507 0
M  V30 4383 H 415.867 -0.75052 1.26513 0
M  V30 4384 H 417.825 -3.84207 1.62606 0
M  V30 4385 H 416.455 -3.14637 0.721341 0
M  V30 4386 H 415.507 -2.33659 3.00179 0
M  V30 4387 H 416.819 -3.23402 3.79753 0
M  V30 4388 H 415.973 -5.37475 2.81434 0
M  V30 4389 H 414.712 -4.4856 1.91431 0
M  V30 4390 H 413.717 -3.68864 4.077 0
M  V30 4391 H 414.942 -4.61124 4.98539 0
M  V30 4392 H 412.888 -5.79314 3.07785 0
M  V30 4393 H 412.805 -5.83367 4.80853 0
M  V30 4394 H 414.073 -6.69637 3.99007 0
M  V30 4395 N 418.302 -1.35869 -0.798587 0
M  V30 4396 C 419.548 -1.2978 -1.55836 0
M  V30 4397 C 419.881 0.125322 -1.93795 0
M  V30 4398 O 419.156 1.07658 -1.61987 0
M  V30 4399 C 419.439 -2.21188 -2.84162 0
M  V30 4400 C 419.292 -3.72155 -2.52628 0
M  V30 4401 C 420.611 -2.11545 -3.85923 0
M  V30 4402 H 417.73 -0.472769 -0.565383 0
M  V30 4403 H 420.372 -1.66341 -0.918192 0
M  V30 4404 H 418.522 -1.90139 -3.38791 0
M  V30 4405 H 420.194 -4.13682 -2.04121 0
M  V30 4406 H 418.437 -3.92042 -1.85704 0
M  V30 4407 H 419.108 -4.31511 -3.44242 0
M  V30 4408 H 421.584 -2.38855 -3.40716 0
M  V30 4409 H 420.46 -2.77688 -4.73477 0
M  V30 4410 H 420.721 -1.09987 -4.282 0
M  V30 4411 N 419.78 1.02168 -1.19998 0
M  V30 4412 C 421.008 1.79296 -1.03249 0
M  V30 4413 C 421.423 1.84103 0.418502 0
M  V30 4414 O 420.78 1.29031 1.29063 0
M  V30 4415 C 420.831 3.24007 -1.60319 0
M  V30 4416 O 420.552 3.19512 -2.99739 0
M  V30 4417 C 422.053 4.17704 -1.48453 0
M  V30 4418 H 419.273 0.564016 -0.363493 0
M  V30 4419 H 421.817 1.28639 -1.58973 0
M  V30 4420 H 419.972 3.7183 -1.08727 0
M  V30 4421 H 420.386 4.10306 -3.26725 0
M  V30 4422 H 421.86 5.17104 -1.93153 0
M  V30 4423 H 422.337 4.37029 -0.436193 0
M  V30 4424 H 422.943 3.7576 -1.99211 0
M  V30 4425 N 421.258 1.00505 1.21394 0
M  V30 4426 C 422.206 0.558623 2.25792 0
M  V30 4427 C 423.2 -0.396848 1.64686 0
M  V30 4428 O 424.406 -0.268035 1.77993 0
M  V30 4429 H 420.781 0.1623 0.734277 0
M  V30 4430 H 422.752 1.4503 2.60785 0
M  V30 4431 C 421.501 -0.0989574 3.47559 0
M  V30 4432 H 420.824 0.627225 3.94849 0
M  V30 4433 H 422.264 -0.3746 4.22342 0
M  V30 4434 C 420.723 -1.33817 3.09184 0
M  V30 4435 O 421.253 -2.43252 3.19674 0
M  V30 4436 N 419.459 -1.21793 2.63846 0
M  V30 4437 H 419.006 -0.32746 2.5551 0
M  V30 4438 H 418.964 -2.04809 2.38539 0
M  V30 4439 N 422.737 -1.36956 0.779787 0
M  V30 4440 C 423.7 -2.2851 0.177662 0
M  V30 4441 C 424.7 -1.48393 -0.619377 0
M  V30 4442 O 425.89 -1.68505 -0.441785 0
M  V30 4443 C 423.022 -3.32428 -0.755279 0
M  V30 4444 H 424.215 -2.83269 0.984823 0
M  V30 4445 H 421.768 -1.46358 0.548544 0
M  V30 4446 H 422.503 -2.82808 -1.58714 0
M  V30 4447 H 422.288 -3.91659 -0.185817 0
M  V30 4448 H 423.778 -4.00824 -1.17174 0
M  V30 4449 N 424.215 -0.530993 -1.48385 0
M  V30 4450 C 425.147 0.268353 -2.27624 0
M  V30 4451 C 426.16 0.903525 -1.35426 0
M  V30 4452 O 427.349 0.781796 -1.60469 0
M  V30 4453 C 424.449 1.39535 -3.08842 0
M  V30 4454 C 423.622 0.861913 -4.28824 0
M  V30 4455 C 422.681 1.87016 -4.91845 0
M  V30 4456 O 421.707 1.4267 -5.5103 0
M  V30 4457 N 422.909 3.20238 -4.84178 0
M  V30 4458 H 425.674 -0.41123 -2.96865 0
M  V30 4459 H 423.235 -0.365387 -1.57723 0
M  V30 4460 H 425.227 2.06803 -3.47871 0
M  V30 4461 H 423.797 1.97859 -2.42014 0
M  V30 4462 H 423.017 0.0132126 -3.94198 0
M  V30 4463 H 424.305 0.484415 -5.06489 0
M  V30 4464 H 423.703 3.58932 -4.37246 0
M  V30 4465 H 422.26 3.83136 -5.27305 0
M  V30 4466 N 425.693 1.55336 -0.266172 0
M  V30 4467 C 426.97 1.91372 0.404486 0
M  V30 4468 C 427.35 1.18935 1.74407 0
M  V30 4469 O 426.698 0.3132 2.26343 0
M  V30 4470 C 426.908 3.44581 0.553593 0
M  V30 4471 C 428.256 4.16196 0.840618 0
M  V30 4472 O 429.28 3.50426 0.638739 0
M  V30 4473 O 428.139 5.32567 1.22618 0
M  V30 4474 H 425.233 0.797194 0.220025 0
M  V30 4475 H 427.779 1.66813 -0.311664 0
M  V30 4476 H 426.551 3.89357 -0.389498 0
M  V30 4477 H 426.174 3.75065 1.31955 0
M  V30 4478 N 427.171 -0.0066808 1.57599 0
M  V30 4479 C 428.418 -0.69292 1.90276 0
M  V30 4480 C 428.746 -1.74148 0.866192 0
M  V30 4481 O 428.001 -1.95268 -0.129933 0
M  V30 4482 C 428.3 -1.37939 3.29708 0
M  V30 4483 C 427.966 -0.464679 4.48499 0
M  V30 4484 C 426.628 -0.212809 4.80729 0
M  V30 4485 C 428.98 0.16551 5.20937 0
M  V30 4486 C 426.308 0.677653 5.82773 0
M  V30 4487 C 428.66 1.04381 6.23929 0
M  V30 4488 C 427.324 1.30492 6.54621 0
M  V30 4489 H 426.594 -0.253558 0.696268 0
M  V30 4490 H 429.241 0.0474123 1.91441 0
M  V30 4491 H 427.546 -2.1936 3.24636 0
M  V30 4492 H 429.243 -1.9163 3.52249 0
M  V30 4493 H 425.833 -0.671153 4.23313 0
M  V30 4494 H 430.017 -0.0160756 4.96297 0
M  V30 4495 H 425.273 0.88803 6.04917 0
M  V30 4496 H 429.447 1.53851 6.79193 0
M  V30 4497 H 427.074 1.99662 7.33512 0
M  V30 4498 N 428.649 -1.55105 -0.279332 0
M  V30 4499 C 429.897 -1.75066 -1.00977 0
M  V30 4500 C 430.218 -0.551276 -1.87045 0
M  V30 4501 O 429.488 0.433984 -1.91032 0
M  V30 4502 H 428.068 -0.645578 -0.375816 0
M  V30 4503 H 430.73 -1.92497 -0.305089 0
M  V30 4504 H 429.826 -2.64894 -1.65038 0
M  V30 4505 N 430.127 0.543554 -1.4793 0
M  V30 4506 C 431.09 1.63156 -1.60975 0
M  V30 4507 C 432.09 1.53346 -0.483899 0
M  V30 4508 O 433.28 1.5726 -0.749339 0
M  V30 4509 C 430.412 3.02743 -1.56716 0
M  V30 4510 H 431.605 1.52934 -2.57975 0
M  V30 4511 H 429.158 0.764557 -1.36324 0
M  V30 4512 H 429.893 3.18484 -0.611418 0
M  V30 4513 H 429.678 3.11272 -2.38438 0
M  V30 4514 H 431.168 3.81871 -1.6901 0
M  V30 4515 N 431.605 1.3629 0.791371 0
M  V30 4516 C 432.537 1.26321 1.91248 0
M  V30 4517 C 433.55 0.18313 1.61767 0
M  V30 4518 O 434.739 0.437682 1.73051 0
M  V30 4519 C 431.839 0.925901 3.26007 0
M  V30 4520 C 431.012 2.10746 3.83281 0
M  V30 4521 C 430.071 1.74352 4.96475 0
M  V30 4522 O 429.097 2.46416 5.13096 0
M  V30 4523 N 430.299 0.676058 5.7655 0
M  V30 4524 H 433.064 2.22915 2.00323 0
M  V30 4525 H 430.625 1.29659 0.969546 0
M  V30 4526 H 432.617 0.663636 3.99222 0
M  V30 4527 H 431.187 0.0491581 3.12561 0
M  V30 4528 H 430.407 2.53264 3.02077 0
M  V30 4529 H 431.695 2.8969 4.18279 0
M  V30 4530 H 431.093 0.0776467 5.65647 0
M  V30 4531 H 429.65 0.473612 6.50077 0
M  V30 4532 N 433.083 -1.0153 1.20538 0
M  V30 4533 C 434.331 -1.74803 1.01432 0
M  V30 4534 C 434.652 -1.8963 -0.454456 0
M  V30 4535 O 433.922 -1.43975 -1.32846 0
M  V30 4536 H 432.502 -0.647598 0.372324 0
M  V30 4537 H 435.164 -1.22402 1.5167 0
M  V30 4538 H 434.26 -2.75114 1.47373 0
M  V30 4539 N 434.561 -1.01147 -1.20859 0
M  V30 4540 C 435.807 -0.698899 -1.90377 0
M  V30 4541 C 436.14 0.76904 -1.78324 0
M  V30 4542 O 435.415 1.55817 -1.16409 0
M  V30 4543 C 435.698 -1.12878 -3.41951 0
M  V30 4544 C 435.551 -2.65665 -3.62963 0
M  V30 4545 C 436.87 -0.696114 -4.3456 0
M  V30 4546 H 433.989 -0.255372 -0.691342 0
M  V30 4547 H 436.631 -1.25831 -1.42361 0
M  V30 4548 H 434.781 -0.652827 -3.82976 0
M  V30 4549 H 436.453 -3.21074 -3.31224 0
M  V30 4550 H 434.696 -3.06878 -3.06608 0
M  V30 4551 H 435.367 -2.90797 -4.69192 0
M  V30 4552 H 437.843 -1.10521 -4.01154 0
M  V30 4553 H 436.719 -1.025 -5.39245 0
M  V30 4554 H 436.98 0.402465 -4.40264 0
M  V30 4555 N 436.039 1.36541 -0.78704 0
M  V30 4556 C 436.969 2.32659 -0.197992 0
M  V30 4557 C 437.95 1.56533 0.665697 0
M  V30 4558 O 439.135 1.84698 0.60001 0
M  V30 4559 C 436.265 3.40778 0.669901 0
M  V30 4560 C 435.219 4.27897 -0.0937039 0
M  V30 4561 C 434.545 5.27163 0.894629 0
M  V30 4562 C 435.845 5.06334 -1.28154 0
M  V30 4563 H 437.539 2.82171 -1.00099 0
M  V30 4564 H 435.085 1.35665 -0.482793 0
M  V30 4565 H 437.038 4.07008 1.09191 0
M  V30 4566 H 435.762 2.89827 1.50558 0
M  V30 4567 H 434.421 3.6322 -0.49666 0
M  V30 4568 H 434.069 4.72486 1.72527 0
M  V30 4569 H 433.769 5.86317 0.388149 0
M  V30 4570 H 435.293 5.96266 1.31525 0
M  V30 4571 H 436.707 5.65617 -0.93541 0
M  V30 4572 H 435.104 5.74888 -1.72115 0
M  V30 4573 H 436.174 4.38114 -2.07807 0
M  V30 4574 N 437.518 0.538854 1.48102 0
M  V30 4575 C 438.767 0.0059532 2.01699 0
M  V30 4576 C 439.08 -1.34476 1.42041 0
M  V30 4577 O 440.286 -1.96653 1.87189 0
M  V30 4578 C 438.742 -0.0397627 3.59878 0
M  V30 4579 C 438.35 1.30659 4.28523 0
M  V30 4580 C 440.094 -0.521024 4.2129 0
M  V30 4581 C 438.001 1.22098 5.78659 0
M  V30 4582 H 436.931 -0.00154456 0.753998 0
M  V30 4583 H 439.582 0.683963 1.70277 0
M  V30 4584 H 437.964 -0.783037 3.88181 0
M  V30 4585 H 439.138 2.06613 4.11883 0
M  V30 4586 H 437.453 1.7243 3.79021 0
M  V30 4587 H 440.05 -0.603184 5.31287 0
M  V30 4588 H 440.393 -1.52885 3.8721 0
M  V30 4589 H 440.926 0.166834 3.9745 0
M  V30 4590 H 437.665 2.20424 6.17328 0
M  V30 4591 H 437.185 0.50295 5.97688 0
M  V30 4592 H 438.864 0.915345 6.40492 0
M  V30 4593 N 438.996 -1.55193 0.274407 0
M  V30 4594 C 440.226 -2.03692 -0.345442 0
M  V30 4595 C 440.634 -1.15224 -1.50067 0
M  V30 4596 O 439.977 -0.164749 -1.8296 0
M  V30 4597 C 440.039 -3.48325 -0.88939 0
M  V30 4598 C 439.703 -4.56794 0.137115 0
M  V30 4599 C 440.7 -5.11028 0.956378 0
M  V30 4600 C 438.385 -5.01568 0.27115 0
M  V30 4601 C 440.379 -6.08552 1.89587 0
M  V30 4602 C 438.066 -5.98918 1.21412 0
M  V30 4603 C 439.064 -6.52291 2.02498 0
M  V30 4604 O 438.752 -7.47738 2.952 0
M  V30 4605 H 438.484 -0.670893 -0.0829332 0
M  V30 4606 H 441.038 -2.01387 0.404056 0
M  V30 4607 H 439.268 -3.47867 -1.68895 0
M  V30 4608 H 440.957 -3.80167 -1.42225 0
M  V30 4609 H 441.723 -4.7725 0.863559 0
M  V30 4610 H 437.602 -4.5967 -0.349987 0
M  V30 4611 H 441.146 -6.50137 2.52918 0
M  V30 4612 H 437.043 -6.32114 1.30776 0
M  V30 4613 H 437.811 -7.65451 2.89874 0
M  V30 4614 N 440.474 -0.00167713 -1.576 0
M  V30 4615 C 441.885 0.54091 -1.78693 0
M  V30 4616 C 442.236 1.7386 -0.909247 0
M  V30 4617 O 441.361 2.16109 -0.112176 0
M  V30 4618 C 441.956 0.98806 -3.24072 0
M  V30 4619 C 440.515 1.47594 -3.46256 0
M  V30 4620 C 439.662 0.42792 -2.73978 0
M  V30 4621 H 442.613 -0.22784 -1.57056 0
M  V30 4622 H 442.634 1.85398 -3.32277 0
M  V30 4623 H 442.146 0.116164 -3.87926 0
M  V30 4624 H 440.247 2.36868 -2.87618 0
M  V30 4625 H 440.36 1.50225 -4.54939 0
M  V30 4626 H 438.724 0.889934 -2.38647 0
M  V30 4627 H 439.507 -0.435038 -3.40532 0
M  V30 4628 N 441.952 1.55251 0.271103 0
M  V30 4629 C 442.862 1.9136 1.35714 0
M  V30 4630 C 443.878 0.811075 1.5394 0
M  V30 4631 O 445.054 1.11031 1.6803 0
M  V30 4632 C 442.119 2.1798 2.69603 0
M  V30 4633 C 441.18 3.4153 2.60107 0
M  V30 4634 C 440.413 3.66871 3.8761 0
M  V30 4635 O 440.636 2.94689 4.8838 0
M  V30 4636 O 439.57 4.60405 3.87699 0
M  V30 4637 H 443.396 2.83815 1.08088 0
M  V30 4638 H 440.981 1.41821 0.469792 0
M  V30 4639 H 442.863 2.36518 3.48765 0
M  V30 4640 H 441.538 1.28708 2.97012 0
M  V30 4641 H 440.445 3.28325 1.79314 0
M  V30 4642 H 441.778 4.31027 2.37647 0
M  V30 4643 N 443.43 -0.535701 1.48216 0
M  V30 4644 C 444.841 -1.11769 1.49548 0
M  V30 4645 C 445.192 -1.94442 0.26207 0
M  V30 4646 O 444.317 -2.06987 -0.631287 0
M  V30 4647 C 444.912 -2.03367 2.70975 0
M  V30 4648 C 443.471 -2.56795 2.75196 0
M  V30 4649 C 442.618 -1.33631 2.42977 0
M  V30 4650 H 445.569 -0.321232 1.55415 0
M  V30 4651 H 445.59 -2.87569 2.49167 0
M  V30 4652 H 445.102 -1.43169 3.60727 0
M  V30 4653 H 443.203 -3.20731 1.89638 0
M  V30 4654 H 443.316 -2.9632 3.76472 0
M  V30 4655 H 441.68 -1.6502 1.94012 0
M  V30 4656 H 442.463 -0.75194 3.34964 0
M  V30 4657 N 444.908 -1.36708 -0.784132 0
M  V30 4658 C 445.871 -1.31307 -1.87859 0
M  V30 4659 C 446.871 -0.219654 -1.59293 0
M  V30 4660 O 448.061 -0.47476 -1.67606 0
M  V30 4661 C 445.193 -1.03679 -3.24751 0
M  V30 4662 H 446.386 -2.28647 -1.94064 0
M  V30 4663 H 443.939 -1.21558 -0.98252 0
M  V30 4664 H 444.674 -0.0681936 -3.24228 0
M  V30 4665 H 444.459 -1.82811 -3.46876 0
M  V30 4666 H 445.949 -1.02518 -4.04821 0
M  V30 4667 N 446.386 1.0089 -1.21074 0
M  V30 4668 C 447.663 1.71834 -0.934469 0
M  V30 4669 C 448.043 2.0368 0.554753 0
M  V30 4670 O 447.391 1.70742 1.51854 0
M  V30 4671 C 447.601 2.98061 -1.8155 0
M  V30 4672 C 448.949 3.7117 -2.06199 0
M  V30 4673 O 449.973 3.08034 -1.78867 0
M  V30 4674 O 448.832 4.84721 -2.52404 0
M  V30 4675 H 445.926 0.749253 -0.35007 0
M  V30 4676 H 448.472 1.06668 -1.31985 0
M  V30 4677 H 447.244 2.70908 -2.82355 0
M  V30 4678 H 446.867 3.70968 -1.43068 0
M  V30 4679 N 447.864 1.01787 1.20321 0
M  V30 4680 C 449.111 0.707936 1.89722 0
M  V30 4681 C 449.439 -0.762535 1.78929 0
M  V30 4682 O 448.694 -1.56977 1.16861 0
M  V30 4683 C 448.993 1.09076 3.40349 0
M  V30 4684 C 448.659 2.55765 3.71342 0
M  V30 4685 C 447.321 2.95845 3.79511 0
M  V30 4686 C 449.673 3.50723 3.85542 0
M  V30 4687 C 447.001 4.2982 3.99339 0
M  V30 4688 C 449.353 4.84387 4.06881 0
M  V30 4689 C 448.017 5.24172 4.1328 0
M  V30 4690 H 447.287 0.259052 0.694243 0
M  V30 4691 H 449.934 1.27868 1.42555 0
M  V30 4692 H 448.239 0.438453 3.89339 0
M  V30 4693 H 449.936 0.828636 3.92345 0
M  V30 4694 H 446.526 2.2371 3.65584 0
M  V30 4695 H 450.71 3.20916 3.78585 0
M  V30 4696 H 445.966 4.60196 4.02529 0
M  V30 4697 H 450.14 5.57891 4.1681 0
M  V30 4698 H 447.767 6.27997 4.28396 0
M  V30 4699 N 449.342 -1.36122 0.79427 0
M  V30 4700 C 450.567 -2.03891 0.379871 0
M  V30 4701 C 450.992 -1.59488 -0.997251 0
M  V30 4702 O 450.35 -0.765652 -1.64339 0
M  V30 4703 C 450.398 -3.57687 0.457442 0
M  V30 4704 O 449.502 -4.08931 -0.5338 0
M  V30 4705 H 448.843 -0.6443 0.160541 0
M  V30 4706 H 451.373 -1.73976 1.07673 0
M  V30 4707 H 451.383 -4.06721 0.322792 0
M  V30 4708 H 450.058 -3.89357 1.46199 0
M  V30 4709 H 448.635 -3.71154 -0.360409 0
M  V30 4710 N 450.82 -0.546701 -1.47814 0
M  V30 4711 C 451.752 0.244196 -2.27895 0
M  V30 4712 C 452.765 0.88911 -1.36377 0
M  V30 4713 O 453.954 0.764733 -1.61289 0
M  V30 4714 C 451.054 1.36252 -3.10304 0
M  V30 4715 C 450.227 0.816382 -4.29714 0
M  V30 4716 C 449.286 1.81789 -4.93801 0
M  V30 4717 O 448.312 1.36818 -5.52512 0
M  V30 4718 N 449.514 3.15085 -4.87547 0
M  V30 4719 H 452.279 -0.442694 -2.96412 0
M  V30 4720 H 449.84 -0.382095 -1.57327 0
M  V30 4721 H 451.832 2.03102 -3.50045 0
M  V30 4722 H 450.402 1.95281 -2.44099 0
M  V30 4723 H 449.622 -0.0285981 -3.9419 0
M  V30 4724 H 450.91 0.430668 -5.06974 0
M  V30 4725 H 450.308 3.54275 -4.41028 0
M  V30 4726 H 448.865 3.77522 -5.31339 0
M  V30 4727 N 452.299 1.55045 -0.282633 0
M  V30 4728 C 453.576 1.9179 0.384166 0
M  V30 4729 C 453.956 1.20778 1.73136 0
M  V30 4730 O 453.304 0.33719 2.25998 0
M  V30 4731 C 453.514 3.45149 0.517014 0
M  V30 4732 C 454.862 4.17064 0.796427 0
M  V30 4733 O 455.886 3.51084 0.601535 0
M  V30 4734 O 454.745 5.33837 1.16962 0
M  V30 4735 H 451.839 0.799483 0.211558 0
M  V30 4736 H 454.385 1.66474 -0.32934 0
M  V30 4737 H 453.157 3.88922 -0.430772 0
M  V30 4738 H 452.78 3.76443 1.2797 0
M  V30 4739 N 453.777 0.010035 1.57597 0
M  V30 4740 C 455.188 -0.531426 1.78977 0
M  V30 4741 C 455.539 -1.73375 0.918454 0
M  V30 4742 O 454.664 -2.16047 0.123635 0
M  V30 4743 C 455.259 -0.97086 3.24592 0
M  V30 4744 C 453.818 -1.45756 3.47033 0
M  V30 4745 C 452.965 -0.413384 2.74201 0
M  V30 4746 H 455.916 0.236166 1.56933 0
M  V30 4747 H 455.937 -1.83633 3.33255 0
M  V30 4748 H 455.449 -0.0955893 3.87982 0
M  V30 4749 H 453.55 -2.35339 2.88871 0
M  V30 4750 H 453.663 -1.4781 4.55729 0
M  V30 4751 H 452.027 -0.877266 2.39115 0
M  V30 4752 H 452.81 0.453092 3.40297 0
M  V30 4753 N 455.255 -1.55392 -0.262866 0
M  V30 4754 C 456.666 -1.67079 -0.833158 0
M  V30 4755 C 457.017 -0.604539 -1.86654 0
M  V30 4756 O 456.142 0.252138 -2.14926 0
M  V30 4757 C 456.737 -3.02891 -1.51797 0
M  V30 4758 C 455.296 -3.16571 -2.03617 0
M  V30 4759 C 454.443 -2.62909 -0.881701 0
M  V30 4760 H 457.394 -1.58652 -0.0389986 0
M  V30 4761 H 457.415 -2.96445 -2.38538 0
M  V30 4762 H 456.927 -3.80473 -0.765619 0
M  V30 4763 H 455.028 -2.43782 -2.81782 0
M  V30 4764 H 455.141 -4.23271 -2.24452 0
M  V30 4765 H 453.505 -2.20324 -1.27786 0
M  V30 4766 H 454.288 -3.43003 -0.14269 0
M  V30 4767 N 456.733 0.527833 -1.48498 0
M  V30 4768 C 457.68 1.6322 -1.6318 0
M  V30 4769 C 458.65 1.59199 -0.473815 0
M  V30 4770 O 459.835 1.77591 -0.697563 0
M  V30 4771 C 456.975 3.01474 -1.67951 0
M  V30 4772 C 456.088 3.15713 -2.94871 0
M  V30 4773 C 455.223 4.44539 -2.90789 0
M  V30 4774 C 454.262 4.52315 -4.12404 0
M  V30 4775 N 453.399 5.72533 -4.06387 0
M  V30 4776 H 458.239 1.50011 -2.57489 0
M  V30 4777 H 455.776 0.730298 -1.27691 0
M  V30 4778 H 457.734 3.81572 -1.68698 0
M  V30 4779 H 456.364 3.1345 -0.771306 0
M  V30 4780 H 455.416 2.28854 -3.03859 0
M  V30 4781 H 456.728 3.1732 -3.8485 0
M  V30 4782 H 455.882 5.3293 -2.89949 0
M  V30 4783 H 454.621 4.45457 -1.98542 0
M  V30 4784 H 453.626 3.62331 -4.13517 0
M  V30 4785 H 454.851 4.53134 -5.05812 0
M  V30 4786 H 452.797 5.74344 -3.16962 0
M  V30 4787 H 452.714 5.75643 -4.90073 0
M  V30 4788 H 453.982 6.63204 -4.0961 0
M  V30 4789 N 458.211 1.37122 0.776871 0
M  V30 4790 C 459.622 1.28667 1.35284 0
M  V30 4791 C 459.973 -0.0680035 1.96082 0
M  V30 4792 O 459.098 -0.969743 1.93455 0
M  V30 4793 C 459.693 2.32997 2.45963 0
M  V30 4794 C 458.252 2.28191 2.99342 0
M  V30 4795 C 457.399 2.17101 1.72517 0
M  V30 4796 H 460.35 1.47819 0.577527 0
M  V30 4797 H 460.371 1.97366 3.2531 0
M  V30 4798 H 459.883 3.3158 2.01684 0
M  V30 4799 H 457.984 1.33115 3.4801 0
M  V30 4800 H 458.097 3.21397 3.55304 0
M  V30 4801 H 456.461 1.63562 1.95242 0
M  V30 4802 H 457.244 3.17591 1.30348 0
M  V30 4803 N 459.689 -1.00246 1.21608 0
M  V30 4804 C 460.914 -1.78167 1.06167 0
M  V30 4805 C 461.339 -1.84138 -0.384035 0
M  V30 4806 O 460.697 -1.28683 -1.27712 0
M  V30 4807 C 460.745 -3.19786 1.66642 0
M  V30 4808 O 459.849 -4.02153 0.913613 0
M  V30 4809 H 459.19 -0.549 0.37349 0
M  V30 4810 H 461.72 -1.25994 1.61204 0
M  V30 4811 H 461.73 -3.70451 1.70969 0
M  V30 4812 H 460.405 -3.14754 2.7185 0
M  V30 4813 H 458.982 -3.60711 0.945635 0
M  V30 4814 N 461.167 -1.02423 -1.1978 0
M  V30 4815 C 462.097 -0.62157 -2.25075 0
M  V30 4816 C 463.078 0.367148 -1.6609 0
M  V30 4817 O 464.263 0.250892 -1.92573 0
M  V30 4818 C 461.393 0.0331826 -3.47284 0
M  V30 4819 C 460.347 -0.877323 -4.18912 0
M  V30 4820 C 459.673 -0.0879296 -5.34628 0
M  V30 4821 C 460.973 -2.18892 -4.74219 0
M  V30 4822 H 462.667 -1.50179 -2.59011 0
M  V30 4823 H 460.213 -0.723547 -1.24502 0
M  V30 4824 H 462.166 0.326488 -4.20133 0
M  V30 4825 H 460.89 0.948164 -3.12534 0
M  V30 4826 H 459.549 -1.15475 -3.47938 0
M  V30 4827 H 459.197 0.828941 -4.96123 0
M  V30 4828 H 458.897 -0.694359 -5.83483 0
M  V30 4829 H 460.421 0.198743 -6.10276 0
M  V30 4830 H 461.835 -1.95746 -5.38847 0
M  V30 4831 H 460.232 -2.74686 -5.33542 0
M  V30 4832 H 461.302 -2.84674 -3.92541 0
M  V30 4833 N 462.645 1.35699 -0.801477 0
M  V30 4834 C 463.87 2.03687 -0.390678 0
M  V30 4835 C 464.295 1.60015 0.988778 0
M  V30 4836 O 463.653 0.774357 1.63931 0
M  V30 4837 C 463.701 3.57439 -0.476404 0
M  V30 4838 O 462.805 4.09208 0.512106 0
M  V30 4839 H 462.146 0.64344 -0.163956 0
M  V30 4840 H 464.676 1.73403 -1.08594 0
M  V30 4841 H 464.686 4.06544 -0.344357 0
M  V30 4842 H 463.361 3.88576 -1.48262 0
M  V30 4843 H 461.938 3.7134 0.340721 0
M  V30 4844 N 464.123 0.554532 1.47522 0
M  V30 4845 C 465.348 0.0322661 2.07375 0
M  V30 4846 C 465.773 -1.25079 1.40488 0
M  V30 4847 O 465.131 -1.74859 0.47896 0
M  V30 4848 C 465.179 -0.149397 3.6029 0
M  V30 4849 O 464.283 -1.21259 3.9417 0
M  V30 4850 H 463.624 0.0501228 0.662106 0
M  V30 4851 H 466.154 0.769452 1.8958 0
M  V30 4852 H 466.164 -0.364437 4.06369 0
M  V30 4853 H 464.839 0.787743 4.08372 0
M  V30 4854 H 463.416 -0.97825 3.5984 0
M  V30 4855 N 465.601 -1.54893 0.290851 0
M  V30 4856 C 466.533 -2.20564 -0.623236 0
M  V30 4857 C 467.546 -1.19519 -1.1054 0
M  V30 4858 O 468.735 -1.46165 -1.02459 0
M  V30 4859 C 465.835 -2.83033 -1.86401 0
M  V30 4860 C 465.008 -4.09916 -1.52604 0
M  V30 4861 C 464.067 -4.56284 -2.62091 0
M  V30 4862 O 463.093 -5.2171 -2.27612 0
M  V30 4863 N 464.295 -4.27746 -3.92446 0
M  V30 4864 H 467.06 -2.99638 -0.0610915 0
M  V30 4865 H 464.621 -1.61508 0.112615 0
M  V30 4866 H 466.613 -3.1099 -2.58973 0
M  V30 4867 H 465.183 -2.0786 -2.33481 0
M  V30 4868 H 464.403 -3.89078 -0.633424 0
M  V30 4869 H 465.691 -4.92554 -1.27547 0
M  V30 4870 H 465.089 -3.7531 -4.23272 0
M  V30 4871 H 463.646 -4.60437 -4.61347 0
M  V30 4872 N 467.08 -0.0183926 -1.57589 0
M  V30 4873 C 468.012 0.995557 -2.06449 0
M  V30 4874 C 469.025 1.29556 -0.985849 0
M  V30 4875 O 470.214 1.2621 -1.26227 0
M  V30 4876 C 467.314 2.32572 -2.46502 0
M  V30 4877 C 466.487 2.21245 -3.77319 0
M  V30 4878 C 465.546 3.37104 -4.04039 0
M  V30 4879 O 464.572 3.14468 -4.74445 0
M  V30 4880 N 465.774 4.60553 -3.53372 0
M  V30 4881 H 468.539 0.578746 -2.94059 0
M  V30 4882 H 466.1 0.168603 -1.6102 0
M  V30 4883 H 468.092 3.08887 -2.61478 0
M  V30 4884 H 466.662 2.65931 -1.64315 0
M  V30 4885 H 465.882 1.29723 -3.72244 0
M  V30 4886 H 467.17 2.10868 -4.63047 0
M  V30 4887 H 466.568 4.81839 -2.96391 0
M  V30 4888 H 465.125 5.34072 -3.73644 0
M  V30 4889 N 468.558 1.5553 0.254621 0
M  V30 4890 C 469.521 1.88872 1.29846 0
M  V30 4891 C 470.521 0.764591 1.41459 0
M  V30 4892 O 471.711 1.03265 1.40293 0
M  V30 4893 C 468.843 2.11032 2.67728 0
M  V30 4894 H 470.036 2.82201 1.01502 0
M  V30 4895 H 467.589 1.48303 0.493556 0
M  V30 4896 H 468.324 1.20146 3.01223 0
M  V30 4897 H 468.109 2.92895 2.60682 0
M  V30 4898 H 469.599 2.38038 3.43115 0
M  V30 4899 N 470.036 -0.519951 1.48776 0
M  V30 4900 C 471.282 -1.27711 1.57536 0
M  V30 4901 C 471.615 -1.92547 0.252866 0
M  V30 4902 O 470.89 -1.7979 -0.742021 0
M  V30 4903 C 471.173 -2.35875 2.72094 0
M  V30 4904 C 471.026 -1.75664 4.1408 0
M  V30 4905 C 472.345 -3.37575 2.82367 0
M  V30 4906 H 469.464 -0.462971 0.573434 0
M  V30 4907 H 472.106 -0.578194 1.80989 0
M  V30 4908 H 470.256 -2.95488 2.52228 0
M  V30 4909 H 471.928 -1.20025 4.45412 0
M  V30 4910 H 470.171 -1.06154 4.20611 0
M  V30 4911 H 470.842 -2.54029 4.90075 0
M  V30 4912 H 473.318 -2.87929 3.00393 0
M  V30 4913 H 472.194 -4.1064 3.64233 0
M  V30 4914 H 472.455 -3.98743 1.90936 0
M  V30 4915 N 471.514 -1.37532 -0.769588 0
M  V30 4916 C 472.744 -1.35861 -1.55645 0
M  V30 4917 C 473.152 0.0574398 -1.89113 0
M  V30 4918 O 472.495 1.03021 -1.52093 0
M  V30 4919 C 472.557 -2.13431 -2.89288 0
M  V30 4920 C 472.221 -3.62378 -2.78444 0
M  V30 4921 C 473.218 -4.56215 -2.49326 0
M  V30 4922 C 470.903 -4.05529 -2.96398 0
M  V30 4923 C 472.897 -5.91181 -2.38294 0
M  V30 4924 C 470.584 -5.40579 -2.84987 0
M  V30 4925 C 471.582 -6.33218 -2.55975 0
M  V30 4926 O 471.27 -7.65787 -2.44594 0
M  V30 4927 H 471.002 -0.467001 -0.48876 0
M  V30 4928 H 473.556 -1.81505 -0.961515 0
M  V30 4929 H 471.786 -1.62481 -3.50909 0
M  V30 4930 H 473.475 -2.04368 -3.50697 0
M  V30 4931 H 474.241 -4.24187 -2.35139 0
M  V30 4932 H 470.12 -3.33781 -3.1798 0
M  V30 4933 H 473.664 -6.63457 -2.15571 0
M  V30 4934 H 469.561 -5.72209 -2.98743 0
M  V30 4935 H 470.329 -7.76132 -2.59927 0
M  V30 4936 N 472.992 0.995999 -1.22138 0
M  V30 4937 C 474.24 1.73167 -1.042 0
M  V30 4938 C 474.561 1.90329 0.42423 0
M  V30 4939 O 473.831 1.4607 1.30539 0
M  V30 4940 H 472.411 0.641593 -0.38258 0
M  V30 4941 H 475.073 1.19974 -1.53598 0
M  V30 4942 H 474.169 2.72734 -1.51731 0
M  V30 4943 N 474.47 1.03057 1.19235 0
M  V30 4944 C 475.42 0.583386 2.2041 0
M  V30 4945 C 476.404 -0.368776 1.56617 0
M  V30 4946 O 477.596 -0.189471 1.75983 0
M  V30 4947 C 474.725 -0.0626534 3.43243 0
M  V30 4948 C 473.811 0.91205 4.14177 0
M  V30 4949 N 474.202 2.07514 4.61272 0
M  V30 4950 C 472.5 0.735859 4.39888 0
M  V30 4951 C 473.201 2.69003 5.15764 0
M  V30 4952 N 472.177 1.96954 5.06666 0
M  V30 4953 H 475.979 1.46988 2.54503 0
M  V30 4954 H 473.493 0.897785 1.35328 0
M  V30 4955 H 475.49 -0.400653 4.1497 0
M  V30 4956 H 474.15 -0.944813 3.1065 0
M  V30 4957 H 475.161 2.45448 4.56043 0
M  V30 4958 H 471.838 -0.0970656 4.17387 0
M  V30 4959 H 473.228 3.67514 5.6248 0
M  V30 4960 N 475.948 -1.35272 0.808662 0
M  V30 4961 C 477.194 -1.99003 0.390581 0
M  V30 4962 C 477.527 -1.63999 -1.0401 0
M  V30 4963 O 476.802 -0.904368 -1.72196 0
M  V30 4964 C 477.085 -3.55454 0.576566 0
M  V30 4965 C 476.938 -4.00249 2.05233 0
M  V30 4966 C 478.257 -4.401 0.00354277 0
M  V30 4967 H 475.376 -0.722917 0.143388 0
M  V30 4968 H 478.018 -1.6039 1.01858 0
M  V30 4969 H 476.168 -3.88477 0.0419766 0
M  V30 4970 H 477.84 -3.77626 2.64946 0
M  V30 4971 H 476.083 -3.51082 2.54801 0
M  V30 4972 H 476.754 -5.0911 2.13333 0
M  V30 4973 H 479.23 -4.13548 0.460117 0
M  V30 4974 H 478.106 -5.48656 0.163575 0
M  V30 4975 H 478.367 -4.28444 -1.09032 0
M  V30 4976 N 477.426 -0.562348 -1.47226 0
M  V30 4977 C 478.376 0.202967 -2.27095 0
M  V30 4978 C 479.36 0.880611 -1.34663 0
M  V30 4979 O 480.552 0.778069 -1.58981 0
M  V30 4980 C 477.681 1.22906 -3.20545 0
M  V30 4981 C 476.767 0.554566 -4.20459 0
M  V30 4982 N 477.158 -0.378295 -5.04383 0
M  V30 4983 C 475.456 0.807854 -4.38623 0
M  V30 4984 C 476.157 -0.770583 -5.76573 0
M  V30 4985 N 475.133 -0.124263 -5.43458 0
M  V30 4986 H 478.935 -0.514196 -2.89367 0
M  V30 4987 H 476.449 -0.382655 -1.57827 0
M  V30 4988 H 478.446 1.79134 -3.76453 0
M  V30 4989 H 477.106 1.94726 -2.59831 0
M  V30 4990 H 478.117 -0.75274 -5.124 0
M  V30 4991 H 474.794 1.51418 -3.89075 0
M  V30 4992 H 476.184 -1.53742 -6.54074 0
M  V30 4993 N 478.904 1.54736 -0.299062 0
M  V30 4994 C 479.834 2.26409 0.571085 0
M  V30 4995 C 480.815 1.2629 1.13951 0
M  V30 4996 O 482 1.55059 1.16921 0
M  V30 4997 C 479.13 3.00338 1.74396 0
M  V30 4998 C 478.084 4.07588 1.30599 0
M  V30 4999 C 477.41 4.69222 2.56387 0
M  V30 5000 C 478.71 5.20455 0.438645 0
M  V30 5001 H 480.404 2.99388 -0.0266991 0
M  V30 5002 H 477.95 1.43993 -0.0142812 0
M  V30 5003 H 479.903 3.49198 2.35878 0
M  V30 5004 H 478.627 2.24934 2.36796 0
M  V30 5005 H 477.286 3.59575 0.71424 0
M  V30 5006 H 476.934 3.9046 3.17097 0
M  V30 5007 H 476.634 5.41653 2.27784 0
M  V30 5008 H 478.158 5.20844 3.18675 0
M  V30 5009 H 479.572 5.65221 0.959085 0
M  V30 5010 H 477.969 5.99594 0.246466 0
M  V30 5011 H 479.039 4.8192 -0.536738 0
M  V30 5012 N 480.382 0.0267497 1.57577 0
M  V30 5013 C 481.63 -0.651116 1.91324 0
M  V30 5014 C 481.951 -1.72804 0.90353 0
M  V30 5015 O 481.221 -1.95822 -0.0552946 0
M  V30 5016 H 479.801 -0.243491 0.706202 0
M  V30 5017 H 482.463 0.0739935 1.94759 0
M  V30 5018 H 481.559 -1.10536 2.9187 0
M  V30 5019 N 481.861 -1.55662 -0.24637 0
M  V30 5020 C 483.089 -1.81575 -0.991876 0
M  V30 5021 C 483.504 -0.602545 -1.78927 0
M  V30 5022 O 482.861 0.428795 -1.77391 0
M  V30 5023 C 482.912 -3.05711 -1.92933 0
M  V30 5024 O 482.633 -4.22348 -1.1642 0
M  V30 5025 C 484.134 -3.44428 -2.79078 0
M  V30 5026 H 481.354 -0.604209 -0.291844 0
M  V30 5027 H 483.898 -2.02722 -0.269095 0
M  V30 5028 H 482.053 -2.86612 -2.60638 0
M  V30 5029 H 482.467 -4.92706 -1.79835 0
M  V30 5030 H 483.941 -4.34388 -3.40603 0
M  V30 5031 H 484.418 -2.65037 -3.50217 0
M  V30 5032 H 485.024 -3.65879 -2.16824 0
M  V30 5033 N 483.339 0.512053 -1.4905 0
M  V30 5034 C 484.587 1.26436 -1.57665 0
M  V30 5035 C 484.908 1.93255 -0.260293 0
M  V30 5036 O 484.178 1.82206 0.719564 0
M  V30 5037 H 482.758 0.469658 -0.580888 0
M  V30 5038 H 485.42 0.594398 -1.85615 0
M  V30 5039 H 484.516 2.03417 -2.36702 0
M  V30 5040 N 484.817 1.37938 0.762283 0
M  V30 5041 C 486.094 1.24196 1.51112 0
M  V30 5042 C 486.474 -0.160409 2.1049 0
M  V30 5043 O 485.822 -1.16904 1.96331 0
M  V30 5044 C 486.032 2.34537 2.58445 0
M  V30 5045 C 487.38 2.7254 3.25588 0
M  V30 5046 O 488.404 2.33783 2.68745 0
M  V30 5047 O 487.263 3.39343 4.28379 0
M  V30 5048 H 484.357 0.485175 0.669727 0
M  V30 5049 H 486.903 1.49743 0.798438 0
M  V30 5050 H 485.675 3.28406 2.12756 0
M  V30 5051 H 485.298 2.10505 3.37303 0
M  V30 5052 N 486.295 -0.989507 1.22664 0
M  V30 5053 C 487.706 -1.54406 1.04955 0
M  V30 5054 C 488.057 -1.92366 -0.385951 0
M  V30 5055 O 487.182 -1.75111 -1.27142 0
M  V30 5056 C 487.777 -2.80578 1.89899 0
M  V30 5057 C 486.336 -3.32464 1.76478 0
M  V30 5058 C 485.483 -2.05524 1.86159 0
M  V30 5059 H 488.434 -0.810211 1.3646 0
M  V30 5060 H 488.455 -3.53075 1.4184 0
M  V30 5061 H 487.967 -2.52918 2.94371 0
M  V30 5062 H 486.068 -3.65024 0.747528 0
M  V30 5063 H 486.181 -4.02838 2.59342 0
M  V30 5064 H 484.545 -2.19241 1.29636 0
M  V30 5065 H 485.328 -1.80258 2.92168 0
M  V30 5066 N 487.773 -1.03688 -1.18687 0
M  V30 5067 C 489.003 -0.756819 -1.92239 0
M  V30 5068 C 489.411 0.689374 -1.76194 0
M  V30 5069 O 488.754 1.48126 -1.08648 0
M  V30 5070 C 488.816 -1.03851 -3.44173 0
M  V30 5071 C 488.48 -2.47785 -3.83994 0
M  V30 5072 C 489.477 -3.4595 -3.88091 0
M  V30 5073 C 487.162 -2.82397 -4.154 0
M  V30 5074 C 489.156 -4.76779 -4.23038 0
M  V30 5075 C 486.843 -4.13433 -4.50018 0
M  V30 5076 C 487.841 -5.10434 -4.53813 0
M  V30 5077 O 487.529 -6.39122 -4.87625 0
M  V30 5078 H 487.261 -0.275678 -0.617234 0
M  V30 5079 H 489.815 -1.38658 -1.51536 0
M  V30 5080 H 488.045 -0.351612 -3.85098 0
M  V30 5081 H 489.734 -0.746846 -3.9897 0
M  V30 5082 H 490.5 -3.20549 -3.63969 0
M  V30 5083 H 486.379 -2.07568 -4.11627 0
M  V30 5084 H 489.923 -5.52488 -4.25914 0
M  V30 5085 H 485.82 -4.38604 -4.736 0
M  V30 5086 H 486.588 -6.43715 -5.05542 0
M  V30 5087 N 489.251 1.34841 -0.815825 0
M  V30 5088 C 490.479 2.0273 -0.413294 0
M  V30 5089 C 490.894 1.61459 0.978599 0
M  V30 5090 O 490.251 0.816584 1.63212 0
M  V30 5091 C 490.302 3.58058 -0.497676 0
M  V30 5092 O 490.023 3.97832 -1.8347 0
M  V30 5093 C 491.524 4.4321 -0.0891339 0
M  V30 5094 H 488.744 0.649956 -0.166728 0
M  V30 5095 H 491.288 1.72267 -1.10201 0
M  V30 5096 H 489.443 3.87136 0.142886 0
M  V30 5097 H 489.857 4.92501 -1.80396 0
M  V30 5098 H 491.331 5.5164 -0.199274 0
M  V30 5099 H 491.808 4.28432 0.966571 0
M  V30 5100 H 492.414 4.19446 -0.703214 0
M  V30 5101 N 490.729 0.570148 1.46925 0
M  V30 5102 C 492.14 0.1402 1.86173 0
M  V30 5103 C 492.491 -1.29347 1.47526 0
M  V30 5104 O 491.616 -1.97508 0.884292 0
M  V30 5105 C 492.211 0.247661 3.37894 0
M  V30 5106 C 490.77 -0.127332 3.76185 0
M  V30 5107 C 489.917 0.589349 2.70965 0
M  V30 5108 H 492.868 0.779117 1.38259 0
M  V30 5109 H 492.889 -0.530341 3.76786 0
M  V30 5110 H 492.401 1.29121 3.65991 0
M  V30 5111 H 490.502 -1.17149 3.53704 0
M  V30 5112 H 490.615 0.240238 4.78497 0
M  V30 5113 H 488.979 0.0309824 2.54681 0
M  V30 5114 H 489.762 1.6343 3.01903 0
M  V30 5115 N 492.207 -1.54576 0.307264 0
M  V30 5116 C 493.455 -1.99867 -0.299574 0
M  V30 5117 C 493.776 -1.19714 -1.53927 0
M  V30 5118 O 493.046 -0.29472 -1.9367 0
M  V30 5119 H 491.626 -0.738299 -0.113683 0
M  V30 5120 H 494.288 -1.9032 0.420042 0
M  V30 5121 H 493.384 -3.06901 -0.567283 0
M  V30 5122 N 493.685 -0.035106 -1.57561 0
M  V30 5123 C 494.932 0.642229 -1.92046 0
M  V30 5124 C 495.26 1.7179 -0.91206 0
M  V30 5125 O 494.515 1.95544 0.0781153 0
M  V30 5126 C 494.814 1.29149 -3.3325 0
M  V30 5127 C 494.48 0.345604 -4.49574 0
M  V30 5128 C 493.142 0.0852775 -4.81124 0
M  V30 5129 C 495.494 -0.303569 -5.20315 0
M  V30 5130 C 492.822 -0.831927 -5.80772 0
M  V30 5131 C 495.174 -1.20886 -6.20942 0
M  V30 5132 C 493.838 -1.47802 -6.50931 0
M  V30 5133 H 493.108 0.235008 -0.702746 0
M  V30 5134 H 495.755 -0.0981529 -1.91248 0
M  V30 5135 H 494.06 2.10676 -3.30337 0
M  V30 5136 H 495.757 1.82223 -3.57205 0
M  V30 5137 H 492.347 0.558683 -4.24943 0
M  V30 5138 H 496.531 -0.115515 -4.96166 0
M  V30 5139 H 491.787 -1.0481 -6.02349 0
M  V30 5140 H 495.961 -1.71804 -6.74875 0
M  V30 5141 H 493.588 -2.19039 -7.2796 0
M  V30 5142 N 495.163 1.55791 0.238111 0
M  V30 5143 C 496.574 1.68383 0.806472 0
M  V30 5144 C 496.925 0.634157 1.85669 0
M  V30 5145 O 496.05 -0.217913 2.153 0
M  V30 5146 C 496.645 3.05268 1.46959 0
M  V30 5147 C 495.204 3.1977 1.98555 0
M  V30 5148 C 494.351 2.64279 0.839763 0
M  V30 5149 H 497.302 1.58694 0.0137535 0
M  V30 5150 H 497.323 3.00203 2.33792 0
M  V30 5151 H 496.835 3.81643 0.704993 0
M  V30 5152 H 494.936 2.48234 2.77868 0
M  V30 5153 H 495.049 4.26788 2.17689 0
M  V30 5154 H 493.413 2.22329 1.24265 0
M  V30 5155 H 494.196 3.43187 0.0881032 0
M  V30 5156 N 496.642 -0.504142 1.49319 0
M  V30 5157 C 497.867 -1.28729 1.62615 0
M  V30 5158 C 498.292 -1.85752 0.296309 0
M  V30 5159 O 497.65 -1.65704 -0.735649 0
M  V30 5160 C 497.698 -2.39561 2.69524 0
M  V30 5161 O 496.802 -3.43324 2.28478 0
M  V30 5162 H 496.143 -0.380172 0.544395 0
M  V30 5163 H 498.673 -0.603872 1.95485 0
M  V30 5164 H 498.683 -2.8537 2.91595 0
M  V30 5165 H 497.358 -1.97423 3.66056 0
M  V30 5166 H 495.935 -3.03455 2.16725 0
M  V30 5167 N 498.12 -1.38341 -0.754957 0
M  V30 5168 C 499.367 -1.34473 -1.51404 0
M  V30 5169 C 499.695 0.0656458 -1.94389 0
M  V30 5170 O 498.95 1.04244 -1.65625 0
M  V30 5171 C 499.249 -2.2452 -2.78075 0
M  V30 5172 C 498.915 -3.72512 -2.54059 0
M  V30 5173 C 497.577 -4.1284 -2.47218 0
M  V30 5174 C 499.929 -4.66197 -2.33044 0
M  V30 5175 C 497.257 -5.44945 -2.17376 0
M  V30 5176 C 499.609 -5.98558 -2.04723 0
M  V30 5177 C 498.273 -6.37972 -1.96337 0
M  V30 5178 H 497.543 -0.492072 -0.554027 0
M  V30 5179 H 500.19 -1.70687 -0.868223 0
M  V30 5180 H 498.495 -1.81357 -3.473 0
M  V30 5181 H 500.192 -2.18832 -3.36026 0
M  V30 5182 H 496.782 -3.40538 -2.60253 0
M  V30 5183 H 500.966 -4.35888 -2.37309 0
M  V30 5184 H 496.222 -5.74426 -2.09391 0
M  V30 5185 H 500.396 -6.70693 -1.87465 0
M  V30 5186 H 498.023 -7.40258 -1.72978 0
M  V30 5187 N 499.598 0.982988 -1.23187 0
M  V30 5188 C 500.546 2.09616 -1.00817 0
M  V30 5189 C 501.54 1.6932 0.0519995 0
M  V30 5190 O 502.746 1.79715 -0.101284 0
M  V30 5191 H 499.121 0.685628 -0.308899 0
M  V30 5192 H 501.092 2.25652 -1.95253 0
M  V30 5193 C 499.841 3.42249 -0.613243 0
M  V30 5194 H 499.164 3.73705 -1.42073 0
M  V30 5195 H 500.604 4.21086 -0.496208 0
M  V30 5196 C 499.063 3.30002 0.678233 0
M  V30 5197 O 499.593 3.6263 1.72807 0
M  V30 5198 N 497.799 2.83164 0.653165 0
M  V30 5199 H 497.346 2.56811 -0.201492 0
M  V30 5200 H 497.304 2.75352 1.51752 0
M  V30 5201 N 501.076 1.04316 1.18135 0
M  V30 5202 C 502.008 0.594444 2.21357 0
M  V30 5203 C 503.021 -0.337215 1.59269 0
M  V30 5204 O 504.21 -0.131337 1.78016 0
M  V30 5205 C 501.31 -0.151251 3.38562 0
M  V30 5206 C 500.483 0.788907 4.30227 0
M  V30 5207 C 499.542 0.0860572 5.2613 0
M  V30 5208 O 498.568 0.717302 5.64662 0
M  V30 5209 N 499.77 -1.17969 5.68387 0
M  V30 5210 H 502.535 1.48227 2.60478 0
M  V30 5211 H 500.096 0.92396 1.32946 0
M  V30 5212 H 502.088 -0.631352 3.99745 0
M  V30 5213 H 500.658 -0.940639 2.98112 0
M  V30 5214 H 499.878 1.44882 3.6661 0
M  V30 5215 H 501.166 1.42738 4.88368 0
M  V30 5216 H 500.564 -1.71302 5.3914 0
M  V30 5217 H 499.121 -1.60402 6.31755 0
M  V30 5218 N 502.554 -1.34406 0.822964 0
M  V30 5219 C 503.782 -2.02508 0.424039 0
M  V30 5220 C 504.197 -1.61975 -0.970022 0
M  V30 5221 O 503.554 -0.825228 -1.62777 0
M  V30 5222 C 503.605 -3.57789 0.516657 0
M  V30 5223 O 503.326 -3.96853 1.85577 0
M  V30 5224 C 504.827 -4.43157 0.112637 0
M  V30 5225 H 502.047 -0.649063 0.170173 0
M  V30 5226 H 504.591 -1.7168 1.11113 0
M  V30 5227 H 502.746 -3.87207 -0.122353 0
M  V30 5228 H 503.16 -4.91538 1.83005 0
M  V30 5229 H 504.634 -5.51527 0.228526 0
M  V30 5230 H 505.111 -4.28939 -0.943837 0
M  V30 5231 H 505.717 -4.19067 0.725449 0
M  V30 5232 N 504.032 -0.577932 -1.46621 0
M  V30 5233 C 504.964 0.195801 -2.28362 0
M  V30 5234 C 505.977 0.859983 -1.38232 0
M  V30 5235 O 507.166 0.730349 -1.62875 0
M  V30 5236 C 504.266 1.29639 -3.13124 0
M  V30 5237 C 503.439 0.725049 -4.31349 0
M  V30 5238 C 502.498 1.71274 -4.97546 0
M  V30 5239 O 501.524 1.25067 -5.5529 0
M  V30 5240 N 502.726 3.04672 -4.94121 0
M  V30 5241 H 505.491 -0.505468 -2.95407 0
M  V30 5242 H 503.052 -0.415381 -1.56481 0
M  V30 5243 H 505.044 1.95631 -3.54275 0
M  V30 5244 H 503.614 1.90059 -2.48186 0
M  V30 5245 H 502.834 -0.112205 -3.9404 0
M  V30 5246 H 504.122 0.323034 -5.07774 0
M  V30 5247 H 503.52 3.4484 -4.48444 0
M  V30 5248 H 502.077 3.66166 -5.39227 0
M  V30 5249 N 505.51 1.54411 -0.315457 0
M  V30 5250 C 506.757 2.00419 0.289543 0
M  V30 5251 C 507.085 1.20373 1.52776 0
M  V30 5252 O 506.34 0.271769 1.93804 0
M  V30 5253 C 506.639 3.50936 0.676652 0
M  V30 5254 C 506.305 4.48532 -0.461472 0
M  V30 5255 C 504.967 4.74936 -0.773879 0
M  V30 5256 C 507.319 5.06567 -1.22637 0
M  V30 5257 C 504.647 5.56634 -1.85405 0
M  V30 5258 C 506.999 5.89441 -2.29657 0
M  V30 5259 C 505.663 6.1415 -2.61488 0
M  V30 5260 H 504.933 0.733386 0.105951 0
M  V30 5261 H 507.58 1.86434 -0.437554 0
M  V30 5262 H 505.885 3.62606 1.48405 0
M  V30 5263 H 507.582 3.83971 1.15618 0
M  V30 5264 H 504.172 4.28096 -0.207893 0
M  V30 5265 H 508.356 4.86157 -0.998271 0
M  V30 5266 H 503.612 5.74012 -2.10523 0
M  V30 5267 H 507.786 6.33432 -2.89374 0
M  V30 5268 H 505.413 6.77245 -3.45317 0
M  V30 5269 N 506.988 0.0434614 1.5754 0
M  V30 5270 C 508.399 -0.493343 1.80064 0
M  V30 5271 C 508.75 -1.71388 0.955023 0
M  V30 5272 O 507.875 -2.15736 0.169434 0
M  V30 5273 C 508.47 -0.90179 3.26578 0
M  V30 5274 C 507.029 -1.38362 3.50047 0
M  V30 5275 C 506.176 -0.355129 2.75017 0
M  V30 5276 H 509.127 0.2694 1.56397 0
M  V30 5277 H 509.148 -1.76523 3.37075 0
M  V30 5278 H 508.66 -0.013271 3.88098 0
M  V30 5279 H 506.761 -2.29159 2.93798 0
M  V30 5280 H 506.874 -1.3811 4.58762 0
M  V30 5281 H 505.238 -0.826348 2.40922 0
M  V30 5282 H 506.021 0.525172 3.39259 0
M  V30 5283 N 508.466 -1.55915 -0.229846 0
M  V30 5284 C 509.877 -1.68809 -0.797531 0
M  V30 5285 C 510.228 -0.643995 -1.8533 0
M  V30 5286 O 509.353 0.206492 -2.15413 0
M  V30 5287 C 509.948 -3.06043 -1.45338 0
M  V30 5288 C 508.507 -3.20819 -1.96856 0
M  V30 5289 C 507.654 -2.6472 -0.825736 0
M  V30 5290 H 510.605 -1.58699 -0.00533733 0
M  V30 5291 H 510.626 -3.01438 -2.32196 0
M  V30 5292 H 510.138 -3.82012 -0.684743 0
M  V30 5293 H 508.239 -2.49704 -2.76548 0
M  V30 5294 H 508.352 -4.27937 -2.15423 0
M  V30 5295 H 506.716 -2.22985 -1.23084 0
M  V30 5296 H 507.499 -3.43229 -0.0699019 0
M  V30 5297 N 509.944 0.496216 -1.49584 0
M  V30 5298 C 511.19 1.25189 -1.59548 0
M  V30 5299 C 511.523 1.9212 -0.283466 0
M  V30 5300 O 510.798 1.80947 0.713324 0
M  V30 5301 C 511.081 2.31516 -2.75812 0
M  V30 5302 C 510.934 1.69054 -4.16822 0
M  V30 5303 C 512.253 3.3304 -2.87702 0
M  V30 5304 H 509.372 0.45379 -0.580727 0
M  V30 5305 H 512.014 0.549327 -1.81886 0
M  V30 5306 H 510.164 2.91438 -2.56897 0
M  V30 5307 H 511.836 1.12923 -4.47265 0
M  V30 5308 H 510.079 0.994485 -4.22247 0
M  V30 5309 H 510.75 2.462 -4.94054 0
M  V30 5310 H 513.226 2.83114 -3.04936 0
M  V30 5311 H 512.102 4.04794 -3.7072 0
M  V30 5312 H 512.363 3.95655 -1.97255 0
M  V30 5313 N 511.423 1.38739 0.74761 0
M  V30 5314 C 512.386 1.36241 1.84312 0
M  V30 5315 C 513.386 0.261811 1.58654 0
M  V30 5316 O 514.576 0.519031 1.66288 0
M  V30 5317 C 511.708 1.12253 3.21888 0
M  V30 5318 H 512.901 2.33712 1.87933 0
M  V30 5319 H 510.454 1.2412 0.949946 0
M  V30 5320 H 511.189 0.154133 3.23934 0
M  V30 5321 H 510.974 1.91943 3.41907 0
M  V30 5322 H 512.464 1.13215 4.0196 0
M  V30 5323 N 512.901 -0.976442 1.23707 0
M  V30 5324 C 514.126 -1.75875 1.09922 0
M  V30 5325 C 514.551 -1.84911 -0.34489 0
M  V30 5326 O 513.909 -1.31363 -1.24954 0
M  V30 5327 C 513.957 -3.16179 1.73388 0
M  V30 5328 O 513.061 -4.00124 0.99871 0
M  V30 5329 H 512.402 -0.540954 0.385052 0
M  V30 5330 H 514.932 -1.22546 1.6384 0
M  V30 5331 H 514.942 -3.66741 1.78788 0
M  V30 5332 H 513.617 -3.08917 2.78466 0
M  V30 5333 H 512.194 -3.58624 1.02193 0
M  V30 5334 N 514.379 -1.04941 -1.1758 0
M  V30 5335 C 515.604 -0.778253 -1.92245 0
M  V30 5336 C 516.029 0.659707 -1.76152 0
M  V30 5337 O 515.387 1.45803 -1.07755 0
M  V30 5338 C 515.435 -1.16051 -3.41416 0
M  V30 5339 O 514.539 -0.291153 -4.11371 0
M  V30 5340 H 513.88 -0.285619 -0.599431 0
M  V30 5341 H 516.41 -1.40159 -1.49052 0
M  V30 5342 H 516.42 -1.12619 -3.92149 0
M  V30 5343 H 515.095 -2.208 -3.52449 0
M  V30 5344 H 513.672 -0.385851 -3.70898 0
M  V30 5345 N 515.857 1.33968 -0.830081 0
M  V30 5346 C 517.105 1.97672 -0.420734 0
M  V30 5347 C 517.426 1.66111 1.02138 0
M  V30 5348 O 516.696 0.955503 1.71017 0
M  V30 5349 H 515.276 0.73125 -0.152587 0
M  V30 5350 H 517.938 1.63483 -1.0611 0
M  V30 5351 H 517.034 3.07294 -0.545588 0
M  V30 5352 N 517.335 0.585699 1.46312 0
M  V30 5353 C 518.265 -0.133556 2.33118 0
M  V30 5354 C 519.246 -0.880707 1.45525 0
M  V30 5355 O 520.431 -0.855579 1.74337 0
M  V30 5356 C 517.561 -1.14585 3.27853 0
M  V30 5357 C 516.515 -0.513341 4.2491 0
M  V30 5358 C 515.841 -1.63231 5.09175 0
M  V30 5359 C 517.141 0.551413 5.19381 0
M  V30 5360 H 518.835 0.59121 2.93505 0
M  V30 5361 H 516.381 0.285761 1.41136 0
M  V30 5362 H 518.334 -1.65741 3.87438 0
M  V30 5363 H 517.058 -1.90093 2.65579 0
M  V30 5364 H 515.717 -0.0228349 3.66593 0
M  V30 5365 H 515.365 -2.37713 4.43285 0
M  V30 5366 H 515.065 -1.21473 5.74907 0
M  V30 5367 H 516.589 -2.14658 5.71624 0
M  V30 5368 H 518.003 0.124804 5.73164 0
M  V30 5369 H 516.4 0.889486 5.93471 0
M  V30 5370 H 517.47 1.43655 4.63132 0
M  V30 5371 N 518.813 -1.54241 0.323641 0
M  V30 5372 C 520.224 -1.85975 -0.164405 0
M  V30 5373 C 520.575 -1.24529 -1.51615 0
M  V30 5374 O 519.7 -0.551351 -2.09258 0
M  V30 5375 C 520.295 -3.37424 -0.305091 0
M  V30 5376 C 518.854 -3.69107 -0.737358 0
M  V30 5377 C 518.001 -2.76942 0.140884 0
M  V30 5378 H 520.952 -1.49088 0.543922 0
M  V30 5379 H 520.973 -3.63147 -1.13598 0
M  V30 5380 H 520.485 -3.82116 0.678876 0
M  V30 5381 H 518.586 -3.29947 -1.73107 0
M  V30 5382 H 518.699 -4.76035 -0.541053 0
M  V30 5383 H 517.063 -2.51795 -0.383572 0
M  V30 5384 H 517.846 -3.24461 1.12162 0
M  V30 5385 N 520.291 -0.0518155 -1.57515 0
M  V30 5386 C 521.516 0.634896 -1.97443 0
M  V30 5387 C 521.941 1.63546 -0.929207 0
M  V30 5388 O 521.299 1.80981 0.107484 0
M  V30 5389 C 521.347 1.29765 -3.36442 0
M  V30 5390 O 520.451 2.41333 -3.34413 0
M  V30 5391 H 519.792 0.164994 -0.643174 0
M  V30 5392 H 522.322 -0.120407 -2.04245 0
M  V30 5393 H 522.332 1.64918 -3.73184 0
M  V30 5394 H 521.007 0.564361 -4.12053 0
M  V30 5395 H 519.584 2.08122 -3.09418 0
M  V30 5396 N 521.769 1.56035 0.221574 0
M  V30 5397 C 523.018 1.78245 0.944016 0
M  V30 5398 C 523.331 0.620371 1.85501 0
M  V30 5399 O 524.537 0.726103 2.6161 0
M  V30 5400 C 522.993 3.15659 1.7288 0
M  V30 5401 C 522.601 4.39591 0.863942 0
M  V30 5402 C 524.345 3.47195 2.44246 0
M  V30 5403 C 522.252 5.6803 1.64607 0
M  V30 5404 H 521.182 0.664547 0.356222 0
M  V30 5405 H 523.833 1.8243 0.197904 0
M  V30 5406 H 522.215 3.0565 2.51781 0
M  V30 5407 H 523.389 4.60655 0.115464 0
M  V30 5408 H 521.704 4.15572 0.262407 0
M  V30 5409 H 524.301 4.40381 3.03263 0
M  V30 5410 H 524.644 2.69693 3.1713 0
M  V30 5411 H 525.177 3.58533 1.72334 0
M  V30 5412 H 521.916 6.48425 0.960507 0
M  V30 5413 H 521.436 5.51027 2.36917 0
M  V30 5414 H 523.115 6.08203 2.20675 0
M  V30 5415 N 523.247 -0.488276 1.49845 0
M  V30 5416 C 524.658 -1.06955 1.53028 0
M  V30 5417 C 525.009 -1.9351 0.323797 0
M  V30 5418 O 524.134 -2.08891 -0.565116 0
M  V30 5419 C 524.729 -1.94643 2.77307 0
M  V30 5420 C 523.288 -2.4791 2.83227 0
M  V30 5421 C 522.435 -1.25833 2.47106 0
M  V30 5422 H 525.386 -0.271626 1.56358 0
M  V30 5423 H 525.407 -2.79496 2.5819 0
M  V30 5424 H 524.919 -1.31621 3.65099 0
M  V30 5425 H 523.02 -3.14535 1.99745 0
M  V30 5426 H 523.133 -2.84193 3.85709 0
M  V30 5427 H 521.497 -1.58764 1.99163 0
M  V30 5428 H 522.28 -0.644993 3.37186 0
M  V30 5429 N 524.725 -1.39134 -0.740242 0
M  V30 5430 C 525.688 -1.37217 -1.83587 0
M  V30 5431 C 526.688 -0.270221 -1.58513 0
M  V30 5432 O 527.878 -0.527843 -1.6601 0
M  V30 5433 C 525.01 -1.13959 -3.21288 0
M  V30 5434 H 526.203 -2.34705 -1.86691 0
M  V30 5435 H 523.756 -1.24622 -0.94335 0
M  V30 5436 H 524.491 -0.17131 -3.23847 0
M  V30 5437 H 524.276 -1.93754 -3.40884 0
M  V30 5438 H 525.766 -1.15346 -4.01354 0
M  V30 5439 N 526.204 0.969867 -1.24223 0
M  V30 5440 C 527.136 2.0669 -0.99055 0
M  V30 5441 C 528.149 1.62753 0.0392222 0
M  V30 5442 O 529.338 1.77403 -0.197561 0
M  V30 5443 C 526.438 3.35589 -0.472594 0
M  V30 5444 C 525.611 4.08444 -1.56499 0
M  V30 5445 C 524.67 5.15616 -1.05007 0
M  V30 5446 O 523.696 5.41911 -1.7413 0
M  V30 5447 N 524.898 5.80383 0.116641 0
M  V30 5448 H 527.663 2.28855 -1.93508 0
M  V30 5449 H 525.224 1.13733 -1.15223 0
M  V30 5450 H 527.216 4.04542 -0.112919 0
M  V30 5451 H 525.786 3.10311 0.377617 0
M  V30 5452 H 525.006 3.33798 -2.09696 0
M  V30 5453 H 526.294 4.53882 -2.29932 0
M  V30 5454 H 525.692 5.6142 0.694589 0
M  V30 5455 H 524.249 6.50462 0.417483 0
M  V30 5456 N 527.682 1.05563 1.17022 0
M  V30 5457 C 529.093 0.793475 1.69 0
M  V30 5458 C 529.444 -0.683882 1.83895 0
M  V30 5459 O 528.569 -1.53116 1.5292 0
M  V30 5460 C 529.164 1.43376 3.06967 0
M  V30 5461 C 527.723 1.21956 3.56095 0
M  V30 5462 C 526.87 1.51494 2.3226 0
M  V30 5463 H 529.821 1.22008 1.01487 0
M  V30 5464 H 529.842 0.845068 3.70997 0
M  V30 5465 H 529.354 2.50899 2.96093 0
M  V30 5466 H 527.455 0.163749 3.7224 0
M  V30 5467 H 527.568 1.92713 4.38633 0
M  V30 5468 H 525.932 0.935175 2.3691 0
M  V30 5469 H 526.715 2.60159 2.23992 0
M  V30 5470 N 529.16 -1.33526 0.837174 0
M  V30 5471 C 530.409 -1.97098 0.428387 0
M  V30 5472 C 530.722 -1.67062 -1.01734 0
M  V30 5473 O 531.928 -2.24235 -1.53072 0
M  V30 5474 C 530.384 -3.52725 0.715075 0
M  V30 5475 C 529.992 -3.9164 2.17537 0
M  V30 5476 C 531.736 -4.22857 0.373154 0
M  V30 5477 C 529.643 -5.40237 2.40619 0
M  V30 5478 H 528.573 -0.737589 0.156455 0
M  V30 5479 H 531.224 -1.52169 1.02552 0
M  V30 5480 H 529.606 -3.95971 0.0475904 0
M  V30 5481 H 530.78 -3.59456 2.88319 0
M  V30 5482 H 529.095 -3.34485 2.4801 0
M  V30 5483 H 531.692 -5.32133 0.523264 0
M  V30 5484 H 532.035 -4.10647 -0.683708 0
M  V30 5485 H 532.568 -3.85135 0.995801 0
M  V30 5486 H 529.307 -5.57449 3.44864 0
M  V30 5487 H 528.827 -5.73887 1.74396 0
M  V30 5488 H 530.506 -6.07102 2.23688 0
M  V30 5489 N 530.638 -0.59345 -1.46 0
M  V30 5490 C 531.863 -0.0872365 -2.07216 0
M  V30 5491 C 532.288 1.2131 -1.43755 0
M  V30 5492 O 531.646 1.73528 -0.525152 0
M  V30 5493 C 531.694 0.0538197 -3.6056 0
M  V30 5494 O 530.798 1.10765 -3.97247 0
M  V30 5495 H 530.139 -0.0676598 -0.660544 0
M  V30 5496 H 532.669 -0.819445 -1.87473 0
M  V30 5497 H 532.679 0.256567 -4.07193 0
M  V30 5498 H 531.354 -0.895739 -4.0614 0
M  V30 5499 H 529.931 0.882501 -3.62307 0
M  V30 5500 N 532.116 1.54067 -0.331816 0
M  V30 5501 C 533.079 2.23275 0.517768 0
M  V30 5502 C 534.079 1.22897 1.03697 0
M  V30 5503 O 535.269 1.47419 0.928084 0
M  V30 5504 C 532.401 2.94326 1.72004 0
M  V30 5505 H 533.594 2.99773 -0.0873507 0
M  V30 5506 H 531.147 1.56079 -0.0830042 0
M  V30 5507 H 531.882 2.21986 2.36417 0
M  V30 5508 H 531.667 3.67941 1.35507 0
M  V30 5509 H 533.157 3.47031 2.32291 0
M  V30 5510 N 533.594 0.0601682 1.57485 0
M  V30 5511 C 534.871 -0.651956 1.84415 0
M  V30 5512 C 535.251 -1.88498 0.950361 0
M  V30 5513 O 534.599 -2.28496 0.0136719 0
M  V30 5514 C 534.809 -1.00069 3.34346 0
M  V30 5515 C 536.157 -1.37915 4.01578 0
M  V30 5516 O 537.181 -1.09277 3.39024 0
M  V30 5517 O 536.04 -1.91399 5.11887 0
M  V30 5518 H 533.134 -0.322668 0.761455 0
M  V30 5519 H 535.68 0.0902159 1.6946 0
M  V30 5520 H 534.452 -0.124463 3.91102 0
M  V30 5521 H 534.075 -1.80001 3.54521 0
M  V30 5522 N 535.072 -1.5615 -0.213296 0
M  V30 5523 C 536.321 -1.78743 -0.93455 0
M  V30 5524 C 536.634 -0.630199 -1.8517 0
M  V30 5525 O 537.84 -0.739966 -2.61222 0
M  V30 5526 C 536.296 -3.16571 -1.71203 0
M  V30 5527 C 535.904 -4.40043 -0.840617 0
M  V30 5528 C 537.648 -3.48485 -2.42401 0
M  V30 5529 C 535.555 -5.68895 -1.61592 0
M  V30 5530 H 534.485 -0.666426 -0.352692 0
M  V30 5531 H 537.136 -1.82532 -0.188227 0
M  V30 5532 H 535.518 -3.06981 -2.50157 0
M  V30 5533 H 536.692 -4.6071 -0.0910326 0
M  V30 5534 H 535.007 -4.15706 -0.240365 0
M  V30 5535 H 537.604 -4.41983 -3.00924 0
M  V30 5536 H 537.947 -2.71371 -3.15695 0
M  V30 5537 H 538.48 -3.59442 -1.7043 0
M  V30 5538 H 535.219 -6.48925 -0.926106 0
M  V30 5539 H 534.739 -5.52275 -2.33991 0
M  V30 5540 H 536.418 -6.09365 -2.17447 0
M  V30 5541 N 536.55 0.480323 -1.50102 0
M  V30 5542 C 537.513 1.56181 -1.6775 0
M  V30 5543 C 538.513 1.51156 -0.548503 0
M  V30 5544 O 539.703 1.5394 -0.815363 0
M  V30 5545 C 536.835 2.95823 -1.69415 0
M  V30 5546 H 538.028 1.41855 -2.6423 0
M  V30 5547 H 535.581 0.70605 -1.39444 0
M  V30 5548 H 536.316 3.15604 -0.745948 0
M  V30 5549 H 536.101 3.00878 -2.51425 0
M  V30 5550 H 537.591 3.74359 -1.85054 0
M  V30 5551 N 538.028 1.39524 0.732853 0
M  V30 5552 C 539.253 1.40329 1.52717 0
M  V30 5553 C 539.678 0.000286574 1.881 0
M  V30 5554 O 539.036 -0.987262 1.52062 0
M  V30 5555 C 539.084 2.28464 2.78992 0
M  V30 5556 O 538.188 1.716 3.75003 0
M  V30 5557 H 537.529 0.47778 0.461109 0
M  V30 5558 H 540.059 1.83546 0.903996 0
M  V30 5559 H 540.069 2.43051 3.27705 0
M  V30 5560 H 538.744 3.30425 2.52572 0
M  V30 5561 H 537.321 1.66267 3.33781 0
M  V30 5562 N 539.506 -0.963266 1.24736 0
M  V30 5563 C 540.922 -1.23273 1.01371 0
M  V30 5564 C 541.122 -1.99618 -0.274776 0
M  V30 5565 O 540.178 -2.32293 -0.989769 0
M  V30 5566 C 541.491 -2.01554 2.23152 0
M  V30 5567 C 543.039 -2.14629 2.27823 0
M  V30 5568 C 543.514 -2.96307 3.49237 0
M  V30 5569 N 545.005 -3.03887 3.49581 0
M  V30 5570 C 545.74 -3.67456 4.40186 0
M  V30 5571 N 545.236 -4.32706 5.41052 0
M  V30 5572 N 547.029 -3.64511 4.27888 0
M  V30 5573 H 539.18 -0.452294 2.07528 0
M  V30 5574 H 541.443 -0.262521 0.910926 0
M  V30 5575 H 541.149 -1.52847 3.1675 0
M  V30 5576 H 541.023 -3.02278 2.25628 0
M  V30 5577 H 543.41 -2.62537 1.34753 0
M  V30 5578 H 543.491 -1.13238 2.2937 0
M  V30 5579 H 543.135 -2.49091 4.42624 0
M  V30 5580 H 543.065 -3.97905 3.44933 0
M  V30 5581 H 545.556 -2.57477 2.76611 0
M  V30 5582 H 545.869 -4.79042 6.06415 0
M  V30 5583 H 544.214 -4.31361 5.44934 0
M  V30 5584 H 547.405 -3.12715 3.4832 0
M  V30 5585 H 547.578 -4.13768 4.98698 0
M  V30 5586 N 540.985 -1.06182 -1.16461 0
M  V30 5587 C 541.915 -0.692861 -2.22984 0
M  V30 5588 C 542.896 0.314122 -1.67174 0
M  V30 5589 O 544.081 0.189499 -1.93273 0
M  V30 5590 C 541.211 -0.07732 -3.47214 0
M  V30 5591 C 540.165 -1.01015 -4.15909 0
M  V30 5592 C 539.491 -0.257973 -5.34077 0
M  V30 5593 C 540.791 -2.33868 -4.67015 0
M  V30 5594 H 542.485 -1.58343 -2.54102 0
M  V30 5595 H 540.031 -0.76279 -1.22137 0
M  V30 5596 H 541.984 0.19266 -4.20959 0
M  V30 5597 H 540.708 0.848254 -3.15392 0
M  V30 5598 H 539.367 -1.26486 -3.44088 0
M  V30 5599 H 539.015 0.670684 -4.98509 0
M  V30 5600 H 538.715 -0.879638 -5.80979 0
M  V30 5601 H 540.239 0.00448788 -6.106 0
M  V30 5602 H 541.653 -2.1279 -5.32347 0
M  V30 5603 H 540.05 -2.91522 -5.24533 0
M  V30 5604 H 541.12 -2.97019 -3.83286 0
M  V30 5605 N 542.463 1.3308 -0.844243 0
M  V30 5606 C 543.393 2.3161 -0.296493 0
M  V30 5607 C 544.374 1.59215 0.598707 0
M  V30 5608 O 545.559 1.87077 0.521134 0
M  V30 5609 C 542.689 3.43313 0.524762 0
M  V30 5610 C 541.643 4.27115 -0.275106 0
M  V30 5611 C 540.969 5.30483 0.670236 0
M  V30 5612 C 542.269 5.00443 -1.49514 0
M  V30 5613 H 543.963 2.77672 -1.11976 0
M  V30 5614 H 541.509 1.33496 -0.539899 0
M  V30 5615 H 543.462 4.11273 0.918298 0
M  V30 5616 H 542.186 2.95952 1.3813 0
M  V30 5617 H 540.845 3.60787 -0.650267 0
M  V30 5618 H 540.493 4.79379 1.52332 0
M  V30 5619 H 540.193 5.87435 0.139123 0
M  V30 5620 H 541.717 6.01308 1.06117 0
M  V30 5621 H 543.131 5.61141 -1.17447 0
M  V30 5622 H 541.528 5.67071 -1.96343 0
M  V30 5623 H 542.598 4.28906 -2.26202 0
M  V30 5624 N 543.941 0.601185 1.45683 0
M  V30 5625 C 545.357 0.264315 1.57396 0
M  V30 5626 C 545.557 -1.23324 1.59353 0
M  V30 5627 O 544.613 -2.01594 1.52039 0
M  V30 5628 C 545.926 0.929839 2.85962 0
M  V30 5629 C 547.474 0.905156 2.99626 0
M  V30 5630 C 547.949 1.55057 4.30954 0
M  V30 5631 N 549.44 1.51576 4.37697 0
M  V30 5632 C 550.175 1.98436 5.37969 0
M  V30 5633 N 549.671 2.53352 6.44813 0
M  V30 5634 N 551.464 1.89242 5.29286 0
M  V30 5635 H 543.615 1.57363 1.42656 0
M  V30 5636 H 545.878 0.658831 0.681649 0
M  V30 5637 H 545.584 1.98404 2.90394 0
M  V30 5638 H 545.458 0.449224 3.74515 0
M  V30 5639 H 547.845 -0.14048 2.94765 0
M  V30 5640 H 547.926 1.42397 2.12501 0
M  V30 5641 H 547.57 2.5955 4.36573 0
M  V30 5642 H 547.5 1.00682 5.16886 0
M  V30 5643 H 549.991 1.11452 3.61091 0
M  V30 5644 H 550.304 2.86918 7.17564 0
M  V30 5645 H 548.649 2.57388 6.45582 0
M  V30 5646 H 551.84 1.46083 4.44722 0
M  V30 5647 H 552.013 2.26075 6.07284 0
M  V30 5648 N 545.419 -1.53889 0.339982 0
M  V30 5649 C 546.366 -2.24902 -0.518452 0
M  V30 5650 C 547.336 -1.24593 -1.09844 0
M  V30 5651 O 548.521 -1.53317 -1.13572 0
M  V30 5652 C 545.661 -3.02262 -1.66529 0
M  V30 5653 C 544.774 -4.17418 -1.11295 0
M  V30 5654 C 543.909 -4.82273 -2.2268 0
M  V30 5655 C 542.948 -5.89503 -1.6478 0
M  V30 5656 N 542.085 -6.48153 -2.69893 0
M  V30 5657 H 546.925 -2.97853 0.0936579 0
M  V30 5658 H 544.462 -1.46986 0.0579924 0
M  V30 5659 H 546.42 -3.45371 -2.3404 0
M  V30 5660 H 545.05 -2.31614 -2.24844 0
M  V30 5661 H 544.102 -3.78976 -0.328886 0
M  V30 5662 H 545.414 -4.94554 -0.649414 0
M  V30 5663 H 544.568 -5.28435 -2.98063 0
M  V30 5664 H 543.307 -4.04552 -2.72376 0
M  V30 5665 H 542.312 -5.42728 -0.879004 0
M  V30 5666 H 543.537 -6.6913 -1.1594 0
M  V30 5667 H 541.483 -5.73298 -3.1885 0
M  V30 5668 H 541.4 -7.20752 -2.28151 0
M  V30 5669 H 542.668 -6.98968 -3.45056 0
M  V30 5670 N 546.897 -0.0685191 -1.57451 0
M  V30 5671 C 547.827 0.89747 -2.15564 0
M  V30 5672 C 548.808 1.31266 -1.08181 0
M  V30 5673 O 549.993 1.38429 -1.36202 0
M  V30 5674 C 547.123 2.16623 -2.71463 0
M  V30 5675 C 546.077 1.89054 -3.83982 0
M  V30 5676 C 545.403 3.22532 -4.26471 0
M  V30 5677 C 546.703 1.1984 -5.08366 0
M  V30 5678 H 548.397 0.413373 -2.96533 0
M  V30 5679 H 545.943 0.197391 -1.42641 0
M  V30 5680 H 547.896 2.84614 -3.10761 0
M  V30 5681 H 546.62 2.67269 -1.8771 0
M  V30 5682 H 545.279 1.23469 -3.45183 0
M  V30 5683 H 544.927 3.71013 -3.39644 0
M  V30 5684 H 544.627 3.04879 -5.02317 0
M  V30 5685 H 546.151 3.91727 -4.68383 0
M  V30 5686 H 547.565 1.77896 -5.45001 0
M  V30 5687 H 545.962 1.12456 -5.89469 0
M  V30 5688 H 547.032 0.176996 -4.84577 0
M  V30 5689 N 548.375 1.56261 0.205012 0
M  V30 5690 C 549.322 1.93754 1.25411 0
M  V30 5691 C 550.292 0.796826 1.45739 0
M  V30 5692 O 551.477 1.05414 1.59036 0
M  V30 5693 C 548.617 2.27383 2.59598 0
M  V30 5694 C 547.73 3.5447 2.46931 0
M  V30 5695 C 546.865 3.77468 3.73753 0
M  V30 5696 C 545.904 4.98014 3.55877 0
M  V30 5697 N 545.041 5.17316 4.74688 0
M  V30 5698 H 549.881 2.83203 0.92737 0
M  V30 5699 H 547.418 1.40158 0.446574 0
M  V30 5700 H 549.376 2.44895 3.37761 0
M  V30 5701 H 548.006 1.41088 2.90335 0
M  V30 5702 H 547.058 3.45061 1.60116 0
M  V30 5703 H 548.37 4.42789 2.29651 0
M  V30 5704 H 547.524 3.95165 4.60358 0
M  V30 5705 H 546.263 2.87461 3.93976 0
M  V30 5706 H 545.268 4.80249 2.67657 0
M  V30 5707 H 546.493 5.8952 3.37109 0
M  V30 5708 H 544.439 4.30255 4.95194 0
M  V30 5709 H 544.356 5.99796 4.60197 0
M  V30 5710 H 545.624 5.39463 5.62672 0
M  V30 5711 N 549.853 -0.472356 1.50355 0
M  V30 5712 C 551.101 -1.22211 1.60962 0
M  V30 5713 C 551.422 -1.92497 0.311439 0
M  V30 5714 O 550.692 -1.8405 -0.671002 0
M  V30 5715 H 549.272 -0.454092 0.593135 0
M  V30 5716 H 551.934 -0.544977 1.87126 0
M  V30 5717 H 551.03 -1.9707 2.42012 0
M  V30 5718 N 551.331 -1.39911 -0.725443 0
M  V30 5719 C 552.742 -1.33599 -1.30415 0
M  V30 5720 C 553.093 -0.00481792 -1.96199 0
M  V30 5721 O 552.218 0.897275 -1.96921 0
M  V30 5722 C 552.813 -2.41965 -2.37146 0
M  V30 5723 C 551.372 -2.39144 -2.90667 0
M  V30 5724 C 550.519 -2.23355 -1.64341 0
M  V30 5725 H 553.47 -1.4986 -0.522267 0
M  V30 5726 H 553.491 -2.09304 -3.17761 0
M  V30 5727 H 553.003 -3.38837 -1.89238 0
M  V30 5728 H 551.104 -1.4594 -3.4283 0
M  V30 5729 H 551.217 -3.34362 -3.43131 0
M  V30 5730 H 549.581 -1.70696 -1.89037 0
M  V30 5731 H 550.364 -3.2221 -1.18471 0
M  V30 5732 N 552.809 0.956637 -1.25245 0
M  V30 5733 C 554.055 1.70352 -1.10036 0
M  V30 5734 C 554.388 1.90869 0.358156 0
M  V30 5735 O 553.663 1.47819 1.26411 0
M  V30 5736 C 553.946 3.08766 -1.85298 0
M  V30 5737 C 553.799 2.95672 -3.38966 0
M  V30 5738 C 555.118 4.08622 -1.63451 0
M  V30 5739 H 552.237 0.618279 -0.401123 0
M  V30 5740 H 554.879 1.11212 -1.54051 0
M  V30 5741 H 553.029 3.59252 -1.47887 0
M  V30 5742 H 554.701 2.52527 -3.86041 0
M  V30 5743 H 552.944 2.31634 -3.6678 0
M  V30 5744 H 553.615 3.93776 -3.86839 0
M  V30 5745 H 556.091 3.67038 -1.96015 0
M  V30 5746 H 554.967 5.03514 -2.18551 0
M  V30 5747 H 555.228 4.3834 -0.575357 0
M  V30 5748 N 554.287 1.06798 1.15896 0
M  V30 5749 C 555.25 0.687328 2.18651 0
M  V30 5750 C 556.25 -0.269559 1.58524 0
M  V30 5751 O 557.44 -0.0512627 1.74125 0
M  V30 5752 C 554.572 0.0121642 3.40898 0
M  V30 5753 H 555.765 1.59701 2.53842 0
M  V30 5754 H 553.318 0.863828 1.3026 0
M  V30 5755 H 554.053 -0.910025 3.1127 0
M  V30 5756 H 553.838 0.700309 3.85795 0
M  V30 5757 H 555.328 -0.239703 4.16911 0
M  V30 5758 N 555.766 -1.3263 0.851289 0
M  V30 5759 C 557.177 -1.79653 0.5081 0
M  V30 5760 C 557.528 -1.70327 -0.973815 0
M  V30 5761 O 556.653 -1.25986 -1.75944 0
M  V30 5762 C 557.248 -3.26196 0.915515 0
M  V30 5763 C 555.807 -3.71187 0.624277 0
M  V30 5764 C 554.954 -2.53804 1.11709 0
M  V30 5765 H 557.905 -1.19976 1.03882 0
M  V30 5766 H 557.926 -3.79801 0.230535 0
M  V30 5767 H 557.438 -3.32952 1.99411 0
M  V30 5768 H 555.539 -3.69948 -0.443737 0
M  V30 5769 H 555.652 -4.64132 1.18821 0
M  V30 5770 H 554.016 -2.48964 0.537484 0
M  V30 5771 H 554.799 -2.63315 2.20272 0
M  V30 5772 N 557.244 -0.608902 -1.45362 0
M  V30 5773 C 558.176 0.147318 -2.28726 0
M  V30 5774 C 559.189 0.830468 -1.40025 0
M  V30 5775 O 560.378 0.695636 -1.64387 0
M  V30 5776 C 557.478 1.22968 -3.15804 0
M  V30 5777 C 556.651 0.633391 -4.3279 0
M  V30 5778 C 555.71 1.60682 -5.01067 0
M  V30 5779 O 554.736 1.13261 -5.57818 0
M  V30 5780 N 555.938 2.94123 -5.00472 0
M  V30 5781 H 558.703 -0.568014 -2.94268 0
M  V30 5782 H 556.264 -0.448479 -1.55564 0
M  V30 5783 H 558.256 1.88072 -3.58345 0
M  V30 5784 H 556.826 1.84752 -2.52162 0
M  V30 5785 H 556.046 -0.195762 -3.93714 0
M  V30 5786 H 557.334 0.215255 -5.08344 0
M  V30 5787 H 556.732 3.3525 -4.55657 0
M  V30 5788 H 555.289 3.54646 -5.46872 0
M  V30 5789 N 558.722 1.53707 -0.348139 0
M  V30 5790 C 559.632 2.28881 0.514857 0
M  V30 5791 C 560.648 1.34168 1.10793 0
M  V30 5792 O 561.824 1.6721 1.12262 0
M  V30 5793 C 558.889 3.05042 1.64774 0
M  V30 5794 C 557.95 4.15389 1.08398 0
M  V30 5795 C 557.183 4.87909 2.16287 0
M  V30 5796 O 557.406 4.60137 3.3709 0
M  V30 5797 O 556.34 5.74254 1.80323 0
M  V30 5798 H 560.166 3.03547 -0.0963699 0
M  V30 5799 H 557.751 1.48972 -0.113043 0
M  V30 5800 H 559.633 3.52656 2.30677 0
M  V30 5801 H 558.308 2.33228 2.24469 0
M  V30 5802 H 557.215 3.72068 0.389341 0
M  V30 5803 H 558.548 4.89318 0.531829 0
M  V30 5804 N 560.2 0.0768682 1.57412 0
M  V30 5805 C 561.446 -0.585926 1.94778 0
M  V30 5806 C 561.801 -1.66912 0.956982 0
M  V30 5807 O 561.094 -1.9159 -0.0199454 0
M  V30 5808 C 561.288 -1.20268 3.36557 0
M  V30 5809 C 561.117 -0.18076 4.49337 0
M  V30 5810 C 559.887 0.236362 5.04747 0
M  V30 5811 C 562.085 0.583978 5.10974 0
M  V30 5812 N 560.067 1.24846 6.01071 0
M  V30 5813 C 561.438 1.44841 6.02844 0
M  V30 5814 C 563.493 0.639492 4.93776 0
M  V30 5815 C 562.196 2.36343 6.79363 0
M  V30 5816 C 564.222 1.54204 5.70942 0
M  V30 5817 C 563.584 2.39414 6.62465 0
M  V30 5818 H 559.683 -0.185281 0.759734 0
M  V30 5819 H 562.267 0.155193 1.9408 0
M  V30 5820 H 560.438 -1.9137 3.37982 0
M  V30 5821 H 562.17 -1.82636 3.61146 0
M  V30 5822 H 558.925 -0.14777 4.73369 0
M  V30 5823 H 559.349 1.75217 6.53933 0
M  V30 5824 H 563.991 -0.00510074 4.228 0
M  V30 5825 H 561.709 3.01836 7.49614 0
M  V30 5826 H 565.295 1.5899 5.59655 0
M  V30 5827 H 564.175 3.0812 7.21132 0
M  V30 5828 N 561.678 -1.56367 -0.196722 0
M  V30 5829 C 562.61 -1.90941 -1.26784 0
M  V30 5830 C 563.623 -0.799928 -1.41792 0
M  V30 5831 O 564.812 -1.07833 -1.42247 0
M  V30 5832 C 561.912 -2.12477 -2.6402 0
M  V30 5833 C 561.085 -3.43616 -2.70641 0
M  V30 5834 C 560.144 -3.54284 -3.89062 0
M  V30 5835 O 559.17 -4.2712 -3.76241 0
M  V30 5836 N 560.372 -2.87252 -5.04447 0
M  V30 5837 H 563.137 -2.83417 -0.974417 0
M  V30 5838 H 560.698 -1.57215 -0.386649 0
M  V30 5839 H 562.69 -2.16904 -3.41665 0
M  V30 5840 H 561.26 -1.26508 -2.85857 0
M  V30 5841 H 560.48 -3.51072 -1.79283 0
M  V30 5842 H 561.768 -4.29958 -2.72054 0
M  V30 5843 H 561.166 -2.27901 -5.17762 0
M  V30 5844 H 559.723 -2.97308 -5.80044 0
M  V30 5845 N 563.156 0.464375 -1.50603 0
M  V30 5846 C 564.404 1.21356 -1.61608 0
M  V30 5847 C 564.725 1.92329 -0.321643 0
M  V30 5848 O 563.995 1.84403 0.661232 0
M  V30 5849 H 562.575 0.45094 -0.595535 0
M  V30 5850 H 565.237 0.535046 -1.87412 0
M  V30 5851 H 564.333 1.95783 -2.43054 0
M  V30 5852 N 564.634 1.40294 0.718013 0
M  V30 5853 C 565.859 1.41941 1.5122 0
M  V30 5854 C 566.284 0.0202371 1.88089 0
M  V30 5855 O 565.642 -0.971078 1.53101 0
M  V30 5856 C 565.69 2.3141 2.76554 0
M  V30 5857 O 564.794 1.75567 3.73162 0
M  V30 5858 H 564.135 0.482644 0.456016 0
M  V30 5859 H 566.665 1.84494 0.884478 0
M  V30 5860 H 566.675 2.46513 3.25108 0
M  V30 5861 H 565.35 3.33085 2.49053 0
M  V30 5862 H 563.927 1.69798 3.31999 0
M  V30 5863 N 566.112 -0.949982 1.2575 0
M  V30 5864 C 567.042 -2.06483 1.09028 0
M  V30 5865 C 568.023 -1.701 -0.00201532 0
M  V30 5866 O 569.208 -1.93469 0.168383 0
M  V30 5867 C 566.338 -3.39899 0.71316 0
M  V30 5868 C 565.292 -3.90309 1.75621 0
M  V30 5869 C 564.618 -5.20274 1.23365 0
M  V30 5870 C 565.918 -4.16169 3.15596 0
M  V30 5871 H 567.612 -2.20731 2.02283 0
M  V30 5872 H 565.158 -1.06066 0.973964 0
M  V30 5873 H 567.111 -4.17346 0.58309 0
M  V30 5874 H 565.835 -3.25602 -0.255091 0
M  V30 5875 H 564.494 -3.15035 1.8748 0
M  V30 5876 H 564.142 -5.02351 0.255491 0
M  V30 5877 H 563.842 -5.54971 1.93082 0
M  V30 5878 H 565.366 -6.00314 1.11607 0
M  V30 5879 H 566.78 -4.84259 3.06864 0
M  V30 5880 H 565.177 -4.62131 3.82825 0
M  V30 5881 H 566.247 -3.22273 3.6231 0
M  V30 5882 N 567.59 -1.07411 -1.15328 0
M  V30 5883 C 568.52 -0.716472 -2.22236 0
M  V30 5884 C 569.501 0.296373 -1.67498 0
M  V30 5885 O 570.686 0.168989 -1.93463 0
M  V30 5886 C 567.816 -0.114142 -3.47112 0
M  V30 5887 C 566.77 -1.05421 -4.14814 0
M  V30 5888 C 566.096 -0.314604 -5.33774 0
M  V30 5889 C 567.396 -2.38808 -4.64508 0
M  V30 5890 H 569.09 -1.61029 -2.52408 0
M  V30 5891 H 566.636 -0.775702 -1.21321 0
M  V30 5892 H 568.589 0.148001 -4.2114 0
M  V30 5893 H 567.313 0.814755 -3.16274 0
M  V30 5894 H 565.972 -1.30128 -3.42728 0
M  V30 5895 H 565.62 0.617772 -4.99192 0
M  V30 5896 H 565.32 -0.941209 -5.80013 0
M  V30 5897 H 566.844 -0.0602747 -6.1057 0
M  V30 5898 H 568.258 -2.18424 -5.3006 0
M  V30 5899 H 566.655 -2.97069 -5.21412 0
M  V30 5900 H 567.725 -3.01067 -3.80114 0
M  V30 5901 N 569.068 1.32177 -0.85831 0
M  V30 5902 C 570.316 1.96735 -0.462568 0
M  V30 5903 C 570.637 1.6824 0.985911 0
M  V30 5904 O 569.907 0.991564 1.68952 0
M  V30 5905 H 568.487 0.727849 -0.168064 0
M  V30 5906 H 571.149 1.61195 -1.09554 0
M  V30 5907 H 570.245 3.06068 -0.610647 0
M  V30 5908 N 570.547 0.616602 1.45037 0
M  V30 5909 C 571.772 0.120192 2.07051 0
M  V30 5910 C 572.197 -1.19008 1.45666 0
M  V30 5911 O 571.555 -1.7267 0.552692 0
M  V30 5912 C 571.603 0.00354901 3.606 0
M  V30 5913 O 570.707 -1.04431 3.98958 0
M  V30 5914 H 570.048 0.0781599 0.659384 0
M  V30 5915 H 572.578 0.849167 1.86146 0
M  V30 5916 H 572.588 -0.191754 4.07549 0
M  V30 5917 H 571.263 0.960239 4.04663 0
M  V30 5918 H 569.84 -0.824749 3.63665 0
M  V30 5919 N 572.025 -1.5352 0.356285 0
M  V30 5920 C 573.436 -1.86282 -0.12492 0
M  V30 5921 C 573.787 -1.27717 -1.48939 0
M  V30 5922 O 572.912 -0.595614 -2.08042 0
M  V30 5923 C 573.507 -3.37995 -0.23345 0
M  V30 5924 C 572.066 -3.70588 -0.658899 0
M  V30 5925 C 571.213 -2.76581 0.199596 0
M  V30 5926 H 574.164 -1.47901 0.575423 0
M  V30 5927 H 574.185 -3.65475 -1.0587 0
M  V30 5928 H 573.697 -3.8059 0.759776 0
M  V30 5929 H 571.798 -3.33544 -1.66069 0
M  V30 5930 H 571.911 -4.77076 -0.439957 0
M  V30 5931 H 570.275 -2.52552 -0.330076 0
M  V30 5932 H 571.058 -3.22008 1.19019 0
M  V30 5933 N 573.503 -0.0852151 -1.57369 0
M  V30 5934 C 574.733 0.588605 -1.98038 0
M  V30 5935 C 575.141 1.62869 -0.962817 0
M  V30 5936 O 574.484 1.83611 0.057134 0
M  V30 5937 C 574.546 1.30303 -3.35054 0
M  V30 5938 C 574.21 0.414855 -4.55113 0
M  V30 5939 C 575.207 -0.333011 -5.18832 0
M  V30 5940 C 572.892 0.335804 -5.01176 0
M  V30 5941 C 574.886 -1.14801 -6.26976 0
M  V30 5942 C 572.573 -0.482857 -6.09189 0
M  V30 5943 C 573.571 -1.22342 -6.71953 0
M  V30 5944 O 573.259 -2.02855 -7.77885 0
M  V30 5945 H 572.991 0.163249 -0.655992 0
M  V30 5946 H 575.545 -0.1582 -2.0479 0
M  V30 5947 H 573.775 2.0962 -3.24956 0
M  V30 5948 H 575.464 1.87041 -3.60237 0
M  V30 5949 H 576.23 -0.281611 -4.84182 0
M  V30 5950 H 572.109 0.901869 -4.52092 0
M  V30 5951 H 575.653 -1.72654 -6.75897 0
M  V30 5952 H 571.55 -0.535773 -6.43273 0
M  V30 5953 H 572.318 -1.95432 -7.94826 0
M  V30 5954 N 574.981 1.5647 0.188427 0
M  V30 5955 C 575.931 1.91479 1.23774 0
M  V30 5956 C 576.915 0.78119 1.40664 0
M  V30 5957 O 578.107 1.04414 1.42922 0
M  V30 5958 C 575.236 2.26354 2.58106 0
M  V30 5959 C 574.322 3.46186 2.44981 0
M  V30 5960 N 574.713 4.63911 2.01546 0
M  V30 5961 C 573.011 3.50456 2.75856 0
M  V30 5962 C 573.712 5.46064 2.00472 0
M  V30 5963 N 572.688 4.86648 2.42229 0
M  V30 5964 H 576.49 2.79994 0.893339 0
M  V30 5965 H 574.004 1.57477 0.39682 0
M  V30 5966 H 576.001 2.49622 3.33908 0
M  V30 5967 H 574.661 1.39168 2.93364 0
M  V30 5968 H 575.672 4.88451 1.7215 0
M  V30 5969 H 572.349 2.73704 3.15265 0
M  V30 5970 H 573.739 6.50368 1.68734 0
M  V30 5971 N 576.459 -0.456382 1.50847 0
M  V30 5972 C 577.389 -1.56025 1.73719 0
M  V30 5973 C 578.37 -1.5967 0.586473 0
M  V30 5974 O 579.555 -1.75702 0.827185 0
M  V30 5975 C 576.685 -2.94251 1.84483 0
M  V30 5976 C 575.639 -3.05471 2.99786 0
M  V30 5977 C 574.965 -4.45489 2.95709 0
M  V30 5978 C 576.265 -2.81318 4.40065 0
M  V30 5979 H 577.959 -1.37138 2.66146 0
M  V30 5980 H 575.505 -0.658299 1.28072 0
M  V30 5981 H 577.458 -3.71417 1.99067 0
M  V30 5982 H 576.182 -3.14328 0.886891 0
M  V30 5983 H 574.841 -2.30741 2.84876 0
M  V30 5984 H 574.489 -4.62505 1.97732 0
M  V30 5985 H 574.189 -4.53929 3.73125 0
M  V30 5986 H 575.713 -5.24655 3.12362 0
M  V30 5987 H 577.127 -3.48226 4.55425 0
M  V30 5988 H 575.524 -3.01188 5.19043 0
M  V30 5989 H 576.594 -1.7706 4.51418 0
M  V30 5990 N 577.937 -1.40673 -0.710563 0
M  V30 5991 C 579.185 -1.38947 -1.46759 0
M  V30 5992 C 579.506 0.00572879 -1.94999 0
M  V30 5993 O 578.776 0.961358 -1.70689 0
M  V30 5994 H 577.356 -0.5114 -0.544499 0
M  V30 5995 H 580.018 -1.75773 -0.842012 0
M  V30 5996 H 579.114 -2.06745 -2.33801 0
M  V30 5997 N 579.415 0.9433 -1.26252 0
M  V30 5998 C 580.826 1.50404 -1.10614 0
M  V30 5999 C 581.177 1.93666 0.31429 0
M  V30 6000 O 580.302 1.79709 1.20555 0
M  V30 6001 C 580.897 2.73336 -2.00182 0
M  V30 6002 C 579.456 3.25686 -1.88695 0
M  V30 6003 C 578.603 1.98474 -1.93658 0
M  V30 6004 H 581.554 0.759006 -1.39373 0
M  V30 6005 H 581.575 3.47567 -1.54847 0
M  V30 6006 H 581.087 2.41818 -3.03555 0
M  V30 6007 H 579.188 3.61998 -0.882489 0
M  V30 6008 H 579.301 3.92935 -2.74115 0
M  V30 6009 H 577.665 2.14278 -1.37684 0
M  V30 6010 H 578.448 1.6929 -2.98657 0
M  V30 6011 N 580.893 1.08022 1.14757 0
M  V30 6012 C 582.141 0.805913 1.85336 0
M  V30 6013 C 582.462 -0.670162 1.83122 0
M  V30 6014 O 581.732 -1.48567 1.2769 0
M  V30 6015 H 580.312 0.295138 0.686223 0
M  V30 6016 H 582.974 1.36538 1.3908 0
M  V30 6017 H 582.07 1.14655 2.90277 0
M  V30 6018 N 582.371 -1.3172 0.865308 0
M  V30 6019 C 583.782 -1.79104 0.527126 0
M  V30 6020 C 584.133 -1.7135 -0.955695 0
M  V30 6021 O 583.258 -1.27845 -1.74598 0
M  V30 6022 C 583.853 -3.25207 0.950061 0
M  V30 6023 C 582.412 -3.70504 0.663611 0
M  V30 6024 C 581.559 -2.52605 1.14395 0
M  V30 6025 H 584.51 -1.18868 1.05148 0
M  V30 6026 H 584.531 -3.79535 0.270805 0
M  V30 6027 H 584.043 -3.30818 2.02931 0
M  V30 6028 H 582.144 -3.70398 -0.404474 0
M  V30 6029 H 582.257 -4.62845 1.23737 0
M  V30 6030 H 580.621 -2.4838 0.563859 0
M  V30 6031 H 581.404 -2.60964 2.23053 0
M  V30 6032 N 583.85 -0.624285 -1.44708 0
M  V30 6033 C 585.266 -0.289322 -1.56956 0
M  V30 6034 C 585.466 1.20773 -1.61295 0
M  V30 6035 O 584.522 1.9915 -1.55227 0
M  V30 6036 C 585.835 -0.975215 -2.84447 0
M  V30 6037 C 587.383 -0.952709 -2.98148 0
M  V30 6038 C 587.858 -1.61893 -4.28433 0
M  V30 6039 N 589.349 -1.5852 -4.35231 0
M  V30 6040 C 590.084 -2.06969 -5.34744 0
M  V30 6041 N 589.58 -2.63579 -6.40701 0
M  V30 6042 N 591.373 -1.97638 -5.26209 0
M  V30 6043 H 583.524 -1.59612 -1.40135 0
M  V30 6044 H 585.787 -0.669592 -0.671081 0
M  V30 6045 H 585.493 -2.02999 -2.87201 0
M  V30 6046 H 585.367 -0.508749 -3.73753 0
M  V30 6047 H 587.754 0.093568 -2.94952 0
M  V30 6048 H 587.835 -1.4576 -2.10209 0
M  V30 6049 H 587.479 -2.66463 -4.32389 0
M  V30 6050 H 587.409 -1.08893 -5.15218 0
M  V30 6051 H 589.899 -1.17183 -3.59272 0
M  V30 6052 H 590.213 -2.98298 -7.12908 0
M  V30 6053 H 588.558 -2.67626 -6.41406 0
M  V30 6054 H 591.749 -1.5314 -4.42341 0
M  V30 6055 H 591.922 -2.35708 -6.03611 0
M  V30 6056 N 585.328 1.53329 -0.364422 0
M  V30 6057 C 586.258 2.28627 0.474543 0
M  V30 6058 C 587.239 1.31009 1.08492 0
M  V30 6059 O 588.424 1.59878 1.10239 0
M  V30 6060 C 585.554 3.07465 1.61501 0
M  V30 6061 C 584.508 4.1276 1.13194 0
M  V30 6062 C 583.834 4.79674 2.36255 0
M  V30 6063 C 585.134 5.21847 0.217507 0
M  V30 6064 H 586.828 2.99005 -0.153656 0
M  V30 6065 H 584.374 1.43803 -0.0753406 0
M  V30 6066 H 586.327 3.58889 2.20855 0
M  V30 6067 H 585.051 2.34775 2.27042 0
M  V30 6068 H 583.71 3.62281 0.56109 0
M  V30 6069 H 583.358 4.03557 3.00251 0
M  V30 6070 H 583.058 5.50827 2.04606 0
M  V30 6071 H 584.582 5.33892 2.96297 0
M  V30 6072 H 585.996 5.6878 0.718493 0
M  V30 6073 H 584.393 6.00099 -0.00806408 0
M  V30 6074 H 585.463 4.7921 -0.740653 0
M  V30 6075 N 586.806 0.0935595 1.57322 0
M  V30 6076 C 588.222 -0.263091 1.57417 0
M  V30 6077 C 588.422 -1.68526 1.1046 0
M  V30 6078 O 587.478 -2.40139 0.780357 0
M  V30 6079 C 588.791 -0.0529201 3.00653 0
M  V30 6080 C 590.339 -0.120788 3.12767 0
M  V30 6081 C 590.814 0.0613707 4.57959 0
M  V30 6082 N 592.305 0.00648534 4.632 0
M  V30 6083 C 593.04 0.122699 5.73269 0
M  V30 6084 N 592.536 0.29366 6.92177 0
M  V30 6085 N 594.329 0.0640787 5.62063 0
M  V30 6086 H 586.48 1.02277 1.86154 0
M  V30 6087 H 588.743 0.4007 0.859153 0
M  V30 6088 H 588.449 0.929279 3.39201 0
M  V30 6089 H 588.323 -0.795899 3.68708 0
M  V30 6090 H 590.71 -1.09349 2.74093 0
M  V30 6091 H 590.791 0.653656 2.47307 0
M  V30 6092 H 590.435 1.03093 4.97327 0
M  V30 6093 H 590.365 -0.732748 5.21477 0
M  V30 6094 H 592.856 -0.123173 3.77699 0
M  V30 6095 H 593.169 0.37389 7.71895 0
M  V30 6096 H 591.514 0.329307 6.94219 0
M  V30 6097 H 594.705 -0.0683396 4.6805 0
M  V30 6098 H 594.878 0.158097 6.47807 0
M  V30 6099 N 588.284 -1.56567 -0.180126 0
M  V30 6100 C 589.214 -1.98753 -1.22553 0
M  V30 6101 C 590.195 -0.86175 -1.46656 0
M  V30 6102 O 591.38 -1.12719 -1.58139 0
M  V30 6103 C 588.51 -2.33988 -2.56645 0
M  V30 6104 C 587.464 -3.49445 -2.47128 0
M  V30 6105 C 586.79 -3.70397 -3.8563 0
M  V30 6106 C 588.09 -4.83171 -1.98352 0
M  V30 6107 H 589.784 -2.86332 -0.874896 0
M  V30 6108 H 587.33 -1.37757 -0.419414 0
M  V30 6109 H 589.283 -2.62097 -3.29974 0
M  V30 6110 H 588.007 -1.43309 -2.93479 0
M  V30 6111 H 586.666 -3.2145 -1.76254 0
M  V30 6112 H 586.314 -2.77023 -4.19842 0
M  V30 6113 H 586.014 -4.48077 -3.80132 0
M  V30 6114 H 587.538 -4.00897 -4.60558 0
M  V30 6115 H 588.952 -5.10213 -2.61449 0
M  V30 6116 H 587.349 -5.64425 -2.03823 0
M  V30 6117 H 588.419 -4.75753 -0.937402 0
M  V30 6118 N 589.762 0.448376 -1.51087 0
M  V30 6119 C 591.008 1.20049 -1.6345 0
M  V30 6120 C 591.341 1.91121 -0.344444 0
M  V30 6121 O 590.616 1.83125 0.655396 0
M  V30 6122 C 590.899 2.22624 -2.83038 0
M  V30 6123 C 590.752 1.55708 -4.21989 0
M  V30 6124 C 592.071 3.23718 -2.98152 0
M  V30 6125 H 589.19 0.435085 -0.59487 0
M  V30 6126 H 591.832 0.491183 -1.83541 0
M  V30 6127 H 589.982 2.83117 -2.66039 0
M  V30 6128 H 591.654 0.986367 -4.50631 0
M  V30 6129 H 589.897 0.859647 -4.25197 0
M  V30 6130 H 590.568 2.30357 -5.01637 0
M  V30 6131 H 593.044 2.73269 -3.13788 0
M  V30 6132 H 591.92 3.92795 -3.83411 0
M  V30 6133 H 592.181 3.89179 -2.09743 0
M  V30 6134 N 591.24 1.41047 0.703093 0
M  V30 6135 C 592.486 1.40207 1.46526 0
M  V30 6136 C 592.819 0.00847763 1.94198 0
M  V30 6137 O 592.094 -0.962437 1.69019 0
M  V30 6138 C 592.377 2.40238 2.6825 0
M  V30 6139 C 592.23 3.88674 2.26391 0
M  V30 6140 C 593.549 2.37627 3.70434 0
M  V30 6141 H 590.668 0.510594 0.531472 0
M  V30 6142 H 593.31 1.72271 0.801422 0
M  V30 6143 H 591.46 2.13026 3.24888 0
M  V30 6144 H 593.132 4.2676 1.75138 0
M  V30 6145 H 591.375 4.03903 1.58255 0
M  V30 6146 H 592.046 4.542 3.13698 0
M  V30 6147 H 594.522 2.61759 3.23452 0
M  V30 6148 H 593.398 3.09645 4.53223 0
M  V30 6149 H 593.659 1.39223 4.19606 0
M  V30 6150 N 592.718 -0.936591 1.26751 0
M  V30 6151 C 593.666 -2.0573 1.08527 0
M  V30 6152 C 594.66 -1.69397 0.0108784 0
M  V30 6153 O 595.866 -1.79215 0.167915 0
M  V30 6154 H 592.241 -0.673691 0.334133 0
M  V30 6155 H 594.212 -2.1825 2.03493 0
M  V30 6156 C 592.961 -3.39738 0.739845 0
M  V30 6157 H 592.284 -3.68174 1.55845 0
M  V30 6158 H 593.724 -4.18955 0.652149 0
M  V30 6159 C 592.183 -3.32292 -0.555288 0
M  V30 6160 O 592.713 -3.68794 -1.59229 0
M  V30 6161 N 590.919 -2.85394 -0.54762 0
M  V30 6162 H 590.466 -2.55886 0.296667 0
M  V30 6163 H 590.424 -2.80795 -1.41427 0
M  V30 6164 N 594.196 -1.08629 -1.14182 0
M  V30 6165 C 595.144 -0.71284 -2.21408 0
M  V30 6166 C 596.138 0.282457 -1.67029 0
M  V30 6167 O 597.344 0.144783 -1.79417 0
M  V30 6168 H 593.719 -0.212497 -0.721352 0
M  V30 6169 H 595.69 -1.6265 -2.50175 0
M  V30 6170 C 594.439 -0.140704 -3.47415 0
M  V30 6171 H 593.762 -0.897739 -3.8959 0
M  V30 6172 H 595.202 0.0827677 -4.23919 0
M  V30 6173 C 593.661 1.122 -3.17668 0
M  V30 6174 O 594.191 2.20652 -3.35672 0
M  V30 6175 N 592.397 1.03328 -2.71609 0
M  V30 6176 H 591.944 0.150666 -2.57159 0
M  V30 6177 H 591.902 1.8789 -2.52081 0
M  V30 6178 N 595.674 1.31259 -0.872281 0
M  V30 6179 C 596.624 2.26 -0.301295 0
M  V30 6180 C 597.608 1.50729 0.562991 0
M  V30 6181 O 598.8 1.72198 0.40949 0
M  V30 6182 C 595.929 3.39724 0.494227 0
M  V30 6183 C 595.015 4.22363 -0.383432 0
M  V30 6184 N 595.406 4.83724 -1.47799 0
M  V30 6185 C 593.704 4.45652 -0.176278 0
M  V30 6186 C 594.405 5.45523 -2.01939 0
M  V30 6187 N 593.381 5.27428 -1.31608 0
M  V30 6188 H 597.183 2.70981 -1.13782 0
M  V30 6189 H 594.697 1.45552 -0.720294 0
M  V30 6190 H 596.694 4.06626 0.919828 0
M  V30 6191 H 595.354 2.96286 1.32834 0
M  V30 6192 H 596.365 4.83313 -1.8609 0
M  V30 6193 H 593.042 4.12845 0.621698 0
M  V30 6194 H 594.432 6.04268 -2.93786 0
M  V30 6195 N 597.152 0.631951 1.44375 0
M  V30 6196 C 598.568 0.297642 1.568 0
M  V30 6197 C 598.768 -1.19916 1.61934 0
M  V30 6198 O 597.824 -1.98324 1.56281 0
M  V30 6199 C 599.137 0.990286 2.83926 0
M  V30 6200 C 600.685 0.968507 2.97639 0
M  V30 6201 C 601.16 1.64163 4.27568 0
M  V30 6202 N 602.651 1.60826 4.34384 0
M  V30 6203 C 603.386 2.09802 5.33639 0
M  V30 6204 N 602.882 2.66973 6.39294 0
M  V30 6205 N 604.675 2.00426 5.25153 0
M  V30 6206 H 596.826 1.60353 1.39286 0
M  V30 6207 H 599.089 0.673142 0.667521 0
M  V30 6208 H 598.795 2.04519 2.8612 0
M  V30 6209 H 598.669 0.528563 3.73478 0
M  V30 6210 H 601.056 -0.0779247 2.94997 0
M  V30 6211 H 601.137 1.46873 2.09433 0
M  V30 6212 H 600.781 2.68752 4.3097 0
M  V30 6213 H 600.711 1.11624 5.14634 0
M  V30 6214 H 603.202 1.19087 3.58646 0
M  V30 6215 H 603.515 3.02074 7.11316 0
M  V30 6216 H 601.86 2.71024 6.39977 0
M  V30 6217 H 605.051 1.55483 4.41523 0
M  V30 6218 H 605.224 2.38906 6.02352 0
M  V30 6219 N 598.631 -1.53133 0.372548 0
M  V30 6220 C 599.859 -2.05774 -0.215515 0
M  V30 6221 C 600.274 -1.24555 -1.41886 0
M  V30 6222 O 599.631 -0.287951 -1.80214 0
M  V30 6223 C 599.682 -3.5645 -0.602161 0
M  V30 6224 O 599.403 -4.34591 0.553359 0
M  V30 6225 C 600.904 -4.25374 -1.24787 0
M  V30 6226 H 598.124 -0.670009 -0.0364529 0
M  V30 6227 H 600.668 -1.97434 0.532934 0
M  V30 6228 H 598.823 -3.64918 -1.30052 0
M  V30 6229 H 599.237 -5.23954 0.239336 0
M  V30 6230 H 600.711 -5.32097 -1.46891 0
M  V30 6231 H 601.188 -3.79531 -2.21026 0
M  V30 6232 H 601.794 -4.21177 -0.590752 0
M  V30 6233 N 600.109 -0.101901 -1.5727 0
M  V30 6234 C 601.334 0.571759 -1.99363 0
M  V30 6235 C 601.759 1.60507 -0.980768 0
M  V30 6236 O 601.117 1.81231 0.0498517 0
M  V30 6237 C 601.165 1.18996 -3.404 0
M  V30 6238 O 600.269 2.30572 -3.41922 0
M  V30 6239 H 599.61 0.144449 -0.648098 0
M  V30 6240 H 602.14 -0.185325 -2.03759 0
M  V30 6241 H 602.15 1.52962 -3.78241 0
M  V30 6242 H 600.825 0.432984 -4.1364 0
M  V30 6243 H 599.402 1.98173 -3.15883 0
M  V30 6244 N 601.587 1.56661 0.17182 0
M  V30 6245 C 602.815 1.861 0.904115 0
M  V30 6246 C 603.23 0.687227 1.75848 0
M  V30 6247 O 602.587 -0.343671 1.79235 0
M  V30 6248 C 602.638 3.14568 1.78127 0
M  V30 6249 O 602.359 4.27422 0.961366 0
M  V30 6250 C 603.86 3.5735 2.62327 0
M  V30 6251 H 601.08 0.617445 0.262684 0
M  V30 6252 H 603.624 2.03775 0.172068 0
M  V30 6253 H 601.779 2.98721 2.46666 0
M  V30 6254 H 602.193 5.00725 1.56123 0
M  V30 6255 H 603.667 4.50144 3.1949 0
M  V30 6256 H 604.144 2.81445 3.37173 0
M  V30 6257 H 604.75 3.75807 1.99121 0
M  V30 6258 N 603.065 -0.440357 1.51323 0
M  V30 6259 C 604.476 -1.02032 1.56353 0
M  V30 6260 C 604.827 -1.92382 0.385197 0
M  V30 6261 O 603.952 -2.10583 -0.498373 0
M  V30 6262 C 604.547 -1.85723 2.83359 0
M  V30 6263 C 603.106 -2.38774 2.90971 0
M  V30 6264 C 602.253 -1.17908 2.50984 0
M  V30 6265 H 605.204 -0.221744 1.57143 0
M  V30 6266 H 605.225 -2.71141 2.66951 0
M  V30 6267 H 604.737 -1.19939 3.69102 0
M  V30 6268 H 602.838 -3.08021 2.09651 0
M  V30 6269 H 602.951 -2.71778 3.94555 0
M  V30 6270 H 601.315 -1.52347 2.04114 0
M  V30 6271 H 602.098 -0.537393 3.39068 0
M  V30 6272 N 604.543 -1.41418 -0.695603 0
M  V30 6273 C 605.792 -1.40073 -1.4513 0
M  V30 6274 C 606.105 -0.0130439 -1.95596 0
M  V30 6275 O 607.311 0.123032 -2.71221 0
M  V30 6276 C 605.767 -2.46286 -2.62433 0
M  V30 6277 C 605.375 -3.90962 -2.18753 0
M  V30 6278 C 607.119 -2.54077 -3.40066 0
M  V30 6279 C 605.026 -4.88728 -3.33015 0
M  V30 6280 H 603.956 -0.520903 -0.545138 0
M  V30 6281 H 606.607 -1.67242 -0.75515 0
M  V30 6282 H 604.989 -2.12248 -3.34315 0
M  V30 6283 H 606.163 -4.34248 -1.54161 0
M  V30 6284 H 604.478 -3.86831 -1.54114 0
M  V30 6285 H 607.075 -3.24303 -4.25125 0
M  V30 6286 H 607.418 -1.5776 -3.8525 0
M  V30 6287 H 607.951 -2.87206 -2.75241 0
M  V30 6288 H 604.69 -5.86449 -2.92844 0
M  V30 6289 H 604.21 -4.50091 -3.96457 0
M  V30 6290 H 605.889 -5.09483 -3.98793 0
M  V30 6291 N 606.021 0.929856 -1.27246 0
M  V30 6292 C 606.969 2.05151 -1.09616 0
M  V30 6293 C 607.963 1.69388 -0.0198617 0
M  V30 6294 O 609.169 1.79124 -0.177417 0
M  V30 6295 H 605.544 0.671909 -0.337701 0
M  V30 6296 H 607.515 2.17168 -2.04648 0
M  V30 6297 C 606.264 3.3934 -0.757851 0
M  V30 6298 H 605.587 3.67343 -1.57795 0
M  V30 6299 H 607.027 4.18603 -0.674358 0
M  V30 6300 C 605.486 3.32582 0.537658 0
M  V30 6301 O 606.016 3.69633 1.57271 0
M  V30 6302 N 604.222 2.8568 0.532478 0
M  V30 6303 H 603.769 2.55725 -0.310233 0
M  V30 6304 H 603.727 2.81541 1.39936 0
M  V30 6305 N 607.499 1.09233 1.13605 0
M  V30 6306 C 608.447 0.724572 2.21027 0
M  V30 6307 C 609.441 -0.273595 1.67176 0
M  V30 6308 O 610.647 -0.135266 1.79491 0
M  V30 6309 H 607.022 0.216319 0.720215 0
M  V30 6310 H 608.993 1.63975 2.49309 0
M  V30 6311 C 607.742 0.159126 3.47336 0
M  V30 6312 H 607.065 0.918387 3.89109 0
M  V30 6313 H 608.505 -0.0602851 4.23957 0
M  V30 6314 C 606.964 -1.10514 3.18258 0
M  V30 6315 O 607.494 -2.18869 3.36837 0
M  V30 6316 N 605.7 -1.01886 2.72154 0
M  V30 6317 H 605.247 -0.137027 2.57235 0
M  V30 6318 H 605.205 -1.8655 2.53074 0
M  V30 6319 N 608.977 -1.30795 0.87923 0
M  V30 6320 C 610.226 -1.95636 0.490875 0
M  V30 6321 C 610.539 -1.70214 -0.963674 0
M  V30 6322 O 611.745 -2.28991 -1.45861 0
M  V30 6323 C 610.201 -3.50271 0.826929 0
M  V30 6324 C 609.809 -3.84521 2.29886 0
M  V30 6325 C 611.553 -4.21456 0.507494 0
M  V30 6326 C 609.46 -5.32309 2.57685 0
M  V30 6327 H 608.39 -0.732238 0.179841 0
M  V30 6328 H 611.041 -1.48829 1.07341 0
M  V30 6329 H 609.423 -3.9562 0.173542 0
M  V30 6330 H 610.597 -3.50102 2.99609 0
M  V30 6331 H 608.912 -3.26425 2.58526 0
M  V30 6332 H 611.509 -5.30199 0.692293 0
M  V30 6333 H 611.852 -4.12614 -0.552718 0
M  V30 6334 H 612.385 -3.81772 1.11782 0
M  V30 6335 H 609.124 -5.46195 3.62424 0
M  V30 6336 H 608.644 -5.68048 1.92566 0
M  V30 6337 H 610.323 -5.99678 2.42889 0
M  V30 6338 N 610.455 -0.639598 -1.44038 0
M  V30 6339 C 611.702 -0.14748 -2.01962 0
M  V30 6340 C 612.03 1.23372 -1.50365 0
M  V30 6341 O 611.285 1.8345 -0.681501 0
M  V30 6342 C 611.584 -0.0925348 -3.5728 0
M  V30 6343 C 611.25 -1.41365 -4.28167 0
M  V30 6344 C 609.912 -1.77545 -4.47248 0
M  V30 6345 C 612.264 -2.2853 -4.68427 0
M  V30 6346 C 609.592 -3.00583 -5.03852 0
M  V30 6347 C 611.944 -3.50846 -5.26393 0
M  V30 6348 C 610.608 -3.8724 -5.43692 0
M  V30 6349 H 609.878 -0.0539666 -0.739032 0
M  V30 6350 H 612.525 -0.827599 -1.72694 0
M  V30 6351 H 610.83 0.670987 -3.86012 0
M  V30 6352 H 612.527 0.304891 -3.99839 0
M  V30 6353 H 609.117 -1.1221 -4.13651 0
M  V30 6354 H 613.301 -2.0187 -4.5339 0
M  V30 6355 H 608.557 -3.28846 -5.15432 0
M  V30 6356 H 612.731 -4.18616 -5.56537 0
M  V30 6357 H 610.358 -4.8266 -5.87319 0
M  V30 6358 N 611.933 1.52934 -0.380664 0
M  V30 6359 C 613.181 2.01069 0.203874 0
M  V30 6360 C 613.502 1.26922 1.4804 0
M  V30 6361 O 612.772 0.386787 1.92044 0
M  V30 6362 H 611.352 0.742882 0.0783279 0
M  V30 6363 H 614.014 1.88099 -0.510368 0
M  V30 6364 H 613.11 3.09258 0.42021 0
M  V30 6365 N 613.412 0.11024 1.57214 0
M  V30 6366 C 614.652 -0.553061 1.96775 0
M  V30 6367 C 615.016 -1.64403 0.991753 0
M  V30 6368 O 616.217 -2.36561 1.27642 0
M  V30 6369 C 614.488 -1.08004 3.4069 0
M  V30 6370 S 616.047 -1.75309 4.02259 0
M  V30 6371 H 612.865 -0.18003 0.68783 0
M  V30 6372 H 615.467 0.193242 1.94543 0
M  V30 6373 H 614.171 -0.274735 4.09479 0
M  V30 6374 H 613.702 -1.86182 3.46554 0
M  V30 6375 H 615.717 -3.03834 3.923 0
M  V30 6376 N 614.89 -1.56749 -0.16351 0
M  V30 6377 C 616.139 -1.81626 -0.877211 0
M  V30 6378 C 616.452 -0.688791 -1.83071 0
M  V30 6379 O 617.658 -0.822697 -2.58735 0
M  V30 6380 C 616.114 -3.21858 -1.61045 0
M  V30 6381 C 615.722 -4.42494 -0.700195 0
M  V30 6382 C 617.466 -3.56021 -2.31192 0
M  V30 6383 C 615.373 -5.73748 -1.43412 0
M  V30 6384 H 614.303 -0.67731 -0.331312 0
M  V30 6385 H 616.954 -1.83039 -0.13006 0
M  V30 6386 H 615.336 -3.14784 -2.40264 0
M  V30 6387 H 616.51 -4.60766 0.0555849 0
M  V30 6388 H 614.825 -4.1626 -0.10799 0
M  V30 6389 H 617.422 -4.51333 -2.8671 0
M  V30 6390 H 617.765 -2.81277 -3.06902 0
M  V30 6391 H 618.298 -3.64682 -1.58909 0
M  V30 6392 H 615.037 -6.51543 -0.719186 0
M  V30 6393 H 614.557 -5.5944 -2.16302 0
M  V30 6394 H 616.236 -6.15975 -1.9795 0
M  V30 6395 N 616.368 0.432326 -1.51554 0
M  V30 6396 C 617.278 1.55023 -1.76082 0
M  V30 6397 C 618.294 1.61593 -0.645265 0
M  V30 6398 O 619.47 1.78742 -0.928086 0
M  V30 6399 C 616.535 2.90964 -1.88523 0
M  V30 6400 C 615.596 2.9447 -3.12388 0
M  V30 6401 C 614.829 4.23926 -3.24225 0
M  V30 6402 O 615.052 5.16576 -2.4188 0
M  V30 6403 O 613.986 4.33818 -4.17235 0
M  V30 6404 H 617.812 1.37238 -2.70923 0
M  V30 6405 H 615.397 0.615845 -1.36117 0
M  V30 6406 H 617.279 3.71633 -1.98662 0
M  V30 6407 H 615.954 3.08865 -0.9687 0
M  V30 6408 H 614.861 2.12737 -3.07723 0
M  V30 6409 H 616.194 2.81514 -4.03746 0
M  V30 6410 N 617.846 1.41785 0.688094 0
M  V30 6411 C 619.094 1.41264 1.4453 0
M  V30 6412 C 619.415 0.0252946 1.94984 0
M  V30 6413 O 618.685 -0.934081 1.72197 0
M  V30 6414 H 617.265 0.519998 0.536294 0
M  V30 6415 H 619.927 1.7709 0.813941 0
M  V30 6416 H 619.023 2.10439 2.30482 0
M  V30 6417 N 619.324 -0.923095 1.27737 0
M  V30 6418 C 620.74 -1.19985 1.05241 0
M  V30 6419 C 620.94 -2.00391 -0.21113 0
M  V30 6420 O 619.996 -2.35324 -0.915366 0
M  V30 6421 C 621.309 -1.94352 2.29451 0
M  V30 6422 C 622.857 -2.07273 2.34536 0
M  V30 6423 C 623.332 -2.85046 3.58487 0
M  V30 6424 N 624.823 -2.92612 3.59072 0
M  V30 6425 C 625.558 -3.53266 4.51654 0
M  V30 6426 N 625.054 -4.15274 5.54545 0
M  V30 6427 N 626.847 -3.50714 4.39268 0
M  V30 6428 H 618.998 -0.386042 2.08862 0
M  V30 6429 H 621.261 -0.233407 0.918817 0
M  V30 6430 H 620.967 -1.42692 3.21453 0
M  V30 6431 H 620.841 -2.94947 2.3513 0
M  V30 6432 H 623.228 -2.58117 1.43037 0
M  V30 6433 H 623.309 -1.05884 2.32857 0
M  V30 6434 H 622.953 -2.34884 4.50324 0
M  V30 6435 H 622.883 -3.8673 3.57418 0
M  V30 6436 H 625.374 -2.48547 2.84663 0
M  V30 6437 H 625.687 -4.59507 6.21348 0
M  V30 6438 H 624.032 -4.13806 5.58382 0
M  V30 6439 H 627.223 -3.01475 3.58093 0
M  V30 6440 H 627.396 -3.97693 5.1161 0
M  V30 6441 N 620.802 -1.09834 -1.13024 0
M  V30 6442 C 622.027 -0.85909 -1.88771 0
M  V30 6443 C 622.452 0.584402 -1.78791 0
M  V30 6444 O 621.81 1.41101 -1.13842 0
M  V30 6445 C 621.858 -1.30427 -3.36186 0
M  V30 6446 O 620.962 -0.465368 -4.09766 0
M  V30 6447 H 620.303 -0.310786 -0.586778 0
M  V30 6448 H 622.833 -1.46355 -1.42973 0
M  V30 6449 H 622.843 -1.2915 -3.8702 0
M  V30 6450 H 621.518 -2.3555 -3.42767 0
M  V30 6451 H 620.095 -0.542814 -3.68928 0
M  V30 6452 N 622.28 1.30327 -0.886154 0
M  V30 6453 C 623.19 2.31854 -0.357866 0
M  V30 6454 C 624.206 1.65392 0.540502 0
M  V30 6455 O 625.382 1.96683 0.433339 0
M  V30 6456 C 622.447 3.44171 0.417999 0
M  V30 6457 C 621.508 4.26257 -0.510263 0
M  V30 6458 C 620.741 5.3321 0.228669 0
M  V30 6459 O 620.964 5.51542 1.45458 0
M  V30 6460 O 619.898 6.0042 -0.421832 0
M  V30 6461 H 623.724 2.78995 -1.19982 0
M  V30 6462 H 621.309 1.34518 -0.650028 0
M  V30 6463 H 623.191 4.12588 0.857251 0
M  V30 6464 H 621.866 2.99164 1.23623 0
M  V30 6465 H 620.773 3.60533 -0.99835 0
M  V30 6466 H 622.106 4.74871 -1.29454 0
M  V30 6467 N 623.758 0.647228 1.43697 0
M  V30 6468 C 625.169 0.238689 1.85168 0
M  V30 6469 C 625.52 -1.21345 1.54175 0
M  V30 6470 O 624.645 -1.92542 0.987743 0
M  V30 6471 C 625.24 0.426422 3.36106 0
M  V30 6472 C 623.799 0.0722541 3.76331 0
M  V30 6473 C 622.946 0.732153 2.6746 0
M  V30 6474 H 625.897 0.851309 1.33934 0
M  V30 6475 H 625.918 -0.32987 3.79067 0
M  V30 6476 H 625.43 1.48339 3.58632 0
M  V30 6477 H 623.531 -0.982355 3.59417 0
M  V30 6478 H 623.644 0.493541 4.76551 0
M  V30 6479 H 622.008 0.16594 2.54159 0
M  V30 6480 H 622.791 1.79204 2.92816 0
M  V30 6481 N 625.236 -1.5273 0.388769 0
M  V30 6482 C 626.513 -1.93981 -0.251133 0
M  V30 6483 C 626.893 -1.32418 -1.64404 0
M  V30 6484 O 626.241 -0.492074 -2.23139 0
M  V30 6485 C 626.451 -3.47891 -0.27802 0
M  V30 6486 C 627.799 -4.21559 -0.507229 0
M  V30 6487 O 628.823 -3.54394 -0.358252 0
M  V30 6488 O 627.682 -5.40626 -0.799094 0
M  V30 6489 H 624.776 -0.812157 -0.15598 0
M  V30 6490 H 627.322 -1.63809 0.443237 0
M  V30 6491 H 626.094 -3.8503 0.697669 0
M  V30 6492 H 625.717 -3.84364 -1.01733 0
M  V30 6493 N 626.714 -0.118576 -1.57153 0
M  V30 6494 C 627.664 0.842924 -2.11846 0
M  V30 6495 C 628.648 1.22845 -1.03914 0
M  V30 6496 O 629.84 1.19961 -1.30148 0
M  V30 6497 C 626.969 2.09312 -2.72109 0
M  V30 6498 C 626.055 1.73198 -3.87122 0
M  V30 6499 N 626.446 1.07758 -4.94188 0
M  V30 6500 C 624.744 2.02659 -3.97298 0
M  V30 6501 C 625.445 0.907741 -5.74574 0
M  V30 6502 N 624.421 1.4326 -5.24383 0
M  V30 6503 H 628.223 0.333416 -2.92003 0
M  V30 6504 H 625.737 0.0839073 -1.62183 0
M  V30 6505 H 627.734 2.79162 -3.09635 0
M  V30 6506 H 626.394 2.60807 -1.93416 0
M  V30 6507 H 627.405 0.741613 -5.12563 0
M  V30 6508 H 624.082 2.56204 -3.29645 0
M  V30 6509 H 625.472 0.394112 -6.70743 0
M  V30 6510 N 628.193 1.56834 0.155195 0
M  V30 6511 C 629.423 1.86778 0.883044 0
M  V30 6512 C 629.831 0.703824 1.75622 0
M  V30 6513 O 629.174 -0.33581 1.80605 0
M  V30 6514 C 629.236 3.1133 1.79761 0
M  V30 6515 C 628.9 4.43504 1.10242 0
M  V30 6516 C 629.897 5.17859 0.460204 0
M  V30 6517 C 627.582 4.90233 1.09437 0
M  V30 6518 C 629.576 6.37144 -0.180782 0
M  V30 6519 C 627.263 6.09444 0.449569 0
M  V30 6520 C 628.261 6.82744 -0.186888 0
M  V30 6521 O 627.949 7.99692 -0.821486 0
M  V30 6522 H 627.681 0.62352 0.261149 0
M  V30 6523 H 630.235 2.04813 0.155204 0
M  V30 6524 H 628.465 2.89282 2.56618 0
M  V30 6525 H 630.154 3.27587 2.39669 0
M  V30 6526 H 630.92 4.8283 0.458289 0
M  V30 6527 H 626.799 4.33109 1.57917 0
M  V30 6528 H 630.343 6.94296 -0.678154 0
M  V30 6529 H 626.24 6.43936 0.449123 0
M  V30 6530 H 627.008 8.15306 -0.722337 0
M  V30 6531 N 629.671 -0.424282 1.51781 0
M  V30 6532 C 630.917 -1.17434 1.6534 0
M  V30 6533 C 631.25 -1.90549 0.374806 0
M  V30 6534 O 630.525 -1.84145 -0.626179 0
M  V30 6535 C 630.808 -2.18093 2.86544 0
M  V30 6536 C 630.661 -1.48975 4.24413 0
M  V30 6537 C 631.98 -3.18934 3.03264 0
M  V30 6538 H 629.099 -0.425566 0.601716 0
M  V30 6539 H 631.741 -0.461921 1.84299 0
M  V30 6540 H 629.891 -2.78849 2.7051 0
M  V30 6541 H 631.563 -0.914551 4.52143 0
M  V30 6542 H 629.806 -0.791893 4.26511 0
M  V30 6543 H 630.477 -2.22347 5.05238 0
M  V30 6544 H 632.953 -2.68243 3.18096 0
M  V30 6545 H 631.829 -3.86645 3.89611 0
M  V30 6546 H 632.09 -3.85793 2.15908 0
M  V30 6547 N 631.149 -1.42148 -0.680565 0
M  V30 6548 C 632.395 -1.42521 -1.44277 0
M  V30 6549 C 632.728 -0.0393718 -1.9416 0
M  V30 6550 O 632.003 0.935425 -1.70529 0
M  V30 6551 C 632.286 -2.44475 -2.64394 0
M  V30 6552 C 632.139 -3.92226 -2.20179 0
M  V30 6553 C 633.458 -2.43491 -3.66606 0
M  V30 6554 H 630.577 -0.518985 -0.523282 0
M  V30 6555 H 633.219 -1.73524 -0.773914 0
M  V30 6556 H 631.369 -2.18168 -3.21458 0
M  V30 6557 H 633.041 -4.29493 -1.68327 0
M  V30 6558 H 631.284 -4.0637 -1.5181 0
M  V30 6559 H 631.955 -4.59133 -3.06433 0
M  V30 6560 H 634.431 -2.66872 -3.19247 0
M  V30 6561 H 633.307 -3.16816 -4.4824 0
M  V30 6562 H 633.568 -1.45881 -4.17338 0
M  V30 6563 N 632.627 0.916307 -1.28225 0
M  V30 6564 C 633.876 1.65975 -1.14608 0
M  V30 6565 C 634.189 1.93204 0.305191 0
M  V30 6566 O 635.395 2.65611 0.562432 0
M  V30 6567 C 633.851 2.98989 -2.00333 0
M  V30 6568 C 633.459 2.79417 -3.50186 0
M  V30 6569 C 635.203 3.76856 -1.95397 0
M  V30 6570 C 633.11 4.08056 -4.28071 0
M  V30 6571 H 632.04 0.622587 -0.425324 0
M  V30 6572 H 634.691 1.01705 -1.52736 0
M  V30 6573 H 633.073 3.6438 -1.5506 0
M  V30 6574 H 634.247 2.22723 -4.034 0
M  V30 6575 H 632.562 2.14966 -3.56621 0
M  V30 6576 H 635.159 4.72203 -2.50856 0
M  V30 6577 H 635.502 4.05776 -0.930137 0
M  V30 6578 H 636.035 3.1828 -2.38626 0
M  V30 6579 H 632.774 3.8431 -5.31024 0
M  V30 6580 H 632.294 4.64371 -3.79631 0
M  V30 6581 H 633.973 4.76333 -4.37854 0
M  V30 6582 N 634.105 1.10431 1.1244 0
M  V30 6583 C 635.353 0.845045 1.83585 0
M  V30 6584 C 635.674 -0.631168 1.84503 0
M  V30 6585 O 634.944 -1.45825 1.30813 0
M  V30 6586 H 633.524 0.309628 0.679809 0
M  V30 6587 H 636.186 1.39458 1.36153 0
M  V30 6588 H 635.282 1.20786 2.8778 0
M  V30 6589 N 635.583 -1.29855 0.893053 0
M  V30 6590 C 636.546 -2.26183 0.370687 0
M  V30 6591 C 637.546 -1.53108 -0.491385 0
M  V30 6592 O 638.736 -1.71643 -0.297386 0
M  V30 6593 C 635.868 -3.37633 -0.470827 0
M  V30 6594 H 637.061 -2.73903 1.22135 0
M  V30 6595 H 634.614 -1.41183 0.67061 0
M  V30 6596 H 635.349 -2.95241 -1.34175 0
M  V30 6597 H 635.134 -3.91825 0.146784 0
M  V30 6598 H 636.624 -4.09313 -0.827825 0
M  V30 6599 N 637.061 -0.65484 -1.43351 0
M  V30 6600 C 637.993 0.0744757 -2.29079 0
M  V30 6601 C 639.006 0.7855 -1.42596 0
M  V30 6602 O 640.195 0.642986 -1.66517 0
M  V30 6603 C 637.295 1.12859 -3.19556 0
M  V30 6604 C 636.468 0.495381 -4.34586 0
M  V30 6605 C 635.527 1.44659 -5.05925 0
M  V30 6606 O 634.553 0.954567 -5.61139 0
M  V30 6607 N 635.755 2.78051 -5.09576 0
M  V30 6608 H 638.52 -0.661346 -2.92312 0
M  V30 6609 H 636.081 -0.497744 -1.54059 0
M  V30 6610 H 638.073 1.76577 -3.64147 0
M  V30 6611 H 636.643 1.76636 -2.57912 0
M  V30 6612 H 635.863 -0.32092 -3.92892 0
M  V30 6613 H 637.151 0.0534203 -5.08772 0
M  V30 6614 H 636.549 3.20584 -4.66093 0
M  V30 6615 H 635.106 3.37068 -5.57878 0
M  V30 6616 N 638.539 1.52521 -0.396863 0
M  V30 6617 C 639.955 1.5953 -0.0471659 0
M  V30 6618 C 640.155 1.41044 1.43906 0
M  V30 6619 O 639.211 1.23122 2.20448 0
M  V30 6620 C 640.524 2.95972 -0.531113 0
M  V30 6621 C 642.072 3.09172 -0.488024 0
M  V30 6622 C 642.547 4.48075 -0.948281 0
M  V30 6623 N 644.038 4.54281 -0.9046 0
M  V30 6624 C 644.773 5.60007 -1.23205 0
M  V30 6625 N 644.269 6.73343 -1.63036 0
M  V30 6626 N 646.062 5.50151 -1.15282 0
M  V30 6627 H 638.213 1.62786 -1.36435 0
M  V30 6628 H 640.476 0.76514 -0.559701 0
M  V30 6629 H 640.182 3.14741 -1.56942 0
M  V30 6630 H 640.056 3.77143 0.0657922 0
M  V30 6631 H 642.443 2.90095 0.541211 0
M  V30 6632 H 642.524 2.29937 -1.12083 0
M  V30 6633 H 642.168 4.67894 -1.97578 0
M  V30 6634 H 642.098 5.25788 -0.292412 0
M  V30 6635 H 644.589 3.72918 -0.6116 0
M  V30 6636 H 644.902 7.49992 -1.86365 0
M  V30 6637 H 643.247 6.74655 -1.66929 0
M  V30 6638 H 646.438 4.6049 -0.840602 0
M  V30 6639 H 646.611 6.32444 -1.41133 0
M  V30 6640 N 640.017 0.126909 1.57088 0
M  V30 6641 C 641.294 -0.573152 1.87014 0
M  V30 6642 C 641.674 -1.84297 1.02945 0
M  V30 6643 O 641.022 -2.28232 0.110573 0
M  V30 6644 C 641.232 -0.857984 3.38289 0
M  V30 6645 C 642.58 -1.20759 4.07066 0
M  V30 6646 O 643.604 -0.947992 3.43353 0
M  V30 6647 O 642.463 -1.69516 5.19545 0
M  V30 6648 H 639.557 -0.290082 0.774456 0
M  V30 6649 H 642.103 0.162008 1.68925 0
M  V30 6650 H 640.875 0.0415286 3.91278 0
M  V30 6651 H 640.498 -1.64803 3.61837 0
M  V30 6652 N 641.495 -1.56914 -0.146875 0
M  V30 6653 C 642.458 -1.97368 -1.16526 0
M  V30 6654 C 643.458 -0.860223 -1.35856 0
M  V30 6655 O 644.648 -1.12684 -1.32846 0
M  V30 6656 C 641.78 -2.28974 -2.52555 0
M  V30 6657 H 642.973 -2.88523 -0.818209 0
M  V30 6658 H 640.526 -1.5135 -0.390221 0
M  V30 6659 H 641.261 -1.40611 -2.92231 0
M  V30 6660 H 641.046 -3.10157 -2.39886 0
M  V30 6661 H 642.536 -2.61109 -3.25902 0
M  V30 6662 N 642.974 0.416227 -1.52004 0
M  V30 6663 C 644.22 1.16233 -1.66917 0
M  V30 6664 C 644.575 1.8839 -0.390763 0
M  V30 6665 O 643.868 1.81479 0.614478 0
M  V30 6666 C 644.062 2.18923 -2.82502 0
M  V30 6667 C 643.891 1.56849 -4.2146 0
M  V30 6668 C 642.661 1.34426 -4.87091 0
M  V30 6669 C 644.859 1.03322 -5.03815 0
M  V30 6670 N 642.841 0.681703 -6.10103 0
M  V30 6671 C 644.212 0.497165 -6.18003 0
M  V30 6672 C 646.267 0.926997 -4.89194 0
M  V30 6673 C 644.97 -0.134687 -7.19174 0
M  V30 6674 C 646.996 0.309009 -5.90592 0
M  V30 6675 C 646.358 -0.216399 -7.04068 0
M  V30 6676 H 642.457 0.412252 -0.664509 0
M  V30 6677 H 645.041 0.455758 -1.89291 0
M  V30 6678 H 643.212 2.86946 -2.61756 0
M  V30 6679 H 644.944 2.85844 -2.86488 0
M  V30 6680 H 641.699 1.61183 -4.45328 0
M  V30 6681 H 642.123 0.367256 -6.76003 0
M  V30 6682 H 646.765 1.31904 -4.01698 0
M  V30 6683 H 644.483 -0.538811 -8.06302 0
M  V30 6684 H 648.069 0.228438 -5.81351 0
M  V30 6685 H 646.949 -0.687064 -7.81184 0
M  V30 6686 N 644.452 1.42507 0.673017 0
M  V30 6687 C 645.7 1.42789 1.43023 0
M  V30 6688 C 646.021 0.0459738 1.94946 0
M  V30 6689 O 645.291 -0.915765 1.73178 0
M  V30 6690 H 643.871 0.525657 0.530748 0
M  V30 6691 H 646.533 1.77944 0.795113 0
M  V30 6692 H 645.629 2.12872 2.28237 0
M  V30 6693 N 645.93 -0.909495 1.28709 0
M  V30 6694 C 647.341 -1.47419 1.14563 0
M  V30 6695 C 647.692 -1.94432 -0.262832 0
M  V30 6696 O 646.817 -1.82842 -1.15748 0
M  V30 6697 C 647.412 -2.67933 2.07358 0
M  V30 6698 C 645.971 -3.20568 1.97264 0
M  V30 6699 C 645.118 -1.93269 1.98852 0
M  V30 6700 H 648.069 -0.721787 1.41336 0
M  V30 6701 H 648.09 -3.43339 1.64007 0
M  V30 6702 H 647.602 -2.33685 3.09859 0
M  V30 6703 H 645.703 -3.59531 0.978157 0
M  V30 6704 H 645.816 -3.85529 2.84436 0
M  V30 6705 H 644.18 -2.10553 1.43317 0
M  V30 6706 H 644.963 -1.61312 3.0304 0
M  V30 6707 N 647.408 -1.11026 -1.11852 0
M  V30 6708 C 648.656 -0.854769 -1.83134 0
M  V30 6709 C 648.977 0.621375 -1.84835 0
M  V30 6710 O 648.247 1.45129 -1.31584 0
M  V30 6711 H 646.827 -0.313229 -0.678157 0
M  V30 6712 H 649.489 -1.40178 -1.35411 0
M  V30 6713 H 648.585 -1.22311 -2.87135 0
M  V30 6714 N 648.886 1.2938 -0.899927 0
M  V30 6715 C 649.849 2.25983 -0.382677 0
M  V30 6716 C 650.849 1.53366 0.483259 0
M  V30 6717 O 652.039 1.71798 0.28828 0
M  V30 6718 C 649.171 3.37878 0.452915 0
M  V30 6719 H 650.364 2.73252 -1.23586 0
M  V30 6720 H 647.917 1.40825 -0.678088 0
M  V30 6721 H 648.652 2.95949 1.32608 0
M  V30 6722 H 648.437 3.91742 -0.167562 0
M  V30 6723 H 649.927 4.09746 0.806107 0
M  V30 6724 N 650.364 0.662433 1.43002 0
M  V30 6725 C 651.327 -0.0142016 2.29196 0
M  V30 6726 C 652.327 -0.741394 1.42688 0
M  V30 6727 O 653.517 -0.581257 1.64216 0
M  V30 6728 C 650.649 -1.03084 3.24941 0
M  V30 6729 H 651.842 0.7443 2.90517 0
M  V30 6730 H 649.395 0.424133 1.50435 0
M  V30 6731 H 650.13 -1.81826 2.68533 0
M  V30 6732 H 649.915 -0.512946 3.8873 0
M  V30 6733 H 651.405 -1.50308 3.89612 0
M  V30 6734 N 651.842 -1.52309 0.404946 0
M  V30 6735 C 652.789 -2.26898 -0.422597 0
M  V30 6736 C 653.759 -1.2914 -1.04461 0
M  V30 6737 O 654.944 -1.57996 -1.06967 0
M  V30 6738 C 652.084 -3.09053 -1.53559 0
M  V30 6739 C 651.197 -4.21762 -0.934908 0
M  V30 6740 C 650.332 -4.91283 -2.02025 0
M  V30 6741 C 649.371 -5.95962 -1.39628 0
M  V30 6742 N 648.508 -6.59017 -2.42159 0
M  V30 6743 H 653.348 -2.97188 0.219903 0
M  V30 6744 H 650.885 -1.46607 0.120282 0
M  V30 6745 H 652.843 -3.54987 -2.19181 0
M  V30 6746 H 651.473 -2.40942 -2.14818 0
M  V30 6747 H 650.525 -3.80029 -0.167854 0
M  V30 6748 H 651.837 -4.96864 -0.439073 0
M  V30 6749 H 650.991 -5.40601 -2.75383 0
M  V30 6750 H 649.73 -4.15741 -2.54973 0
M  V30 6751 H 648.735 -5.45968 -0.648023 0
M  V30 6752 H 649.96 -6.73445 -0.874553 0
M  V30 6753 H 647.906 -5.86306 -2.94247 0
M  V30 6754 H 647.823 -7.2978 -1.97376 0
M  V30 6755 H 649.091 -7.12974 -3.15099 0
M  V30 6756 N 653.32 -0.135238 -1.57019 0
M  V30 6757 C 654.545 0.529343 -2.00531 0
M  V30 6758 C 654.97 1.58391 -1.01459 0
M  V30 6759 O 654.328 1.81296 0.0113986 0
M  V30 6760 C 654.376 1.11748 -3.42848 0
M  V30 6761 O 653.48 2.23267 -3.46736 0
M  V30 6762 H 652.821 0.130669 -0.651016 0
M  V30 6763 H 655.351 -0.228503 -2.0332 0
M  V30 6764 H 655.361 1.44905 -3.81401 0
M  V30 6765 H 654.036 0.345147 -4.14465 0
M  V30 6766 H 652.613 1.91428 -3.20015 0
M  V30 6767 N 654.798 1.5699 0.138552 0
M  V30 6768 C 655.761 1.97984 1.15478 0
M  V30 6769 C 656.761 0.867416 1.35398 0
M  V30 6770 O 657.951 1.13387 1.32246 0
M  V30 6771 C 655.083 2.3031 2.51337 0
M  V30 6772 H 656.276 2.88953 0.802896 0
M  V30 6773 H 653.829 1.51555 0.382189 0
M  V30 6774 H 654.564 1.42159 2.91481 0
M  V30 6775 H 654.349 3.11425 2.38237 0
M  V30 6776 H 655.839 2.62834 3.24512 0
M  V30 6777 N 656.276 -0.40816 1.52223 0
M  V30 6778 C 657.522 -1.15673 1.66576 0
M  V30 6779 C 657.855 -1.90141 0.394996 0
M  V30 6780 O 657.13 -1.84798 -0.606613 0
M  V30 6781 C 657.413 -2.15042 2.88841 0
M  V30 6782 C 657.266 -1.44465 4.25969 0
M  V30 6783 C 658.585 -3.15699 3.0663 0
M  V30 6784 H 655.704 -0.41916 0.606196 0
M  V30 6785 H 658.346 -0.442348 1.84779 0
M  V30 6786 H 656.496 -2.75964 2.73452 0
M  V30 6787 H 658.168 -0.866544 4.53088 0
M  V30 6788 H 656.411 -0.746612 4.27327 0
M  V30 6789 H 657.082 -2.16976 5.07568 0
M  V30 6790 H 659.558 -2.64854 3.20923 0
M  V30 6791 H 658.434 -3.82491 3.9369 0
M  V30 6792 H 658.695 -3.83481 2.19987 0
M  V30 6793 N 657.755 -1.42862 -0.66545 0
M  V30 6794 C 659.003 -1.43546 -1.42264 0
M  V30 6795 C 659.324 -0.0563116 -1.94919 0
M  V30 6796 O 658.594 0.906568 -1.73661 0
M  V30 6797 H 657.174 -0.528464 -0.527953 0
M  V30 6798 H 659.836 -1.78363 -0.785665 0
M  V30 6799 H 658.932 -2.14079 -2.27105 0
M  V30 6800 N 659.233 0.902656 -1.29189 0
M  V30 6801 C 660.461 1.68639 -1.19869 0
M  V30 6802 C 660.876 1.87254 0.241121 0
M  V30 6803 O 660.233 1.40745 1.16177 0
M  V30 6804 C 660.284 3.07251 -1.90471 0
M  V30 6805 O 660.005 2.89488 -3.28829 0
M  V30 6806 C 661.506 4.01653 -1.8759 0
M  V30 6807 H 658.726 0.526802 -0.415596 0
M  V30 6808 H 661.27 1.12901 -1.7051 0
M  V30 6809 H 659.425 3.59774 -1.43672 0
M  V30 6810 H 659.839 3.77296 -3.64346 0
M  V30 6811 H 661.313 4.96339 -2.4156 0
M  V30 6812 H 661.79 4.30881 -0.850756 0
M  V30 6813 H 662.396 3.55061 -2.34119 0
M  V30 6814 N 660.711 1.11618 1.11262 0
M  V30 6815 C 661.674 0.779447 2.15539 0
M  V30 6816 C 662.674 -0.202081 1.59525 0
M  V30 6817 O 663.864 0.0226356 1.74185 0
M  V30 6818 C 660.996 0.15674 3.40539 0
M  V30 6819 H 662.189 1.70324 2.4684 0
M  V30 6820 H 659.742 0.918298 1.26479 0
M  V30 6821 H 660.477 -0.777186 3.1485 0
M  V30 6822 H 660.262 0.863308 3.82478 0
M  V30 6823 H 661.752 -0.062661 4.17553 0
M  V30 6824 N 662.189 -1.289 0.906776 0
M  V30 6825 C 663.438 -1.9455 0.532262 0
M  V30 6826 C 663.751 -1.72219 -0.927353 0
M  V30 6827 O 664.957 -2.32033 -1.40971 0
M  V30 6828 C 663.413 -3.48438 0.901041 0
M  V30 6829 C 663.021 -3.79558 2.37991 0
M  V30 6830 C 664.765 -4.20284 0.596777 0
M  V30 6831 C 662.672 -5.26723 2.68918 0
M  V30 6832 H 661.602 -0.728259 0.195333 0
M  V30 6833 H 664.253 -1.46519 1.10474 0
M  V30 6834 H 662.635 -3.95162 0.257419 0
M  V30 6835 H 663.809 -3.43668 3.06967 0
M  V30 6836 H 662.124 -3.20868 2.65391 0
M  V30 6837 H 664.721 -5.28612 0.8046 0
M  V30 6838 H 665.064 -4.13694 -0.465072 0
M  V30 6839 H 665.597 -3.79315 1.19855 0
M  V30 6840 H 662.336 -5.38384 3.73928 0
M  V30 6841 H 661.856 -5.63836 2.04571 0
M  V30 6842 H 663.535 -5.94391 2.55555 0
M  V30 6843 N 663.667 -0.670007 -1.42649 0
M  V30 6844 C 664.597 -0.00258501 -2.335 0
M  V30 6845 C 665.578 0.794364 -1.50412 0
M  V30 6846 O 666.763 0.75248 -1.79029 0
M  V30 6847 C 663.893 0.952748 -3.33976 0
M  V30 6848 C 662.847 0.264733 -4.2718 0
M  V30 6849 C 662.173 1.33267 -5.17826 0
M  V30 6850 C 663.473 -0.853289 -5.15283 0
M  V30 6851 H 665.167 -0.761326 -2.89559 0
M  V30 6852 H 662.713 -0.367561 -1.3923 0
M  V30 6853 H 664.666 1.4287 -3.96442 0
M  V30 6854 H 663.39 1.74285 -2.7621 0
M  V30 6855 H 662.049 -0.190938 -3.66102 0
M  V30 6856 H 661.697 2.11464 -4.5639 0
M  V30 6857 H 661.397 0.877476 -5.81011 0
M  V30 6858 H 662.921 1.80965 -5.83167 0
M  V30 6859 H 664.335 -0.458763 -5.71462 0
M  V30 6860 H 662.732 -1.23398 -5.87276 0
M  V30 6861 H 663.802 -1.70412 -4.53969 0
M  V30 6862 N 665.145 1.52092 -0.413018 0
M  V30 6863 C 666.075 2.30021 0.401567 0
M  V30 6864 C 667.056 1.34395 1.04269 0
M  V30 6865 O 668.241 1.63304 1.05097 0
M  V30 6866 C 665.371 3.12447 1.51638 0
M  V30 6867 C 664.325 4.16153 1.00005 0
M  V30 6868 C 663.651 4.86948 2.20875 0
M  V30 6869 C 664.951 5.22275 0.0513757 0
M  V30 6870 H 666.645 2.98365 -0.248704 0
M  V30 6871 H 664.191 1.4349 -0.121052 0
M  V30 6872 H 666.144 3.65733 2.09326 0
M  V30 6873 H 664.868 2.41879 2.19458 0
M  V30 6874 H 663.527 3.63882 0.445549 0
M  V30 6875 H 663.175 4.12905 2.8726 0
M  V30 6876 H 662.875 5.57057 1.86978 0
M  V30 6877 H 664.399 5.43048 2.79162 0
M  V30 6878 H 665.813 5.70778 0.537176 0
M  V30 6879 H 664.21 5.9977 -0.198977 0
M  V30 6880 H 665.28 4.76611 -0.892736 0
M  V30 6881 N 666.623 0.143563 1.56945 0
M  V30 6882 C 667.533 -0.810562 2.20152 0
M  V30 6883 C 668.549 -1.27431 1.1848 0
M  V30 6884 O 669.725 -1.33221 1.51044 0
M  V30 6885 C 666.79 -2.03353 2.80799 0
M  V30 6886 C 665.851 -1.61936 3.97587 0
M  V30 6887 C 665.084 -2.78403 4.55332 0
M  V30 6888 O 665.307 -3.94521 4.11958 0
M  V30 6889 O 664.241 -2.54073 5.45647 0
M  V30 6890 H 668.067 -0.30253 3.02189 0
M  V30 6891 H 665.652 -0.0832925 1.49168 0
M  V30 6892 H 667.534 -2.74932 3.19359 0
M  V30 6893 H 666.209 -2.53116 2.01777 0
M  V30 6894 H 665.116 -0.873904 3.6375 0
M  V30 6895 H 666.449 -1.16892 4.78118 0
M  V30 6896 N 668.101 -1.57061 -0.130224 0
M  V30 6897 C 669.031 -2.02552 -1.16168 0
M  V30 6898 C 670.012 -0.907971 -1.4384 0
M  V30 6899 O 671.197 -1.17693 -1.54473 0
M  V30 6900 C 668.327 -2.42035 -2.49071 0
M  V30 6901 C 667.281 -3.5713 -2.35886 0
M  V30 6902 C 666.607 -3.82478 -3.7365 0
M  V30 6903 C 667.907 -4.89236 -1.8288 0
M  V30 6904 H 669.601 -2.8897 -0.783359 0
M  V30 6905 H 667.147 -1.39021 -0.375376 0
M  V30 6906 H 669.1 -2.72462 -3.21469 0
M  V30 6907 H 667.824 -1.52573 -2.88771 0
M  V30 6908 H 666.483 -3.26895 -1.65938 0
M  V30 6909 H 666.131 -2.9024 -4.10816 0
M  V30 6910 H 665.831 -4.59944 -3.65685 0
M  V30 6911 H 667.355 -4.15347 -4.47571 0
M  V30 6912 H 668.769 -5.18272 -2.45085 0
M  V30 6913 H 667.166 -5.70624 -1.85763 0
M  V30 6914 H 668.236 -4.78494 -0.785571 0
M  V30 6915 N 669.579 0.400081 -1.52437 0
M  V30 6916 C 670.825 1.14788 -1.67187 0
M  V30 6917 C 671.158 1.89928 -0.405074 0
M  V30 6918 O 670.433 1.85118 0.596804 0
M  V30 6919 C 670.716 2.13507 -2.89977 0
M  V30 6920 C 670.569 1.42204 -4.2673 0
M  V30 6921 C 671.888 3.14069 -3.083 0
M  V30 6922 H 669.007 0.415939 -0.608411 0
M  V30 6923 H 671.649 0.432542 -1.85011 0
M  V30 6924 H 669.799 2.7451 -2.74912 0
M  V30 6925 H 671.471 0.842503 -4.53541 0
M  V30 6926 H 669.714 0.723939 -4.27717 0
M  V30 6927 H 670.385 2.14281 -5.08712 0
M  V30 6928 H 672.861 2.63148 -3.22323 0
M  V30 6929 H 671.737 3.80398 -3.95713 0
M  V30 6930 H 671.998 3.82309 -2.22018 0
M  V30 6931 N 671.057 1.43213 0.657864 0
M  V30 6932 C 672.473 1.26511 0.972992 0
M  V30 6933 C 672.673 0.181477 2.00681 0
M  V30 6934 O 671.729 -0.441649 2.48608 0
M  V30 6935 C 673.042 2.62784 1.46168 0
M  V30 6936 C 674.59 2.70278 1.57857 0
M  V30 6937 C 675.065 4.06958 2.10117 0
M  V30 6938 N 676.556 4.08999 2.17426 0
M  V30 6939 C 677.291 5.11585 2.58975 0
M  V30 6940 N 676.787 6.24548 2.99853 0
M  V30 6941 N 678.58 4.9894 2.58873 0
M  V30 6942 H 670.731 2.12384 -0.0263129 0
M  V30 6943 H 672.994 0.946638 0.0507992 0
M  V30 6944 H 672.7 3.43022 0.776474 0
M  V30 6945 H 672.574 2.87863 2.43751 0
M  V30 6946 H 674.961 1.90376 2.25479 0
M  V30 6947 H 675.042 2.4897 0.587179 0
M  V30 6948 H 674.686 4.87325 1.43098 0
M  V30 6949 H 674.616 4.25628 3.10078 0
M  V30 6950 H 677.107 3.27457 1.88627 0
M  V30 6951 H 677.42 6.98661 3.30292 0
M  V30 6952 H 675.765 6.28027 2.97669 0
M  V30 6953 H 678.956 4.09757 2.26311 0
M  V30 6954 H 679.129 5.79019 2.90932 0
M  V30 6955 N 672.536 -0.895792 1.29666 0
M  V30 6956 C 673.764 -1.68001 1.20761 0
M  V30 6957 C 674.179 -1.87379 -0.231187 0
M  V30 6958 O 673.536 -1.41359 -1.15429 0
M  V30 6959 C 673.587 -3.06236 1.92098 0
M  V30 6960 O 673.308 -2.8774 3.30359 0
M  V30 6961 C 674.809 -4.00652 1.89717 0
M  V30 6962 H 672.029 -0.524591 0.418384 0
M  V30 6963 H 674.573 -1.11995 1.71106 0
M  V30 6964 H 672.728 -3.59007 1.45578 0
M  V30 6965 H 673.142 -3.75359 3.66342 0
M  V30 6966 H 674.616 -4.95051 2.44189 0
M  V30 6967 H 675.093 -4.30424 0.873595 0
M  V30 6968 H 675.699 -3.53815 2.35998 0
M  V30 6969 N 674.014 -1.12206 -1.10668 0
M  V30 6970 C 675.261 -0.875875 -1.82578 0
M  V30 6971 C 675.589 0.598342 -1.85068 0
M  V30 6972 O 674.844 1.45818 -1.3052 0
M  V30 6973 C 675.143 -1.39276 -3.29146 0
M  V30 6974 C 674.809 -2.8816 -3.46806 0
M  V30 6975 C 673.471 -3.28813 -3.51334 0
M  V30 6976 C 675.823 -3.8401 -3.52399 0
M  V30 6977 C 673.151 -4.64028 -3.59019 0
M  V30 6978 C 675.503 -5.19053 -3.61617 0
M  V30 6979 C 674.167 -5.59252 -3.64408 0
M  V30 6980 H 673.437 -0.320505 -0.6681 0
M  V30 6981 H 676.084 -1.40184 -1.30464 0
M  V30 6982 H 674.389 -0.787207 -3.8381 0
M  V30 6983 H 676.086 -1.17851 -3.83291 0
M  V30 6984 H 672.676 -2.55716 -3.43958 0
M  V30 6985 H 676.86 -3.53698 -3.48154 0
M  V30 6986 H 672.116 -4.94568 -3.59461 0
M  V30 6987 H 676.29 -5.93152 -3.64889 0
M  V30 6988 H 673.917 -6.64017 -3.70116 0
M  V30 6989 N 675.492 1.28418 -0.913599 0
M  V30 6990 C 676.717 1.99643 -0.561899 0
M  V30 6991 C 677.142 1.67819 0.849608 0
M  V30 6992 O 676.5 0.910503 1.56779 0
M  V30 6993 C 676.548 3.52116 -0.777622 0
M  V30 6994 O 675.652 4.12076 0.163457 0
M  V30 6995 H 674.993 0.627229 -0.217898 0
M  V30 6996 H 677.523 1.63575 -1.229 0
M  V30 6997 H 677.533 4.02163 -0.687666 0
M  V30 6998 H 676.208 3.74613 -1.8066 0
M  V30 6999 H 674.785 3.72892 0.0247827 0
M  V30 7000 N 676.97 0.677563 1.42291 0
M  V30 7001 C 678.195 0.207901 2.06355 0
M  V30 7002 C 678.62 -1.12723 1.50583 0
M  V30 7003 O 677.978 -1.70171 0.62543 0
M  V30 7004 C 678.026 0.156489 3.6026 0
M  V30 7005 O 677.13 -0.874162 4.03029 0
M  V30 7006 H 676.471 0.106056 0.655475 0
M  V30 7007 H 679.001 0.927354 1.82377 0
M  V30 7008 H 679.011 -0.0187258 4.07996 0
M  V30 7009 H 677.686 1.13101 4.00226 0
M  V30 7010 H 676.263 -0.669764 3.66836 0
M  V30 7011 N 678.448 -1.51871 0.421078 0
M  V30 7012 C 679.381 -2.23851 -0.443369 0
M  V30 7013 C 680.359 -1.25142 -1.03818 0
M  V30 7014 O 681.543 -1.5423 -1.08377 0
M  V30 7015 C 678.67 -2.97637 -1.61648 0
M  V30 7016 C 677.716 -4.10873 -1.14391 0
M  V30 7017 S 678.549 -5.35408 -0.0992403 0
M  V30 7018 C 679.705 -6.12726 -1.27739 0
M  V30 7019 H 679.938 -2.96826 0.167786 0
M  V30 7020 H 677.471 -1.53027 0.205461 0
M  V30 7021 H 679.429 -3.40751 -2.28909 0
M  V30 7022 H 678.09 -2.24282 -2.199 0
M  V30 7023 H 677.283 -4.61718 -2.02069 0
M  V30 7024 H 676.885 -3.69937 -0.549775 0
M  V30 7025 H 679.177 -6.40827 -2.19881 0
M  V30 7026 H 680.12 -7.03461 -0.809239 0
M  V30 7027 H 680.528 -5.43968 -1.5086 0
M  V30 7028 N 679.926 -0.151884 -1.56866 0
M  V30 7029 C 681.172 0.498742 -1.96572 0
M  V30 7030 C 681.505 1.64194 -1.03702 0
M  V30 7031 O 680.78 1.94334 -0.0803432 0
M  V30 7032 C 681.063 1.00027 -3.45929 0
M  V30 7033 C 680.916 -0.141767 -4.49577 0
M  V30 7034 C 682.235 1.88044 -3.97904 0
M  V30 7035 H 679.354 0.17982 -0.714726 0
M  V30 7036 H 681.996 -0.234097 -1.88552 0
M  V30 7037 H 680.146 1.62476 -3.52894 0
M  V30 7038 H 681.818 -0.778269 -4.54687 0
M  V30 7039 H 680.061 -0.80019 -4.26356 0
M  V30 7040 H 680.732 0.250947 -5.51429 0
M  V30 7041 H 683.208 1.35416 -3.93449 0
M  V30 7042 H 682.084 2.20043 -5.02864 0
M  V30 7043 H 682.345 2.81916 -3.40552 0
M  V30 7044 N 681.404 1.57128 0.121893 0
M  V30 7045 C 682.629 1.89254 0.848385 0
M  V30 7046 C 683.054 0.743527 1.72781 0
M  V30 7047 O 682.412 -0.306056 1.78698 0
M  V30 7048 C 682.46 3.20113 1.66012 0
M  V30 7049 O 681.564 3.05815 2.76679 0
M  V30 7050 H 680.905 0.621103 0.234793 0
M  V30 7051 H 683.435 2.0433 0.10516 0
M  V30 7052 H 683.445 3.52761 2.04996 0
M  V30 7053 H 682.12 4.03336 1.01452 0
M  V30 7054 H 680.697 2.84627 2.40918 0
M  V30 7055 N 682.882 -0.391992 1.52647 0
M  V30 7056 C 683.83 -1.4991 1.77848 0
M  V30 7057 C 684.824 -1.56587 0.646282 0
M  V30 7058 O 686.03 -1.59789 0.828698 0
M  V30 7059 H 682.405 -0.498883 0.56269 0
M  V30 7060 H 684.376 -1.25847 2.70564 0
M  V30 7061 C 683.125 -2.87081 1.96163 0
M  V30 7062 H 682.448 -2.82692 2.82711 0
M  V30 7063 H 683.888 -3.63792 2.17787 0
M  V30 7064 C 682.347 -3.28822 0.733348 0
M  V30 7065 O 682.877 -4.01598 -0.0906481 0
M  V30 7066 N 681.083 -2.85068 0.564317 0
M  V30 7067 H 680.63 -2.26012 1.23598 0
M  V30 7068 H 680.588 -3.13355 -0.256166 0
M  V30 7069 N 684.36 -1.4356 -0.65026 0
M  V30 7070 C 685.608 -1.45046 -1.40734 0
M  V30 7071 C 685.929 -0.0769822 -1.94848 0
M  V30 7072 O 685.199 0.888098 -1.74613 0
M  V30 7073 H 683.779 -0.534034 -0.522318 0
M  V30 7074 H 686.441 -1.79186 -0.766703 0
M  V30 7075 H 685.537 -2.16476 -2.24822 0
M  V30 7076 N 685.838 0.888903 -1.30139 0
M  V30 7077 C 687.085 1.64037 -1.18736 0
M  V30 7078 C 687.413 1.92771 0.258801 0
M  V30 7079 O 686.668 1.54427 1.20212 0
M  V30 7080 C 686.967 2.99041 -1.95728 0
M  V30 7081 C 686.633 2.89874 -3.45375 0
M  V30 7082 C 685.295 2.87082 -3.86183 0
M  V30 7083 C 687.647 2.78289 -4.40687 0
M  V30 7084 C 684.975 2.70536 -5.20603 0
M  V30 7085 C 687.327 2.63282 -5.75209 0
M  V30 7086 C 685.991 2.58861 -6.15262 0
M  V30 7087 H 685.261 0.600253 -0.434485 0
M  V30 7088 H 687.908 1.0338 -1.61198 0
M  V30 7089 H 686.213 3.63626 -1.45888 0
M  V30 7090 H 687.91 3.56139 -1.843 0
M  V30 7091 H 684.5 2.92856 -3.12943 0
M  V30 7092 H 688.684 2.79516 -4.10103 0
M  V30 7093 H 683.94 2.65526 -5.50732 0
M  V30 7094 H 688.114 2.5329 -6.48704 0
M  V30 7095 H 685.741 2.45799 -7.19366 0
M  V30 7096 N 687.317 1.12792 1.10072 0
M  V30 7097 C 688.733 0.864745 1.34143 0
M  V30 7098 C 688.933 -0.503201 1.95116 0
M  V30 7099 O 687.989 -1.25111 2.19325 0
M  V30 7100 C 689.302 1.98413 2.25949 0
M  V30 7101 C 690.85 2.01545 2.39476 0
M  V30 7102 C 691.325 3.12727 3.34613 0
M  V30 7103 N 692.816 3.12194 3.42183 0
M  V30 7104 C 693.551 3.94862 4.15779 0
M  V30 7105 N 693.047 4.87528 4.92228 0
M  V30 7106 N 694.84 3.82985 4.11435 0
M  V30 7107 H 686.991 2.00926 0.68866 0
M  V30 7108 H 689.254 0.874564 0.365844 0
M  V30 7109 H 688.96 2.97005 1.88364 0
M  V30 7110 H 688.834 1.89254 3.26287 0
M  V30 7111 H 691.221 1.0357 2.76328 0
M  V30 7112 H 691.302 2.14777 1.3894 0
M  V30 7113 H 690.946 4.10936 2.98486 0
M  V30 7114 H 690.876 2.96732 4.35037 0
M  V30 7115 H 693.367 2.45065 2.87666 0
M  V30 7116 H 693.68 5.47109 5.45794 0
M  V30 7117 H 692.025 4.91539 4.9134 0
M  V30 7118 H 695.216 3.09923 3.50807 0
M  V30 7119 H 695.389 4.47641 4.68531 0
M  V30 7120 N 688.795 -1.27931 0.920396 0
M  V30 7121 C 690.206 -1.76707 0.602616 0
M  V30 7122 C 690.557 -1.75249 -0.882159 0
M  V30 7123 O 689.682 -1.35135 -1.69019 0
M  V30 7124 C 690.277 -3.20884 1.08714 0
M  V30 7125 C 688.836 -3.67356 0.820157 0
M  V30 7126 C 687.983 -2.47525 1.25006 0
M  V30 7127 H 690.934 -1.14301 1.10095 0
M  V30 7128 H 690.955 -3.78045 0.431535 0
M  V30 7129 H 690.467 -3.21913 2.1678 0
M  V30 7130 H 688.568 -3.7178 -0.247012 0
M  V30 7131 H 688.681 -4.57181 1.43257 0
M  V30 7132 H 687.045 -2.45765 0.668698 0
M  V30 7133 H 687.828 -2.51269 2.3392 0
M  V30 7134 N 690.273 -0.685099 -1.4193 0
M  V30 7135 C 691.689 -0.355632 -1.55587 0
M  V30 7136 C 691.889 1.13823 -1.66273 0
M  V30 7137 O 690.945 1.92387 -1.63534 0
M  V30 7138 C 692.258 -1.09498 -2.80055 0
M  V30 7139 C 693.806 -1.07831 -2.93839 0
M  V30 7140 C 694.281 -1.79919 -4.21181 0
M  V30 7141 N 695.772 -1.76837 -4.28115 0
M  V30 7142 C 696.507 -2.29463 -5.25485 0
M  V30 7143 N 696.003 -2.90516 -6.28945 0
M  V30 7144 N 697.796 -2.19779 -5.17353 0
M  V30 7145 H 689.947 -1.65412 -1.33239 0
M  V30 7146 H 692.21 -0.697453 -0.642078 0
M  V30 7147 H 691.916 -2.14997 -2.78333 0
M  V30 7148 H 691.79 -0.666813 -3.71259 0
M  V30 7149 H 694.177 -0.0316152 -2.95083 0
M  V30 7150 H 694.258 -1.54545 -2.03837 0
M  V30 7151 H 693.902 -2.84562 -4.20698 0
M  V30 7152 H 693.832 -1.30647 -5.10136 0
M  V30 7153 H 696.323 -1.32315 -3.53979 0
M  V30 7154 H 696.636 -3.28266 -6.99615 0
M  V30 7155 H 694.981 -2.94589 -6.29478 0
M  V30 7156 H 698.172 -1.71763 -4.35448 0
M  V30 7157 H 698.345 -2.61097 -5.9307 0
M  V30 7158 N 691.751 1.51645 -0.429126 0
M  V30 7159 C 693.167 1.59394 -0.080994 0
M  V30 7160 C 693.367 1.44064 1.40882 0
M  V30 7161 O 692.423 1.27771 2.17786 0
M  V30 7162 C 693.736 2.94779 -0.593773 0
M  V30 7163 C 695.284 3.08067 -0.553494 0
M  V30 7164 C 695.759 4.45963 -1.04311 0
M  V30 7165 N 697.25 4.5226 -1.00076 0
M  V30 7166 C 697.985 5.57268 -1.35056 0
M  V30 7167 N 697.481 6.69734 -1.77282 0
M  V30 7168 N 699.274 5.47582 -1.26925 0
M  V30 7169 H 691.425 1.59856 -1.39857 0
M  V30 7170 H 693.688 0.753095 -0.575805 0
M  V30 7171 H 693.394 3.11342 -1.63583 0
M  V30 7172 H 693.268 3.77197 -0.0142202 0
M  V30 7173 H 695.655 2.91177 0.479556 0
M  V30 7174 H 695.736 2.27508 -1.16935 0
M  V30 7175 H 695.38 4.63598 -2.07459 0
M  V30 7176 H 695.31 5.25049 -0.403873 0
M  V30 7177 H 697.801 3.71537 -0.690564 0
M  V30 7178 H 698.114 7.4587 -2.02232 0
M  V30 7179 H 696.459 6.70963 -1.81202 0
M  V30 7180 H 699.65 4.58604 -0.93809 0
M  V30 7181 H 699.823 6.29308 -1.54516 0
M  V30 7182 N 693.229 0.160201 1.56784 0
M  V30 7183 C 694.454 -0.497373 2.01348 0
M  V30 7184 C 694.879 -1.56757 1.03966 0
M  V30 7185 O 694.237 -1.81292 0.0174455 0
M  V30 7186 C 694.285 -1.0628 3.44582 0
M  V30 7187 O 693.389 -2.17723 3.50244 0
M  V30 7188 H 692.73 -0.120295 0.653012 0
M  V30 7189 H 695.26 0.260821 2.02931 0
M  V30 7190 H 695.27 -1.38819 3.83658 0
M  V30 7191 H 693.945 -0.279166 4.14962 0
M  V30 7192 H 692.522 -1.86313 3.2302 0
M  V30 7193 N 694.707 -1.5719 -0.113559 0
M  V30 7194 C 695.637 -2.03772 -1.14013 0
M  V30 7195 C 696.618 -0.923176 -1.42869 0
M  V30 7196 O 697.803 -1.19325 -1.53216 0
M  V30 7197 C 694.933 -2.44663 -2.4649 0
M  V30 7198 C 693.887 -3.59612 -2.32085 0
M  V30 7199 C 693.213 -3.8642 -3.69573 0
M  V30 7200 C 694.513 -4.91149 -1.7768 0
M  V30 7201 H 696.207 -2.89785 -0.752665 0
M  V30 7202 H 693.753 -1.39412 -0.360609 0
M  V30 7203 H 695.706 -2.75857 -3.18561 0
M  V30 7204 H 694.43 -1.55628 -2.87137 0
M  V30 7205 H 693.089 -3.28636 -1.62461 0
M  V30 7206 H 692.737 -2.94581 -4.07715 0
M  V30 7207 H 692.437 -4.63797 -3.60786 0
M  V30 7208 H 693.961 -4.2007 -4.4314 0
M  V30 7209 H 695.375 -5.20843 -2.39574 0
M  V30 7210 H 693.772 -5.72562 -1.79701 0
M  V30 7211 H 694.842 -4.79301 -0.734776 0
M  V30 7212 N 696.185 0.383891 -1.52853 0
M  V30 7213 C 697.115 1.47559 -1.80965 0
M  V30 7214 C 698.096 1.5669 -0.661986 0
M  V30 7215 O 699.281 1.71556 -0.910072 0
M  V30 7216 C 696.411 2.85114 -1.98312 0
M  V30 7217 C 695.365 2.9082 -3.14019 0
M  V30 7218 C 694.691 4.30873 -3.16627 0
M  V30 7219 C 695.991 2.60001 -4.52986 0
M  V30 7220 H 697.685 1.24283 -2.72386 0
M  V30 7221 H 695.231 0.596445 -1.31067 0
M  V30 7222 H 697.184 3.61496 -2.16561 0
M  V30 7223 H 695.908 3.09738 -1.03585 0
M  V30 7224 H 694.567 2.16886 -2.9556 0
M  V30 7225 H 694.215 4.52545 -2.19573 0
M  V30 7226 H 693.915 4.3561 -3.94357 0
M  V30 7227 H 695.439 5.09154 -3.37038 0
M  V30 7228 H 696.853 3.261 -4.71521 0
M  V30 7229 H 695.25 2.76081 -5.32822 0
M  V30 7230 H 696.32 1.5532 -4.59351 0
M  V30 7231 N 697.663 1.43903 0.642637 0
M  V30 7232 C 698.91 1.46079 1.40239 0
M  V30 7233 C 699.238 0.0890335 1.94296 0
M  V30 7234 O 698.493 -0.907533 1.73385 0
M  V30 7235 C 698.792 2.45907 2.59354 0
M  V30 7236 C 698.458 3.91522 2.23654 0
M  V30 7237 C 697.12 4.31179 2.1363 0
M  V30 7238 C 699.472 4.83242 1.95261 0
M  V30 7239 C 696.8 5.60495 1.73384 0
M  V30 7240 C 699.152 6.12933 1.56511 0
M  V30 7241 C 697.816 6.51556 1.4502 0
M  V30 7242 H 697.086 0.534542 0.513172 0
M  V30 7243 H 699.733 1.77047 0.72984 0
M  V30 7244 H 698.038 2.08381 3.3179 0
M  V30 7245 H 699.735 2.44842 3.17574 0
M  V30 7246 H 696.325 3.60142 2.32369 0
M  V30 7247 H 700.509 4.53367 2.0192 0
M  V30 7248 H 695.765 5.89249 1.63082 0
M  V30 7249 H 699.939 6.83469 1.33576 0
M  V30 7250 H 697.566 7.51663 1.13606 0
M  V30 7251 N 699.141 -0.881989 1.30609 0
M  V30 7252 C 700.39 -1.62878 1.18969 0
M  V30 7253 C 700.703 -1.93946 -0.253859 0
M  V30 7254 O 701.909 -2.67008 -0.491813 0
M  V30 7255 C 700.365 -2.93573 2.0819 0
M  V30 7256 C 699.973 -2.70034 3.57471 0
M  V30 7257 C 701.717 -3.71543 2.0532 0
M  V30 7258 C 699.624 -3.96563 4.38739 0
M  V30 7259 H 698.554 -0.611092 0.441682 0
M  V30 7260 H 701.205 -0.976201 1.55379 0
M  V30 7261 H 699.587 -3.6014 1.64666 0
M  V30 7262 H 700.761 -2.11949 4.09163 0
M  V30 7263 H 699.076 -2.05435 3.62195 0
M  V30 7264 H 701.673 -4.65386 2.63288 0
M  V30 7265 H 702.016 -4.03167 1.03739 0
M  V30 7266 H 702.549 -3.11842 2.46981 0
M  V30 7267 H 699.288 -3.70095 5.41027 0
M  V30 7268 H 698.808 -4.54142 3.9181 0
M  V30 7269 H 700.487 -4.64557 4.50329 0
M  V30 7270 N 700.619 -1.13374 -1.09472 0
M  V30 7271 C 701.844 -0.918711 -1.85942 0
M  V30 7272 C 702.269 0.527225 -1.8056 0
M  V30 7273 O 701.627 1.37408 -1.18274 0
M  V30 7274 C 701.675 -1.41056 -3.31867 0
M  V30 7275 O 700.779 -0.595496 -4.08078 0
M  V30 7276 H 700.12 -0.329297 -0.576593 0
M  V30 7277 H 702.65 -1.50829 -1.38245 0
M  V30 7278 H 702.66 -1.41398 -3.82715 0
M  V30 7279 H 701.335 -2.46335 -3.35099 0
M  V30 7280 H 699.912 -0.659911 -3.67014 0
M  V30 7281 N 702.098 1.27442 -0.927168 0
M  V30 7282 C 703.344 1.95025 -0.577651 0
M  V30 7283 C 703.699 1.71534 0.871421 0
M  V30 7284 O 702.992 1.03354 1.61333 0
M  V30 7285 C 703.186 3.47413 -0.838994 0
M  V30 7286 C 703.015 3.85721 -2.31192 0
M  V30 7287 C 701.785 4.09199 -2.96452 0
M  V30 7288 C 703.983 3.95352 -3.28939 0
M  V30 7289 N 701.965 4.34283 -4.33903 0
M  V30 7290 C 703.336 4.24805 -4.51598 0
M  V30 7291 C 705.391 3.77926 -3.24155 0
M  V30 7292 C 704.094 4.38645 -5.70073 0
M  V30 7293 C 706.12 3.9299 -4.41942 0
M  V30 7294 C 705.482 4.22829 -5.63379 0
M  V30 7295 H 701.581 0.736983 -0.261495 0
M  V30 7296 H 704.165 1.53816 -1.19368 0
M  V30 7297 H 702.336 3.87581 -0.252129 0
M  V30 7298 H 704.068 4.02166 -0.452158 0
M  V30 7299 H 700.823 4.04013 -2.47125 0
M  V30 7300 H 701.247 4.50883 -5.05008 0
M  V30 7301 H 705.889 3.53897 -2.31337 0
M  V30 7302 H 703.607 4.615 -6.63358 0
M  V30 7303 H 707.193 3.80926 -4.39757 0
M  V30 7304 H 706.073 4.34234 -6.53001 0
M  V30 7305 N 703.576 0.692616 1.41565 0
M  V30 7306 C 704.853 0.150496 1.9502 0
M  V30 7307 C 705.233 -1.33881 1.63215 0
M  V30 7308 O 704.581 -2.08378 0.937598 0
M  V30 7309 C 704.791 0.438636 3.46233 0
M  V30 7310 C 706.139 0.364777 4.2303 0
M  V30 7311 O 707.163 0.373383 3.54238 0
M  V30 7312 O 706.022 0.32234 5.45549 0
M  V30 7313 H 703.116 0.0132454 0.826894 0
M  V30 7314 H 705.662 0.768574 1.51298 0
M  V30 7315 H 704.434 1.46962 3.62654 0
M  V30 7316 H 704.057 -0.210562 3.97042 0
M  V30 7317 N 705.054 -1.51416 0.437162 0
M  V30 7318 C 706.302 -2.01687 -0.129108 0
M  V30 7319 C 706.623 -1.32329 -1.43227 0
M  V30 7320 O 705.893 -0.457796 -1.90476 0
M  V30 7321 H 704.473 -0.745277 -0.0507023 0
M  V30 7322 H 707.135 -1.86075 0.579828 0
M  V30 7323 H 706.231 -3.10605 -0.305141 0
M  V30 7324 N 706.532 -0.168513 -1.56696 0
M  V30 7325 C 707.78 0.476216 -1.96409 0
M  V30 7326 C 708.101 1.63968 -1.05544 0
M  V30 7327 O 707.371 1.95525 -0.121235 0
M  V30 7328 H 705.951 0.178921 -0.725256 0
M  V30 7329 H 708.613 -0.249042 -1.93302 0
M  V30 7330 H 707.709 0.838094 -3.00637 0
M  V30 7331 N 708.01 1.57248 0.105221 0
M  V30 7332 C 709.287 1.76566 0.841647 0
M  V30 7333 C 709.667 0.747566 1.9742 0
M  V30 7334 O 709.015 -0.225886 2.27381 0
M  V30 7335 C 709.225 3.22016 1.3456 0
M  V30 7336 C 710.573 3.84911 1.79244 0
M  V30 7337 O 711.597 3.25703 1.44207 0
M  V30 7338 O 710.456 4.89008 2.43995 0
M  V30 7339 H 707.55 0.723443 0.400698 0
M  V30 7340 H 710.096 1.69472 0.0878893 0
M  V30 7341 H 708.868 3.87644 0.533685 0
M  V30 7342 H 708.491 3.33703 2.16167 0
M  V30 7343 N 709.488 -0.375779 1.53054 0
M  V30 7344 C 710.735 -1.11948 1.68742 0
M  V30 7345 C 711.063 -1.89596 0.434015 0
M  V30 7346 O 710.318 -1.86787 -0.583867 0
M  V30 7347 C 710.617 -2.11356 2.88207 0
M  V30 7348 C 710.283 -1.50266 4.25124 0
M  V30 7349 C 708.945 -1.33333 4.62359 0
M  V30 7350 C 711.297 -1.05976 5.10312 0
M  V30 7351 C 708.625 -0.706765 5.82427 0
M  V30 7352 C 710.977 -0.447241 6.31017 0
M  V30 7353 C 709.641 -0.265314 6.66973 0
M  V30 7354 H 708.911 -0.409648 0.61747 0
M  V30 7355 H 711.558 -0.402492 1.87222 0
M  V30 7356 H 709.863 -2.89322 2.64197 0
M  V30 7357 H 711.56 -2.68833 2.97539 0
M  V30 7358 H 708.15 -1.64437 3.95801 0
M  V30 7359 H 712.334 -1.17855 4.82104 0
M  V30 7360 H 707.59 -0.554132 6.08884 0
M  V30 7361 H 711.764 -0.0958064 6.96334 0
M  V30 7362 H 709.391 0.222267 7.59875 0
M  V30 7363 N 710.966 -1.44241 -0.634997 0
M  V30 7364 C 712.214 -1.46531 -1.39187 0
M  V30 7365 C 712.535 -0.0976441 -1.94755 0
M  V30 7366 O 711.805 0.869528 -1.75545 0
M  V30 7367 H 710.385 -0.539544 -0.516625 0
M  V30 7368 H 713.047 -1.79989 -0.747655 0
M  V30 7369 H 712.143 -2.18848 -2.22513 0
M  V30 7370 N 712.444 0.87505 -1.31075 0
M  V30 7371 C 713.669 1.66583 -1.23551 0
M  V30 7372 C 714.094 1.87067 0.19686 0
M  V30 7373 O 713.452 1.40877 1.1412 0
M  V30 7374 C 713.5 3.01401 -1.97965 0
M  V30 7375 O 712.604 3.90923 -1.31351 0
M  V30 7376 H 711.945 0.508645 -0.426821 0
M  V30 7377 H 714.475 1.09139 -1.7306 0
M  V30 7378 H 714.485 3.51374 -2.07366 0
M  V30 7379 H 713.16 2.85812 -3.02133 0
M  V30 7380 H 711.737 3.49369 -1.30368 0
M  V30 7381 N 713.922 1.13953 1.08869 0
M  V30 7382 C 715.168 0.906151 1.8143 0
M  V30 7383 C 715.501 -0.566089 1.85766 0
M  V30 7384 O 714.776 -1.41915 1.33006 0
M  V30 7385 C 715.059 1.50183 3.27287 0
M  V30 7386 C 714.912 3.04359 3.31189 0
M  V30 7387 C 716.231 1.17477 4.24131 0
M  V30 7388 H 713.35 0.330624 0.658678 0
M  V30 7389 H 715.992 1.40873 1.27495 0
M  V30 7390 H 714.142 1.07442 3.73348 0
M  V30 7391 H 715.814 3.55896 2.93488 0
M  V30 7392 H 714.057 3.39053 2.70602 0
M  V30 7393 H 714.728 3.41141 4.33966 0
M  V30 7394 H 717.204 1.5442 3.86385 0
M  V30 7395 H 716.08 1.61795 5.24513 0
M  V30 7396 H 716.341 0.0893312 4.4201 0
M  V30 7397 N 715.4 -1.26948 0.933913 0
M  V30 7398 C 716.648 -1.93704 0.576484 0
M  V30 7399 C 716.969 -1.73702 -0.886145 0
M  V30 7400 O 716.239 -1.08838 -1.62884 0
M  V30 7401 H 714.819 -0.716812 0.210214 0
M  V30 7402 H 717.481 -1.54534 1.18766 0
M  V30 7403 H 716.577 -3.01987 0.788055 0
M  V30 7404 N 716.879 -0.700114 -1.41195 0
M  V30 7405 C 718.104 -0.240704 -2.05998 0
M  V30 7406 C 718.529 1.10313 -1.52357 0
M  V30 7407 O 717.887 1.69154 -0.652424 0
M  V30 7408 C 717.935 -0.213783 -3.59966 0
M  V30 7409 O 717.039 0.809933 -4.04368 0
M  V30 7410 H 716.38 -0.116471 -0.653705 0
M  V30 7411 H 718.91 -0.956251 -1.80878 0
M  V30 7412 H 718.92 -0.0461852 -4.07974 0
M  V30 7413 H 717.595 -1.19454 -3.98376 0
M  V30 7414 H 716.172 0.611319 -3.67855 0
M  V30 7415 N 718.357 1.51182 -0.445186 0
M  V30 7416 C 719.585 2.06568 0.117091 0
M  V30 7417 C 720 1.31182 1.35781 0
M  V30 7418 O 719.357 0.373605 1.78635 0
M  V30 7419 C 719.408 3.58917 0.431408 0
M  V30 7420 O 719.129 4.31456 -0.760078 0
M  V30 7421 C 720.63 4.30843 1.0435 0
M  V30 7422 H 717.85 0.670985 0.00444436 0
M  V30 7423 H 720.394 1.94666 -0.626525 0
M  V30 7424 H 718.549 3.70708 1.12493 0
M  V30 7425 H 718.963 5.22215 -0.489048 0
M  V30 7426 H 720.437 5.38499 1.21337 0
M  V30 7427 H 720.914 3.89644 2.02667 0
M  V30 7428 H 721.52 4.23516 0.38913 0
M  V30 7429 N 719.835 0.176821 1.56605 0
M  V30 7430 C 720.745 -0.763682 2.21822 0
M  V30 7431 C 721.761 -1.24889 1.21156 0
M  V30 7432 O 722.937 -1.29987 1.53836 0
M  V30 7433 C 720.002 -1.97352 2.8505 0
M  V30 7434 C 719.063 -1.53466 4.00932 0
M  V30 7435 C 718.296 -2.68682 4.61135 0
M  V30 7436 O 718.519 -3.85694 4.20234 0
M  V30 7437 O 717.453 -2.42442 5.50913 0
M  V30 7438 H 721.279 -0.238363 3.02763 0
M  V30 7439 H 718.864 -0.0516331 1.49311 0
M  V30 7440 H 720.746 -2.68096 3.25119 0
M  V30 7441 H 719.421 -2.48779 2.07101 0
M  V30 7442 H 718.328 -0.796551 3.65521 0
M  V30 7443 H 719.661 -1.06724 4.8049 0
M  V30 7444 N 721.313 -1.57302 -0.09688 0
M  V30 7445 C 722.559 -1.87144 -0.796778 0
M  V30 7446 C 722.914 -0.767428 -1.76432 0
M  V30 7447 O 722.207 0.230728 -1.90206 0
M  V30 7448 C 722.401 -3.21272 -1.56586 0
M  V30 7449 C 722.23 -4.44616 -0.674295 0
M  V30 7450 C 721 -5.04281 -0.320705 0
M  V30 7451 C 723.198 -5.14297 0.0179445 0
M  V30 7452 N 721.18 -6.11162 0.579206 0
M  V30 7453 C 722.551 -6.15125 0.775992 0
M  V30 7454 C 724.606 -4.97815 0.0920521 0
M  V30 7455 C 723.309 -7.01251 1.60122 0
M  V30 7456 C 725.335 -5.84447 0.904175 0
M  V30 7457 C 724.697 -6.84794 1.65035 0
M  V30 7458 H 720.796 -0.734721 -0.267787 0
M  V30 7459 H 723.38 -1.94609 -0.0593955 0
M  V30 7460 H 721.551 -3.14862 -2.27413 0
M  V30 7461 H 723.283 -3.38846 -2.21281 0
M  V30 7462 H 720.038 -4.68866 -0.667961 0
M  V30 7463 H 720.462 -6.69247 1.02166 0
M  V30 7464 H 725.104 -4.20174 -0.470492 0
M  V30 7465 H 722.822 -7.78284 2.17484 0
M  V30 7466 H 726.408 -5.73755 0.964165 0
M  V30 7467 H 725.288 -7.50668 2.26864 0
M  V30 7468 N 722.791 0.367657 -1.53252 0
M  V30 7469 C 723.721 1.45632 -1.8252 0
M  V30 7470 C 724.702 1.55979 -0.678568 0
M  V30 7471 O 725.887 1.70581 -0.928217 0
M  V30 7472 C 723.017 2.82994 -2.01325 0
M  V30 7473 C 721.971 2.87473 -3.17086 0
M  V30 7474 C 721.297 4.2749 -3.21179 0
M  V30 7475 C 722.597 2.55182 -4.55719 0
M  V30 7476 H 724.291 1.21387 -2.73689 0
M  V30 7477 H 721.837 0.58251 -1.31692 0
M  V30 7478 H 723.79 3.59179 -2.20383 0
M  V30 7479 H 722.514 3.08622 -1.06864 0
M  V30 7480 H 721.173 2.13739 -2.97844 0
M  V30 7481 H 720.821 4.5019 -2.24361 0
M  V30 7482 H 720.521 4.31403 -3.98955 0
M  V30 7483 H 722.045 5.0555 -3.42419 0
M  V30 7484 H 723.459 3.21081 -4.74953 0
M  V30 7485 H 721.856 2.70414 -5.3572 0
M  V30 7486 H 722.926 1.5044 -4.60973 0
M  V30 7487 N 724.269 1.44576 0.627338 0
M  V30 7488 C 725.179 1.54232 1.76776 0
M  V30 7489 C 726.195 0.427782 1.6866 0
M  V30 7490 O 727.371 0.685671 1.89369 0
M  V30 7491 C 724.436 1.48738 3.13174 0
M  V30 7492 C 723.497 2.71074 3.32893 0
M  V30 7493 C 722.73 2.65832 4.62784 0
M  V30 7494 O 722.953 1.72048 5.43834 0
M  V30 7495 O 721.887 3.56742 4.84787 0
M  V30 7496 H 725.713 2.50586 1.71582 0
M  V30 7497 H 723.298 1.26865 0.789028 0
M  V30 7498 H 725.18 1.48211 3.94476 0
M  V30 7499 H 723.855 0.555292 3.18902 0
M  V30 7500 H 722.762 2.77168 2.51254 0
M  V30 7501 H 724.095 3.63342 3.32029 0
M  V30 7502 N 725.747 -0.868086 1.31537 0
M  V30 7503 C 726.995 -1.61807 1.21091 0
M  V30 7504 C 727.316 -1.93631 -0.230623 0
M  V30 7505 O 726.586 -1.5846 -1.15183 0
M  V30 7506 H 725.166 -0.599854 0.445178 0
M  V30 7507 H 727.828 -1.03915 1.64887 0
M  V30 7508 H 726.924 -2.56088 1.78396 0
M  V30 7509 N 727.225 -1.14528 -1.08264 0
M  V30 7510 C 728.455 -0.936604 -1.8415 0
M  V30 7511 C 728.863 0.518298 -1.81962 0
M  V30 7512 O 728.206 1.37096 -1.22272 0
M  V30 7513 C 728.268 -1.36182 -3.32708 0
M  V30 7514 C 727.932 -2.83257 -3.58629 0
M  V30 7515 C 728.929 -3.81366 -3.5335 0
M  V30 7516 C 726.614 -3.20704 -3.86593 0
M  V30 7517 C 728.608 -5.14929 -3.75668 0
M  V30 7518 C 726.295 -4.54443 -4.08564 0
M  V30 7519 C 727.293 -5.51365 -4.03095 0
M  V30 7520 O 726.981 -6.8269 -4.24488 0
M  V30 7521 H 726.713 -0.333254 -0.588148 0
M  V30 7522 H 729.267 -1.5247 -1.3763 0
M  V30 7523 H 727.497 -0.717063 -3.79994 0
M  V30 7524 H 729.186 -1.12372 -3.90035 0
M  V30 7525 H 729.952 -3.53781 -3.31759 0
M  V30 7526 H 725.831 -2.45857 -3.89969 0
M  V30 7527 H 729.375 -5.90568 -3.71315 0
M  V30 7528 H 725.272 -4.81747 -4.29639 0
M  V30 7529 H 726.04 -6.8897 -4.41886 0
M  V30 7530 N 728.703 1.26451 -0.940633 0
M  V30 7531 C 729.633 2.28773 -0.467479 0
M  V30 7532 C 730.614 1.63218 0.478955 0
M  V30 7533 O 731.799 1.90427 0.380929 0
M  V30 7534 C 728.929 3.46259 0.268656 0
M  V30 7535 C 727.883 4.23898 -0.591171 0
M  V30 7536 C 727.209 5.33993 0.274891 0
M  V30 7537 C 728.509 4.87974 -1.86223 0
M  V30 7538 H 730.203 2.68601 -1.32265 0
M  V30 7539 H 727.749 1.29123 -0.637436 0
M  V30 7540 H 729.702 4.16951 0.610696 0
M  V30 7541 H 728.426 3.05383 1.15796 0
M  V30 7542 H 727.085 3.54969 -0.916098 0
M  V30 7543 H 726.733 4.89358 1.16353 0
M  V30 7544 H 726.433 5.86849 -0.297006 0
M  V30 7545 H 727.957 6.07523 0.612213 0
M  V30 7546 H 729.371 5.50883 -1.58747 0
M  V30 7547 H 727.768 5.50945 -2.37866 0
M  V30 7548 H 728.838 4.10945 -2.57394 0
M  V30 7549 N 730.181 0.707592 1.40822 0
M  V30 7550 C 731.406 0.251626 2.05868 0
M  V30 7551 C 731.831 -1.09503 1.5294 0
M  V30 7552 O 731.189 -1.68806 0.661385 0
M  V30 7553 C 731.237 0.23287 3.59847 0
M  V30 7554 O 730.341 -0.788477 4.04792 0
M  V30 7555 H 729.682 0.119936 0.653078 0
M  V30 7556 H 732.212 0.96583 1.80369 0
M  V30 7557 H 732.222 0.0678204 4.07944 0
M  V30 7558 H 730.897 1.21565 3.97737 0
M  V30 7559 H 729.474 -0.591802 3.68174 0
M  V30 7560 N 731.66 -1.50943 0.453197 0
M  V30 7561 C 732.906 -2.02512 -0.108082 0
M  V30 7562 C 733.239 -1.33574 -1.40967 0
M  V30 7563 O 732.514 -0.455671 -1.89087 0
M  V30 7564 C 732.797 -3.58759 -0.310453 0
M  V30 7565 C 732.65 -4.38293 1.0109 0
M  V30 7566 C 733.969 -4.26816 -1.07313 0
M  V30 7567 H 731.088 -0.73603 -0.0378064 0
M  V30 7568 H 733.73 -1.80433 0.595295 0
M  V30 7569 H 731.88 -3.77702 -0.909582 0
M  V30 7570 H 733.552 -4.30964 1.64523 0
M  V30 7571 H 731.795 -4.02745 1.61179 0
M  V30 7572 H 732.466 -5.45828 0.82315 0
M  V30 7573 H 734.942 -4.1224 -0.565473 0
M  V30 7574 H 733.818 -5.35989 -1.1835 0
M  V30 7575 H 734.079 -3.88757 -2.10525 0
M  V30 7576 N 733.138 -0.185124 -1.56509 0
M  V30 7577 C 734.068 0.735098 -2.21627 0
M  V30 7578 C 735.049 1.2288 -1.1762 0
M  V30 7579 O 736.234 1.27945 -1.46095 0
M  V30 7580 C 733.364 1.95889 -2.86783 0
M  V30 7581 C 732.318 1.6005 -3.96948 0
M  V30 7582 C 731.644 2.90009 -4.4922 0
M  V30 7583 C 732.944 0.818008 -5.15855 0
M  V30 7584 H 734.638 0.192274 -2.98782 0
M  V30 7585 H 732.184 0.0910393 -1.43712 0
M  V30 7586 H 734.137 2.60779 -3.31017 0
M  V30 7587 H 732.861 2.52608 -2.07018 0
M  V30 7588 H 731.52 0.975237 -3.5339 0
M  V30 7589 H 731.168 3.44797 -3.6623 0
M  V30 7590 H 730.868 2.66778 -5.23549 0
M  V30 7591 H 732.392 3.55904 -4.9615 0
M  V30 7592 H 733.806 1.36979 -5.56695 0
M  V30 7593 H 732.203 0.684207 -5.96187 0
M  V30 7594 H 733.273 -0.182939 -4.84555 0
M  V30 7595 N 734.616 1.57351 0.0885366 0
M  V30 7596 C 735.566 1.98963 1.11346 0
M  V30 7597 C 736.55 0.869065 1.35411 0
M  V30 7598 O 737.742 1.13292 1.35992 0
M  V30 7599 C 734.871 2.4231 2.43189 0
M  V30 7600 C 733.957 3.61065 2.22469 0
M  V30 7601 N 734.348 4.75789 1.71635 0
M  V30 7602 C 732.646 3.6729 2.5301 0
M  V30 7603 C 733.347 5.57708 1.65339 0
M  V30 7604 N 732.323 5.01067 2.1079 0
M  V30 7605 H 736.125 2.85109 0.713465 0
M  V30 7606 H 733.639 1.59682 0.295868 0
M  V30 7607 H 735.636 2.70352 3.17357 0
M  V30 7608 H 734.296 1.57544 2.83919 0
M  V30 7609 H 735.307 4.98411 1.40738 0
M  V30 7610 H 731.984 2.932 2.9722 0
M  V30 7611 H 733.374 6.59782 1.27031 0
M  V30 7612 N 736.094 -0.359525 1.53444 0
M  V30 7613 C 737.024 -1.44662 1.8329 0
M  V30 7614 C 738.005 -1.55617 0.68683 0
M  V30 7615 O 739.19 -1.70086 0.93725 0
M  V30 7616 C 736.32 -2.81923 2.02822 0
M  V30 7617 C 735.274 -2.85787 3.18606 0
M  V30 7618 C 734.6 -4.25781 3.23442 0
M  V30 7619 C 735.9 -2.52762 4.57065 0
M  V30 7620 H 737.594 -1.19934 2.74329 0
M  V30 7621 H 735.14 -0.575517 1.31999 0
M  V30 7622 H 737.093 -3.58005 2.22285 0
M  V30 7623 H 735.817 -3.08051 1.085 0
M  V30 7624 H 734.476 -2.12157 2.98973 0
M  V30 7625 H 734.124 -4.48994 2.26745 0
M  V30 7626 H 733.824 -4.29281 4.01238 0
M  V30 7627 H 735.348 -5.03727 3.45096 0
M  V30 7628 H 736.762 -3.18557 4.76649 0
M  V30 7629 H 735.159 -2.67569 5.37147 0
M  V30 7630 H 736.229 -1.47993 4.61764 0
M  V30 7631 N 737.572 -1.44907 -0.619662 0
M  V30 7632 C 738.519 -1.52654 -1.73105 0
M  V30 7633 C 739.489 -0.373334 -1.6185 0
M  V30 7634 O 740.674 -0.585143 -1.81606 0
M  V30 7635 C 737.814 -1.48769 -3.11387 0
M  V30 7636 C 736.927 -2.74551 -3.33535 0
M  V30 7637 C 736.062 -2.62421 -4.61854 0
M  V30 7638 C 735.101 -3.83312 -4.77219 0
M  V30 7639 N 734.238 -3.69789 -5.96826 0
M  V30 7640 H 739.078 -2.47605 -1.65819 0
M  V30 7641 H 736.615 -1.22875 -0.808719 0
M  V30 7642 H 738.573 -1.44507 -3.91374 0
M  V30 7643 H 737.203 -0.573783 -3.1766 0
M  V30 7644 H 736.255 -2.88953 -2.47408 0
M  V30 7645 H 737.567 -3.64253 -3.40765 0
M  V30 7646 H 736.721 -2.56056 -5.50019 0
M  V30 7647 H 735.46 -1.70298 -4.57001 0
M  V30 7648 H 734.465 -3.90049 -3.87481 0
M  V30 7649 H 735.69 -4.76486 -4.83878 0
M  V30 7650 H 733.636 -2.80426 -5.93041 0
M  V30 7651 H 733.553 -4.53116 -6.05163 0
M  V30 7652 H 734.821 -3.67335 -6.87521 0
M  V30 7653 N 739.05 0.861098 -1.31996 0
M  V30 7654 C 740.013 1.95068 -1.20338 0
M  V30 7655 C 741.013 1.60289 -0.128114 0
M  V30 7656 O 742.203 1.70048 -0.378044 0
M  V30 7657 C 739.335 3.30153 -0.849205 0
M  V30 7658 H 740.528 2.06833 -2.17164 0
M  V30 7659 H 738.081 1.05049 -1.15734 0
M  V30 7660 H 738.816 3.24087 0.117508 0
M  V30 7661 H 738.601 3.56771 -1.62655 0
M  V30 7662 H 740.091 4.10025 -0.791782 0
M  V30 7663 N 740.528 1.15101 1.07655 0
M  V30 7664 C 741.774 0.925343 1.80458 0
M  V30 7665 C 742.107 -0.546354 1.86356 0
M  V30 7666 O 741.382 -1.40496 1.34503 0
M  V30 7667 C 741.665 1.53646 3.25676 0
M  V30 7668 C 741.518 3.07854 3.27942 0
M  V30 7669 C 742.837 1.21968 4.22861 0
M  V30 7670 H 739.956 0.337592 0.655134 0
M  V30 7671 H 742.598 1.42217 1.25993 0
M  V30 7672 H 740.748 1.11395 3.72187 0
M  V30 7673 H 742.42 3.58989 2.89697 0
M  V30 7674 H 740.663 3.41904 2.66991 0
M  V30 7675 H 741.334 3.45725 4.30324 0
M  V30 7676 H 743.81 1.5851 3.84726 0
M  V30 7677 H 742.686 1.67349 5.22767 0
M  V30 7678 H 742.947 0.136207 4.4189 0
M  V30 7679 N 742.006 -1.2595 0.947325 0
M  V30 7680 C 743.252 -1.9375 0.599064 0
M  V30 7681 C 743.585 -1.74088 -0.860632 0
M  V30 7682 O 742.86 -1.08158 -1.61654 0
M  V30 7683 C 743.143 -3.47353 0.949634 0
M  V30 7684 C 742.996 -3.76273 2.46452 0
M  V30 7685 C 744.315 -4.37589 0.469442 0
M  V30 7686 H 741.434 -0.703674 0.219115 0
M  V30 7687 H 744.076 -1.48705 1.18266 0
M  V30 7688 H 742.226 -3.8585 0.453008 0
M  V30 7689 H 743.898 -3.47455 3.03435 0
M  V30 7690 H 742.141 -3.22135 2.90537 0
M  V30 7691 H 742.812 -4.83664 2.66032 0
M  V30 7692 H 745.288 -4.06353 0.89534 0
M  V30 7693 H 744.164 -5.43841 0.7435 0
M  V30 7694 H 744.425 -4.37579 -0.630618 0
M  V30 7695 N 743.484 -0.715051 -1.40445 0
M  V30 7696 C 744.714 -0.263576 -2.04912 0
M  V30 7697 C 745.122 1.09943 -1.53978 0
M  V30 7698 O 744.465 1.70203 -0.691133 0
M  V30 7699 C 744.527 -0.165048 -3.59121 0
M  V30 7700 C 744.191 -1.46325 -4.32941 0
M  V30 7701 C 745.188 -2.40506 -4.60926 0
M  V30 7702 C 742.873 -1.72203 -4.7186 0
M  V30 7703 C 744.867 -3.58812 -5.26814 0
M  V30 7704 C 742.554 -2.9079 -5.3748 0
M  V30 7705 C 743.552 -3.83917 -5.64887 0
M  V30 7706 O 743.24 -5.00424 -6.29151 0
M  V30 7707 H 742.972 -0.116317 -0.665918 0
M  V30 7708 H 745.526 -0.973774 -1.8085 0
M  V30 7709 H 743.756 0.601088 -3.82 0
M  V30 7710 H 745.445 0.251794 -4.05118 0
M  V30 7711 H 746.211 -2.21778 -4.31323 0
M  V30 7712 H 742.09 -1.00571 -4.49896 0
M  V30 7713 H 745.634 -4.31517 -5.48123 0
M  V30 7714 H 741.531 -3.09428 -5.66502 0
M  V30 7715 H 742.299 -5.00494 -6.47648 0
M  V30 7716 N 744.962 1.50701 -0.461195 0
M  V30 7717 C 746.208 2.02566 0.0973411 0
M  V30 7718 C 746.541 1.3432 1.40257 0
M  V30 7719 O 745.816 0.465692 1.88843 0
M  V30 7720 C 746.099 3.58919 0.291423 0
M  V30 7721 C 745.952 4.37751 -1.03413 0
M  V30 7722 C 747.271 4.27379 1.05048 0
M  V30 7723 H 744.39 0.73622 0.0339026 0
M  V30 7724 H 747.032 1.80115 -0.604855 0
M  V30 7725 H 745.182 3.78179 0.889539 0
M  V30 7726 H 746.854 4.30085 -1.66806 0
M  V30 7727 H 745.097 4.01885 -1.63313 0
M  V30 7728 H 745.768 5.45384 -0.852085 0
M  V30 7729 H 748.244 4.12534 0.543603 0
M  V30 7730 H 747.12 5.36609 1.15506 0
M  V30 7731 H 747.381 3.89868 2.0846 0
M  V30 7732 N 746.441 0.193421 1.56409 0
M  V30 7733 C 747.666 -0.454552 2.02358 0
M  V30 7734 C 748.091 -1.54516 1.07268 0
M  V30 7735 O 747.449 -1.81214 0.0558962 0
M  V30 7736 C 747.497 -0.989469 3.46759 0
M  V30 7737 O 746.601 -2.10244 3.54783 0
M  V30 7738 H 745.942 -0.106417 0.655417 0
M  V30 7739 H 748.472 0.303807 2.02332 0
M  V30 7740 H 748.482 -1.30649 3.86516 0
M  V30 7741 H 747.157 -0.191083 4.15461 0
M  V30 7742 H 745.734 -1.79419 3.26899 0
M  V30 7743 N 747.919 -1.57396 -0.0801906 0
M  V30 7744 C 748.849 -2.06145 -1.09665 0
M  V30 7745 C 749.83 -0.953273 -1.40878 0
M  V30 7746 O 751.015 -1.22548 -1.50651 0
M  V30 7747 C 748.145 -2.49836 -2.41245 0
M  V30 7748 C 747.099 -3.64454 -2.24405 0
M  V30 7749 C 746.425 -3.94172 -3.61293 0
M  V30 7750 C 747.725 -4.94807 -1.67223 0
M  V30 7751 H 749.419 -2.91316 -0.691028 0
M  V30 7752 H 746.965 -1.40145 -0.330957 0
M  V30 7753 H 748.918 -2.82552 -3.12638 0
M  V30 7754 H 747.642 -1.61683 -2.83771 0
M  V30 7755 H 746.301 -3.32008 -1.55454 0
M  V30 7756 H 745.949 -3.03163 -4.01374 0
M  V30 7757 H 745.649 -4.71345 -3.50867 0
M  V30 7758 H 747.173 -4.29376 -4.3413 0
M  V30 7759 H 748.587 -5.25807 -2.28472 0
M  V30 7760 H 746.984 -5.76245 -1.67515 0
M  V30 7761 H 748.054 -4.80751 -0.632944 0
M  V30 7762 N 749.397 0.351382 -1.53633 0
M  V30 7763 C 750.674 1.10903 -1.6112 0
M  V30 7764 C 751.054 2.06725 -0.427556 0
M  V30 7765 O 750.402 2.20992 0.580916 0
M  V30 7766 C 750.612 1.83561 -2.96827 0
M  V30 7767 C 751.96 2.37587 -3.51906 0
M  V30 7768 O 752.984 1.93669 -2.9895 0
M  V30 7769 O 751.843 3.17913 -4.44515 0
M  V30 7770 H 748.937 0.509558 -0.651368 0
M  V30 7771 H 751.483 0.353504 -1.65977 0
M  V30 7772 H 750.255 1.1371 -3.74414 0
M  V30 7773 H 749.878 2.6599 -2.95525 0
M  V30 7774 N 750.875 1.45233 0.611969 0
M  V30 7775 C 751.823 1.53898 1.74408 0
M  V30 7776 C 752.817 0.409254 1.64382 0
M  V30 7777 O 754.023 0.584988 1.70229 0
M  V30 7778 H 750.398 0.483303 0.576127 0
M  V30 7779 H 752.369 2.49143 1.64227 0
M  V30 7780 C 751.118 1.51865 3.12782 0
M  V30 7781 H 750.441 2.38118 3.21154 0
M  V30 7782 H 751.881 1.61986 3.91838 0
M  V30 7783 C 750.34 0.242374 3.36027 0
M  V30 7784 O 750.87 -0.679587 3.9591 0
M  V30 7785 N 749.076 0.139448 2.90265 0
M  V30 7786 H 748.623 0.890571 2.41716 0
M  V30 7787 H 748.581 -0.713686 3.06193 0
M  V30 7788 N 752.353 -0.854086 1.3245 0
M  V30 7789 C 753.316 -1.94427 1.21371 0
M  V30 7790 C 754.316 -1.60219 0.136613 0
M  V30 7791 O 755.506 -1.69846 0.387057 0
M  V30 7792 C 752.638 -3.29698 0.866701 0
M  V30 7793 H 753.831 -2.05679 2.18257 0
M  V30 7794 H 751.384 -1.04434 1.1629 0
M  V30 7795 H 752.119 -3.24145 -0.100319 0
M  V30 7796 H 751.904 -3.55903 1.64545 0
M  V30 7797 H 753.394 -4.09599 0.813515 0
M  V30 7798 N 753.831 -1.1567 -1.07043 0
M  V30 7799 C 755.077 -0.9349 -1.79965 0
M  V30 7800 C 755.41 0.536464 -1.86643 0
M  V30 7801 O 754.685 1.39781 -1.35247 0
M  V30 7802 C 754.968 -1.55371 -3.24857 0
M  V30 7803 C 754.821 -3.09589 -3.26305 0
M  V30 7804 C 756.14 -1.24209 -4.22209 0
M  V30 7805 H 753.259 -0.341061 -0.653335 0
M  V30 7806 H 755.901 -1.42883 -1.25237 0
M  V30 7807 H 754.051 -1.13368 -3.71591 0
M  V30 7808 H 755.723 -3.60521 -2.87789 0
M  V30 7809 H 753.966 -3.43315 -2.65174 0
M  V30 7810 H 754.637 -3.48002 -4.28484 0
M  V30 7811 H 757.113 -1.60548 -3.8388 0
M  V30 7812 H 755.989 -1.70119 -5.21872 0
M  V30 7813 H 756.25 -0.15964 -4.41812 0
M  V30 7814 N 755.309 1.25446 -0.953992 0
M  V30 7815 C 756.239 2.28264 -0.491717 0
M  V30 7816 C 757.22 1.63717 0.461617 0
M  V30 7817 O 758.405 1.90821 0.36071 0
M  V30 7818 C 755.535 3.46525 0.231915 0
M  V30 7819 C 754.489 4.23247 -0.636098 0
M  V30 7820 C 753.815 5.34254 0.218238 0
M  V30 7821 C 755.115 4.85971 -1.91389 0
M  V30 7822 H 756.809 2.67183 -1.35106 0
M  V30 7823 H 754.355 1.2844 -0.651095 0
M  V30 7824 H 756.308 4.17576 0.566439 0
M  V30 7825 H 755.032 3.06594 1.12551 0
M  V30 7826 H 753.691 3.53978 -0.953696 0
M  V30 7827 H 753.339 4.90564 1.11156 0
M  V30 7828 H 753.039 5.86501 -0.359232 0
M  V30 7829 H 754.563 6.08138 0.547743 0
M  V30 7830 H 755.977 5.49168 -1.64581 0
M  V30 7831 H 754.374 5.48391 -2.43696 0
M  V30 7832 H 755.444 4.08192 -2.61738 0
M  V30 7833 N 756.787 0.722489 1.40064 0
M  V30 7834 C 758.035 0.264455 2.00362 0
M  V30 7835 C 758.356 -1.14847 1.57592 0
M  V30 7836 O 757.626 -1.77982 0.818477 0
M  V30 7837 H 756.206 0.0947846 0.740962 0
M  V30 7838 H 758.868 0.929659 1.71299 0
M  V30 7839 H 757.964 0.302977 3.10626 0
M  V30 7840 N 758.265 -1.50454 0.469181 0
M  V30 7841 C 759.542 -1.9504 -0.147955 0
M  V30 7842 C 759.922 -1.40946 -1.57154 0
M  V30 7843 O 759.27 -0.609663 -2.20217 0
M  V30 7844 C 759.48 -3.48875 -0.0932198 0
M  V30 7845 C 760.828 -4.23655 -0.283056 0
M  V30 7846 O 761.852 -3.55795 -0.169892 0
M  V30 7847 O 760.711 -5.44102 -0.511396 0
M  V30 7848 H 757.805 -0.819283 -0.11271 0
M  V30 7849 H 760.351 -1.6123 0.529446 0
M  V30 7850 H 759.123 -3.80791 0.900784 0
M  V30 7851 H 758.746 -3.89217 -0.812161 0
M  V30 7852 N 759.743 -0.201713 -1.56304 0
M  V30 7853 C 761.02 0.483273 -1.89536 0
M  V30 7854 C 761.4 1.79176 -1.11621 0
M  V30 7855 O 760.748 2.27445 -0.219339 0
M  V30 7856 C 760.958 0.695604 -3.41998 0
M  V30 7857 C 762.306 1.012 -4.12364 0
M  V30 7858 O 763.33 0.783094 -3.47485 0
M  V30 7859 O 762.189 1.44534 -5.27041 0
M  V30 7860 H 759.283 0.252801 -0.787414 0
M  V30 7861 H 761.829 -0.24242 -1.6796 0
M  V30 7862 H 760.601 -0.228165 -3.90634 0
M  V30 7863 H 760.224 1.47351 -3.69288 0
M  V30 7864 N 761.222 1.57436 0.0718424 0
M  V30 7865 C 762.169 2.03686 1.08539 0
M  V30 7866 C 763.139 0.917474 1.38462 0
M  V30 7867 O 764.324 1.18513 1.4953 0
M  V30 7868 C 761.464 2.48566 2.39393 0
M  V30 7869 C 760.577 3.74122 2.16001 0
M  V30 7870 C 759.712 4.07786 3.40418 0
M  V30 7871 C 758.751 5.26383 3.1239 0
M  V30 7872 N 757.888 5.55685 4.29138 0
M  V30 7873 H 762.728 2.90043 0.684018 0
M  V30 7874 H 760.265 1.43438 0.326183 0
M  V30 7875 H 762.223 2.72639 3.15791 0
M  V30 7876 H 760.853 1.65186 2.77333 0
M  V30 7877 H 759.905 3.57389 1.30296 0
M  V30 7878 H 761.217 4.60659 1.91298 0
M  V30 7879 H 760.371 4.32759 4.25211 0
M  V30 7880 H 759.11 3.19817 3.68197 0
M  V30 7881 H 758.115 5.01206 2.25993 0
M  V30 7882 H 759.34 6.1597 2.85934 0
M  V30 7883 H 757.286 4.70675 4.56948 0
M  V30 7884 H 757.203 6.3664 4.07708 0
M  V30 7885 H 758.471 5.85209 5.14928 0
M  V30 7886 N 762.7 -0.34323 1.53817 0
M  V30 7887 C 763.947 -1.08344 1.71079 0
M  V30 7888 C 764.275 -1.88633 0.474133 0
M  V30 7889 O 763.53 -1.87984 -0.544116 0
M  V30 7890 C 763.829 -2.05195 2.92626 0
M  V30 7891 C 763.495 -1.41215 4.28216 0
M  V30 7892 C 762.157 -1.23495 4.65083 0
M  V30 7893 C 764.509 -0.951273 5.12445 0
M  V30 7894 C 761.837 -0.583065 5.83796 0
M  V30 7895 C 764.189 -0.313292 6.31824 0
M  V30 7896 C 762.853 -0.123779 6.67385 0
M  V30 7897 H 762.123 -0.396458 0.626021 0
M  V30 7898 H 764.77 -0.362689 1.88034 0
M  V30 7899 H 763.075 -2.83653 2.70275 0
M  V30 7900 H 764.772 -2.62462 3.03175 0
M  V30 7901 H 761.362 -1.56005 3.992 0
M  V30 7902 H 765.546 -1.07602 4.84495 0
M  V30 7903 H 760.802 -0.424854 6.09922 0
M  V30 7904 H 764.976 0.0519179 6.96381 0
M  V30 7905 H 762.603 0.383398 7.59233 0
M  V30 7906 N 764.178 -1.45556 -0.604258 0
M  V30 7907 C 765.128 -1.50906 -1.70913 0
M  V30 7908 C 766.112 -0.371996 -1.56541 0
M  V30 7909 O 767.304 -0.619064 -1.65821 0
M  V30 7910 C 764.433 -1.48181 -3.09673 0
M  V30 7911 C 763.519 -2.67102 -3.2942 0
M  V30 7912 N 763.91 -3.92184 -3.19414 0
M  V30 7913 C 762.208 -2.6287 -3.60299 0
M  V30 7914 C 762.909 -4.71571 -3.40581 0
M  V30 7915 N 761.885 -4.03081 -3.64728 0
M  V30 7916 H 765.687 -2.45435 -1.61675 0
M  V30 7917 H 763.201 -1.40894 -0.807622 0
M  V30 7918 H 765.198 -1.501 -3.88942 0
M  V30 7919 H 763.858 -0.54712 -3.20057 0
M  V30 7920 H 764.869 -4.23756 -2.97743 0
M  V30 7921 H 761.546 -1.78324 -3.77501 0
M  V30 7922 H 762.936 -5.80571 -3.38211 0
M  V30 7923 N 765.656 0.84705 -1.32902 0
M  V30 7924 C 766.619 1.9378 -1.224 0
M  V30 7925 C 767.619 1.60144 -0.145108 0
M  V30 7926 O 768.809 1.69638 -0.396058 0
M  V30 7927 C 765.941 3.29234 -0.884174 0
M  V30 7928 H 767.134 2.04518 -2.19345 0
M  V30 7929 H 764.687 1.03816 -1.16842 0
M  V30 7930 H 765.422 3.24193 0.0831277 0
M  V30 7931 H 765.207 3.55026 -1.6643 0
M  V30 7932 H 766.697 4.09162 -0.835226 0
M  V30 7933 N 767.134 1.16236 1.06428 0
M  V30 7934 C 768.081 0.86769 2.13869 0
M  V30 7935 C 769.051 -0.183298 1.65086 0
M  V30 7936 O 770.236 -0.0488002 1.90738 0
M  V30 7937 C 767.376 0.373427 3.43074 0
M  V30 7938 C 766.489 1.48708 4.05598 0
M  V30 7939 C 765.624 0.947977 5.22673 0
M  V30 7940 C 764.663 2.03793 5.77178 0
M  V30 7941 N 763.8 1.51451 6.85571 0
M  V30 7942 H 768.64 1.78781 2.38414 0
M  V30 7943 H 766.177 0.891892 1.16977 0
M  V30 7944 H 768.135 0.0685035 4.17144 0
M  V30 7945 H 766.765 -0.509752 3.1875 0
M  V30 7946 H 765.817 1.908 3.29089 0
M  V30 7947 H 767.129 2.30964 4.42105 0
M  V30 7948 H 766.283 0.596154 6.03764 0
M  V30 7949 H 765.022 0.0947081 4.87608 0
M  V30 7950 H 764.027 2.39847 4.94726 0
M  V30 7951 H 765.252 2.89514 6.14295 0
M  V30 7952 H 763.198 0.683755 6.52427 0
M  V30 7953 H 763.115 2.27325 7.21013 0
M  V30 7954 H 764.383 1.19123 7.70344 0
M  V30 7955 N 768.612 -1.24939 0.960631 0
M  V30 7956 C 769.84 -1.96881 0.636045 0
M  V30 7957 C 770.255 -1.71334 -0.793093 0
M  V30 7958 O 769.612 -0.992917 -1.53125 0
M  V30 7959 C 769.663 -3.50309 0.892533 0
M  V30 7960 O 769.384 -3.74977 2.26548 0
M  V30 7961 C 770.885 -4.39474 0.581159 0
M  V30 7962 H 768.105 -0.627399 0.237931 0
M  V30 7963 H 770.649 -1.58952 1.28664 0
M  V30 7964 H 768.804 -3.86326 0.288257 0
M  V30 7965 H 769.218 -4.69401 2.34014 0
M  V30 7966 H 770.692 -5.46008 0.811125 0
M  V30 7967 H 771.169 -4.3652 -0.48443 0
M  V30 7968 H 771.775 -4.09032 1.16502 0
M  V30 7969 N 770.09 -0.729906 -1.39679 0
M  V30 7970 C 771.315 -0.284345 -2.05442 0
M  V30 7971 C 771.74 1.07056 -1.54663 0
M  V30 7972 O 771.098 1.67732 -0.688157 0
M  V30 7973 C 771.146 -0.290089 -3.59431 0
M  V30 7974 O 770.25 0.723978 -4.05995 0
M  V30 7975 H 769.591 -0.130311 -0.651088 0
M  V30 7976 H 772.121 -0.994403 -1.78809 0
M  V30 7977 H 772.131 -0.132712 -4.07784 0
M  V30 7978 H 770.806 -1.27877 -3.95753 0
M  V30 7979 H 769.383 0.533154 -3.69069 0
M  V30 7980 N 771.568 1.50203 -0.477153 0
M  V30 7981 C 772.979 1.86685 -0.0235041 0
M  V30 7982 C 773.33 1.39148 1.38319 0
M  V30 7983 O 772.455 0.759051 2.02651 0
M  V30 7984 C 773.05 3.38781 -0.0358767 0
M  V30 7985 C 771.609 3.74652 0.362327 0
M  V30 7986 C 770.756 2.7412 -0.41875 0
M  V30 7987 H 773.707 1.4286 -0.691133 0
M  V30 7988 H 773.728 3.72732 0.764924 0
M  V30 7989 H 773.24 3.73349 -1.05981 0
M  V30 7990 H 771.341 3.45686 1.39039 0
M  V30 7991 H 771.454 4.79063 0.059457 0
M  V30 7992 H 769.818 2.54376 0.128341 0
M  V30 7993 H 770.601 3.11532 -1.44231 0
M  V30 7994 N 773.046 0.209999 1.56195 0
M  V30 7995 C 773.976 -0.699746 2.22769 0
M  V30 7996 C 774.957 -1.20993 1.1956 0
M  V30 7997 O 776.142 -1.25605 1.48112 0
M  V30 7998 C 773.272 -1.91302 2.89863 0
M  V30 7999 C 772.226 -1.53715 3.99444 0
M  V30 8000 C 771.552 -2.82826 4.53777 0
M  V30 8001 C 772.852 -0.735836 5.17091 0
M  V30 8002 H 774.546 -0.144716 2.9905 0
M  V30 8003 H 772.092 -0.0681645 1.43839 0
M  V30 8004 H 774.045 -2.5548 3.35124 0
M  V30 8005 H 772.769 -2.49283 2.11011 0
M  V30 8006 H 771.428 -0.918892 3.54897 0
M  V30 8007 H 771.076 -3.38927 3.71669 0
M  V30 8008 H 770.776 -2.58415 5.27727 0
M  V30 8009 H 772.3 -3.47966 5.01749 0
M  V30 8010 H 773.714 -1.28105 5.58804 0
M  V30 8011 H 772.111 -0.589272 5.972 0
M  V30 8012 H 773.181 0.260004 4.84202 0
M  V30 8013 N 774.524 -1.57472 -0.0634922 0
M  V30 8014 C 775.454 -2.07297 -1.07473 0
M  V30 8015 C 776.435 -0.968162 -1.39859 0
M  V30 8016 O 777.62 -1.24139 -1.49343 0
M  V30 8017 C 774.75 -2.52381 -2.38581 0
M  V30 8018 C 773.704 -3.66813 -2.20526 0
M  V30 8019 C 773.03 -3.97982 -3.57092 0
M  V30 8020 C 774.33 -4.96553 -1.61965 0
M  V30 8021 H 776.024 -2.92033 -0.660092 0
M  V30 8022 H 773.57 -1.40488 -0.316074 0
M  V30 8023 H 775.523 -2.85852 -3.09624 0
M  V30 8024 H 774.247 -1.64684 -2.8204 0
M  V30 8025 H 772.906 -3.33639 -1.51924 0
M  V30 8026 H 772.554 -3.07403 -3.98136 0
M  V30 8027 H 772.254 -4.7504 -3.45848 0
M  V30 8028 H 773.778 -4.33956 -4.29552 0
M  V30 8029 H 775.192 -5.28201 -2.22883 0
M  V30 8030 H 773.589 -5.7799 -1.61394 0
M  V30 8031 H 774.659 -4.81396 -0.581918 0
M  V30 8032 N 776.003 0.335068 -1.53997 0
M  V30 8033 C 777.231 1.09418 -1.756 0
M  V30 8034 C 777.646 1.82083 -0.499138 0
M  V30 8035 O 777.003 1.74646 0.529631 0
M  V30 8036 C 777.054 2.10115 -2.94166 0
M  V30 8037 O 776.775 1.40404 -4.14992 0
M  V30 8038 C 778.276 2.98336 -3.27888 0
M  V30 8039 H 775.496 0.32595 -0.586513 0
M  V30 8040 H 778.04 0.384693 -2.00849 0
M  V30 8041 H 776.195 2.76616 -2.71224 0
M  V30 8042 H 776.609 2.07743 -4.81605 0
M  V30 8043 H 778.083 3.6491 -4.1418 0
M  V30 8044 H 778.56 3.64814 -2.44556 0
M  V30 8045 H 779.166 2.37412 -3.52868 0
M  V30 8046 N 777.481 1.45874 0.596531 0
M  V30 8047 C 778.706 1.54247 1.38646 0
M  V30 8048 C 779.131 0.179571 1.87241 0
M  V30 8049 O 778.489 -0.837831 1.6078 0
M  V30 8050 C 778.537 2.54015 2.55946 0
M  V30 8051 O 777.641 2.06561 3.5694 0
M  V30 8052 H 776.982 0.519555 0.413471 0
M  V30 8053 H 779.512 1.91327 0.724936 0
M  V30 8054 H 779.522 2.73179 3.03047 0
M  V30 8055 H 778.197 3.52994 2.19928 0
M  V30 8056 H 776.774 1.97324 3.16414 0
M  V30 8057 N 778.959 -0.83999 1.33349 0
M  V30 8058 C 779.889 -1.965 1.26135 0
M  V30 8059 C 780.87 -1.69505 0.142152 0
M  V30 8060 O 782.055 -1.91346 0.331743 0
M  V30 8061 C 779.185 -3.32632 0.99866 0
M  V30 8062 C 778.139 -3.74021 2.08068 0
M  V30 8063 C 777.465 -5.07947 1.67014 0
M  V30 8064 C 778.765 -3.87925 3.49731 0
M  V30 8065 H 780.459 -2.02793 2.20262 0
M  V30 8066 H 778.005 -0.974297 1.06035 0
M  V30 8067 H 779.958 -4.10903 0.934696 0
M  V30 8068 H 778.682 -3.26593 0.0217759 0
M  V30 8069 H 777.341 -2.98012 2.13505 0
M  V30 8070 H 776.989 -4.98378 0.680316 0
M  V30 8071 H 776.689 -5.36611 2.39422 0
M  V30 8072 H 778.213 -5.88695 1.62082 0
M  V30 8073 H 779.627 -4.5651 3.46802 0
M  V30 8074 H 778.024 -4.28023 4.20614 0
M  V30 8075 H 779.094 -2.90407 3.88319 0
M  V30 8076 N 780.437 -1.16799 -1.0581 0
M  V30 8077 C 781.686 -0.94698 -1.78088 0
M  V30 8078 C 781.999 0.526016 -1.88394 0
M  V30 8079 O 783.205 0.865061 -2.5735 0
M  V30 8080 C 781.661 -1.64508 -3.20102 0
M  V30 8081 C 781.269 -3.15618 -3.17946 0
M  V30 8082 C 783.013 -1.50622 -3.96879 0
M  V30 8083 C 780.92 -3.78144 -4.5471 0
M  V30 8084 H 779.85 -0.35067 -0.667493 0
M  V30 8085 H 782.501 -1.39985 -1.18645 0
M  V30 8086 H 780.883 -1.11993 -3.79834 0
M  V30 8087 H 782.057 -3.75016 -2.67768 0
M  V30 8088 H 780.372 -3.29444 -2.54667 0
M  V30 8089 H 782.969 -1.94713 -4.97987 0
M  V30 8090 H 783.312 -0.455864 -4.13797 0
M  V30 8091 H 783.845 -2.00319 -3.43682 0
M  V30 8092 H 780.584 -4.83149 -4.42998 0
M  V30 8093 H 780.104 -3.23532 -5.05062 0
M  V30 8094 H 781.783 -3.79986 -5.2366 0
M  V30 8095 N 781.915 1.24427 -0.967243 0
M  V30 8096 C 782.825 2.29109 -0.504592 0
M  V30 8097 C 783.841 1.68495 0.434224 0
M  V30 8098 O 785.017 1.99041 0.307379 0
M  V30 8099 C 782.082 3.46133 0.198273 0
M  V30 8100 C 781.143 4.22149 -0.780313 0
M  V30 8101 C 780.376 5.33585 -0.110896 0
M  V30 8102 O 780.599 5.59676 1.10088 0
M  V30 8103 O 779.533 5.96522 -0.802823 0
M  V30 8104 H 783.359 2.708 -1.37482 0
M  V30 8105 H 780.944 1.30111 -0.73426 0
M  V30 8106 H 782.826 4.17205 0.593124 0
M  V30 8107 H 781.501 3.0642 1.04347 0
M  V30 8108 H 780.408 3.53454 -1.22561 0
M  V30 8109 H 781.741 4.65677 -1.59392 0
M  V30 8110 N 783.393 0.737304 1.3929 0
M  V30 8111 C 784.618 0.295237 2.05288 0
M  V30 8112 C 785.043 -1.06235 1.55228 0
M  V30 8113 O 784.401 -1.67365 0.697043 0
M  V30 8114 C 784.449 0.309146 3.59272 0
M  V30 8115 O 783.553 -0.702437 4.06374 0
M  V30 8116 H 782.894 0.133762 0.650387 0
M  V30 8117 H 785.424 1.00387 1.78279 0
M  V30 8118 H 785.434 0.154336 4.07708 0
M  V30 8119 H 784.109 1.29974 3.95069 0
M  V30 8120 H 782.686 -0.513574 3.69346 0
M  V30 8121 N 784.871 -1.49948 0.485112 0
M  V30 8122 C 786.117 -2.02695 -0.0651022 0
M  V30 8123 C 786.45 -1.36534 -1.38102 0
M  V30 8124 O 785.725 -0.495677 -1.88078 0
M  V30 8125 C 786.008 -3.59337 -0.234285 0
M  V30 8126 C 785.861 -4.3605 1.10364 0
M  V30 8127 C 787.18 -4.28996 -0.982351 0
M  V30 8128 H 784.299 -0.736666 -0.0221856 0
M  V30 8129 H 786.941 -1.7913 0.633433 0
M  V30 8130 H 785.091 -3.79546 -0.829262 0
M  V30 8131 H 786.763 -4.27377 1.73627 0
M  V30 8132 H 785.006 -3.99236 1.69686 0
M  V30 8133 H 785.677 -5.43959 0.938743 0
M  V30 8134 H 788.153 -4.13346 -0.477904 0
M  V30 8135 H 787.029 -5.38379 -1.06955 0
M  V30 8136 H 787.29 -3.93135 -2.02231 0
M  V30 8137 N 786.349 -0.21828 -1.56081 0
M  V30 8138 C 787.279 0.687922 -2.23136 0
M  V30 8139 C 788.26 1.20357 -1.202 0
M  V30 8140 O 789.445 1.24817 -1.48776 0
M  V30 8141 C 786.575 1.89762 -2.90874 0
M  V30 8142 C 785.529 1.51595 -4.00254 0
M  V30 8143 C 784.855 2.80415 -4.55271 0
M  V30 8144 C 786.155 0.708404 -5.17474 0
M  V30 8145 H 787.849 0.128854 -2.99123 0
M  V30 8146 H 785.395 0.0605354 -1.43873 0
M  V30 8147 H 787.348 2.53699 -3.36474 0
M  V30 8148 H 786.072 2.4816 -2.1233 0
M  V30 8149 H 784.731 0.900058 -3.55379 0
M  V30 8150 H 784.379 3.36951 -3.73461 0
M  V30 8151 H 784.079 2.55613 -5.2909 0
M  V30 8152 H 785.603 3.453 -5.03587 0
M  V30 8153 H 787.017 1.2514 -5.59476 0
M  V30 8154 H 785.414 0.557593 -5.97504 0
M  V30 8155 H 786.484 -0.285679 -4.84058 0
M  V30 8156 N 787.827 1.57504 0.0551401 0
M  V30 8157 C 788.774 2.04825 1.06373 0
M  V30 8158 C 789.744 0.932108 1.37481 0
M  V30 8159 O 790.929 1.20093 1.48265 0
M  V30 8160 C 788.069 2.51091 2.36743 0
M  V30 8161 C 787.182 3.76392 2.12021 0
M  V30 8162 C 786.317 4.11373 3.36074 0
M  V30 8163 C 785.356 5.29666 3.0679 0
M  V30 8164 N 784.493 5.60205 4.2322 0
M  V30 8165 H 789.333 2.90753 0.653216 0
M  V30 8166 H 786.87 1.43776 0.310951 0
M  V30 8167 H 788.828 2.75973 3.12881 0
M  V30 8168 H 787.458 1.68118 2.75565 0
M  V30 8169 H 786.51 3.58751 1.26498 0
M  V30 8170 H 787.822 4.62662 1.86401 0
M  V30 8171 H 786.976 4.37245 4.20597 0
M  V30 8172 H 785.715 3.23704 3.64784 0
M  V30 8173 H 784.72 5.03574 2.20664 0
M  V30 8174 H 785.945 6.18968 2.79385 0
M  V30 8175 H 783.891 4.75495 4.5193 0
M  V30 8176 H 783.808 6.40928 4.00933 0
M  V30 8177 H 785.076 5.90637 5.08692 0
M  V30 8178 N 789.305 -0.326896 1.54172 0
M  V30 8179 C 790.237 -1.42319 1.79661 0
M  V30 8180 C 791.25 -1.47989 0.678456 0
M  V30 8181 O 792.439 -1.50773 0.955503 0
M  V30 8182 C 789.539 -2.80876 1.89636 0
M  V30 8183 C 788.712 -2.98449 3.19761 0
M  V30 8184 C 787.771 -4.17347 3.2048 0
M  V30 8185 O 786.797 -4.10667 3.94134 0
M  V30 8186 N 787.999 -5.26717 2.44027 0
M  V30 8187 H 790.764 -1.20819 2.74268 0
M  V30 8188 H 788.325 -0.516866 1.53428 0
M  V30 8189 H 790.317 -3.58619 1.87549 0
M  V30 8190 H 788.887 -2.95442 1.02141 0
M  V30 8191 H 788.107 -2.08035 3.34836 0
M  V30 8192 H 789.395 -3.07083 4.05681 0
M  V30 8193 H 788.793 -5.35019 1.8377 0
M  V30 8194 H 787.35 -6.02891 2.47721 0
M  V30 8195 N 790.784 -1.46188 -0.588786 0
M  V30 8196 C 792.03 -1.51407 -1.34921 0
M  V30 8197 C 792.363 -0.162771 -1.93517 0
M  V30 8198 O 791.638 0.825082 -1.76132 0
M  V30 8199 C 791.921 -2.60795 -2.48311 0
M  V30 8200 C 791.774 -4.05435 -1.94789 0
M  V30 8201 C 793.093 -2.66313 -3.50379 0
M  V30 8202 H 790.212 -0.551213 -0.489217 0
M  V30 8203 H 792.854 -1.78095 -0.661993 0
M  V30 8204 H 791.004 -2.3817 -3.06932 0
M  V30 8205 H 792.676 -4.39328 -1.40672 0
M  V30 8206 H 790.919 -4.15202 -1.25659 0
M  V30 8207 H 791.59 -4.77691 -2.76613 0
M  V30 8208 H 794.066 -2.86634 -3.01629 0
M  V30 8209 H 792.942 -3.44681 -4.27184 0
M  V30 8210 H 793.203 -1.72127 -4.07216 0
M  V30 8211 N 792.262 0.832906 -1.33792 0
M  V30 8212 C 793.539 1.57359 -1.16178 0
M  V30 8213 C 793.919 2.09372 0.269532 0
M  V30 8214 O 793.267 1.89993 1.26944 0
M  V30 8215 C 793.477 2.70279 -2.20795 0
M  V30 8216 C 794.825 3.39305 -2.55259 0
M  V30 8217 O 795.849 2.80526 -2.19508 0
M  V30 8218 O 794.708 4.45428 -3.16632 0
M  V30 8219 H 791.802 0.694025 -0.449731 0
M  V30 8220 H 794.348 0.875144 -1.45394 0
M  V30 8221 H 793.12 2.29527 -3.16911 0
M  V30 8222 H 792.743 3.47782 -1.927 0
M  V30 8223 N 793.74 1.17359 1.05189 0
M  V30 8224 C 794.965 0.98709 1.82404 0
M  V30 8225 C 795.39 -0.459848 1.82392 0
M  V30 8226 O 794.748 -1.32924 1.23292 0
M  V30 8227 C 794.796 1.53276 3.26403 0
M  V30 8228 O 793.9 0.746541 4.05587 0
M  V30 8229 H 793.241 0.35047 0.563974 0
M  V30 8230 H 795.771 1.55856 1.32552 0
M  V30 8231 H 795.781 1.55504 3.77203 0
M  V30 8232 H 794.456 2.58603 3.25726 0
M  V30 8233 H 793.033 0.795671 3.64312 0
M  V30 8234 N 795.218 -1.23913 0.973828 0
M  V30 8235 C 796.629 -1.73992 0.677021 0
M  V30 8236 C 796.98 -1.78833 -0.807036 0
M  V30 8237 O 796.105 -1.42183 -1.63135 0
M  V30 8238 C 796.7 -3.15985 1.22226 0
M  V30 8239 C 795.259 -3.63547 0.975228 0
M  V30 8240 C 794.406 -2.42001 1.35392 0
M  V30 8241 H 797.357 -1.09529 1.14844 0
M  V30 8242 H 797.378 -3.75875 0.591489 0
M  V30 8243 H 796.89 -3.12429 2.30238 0
M  V30 8244 H 794.991 -3.72493 -0.0891047 0
M  V30 8245 H 795.104 -4.50693 1.62518 0
M  V30 8246 H 793.468 -2.42708 0.772334 0
M  V30 8247 H 794.251 -2.41122 2.44367 0
M  V30 8248 N 796.696 -0.74468 -1.38897 0
M  V30 8249 C 797.644 -0.100312 -2.32384 0
M  V30 8250 C 798.638 0.715191 -1.53562 0
M  V30 8251 O 799.844 0.615288 -1.69157 0
M  V30 8252 H 796.219 -0.0136403 -0.751876 0
M  V30 8253 H 798.19 -0.905007 -2.84345 0
M  V30 8254 C 796.939 0.785432 -3.38713 0
M  V30 8255 H 796.262 0.167308 -3.9945 0
M  V30 8256 H 797.702 1.20374 -4.06554 0
M  V30 8257 C 796.161 1.92408 -2.76552 0
M  V30 8258 O 796.691 3.01752 -2.65157 0
M  V30 8259 N 794.897 1.71642 -2.34494 0
M  V30 8260 H 794.444 0.827079 -2.43961 0
M  V30 8261 H 794.402 2.48 -1.93244 0
M  V30 8262 N 798.174 1.49689 -0.493057 0
M  V30 8263 C 799.124 2.25901 0.308682 0
M  V30 8264 C 800.108 1.30408 0.94247 0
M  V30 8265 O 801.3 1.55179 0.851384 0
M  V30 8266 C 798.429 3.14463 1.37725 0
M  V30 8267 C 797.515 4.17414 0.7501 0
M  V30 8268 N 797.906 5.05599 -0.142597 0
M  V30 8269 C 796.204 4.34377 1.01159 0
M  V30 8270 C 796.905 5.7954 -0.500782 0
M  V30 8271 N 795.881 5.43446 0.129386 0
M  V30 8272 H 799.683 2.91451 -0.378652 0
M  V30 8273 H 797.197 1.59441 -0.308614 0
M  V30 8274 H 799.194 3.67687 1.965 0
M  V30 8275 H 797.854 2.50464 2.06635 0
M  V30 8276 H 798.865 5.15354 -0.512894 0
M  V30 8277 H 795.542 3.81588 1.69402 0
M  V30 8278 H 796.932 6.60534 -1.23063 0
M  V30 8279 N 799.652 0.226554 1.55963 0
M  V30 8280 C 800.877 -0.411527 2.03276 0
M  V30 8281 C 801.302 -1.52206 1.10521 0
M  V30 8282 O 800.66 -1.81054 0.0943217 0
M  V30 8283 C 800.708 -0.915694 3.4878 0
M  V30 8284 O 799.812 -2.02672 3.59163 0
M  V30 8285 H 799.153 -0.0924907 0.657527 0
M  V30 8286 H 801.683 0.346656 2.01642 0
M  V30 8287 H 801.693 -1.22421 3.892 0
M  V30 8288 H 800.368 -0.102915 4.15773 0
M  V30 8289 H 798.945 -1.72445 3.30632 0
M  V30 8290 N 801.13 -1.57531 -0.0467866 0
M  V30 8291 C 802.378 -1.88078 -0.739656 0
M  V30 8292 C 802.699 -0.821936 -1.76831 0
M  V30 8293 O 801.969 0.146582 -1.95351 0
M  V30 8294 H 800.549 -0.694075 -0.276169 0
M  V30 8295 H 803.211 -1.94893 -0.0169391 0
M  V30 8296 H 802.307 -2.86396 -1.24031 0
M  V30 8297 N 802.608 0.318715 -1.54344 0
M  V30 8298 C 803.54 1.41364 -1.80413 0
M  V30 8299 C 804.553 1.47627 -0.686294 0
M  V30 8300 O 805.742 1.50264 -0.963486 0
M  V30 8301 C 802.842 2.79867 -1.91123 0
M  V30 8302 C 802.015 2.96749 -3.21339 0
M  V30 8303 C 801.074 4.15642 -3.22689 0
M  V30 8304 O 800.1 4.08571 -3.96306 0
M  V30 8305 N 801.302 5.25416 -2.46817 0
M  V30 8306 H 804.067 1.19363 -2.74905 0
M  V30 8307 H 801.628 0.508722 -1.537 0
M  V30 8308 H 803.62 3.57619 -1.89448 0
M  V30 8309 H 802.19 2.94896 -1.03706 0
M  V30 8310 H 801.41 2.06257 -3.35934 0
M  V30 8311 H 802.698 3.04927 -4.07304 0
M  V30 8312 H 802.096 5.34037 -1.86605 0
M  V30 8313 H 800.653 6.01569 -2.50915 0
M  V30 8314 N 804.086 1.46499 0.581025 0
M  V30 8315 C 805.314 1.5547 1.36517 0
M  V30 8316 C 805.729 0.196407 1.87776 0
M  V30 8317 O 805.086 -0.806577 1.63709 0
M  V30 8318 C 805.137 2.56084 2.55154 0
M  V30 8319 O 804.858 3.86637 2.06018 0
M  V30 8320 C 806.359 2.75011 3.47683 0
M  V30 8321 H 803.579 0.525703 0.416986 0
M  V30 8322 H 806.123 1.9192 0.706177 0
M  V30 8323 H 804.278 2.22633 3.17039 0
M  V30 8324 H 804.692 4.41413 2.83292 0
M  V30 8325 H 806.166 3.49329 4.27403 0
M  V30 8326 H 806.643 1.81978 3.99726 0
M  V30 8327 H 807.249 3.09565 2.91632 0
M  V30 8328 N 805.565 -0.825799 1.34232 0
M  V30 8329 C 806.495 -1.95151 1.28212 0
M  V30 8330 C 807.476 -1.69345 0.160123 0
M  V30 8331 O 808.661 -1.90983 0.352019 0
M  V30 8332 C 805.791 -3.31554 1.03388 0
M  V30 8333 C 804.745 -3.71793 2.12023 0
M  V30 8334 C 804.071 -5.06147 1.72392 0
M  V30 8335 C 805.371 -3.84193 3.53826 0
M  V30 8336 H 807.065 -2.00445 2.22401 0
M  V30 8337 H 804.611 -0.962996 1.07063 0
M  V30 8338 H 806.564 -4.09889 0.978225 0
M  V30 8339 H 805.288 -3.26551 0.0564142 0
M  V30 8340 H 803.947 -2.95731 2.16654 0
M  V30 8341 H 803.595 -4.97628 0.733137 0
M  V30 8342 H 803.295 -5.34041 2.451 0
M  V30 8343 H 804.819 -5.86943 1.68317 0
M  V30 8344 H 806.233 -4.52806 3.51624 0
M  V30 8345 H 804.63 -4.23538 4.2513 0
M  V30 8346 H 805.7 -2.86272 3.91377 0
M  V30 8347 N 807.043 -1.17915 -1.04565 0
M  V30 8348 C 808.273 -0.994716 -1.81077 0
M  V30 8349 C 808.681 0.460146 -1.83519 0
M  V30 8350 O 808.024 1.33136 -1.26572 0
M  V30 8351 C 808.086 -1.46698 -3.28207 0
M  V30 8352 C 807.75 -2.94523 -3.49436 0
M  V30 8353 C 808.747 -3.92414 -3.41038 0
M  V30 8354 C 806.432 -3.32841 -3.76194 0
M  V30 8355 C 808.426 -5.2662 -3.59096 0
M  V30 8356 C 806.113 -4.67212 -3.93899 0
M  V30 8357 C 807.111 -5.6391 -3.8535 0
M  V30 8358 O 806.799 -6.95849 -4.02554 0
M  V30 8359 H 806.531 -0.351797 -0.577248 0
M  V30 8360 H 809.085 -1.56772 -1.32709 0
M  V30 8361 H 807.315 -0.837592 -3.7752 0
M  V30 8362 H 809.004 -1.24724 -3.86263 0
M  V30 8363 H 809.77 -3.64157 -3.20336 0
M  V30 8364 H 805.649 -2.58139 -3.81949 0
M  V30 8365 H 809.193 -6.02082 -3.52339 0
M  V30 8366 H 805.09 -4.95172 -4.14095 0
M  V30 8367 H 805.858 -7.02679 -4.19743 0
M  V30 8368 N 808.521 1.23394 -0.980386 0
M  V30 8369 C 809.431 2.28561 -0.528864 0
M  V30 8370 C 810.447 1.68946 0.416329 0
M  V30 8371 O 811.623 1.99355 0.286251 0
M  V30 8372 C 808.688 3.46323 0.16155 0
M  V30 8373 C 807.749 4.21297 -0.825044 0
M  V30 8374 C 806.982 5.33437 -0.167483 0
M  V30 8375 O 807.205 5.60812 1.04146 0
M  V30 8376 O 806.139 5.95637 -0.866047 0
M  V30 8377 H 809.965 2.69326 -1.40346 0
M  V30 8378 H 807.55 1.29325 -0.748019 0
M  V30 8379 H 809.432 4.17811 0.548841 0
M  V30 8380 H 808.107 3.0751 1.01092 0
M  V30 8381 H 807.014 3.52134 -1.26303 0
M  V30 8382 H 808.347 4.6396 -1.64322 0
M  V30 8383 N 809.999 0.752036 1.385 0
M  V30 8384 C 810.931 0.0835089 2.29048 0
M  V30 8385 C 811.944 -0.685402 1.47669 0
M  V30 8386 O 813.133 -0.526748 1.70551 0
M  V30 8387 C 810.233 -0.905772 3.26572 0
M  V30 8388 C 809.406 -0.194828 4.36966 0
M  V30 8389 C 808.465 -1.09464 5.14688 0
M  V30 8390 O 807.491 -0.565743 5.66381 0
M  V30 8391 N 808.693 -2.42287 5.2752 0
M  V30 8392 H 811.458 0.861142 2.87062 0
M  V30 8393 H 809.019 0.602689 1.50264 0
M  V30 8394 H 811.011 -1.51072 3.75446 0
M  V30 8395 H 809.581 -1.58449 2.69467 0
M  V30 8396 H 808.801 0.590812 3.89747 0
M  V30 8397 H 810.089 0.297189 5.07931 0
M  V30 8398 H 809.487 -2.87715 4.8707 0
M  V30 8399 H 808.044 -2.97836 5.79773 0
M  V30 8400 N 811.477 -1.49425 0.500989 0
M  V30 8401 C 812.723 -2.02753 -0.0436 0
M  V30 8402 C 813.056 -1.37991 -1.36646 0
M  V30 8403 O 812.331 -0.515597 -1.87542 0
M  V30 8404 C 812.614 -3.59565 -0.19616 0
M  V30 8405 C 812.467 -4.34855 1.14982 0
M  V30 8406 C 813.786 -4.30014 -0.936795 0
M  V30 8407 H 810.905 -0.73686 -0.0143711 0
M  V30 8408 H 813.547 -1.78448 0.652397 0
M  V30 8409 H 811.697 -3.80405 -0.788959 0
M  V30 8410 H 813.369 -4.25512 1.7815 0
M  V30 8411 H 811.612 -3.97414 1.73911 0
M  V30 8412 H 812.283 -5.42933 0.996385 0
M  V30 8413 H 814.759 -4.1383 -0.434036 0
M  V30 8414 H 813.635 -5.39483 -1.01238 0
M  V30 8415 H 813.896 -3.95257 -1.9805 0
M  V30 8416 N 812.955 -0.234822 -1.55841 0
M  V30 8417 C 814.201 0.393843 -1.98939 0
M  V30 8418 C 814.534 1.58466 -1.1226 0
M  V30 8419 O 813.809 1.93635 -0.183242 0
M  V30 8420 C 814.092 0.815492 -3.50745 0
M  V30 8421 C 813.945 -0.379878 -4.48193 0
M  V30 8422 C 815.264 1.66687 -4.07312 0
M  V30 8423 H 812.383 0.141681 -0.723253 0
M  V30 8424 H 815.025 -0.333716 -1.87046 0
M  V30 8425 H 813.175 1.43541 -3.6101 0
M  V30 8426 H 814.847 -1.0182 -4.49923 0
M  V30 8427 H 813.09 -1.02507 -4.21515 0
M  V30 8428 H 813.761 -0.0417069 -5.51984 0
M  V30 8429 H 816.237 1.14369 -4.00074 0
M  V30 8430 H 815.113 1.93078 -5.13821 0
M  V30 8431 H 815.374 2.63468 -3.55017 0
M  V30 8432 N 814.433 1.57553 0.0384317 0
M  V30 8433 C 815.68 1.88841 0.731116 0
M  V30 8434 C 816.008 0.83093 1.75857 0
M  V30 8435 O 815.263 -0.169248 1.94967 0
M  V30 8436 C 815.562 3.26862 1.44554 0
M  V30 8437 C 815.228 4.47472 0.554946 0
M  V30 8438 C 813.89 4.80203 0.309621 0
M  V30 8439 C 816.242 5.21165 -0.0605204 0
M  V30 8440 C 813.57 5.8402 -0.560101 0
M  V30 8441 C 815.922 6.25905 -0.91789 0
M  V30 8442 C 814.586 6.57117 -1.17277 0
M  V30 8443 H 813.856 0.691018 0.267534 0
M  V30 8444 H 816.503 1.91498 -0.00883195 0
M  V30 8445 H 814.808 3.2015 2.25856 0
M  V30 8446 H 816.505 3.48316 1.98688 0
M  V30 8447 H 813.095 4.21874 0.756304 0
M  V30 8448 H 817.279 4.96164 0.116064 0
M  V30 8449 H 812.535 6.06583 -0.765974 0
M  V30 8450 H 816.709 6.82155 -1.40136 0
M  V30 8451 H 814.336 7.37385 -1.84843 0
M  V30 8452 N 815.911 -0.310526 1.54511 0
M  V30 8453 C 817.139 -1.06611 1.77318 0
M  V30 8454 C 817.554 -1.81265 0.528043 0
M  V30 8455 O 816.911 -1.75466 -0.50178 0
M  V30 8456 C 816.962 -2.05409 2.97472 0
M  V30 8457 O 816.683 -1.33785 4.17173 0
M  V30 8458 C 818.184 -2.93082 3.32593 0
M  V30 8459 H 815.404 -0.316578 0.591624 0
M  V30 8460 H 817.948 -0.352691 2.01436 0
M  V30 8461 H 816.103 -2.72266 2.7559 0
M  V30 8462 H 816.517 -2.00055 4.84849 0
M  V30 8463 H 817.991 -3.58274 4.19933 0
M  V30 8464 H 818.468 -3.60877 2.50329 0
M  V30 8465 H 819.074 -2.31768 3.566 0
M  V30 8466 N 817.389 -1.46805 -0.573248 0
M  V30 8467 C 818.337 -1.58468 -1.70267 0
M  V30 8468 C 819.331 -0.452694 -1.63239 0
M  V30 8469 O 820.537 -0.629915 -1.68618 0
M  V30 8470 H 816.912 -0.498408 -0.56311 0
M  V30 8471 H 818.883 -2.5341 -1.57563 0
M  V30 8472 C 817.632 -1.60104 -3.08645 0
M  V30 8473 H 816.955 -2.4655 -3.14727 0
M  V30 8474 H 818.395 -1.72318 -3.87405 0
M  V30 8475 C 816.854 -0.33138 -3.35266 0
M  V30 8476 O 817.384 0.57438 -3.97572 0
M  V30 8477 N 815.59 -0.216358 -2.89793 0
M  V30 8478 H 815.137 -0.954345 -2.3927 0
M  V30 8479 H 815.095 0.632253 -3.07977 0
M  V30 8480 N 818.867 0.818669 -1.34668 0
M  V30 8481 C 820.278 1.39177 -1.24446 0
M  V30 8482 C 820.629 1.9578 0.128268 0
M  V30 8483 O 819.754 1.90382 1.02877 0
M  V30 8484 C 820.349 2.53012 -2.25323 0
M  V30 8485 C 818.908 3.06218 -2.18878 0
M  V30 8486 C 818.055 1.79112 -2.11694 0
M  V30 8487 H 821.006 0.622709 -1.45973 0
M  V30 8488 H 821.027 3.31226 -1.8727 0
M  V30 8489 H 820.539 2.11784 -3.25221 0
M  V30 8490 H 818.64 3.51939 -1.22351 0
M  V30 8491 H 818.753 3.65019 -3.10319 0
M  V30 8492 H 817.117 2.0018 -1.57481 0
M  V30 8493 H 817.9 1.40053 -3.13433 0
M  V30 8494 N 820.346 1.18468 1.03938 0
M  V30 8495 C 821.571 1.00638 1.81347 0
M  V30 8496 C 821.996 -0.440477 1.8287 0
M  V30 8497 O 821.354 -1.31609 1.24695 0
M  V30 8498 C 821.402 1.5673 3.24759 0
M  V30 8499 O 820.506 0.789517 4.04772 0
M  V30 8500 H 819.847 0.356432 0.560225 0
M  V30 8501 H 822.377 1.57253 1.30891 0
M  V30 8502 H 822.387 1.59496 3.75533 0
M  V30 8503 H 821.062 2.62043 3.22965 0
M  V30 8504 H 819.639 0.834267 3.63448 0
M  V30 8505 N 821.824 -1.22873 0.986916 0
M  V30 8506 C 823.07 -1.92047 0.670042 0
M  V30 8507 C 823.425 -1.75497 -0.788587 0
M  V30 8508 O 822.718 -1.10934 -1.56218 0
M  V30 8509 C 822.912 -3.43014 1.00379 0
M  V30 8510 C 822.741 -3.74251 2.49332 0
M  V30 8511 C 821.511 -3.94589 3.15638 0
M  V30 8512 C 823.709 -3.79208 3.47428 0
M  V30 8513 N 821.691 -4.13086 4.54129 0
M  V30 8514 C 823.062 -4.02775 4.71352 0
M  V30 8515 C 825.117 -3.62029 3.41818 0
M  V30 8516 C 823.82 -4.10946 5.90352 0
M  V30 8517 C 825.846 -3.71457 4.60189 0
M  V30 8518 C 825.208 -3.95468 5.82911 0
M  V30 8519 H 821.307 -0.723668 0.29636 0
M  V30 8520 H 823.891 -1.47946 1.26571 0
M  V30 8521 H 822.062 -3.85936 0.436762 0
M  V30 8522 H 823.794 -3.99551 0.643522 0
M  V30 8523 H 820.549 -3.91762 2.66119 0
M  V30 8524 H 820.973 -4.26275 5.25945 0
M  V30 8525 H 825.615 -3.42457 2.47958 0
M  V30 8526 H 823.333 -4.29324 6.84621 0
M  V30 8527 H 826.919 -3.59511 4.57431 0
M  V30 8528 H 825.799 -4.02584 6.72975 0
M  V30 8529 N 823.302 -0.75937 -1.38099 0
M  V30 8530 C 824.579 -0.243371 -1.9408 0
M  V30 8531 C 824.959 1.25942 -1.69416 0
M  V30 8532 O 824.307 2.03667 -1.03595 0
M  V30 8533 C 824.517 -0.603328 -3.43745 0
M  V30 8534 C 825.865 -0.566195 -4.20808 0
M  V30 8535 O 826.889 -0.541969 -3.52053 0
M  V30 8536 O 825.748 -0.582261 -5.43389 0
M  V30 8537 H 822.842 -0.0526825 -0.82532 0
M  V30 8538 H 825.388 -0.839884 -1.47459 0
M  V30 8539 H 824.16 -1.64098 -3.55229 0
M  V30 8540 H 823.783 0.0208887 -3.97595 0
M  V30 8541 N 824.78 1.49157 -0.508906 0
M  V30 8542 C 825.743 2.27784 0.25434 0
M  V30 8543 C 826.743 1.34132 0.88686 0
M  V30 8544 O 827.933 1.5722 0.750168 0
M  V30 8545 C 825.065 3.12347 1.36573 0
M  V30 8546 H 826.258 2.96718 -0.435714 0
M  V30 8547 H 823.811 1.54052 -0.264128 0
M  V30 8548 H 824.546 2.47997 2.08969 0
M  V30 8549 H 824.331 3.81213 0.917543 0
M  V30 8550 H 825.821 3.71712 1.90315 0
M  V30 8551 N 826.258 0.243083 1.55714 0
M  V30 8552 C 827.168 -0.668913 2.24862 0
M  V30 8553 C 828.184 -1.19638 1.26344 0
M  V30 8554 O 829.36 -1.23345 1.5921 0
M  V30 8555 C 826.425 -1.85084 2.93163 0
M  V30 8556 C 825.486 -1.36323 4.07081 0
M  V30 8557 C 824.719 -2.48882 4.72116 0
M  V30 8558 O 824.942 -3.67523 4.36214 0
M  V30 8559 O 823.876 -2.18857 5.60701 0
M  V30 8560 H 827.702 -0.109737 3.03502 0
M  V30 8561 H 825.287 0.0117411 1.49395 0
M  V30 8562 H 827.169 -2.54065 3.36197 0
M  V30 8563 H 825.844 -2.39771 2.17466 0
M  V30 8564 H 824.751 -0.640804 3.68571 0
M  V30 8565 H 826.084 -0.86249 4.84584 0
M  V30 8566 N 827.736 -1.57571 -0.0300757 0
M  V30 8567 C 828.982 -1.89506 -0.722159 0
M  V30 8568 C 829.315 -0.840699 -1.7506 0
M  V30 8569 O 828.59 0.144358 -1.93964 0
M  V30 8570 C 828.873 -3.32081 -1.39262 0
M  V30 8571 C 828.726 -4.48211 -0.377768 0
M  V30 8572 C 830.045 -3.73557 -2.32687 0
M  V30 8573 H 827.164 -0.689213 -0.261064 0
M  V30 8574 H 829.806 -1.89994 0.0150388 0
M  V30 8575 H 827.956 -3.31796 -2.02098 0
M  V30 8576 H 829.628 -4.6063 0.248591 0
M  V30 8577 H 827.871 -4.3274 0.303045 0
M  V30 8578 H 828.542 -5.44854 -0.885347 0
M  V30 8579 H 831.018 -3.75202 -1.79896 0
M  V30 8580 H 829.894 -4.74125 -2.7658 0
M  V30 8581 H 830.155 -3.05759 -3.19317 0
M  V30 8582 N 829.214 0.302327 -1.54673 0
M  V30 8583 C 830.463 1.03533 -1.73101 0
M  V30 8584 C 830.776 1.88473 -0.523174 0
M  V30 8585 O 831.982 2.65029 -0.589229 0
M  V30 8586 C 830.438 1.89043 -3.06252 0
M  V30 8587 C 830.046 1.09112 -4.3451 0
M  V30 8588 C 831.79 2.61951 -3.34039 0
M  V30 8589 C 829.697 1.93891 -5.58713 0
M  V30 8590 H 828.627 0.390261 -0.645145 0
M  V30 8591 H 831.278 0.2924 -1.81155 0
M  V30 8592 H 829.66 2.67319 -2.92159 0
M  V30 8593 H 830.834 0.354596 -4.59434 0
M  V30 8594 H 829.149 0.477923 -4.13648 0
M  V30 8595 H 831.746 3.25729 -4.24033 0
M  V30 8596 H 832.089 3.30711 -2.52855 0
M  V30 8597 H 832.622 1.90725 -3.49097 0
M  V30 8598 H 829.361 1.29604 -6.4256 0
M  V30 8599 H 828.881 2.6522 -5.37976 0
M  V30 8600 H 830.56 2.51971 -5.95919 0
M  V30 8601 N 830.692 1.47107 0.565454 0
M  V30 8602 C 832.108 1.32443 0.890566 0
M  V30 8603 C 832.308 0.308735 1.99121 0
M  V30 8604 O 831.364 -0.28265 2.50913 0
M  V30 8605 C 832.677 2.71548 1.2916 0
M  V30 8606 C 834.225 2.7977 1.40349 0
M  V30 8607 C 834.7 4.19497 1.83811 0
M  V30 8608 N 836.191 4.21998 1.90975 0
M  V30 8609 C 836.926 5.2702 2.25916 0
M  V30 8610 N 836.422 6.42353 2.59527 0
M  V30 8611 N 838.215 5.14393 2.26619 0
M  V30 8612 H 830.366 2.11786 -0.161328 0
M  V30 8613 H 832.629 0.947952 -0.00950631 0
M  V30 8614 H 832.335 3.47265 0.556753 0
M  V30 8615 H 832.209 3.02782 2.24951 0
M  V30 8616 H 834.596 2.0433 2.12916 0
M  V30 8617 H 834.677 2.522 0.427655 0
M  V30 8618 H 834.321 4.95439 1.11816 0
M  V30 8619 H 834.251 4.44486 2.82382 0
M  V30 8620 H 836.742 3.38791 1.6742 0
M  V30 8621 H 837.055 7.18252 2.85191 0
M  V30 8622 H 835.4 6.45687 2.57126 0
M  V30 8623 H 838.591 4.2332 1.99794 0
M  V30 8624 H 838.764 5.96349 2.5352 0
M  V30 8625 N 832.17 -0.811516 1.35101 0
M  V30 8626 C 833.581 -1.38515 1.25182 0
M  V30 8627 C 833.932 -1.95846 -0.117883 0
M  V30 8628 O 833.057 -1.90925 -1.01866 0
M  V30 8629 C 833.652 -2.51813 2.26662 0
M  V30 8630 C 832.211 -3.05052 2.20499 0
M  V30 8631 C 831.358 -1.77987 2.12641 0
M  V30 8632 H 834.309 -0.614959 1.46301 0
M  V30 8633 H 834.33 -3.30228 1.89023 0
M  V30 8634 H 833.842 -2.10057 3.2634 0
M  V30 8635 H 831.943 -3.51285 1.24215 0
M  V30 8636 H 832.056 -3.63368 3.1225 0
M  V30 8637 H 830.42 -1.99342 1.5854 0
M  V30 8638 H 831.203 -1.38389 3.14171 0
M  V30 8639 N 833.648 -1.19017 -1.03309 0
M  V30 8640 C 834.578 -0.94772 -2.13402 0
M  V30 8641 C 835.559 0.117383 -1.69694 0
M  V30 8642 O 836.744 -0.0367733 -1.94165 0
M  V30 8643 C 833.874 -0.480977 -3.43953 0
M  V30 8644 C 832.828 -1.48743 -4.01322 0
M  V30 8645 C 832.154 -0.877924 -5.27443 0
M  V30 8646 C 833.454 -2.86642 -4.36616 0
M  V30 8647 H 835.148 -1.86846 -2.33942 0
M  V30 8648 H 832.694 -0.899781 -1.12427 0
M  V30 8649 H 834.647 -0.298677 -4.2034 0
M  V30 8650 H 833.371 0.475348 -3.23122 0
M  V30 8651 H 832.03 -1.65681 -3.27025 0
M  V30 8652 H 831.678 0.0858232 -5.02927 0
M  V30 8653 H 831.378 -1.54996 -5.66789 0
M  V30 8654 H 832.902 -0.706326 -6.06501 0
M  V30 8655 H 834.316 -2.73312 -5.03958 0
M  V30 8656 H 832.713 -3.50599 -4.87032 0
M  V30 8657 H 833.783 -3.39617 -3.46105 0
M  V30 8658 N 835.127 1.22348 -0.993418 0
M  V30 8659 C 836.538 1.72893 -0.704616 0
M  V30 8660 C 836.889 1.80095 0.778483 0
M  V30 8661 O 836.014 1.4476 1.60853 0
M  V30 8662 C 836.609 3.14 -1.27237 0
M  V30 8663 C 835.168 3.61949 -1.03294 0
M  V30 8664 C 834.315 2.39816 -1.39225 0
M  V30 8665 H 837.266 1.07688 -1.16572 0
M  V30 8666 H 837.287 3.74886 -0.651212 0
M  V30 8667 H 836.799 3.08727 -2.3518 0
M  V30 8668 H 834.9 3.72588 0.0298329 0
M  V30 8669 H 835.013 4.48051 -1.69668 0
M  V30 8670 H 833.377 2.41448 -0.810849 0
M  V30 8671 H 834.16 2.37203 -2.48172 0
M  V30 8672 N 836.605 0.766683 1.37694 0
M  V30 8673 C 837.538 0.0959288 2.27998 0
M  V30 8674 C 838.516 -0.714493 1.46061 0
M  V30 8675 O 839.7 -0.690337 1.75404 0
M  V30 8676 C 836.827 -0.87057 3.27321 0
M  V30 8677 C 835.873 -0.144771 4.26254 0
M  V30 8678 S 836.706 1.16365 5.22704 0
M  V30 8679 C 837.862 0.200564 6.25579 0
M  V30 8680 H 838.095 0.861666 2.84539 0
M  V30 8681 H 835.628 0.559845 1.43893 0
M  V30 8682 H 837.586 -1.42282 3.85053 0
M  V30 8683 H 836.247 -1.60938 2.69737 0
M  V30 8684 H 835.44 -0.877259 4.96307 0
M  V30 8685 H 835.042 0.33633 3.72485 0
M  V30 8686 H 837.334 -0.628833 6.74575 0
M  V30 8687 H 838.277 0.869117 7.02746 0
M  V30 8688 H 838.685 -0.185972 5.64194 0
M  V30 8689 N 838.083 -1.48885 0.516809 0
M  V30 8690 C 839.36 -1.95412 -0.0858293 0
M  V30 8691 C 839.74 -1.45875 -1.5259 0
M  V30 8692 O 839.088 -0.679415 -2.18166 0
M  V30 8693 C 839.298 -3.48995 0.0178194 0
M  V30 8694 C 840.646 -4.24342 -0.14813 0
M  V30 8695 O 841.67 -3.56155 -0.0566125 0
M  V30 8696 O 840.529 -5.45454 -0.338035 0
M  V30 8697 H 837.623 -0.822455 -0.0865884 0
M  V30 8698 H 840.169 -1.59464 0.580472 0
M  V30 8699 H 838.941 -3.77732 1.02147 0
M  V30 8700 H 838.564 -3.91604 -0.687924 0
M  V30 8701 N 839.561 -0.251338 -1.55583 0
M  V30 8702 C 840.786 0.379136 -2.03905 0
M  V30 8703 C 841.211 1.50428 -1.12929 0
M  V30 8704 O 840.569 1.80882 -0.123114 0
M  V30 8705 C 840.617 0.86009 -3.50193 0
M  V30 8706 O 839.721 1.96932 -3.62342 0
M  V30 8707 H 839.062 0.0820183 -0.658915 0
M  V30 8708 H 841.592 -0.378692 -2.01065 0
M  V30 8709 H 841.602 1.16214 -3.91099 0
M  V30 8710 H 840.277 0.0367559 -4.15884 0
M  V30 8711 H 838.854 1.67163 -3.33333 0
M  V30 8712 N 841.039 1.57585 0.0217189 0
M  V30 8713 C 842.264 1.94267 0.726309 0
M  V30 8714 C 842.689 0.851904 1.67703 0
M  V30 8715 O 842.047 -0.191792 1.80283 0
M  V30 8716 C 842.095 3.30023 1.45318 0
M  V30 8717 O 841.199 3.22791 2.5667 0
M  V30 8718 H 840.54 0.634777 0.194818 0
M  V30 8719 H 843.07 2.04585 -0.0249985 0
M  V30 8720 H 843.08 3.65084 1.82147 0
M  V30 8721 H 841.755 4.08972 0.755962 0
M  V30 8722 H 840.332 2.99373 2.2233 0
M  V30 8723 N 842.517 -0.29412 1.54831 0
M  V30 8724 C 843.48 -1.3461 1.85507 0
M  V30 8725 C 844.48 -1.43359 0.728343 0
M  V30 8726 O 845.67 -1.42875 0.996609 0
M  V30 8727 C 842.802 -2.73012 2.0415 0
M  V30 8728 H 843.995 -1.08651 2.79526 0
M  V30 8729 H 841.548 -0.531138 1.46999 0
M  V30 8730 H 842.283 -3.04183 1.12441 0
M  V30 8731 H 842.068 -2.68051 2.86166 0
M  V30 8732 H 843.558 -3.49061 2.29229 0
M  V30 8733 N 843.995 -1.47404 -0.557645 0
M  V30 8734 C 845.225 -1.57393 -1.33832 0
M  V30 8735 C 845.633 -0.222978 -1.87881 0
M  V30 8736 O 844.976 0.793854 -1.65661 0
M  V30 8737 C 845.038 -2.53882 -2.54528 0
M  V30 8738 C 844.702 -3.99585 -2.21767 0
M  V30 8739 C 845.699 -4.88082 -1.79087 0
M  V30 8740 C 843.384 -4.44917 -2.3314 0
M  V30 8741 C 845.378 -6.1993 -1.48209 0
M  V30 8742 C 843.065 -5.76793 -2.01874 0
M  V30 8743 C 844.063 -6.64121 -1.59476 0
M  V30 8744 O 843.751 -7.93546 -1.28607 0
M  V30 8745 H 843.483 -0.534172 -0.41429 0
M  V30 8746 H 846.037 -1.93733 -0.682404 0
M  V30 8747 H 844.267 -2.12609 -3.23009 0
M  V30 8748 H 845.956 -2.54003 -3.16603 0
M  V30 8749 H 846.722 -4.54307 -1.69794 0
M  V30 8750 H 842.601 -3.77152 -2.65099 0
M  V30 8751 H 846.145 -6.88049 -1.15043 0
M  V30 8752 H 842.042 -6.1011 -2.10799 0
M  V30 8753 H 842.81 -8.06046 -1.42241 0
M  V30 8754 N 845.473 0.80434 -1.35529 0
M  V30 8755 C 846.698 1.598 -1.32207 0
M  V30 8756 C 847.123 1.87848 0.0974226 0
M  V30 8757 O 846.481 1.46728 1.06492 0
M  V30 8758 C 846.529 2.90483 -2.13663 0
M  V30 8759 O 845.633 3.83411 -1.51888 0
M  V30 8760 H 844.974 0.485305 -0.453183 0
M  V30 8761 H 847.504 0.998119 -1.78602 0
M  V30 8762 H 847.514 3.39888 -2.257 0
M  V30 8763 H 846.189 2.69395 -3.16859 0
M  V30 8764 H 844.766 3.41967 -1.48704 0
M  V30 8765 N 846.951 1.19563 1.02676 0
M  V30 8766 C 848.198 0.999568 1.7611 0
M  V30 8767 C 848.526 -0.469432 1.8875 0
M  V30 8768 O 847.781 -1.36481 1.40255 0
M  V30 8769 C 848.08 1.61619 3.18769 0
M  V30 8770 C 847.746 3.11366 3.26132 0
M  V30 8771 C 846.408 3.52234 3.27848 0
M  V30 8772 C 848.76 4.07374 3.25109 0
M  V30 8773 C 846.088 4.87658 3.26201 0
M  V30 8774 C 848.44 5.42731 3.25002 0
M  V30 8775 C 847.104 5.83027 3.25017 0
M  V30 8776 H 846.374 0.365768 0.644434 0
M  V30 8777 H 849.021 1.48838 1.20497 0
M  V30 8778 H 847.326 1.04974 3.77476 0
M  V30 8779 H 849.023 1.43975 3.74262 0
M  V30 8780 H 845.613 2.78804 3.25525 0
M  V30 8781 H 849.797 3.76842 3.22961 0
M  V30 8782 H 845.053 5.18156 3.24537 0
M  V30 8783 H 849.227 6.16879 3.23161 0
M  V30 8784 H 846.854 6.87936 3.23494 0
M  V30 8785 N 848.429 -1.21819 0.999893 0
M  V30 8786 C 849.657 -1.94758 0.698359 0
M  V30 8787 C 850.072 -1.73771 -0.738183 0
M  V30 8788 O 849.429 -1.04113 -1.49889 0
M  V30 8789 C 849.48 -3.47292 1.00353 0
M  V30 8790 O 849.201 -3.67579 2.38363 0
M  V30 8791 C 850.702 -4.37403 0.72068 0
M  V30 8792 H 847.922 -0.619512 0.257771 0
M  V30 8793 H 850.466 -1.54778 1.33656 0
M  V30 8794 H 848.621 -3.85213 0.411018 0
M  V30 8795 H 849.035 -4.61719 2.48829 0
M  V30 8796 H 850.509 -5.43151 0.984422 0
M  V30 8797 H 850.986 -4.3784 -0.345309 0
M  V30 8798 H 851.592 -4.05119 1.29456 0
M  V30 8799 N 849.908 -0.773975 -1.37286 0
M  V30 8800 C 850.871 -0.167974 -2.28584 0
M  V30 8801 C 851.871 0.625662 -1.48129 0
M  V30 8802 O 853.061 0.448924 -1.68316 0
M  V30 8803 C 850.193 0.769364 -3.32105 0
M  V30 8804 H 851.386 -0.972806 -2.83684 0
M  V30 8805 H 848.939 -0.542335 -1.46589 0
M  V30 8806 H 849.674 1.59912 -2.82132 0
M  V30 8807 H 849.459 0.202419 -3.91577 0
M  V30 8808 H 850.949 1.18872 -4.00324 0
M  V30 8809 N 851.386 1.48609 -0.524698 0
M  V30 8810 C 852.633 2.02497 0.0113214 0
M  V30 8811 C 852.961 1.40229 1.34781 0
M  V30 8812 O 852.216 0.53557 1.88229 0
M  V30 8813 C 852.515 3.56906 0.187873 0
M  V30 8814 C 852.181 4.37932 -1.07359 0
M  V30 8815 C 850.843 4.59792 -1.41933 0
M  V30 8816 C 853.195 4.84902 -1.911 0
M  V30 8817 C 850.523 5.25868 -2.60154 0
M  V30 8818 C 852.875 5.52281 -3.08495 0
M  V30 8819 C 851.539 5.7238 -3.4342 0
M  V30 8820 H 850.809 0.740988 0.0041428 0
M  V30 8821 H 853.456 1.78651 -0.689652 0
M  V30 8822 H 851.761 3.79563 0.971572 0
M  V30 8823 H 853.458 3.96218 0.617443 0
M  V30 8824 H 850.048 4.21175 -0.794331 0
M  V30 8825 H 854.232 4.67821 -1.65701 0
M  V30 8826 H 849.488 5.39628 -2.87422 0
M  V30 8827 H 853.662 5.87645 -3.73692 0
M  V30 8828 H 851.289 6.23354 -4.35126 0
M  V30 8829 N 852.864 0.259585 1.55447 0
M  V30 8830 C 854.11 -0.362143 1.9954 0
M  V30 8831 C 854.443 -1.5666 1.14767 0
M  V30 8832 O 853.718 -1.93319 0.214025 0
M  V30 8833 C 854.001 -0.759588 3.51998 0
M  V30 8834 C 853.854 0.451134 4.47532 0
M  V30 8835 C 855.173 -1.60186 4.09913 0
M  V30 8836 H 852.292 -0.130157 0.725416 0
M  V30 8837 H 854.934 0.363431 1.86492 0
M  V30 8838 H 853.084 -1.3778 3.63248 0
M  V30 8839 H 854.756 1.08965 4.48246 0
M  V30 8840 H 852.999 1.092 4.19831 0
M  V30 8841 H 853.67 0.129518 5.51848 0
M  V30 8842 H 856.146 -1.0799 4.01842 0
M  V30 8843 H 855.022 -1.84879 5.16828 0
M  V30 8844 H 855.283 -2.57787 3.59163 0
M  V30 8845 N 854.342 -1.57594 -0.0133615 0
M  V30 8846 C 855.59 -1.89605 -0.699596 0
M  V30 8847 C 855.911 -0.85926 -1.75048 0
M  V30 8848 O 855.181 0.105112 -1.95618 0
M  V30 8849 H 853.761 -0.699776 -0.261385 0
M  V30 8850 H 856.423 -1.94885 0.0244044 0
M  V30 8851 H 855.519 -2.88962 -1.17928 0
M  V30 8852 N 855.82 0.285905 -1.54985 0
M  V30 8853 C 857.066 1.02071 -1.75241 0
M  V30 8854 C 857.399 1.864 -0.544842 0
M  V30 8855 O 856.674 1.89034 0.457844 0
M  V30 8856 C 856.957 1.91409 -3.05016 0
M  V30 8857 C 856.81 1.10158 -4.36102 0
M  V30 8858 C 858.129 2.90335 -3.30747 0
M  V30 8859 H 855.248 0.369663 -0.637588 0
M  V30 8860 H 857.89 0.294114 -1.8771 0
M  V30 8861 H 856.04 2.53362 -2.94517 0
M  V30 8862 H 857.712 0.503756 -4.58541 0
M  V30 8863 H 855.955 0.404675 -4.31908 0
M  V30 8864 H 856.626 1.75956 -5.23205 0
M  V30 8865 H 859.102 2.38514 -3.40955 0
M  V30 8866 H 857.978 3.49997 -4.2284 0
M  V30 8867 H 858.239 3.64787 -2.49765 0
M  V30 8868 N 857.298 1.47698 0.54982 0
M  V30 8869 C 858.709 1.48474 1.13191 0
M  V30 8870 C 859.06 0.243504 1.94683 0
M  V30 8871 O 858.185 -0.651009 2.06375 0
M  V30 8872 C 858.78 2.69022 2.05944 0
M  V30 8873 C 857.339 2.72733 2.5941 0
M  V30 8874 C 856.486 2.41691 1.35944 0
M  V30 8875 H 859.437 1.55101 0.336048 0
M  V30 8876 H 859.458 2.46412 2.89934 0
M  V30 8877 H 858.97 3.59345 1.46605 0
M  V30 8878 H 857.071 1.86568 3.22526 0
M  V30 8879 H 857.184 3.73628 2.99899 0
M  V30 8880 H 855.548 1.92428 1.66864 0
M  V30 8881 H 856.331 3.34231 0.783869 0
M  V30 8882 N 858.776 -0.797141 1.35954 0
M  V30 8883 C 859.739 -1.89104 1.29508 0
M  V30 8884 C 860.739 -1.59495 0.204444 0
M  V30 8885 O 861.929 -1.68051 0.458746 0
M  V30 8886 C 859.061 -3.25726 1.00576 0
M  V30 8887 H 860.254 -1.96237 2.26785 0
M  V30 8888 H 857.807 -0.994075 1.20614 0
M  V30 8889 H 858.542 -3.24279 0.0372519 0
M  V30 8890 H 858.327 -3.48604 1.79492 0
M  V30 8891 H 859.817 -4.0578 0.986508 0
M  V30 8892 N 860.254 -1.20106 -1.0204 0
M  V30 8893 C 861.5 -1.01039 -1.75838 0
M  V30 8894 C 861.833 0.456819 -1.88751 0
M  V30 8895 O 861.108 1.33919 -1.41053 0
M  V30 8896 C 861.391 -1.69009 -3.17975 0
M  V30 8897 C 861.244 -3.2315 -3.1288 0
M  V30 8898 C 862.563 -1.42005 -4.16561 0
M  V30 8899 H 859.682 -0.368465 -0.638281 0
M  V30 8900 H 862.324 -1.48066 -1.19064 0
M  V30 8901 H 860.474 -1.29026 -3.66449 0
M  V30 8902 H 862.146 -3.72402 -2.72239 0
M  V30 8903 H 860.389 -3.54253 -2.50374 0
M  V30 8904 H 861.06 -3.65862 -4.13339 0
M  V30 8905 H 863.536 -1.76685 -3.76725 0
M  V30 8906 H 862.412 -1.92101 -5.14187 0
M  V30 8907 H 862.673 -0.346884 -4.40737 0
M  V30 8908 N 861.732 1.21287 -1.00634 0
M  V30 8909 C 862.642 2.27388 -0.577226 0
M  V30 8910 C 863.658 1.69791 0.380399 0
M  V30 8911 O 864.834 1.99918 0.2439 0
M  V30 8912 C 861.899 3.46588 0.0880532 0
M  V30 8913 C 860.96 4.19453 -0.914222 0
M  V30 8914 C 860.193 5.32962 -0.280596 0
M  V30 8915 O 860.416 5.62895 0.922265 0
M  V30 8916 O 859.35 5.93666 -0.992196 0
M  V30 8917 H 863.176 2.66289 -1.46028 0
M  V30 8918 H 860.761 1.2771 -0.775283 0
M  V30 8919 H 862.643 4.18881 0.460094 0
M  V30 8920 H 861.318 3.09585 0.945461 0
M  V30 8921 H 860.225 3.49376 -1.33744 0
M  V30 8922 H 861.558 4.6037 -1.74126 0
M  V30 8923 N 863.21 0.781244 1.36873 0
M  V30 8924 C 864.457 0.349889 1.99454 0
M  V30 8925 C 864.785 -1.07621 1.62013 0
M  V30 8926 O 864.04 -1.75665 0.86258 0
M  V30 8927 C 864.339 0.45146 3.54537 0
M  V30 8928 C 864.005 1.83718 4.11775 0
M  V30 8929 C 862.667 2.21634 4.2712 0
M  V30 8930 C 865.019 2.7449 4.43063 0
M  V30 8931 C 862.347 3.49742 4.7106 0
M  V30 8932 C 864.699 4.02017 4.88431 0
M  V30 8933 C 863.363 4.39967 5.01982 0
M  V30 8934 H 862.633 0.128033 0.729855 0
M  V30 8935 H 865.28 0.997117 1.63493 0
M  V30 8936 H 863.585 -0.279288 3.90803 0
M  V30 8937 H 865.282 0.0988609 4.00878 0
M  V30 8938 H 861.872 1.53251 4.00265 0
M  V30 8939 H 866.056 2.46453 4.30783 0
M  V30 8940 H 861.312 3.79026 4.79738 0
M  V30 8941 H 865.486 4.72475 5.11605 0
M  V30 8942 H 863.113 5.39291 5.35788 0
M  V30 8943 N 864.689 -1.48329 0.532571 0
M  V30 8944 C 865.914 -2.074 0.00147755 0
M  V30 8945 C 866.339 -1.38615 -1.27151 0
M  V30 8946 O 865.697 -0.452949 -1.75551 0
M  V30 8947 C 865.745 -3.60029 -0.202866 0
M  V30 8948 O 864.849 -3.92327 -1.27097 0
M  V30 8949 H 864.19 -0.662777 0.0402883 0
M  V30 8950 H 866.72 -1.90701 0.741224 0
M  V30 8951 H 866.73 -4.05783 -0.424722 0
M  V30 8952 H 865.405 -4.09496 0.727033 0
M  V30 8953 H 863.982 -3.58348 -1.03156 0
M  V30 8954 N 866.167 -0.267825 -1.55308 0
M  V30 8955 C 867.414 0.351036 -1.99434 0
M  V30 8956 C 867.742 1.56406 -1.15618 0
M  V30 8957 O 866.997 1.94548 -0.212045 0
M  V30 8958 C 867.296 0.784247 -3.48689 0
M  V30 8959 C 866.962 -0.323328 -4.49739 0
M  V30 8960 C 865.624 -0.627467 -4.77091 0
M  V30 8961 C 867.976 -1.07002 -5.10098 0
M  V30 8962 C 865.304 -1.682 -5.62073 0
M  V30 8963 C 867.656 -2.11422 -5.96224 0
M  V30 8964 C 866.32 -2.42479 -6.21901 0
M  V30 8965 H 865.59 0.128453 -0.729781 0
M  V30 8966 H 868.237 -0.380018 -1.87692 0
M  V30 8967 H 866.542 1.59485 -3.57871 0
M  V30 8968 H 868.239 1.2737 -3.80234 0
M  V30 8969 H 864.829 -0.0761528 -4.28532 0
M  V30 8970 H 869.013 -0.848302 -4.88996 0
M  V30 8971 H 864.269 -1.92772 -5.80215 0
M  V30 8972 H 868.443 -2.69759 -6.4203 0
M  V30 8973 H 866.07 -3.24328 -6.87543 0
M  V30 8974 N 867.645 1.57599 0.00500368 0
M  V30 8975 C 868.578 2.03541 1.03181 0
M  V30 8976 C 869.556 0.924301 1.33774 0
M  V30 8977 O 870.74 1.19204 1.46023 0
M  V30 8978 C 867.867 2.42879 2.36067 0
M  V30 8979 C 866.913 3.64673 2.21169 0
M  V30 8980 S 867.746 5.12805 1.54243 0
M  V30 8981 C 868.902 5.55408 2.88569 0
M  V30 8982 H 869.135 2.90316 0.640598 0
M  V30 8983 H 866.668 1.52886 0.215722 0
M  V30 8984 H 868.626 2.66212 3.12476 0
M  V30 8985 H 867.287 1.56512 2.72329 0
M  V30 8986 H 866.48 3.89932 3.19326 0
M  V30 8987 H 866.082 3.41316 1.52904 0
M  V30 8988 H 868.374 5.57563 3.84876 0
M  V30 8989 H 869.317 6.55418 2.68016 0
M  V30 8990 H 869.725 4.82961 2.92249 0
M  V30 8991 N 869.123 -0.277682 1.55134 0
M  V30 8992 C 870.033 -1.36524 1.90783 0
M  V30 8993 C 871.049 -1.54283 0.804542 0
M  V30 8994 O 872.225 -1.68499 1.10318 0
M  V30 8995 C 869.29 -2.70524 2.16835 0
M  V30 8996 C 868.351 -2.61552 3.40424 0
M  V30 8997 C 867.584 -3.89162 3.65224 0
M  V30 8998 O 867.807 -4.89624 2.92616 0
M  V30 8999 O 866.741 -3.89647 4.58758 0
M  V30 9000 H 870.567 -1.0929 2.83354 0
M  V30 9001 H 868.152 -0.475799 1.41621 0
M  V30 9002 H 870.034 -3.49765 2.35038 0
M  V30 9003 H 868.709 -2.97555 1.27448 0
M  V30 9004 H 867.616 -1.80704 3.27562 0
M  V30 9005 H 868.949 -2.39472 4.30016 0
M  V30 9006 N 870.601 -1.47988 -0.541979 0
M  V30 9007 C 871.878 -1.45878 -1.30303 0
M  V30 9008 C 872.258 -0.163931 -2.10463 0
M  V30 9009 O 871.606 0.854479 -2.11922 0
M  V30 9010 C 871.816 -2.71359 -2.19466 0
M  V30 9011 C 873.164 -3.19199 -2.79995 0
M  V30 9012 O 874.188 -2.72193 -2.2976 0
M  V30 9013 O 873.047 -4.00961 -3.71339 0
M  V30 9014 H 870.141 -0.582043 -0.587498 0
M  V30 9015 H 872.687 -1.60207 -0.559623 0
M  V30 9016 H 871.459 -3.57122 -1.59936 0
M  V30 9017 H 871.082 -2.59692 -3.01075 0
M  V30 9018 N 872.079 0.78992 -1.36375 0
M  V30 9019 C 873.356 1.53584 -1.21126 0
M  V30 9020 C 873.736 2.10124 0.202785 0
M  V30 9021 O 873.084 1.93936 1.20835 0
M  V30 9022 C 873.294 2.63117 -2.29282 0
M  V30 9023 C 874.642 3.31013 -2.65924 0
M  V30 9024 O 875.666 2.734 -2.28321 0
M  V30 9025 O 874.525 4.35129 -3.30643 0
M  V30 9026 H 871.619 0.679366 -0.471583 0
M  V30 9027 H 874.165 0.828446 -1.48104 0
M  V30 9028 H 872.937 2.19329 -3.24053 0
M  V30 9029 H 872.56 3.41476 -2.03666 0
M  V30 9030 N 873.557 1.20646 1.01402 0
M  V30 9031 C 874.489 0.915392 2.10127 0
M  V30 9032 C 875.502 -0.0978705 1.62506 0
M  V30 9033 O 876.691 0.133477 1.78 0
M  V30 9034 C 873.791 0.351304 3.37074 0
M  V30 9035 C 872.964 1.41673 4.13821 0
M  V30 9036 C 872.023 0.8635 5.19067 0
M  V30 9037 O 871.049 1.54481 5.47836 0
M  V30 9038 N 872.251 -0.325799 5.79585 0
M  V30 9039 H 875.016 1.85132 2.35682 0
M  V30 9040 H 872.577 1.11048 1.17813 0
M  V30 9041 H 874.569 -0.032996 4.04687 0
M  V30 9042 H 873.139 -0.489242 3.08748 0
M  V30 9043 H 872.359 1.97526 3.41141 0
M  V30 9044 H 873.647 2.1342 4.61876 0
M  V30 9045 H 873.045 -0.896534 5.58551 0
M  V30 9046 H 871.602 -0.651708 6.48534 0
M  V30 9047 N 875.035 -1.20752 1.01276 0
M  V30 9048 C 875.998 -2.2162 0.584583 0
M  V30 9049 C 876.998 -1.57094 -0.343215 0
M  V30 9050 O 878.188 -1.73696 -0.132433 0
M  V30 9051 C 875.32 -3.40583 -0.146872 0
M  V30 9052 H 876.513 -2.61015 1.47686 0
M  V30 9053 H 874.066 -1.34148 0.802123 0
M  V30 9054 H 874.801 -3.06686 -1.05424 0
M  V30 9055 H 874.586 -3.88642 0.51958 0
M  V30 9056 H 876.076 -4.15339 -0.433924 0
M  V30 9057 N 876.513 -0.788492 -1.36457 0
M  V30 9058 C 877.743 -0.371825 -2.03227 0
M  V30 9059 C 878.151 1.01627 -1.59589 0
M  V30 9060 O 877.494 1.663 -0.780382 0
M  V30 9061 C 877.556 -0.355179 -3.57741 0
M  V30 9062 C 877.22 -1.69069 -4.24576 0
M  V30 9063 C 878.217 -2.64601 -4.47529 0
M  V30 9064 C 875.902 -1.96973 -4.62068 0
M  V30 9065 C 877.896 -3.86232 -5.07054 0
M  V30 9066 C 875.583 -3.18872 -5.2131 0
M  V30 9067 C 876.581 -4.1332 -5.43742 0
M  V30 9068 O 876.269 -5.3307 -6.0174 0
M  V30 9069 H 876.001 -0.151452 -0.658816 0
M  V30 9070 H 878.555 -1.06827 -1.75434 0
M  V30 9071 H 876.785 0.397753 -3.84649 0
M  V30 9072 H 878.474 0.0366955 -4.05883 0
M  V30 9073 H 879.24 -2.44329 -4.18961 0
M  V30 9074 H 875.119 -1.24277 -4.43933 0
M  V30 9075 H 878.663 -4.59965 -5.24478 0
M  V30 9076 H 874.56 -3.39022 -5.49304 0
M  V30 9077 H 875.328 -5.34121 -6.20207 0
M  V30 9078 N 877.991 1.48044 -0.54043 0
M  V30 9079 C 879.402 1.86418 -0.102662 0
M  V30 9080 C 879.753 1.4489 1.32293 0
M  V30 9081 O 878.878 0.844319 1.99249 0
M  V30 9082 C 879.473 3.38324 -0.179533 0
M  V30 9083 C 878.032 3.75852 0.203098 0
M  V30 9084 C 877.179 2.72097 -0.534637 0
M  V30 9085 H 880.13 1.398 -0.751103 0
M  V30 9086 H 880.151 3.75641 0.606147 0
M  V30 9087 H 879.663 3.68518 -1.21721 0
M  V30 9088 H 877.764 3.51272 1.24252 0
M  V30 9089 H 877.877 4.78884 -0.143784 0
M  V30 9090 H 876.241 2.54692 0.0203358 0
M  V30 9091 H 877.024 3.05135 -1.57314 0
M  V30 9092 N 879.47 0.276058 1.55163 0
M  V30 9093 C 880.717 -0.340455 1.99618 0
M  V30 9094 C 881.045 -1.5579 1.16446 0
M  V30 9095 O 880.3 -1.94433 0.222359 0
M  V30 9096 C 880.599 -0.765744 3.491 0
M  V30 9097 C 880.265 0.347174 4.49561 0
M  V30 9098 C 878.927 0.65276 4.76752 0
M  V30 9099 C 881.279 1.09705 5.09523 0
M  V30 9100 C 878.607 1.71179 5.61173 0
M  V30 9101 C 880.959 2.14581 5.95095 0
M  V30 9102 C 879.623 2.45773 6.20606 0
M  V30 9103 H 878.893 -0.124581 0.730452 0
M  V30 9104 H 881.54 0.389966 1.87487 0
M  V30 9105 H 879.845 -1.57585 3.58712 0
M  V30 9106 H 881.542 -1.25352 3.80904 0
M  V30 9107 H 878.132 0.0988779 4.28486 0
M  V30 9108 H 882.316 0.874223 4.8854 0
M  V30 9109 H 877.572 1.95846 5.79184 0
M  V30 9110 H 881.746 2.7316 6.40591 0
M  V30 9111 H 879.373 3.27969 6.85813 0
M  V30 9112 N 880.948 -1.576 0.00335426 0
M  V30 9113 C 881.878 -2.11668 -0.985839 0
M  V30 9114 C 882.859 -1.02661 -1.35627 0
M  V30 9115 O 884.044 -1.30361 -1.43943 0
M  V30 9116 C 881.174 -2.62273 -2.27662 0
M  V30 9117 C 880.128 -3.75837 -2.0477 0
M  V30 9118 C 879.454 -4.12769 -3.39891 0
M  V30 9119 C 880.754 -5.02975 -1.40759 0
M  V30 9120 H 882.448 -2.9457 -0.535637 0
M  V30 9121 H 879.994 -1.41702 -0.256204 0
M  V30 9122 H 881.947 -2.98727 -2.97221 0
M  V30 9123 H 880.671 -1.76498 -2.74802 0
M  V30 9124 H 879.33 -3.39782 -1.37636 0
M  V30 9125 H 878.978 -3.24013 -3.8474 0
M  V30 9126 H 878.678 -4.89281 -3.25389 0
M  V30 9127 H 880.202 -4.51784 -4.1076 0
M  V30 9128 H 881.616 -5.37179 -2.00279 0
M  V30 9129 H 880.013 -5.84315 -1.36734 0
M  V30 9130 H 881.083 -4.83431 -0.377218 0
M  V30 9131 N 882.426 0.269451 -1.5528 0
M  V30 9132 C 883.376 1.33553 -1.84791 0
M  V30 9133 C 884.36 1.44532 -0.707067 0
M  V30 9134 O 885.552 1.48153 -0.968493 0
M  V30 9135 C 882.681 2.69516 -2.12641 0
M  V30 9136 C 881.767 2.62633 -3.32993 0
M  V30 9137 N 882.158 2.25371 -4.52815 0
M  V30 9138 C 880.456 2.93688 -3.35654 0
M  V30 9139 C 881.157 2.28567 -5.34913 0
M  V30 9140 N 880.133 2.67181 -4.73408 0
M  V30 9141 H 883.935 1.03758 -2.74976 0
M  V30 9142 H 881.449 0.478087 -1.55203 0
M  V30 9143 H 883.446 3.46424 -2.3194 0
M  V30 9144 H 882.106 3.00197 -1.23742 0
M  V30 9145 H 883.117 1.9729 -4.7885 0
M  V30 9146 H 879.794 3.29057 -2.56958 0
M  V30 9147 H 881.184 2.02289 -6.40725 0
M  V30 9148 N 883.904 1.48273 0.534124 0
M  V30 9149 C 885.132 1.59734 1.31501 0
M  V30 9150 C 885.547 0.256047 1.87056 0
M  V30 9151 O 884.904 -0.754086 1.66192 0
M  V30 9152 C 884.955 2.64072 2.46877 0
M  V30 9153 O 884.676 3.92995 1.93613 0
M  V30 9154 C 886.177 2.85933 3.38758 0
M  V30 9155 H 883.397 0.538703 0.40005 0
M  V30 9156 H 885.941 1.9407 0.644762 0
M  V30 9157 H 884.096 2.32606 3.09795 0
M  V30 9158 H 884.51 4.50203 2.69106 0
M  V30 9159 H 885.984 3.62749 4.16073 0
M  V30 9160 H 886.461 1.94603 3.93734 0
M  V30 9161 H 887.067 3.18687 2.81636 0
M  V30 9162 N 885.382 -0.782676 1.36792 0
M  V30 9163 C 886.329 -1.89558 1.31667 0
M  V30 9164 C 887.299 -1.65076 0.184147 0
M  V30 9165 O 888.484 -1.87143 0.371753 0
M  V30 9166 C 885.624 -3.26469 1.11858 0
M  V30 9167 C 884.737 -3.62978 2.34245 0
M  V30 9168 C 883.872 -4.89041 2.07394 0
M  V30 9169 C 882.911 -5.18249 3.25706 0
M  V30 9170 N 882.048 -6.35497 2.98476 0
M  V30 9171 H 886.888 -1.93274 2.26824 0
M  V30 9172 H 884.425 -0.945057 1.12726 0
M  V30 9173 H 886.383 -4.05431 0.983968 0
M  V30 9174 H 885.013 -3.22158 0.203531 0
M  V30 9175 H 884.065 -2.79087 2.58485 0
M  V30 9176 H 885.377 -3.80507 3.22514 0
M  V30 9177 H 884.531 -5.75883 1.90901 0
M  V30 9178 H 883.27 -4.73594 1.16446 0
M  V30 9179 H 882.275 -4.29887 3.4275 0
M  V30 9180 H 883.5 -5.35611 4.1749 0
M  V30 9181 H 881.446 -6.21429 2.10146 0
M  V30 9182 H 881.363 -6.5339 3.80286 0
M  V30 9183 H 882.631 -7.25304 2.85577 0
M  V30 9184 N 886.86 -1.21182 -1.00761 0
M  V30 9185 C 887.77 -0.984691 -2.12934 0
M  V30 9186 C 888.786 0.0623657 -1.73888 0
M  V30 9187 O 889.962 -0.1271 -2.00999 0
M  V30 9188 C 887.027 -0.549447 -3.42319 0
M  V30 9189 C 886.088 -1.66841 -3.95553 0
M  V30 9190 C 885.321 -1.25384 -5.18763 0
M  V30 9191 O 885.544 -0.126333 -5.7026 0
M  V30 9192 O 884.478 -2.06475 -5.65377 0
M  V30 9193 H 888.304 -1.92413 -2.3497 0
M  V30 9194 H 885.889 -0.99647 -1.11314 0
M  V30 9195 H 887.771 -0.316384 -4.20211 0
M  V30 9196 H 886.446 0.361304 -3.21677 0
M  V30 9197 H 885.353 -1.95585 -3.189 0
M  V30 9198 H 886.686 -2.55649 -4.206 0
M  V30 9199 N 888.338 1.20213 -1.01915 0
M  V30 9200 C 889.615 1.85348 -0.62495 0
M  V30 9201 C 889.995 1.91101 0.896854 0
M  V30 9202 O 889.343 1.42075 1.78961 0
M  V30 9203 C 889.553 3.24849 -1.27571 0
M  V30 9204 C 890.901 4.01107 -1.39277 0
M  V30 9205 O 891.925 3.34211 -1.23212 0
M  V30 9206 O 890.784 5.20914 -1.6526 0
M  V30 9207 H 887.878 0.798303 -0.215965 0
M  V30 9208 H 890.424 1.27782 -1.11669 0
M  V30 9209 H 889.196 3.1544 -2.31545 0
M  V30 9210 H 888.819 3.90049 -0.77122 0
M  V30 9211 N 889.816 0.795718 1.36037 0
M  V30 9212 C 891.044 0.383153 2.03321 0
M  V30 9213 C 891.459 -1.00246 1.59988 0
M  V30 9214 O 890.816 -1.64406 0.792265 0
M  V30 9215 C 890.867 0.444467 3.58757 0
M  V30 9216 O 890.588 1.77544 4.00512 0
M  V30 9217 C 892.089 0.0233291 4.43294 0
M  V30 9218 H 889.309 0.157061 0.652359 0
M  V30 9219 H 891.853 1.07632 1.73884 0
M  V30 9220 H 890.008 -0.200341 3.86882 0
M  V30 9221 H 890.422 1.73065 4.95125 0
M  V30 9222 H 891.896 0.117361 5.51875 0
M  V30 9223 H 892.373 -1.03007 4.2695 0
M  V30 9224 H 892.979 0.64087 4.20444 0
M  V30 9225 N 891.294 -1.47756 0.548274 0
M  V30 9226 C 892.524 -2.06584 0.0254503 0
M  V30 9227 C 892.932 -1.40268 -1.26971 0
M  V30 9228 O 892.275 -0.49019 -1.77039 0
M  V30 9229 C 892.337 -3.58628 -0.250301 0
M  V30 9230 C 892.001 -4.4693 0.954087 0
M  V30 9231 C 892.998 -4.85592 1.85733 0
M  V30 9232 C 890.683 -4.88573 1.16624 0
M  V30 9233 C 892.677 -5.64686 2.95648 0
M  V30 9234 C 890.364 -5.67435 2.2685 0
M  V30 9235 C 891.362 -6.05401 3.16194 0
M  V30 9236 O 891.05 -6.82676 4.24511 0
M  V30 9237 H 890.782 -0.67489 0.0387264 0
M  V30 9238 H 893.336 -1.90876 0.758663 0
M  V30 9239 H 891.566 -3.72516 -1.03771 0
M  V30 9240 H 893.255 -3.9951 -0.717419 0
M  V30 9241 H 894.021 -4.54026 1.70544 0
M  V30 9242 H 889.9 -4.58494 0.480039 0
M  V30 9243 H 893.444 -5.9424 3.65411 0
M  V30 9244 H 889.341 -5.98413 2.42016 0
M  V30 9245 H 890.109 -7.01057 4.22447 0
M  V30 9246 N 892.772 -0.284283 -1.55015 0
M  V30 9247 C 893.682 0.60906 -2.26556 0
M  V30 9248 C 894.698 1.16246 -1.29472 0
M  V30 9249 O 895.874 1.1908 -1.62425 0
M  V30 9250 C 892.939 1.77246 -2.97968 0
M  V30 9251 C 892 1.25482 -4.10552 0
M  V30 9252 C 891.233 2.36277 -4.78549 0
M  V30 9253 O 891.456 3.55829 -4.45805 0
M  V30 9254 O 890.39 2.03914 -5.66306 0
M  V30 9255 H 894.216 0.0292298 -3.03686 0
M  V30 9256 H 891.801 -0.0513466 -1.49312 0
M  V30 9257 H 893.683 2.45062 -3.42815 0
M  V30 9258 H 892.358 2.33921 -2.23747 0
M  V30 9259 H 891.265 0.542859 -3.7014 0
M  V30 9260 H 892.598 0.733708 -4.86701 0
M  V30 9261 N 894.251 1.57596 -0.0117121 0
M  V30 9262 C 895.199 2.1029 0.994035 0
M  V30 9263 C 896.193 1.02549 1.34833 0
M  V30 9264 O 897.399 1.21003 1.3326 0
M  V30 9265 H 893.774 0.671624 0.338268 0
M  V30 9266 H 895.745 2.93761 0.524147 0
M  V30 9267 C 894.494 2.63099 2.27319 0
M  V30 9268 H 893.817 3.45642 2.00927 0
M  V30 9269 H 895.257 3.03635 2.95942 0
M  V30 9270 C 893.716 1.55044 2.99104 0
M  V30 9271 O 894.246 0.940127 3.90544 0
M  V30 9272 N 892.452 1.27506 2.61133 0
M  V30 9273 H 891.999 1.77322 1.86855 0
M  V30 9274 H 891.957 0.554292 3.09475 0
M  V30 9275 N 895.729 -0.261212 1.5542 0
M  V30 9276 C 896.659 -1.32712 1.92119 0
M  V30 9277 C 897.64 -1.50934 0.784406 0
M  V30 9278 O 898.825 -1.63781 1.04352 0
M  V30 9279 C 895.955 -2.68453 2.20341 0
M  V30 9280 C 894.909 -2.64947 3.36136 0
M  V30 9281 C 894.235 -4.04349 3.49865 0
M  V30 9282 C 895.535 -2.23182 4.72215 0
M  V30 9283 H 897.229 -1.02245 2.81401 0
M  V30 9284 H 894.775 -0.490406 1.35392 0
M  V30 9285 H 896.728 -3.43144 2.44603 0
M  V30 9286 H 895.452 -3.00527 1.27871 0
M  V30 9287 H 894.111 -1.92714 3.11861 0
M  V30 9288 H 893.759 -4.33665 2.5484 0
M  V30 9289 H 893.459 -4.02895 4.27726 0
M  V30 9290 H 894.983 -4.80761 3.76432 0
M  V30 9291 H 896.397 -2.87599 4.95943 0
M  V30 9292 H 894.794 -2.32867 5.53076 0
M  V30 9293 H 895.864 -1.18327 4.70241 0
M  V30 9294 N 897.207 -1.48554 -0.526253 0
M  V30 9295 C 898.157 -1.59753 -1.62674 0
M  V30 9296 C 899.141 -0.454452 -1.54349 0
M  V30 9297 O 900.333 -0.706091 -1.62306 0
M  V30 9298 C 897.462 -1.64388 -3.01383 0
M  V30 9299 C 896.548 -2.84188 -3.14798 0
M  V30 9300 N 896.939 -4.08564 -2.98176 0
M  V30 9301 C 895.237 -2.81599 -3.45859 0
M  V30 9302 C 895.938 -4.88961 -3.15106 0
M  V30 9303 N 894.914 -4.21848 -3.42849 0
M  V30 9304 H 898.716 -2.5366 -1.48438 0
M  V30 9305 H 896.23 -1.44977 -0.731801 0
M  V30 9306 H 898.227 -1.70505 -3.80439 0
M  V30 9307 H 896.887 -0.716006 -3.16707 0
M  V30 9308 H 897.898 -4.38943 -2.74862 0
M  V30 9309 H 894.575 -1.98083 -3.67518 0
M  V30 9310 H 895.965 -5.97683 -3.0696 0
M  V30 9311 N 898.685 0.775411 -1.37205 0
M  V30 9312 C 899.632 1.88857 -1.32671 0
M  V30 9313 C 900.602 1.64976 -0.192899 0
M  V30 9314 O 901.787 1.86944 -0.381673 0
M  V30 9315 C 898.927 3.25871 -1.13588 0
M  V30 9316 C 898.04 3.61731 -2.36167 0
M  V30 9317 C 897.175 4.87934 -2.09985 0
M  V30 9318 C 896.214 5.16514 -3.2845 0
M  V30 9319 N 895.351 6.33905 -3.01842 0
M  V30 9320 H 900.191 1.92068 -2.27846 0
M  V30 9321 H 897.728 0.939066 -1.13225 0
M  V30 9322 H 899.686 4.04903 -1.00546 0
M  V30 9323 H 898.316 3.22045 -0.220613 0
M  V30 9324 H 897.368 2.77712 -2.59962 0
M  V30 9325 H 898.68 3.78792 -3.24528 0
M  V30 9326 H 897.834 5.74863 -1.93953 0
M  V30 9327 H 896.573 4.7297 -1.18956 0
M  V30 9328 H 895.578 4.28063 -3.45025 0
M  V30 9329 H 896.803 5.33389 -4.20325 0
M  V30 9330 H 894.749 6.20306 -2.13439 0
M  V30 9331 H 894.666 6.51364 -3.83746 0
M  V30 9332 H 895.934 7.23779 -2.8942 0
M  V30 9333 N 900.163 1.21714 1.00117 0
M  V30 9334 C 901.409 1.03823 1.74208 0
M  V30 9335 C 901.742 -0.426733 1.89454 0
M  V30 9336 O 901.017 -1.31658 1.43166 0
M  V30 9337 C 901.3 1.74047 3.15246 0
M  V30 9338 C 901.153 3.28087 3.077 0
M  V30 9339 C 902.472 1.48614 4.14249 0
M  V30 9340 H 899.591 0.378573 0.632338 0
M  V30 9341 H 902.233 1.49942 1.16694 0
M  V30 9342 H 900.383 1.3484 3.64349 0
M  V30 9343 H 902.055 3.76686 2.6628 0
M  V30 9344 H 900.298 3.58191 2.44707 0
M  V30 9345 H 900.969 3.72392 4.07466 0
M  V30 9346 H 903.445 1.82656 3.73866 0
M  V30 9347 H 902.321 2.00257 5.11066 0
M  V30 9348 H 902.582 0.416957 4.40129 0
M  V30 9349 N 901.641 -1.19671 1.02551 0
M  V30 9350 C 902.571 -2.25009 0.623965 0
M  V30 9351 C 903.552 -1.66129 -0.36538 0
M  V30 9352 O 904.737 -1.92599 -0.248842 0
M  V30 9353 C 901.867 -3.47287 -0.0294869 0
M  V30 9354 C 900.821 -4.18818 0.881781 0
M  V30 9355 C 900.147 -5.34618 0.0936189 0
M  V30 9356 C 901.447 -4.73986 2.19396 0
M  V30 9357 H 903.141 -2.58851 1.50454 0
M  V30 9358 H 900.687 -1.24425 0.724872 0
M  V30 9359 H 902.64 -4.20168 -0.322016 0
M  V30 9360 H 901.364 -3.12635 -0.944838 0
M  V30 9361 H 900.023 -3.47815 1.15845 0
M  V30 9362 H 899.671 -4.9621 -0.823661 0
M  V30 9363 H 899.371 -5.83409 0.700568 0
M  V30 9364 H 900.895 -6.10297 -0.192249 0
M  V30 9365 H 902.309 -5.38639 1.96319 0
M  V30 9366 H 900.706 -5.3325 2.75254 0
M  V30 9367 H 901.776 -3.92238 2.85092 0
M  V30 9368 N 903.119 -0.802921 -1.35613 0
M  V30 9369 C 904.051 -0.168461 -2.2858 0
M  V30 9370 C 905.064 0.630123 -1.50111 0
M  V30 9371 O 906.253 0.463086 -1.72388 0
M  V30 9372 C 903.353 0.783943 -3.29708 0
M  V30 9373 C 902.526 0.0325165 -4.37388 0
M  V30 9374 C 901.585 0.902859 -5.18396 0
M  V30 9375 O 900.611 0.355144 -5.68091 0
M  V30 9376 N 901.813 2.22542 -5.36149 0
M  V30 9377 H 904.578 -0.96709 -2.83668 0
M  V30 9378 H 902.139 -0.658043 -1.47924 0
M  V30 9379 H 904.131 1.37034 -3.80794 0
M  V30 9380 H 902.701 1.48339 -2.75162 0
M  V30 9381 H 901.921 -0.735057 -3.87286 0
M  V30 9382 H 903.209 -0.485499 -5.06478 0
M  V30 9383 H 902.607 2.69439 -4.97412 0
M  V30 9384 H 901.164 2.76113 -5.90428 0
M  V30 9385 N 904.597 1.47463 -0.556102 0
M  V30 9386 C 905.845 2.02075 -0.0315712 0
M  V30 9387 C 906.166 1.43292 1.32259 0
M  V30 9388 O 905.436 0.60771 1.86236 0
M  V30 9389 H 904.016 0.74695 -0.0086816 0
M  V30 9390 H 906.678 1.80879 -0.725859 0
M  V30 9391 H 905.774 3.12047 0.0573538 0
M  V30 9392 N 906.075 0.2925 1.54862 0
M  V30 9393 C 907.491 -0.0611461 1.59483 0
M  V30 9394 C 907.691 -1.53141 1.30958 0
M  V30 9395 O 906.747 -2.28291 1.07887 0
M  V30 9396 C 908.06 0.329143 2.98893 0
M  V30 9397 C 909.608 0.2772 3.1177 0
M  V30 9398 C 910.083 0.642185 4.53475 0
M  V30 9399 N 911.574 0.594396 4.5937 0
M  V30 9400 C 912.309 0.849385 5.67074 0
M  V30 9401 N 911.805 1.1699 6.82851 0
M  V30 9402 N 913.598 0.777016 5.56704 0
M  V30 9403 H 905.749 1.25079 1.71665 0
M  V30 9404 H 908.012 0.506516 0.80134 0
M  V30 9405 H 907.718 1.35233 3.24661 0
M  V30 9406 H 907.592 -0.321442 3.75828 0
M  V30 9407 H 909.979 -0.736725 2.85756 0
M  V30 9408 H 910.06 0.962289 2.3701 0
M  V30 9409 H 909.704 1.65388 4.80218 0
M  V30 9410 H 909.634 -0.0648831 5.2656 0
M  V30 9411 H 912.125 0.357256 3.76208 0
M  V30 9412 H 912.438 1.35067 7.60905 0
M  V30 9413 H 910.783 1.20785 6.84424 0
M  V30 9414 H 913.974 0.526333 4.65132 0
M  V30 9415 H 914.147 0.979113 6.4056 0
M  V30 9416 N 907.553 -1.57587 0.0200696 0
M  V30 9417 C 908.483 -2.12702 -0.963333 0
M  V30 9418 C 909.464 -1.04094 -1.34531 0
M  V30 9419 O 910.649 -1.31881 -1.42552 0
M  V30 9420 C 907.779 -2.64673 -2.24868 0
M  V30 9421 C 906.733 -3.77987 -2.00772 0
M  V30 9422 C 906.059 -4.16351 -3.35494 0
M  V30 9423 C 907.359 -5.0444 -1.35416 0
M  V30 9424 H 909.053 -2.95121 -0.504363 0
M  V30 9425 H 906.599 -1.41966 -0.24116 0
M  V30 9426 H 908.552 -3.01862 -2.94036 0
M  V30 9427 H 907.276 -1.79403 -2.72914 0
M  V30 9428 H 905.935 -3.41223 -1.34025 0
M  V30 9429 H 905.583 -3.28075 -3.81282 0
M  V30 9430 H 905.283 -4.92705 -3.20181 0
M  V30 9431 H 906.807 -4.56115 -4.05945 0
M  V30 9432 H 908.221 -5.39273 -1.94571 0
M  V30 9433 H 906.618 -5.85732 -1.30529 0
M  V30 9434 H 907.688 -4.83803 -0.325923 0
M  V30 9435 N 909.032 0.252966 -1.55557 0
M  V30 9436 C 910.443 0.822503 -1.67606 0
M  V30 9437 C 910.794 1.86265 -0.616411 0
M  V30 9438 O 909.919 2.15082 0.238447 0
M  V30 9439 C 910.514 1.49866 -3.03852 0
M  V30 9440 C 909.073 2.01597 -3.17861 0
M  V30 9441 C 908.22 0.864943 -2.63465 0
M  V30 9442 H 911.171 0.0288958 -1.58674 0
M  V30 9443 H 911.192 2.36646 -2.97958 0
M  V30 9444 H 910.704 0.741378 -3.80953 0
M  V30 9445 H 908.805 2.80224 -2.45571 0
M  V30 9446 H 908.918 2.21752 -4.24692 0
M  V30 9447 H 907.282 1.2638 -2.21134 0
M  V30 9448 H 908.065 0.120847 -3.43087 0
M  V30 9449 N 910.51 1.48831 0.518367 0
M  V30 9450 C 911.473 1.63721 1.604 0
M  V30 9451 C 912.473 0.509857 1.52503 0
M  V30 9452 O 913.663 0.775922 1.55965 0
M  V30 9453 C 910.795 1.61831 3.00039 0
M  V30 9454 H 911.988 2.60534 1.48533 0
M  V30 9455 H 909.541 1.37602 0.741309 0
M  V30 9456 H 910.276 0.665387 3.17401 0
M  V30 9457 H 910.061 2.43686 3.0718 0
M  V30 9458 H 911.551 1.75467 3.78947 0
M  V30 9459 N 911.988 -0.768124 1.37614 0
M  V30 9460 C 913.234 -1.52907 1.33219 0
M  V30 9461 C 913.567 -1.94026 -0.0821218 0
M  V30 9462 O 912.842 -1.64345 -1.04023 0
M  V30 9463 C 913.125 -2.79164 2.27463 0
M  V30 9464 C 912.978 -2.44276 3.7769 0
M  V30 9465 C 914.297 -3.81115 2.20089 0
M  V30 9466 H 911.416 -0.554712 0.485246 0
M  V30 9467 H 914.058 -0.880911 1.68345 0
M  V30 9468 H 912.208 -3.34472 1.97639 0
M  V30 9469 H 913.88 -1.94855 4.18126 0
M  V30 9470 H 912.123 -1.76925 3.96081 0
M  V30 9471 H 912.794 -3.34544 4.39072 0
M  V30 9472 H 915.27 -3.35311 2.46386 0
M  V30 9473 H 914.146 -4.67174 2.88166 0
M  V30 9474 H 914.407 -4.25644 1.19498 0
M  V30 9475 N 913.466 -1.22244 -0.994698 0
M  V30 9476 C 914.429 -0.992308 -2.06606 0
M  V30 9477 C 915.429 0.0405872 -1.60749 0
M  V30 9478 O 916.619 -0.197737 -1.73074 0
M  V30 9479 C 913.751 -0.498499 -3.37236 0
M  V30 9480 H 914.944 -1.9429 -2.28455 0
M  V30 9481 H 912.497 -1.04087 -1.166 0
M  V30 9482 H 913.232 0.456531 -3.21071 0
M  V30 9483 H 913.017 -1.24367 -3.71854 0
M  V30 9484 H 914.507 -0.35768 -4.16065 0
M  V30 9485 N 914.944 1.19125 -1.03184 0
M  V30 9486 C 915.876 2.21914 -0.573294 0
M  V30 9487 C 916.889 1.5894 0.352397 0
M  V30 9488 O 918.078 1.77883 0.148318 0
M  V30 9489 C 915.178 3.38403 0.18355 0
M  V30 9490 C 914.351 4.3096 -0.747817 0
M  V30 9491 C 913.41 5.26188 -0.0358489 0
M  V30 9492 O 912.436 5.65321 -0.663388 0
M  V30 9493 N 913.638 5.67235 1.23387 0
M  V30 9494 H 916.403 2.61881 -1.45734 0
M  V30 9495 H 913.964 1.33821 -0.911231 0
M  V30 9496 H 915.956 3.99124 0.669468 0
M  V30 9497 H 914.526 2.97201 0.969043 0
M  V30 9498 H 913.746 3.67976 -1.41377 0
M  V30 9499 H 915.034 4.89708 -1.38071 0
M  V30 9500 H 914.432 5.37481 1.76439 0
M  V30 9501 H 912.989 6.30196 1.66423 0
M  V30 9502 N 916.422 0.810101 1.35185 0
M  V30 9503 C 917.385 0.22852 2.28058 0
M  V30 9504 C 918.385 -0.586168 1.49735 0
M  V30 9505 O 919.575 -0.40414 1.69447 0
M  V30 9506 C 916.707 -0.681041 3.34028 0
M  V30 9507 H 917.9 1.04768 2.81005 0
M  V30 9508 H 915.453 0.58101 1.451 0
M  V30 9509 H 916.188 -1.52375 2.86273 0
M  V30 9510 H 915.973 -0.0985276 3.91976 0
M  V30 9511 H 917.463 -1.08217 4.03335 0
M  V30 9512 N 917.9 -1.47166 0.563914 0
M  V30 9513 C 919.146 -2.02756 0.0424338 0
M  V30 9514 C 919.479 -1.43662 -1.3067 0
M  V30 9515 O 918.754 -0.594676 -1.85186 0
M  V30 9516 C 919.037 -3.60074 -0.0434793 0
M  V30 9517 C 918.89 -4.29587 1.33323 0
M  V30 9518 C 920.209 -4.336 -0.753568 0
M  V30 9519 H 917.328 -0.736806 0.0168946 0
M  V30 9520 H 919.97 -1.75521 0.727496 0
M  V30 9521 H 918.12 -3.83409 -0.626906 0
M  V30 9522 H 919.792 -4.17573 1.96037 0
M  V30 9523 H 918.035 -3.8968 1.9061 0
M  V30 9524 H 918.706 -5.38218 1.22576 0
M  V30 9525 H 921.182 -4.15299 -0.258126 0
M  V30 9526 H 920.058 -5.43291 -0.782659 0
M  V30 9527 H 920.319 -4.03302 -1.81108 0
M  V30 9528 N 919.378 -0.300708 -1.54705 0
M  V30 9529 C 920.341 0.562648 -2.22187 0
M  V30 9530 C 921.341 1.06152 -1.20782 0
M  V30 9531 O 922.531 0.957596 -1.45519 0
M  V30 9532 C 919.663 1.77899 -2.908 0
M  V30 9533 H 920.856 -0.0269361 -2.99888 0
M  V30 9534 H 918.409 -0.0515412 -1.56215 0
M  V30 9535 H 919.144 2.40841 -2.17177 0
M  V30 9536 H 918.929 1.42892 -3.65136 0
M  V30 9537 H 920.419 2.39236 -3.42281 0
M  V30 9538 N 920.856 1.57574 -0.0284266 0
M  V30 9539 C 921.788 2.07079 0.982391 0
M  V30 9540 C 922.801 0.994078 1.28926 0
M  V30 9541 O 923.99 1.27028 1.25404 0
M  V30 9542 C 921.09 2.47978 2.30998 0
M  V30 9543 C 920.263 3.7872 2.18838 0
M  V30 9544 C 919.322 4.06177 3.34524 0
M  V30 9545 O 918.348 4.76438 3.11441 0
M  V30 9546 N 919.55 3.56297 4.58293 0
M  V30 9547 H 922.315 2.94421 0.560011 0
M  V30 9548 H 919.876 1.61124 0.158347 0
M  V30 9549 H 921.868 2.63439 3.07216 0
M  V30 9550 H 920.438 1.66005 2.64879 0
M  V30 9551 H 919.658 3.73062 1.27351 0
M  V30 9552 H 920.946 4.6438 2.07915 0
M  V30 9553 H 920.344 2.99453 4.79942 0
M  V30 9554 H 918.901 3.77038 5.31682 0
M  V30 9555 N 922.334 -0.244713 1.55689 0
M  V30 9556 C 923.264 -1.30667 1.93516 0
M  V30 9557 C 924.245 -1.50094 0.800371 0
M  V30 9558 O 925.43 -1.62665 1.06083 0
M  V30 9559 C 922.56 -2.66101 2.23176 0
M  V30 9560 C 921.514 -2.61366 3.38927 0
M  V30 9561 C 920.84 -4.00616 3.54134 0
M  V30 9562 C 922.14 -2.18161 4.74555 0
M  V30 9563 H 923.834 -0.992546 2.82469 0
M  V30 9564 H 921.38 -0.476018 1.35905 0
M  V30 9565 H 923.333 -3.4053 2.48228 0
M  V30 9566 H 922.057 -2.99154 1.31051 0
M  V30 9567 H 920.716 -1.89395 3.13887 0
M  V30 9568 H 920.364 -4.30938 2.59426 0
M  V30 9569 H 920.064 -3.98335 4.31975 0
M  V30 9570 H 921.588 -4.76741 3.8151 0
M  V30 9571 H 923.002 -2.82323 4.98965 0
M  V30 9572 H 921.399 -2.26988 5.55515 0
M  V30 9573 H 922.469 -1.13333 4.7147 0
M  V30 9574 N 923.813 -1.49104 -0.510467 0
M  V30 9575 C 924.776 -1.64569 -1.59529 0
M  V30 9576 C 925.776 -0.517937 -1.5223 0
M  V30 9577 O 926.966 -0.784183 -1.55551 0
M  V30 9578 C 924.098 -1.6342 -2.99177 0
M  V30 9579 H 925.291 -2.61318 -1.4715 0
M  V30 9580 H 922.844 -1.37993 -0.734001 0
M  V30 9581 H 923.579 -0.68221 -3.17043 0
M  V30 9582 H 923.364 -2.45312 -3.05883 0
M  V30 9583 H 924.854 -1.77474 -3.78011 0
M  V30 9584 N 925.291 0.760815 -1.38019 0
M  V30 9585 C 926.539 1.51673 -1.33566 0
M  V30 9586 C 926.86 1.94852 0.076024 0
M  V30 9587 O 926.13 1.67112 1.02227 0
M  V30 9588 H 924.71 0.562581 -0.491438 0
M  V30 9589 H 927.372 0.904832 -1.72623 0
M  V30 9590 H 926.468 2.41102 -1.98182 0
M  V30 9591 N 926.769 1.22769 0.988202 0
M  V30 9592 C 927.701 0.959757 2.08138 0
M  V30 9593 C 928.714 -0.0633787 1.62677 0
M  V30 9594 O 929.903 0.171203 1.77677 0
M  V30 9595 C 927.003 0.422724 3.36253 0
M  V30 9596 C 926.176 1.50419 4.10722 0
M  V30 9597 C 925.235 0.973407 5.17118 0
M  V30 9598 O 924.261 1.66066 5.44436 0
M  V30 9599 N 925.463 -0.202787 5.80146 0
M  V30 9600 H 928.228 1.9009 2.31702 0
M  V30 9601 H 925.789 1.13522 1.15431 0
M  V30 9602 H 927.781 0.0528514 4.04665 0
M  V30 9603 H 926.351 -0.423642 3.09716 0
M  V30 9604 H 925.571 2.04718 3.36874 0
M  V30 9605 H 926.859 2.23169 4.57245 0
M  V30 9606 H 926.257 -0.777856 5.60327 0
M  V30 9607 H 924.814 -0.513998 6.4977 0
M  V30 9608 N 928.247 -1.18576 1.03814 0
M  V30 9609 C 929.177 -2.24334 0.647795 0
M  V30 9610 C 930.158 -1.66508 -0.34774 0
M  V30 9611 O 931.343 -1.92852 -0.228401 0
M  V30 9612 C 928.473 -3.47299 0.00734922 0
M  V30 9613 C 927.427 -4.17859 0.926152 0
M  V30 9614 C 926.753 -5.34489 0.150317 0
M  V30 9615 C 928.053 -4.71632 2.24411 0
M  V30 9616 H 929.747 -2.57241 1.53191 0
M  V30 9617 H 927.293 -1.23649 0.738028 0
M  V30 9618 H 929.246 -4.20486 -0.277434 0
M  V30 9619 H 927.97 -3.13619 -0.911626 0
M  V30 9620 H 926.629 -3.46567 1.19528 0
M  V30 9621 H 926.277 -4.97056 -0.770985 0
M  V30 9622 H 925.977 -5.82633 0.762407 0
M  V30 9623 H 927.501 -6.10467 -0.127508 0
M  V30 9624 H 928.915 -5.36526 2.02021 0
M  V30 9625 H 927.312 -5.303 2.80894 0
M  V30 9626 H 928.382 -3.89192 2.89236 0
M  V30 9627 N 929.725 -0.817259 -1.34754 0
M  V30 9628 C 930.655 -0.249769 -2.3216 0
M  V30 9629 C 931.636 0.630663 -1.57977 0
M  V30 9630 O 932.821 0.558719 -1.85989 0
M  V30 9631 C 929.951 0.593825 -3.42186 0
M  V30 9632 C 928.905 -0.188997 -4.27583 0
M  V30 9633 C 928.231 0.776979 -5.29025 0
M  V30 9634 C 929.531 -1.39401 -5.03354 0
M  V30 9635 H 931.225 -1.06359 -2.79872 0
M  V30 9636 H 928.771 -0.512894 -1.34556 0
M  V30 9637 H 930.724 1.00097 -4.09339 0
M  V30 9638 H 929.448 1.44064 -2.93109 0
M  V30 9639 H 928.107 -0.577445 -3.62024 0
M  V30 9640 H 927.755 1.61959 -4.76212 0
M  V30 9641 H 927.455 0.257448 -5.87036 0
M  V30 9642 H 928.979 1.18211 -5.99048 0
M  V30 9643 H 930.393 -1.06117 -5.63393 0
M  V30 9644 H 928.79 -1.84878 -5.70912 0
M  V30 9645 H 929.86 -2.17515 -4.33377 0
M  V30 9646 N 931.203 1.46865 -0.571711 0
M  V30 9647 C 932.452 2.01636 -0.050881 0
M  V30 9648 C 932.765 1.45001 1.31279 0
M  V30 9649 O 933.971 1.91523 1.92435 0
M  V30 9650 C 932.427 3.59877 -0.0404114 0
M  V30 9651 C 932.035 4.25506 -1.40172 0
M  V30 9652 C 933.779 4.22346 0.42705 0
M  V30 9653 C 931.686 5.75795 -1.34958 0
M  V30 9654 H 930.616 0.753846 -0.0152514 0
M  V30 9655 H 933.267 1.68711 -0.721723 0
M  V30 9656 H 931.649 3.89829 0.696374 0
M  V30 9657 H 932.823 4.07178 -2.15737 0
M  V30 9658 H 931.138 3.75086 -1.8083 0
M  V30 9659 H 933.735 5.32499 0.484688 0
M  V30 9660 H 934.078 3.9052 1.44222 0
M  V30 9661 H 934.611 3.9698 -0.255326 0
M  V30 9662 H 931.35 6.12265 -2.3412 0
M  V30 9663 H 930.87 5.96419 -0.635962 0
M  V30 9664 H 932.549 6.38294 -1.05779 0
M  V30 9665 N 932.681 0.308908 1.54543 0
M  V30 9666 C 934.097 -0.0442273 1.59539 0
M  V30 9667 C 934.297 -1.51743 1.32575 0
M  V30 9668 O 933.353 -2.27134 1.10302 0
M  V30 9669 C 934.666 0.360826 2.98527 0
M  V30 9670 C 936.214 0.310252 3.11459 0
M  V30 9671 C 936.689 0.690246 4.52769 0
M  V30 9672 N 938.18 0.643084 4.58714 0
M  V30 9673 C 938.915 0.909483 5.66141 0
M  V30 9674 N 938.411 1.24226 6.81572 0
M  V30 9675 N 940.204 0.836018 5.55848 0
M  V30 9676 H 932.355 1.26893 1.70329 0
M  V30 9677 H 934.618 0.514986 0.795923 0
M  V30 9678 H 934.324 1.38669 3.23209 0
M  V30 9679 H 934.198 -0.281563 3.76148 0
M  V30 9680 H 936.585 -0.706375 2.86521 0
M  V30 9681 H 936.666 0.987373 2.35976 0
M  V30 9682 H 936.31 1.70472 4.78437 0
M  V30 9683 H 936.24 -0.00903075 5.26599 0
M  V30 9684 H 938.731 0.397138 3.75807 0
M  V30 9685 H 939.044 1.4313 7.5943 0
M  V30 9686 H 937.389 1.28038 6.83104 0
M  V30 9687 H 940.58 0.575637 4.64547 0
M  V30 9688 H 940.753 1.047 6.39486 0
M  V30 9689 N 934.159 -1.57557 0.0367827 0
M  V30 9690 C 935.089 -2.13712 -0.940719 0
M  V30 9691 C 936.07 -1.05515 -1.33419 0
M  V30 9692 O 937.255 -1.33385 -1.41146 0
M  V30 9693 C 934.385 -2.67043 -2.22048 0
M  V30 9694 C 933.339 -3.80096 -1.96752 0
M  V30 9695 C 932.665 -4.19886 -3.31059 0
M  V30 9696 C 933.965 -5.05848 -1.30058 0
M  V30 9697 H 935.659 -2.9564 -0.473033 0
M  V30 9698 H 933.205 -1.42214 -0.226089 0
M  V30 9699 H 935.158 -3.04964 -2.90818 0
M  V30 9700 H 933.882 -1.82287 -2.70996 0
M  V30 9701 H 932.541 -3.42625 -1.30398 0
M  V30 9702 H 932.189 -3.32101 -3.77781 0
M  V30 9703 H 931.889 -4.96073 -3.14937 0
M  V30 9704 H 933.413 -4.60395 -4.01084 0
M  V30 9705 H 934.827 -5.41306 -1.8884 0
M  V30 9706 H 933.224 -5.87084 -1.24309 0
M  V30 9707 H 934.294 -4.84122 -0.274591 0
M  V30 9708 N 935.637 0.236453 -1.55816 0
M  V30 9709 C 936.862 0.98449 -1.82545 0
M  V30 9710 C 937.287 1.77755 -0.615206 0
M  V30 9711 O 936.645 1.75982 0.435895 0
M  V30 9712 C 936.693 1.88973 -3.07118 0
M  V30 9713 O 935.797 2.98298 -2.84766 0
M  V30 9714 H 935.138 0.279577 -0.602273 0
M  V30 9715 H 937.668 0.254277 -2.03014 0
M  V30 9716 H 937.678 2.3024 -3.36829 0
M  V30 9717 H 936.353 1.30671 -3.94839 0
M  V30 9718 H 934.93 2.61085 -2.6625 0
M  V30 9719 N 937.115 1.49373 0.502552 0
M  V30 9720 C 938.065 1.62321 1.60112 0
M  V30 9721 C 939.049 0.47895 1.53606 0
M  V30 9722 O 940.241 0.731824 1.61162 0
M  V30 9723 C 937.37 1.69162 2.98729 0
M  V30 9724 C 936.456 2.89161 3.10237 0
M  V30 9725 N 936.847 4.13256 2.91638 0
M  V30 9726 C 935.145 2.87065 3.41335 0
M  V30 9727 C 935.846 4.93913 3.07287 0
M  V30 9728 N 934.822 4.27249 3.36094 0
M  V30 9729 H 938.624 2.55989 1.44384 0
M  V30 9730 H 936.138 1.46123 0.708644 0
M  V30 9731 H 938.135 1.76536 3.77678 0
M  V30 9732 H 936.795 0.766301 3.15528 0
M  V30 9733 H 937.806 4.4326 2.67844 0
M  V30 9734 H 934.483 2.03905 3.6432 0
M  V30 9735 H 935.873 6.02491 2.97413 0
M  V30 9736 N 938.594 -0.753485 1.38421 0
M  V30 9737 C 939.871 -1.50318 1.25155 0
M  V30 9738 C 940.251 -2.10588 -0.147003 0
M  V30 9739 O 939.599 -1.97071 -1.15651 0
M  V30 9740 C 939.809 -2.56946 2.36177 0
M  V30 9741 C 941.157 -3.23846 2.74607 0
M  V30 9742 O 942.181 -2.67251 2.3549 0
M  V30 9743 O 941.04 -4.2621 3.42064 0
M  V30 9744 H 938.134 -0.666624 0.48943 0
M  V30 9745 H 940.68 -0.788887 1.50249 0
M  V30 9746 H 939.452 -2.1066 3.29754 0
M  V30 9747 H 939.075 -3.35956 2.12648 0
M  V30 9748 N 940.072 -1.23292 -0.981677 0
M  V30 9749 C 941.488 -0.995295 -1.24764 0
M  V30 9750 C 941.688 0.304379 -1.99188 0
M  V30 9751 O 940.744 1.02414 -2.30798 0
M  V30 9752 C 942.057 -2.20135 -2.04844 0
M  V30 9753 C 943.605 -2.24612 -2.17988 0
M  V30 9754 C 944.08 -3.448 -3.01458 0
M  V30 9755 N 945.571 -3.45031 -3.09044 0
M  V30 9756 C 946.306 -4.34683 -3.7395 0
M  V30 9757 N 945.802 -5.34569 -4.4069 0
M  V30 9758 N 947.595 -4.22429 -3.70823 0
M  V30 9759 H 939.746 -2.06834 -0.483052 0
M  V30 9760 H 942.009 -0.906929 -0.276014 0
M  V30 9761 H 941.715 -3.14446 -1.57532 0
M  V30 9762 H 941.589 -2.21115 -3.05594 0
M  V30 9763 H 943.976 -1.30841 -2.64508 0
M  V30 9764 H 944.057 -2.27664 -1.16631 0
M  V30 9765 H 943.701 -4.38877 -2.55635 0
M  V30 9766 H 943.631 -3.38988 -4.02982 0
M  V30 9767 H 946.122 -2.72759 -2.61555 0
M  V30 9768 H 946.435 -5.99236 -4.87991 0
M  V30 9769 H 944.78 -5.3847 -4.39403 0
M  V30 9770 H 947.971 -3.43639 -3.17851 0
M  V30 9771 H 948.144 -4.92501 -4.21126 0
M  V30 9772 N 941.55 1.18024 -1.04442 0
M  V30 9773 C 942.48 2.23988 -0.659683 0
M  V30 9774 C 943.461 1.6669 0.338904 0
M  V30 9775 O 944.646 1.92971 0.21817 0
M  V30 9776 C 941.776 3.4729 -0.0257672 0
M  V30 9777 C 940.73 4.17362 -0.948299 0
M  V30 9778 C 940.056 5.34401 -0.17866 0
M  V30 9779 C 941.356 4.70435 -2.26909 0
M  V30 9780 H 943.05 2.56425 -1.54553 0
M  V30 9781 H 940.596 1.23256 -0.744575 0
M  V30 9782 H 942.549 4.20627 0.255131 0
M  V30 9783 H 941.273 3.14098 0.894981 0
M  V30 9784 H 939.932 3.45928 -1.21364 0
M  V30 9785 H 939.58 4.97458 0.744614 0
M  V30 9786 H 939.28 5.8222 -0.793294 0
M  V30 9787 H 940.804 6.10526 0.0951315 0
M  V30 9788 H 942.218 5.35447 -2.04864 0
M  V30 9789 H 940.615 5.28803 -2.83703 0
M  V30 9790 H 941.685 3.87653 -2.91296 0
M  V30 9791 N 943.028 0.824394 1.34319 0
M  V30 9792 C 943.958 0.262077 2.32025 0
M  V30 9793 C 944.939 -0.622277 1.58309 0
M  V30 9794 O 946.124 -0.548848 1.86283 0
M  V30 9795 C 943.254 -0.57567 3.42496 0
M  V30 9796 C 942.208 0.21167 4.27476 0
M  V30 9797 C 941.534 -0.748913 5.29429 0
M  V30 9798 C 942.834 1.42068 5.02607 0
M  V30 9799 H 944.528 1.07842 2.79304 0
M  V30 9800 H 942.074 0.520022 1.34282 0
M  V30 9801 H 944.027 -0.979251 4.09864 0
M  V30 9802 H 942.751 -1.42508 2.93869 0
M  V30 9803 H 941.41 0.596636 3.61712 0
M  V30 9804 H 941.058 -1.59432 4.77064 0
M  V30 9805 H 940.758 -0.226313 5.87164 0
M  V30 9806 H 942.282 -1.15032 5.99667 0
M  V30 9807 H 943.696 1.09103 5.62823 0
M  V30 9808 H 942.093 1.87903 5.69923 0
M  V30 9809 H 943.163 2.1981 4.32217 0
M  V30 9810 N 944.506 -1.46559 0.579492 0
M  V30 9811 C 945.917 -1.8608 0.152052 0
M  V30 9812 C 946.268 -1.48346 -1.28405 0
M  V30 9813 O 945.393 -0.89685 -1.9694 0
M  V30 9814 C 945.988 -3.37729 0.269171 0
M  V30 9815 C 944.547 -3.76258 -0.103376 0
M  V30 9816 C 943.694 -2.70584 0.60659 0
M  V30 9817 H 946.645 -1.3776 0.787904 0
M  V30 9818 H 946.666 -3.77116 -0.506339 0
M  V30 9819 H 946.178 -3.65162 1.31448 0
M  V30 9820 H 944.279 -3.54443 -1.14895 0
M  V30 9821 H 944.392 -4.78335 0.270701 0
M  V30 9822 H 942.756 -2.54656 0.0471984 0
M  V30 9823 H 943.539 -3.00856 1.65349 0
M  V30 9824 N 945.984 -0.3171 -1.54377 0
M  V30 9825 C 946.914 0.544623 -2.2706 0
M  V30 9826 C 947.895 1.12469 -1.27611 0
M  V30 9827 O 949.08 1.15103 -1.56413 0
M  V30 9828 C 946.21 1.70879 -3.02353 0
M  V30 9829 C 945.164 1.25833 -4.09084 0
M  V30 9830 C 944.49 2.50894 -4.72182 0
M  V30 9831 C 945.79 0.377876 -5.20931 0
M  V30 9832 H 947.484 -0.0616372 -2.99337 0
M  V30 9833 H 945.03 -0.0310848 -1.43966 0
M  V30 9834 H 946.983 2.31787 -3.51927 0
M  V30 9835 H 945.707 2.34155 -2.27682 0
M  V30 9836 H 944.366 0.672228 -3.60384 0
M  V30 9837 H 944.014 3.12518 -3.94134 0
M  V30 9838 H 943.714 2.21447 -5.44275 0
M  V30 9839 H 945.238 3.12575 -5.24528 0
M  V30 9840 H 946.652 0.893056 -5.66302 0
M  V30 9841 H 945.049 0.176474 -5.9984 0
M  V30 9842 H 946.119 -0.592943 -4.81261 0
M  V30 9843 N 947.462 1.57535 -0.0451378 0
M  V30 9844 C 948.739 1.83785 0.669523 0
M  V30 9845 C 949.119 0.932331 1.89396 0
M  V30 9846 O 948.467 -0.00813229 2.28499 0
M  V30 9847 C 948.677 3.33376 1.03255 0
M  V30 9848 C 950.025 4.00243 1.41741 0
M  V30 9849 O 951.049 3.37965 1.12507 0
M  V30 9850 O 949.908 5.10038 1.96275 0
M  V30 9851 H 947.002 0.758342 0.329919 0
M  V30 9852 H 949.548 1.69538 -0.0740415 0
M  V30 9853 H 948.32 3.90965 0.161777 0
M  V30 9854 H 947.943 3.52787 1.83376 0
M  V30 9855 N 948.94 -0.228186 1.55939 0
M  V30 9856 C 950.187 -0.953552 1.78644 0
M  V30 9857 C 950.515 -1.84596 0.61275 0
M  V30 9858 O 949.77 -1.91502 -0.403175 0
M  V30 9859 C 950.069 -1.82924 3.0704 0
M  V30 9860 C 949.735 -1.09062 4.37511 0
M  V30 9861 C 948.397 -0.886565 4.72962 0
M  V30 9862 C 950.749 -0.568533 5.1809 0
M  V30 9863 C 948.077 -0.148413 5.86512 0
M  V30 9864 C 950.429 0.156243 6.32407 0
M  V30 9865 C 949.093 0.371612 6.66465 0
M  V30 9866 H 948.363 -0.348929 0.653704 0
M  V30 9867 H 951.01 -0.222211 1.90206 0
M  V30 9868 H 949.315 -2.62823 2.90571 0
M  V30 9869 H 951.012 -2.3925 3.21808 0
M  V30 9870 H 947.602 -1.25963 4.09672 0
M  V30 9871 H 951.786 -0.713673 4.91142 0
M  V30 9872 H 947.042 0.0287418 6.11393 0
M  V30 9873 H 951.216 0.568333 6.94077 0
M  V30 9874 H 948.843 0.945522 7.54297 0
M  V30 9875 N 950.418 -1.49637 -0.494624 0
M  V30 9876 C 951.666 -1.5913 -1.24587 0
M  V30 9877 C 951.987 -0.282828 -1.92938 0
M  V30 9878 O 951.257 0.69825 -1.83034 0
M  V30 9879 H 949.837 -0.586329 -0.462847 0
M  V30 9880 H 952.499 -1.86296 -0.572696 0
M  V30 9881 H 951.595 -2.3906 -2.00641 0
M  V30 9882 N 951.896 0.746133 -1.38819 0
M  V30 9883 C 953.312 1.0502 -1.20179 0
M  V30 9884 C 953.512 2.01423 -0.0556271 0
M  V30 9885 O 952.568 2.45359 0.59625 0
M  V30 9886 C 953.881 1.62315 -2.53129 0
M  V30 9887 C 955.429 1.74449 -2.59878 0
M  V30 9888 C 955.904 2.35155 -3.93022 0
M  V30 9889 N 957.395 2.42577 -3.94602 0
M  V30 9890 C 958.13 2.9046 -4.94389 0
M  V30 9891 N 957.626 3.38322 -6.04574 0
M  V30 9892 N 959.419 2.89568 -4.81775 0
M  V30 9893 H 951.57 0.106551 -2.12133 0
M  V30 9894 H 953.833 0.109897 -0.941609 0
M  V30 9895 H 953.539 0.98946 -3.37495 0
M  V30 9896 H 953.413 2.61276 -2.72057 0
M  V30 9897 H 955.8 2.36943 -1.75903 0
M  V30 9898 H 955.881 0.741721 -2.4481 0
M  V30 9899 H 955.525 1.73292 -4.77422 0
M  V30 9900 H 955.455 3.36088 -4.05404 0
M  V30 9901 H 957.946 2.08735 -3.15021 0
M  V30 9902 H 958.259 3.73336 -6.76639 0
M  V30 9903 H 956.604 3.3636 -6.08184 0
M  V30 9904 H 959.795 2.51492 -3.94803 0
M  V30 9905 H 959.968 3.26571 -5.59692 0
M  V30 9906 N 953.375 1.23811 0.975125 0
M  V30 9907 C 954.605 1.0986 1.7497 0
M  V30 9908 C 955.013 -0.352366 1.8589 0
M  V30 9909 O 954.356 -1.2553 1.34119 0
M  V30 9910 C 954.418 1.65584 3.19096 0
M  V30 9911 C 954.082 3.14395 3.3167 0
M  V30 9912 C 955.079 4.1163 3.17579 0
M  V30 9913 C 952.764 3.54208 3.56149 0
M  V30 9914 C 954.758 5.46661 3.27781 0
M  V30 9915 C 952.445 4.89382 3.65989 0
M  V30 9916 C 953.443 5.85418 3.51817 0
M  V30 9917 O 953.131 7.18135 3.61299 0
M  V30 9918 H 952.863 0.384854 0.555755 0
M  V30 9919 H 955.417 1.64242 1.23343 0
M  V30 9920 H 953.647 1.05627 3.71994 0
M  V30 9921 H 955.336 1.47032 3.78334 0
M  V30 9922 H 956.102 3.82214 2.98559 0
M  V30 9923 H 951.981 2.79968 3.66249 0
M  V30 9924 H 955.525 6.21601 3.16636 0
M  V30 9925 H 951.422 5.18473 3.84521 0
M  V30 9926 H 952.19 7.25956 3.78061 0
M  V30 9927 N 954.853 -1.17469 1.05066 0
M  V30 9928 C 956.101 -1.87327 0.758485 0
M  V30 9929 C 956.422 -1.81358 -0.716549 0
M  V30 9930 O 955.692 -1.23868 -1.51768 0
M  V30 9931 H 954.272 -0.693512 0.277579 0
M  V30 9932 H 956.934 -1.4251 1.32954 0
M  V30 9933 H 956.03 -2.93101 1.0723 0
M  V30 9934 N 956.331 -0.831506 -1.3388 0
M  V30 9935 C 957.608 -0.345907 -1.92517 0
M  V30 9936 C 957.988 1.16784 -1.75854 0
M  V30 9937 O 957.336 1.97889 -1.14245 0
M  V30 9938 C 957.546 -0.784692 -3.40064 0
M  V30 9939 C 958.894 -0.78846 -4.17215 0
M  V30 9940 O 959.918 -0.727823 -3.48685 0
M  V30 9941 O 958.777 -0.869481 -5.39539 0
M  V30 9942 H 955.871 -0.0963568 -0.821367 0
M  V30 9943 H 958.417 -0.916868 -1.42799 0
M  V30 9944 H 957.189 -1.82697 -3.46031 0
M  V30 9945 H 956.812 -0.189897 -3.97146 0
M  V30 9946 N 957.809 1.4625 -0.587256 0
M  V30 9947 C 959.055 2.02662 -0.0746851 0
M  V30 9948 C 959.388 1.45723 1.28368 0
M  V30 9949 O 958.663 0.624062 1.84216 0
M  V30 9950 C 958.946 3.60097 -0.0138109 0
M  V30 9951 C 958.799 4.27412 -1.4014 0
M  V30 9952 C 960.118 4.34744 0.684491 0
M  V30 9953 H 957.237 0.736444 -0.0286144 0
M  V30 9954 H 959.879 1.74341 -0.755328 0
M  V30 9955 H 958.029 3.84357 0.56583 0
M  V30 9956 H 959.701 4.14401 -2.02656 0
M  V30 9957 H 957.944 3.86598 -1.96785 0
M  V30 9958 H 958.615 5.362 -1.31124 0
M  V30 9959 H 961.091 4.15657 0.192023 0
M  V30 9960 H 959.967 5.44468 0.696127 0
M  V30 9961 H 960.228 4.06132 1.74669 0
M  V30 9962 N 959.287 0.325282 1.54207 0
M  V30 9963 C 960.533 -0.277185 2.00897 0
M  V30 9964 C 960.866 -1.51651 1.21308 0
M  V30 9965 O 960.141 -1.92237 0.295825 0
M  V30 9966 C 960.424 -0.60961 3.54902 0
M  V30 9967 C 960.277 0.640542 4.45216 0
M  V30 9968 C 961.596 -1.42656 4.16338 0
M  V30 9969 H 958.715 -0.0992722 0.730284 0
M  V30 9970 H 961.357 0.442201 1.84783 0
M  V30 9971 H 959.507 -1.22249 3.68765 0
M  V30 9972 H 961.179 1.27878 4.43221 0
M  V30 9973 H 959.422 1.26908 4.14821 0
M  V30 9974 H 960.093 0.363459 5.50802 0
M  V30 9975 H 962.569 -0.908494 4.06061 0
M  V30 9976 H 961.445 -1.62792 5.24204 0
M  V30 9977 H 961.706 -2.42321 3.69774 0
M  V30 9978 N 960.765 -1.57509 0.0534917 0
M  V30 9979 C 961.695 -2.14698 -0.917999 0
M  V30 9980 C 962.676 -1.06924 -1.32292 0
M  V30 9981 O 963.861 -1.34875 -1.39723 0
M  V30 9982 C 960.991 -2.69383 -2.19203 0
M  V30 9983 C 959.945 -3.82161 -1.9271 0
M  V30 9984 C 959.271 -4.23373 -3.26587 0
M  V30 9985 C 960.571 -5.07199 -1.24686 0
M  V30 9986 H 962.265 -2.96125 -0.44165 0
M  V30 9987 H 959.811 -1.42446 -0.210993 0
M  V30 9988 H 961.764 -3.08031 -2.87567 0
M  V30 9989 H 960.488 -1.85151 -2.69048 0
M  V30 9990 H 959.147 -3.43989 -1.26757 0
M  V30 9991 H 958.795 -3.36089 -3.74237 0
M  V30 9992 H 958.495 -4.99385 -3.09658 0
M  V30 9993 H 960.019 -4.64623 -3.96178 0
M  V30 9994 H 961.433 -5.43279 -1.83088 0
M  V30 9995 H 959.83 -5.88369 -1.18076 0
M  V30 9996 H 960.9 -4.84386 -0.223227 0
M  V30 9997 N 962.243 0.219913 -1.56058 0
M  V30 9998 C 963.659 0.569685 -1.49086 0
M  V30 9999 C 963.859 1.87066 -0.748903 0
M  V30 10000 O 962.915 2.50838 -0.289235 0
M  V30 10001 C 964.228 0.647397 -2.93648 0
M  V30 10002 C 965.776 0.737914 -3.04177 0
M  V30 10003 C 966.251 0.846957 -4.50101 0
M  V30 10004 N 967.742 0.911136 -4.5415 0
M  V30 10005 C 968.477 1.01525 -5.64341 0
M  V30 10006 N 967.973 1.0832 -6.8428 0
M  V30 10007 N 969.766 1.05051 -5.52196 0
M  V30 10008 H 961.917 -0.633778 -2.02724 0
M  V30 10009 H 964.18 -0.222583 -0.921499 0
M  V30 10010 H 963.886 -0.238987 -3.50887 0
M  V30 10011 H 963.76 1.51046 -3.45637 0
M  V30 10012 H 966.147 1.61474 -2.47002 0
M  V30 10013 H 966.228 -0.150845 -2.55355 0
M  V30 10014 H 965.872 -0.0254166 -5.07894 0
M  V30 10015 H 965.802 1.75116 -4.96631 0
M  V30 10016 H 968.293 0.868869 -3.67776 0
M  V30 10017 H 968.606 1.16247 -7.64007 0
M  V30 10018 H 966.951 1.05231 -6.86987 0
M  V30 10019 H 970.142 0.994086 -4.57423 0
M  V30 10020 H 970.315 1.12819 -6.38103 0
M  V30 10021 N 963.721 1.49897 0.486681 0
M  V30 10022 C 964.671 1.6401 1.58381 0
M  V30 10023 C 965.655 0.495215 1.5309 0
M  V30 10024 O 966.847 0.748876 1.60377 0
M  V30 10025 C 963.976 1.72321 2.96918 0
M  V30 10026 C 963.062 2.92435 3.07152 0
M  V30 10027 N 963.453 4.16326 2.87238 0
M  V30 10028 C 961.751 2.90669 3.38271 0
M  V30 10029 C 962.452 4.97144 3.02031 0
M  V30 10030 N 961.428 4.3079 3.31544 0
M  V30 10031 H 965.23 2.57506 1.41661 0
M  V30 10032 H 962.744 1.46867 0.693106 0
M  V30 10033 H 964.741 1.80532 3.75784 0
M  V30 10034 H 963.401 0.799724 3.14697 0
M  V30 10035 H 964.412 4.46076 2.63128 0
M  V30 10036 H 961.089 2.07758 3.62137 0
M  V30 10037 H 962.479 6.05611 2.91006 0
M  V30 10038 N 965.199 -0.738761 1.39212 0
M  V30 10039 C 966.448 -1.49368 1.35543 0
M  V30 10040 C 966.761 -1.95543 -0.0471091 0
M  V30 10041 O 967.967 -2.70714 -0.206376 0
M  V30 10042 C 966.423 -2.69882 2.381 0
M  V30 10043 C 966.031 -2.30672 3.8405 0
M  V30 10044 C 967.775 -3.47718 2.435 0
M  V30 10045 C 965.682 -3.47886 4.78256 0
M  V30 10046 H 964.612 -0.560898 0.503894 0
M  V30 10047 H 967.263 -0.806221 1.6484 0
M  V30 10048 H 965.645 -3.40684 2.01867 0
M  V30 10049 H 966.819 -1.67441 4.29302 0
M  V30 10050 H 965.134 -1.65936 3.81909 0
M  V30 10051 H 967.731 -4.34897 3.11077 0
M  V30 10052 H 968.074 -3.89919 1.45838 0
M  V30 10053 H 968.607 -2.83942 2.78606 0
M  V30 10054 H 965.346 -3.10739 5.77167 0
M  V30 10055 H 964.866 -4.10111 4.37686 0
M  V30 10056 H 966.545 -4.14271 4.96979 0
M  V30 10057 N 966.677 -1.24326 -0.968545 0
M  V30 10058 C 967.925 -1.08032 -1.70803 0
M  V30 10059 C 968.246 0.381728 -1.91227 0
M  V30 10060 O 967.516 1.27253 -1.48942 0
M  V30 10061 H 966.096 -0.396777 -0.632912 0
M  V30 10062 H 968.758 -1.56232 -1.16523 0
M  V30 10063 H 967.854 -1.57769 -2.69287 0
M  V30 10064 N 968.156 1.1691 -1.05688 0
M  V30 10065 C 969.104 2.2315 -0.656262 0
M  V30 10066 C 970.098 1.66256 0.324873 0
M  V30 10067 O 971.304 1.7899 0.190397 0
M  V30 10068 H 967.679 0.726527 -0.19407 0
M  V30 10069 H 969.65 2.54233 -1.56231 0
M  V30 10070 C 968.399 3.47661 -0.0522431 0
M  V30 10071 H 967.722 3.91749 -0.798299 0
M  V30 10072 H 969.162 4.23571 0.190626 0
M  V30 10073 C 967.621 3.14709 1.20248 0
M  V30 10074 O 968.151 3.29947 2.29124 0
M  V30 10075 N 966.357 2.68892 1.10207 0
M  V30 10076 H 965.904 2.56692 0.216063 0
M  V30 10077 H 965.862 2.47218 1.94244 0
M  V30 10078 N 969.634 0.838594 1.33437 0
M  V30 10079 C 970.564 0.286672 2.31734 0
M  V30 10080 C 971.545 -0.605451 1.5896 0
M  V30 10081 O 972.73 -0.529059 1.86854 0
M  V30 10082 C 969.86 -0.539311 3.43087 0
M  V30 10083 C 968.814 0.256997 4.27228 0
M  V30 10084 C 968.14 -0.692718 5.30194 0
M  V30 10085 C 969.44 1.47391 5.01072 0
M  V30 10086 H 971.134 1.10798 2.78144 0
M  V30 10087 H 968.68 0.534235 1.33723 0
M  V30 10088 H 970.633 -0.935724 4.1088 0
M  V30 10089 H 969.357 -1.39383 2.95364 0
M  V30 10090 H 968.016 0.634967 3.61059 0
M  V30 10091 H 967.664 -1.54363 4.78729 0
M  V30 10092 H 967.364 -0.164023 5.87371 0
M  V30 10093 H 968.888 -1.08665 6.00853 0
M  V30 10094 H 970.302 1.15067 5.61634 0
M  V30 10095 H 968.699 1.93937 5.67898 0
M  V30 10096 H 969.769 2.24382 4.29861 0
M  V30 10097 N 971.112 -1.45937 0.595003 0
M  V30 10098 C 972.06 -2.32155 -0.143798 0
M  V30 10099 C 973.054 -1.45221 -0.872198 0
M  V30 10100 O 974.26 -1.61777 -0.789191 0
M  V30 10101 H 970.635 -0.749165 -0.0652377 0
M  V30 10102 H 972.606 -2.92264 0.602005 0
M  V30 10103 C 971.355 -3.28615 -1.13611 0
M  V30 10104 H 970.678 -3.95496 -0.585044 0
M  V30 10105 H 972.118 -3.91699 -1.62321 0
M  V30 10106 C 970.577 -2.54863 -2.20333 0
M  V30 10107 O 971.107 -2.32071 -3.27881 0
M  V30 10108 N 969.313 -2.15213 -1.95274 0
M  V30 10109 H 968.86 -2.33949 -1.07822 0
M  V30 10110 H 968.818 -1.66188 -2.66888 0
M  V30 10111 N 972.59 -0.333456 -1.54032 0
M  V30 10112 C 973.5 0.536674 -2.28379 0
M  V30 10113 C 974.516 1.12068 -1.33104 0
M  V30 10114 O 975.692 1.13853 -1.66131 0
M  V30 10115 C 972.757 1.67677 -3.03456 0
M  V30 10116 C 971.818 1.12357 -4.14336 0
M  V30 10117 C 971.051 2.20933 -4.85823 0
M  V30 10118 O 971.274 3.41466 -4.569 0
M  V30 10119 O 970.208 1.85795 -5.72507 0
M  V30 10120 H 974.034 -0.0674003 -3.03625 0
M  V30 10121 H 971.619 -0.098823 -1.49073 0
M  V30 10122 H 973.501 2.34032 -3.50438 0
M  V30 10123 H 972.176 2.26684 -2.31076 0
M  V30 10124 H 971.083 0.424827 -3.7168 0
M  V30 10125 H 972.416 0.578497 -4.88789 0
M  V30 10126 N 974.068 1.57479 -0.061844 0
M  V30 10127 C 975.315 1.93108 0.60954 0
M  V30 10128 C 975.643 0.941086 1.70217 0
M  V30 10129 O 974.898 -0.044914 1.95648 0
M  V30 10130 C 975.197 3.35394 1.23474 0
M  V30 10131 C 974.863 4.50095 0.269247 0
M  V30 10132 C 973.525 4.812 0.00360316 0
M  V30 10133 C 975.877 5.19725 -0.391839 0
M  V30 10134 C 973.205 5.79276 -0.930383 0
M  V30 10135 C 975.557 6.18801 -1.31408 0
M  V30 10136 C 974.221 6.48328 -1.58829 0
M  V30 10137 H 973.491 0.706634 0.223046 0
M  V30 10138 H 976.138 1.91054 -0.1306 0
M  V30 10139 H 974.443 3.33866 2.05039 0
M  V30 10140 H 976.14 3.60247 1.76134 0
M  V30 10141 H 972.73 4.2583 0.486477 0
M  V30 10142 H 976.914 4.95898 -0.199713 0
M  V30 10143 H 972.17 6.00484 -1.15019 0
M  V30 10144 H 976.344 6.71862 -1.83234 0
M  V30 10145 H 973.971 7.24137 -2.31363 0
M  V30 10146 N 975.546 -0.211634 1.56173 0
M  V30 10147 C 976.771 -0.955324 1.84088 0
M  V30 10148 C 977.196 -1.76754 0.643407 0
M  V30 10149 O 976.554 -1.76653 -0.407842 0
M  V30 10150 C 976.602 -1.84063 3.10085 0
M  V30 10151 O 975.706 -2.9373 2.89476 0
M  V30 10152 H 975.047 -0.26996 0.606645 0
M  V30 10153 H 977.577 -0.221947 2.03393 0
M  V30 10154 H 977.587 -2.24852 3.40449 0
M  V30 10155 H 976.262 -1.24373 3.96868 0
M  V30 10156 H 974.839 -2.56816 2.7037 0
M  V30 10157 N 977.024 -1.50153 -0.478725 0
M  V30 10158 C 978.272 -1.60443 -1.22892 0
M  V30 10159 C 978.593 -0.303276 -1.92627 0
M  V30 10160 O 977.863 0.678798 -1.83764 0
M  V30 10161 H 976.443 -0.591205 -0.456602 0
M  V30 10162 H 979.105 -1.86893 -0.552905 0
M  V30 10163 H 978.201 -2.41175 -1.98094 0
M  V30 10164 N 978.502 0.731368 -1.39602 0
M  V30 10165 C 979.779 1.48308 -1.27531 0
M  V30 10166 C 980.159 2.10795 0.113482 0
M  V30 10167 O 979.507 1.98886 1.12501 0
M  V30 10168 C 979.717 2.53156 -2.40235 0
M  V30 10169 C 981.065 3.19436 -2.79725 0
M  V30 10170 O 982.089 2.6347 -2.39712 0
M  V30 10171 O 980.948 4.20714 -3.48801 0
M  V30 10172 H 978.042 0.658753 -0.499973 0
M  V30 10173 H 980.588 0.764884 -1.51485 0
M  V30 10174 H 979.36 2.05387 -3.33064 0
M  V30 10175 H 978.983 3.3253 -2.17966 0
M  V30 10176 N 979.98 1.24838 0.961938 0
M  V30 10177 C 980.91 1.07053 2.07514 0
M  V30 10178 C 981.891 -0.0182465 1.7009 0
M  V30 10179 O 983.076 0.149915 1.9362 0
M  V30 10180 C 980.206 0.680693 3.40564 0
M  V30 10181 C 979.16 1.71889 3.91967 0
M  V30 10182 C 978.486 1.18395 5.21428 0
M  V30 10183 C 979.786 3.1161 4.19161 0
M  V30 10184 H 981.48 2.00167 2.22651 0
M  V30 10185 H 979.026 0.963799 1.0699 0
M  V30 10186 H 980.979 0.54324 4.17884 0
M  V30 10187 H 979.703 -0.28615 3.25344 0
M  V30 10188 H 978.362 1.84465 3.16809 0
M  V30 10189 H 978.01 0.207543 5.02572 0
M  V30 10190 H 977.71 1.87778 5.56788 0
M  V30 10191 H 979.234 1.05873 6.01351 0
M  V30 10192 H 980.648 3.0223 4.87165 0
M  V30 10193 H 979.045 3.78398 4.65763 0
M  V30 10194 H 980.115 3.59218 3.25715 0
M  V30 10195 N 981.458 -1.16348 1.06306 0
M  V30 10196 C 982.405 -2.20741 0.673962 0
M  V30 10197 C 983.375 -1.628 -0.329454 0
M  V30 10198 O 984.56 -1.89547 -0.218313 0
M  V30 10199 C 981.7 -3.45036 0.0667008 0
M  V30 10200 C 980.813 -4.17221 1.12031 0
M  V30 10201 C 979.948 -5.29034 0.479176 0
M  V30 10202 C 978.987 -5.93021 1.51631 0
M  V30 10203 N 978.124 -6.96327 0.898528 0
M  V30 10204 H 982.964 -2.53376 1.56859 0
M  V30 10205 H 980.501 -1.24449 0.784276 0
M  V30 10206 H 982.459 -4.16099 -0.302916 0
M  V30 10207 H 981.089 -3.1295 -0.791333 0
M  V30 10208 H 980.141 -3.4476 1.60763 0
M  V30 10209 H 981.453 -4.60902 1.90712 0
M  V30 10210 H 980.607 -6.06674 0.0565993 0
M  V30 10211 H 979.346 -4.86517 -0.33951 0
M  V30 10212 H 978.351 -5.14104 1.94878 0
M  V30 10213 H 979.576 -6.37618 2.3371 0
M  V30 10214 H 977.522 -6.55923 0.100555 0
M  V30 10215 H 977.439 -7.38379 1.62272 0
M  V30 10216 H 978.707 -7.77888 0.5011 0
M  V30 10217 N 982.937 -0.845659 -1.3299 0
M  V30 10218 C 983.9 -0.288905 -2.27372 0
M  V30 10219 C 984.9 0.546263 -1.51237 0
M  V30 10220 O 986.09 0.359072 -1.70459 0
M  V30 10221 C 983.222 0.59224 -3.35716 0
M  V30 10222 H 984.415 -1.12181 -2.78128 0
M  V30 10223 H 981.968 -0.619276 -1.43508 0
M  V30 10224 H 982.703 1.44732 -2.90212 0
M  V30 10225 H 982.488 -0.00543255 -3.921 0
M  V30 10226 H 983.978 0.974848 -4.06062 0
M  V30 10227 N 984.415 1.45619 -0.602734 0
M  V30 10228 C 985.831 1.57368 -0.26599 0
M  V30 10229 C 986.031 1.59485 1.23154 0
M  V30 10230 O 985.087 1.52254 2.01432 0
M  V30 10231 C 986.4 2.85863 -0.932881 0
M  V30 10232 C 987.948 2.9953 -0.908344 0
M  V30 10233 C 988.423 4.30789 -1.55515 0
M  V30 10234 N 989.914 4.37536 -1.52042 0
M  V30 10235 C 990.649 5.37758 -1.99008 0
M  V30 10236 N 990.145 6.44544 -2.54038 0
M  V30 10237 N 991.938 5.29085 -1.89805 0
M  V30 10238 H 984.089 1.42489 -1.57514 0
M  V30 10239 H 986.352 0.680948 -0.659556 0
M  V30 10240 H 986.058 2.90183 -1.98713 0
M  V30 10241 H 985.932 3.74467 -0.453209 0
M  V30 10242 H 988.319 2.9478 0.137344 0
M  V30 10243 H 988.4 2.12349 -1.42623 0
M  V30 10244 H 988.044 4.36297 -2.60014 0
M  V30 10245 H 987.974 5.16778 -1.01232 0
M  V30 10246 H 990.465 3.60972 -1.11837 0
M  V30 10247 H 990.778 7.17258 -2.87682 0
M  V30 10248 H 989.123 6.45308 -2.58075 0
M  V30 10249 H 992.314 4.44566 -1.46556 0
M  V30 10250 H 992.487 6.07043 -2.26722 0
M  V30 10251 N 985.893 0.34162 1.53853 0
M  V30 10252 C 987.141 -0.254979 2.00485 0
M  V30 10253 C 987.462 -1.51222 1.23114 0
M  V30 10254 O 986.732 -1.92966 0.337787 0
M  V30 10255 H 985.312 -0.0972084 0.740648 0
M  V30 10256 H 987.974 0.462332 1.89337 0
M  V30 10257 H 987.07 -0.498778 3.08089 0
M  V30 10258 N 987.371 -1.57444 0.0701946 0
M  V30 10259 C 988.301 -2.15659 -0.895176 0
M  V30 10260 C 989.282 -1.08321 -1.31151 0
M  V30 10261 O 990.467 -1.36349 -1.38284 0
M  V30 10262 C 987.597 -2.71693 -2.16334 0
M  V30 10263 C 986.551 -3.84183 -1.88645 0
M  V30 10264 C 985.877 -4.26814 -3.22078 0
M  V30 10265 C 987.177 -5.08493 -1.19299 0
M  V30 10266 H 988.871 -2.96576 -0.410217 0
M  V30 10267 H 986.417 -1.42662 -0.195872 0
M  V30 10268 H 988.37 -3.11064 -2.84284 0
M  V30 10269 H 987.094 -1.87994 -2.67069 0
M  V30 10270 H 985.753 -3.45314 -1.23101 0
M  V30 10271 H 985.401 -3.40039 -3.70651 0
M  V30 10272 H 985.101 -5.02642 -3.04344 0
M  V30 10273 H 986.625 -4.68799 -3.91228 0
M  V30 10274 H 988.039 -5.4519 -1.77316 0
M  V30 10275 H 986.436 -5.89588 -1.11828 0
M  V30 10276 H 987.506 -4.84595 -0.171839 0
M  V30 10277 N 988.849 0.203349 -1.56283 0
M  V30 10278 C 990.077 0.941426 -1.84241 0
M  V30 10279 C 990.492 1.77197 -0.651658 0
M  V30 10280 O 989.849 1.78506 0.379713 0
M  V30 10281 C 989.9 1.84429 -3.10915 0
M  V30 10282 O 989.621 1.04729 -4.25398 0
M  V30 10283 C 991.122 2.69474 -3.51993 0
M  V30 10284 H 988.342 0.27507 -0.612027 0
M  V30 10285 H 990.886 0.213088 -2.03387 0
M  V30 10286 H 989.041 2.52635 -2.93691 0
M  V30 10287 H 989.455 1.66179 -4.97478 0
M  V30 10288 H 990.929 3.28495 -4.43616 0
M  V30 10289 H 991.406 3.42775 -2.74594 0
M  V30 10290 H 992.012 2.06652 -3.71719 0
M  V30 10291 N 990.327 1.50405 0.470755 0
M  V30 10292 C 991.257 1.72222 1.57676 0
M  V30 10293 C 992.238 0.57121 1.60222 0
M  V30 10294 O 993.423 0.810381 1.76484 0
M  V30 10295 C 990.553 1.81666 2.95998 0
M  V30 10296 C 989.507 2.96857 3.08318 0
M  V30 10297 C 988.833 2.91445 4.4829 0
M  V30 10298 C 990.133 4.37361 2.85504 0
M  V30 10299 H 991.827 2.64825 1.39671 0
M  V30 10300 H 989.373 1.27438 0.67049 0
M  V30 10301 H 991.326 1.95514 3.73299 0
M  V30 10302 H 990.05 0.856856 3.1516 0
M  V30 10303 H 988.709 2.82661 2.33449 0
M  V30 10304 H 988.357 1.93309 4.64371 0
M  V30 10305 H 988.057 3.68776 4.57469 0
M  V30 10306 H 989.581 3.07341 5.27611 0
M  V30 10307 H 990.995 4.52081 3.52555 0
M  V30 10308 H 989.392 5.16145 3.06127 0
M  V30 10309 H 990.462 4.49708 1.81359 0
M  V30 10310 N 991.805 -0.723954 1.39988 0
M  V30 10311 C 992.737 -1.84859 1.35498 0
M  V30 10312 C 993.75 -1.60681 0.261812 0
M  V30 10313 O 994.939 -1.7071 0.521566 0
M  V30 10314 C 992.039 -3.21103 1.08381 0
M  V30 10315 C 991.212 -3.72546 2.2919 0
M  V30 10316 C 990.271 -4.8738 1.9836 0
M  V30 10317 O 989.297 -5.00467 2.71149 0
M  V30 10318 N 990.499 -5.72566 0.956461 0
M  V30 10319 H 993.264 -1.89212 2.3242 0
M  V30 10320 H 990.825 -0.905152 1.34233 0
M  V30 10321 H 992.817 -3.9551 0.857564 0
M  V30 10322 H 991.387 -3.1195 0.201549 0
M  V30 10323 H 990.607 -2.89365 2.67697 0
M  V30 10324 H 991.895 -4.03652 3.09746 0
M  V30 10325 H 991.293 -5.64595 0.353444 0
M  V30 10326 H 989.85 -6.46993 0.790118 0
M  V30 10327 N 993.283 -1.25346 -0.955304 0
M  V30 10328 C 994.529 -1.11226 -1.70295 0
M  V30 10329 C 994.884 0.343362 -1.89311 0
M  V30 10330 O 994.177 1.24953 -1.45249 0
M  V30 10331 C 994.371 -1.7993 -3.08804 0
M  V30 10332 C 994.2 -3.32023 -3.033 0
M  V30 10333 C 992.97 -4.01274 -3.07094 0
M  V30 10334 C 995.168 -4.28431 -2.84519 0
M  V30 10335 N 993.15 -5.40149 -2.91741 0
M  V30 10336 C 994.521 -5.54386 -2.7759 0
M  V30 10337 C 996.576 -4.18854 -2.69194 0
M  V30 10338 C 995.279 -6.71859 -2.56902 0
M  V30 10339 C 997.305 -5.36018 -2.49876 0
M  V30 10340 C 996.667 -6.60913 -2.43667 0
M  V30 10341 H 992.766 -0.461707 -0.631151 0
M  V30 10342 H 995.35 -1.58437 -1.13162 0
M  V30 10343 H 993.521 -1.35214 -3.64104 0
M  V30 10344 H 995.253 -1.58557 -3.72346 0
M  V30 10345 H 992.008 -3.52529 -3.1626 0
M  V30 10346 H 992.432 -6.13029 -2.8727 0
M  V30 10347 H 997.074 -3.23043 -2.7277 0
M  V30 10348 H 994.792 -7.67781 -2.52068 0
M  V30 10349 H 998.378 -5.30468 -2.38944 0
M  V30 10350 H 997.258 -7.50045 -2.28914 0
M  V30 10351 N 994.761 1.15782 -1.06922 0
M  V30 10352 C 996.007 1.86741 -0.790922 0
M  V30 10353 C 996.34 1.81863 0.681149 0
M  V30 10354 O 995.615 1.23871 1.49954 0
M  V30 10355 C 995.898 3.36038 -1.29422 0
M  V30 10356 C 995.751 3.49573 -2.83052 0
M  V30 10357 C 997.07 4.30647 -0.907239 0
M  V30 10358 H 994.189 0.678064 -0.288787 0
M  V30 10359 H 996.831 1.36054 -1.32624 0
M  V30 10360 H 994.981 3.79336 -0.838843 0
M  V30 10361 H 996.653 3.1517 -3.36847 0
M  V30 10362 H 994.896 2.91275 -3.21467 0
M  V30 10363 H 995.567 4.5445 -3.13335 0
M  V30 10364 H 998.043 3.95286 -1.29956 0
M  V30 10365 H 996.919 5.33604 -1.28679 0
M  V30 10366 H 997.18 4.41703 0.187251 0
M  V30 10367 N 996.239 0.8527 1.3254 0
M  V30 10368 C 997.469 0.468363 2.01221 0
M  V30 10369 C 997.877 -0.938966 1.64256 0
M  V30 10370 O 997.22 -1.62387 0.858837 0
M  V30 10371 C 997.282 0.525457 3.55639 0
M  V30 10372 C 996.946 1.89133 4.16026 0
M  V30 10373 C 997.943 2.85652 4.34395 0
M  V30 10374 C 995.628 2.18795 4.52144 0
M  V30 10375 C 997.622 4.09985 4.88048 0
M  V30 10376 C 995.309 3.43381 5.05502 0
M  V30 10377 C 996.307 4.38792 5.23403 0
M  V30 10378 O 995.995 5.61173 5.75622 0
M  V30 10379 H 995.727 0.182712 0.65084 0
M  V30 10380 H 998.281 1.15076 1.70138 0
M  V30 10381 H 996.511 -0.213779 3.86109 0
M  V30 10382 H 998.2 0.156999 4.05596 0
M  V30 10383 H 998.966 2.6404 4.06827 0
M  V30 10384 H 994.845 1.45317 4.37498 0
M  V30 10385 H 998.389 4.84465 5.01936 0
M  V30 10386 H 994.286 3.64844 5.32503 0
M  V30 10387 H 995.054 5.63104 5.94017 0
M  V30 10388 N 997.718 -1.45297 0.610449 0
M  V30 10389 C 998.943 -2.07101 0.111414 0
M  V30 10390 C 999.368 -1.45161 -1.19625 0
M  V30 10391 O 998.726 -0.545368 -1.72903 0
M  V30 10392 C 998.774 -3.60598 -0.0117372 0
M  V30 10393 O 997.878 -3.98512 -1.06122 0
M  V30 10394 H 997.219 -0.659709 0.075364 0
M  V30 10395 H 999.749 -1.86504 0.841269 0
M  V30 10396 H 999.759 -4.07464 -0.209028 0
M  V30 10397 H 998.434 -4.05067 0.943076 0
M  V30 10398 H 997.011 -3.63312 -0.840158 0
M  V30 10399 N 999.196 -0.349774 -1.5367 0
M  V30 10400 C 1000.16 0.491676 -2.23864 0
M  V30 10401 C 1001.16 1.02256 -1.24098 0
M  V30 10402 O 1002.35 0.910816 -1.48492 0
M  V30 10403 C 999.481 1.68557 -2.96313 0
M  V30 10404 H 1000.67 -0.12233 -2.9965 0
M  V30 10405 H 998.227 -0.101214 -1.55972 0
M  V30 10406 H 998.962 2.3381 -2.2473 0
M  V30 10407 H 998.747 1.31203 -3.69497 0
M  V30 10408 H 1000.24 2.28225 -3.49718 0
M  V30 10409 N 1000.67 1.57404 -0.0785433 0
M  V30 10410 C 1002.09 1.57158 0.2781 0
M  V30 10411 C 1002.29 1.08847 1.69572 0
M  V30 10412 O 1001.35 0.757407 2.40873 0
M  V30 10413 C 1002.66 3.00589 0.0816067 0
M  V30 10414 C 1004.21 3.12637 0.150627 0
M  V30 10415 C 1004.68 4.57997 -0.0176685 0
M  V30 10416 N 1006.17 4.63185 0.0377145 0
M  V30 10417 C 1006.91 5.7336 -0.0679907 0
M  V30 10418 N 1006.4 6.92426 -0.227598 0
M  V30 10419 N 1008.2 5.62099 -0.0104424 0
M  V30 10420 H 1000.35 1.87121 -1.00496 0
M  V30 10421 H 1002.61 0.862937 -0.392484 0
M  V30 10422 H 1002.32 3.40072 -0.896869 0
M  V30 10423 H 1002.19 3.67931 0.831046 0
M  V30 10424 H 1004.58 2.73037 1.11959 0
M  V30 10425 H 1004.66 2.4792 -0.630028 0
M  V30 10426 H 1004.3 4.98288 -0.983431 0
M  V30 10427 H 1004.23 5.20754 0.782475 0
M  V30 10428 H 1006.72 3.77564 0.159208 0
M  V30 10429 H 1007.04 7.72217 -0.300217 0
M  V30 10430 H 1005.38 6.94502 -0.263049 0
M  V30 10431 H 1008.57 4.67964 0.112999 0
M  V30 10432 H 1008.75 6.47928 -0.0962747 0
M  V30 10433 N 1002.15 -0.195058 1.56388 0
M  V30 10434 C 1003.4 -0.913636 1.8027 0
M  V30 10435 C 1003.72 -1.83791 0.651606 0
M  V30 10436 O 1002.99 -1.931 -0.330057 0
M  V30 10437 H 1001.57 -0.34036 0.664954 0
M  V30 10438 H 1004.23 -0.200559 1.93865 0
M  V30 10439 H 1003.33 -1.50473 2.7343 0
M  V30 10440 N 1003.63 -1.50653 -0.462772 0
M  V30 10441 C 1004.91 -1.5258 -1.22387 0
M  V30 10442 C 1005.29 -0.275263 -2.09298 0
M  V30 10443 O 1004.63 0.740943 -2.16153 0
M  V30 10444 C 1004.84 -2.82611 -2.04773 0
M  V30 10445 C 1006.19 -3.33592 -2.62681 0
M  V30 10446 O 1007.22 -2.83989 -2.15008 0
M  V30 10447 O 1006.08 -4.20081 -3.49563 0
M  V30 10448 H 1003.17 -0.612367 -0.55582 0
M  V30 10449 H 1005.72 -1.62948 -0.473914 0
M  V30 10450 H 1004.49 -3.65098 -1.40781 0
M  V30 10451 H 1004.11 -2.75286 -2.86886 0
M  V30 10452 N 1005.11 0.71652 -1.4037 0
M  V30 10453 C 1006.34 1.50344 -1.41704 0
M  V30 10454 C 1006.75 1.89194 -0.0148011 0
M  V30 10455 O 1006.09 1.55916 0.971391 0
M  V30 10456 C 1006.15 2.80928 -2.2432 0
M  V30 10457 C 1005.82 2.64406 -3.72744 0
M  V30 10458 C 1006.81 2.31727 -4.65401 0
M  V30 10459 C 1004.5 2.807 -4.16549 0
M  V30 10460 C 1006.49 2.15551 -5.99847 0
M  V30 10461 C 1004.18 2.64141 -5.51065 0
M  V30 10462 C 1005.18 2.31614 -6.42529 0
M  V30 10463 O 1004.86 2.15179 -7.74566 0
M  V30 10464 H 1004.6 0.470574 -0.48532 0
M  V30 10465 H 1007.15 0.89152 -1.85043 0
M  V30 10466 H 1005.38 3.4445 -1.75759 0
M  V30 10467 H 1007.07 3.4264 -2.17607 0
M  V30 10468 H 1007.84 2.18773 -4.32855 0
M  V30 10469 H 1003.71 3.05005 -3.45677 0
M  V30 10470 H 1007.26 1.90084 -6.71203 0
M  V30 10471 H 1003.16 2.76679 -5.83197 0
M  V30 10472 H 1003.92 2.30106 -7.85489 0
M  V30 10473 N 1006.59 1.25851 0.948643 0
M  V30 10474 C 1007.84 1.10347 1.68838 0
M  V30 10475 C 1008.15 -0.354262 1.92365 0
M  V30 10476 O 1009.35 -0.629847 2.64093 0
M  V30 10477 C 1007.81 1.92659 3.03991 0
M  V30 10478 C 1007.42 3.42962 2.88238 0
M  V30 10479 C 1009.16 1.85743 3.81707 0
M  V30 10480 C 1007.07 4.17547 4.18818 0
M  V30 10481 H 1006 0.409342 0.63321 0
M  V30 10482 H 1008.65 1.50098 1.05559 0
M  V30 10483 H 1007.03 1.45736 3.68208 0
M  V30 10484 H 1008.21 3.97601 2.32917 0
M  V30 10485 H 1006.52 3.51035 2.23972 0
M  V30 10486 H 1009.12 2.38758 4.78434 0
M  V30 10487 H 1009.46 0.826568 4.08012 0
M  V30 10488 H 1009.99 2.30449 3.2425 0
M  V30 10489 H 1006.73 5.21072 3.97699 0
M  V30 10490 H 1006.25 3.6769 4.73882 0
M  V30 10491 H 1007.93 4.25589 4.87322 0
M  V30 10492 N 1008.06 -1.15214 1.07534 0
M  V30 10493 C 1009.48 -1.38031 0.801228 0
M  V30 10494 C 1009.68 -1.92556 -0.593672 0
M  V30 10495 O 1008.74 -2.1325 -1.35206 0
M  V30 10496 C 1010.05 -2.34958 1.87657 0
M  V30 10497 C 1011.6 -2.48617 1.90154 0
M  V30 10498 C 1012.07 -3.48837 2.96777 0
M  V30 10499 N 1013.56 -3.56374 2.95892 0
M  V30 10500 C 1014.3 -4.33746 3.75036 0
M  V30 10501 N 1013.79 -5.14435 4.64036 0
M  V30 10502 N 1015.59 -4.28853 3.63375 0
M  V30 10503 H 1007.74 -0.781639 1.97495 0
M  V30 10504 H 1010 -0.406243 0.856546 0
M  V30 10505 H 1009.71 -2.02013 2.87895 0
M  V30 10506 H 1009.58 -3.3476 1.73827 0
M  V30 10507 H 1011.97 -2.80859 0.905666 0
M  V30 10508 H 1012.05 -1.48808 2.08062 0
M  V30 10509 H 1011.69 -3.1733 3.96565 0
M  V30 10510 H 1011.62 -4.48406 2.76116 0
M  V30 10511 H 1014.11 -2.98784 2.31379 0
M  V30 10512 H 1014.43 -5.70722 5.21053 0
M  V30 10513 H 1012.77 -5.13734 4.68084 0
M  V30 10514 H 1015.96 -3.64882 2.93221 0
M  V30 10515 H 1016.14 -4.88903 4.25298 0
M  V30 10516 N 1009.54 -0.859717 -1.32086 0
M  V30 10517 C 1010.51 -0.313005 -2.27053 0
M  V30 10518 C 1011.51 0.530191 -1.51808 0
M  V30 10519 O 1012.7 0.340972 -1.7083 0
M  V30 10520 C 1009.83 0.5566 -3.36325 0
M  V30 10521 H 1011.02 -1.15125 -2.76923 0
M  V30 10522 H 1008.57 -0.634463 -1.42843 0
M  V30 10523 H 1009.31 1.41645 -2.91731 0
M  V30 10524 H 1009.09 -0.0470197 -3.92072 0
M  V30 10525 H 1010.58 0.931725 -4.07073 0
M  V30 10526 N 1011.02 1.44971 -0.618145 0
M  V30 10527 C 1011.98 2.29044 0.0846739 0
M  V30 10528 C 1012.98 1.40341 0.784921 0
M  V30 10529 O 1014.17 1.62351 0.631479 0
M  V30 10530 C 1011.31 3.21617 1.13027 0
M  V30 10531 H 1012.5 2.92668 -0.654612 0
M  V30 10532 H 1010.05 1.51668 -0.377672 0
M  V30 10533 H 1010.79 2.62815 1.89997 0
M  V30 10534 H 1010.57 3.86969 0.63224 0
M  V30 10535 H 1012.06 3.84805 1.62218 0
M  V30 10536 N 1012.5 0.357919 1.53482 0
M  V30 10537 C 1013.41 -0.500273 2.29204 0
M  V30 10538 C 1014.42 -1.09936 1.3487 0
M  V30 10539 O 1015.6 -1.11195 1.67921 0
M  V30 10540 C 1012.67 -1.62828 3.06085 0
M  V30 10541 C 1011.73 -1.05751 4.16071 0
M  V30 10542 C 1010.96 -2.13176 4.89277 0
M  V30 10543 O 1011.18 -3.34153 4.62274 0
M  V30 10544 O 1010.12 -1.76663 5.7539 0
M  V30 10545 H 1013.94 0.115696 3.0348 0
M  V30 10546 H 1011.53 0.122527 1.48897 0
M  V30 10547 H 1013.41 -2.28427 3.54117 0
M  V30 10548 H 1012.08 -2.22979 2.34653 0
M  V30 10549 H 1010.99 -0.365642 3.72309 0
M  V30 10550 H 1012.32 -0.500661 4.89647 0
M  V30 10551 N 1013.98 -1.5736 0.0868897 0
M  V30 10552 C 1014.92 -2.13571 -0.874996 0
M  V30 10553 C 1015.89 -1.0521 -1.2853 0
M  V30 10554 O 1017.08 -1.32954 -1.3685 0
M  V30 10555 C 1014.22 -2.71386 -2.13175 0
M  V30 10556 C 1013.33 -3.93953 -1.77272 0
M  V30 10557 C 1012.47 -4.3996 -2.97671 0
M  V30 10558 C 1011.51 -5.55137 -2.57856 0
M  V30 10559 N 1010.64 -5.96034 -3.71064 0
M  V30 10560 H 1015.48 -2.95453 -0.388789 0
M  V30 10561 H 1013.02 -1.45992 -0.180242 0
M  V30 10562 H 1014.98 -3.03022 -2.86764 0
M  V30 10563 H 1013.61 -1.92245 -2.5931 0
M  V30 10564 H 1012.66 -3.68683 -0.936845 0
M  V30 10565 H 1013.97 -4.77565 -1.43989 0
M  V30 10566 H 1013.13 -4.73337 -3.79522 0
M  V30 10567 H 1011.86 -3.55232 -3.34158 0
M  V30 10568 H 1010.87 -5.21397 -1.7443 0
M  V30 10569 H 1012.09 -6.41608 -2.22522 0
M  V30 10570 H 1010.04 -5.14253 -4.07284 0
M  V30 10571 H 1009.96 -6.74423 -3.41599 0
M  V30 10572 H 1011.23 -6.34038 -4.53449 0
M  V30 10573 N 1015.45 0.186762 -1.56489 0
M  V30 10574 C 1016.38 1.23395 -1.98232 0
M  V30 10575 C 1017.37 1.4702 -0.855526 0
M  V30 10576 O 1018.55 1.58616 -1.12048 0
M  V30 10577 C 1015.68 2.57635 -2.32898 0
M  V30 10578 C 1014.63 2.48607 -3.48394 0
M  V30 10579 C 1013.96 3.87196 -3.68759 0
M  V30 10580 C 1015.26 2.00398 -4.82325 0
M  V30 10581 H 1016.95 0.887026 -2.85958 0
M  V30 10582 H 1014.5 0.42525 -1.37578 0
M  V30 10583 H 1016.45 3.31082 -2.60696 0
M  V30 10584 H 1015.18 2.94084 -1.42064 0
M  V30 10585 H 1013.84 1.77615 -3.207 0
M  V30 10586 H 1013.48 4.21012 -2.75241 0
M  V30 10587 H 1013.18 3.82029 -4.46462 0
M  V30 10588 H 1014.71 4.62253 -3.98941 0
M  V30 10589 H 1016.12 2.6361 -5.091 0
M  V30 10590 H 1014.52 2.06214 -5.63556 0
M  V30 10591 H 1015.59 0.957562 -4.75351 0
M  V30 10592 N 1016.93 1.50896 0.454776 0
M  V30 10593 C 1018.35 1.38684 0.78987 0
M  V30 10594 C 1018.55 0.455587 1.96282 0
M  V30 10595 O 1017.6 -0.0957503 2.52318 0
M  V30 10596 C 1018.92 2.80381 1.08661 0
M  V30 10597 C 1020.47 2.8941 1.19209 0
M  V30 10598 C 1020.94 4.31976 1.52187 0
M  V30 10599 N 1022.43 4.35002 1.59146 0
M  V30 10600 C 1023.17 5.42326 1.862 0
M  V30 10601 N 1022.66 6.59835 2.11164 0
M  V30 10602 N 1024.46 5.29786 1.87838 0
M  V30 10603 H 1016.61 2.10006 -0.317981 0
M  V30 10604 H 1018.87 0.944636 -0.0797969 0
M  V30 10605 H 1018.58 3.50438 0.297626 0
M  V30 10606 H 1018.45 3.18634 2.01872 0
M  V30 10607 H 1020.84 2.19561 1.97173 0
M  V30 10608 H 1020.92 2.54677 0.239401 0
M  V30 10609 H 1020.56 5.02368 0.747576 0
M  V30 10610 H 1020.49 4.64208 2.48633 0
M  V30 10611 H 1022.98 3.50276 1.41828 0
M  V30 10612 H 1023.3 7.37428 2.31128 0
M  V30 10613 H 1021.64 6.62981 2.08522 0
M  V30 10614 H 1024.83 4.36974 1.67843 0
M  V30 10615 H 1025 6.13511 2.08585 0
M  V30 10616 N 1018.41 -0.709066 1.40748 0
M  V30 10617 C 1019.34 -1.83412 1.37451 0
M  V30 10618 C 1020.36 -1.60394 0.27884 0
M  V30 10619 O 1021.54 -1.70147 0.539642 0
M  V30 10620 C 1018.64 -3.19935 1.1178 0
M  V30 10621 C 1017.82 -3.70095 2.33128 0
M  V30 10622 C 1016.88 -4.85249 2.03518 0
M  V30 10623 O 1015.9 -4.97563 2.76442 0
M  V30 10624 N 1017.1 -5.7152 1.01714 0
M  V30 10625 H 1019.87 -1.86736 2.34414 0
M  V30 10626 H 1017.43 -0.890863 1.35186 0
M  V30 10627 H 1019.42 -3.94578 0.899464 0
M  V30 10628 H 1017.99 -3.11718 0.234624 0
M  V30 10629 H 1017.21 -2.8651 2.70751 0
M  V30 10630 H 1018.5 -4.00344 3.1401 0
M  V30 10631 H 1017.9 -5.64188 0.413307 0
M  V30 10632 H 1016.46 -6.46119 0.858696 0
M  V30 10633 N 1019.89 -1.26353 -0.941956 0
M  V30 10634 C 1020.8 -1.09618 -2.07415 0
M  V30 10635 C 1021.82 -0.0298963 -1.73974 0
M  V30 10636 O 1022.99 -0.233466 -2.00042 0
M  V30 10637 C 1020.06 -0.73013 -3.38925 0
M  V30 10638 C 1019.12 -1.87574 -3.86153 0
M  V30 10639 C 1018.35 -1.52706 -5.11387 0
M  V30 10640 O 1018.57 -0.428438 -5.68789 0
M  V30 10641 O 1017.51 -2.36154 -5.53638 0
M  V30 10642 H 1021.33 -2.04598 -2.2444 0
M  V30 10643 H 1018.92 -1.05407 -1.05876 0
M  V30 10644 H 1020.8 -0.538684 -4.17943 0
M  V30 10645 H 1019.48 0.190282 -3.2314 0
M  V30 10646 H 1018.38 -2.12214 -3.08084 0
M  V30 10647 H 1019.72 -2.77585 -4.06457 0
M  V30 10648 N 1021.37 1.14642 -1.08144 0
M  V30 10649 C 1022.62 1.84964 -0.804437 0
M  V30 10650 C 1022.93 1.8369 0.672106 0
M  V30 10651 O 1024.14 2.49775 1.06417 0
M  V30 10652 C 1022.59 3.32015 -1.38904 0
M  V30 10653 C 1022.2 3.41713 -2.89718 0
M  V30 10654 C 1023.94 4.07467 -1.19041 0
M  V30 10655 C 1021.85 4.82958 -3.41329 0
M  V30 10656 H 1020.78 0.692932 -0.297256 0
M  V30 10657 H 1023.43 1.29255 -1.30251 0
M  V30 10658 H 1021.81 3.87445 -0.818679 0
M  V30 10659 H 1022.99 2.96347 -3.52867 0
M  V30 10660 H 1021.3 2.79713 -3.08463 0
M  V30 10661 H 1023.9 5.1172 -1.55069 0
M  V30 10662 H 1024.24 4.16097 -0.130027 0
M  V30 10663 H 1024.78 3.58329 -1.72757 0
M  V30 10664 H 1021.51 4.79515 -4.46929 0
M  V30 10665 H 1021.03 5.28873 -2.82937 0
M  V30 10666 H 1022.71 5.51841 -3.37759 0
M  V30 10667 N 1022.85 0.866709 1.31628 0
M  V30 10668 C 1024.08 0.489679 2.00713 0
M  V30 10669 C 1024.48 -0.921492 1.65243 0
M  V30 10670 O 1023.83 -1.61467 0.876012 0
M  V30 10671 C 1023.89 0.563148 3.55062 0
M  V30 10672 C 1023.55 1.93535 4.13996 0
M  V30 10673 C 1024.55 2.90243 4.31341 0
M  V30 10674 C 1022.23 2.23578 4.49798 0
M  V30 10675 C 1024.23 4.15138 4.83673 0
M  V30 10676 C 1021.92 3.48723 5.01832 0
M  V30 10677 C 1022.91 4.44319 5.18719 0
M  V30 10678 O 1022.6 5.67247 5.69637 0
M  V30 10679 H 1022.33 0.189605 0.648865 0
M  V30 10680 H 1024.89 1.16874 1.68907 0
M  V30 10681 H 1023.12 -0.172815 3.86314 0
M  V30 10682 H 1024.81 0.200009 4.05407 0
M  V30 10683 H 1025.57 2.6834 4.04003 0
M  V30 10684 H 1021.45 1.49949 4.35932 0
M  V30 10685 H 1025 4.89762 4.96769 0
M  V30 10686 H 1020.89 3.70471 5.28603 0
M  V30 10687 H 1021.66 5.69372 5.88011 0
M  V30 10688 N 1024.32 -1.44642 0.625825 0
M  V30 10689 C 1025.55 -2.06971 0.133373 0
M  V30 10690 C 1025.97 -1.46421 -1.18078 0
M  V30 10691 O 1025.33 -0.563676 -1.72315 0
M  V30 10692 C 1025.38 -3.6059 0.0265097 0
M  V30 10693 O 1024.48 -3.99615 -1.01889 0
M  V30 10694 H 1023.82 -0.658873 0.0823568 0
M  V30 10695 H 1026.35 -1.85601 0.861002 0
M  V30 10696 H 1026.36 -4.07663 -0.1658 0
M  V30 10697 H 1025.04 -4.04043 0.985986 0
M  V30 10698 H 1023.62 -3.64183 -0.801577 0
M  V30 10699 N 1025.8 -0.366053 -1.5329 0
M  V30 10700 C 1027.03 0.226839 -2.06156 0
M  V30 10701 C 1027.45 1.41637 -1.23776 0
M  V30 10702 O 1026.81 1.7947 -0.256948 0
M  V30 10703 C 1026.86 0.597956 -3.55608 0
M  V30 10704 O 1025.96 1.69512 -3.75951 0
M  V30 10705 H 1025.3 0.0329156 -0.663184 0
M  V30 10706 H 1027.83 -0.526793 -1.97702 0
M  V30 10707 H 1027.84 0.868831 -3.98642 0
M  V30 10708 H 1026.52 -0.271838 -4.15011 0
M  V30 10709 H 1025.09 1.41976 -3.44815 0
M  V30 10710 N 1027.28 1.57312 -0.0952337 0
M  V30 10711 C 1028.19 2.17556 0.877877 0
M  V30 10712 C 1029.21 1.14505 1.31014 0
M  V30 10713 O 1030.38 1.46876 1.37802 0
M  V30 10714 C 1027.45 2.74413 2.11892 0
M  V30 10715 C 1026.51 3.92419 1.74085 0
M  V30 10716 C 1025.74 4.46556 2.92273 0
M  V30 10717 O 1025.96 3.99631 4.07002 0
M  V30 10718 O 1024.9 5.37576 2.70732 0
M  V30 10719 H 1028.72 3.01116 0.395312 0
M  V30 10720 H 1026.31 1.48841 0.129123 0
M  V30 10721 H 1028.19 3.10754 2.84622 0
M  V30 10722 H 1026.87 1.93899 2.59201 0
M  V30 10723 H 1025.77 3.6089 0.985346 0
M  V30 10724 H 1027.11 4.74298 1.31539 0
M  V30 10725 N 1028.76 -0.17846 1.56586 0
M  V30 10726 C 1029.67 -1.24115 1.9908 0
M  V30 10727 C 1030.68 -1.48854 0.901031 0
M  V30 10728 O 1031.86 -1.61142 1.2081 0
M  V30 10729 C 1028.92 -2.56187 2.33601 0
M  V30 10730 C 1027.99 -2.39373 3.56369 0
M  V30 10731 C 1027.22 -3.65147 3.89234 0
M  V30 10732 O 1027.44 -4.70024 3.23162 0
M  V30 10733 O 1026.38 -3.59683 4.82609 0
M  V30 10734 H 1030.2 -0.910482 2.89731 0
M  V30 10735 H 1027.79 -0.38477 1.4436 0
M  V30 10736 H 1029.67 -3.34109 2.56806 0
M  V30 10737 H 1028.34 -2.88847 1.46113 0
M  V30 10738 H 1027.25 -1.59506 3.38391 0
M  V30 10739 H 1028.58 -2.1164 4.44375 0
M  V30 10740 N 1030.24 -1.51135 -0.446768 0
M  V30 10741 C 1031.65 -1.39101 -0.782504 0
M  V30 10742 C 1031.85 -0.46599 -1.96038 0
M  V30 10743 O 1030.91 0.0823679 -2.52366 0
M  V30 10744 C 1032.22 -2.80953 -1.07173 0
M  V30 10745 C 1033.77 -2.90038 -1.17673 0
M  V30 10746 C 1034.24 -4.32777 -1.49894 0
M  V30 10747 N 1035.73 -4.3584 -1.56837 0
M  V30 10748 C 1036.47 -5.43305 -1.83322 0
M  V30 10749 N 1035.97 -6.60945 -2.07662 0
M  V30 10750 N 1037.76 -5.30775 -1.85026 0
M  V30 10751 H 1029.91 -2.09835 0.329114 0
M  V30 10752 H 1032.17 -0.944199 0.0848054 0
M  V30 10753 H 1031.88 -3.50591 -0.279037 0
M  V30 10754 H 1031.75 -3.197 -2.00179 0
M  V30 10755 H 1034.14 -2.20603 -1.96005 0
M  V30 10756 H 1034.22 -2.54801 -0.225892 0
M  V30 10757 H 1033.86 -5.02757 -0.720924 0
M  V30 10758 H 1033.79 -4.6552 -2.46168 0
M  V30 10759 H 1036.29 -3.51023 -1.39968 0
M  V30 10760 H 1036.6 -7.38643 -2.27214 0
M  V30 10761 H 1034.94 -6.64077 -2.05003 0
M  V30 10762 H 1038.13 -4.37858 -1.65523 0
M  V30 10763 H 1038.31 -6.14609 -2.05329 0
M  V30 10764 N 1031.71 0.701592 -1.41122 0
M  V30 10765 C 1032.99 1.45569 -1.30648 0
M  V30 10766 C 1033.37 2.10988 0.068744 0
M  V30 10767 O 1032.72 2.01228 1.08257 0
M  V30 10768 C 1032.93 2.48003 -2.45551 0
M  V30 10769 C 1034.28 3.13431 -2.86437 0
M  V30 10770 O 1035.3 2.58327 -2.45247 0
M  V30 10771 O 1034.16 4.13221 -3.57646 0
M  V30 10772 H 1031.25 0.648 -0.513834 0
M  V30 10773 H 1033.8 0.73258 -1.53073 0
M  V30 10774 H 1032.57 1.98276 -3.37346 0
M  V30 10775 H 1032.19 3.27832 -2.24971 0
M  V30 10776 N 1033.19 1.2685 0.935242 0
M  V30 10777 C 1034.1 1.10716 2.06831 0
M  V30 10778 C 1035.12 0.0391222 1.73956 0
M  V30 10779 O 1036.29 0.244071 1.99916 0
M  V30 10780 C 1033.36 0.748093 3.38533 0
M  V30 10781 C 1032.42 1.89619 3.85153 0
M  V30 10782 C 1031.65 1.55416 5.1057 0
M  V30 10783 O 1031.88 0.458596 5.68553 0
M  V30 10784 O 1030.81 2.39087 5.52378 0
M  V30 10785 H 1034.64 2.05785 2.23352 0
M  V30 10786 H 1032.22 1.05967 1.05315 0
M  V30 10787 H 1034.1 0.560841 4.17651 0
M  V30 10788 H 1032.78 -0.173142 3.23237 0
M  V30 10789 H 1031.68 2.13845 3.06954 0
M  V30 10790 H 1033.02 2.79737 4.04979 0
M  V30 10791 N 1034.67 -1.14067 1.0875 0
M  V30 10792 C 1036.09 -1.37173 0.815823 0
M  V30 10793 C 1036.29 -1.93175 -0.573215 0
M  V30 10794 O 1035.34 -2.14672 -1.32937 0
M  V30 10795 C 1036.66 -2.32955 1.90138 0
M  V30 10796 C 1038.2 -2.46586 1.9278 0
M  V30 10797 C 1038.68 -3.4567 3.0046 0
M  V30 10798 N 1040.17 -3.53216 2.99655 0
M  V30 10799 C 1040.9 -4.29743 3.79616 0
M  V30 10800 N 1040.4 -5.09484 4.69466 0
M  V30 10801 N 1042.19 -4.24975 3.67903 0
M  V30 10802 H 1034.34 -0.760648 1.98313 0
M  V30 10803 H 1036.61 -0.397135 0.860807 0
M  V30 10804 H 1036.31 -1.98949 2.90021 0
M  V30 10805 H 1036.19 -3.32897 1.77368 0
M  V30 10806 H 1038.57 -2.79882 0.935404 0
M  V30 10807 H 1038.66 -1.46593 2.09629 0
M  V30 10808 H 1038.3 -3.13106 3.99909 0
M  V30 10809 H 1038.23 -4.45452 2.80856 0
M  V30 10810 H 1040.72 -2.96314 2.34535 0
M  V30 10811 H 1041.03 -5.65163 5.27077 0
M  V30 10812 H 1039.38 -5.08741 4.73506 0
M  V30 10813 H 1042.57 -3.61751 2.97075 0
M  V30 10814 H 1042.74 -4.84364 4.30459 0
M  V30 10815 N 1036.15 -0.873678 -1.31166 0
M  V30 10816 C 1037.08 -0.348011 -2.30892 0
M  V30 10817 C 1038.06 0.563092 -1.60509 0
M  V30 10818 O 1039.24 0.479332 -1.88192 0
M  V30 10819 C 1036.37 0.448158 -3.44396 0
M  V30 10820 C 1035.33 -0.370179 -4.26396 0
M  V30 10821 C 1034.65 0.551903 -5.31844 0
M  V30 10822 C 1035.95 -1.60624 -4.96988 0
M  V30 10823 H 1037.65 -1.18134 -2.75109 0
M  V30 10824 H 1035.19 -0.569502 -1.3226 0
M  V30 10825 H 1037.15 0.826458 -4.13216 0
M  V30 10826 H 1035.87 1.31503 -2.98956 0
M  V30 10827 H 1034.53 -0.730472 -3.59249 0
M  V30 10828 H 1034.18 1.41616 -4.82653 0
M  V30 10829 H 1033.88 0.00823478 -5.87599 0
M  V30 10830 H 1035.4 0.926965 -6.03523 0
M  V30 10831 H 1036.82 -1.29917 -5.58386 0
M  V30 10832 H 1035.21 -2.08926 -5.62557 0
M  V30 10833 H 1036.28 -2.357 -4.23761 0
M  V30 10834 N 1037.63 1.44308 -0.633487 0
M  V30 10835 C 1038.85 2.06384 -0.146063 0
M  V30 10836 C 1039.27 1.47357 1.18031 0
M  V30 10837 O 1038.63 0.597334 1.72448 0
M  V30 10838 C 1038.68 3.61489 -0.0276722 0
M  V30 10839 O 1038.4 4.18318 -1.3016 0
M  V30 10840 C 1039.9 4.40604 0.488168 0
M  V30 10841 H 1037.12 0.666122 -0.0807632 0
M  V30 10842 H 1039.66 1.85139 -0.868557 0
M  V30 10843 H 1037.82 3.81988 0.645273 0
M  V30 10844 H 1038.23 5.11783 -1.14797 0
M  V30 10845 H 1039.71 5.49545 0.520013 0
M  V30 10846 H 1040.18 4.12218 1.51568 0
M  V30 10847 H 1040.79 4.2503 -0.151608 0
M  V30 10848 N 1039.1 0.374177 1.53094 0
M  V30 10849 C 1040.52 0.0234783 1.59583 0
M  V30 10850 C 1040.72 -1.45984 1.38892 0
M  V30 10851 O 1039.78 -2.22251 1.19836 0
M  V30 10852 C 1041.09 0.487117 2.96728 0
M  V30 10853 C 1042.64 0.442073 3.09862 0
M  V30 10854 C 1043.11 0.881659 4.49434 0
M  V30 10855 N 1044.6 0.837062 4.55574 0
M  V30 10856 C 1045.34 1.14878 5.61774 0
M  V30 10857 N 1044.83 1.53022 6.75689 0
M  V30 10858 N 1046.63 1.07102 5.51802 0
M  V30 10859 H 1038.78 1.34003 1.64794 0
M  V30 10860 H 1041.04 0.548281 0.773364 0
M  V30 10861 H 1040.75 1.52252 3.17037 0
M  V30 10862 H 1040.62 -0.121772 3.77003 0
M  V30 10863 H 1043.01 -0.584216 2.89259 0
M  V30 10864 H 1043.09 1.08657 2.31576 0
M  V30 10865 H 1042.73 1.90611 4.70776 0
M  V30 10866 H 1042.66 0.214326 5.26164 0
M  V30 10867 H 1045.15 0.556173 3.73785 0
M  V30 10868 H 1045.47 1.75211 7.52676 0
M  V30 10869 H 1043.81 1.56895 6.77059 0
M  V30 10870 H 1047 0.772149 4.61688 0
M  V30 10871 H 1047.18 1.31728 6.3447 0
M  V30 10872 N 1040.58 -1.57259 0.103575 0
M  V30 10873 C 1041.52 -2.10165 -0.889141 0
M  V30 10874 C 1042.49 -1.01426 -1.27089 0
M  V30 10875 O 1043.68 -1.2898 -1.37465 0
M  V30 10876 C 1040.8 -2.58564 -2.18774 0
M  V30 10877 C 1039.85 -3.79043 -1.95522 0
M  V30 10878 S 1040.68 -5.22213 -1.18551 0
M  V30 10879 C 1041.84 -5.73968 -2.49623 0
M  V30 10880 H 1042.07 -2.9404 -0.439083 0
M  V30 10881 H 1039.61 -1.54008 -0.10989 0
M  V30 10882 H 1041.56 -2.87106 -2.93395 0
M  V30 10883 H 1040.22 -1.749 -2.609 0
M  V30 10884 H 1039.42 -4.11004 -2.91705 0
M  V30 10885 H 1039.02 -3.51038 -1.29028 0
M  V30 10886 H 1041.31 -5.82752 -3.45553 0
M  V30 10887 H 1042.25 -6.72324 -2.22229 0
M  V30 10888 H 1042.66 -5.01946 -2.58284 0
M  V30 10889 N 1042.06 0.170153 -1.56679 0
M  V30 10890 C 1043.29 0.900826 -1.85927 0
M  V30 10891 C 1043.7 1.76285 -0.687033 0
M  V30 10892 O 1043.04 1.80276 0.353029 0
M  V30 10893 C 1043.1 1.82723 -3.096 0
M  V30 10894 C 1042.77 1.14469 -4.42432 0
M  V30 10895 C 1043.76 0.509598 -5.17396 0
M  V30 10896 C 1041.45 1.1411 -4.89167 0
M  V30 10897 C 1043.44 -0.119976 -6.37287 0
M  V30 10898 C 1041.13 0.507703 -6.08987 0
M  V30 10899 C 1042.13 -0.121731 -6.82892 0
M  V30 10900 O 1041.82 -0.74514 -8.00439 0
M  V30 10901 H 1041.55 0.267087 -0.621 0
M  V30 10902 H 1044.1 0.17474 -2.04655 0
M  V30 10903 H 1042.33 2.59367 -2.8682 0
M  V30 10904 H 1044.02 2.42784 -3.25285 0
M  V30 10905 H 1044.79 0.504341 -4.82371 0
M  V30 10906 H 1040.67 1.62043 -4.31582 0
M  V30 10907 H 1044.21 -0.611872 -6.94911 0
M  V30 10908 H 1040.11 0.510548 -6.43478 0
M  V30 10909 H 1040.88 -0.644506 -8.15959 0
M  V30 10910 N 1043.54 1.5137 0.438746 0
M  V30 10911 C 1044.49 1.73154 1.55308 0
M  V30 10912 C 1045.48 0.597825 1.58501 0
M  V30 10913 O 1046.69 0.77917 1.62262 0
M  V30 10914 H 1043.06 0.547083 0.51595 0
M  V30 10915 H 1045.03 2.66566 1.34108 0
M  V30 10916 C 1043.78 1.87242 2.92977 0
M  V30 10917 H 1043.1 2.73884 2.91252 0
M  V30 10918 H 1044.54 2.06497 3.70317 0
M  V30 10919 C 1043 0.631887 3.30921 0
M  V30 10920 O 1043.53 -0.214099 4.01129 0
M  V30 10921 N 1041.74 0.47639 2.86669 0
M  V30 10922 H 1041.29 1.16589 2.29706 0
M  V30 10923 H 1041.24 -0.352403 3.12419 0
M  V30 10924 N 1045.02 -0.694098 1.41492 0
M  V30 10925 C 1046.26 -1.4563 1.41137 0
M  V30 10926 C 1046.6 -1.94189 0.0208428 0
M  V30 10927 O 1045.87 -1.69628 -0.951655 0
M  V30 10928 C 1046.15 -2.66714 2.41941 0
M  V30 10929 C 1046.01 -2.23912 3.90107 0
M  V30 10930 C 1047.33 -3.68913 2.39981 0
M  V30 10931 H 1044.44 -0.52821 0.513968 0
M  V30 10932 H 1047.09 -0.790437 1.72778 0
M  V30 10933 H 1045.24 -3.23525 2.1509 0
M  V30 10934 H 1046.91 -1.72417 4.27867 0
M  V30 10935 H 1045.15 -1.5568 4.04903 0
M  V30 10936 H 1045.82 -3.108 4.56188 0
M  V30 10937 H 1048.3 -3.21779 2.63813 0
M  V30 10938 H 1047.17 -4.51242 3.12524 0
M  V30 10939 H 1047.44 -4.18711 1.41892 0
M  V30 10940 N 1046.49 -1.27344 -0.928501 0
M  V30 10941 C 1047.91 -1.04732 -1.2043 0
M  V30 10942 C 1048.11 0.219623 -2.003 0
M  V30 10943 O 1047.17 0.925333 -2.34934 0
M  V30 10944 C 1048.48 -2.28625 -1.95323 0
M  V30 10945 C 1050.03 -2.33655 -2.08265 0
M  V30 10946 C 1050.5 -3.57275 -2.86563 0
M  V30 10947 N 1051.99 -3.57828 -2.94132 0
M  V30 10948 C 1052.73 -4.50152 -3.55177 0
M  V30 10949 N 1052.22 -5.52779 -4.17621 0
M  V30 10950 N 1054.02 -4.37777 -3.52573 0
M  V30 10951 H 1046.17 -2.08697 -0.394892 0
M  V30 10952 H 1048.43 -0.91782 -0.2373 0
M  V30 10953 H 1048.14 -3.20845 -1.44054 0
M  V30 10954 H 1048.01 -2.33878 -2.95941 0
M  V30 10955 H 1050.4 -1.41942 -2.58721 0
M  V30 10956 H 1050.48 -2.32406 -1.0687 0
M  V30 10957 H 1050.12 -4.49325 -2.3679 0
M  V30 10958 H 1050.05 -3.55775 -3.88242 0
M  V30 10959 H 1052.54 -2.83607 -2.49751 0
M  V30 10960 H 1052.86 -6.19394 -4.62137 0
M  V30 10961 H 1051.2 -5.56622 -4.16169 0
M  V30 10962 H 1054.39 -3.56811 -3.02991 0
M  V30 10963 H 1054.57 -5.09919 -3.99858 0
M  V30 10964 N 1047.97 1.13488 -1.09353 0
M  V30 10965 C 1049.22 1.841 -0.82401 0
M  V30 10966 C 1049.53 1.84393 0.652586 0
M  V30 10967 O 1050.74 2.5089 1.03762 0
M  V30 10968 C 1049.2 3.30523 -1.42418 0
M  V30 10969 C 1048.8 3.38621 -2.93326 0
M  V30 10970 C 1050.55 4.06182 -1.23356 0
M  V30 10971 C 1048.46 4.79311 -3.46432 0
M  V30 10972 H 1047.39 0.68974 -0.304589 0
M  V30 10973 H 1050.04 1.27866 -1.31615 0
M  V30 10974 H 1048.42 3.86555 -0.859727 0
M  V30 10975 H 1049.59 2.92587 -3.5599 0
M  V30 10976 H 1047.91 2.76426 -3.11412 0
M  V30 10977 H 1050.5 5.10047 -1.60488 0
M  V30 10978 H 1050.85 4.15936 -0.174152 0
M  V30 10979 H 1051.38 3.56477 -1.76547 0
M  V30 10980 H 1048.12 4.74748 -4.5199 0
M  V30 10981 H 1047.64 5.25842 -2.8853 0
M  V30 10982 H 1049.32 5.48227 -3.43593 0
M  V30 10983 N 1049.45 0.880621 1.30701 0
M  V30 10984 C 1050.38 0.288813 2.26365 0
M  V30 10985 C 1051.36 -0.588135 1.51591 0
M  V30 10986 O 1052.55 -0.539197 1.80624 0
M  V30 10987 C 1049.67 -0.590032 3.33521 0
M  V30 10988 C 1048.72 0.217003 4.25948 0
M  V30 10989 S 1049.55 1.60246 5.10961 0
M  V30 10990 C 1050.71 0.730023 6.21628 0
M  V30 10991 H 1050.94 1.09971 2.76213 0
M  V30 10992 H 1048.47 0.67978 1.3863 0
M  V30 10993 H 1050.43 -1.09136 3.95727 0
M  V30 10994 H 1049.09 -1.37498 2.82406 0
M  V30 10995 H 1048.29 -0.453481 5.01956 0
M  V30 10996 H 1047.89 0.650803 3.68294 0
M  V30 10997 H 1050.18 -0.0548644 6.77478 0
M  V30 10998 H 1051.12 1.46157 6.92852 0
M  V30 10999 H 1051.53 0.292854 5.6374 0
M  V30 11000 N 1050.93 -1.4397 0.641131 0
M  V30 11001 C 1052.35 -1.56607 0.30762 0
M  V30 11002 C 1052.55 -1.62694 -1.18882 0
M  V30 11003 O 1051.6 -1.57541 -1.97325 0
M  V30 11004 C 1052.91 -2.83289 1.00834 0
M  V30 11005 C 1054.46 -2.97016 0.98744 0
M  V30 11006 C 1054.94 -4.26514 1.66882 0
M  V30 11007 N 1056.43 -4.33351 1.63589 0
M  V30 11008 C 1057.16 -5.32292 2.13196 0
M  V30 11009 N 1056.66 -6.37582 2.71038 0
M  V30 11010 N 1058.45 -5.23866 2.03766 0
M  V30 11011 H 1050.6 -1.38262 1.61237 0
M  V30 11012 H 1052.87 -0.663221 0.677378 0
M  V30 11013 H 1052.57 -2.84812 2.06337 0
M  V30 11014 H 1052.45 -3.73134 0.552333 0
M  V30 11015 H 1054.83 -2.95041 -0.0591395 0
M  V30 11016 H 1054.91 -2.08493 1.48203 0
M  V30 11017 H 1054.56 -4.2925 2.71491 0
M  V30 11018 H 1054.49 -5.13912 1.14898 0
M  V30 11019 H 1056.98 -3.5788 1.21368 0
M  V30 11020 H 1057.29 -7.09378 3.06597 0
M  V30 11021 H 1055.64 -6.38239 2.75093 0
M  V30 11022 H 1058.83 -4.40524 1.58291 0
M  V30 11023 H 1059 -6.00819 2.42737 0
M  V30 11024 N 1052.41 -0.382291 -1.52893 0
M  V30 11025 C 1053.65 0.202433 -2.01787 0
M  V30 11026 C 1053.99 1.47044 -1.26853 0
M  V30 11027 O 1053.26 1.91007 -0.366969 0
M  V30 11028 C 1053.54 0.477471 -3.5692 0
M  V30 11029 C 1053.4 -0.805339 -4.42532 0
M  V30 11030 C 1054.72 1.27106 -4.21346 0
M  V30 11031 H 1051.84 0.0720998 -0.733465 0
M  V30 11032 H 1054.48 -0.510478 -1.83014 0
M  V30 11033 H 1052.63 1.08478 -3.73048 0
M  V30 11034 H 1054.3 -1.4424 -4.3817 0
M  V30 11035 H 1052.54 -1.42216 -4.09826 0
M  V30 11036 H 1053.21 -0.567635 -5.49074 0
M  V30 11037 H 1055.69 0.757161 -4.09153 0
M  V30 11038 H 1054.57 1.43225 -5.29885 0
M  V30 11039 H 1054.83 2.28431 -3.78513 0
M  V30 11040 N 1053.89 1.57202 -0.111913 0
M  V30 11041 C 1054.8 2.18475 0.854753 0
M  V30 11042 C 1055.81 1.15888 1.29792 0
M  V30 11043 O 1056.99 1.48329 1.36237 0
M  V30 11044 C 1054.05 2.76645 2.0897 0
M  V30 11045 C 1053.11 3.94244 1.69913 0
M  V30 11046 C 1052.35 4.49631 2.8752 0
M  V30 11047 O 1052.57 4.03926 4.02741 0
M  V30 11048 O 1051.5 5.40417 2.65015 0
M  V30 11049 H 1055.33 3.01519 0.363352 0
M  V30 11050 H 1052.91 1.4897 0.113329 0
M  V30 11051 H 1054.8 3.13755 2.81311 0
M  V30 11052 H 1053.47 1.96637 2.5713 0
M  V30 11053 H 1052.38 3.61915 0.947013 0
M  V30 11054 H 1053.71 4.75666 1.26501 0
M  V30 11055 N 1055.36 -0.161842 1.56767 0
M  V30 11056 C 1056.61 -0.876925 1.82527 0
M  V30 11057 C 1056.94 -1.81831 0.690492 0
M  V30 11058 O 1056.19 -1.9304 -0.32159 0
M  V30 11059 C 1056.49 -1.69736 3.14522 0
M  V30 11060 C 1056.16 -0.904075 4.41743 0
M  V30 11061 C 1054.82 -0.685168 4.76297 0
M  V30 11062 C 1057.17 -0.348282 5.20035 0
M  V30 11063 C 1054.5 0.10048 5.86614 0
M  V30 11064 C 1056.85 0.424327 6.31175 0
M  V30 11065 C 1055.52 0.653948 6.64289 0
M  V30 11066 H 1054.79 -0.320889 0.667915 0
M  V30 11067 H 1057.43 -0.141338 1.90978 0
M  V30 11068 H 1055.74 -2.50262 3.01456 0
M  V30 11069 H 1057.44 -2.25386 3.31666 0
M  V30 11070 H 1054.03 -1.08474 4.14646 0
M  V30 11071 H 1058.21 -0.504721 4.93727 0
M  V30 11072 H 1053.47 0.288029 6.10721 0
M  V30 11073 H 1057.64 0.862203 6.91042 0
M  V30 11074 H 1055.27 1.26459 7.49608 0
M  V30 11075 N 1056.84 -1.516 -0.430713 0
M  V30 11076 C 1058.07 -1.68169 -1.20011 0
M  V30 11077 C 1058.48 -0.381406 -1.85316 0
M  V30 11078 O 1057.82 0.6506 -1.71793 0
M  V30 11079 C 1057.88 -2.7454 -2.32095 0
M  V30 11080 C 1057.55 -4.16942 -1.87104 0
M  V30 11081 C 1058.55 -5.01503 -1.37078 0
M  V30 11082 C 1056.23 -4.63075 -1.94594 0
M  V30 11083 C 1058.22 -6.3026 -0.951362 0
M  V30 11084 C 1055.91 -5.91827 -1.52264 0
M  V30 11085 C 1056.91 -6.75247 -1.02618 0
M  V30 11086 O 1056.6 -8.01591 -0.608905 0
M  V30 11087 H 1056.33 -0.567361 -0.367528 0
M  V30 11088 H 1058.88 -1.98819 -0.515759 0
M  V30 11089 H 1057.11 -2.39219 -3.03828 0
M  V30 11090 H 1058.8 -2.79921 -2.93937 0
M  V30 11091 H 1059.57 -4.67063 -1.30681 0
M  V30 11092 H 1055.45 -3.98262 -2.32182 0
M  V30 11093 H 1058.99 -6.95323 -0.563163 0
M  V30 11094 H 1054.89 -6.2578 -1.58333 0
M  V30 11095 H 1055.66 -8.15201 -0.73416 0
M  V30 11096 N 1058.32 0.686584 -1.41858 0
M  V30 11097 C 1059.57 1.44665 -1.41698 0
M  V30 11098 C 1059.89 1.94478 -0.0292442 0
M  V30 11099 O 1059.15 1.70512 0.960421 0
M  V30 11100 C 1059.45 2.66793 -2.37816 0
M  V30 11101 C 1059.11 2.35587 -3.8446 0
M  V30 11102 C 1057.78 2.26788 -4.24406 0
M  V30 11103 C 1060.13 2.10028 -4.77009 0
M  V30 11104 C 1057.46 1.90538 -5.54898 0
M  V30 11105 C 1059.81 1.75285 -6.07831 0
M  V30 11106 C 1058.47 1.64987 -6.46789 0
M  V30 11107 H 1057.74 0.529367 -0.518509 0
M  V30 11108 H 1060.39 0.783938 -1.74719 0
M  V30 11109 H 1058.69 3.38041 -1.9808 0
M  V30 11110 H 1060.39 3.24953 -2.34961 0
M  V30 11111 H 1056.98 2.43334 -3.52826 0
M  V30 11112 H 1061.17 2.15766 -4.46944 0
M  V30 11113 H 1056.42 1.81125 -5.83955 0
M  V30 11114 H 1060.6 1.5453 -6.79039 0
M  V30 11115 H 1058.22 1.36667 -7.47814 0
M  V30 11116 N 1059.8 1.27835 0.921735 0
M  V30 11117 C 1060.73 1.136 2.04003 0
M  V30 11118 C 1061.71 0.0358756 1.70062 0
M  V30 11119 O 1062.89 0.211438 1.93046 0
M  V30 11120 C 1060.02 0.788697 3.38226 0
M  V30 11121 C 1058.98 1.84272 3.863 0
M  V30 11122 C 1058.3 1.34923 5.17397 0
M  V30 11123 C 1059.6 3.24788 4.09035 0
M  V30 11124 H 1061.3 2.07149 2.1617 0
M  V30 11125 H 1058.84 0.997349 1.0387 0
M  V30 11126 H 1060.8 0.675911 4.15944 0
M  V30 11127 H 1059.52 -0.182499 3.2609 0
M  V30 11128 H 1058.18 1.94451 3.1078 0
M  V30 11129 H 1057.83 0.367328 5.01657 0
M  V30 11130 H 1057.53 2.05397 5.50532 0
M  V30 11131 H 1059.05 1.24951 5.97678 0
M  V30 11132 H 1060.47 3.17575 4.77304 0
M  V30 11133 H 1058.86 3.93025 4.53488 0
M  V30 11134 H 1059.93 3.69398 3.14122 0
M  V30 11135 N 1061.28 -1.12907 1.09954 0
M  V30 11136 C 1062.5 -1.88679 0.861099 0
M  V30 11137 C 1062.93 -1.78853 -0.582499 0
M  V30 11138 O 1062.28 -1.13992 -1.4098 0
M  V30 11139 C 1062.33 -3.36047 1.30785 0
M  V30 11140 O 1061.44 -4.09716 0.469728 0
M  V30 11141 H 1060.78 -0.586447 0.31141 0
M  V30 11142 H 1063.31 -1.42818 1.46507 0
M  V30 11143 H 1063.32 -3.86882 1.29562 0
M  V30 11144 H 1061.99 -3.42516 2.35914 0
M  V30 11145 H 1060.57 -3.6887 0.54674 0
M  V30 11146 N 1062.75 -0.88754 -1.30232 0
M  V30 11147 C 1063.69 -0.313488 -2.27046 0
M  V30 11148 C 1064.7 0.533383 -1.53814 0
M  V30 11149 O 1065.89 0.352516 -1.74984 0
M  V30 11150 C 1062.99 0.572674 -3.34026 0
M  V30 11151 C 1062.16 -0.245712 -4.36709 0
M  V30 11152 C 1061.22 0.57135 -5.23089 0
M  V30 11153 O 1060.25 -0.00685948 -5.692 0
M  V30 11154 N 1061.45 1.87994 -5.49216 0
M  V30 11155 H 1064.21 -1.14553 -2.76943 0
M  V30 11156 H 1061.77 -0.750785 -1.43439 0
M  V30 11157 H 1063.77 1.12539 -3.88738 0
M  V30 11158 H 1062.34 1.3054 -2.84039 0
M  V30 11159 H 1061.56 -0.979869 -3.81827 0
M  V30 11160 H 1062.84 -0.806618 -5.02366 0
M  V30 11161 H 1062.24 2.3726 -5.13541 0
M  V30 11162 H 1060.8 2.38005 -6.06792 0
M  V30 11163 N 1064.23 1.43628 -0.648757 0
M  V30 11164 C 1065.46 2.05918 -0.167701 0
M  V30 11165 C 1065.87 1.48681 1.17006 0
M  V30 11166 O 1065.21 0.610984 1.73242 0
M  V30 11167 C 1065.28 3.595 0.00265514 0
M  V30 11168 C 1064.94 4.39295 -1.2597 0
M  V30 11169 C 1065.94 4.71643 -2.18743 0
M  V30 11170 C 1063.62 4.79379 -1.50004 0
M  V30 11171 C 1065.62 5.42978 -3.33846 0
M  V30 11172 C 1063.3 5.50459 -2.65401 0
M  V30 11173 C 1064.3 5.82181 -3.57148 0
M  V30 11174 O 1063.99 6.5181 -4.7053 0
M  V30 11175 H 1063.72 0.670619 -0.0851261 0
M  V30 11176 H 1066.27 1.85196 -0.888351 0
M  V30 11177 H 1064.5 3.7878 0.77863 0
M  V30 11178 H 1066.19 4.03503 0.440501 0
M  V30 11179 H 1066.96 4.41199 -2.01416 0
M  V30 11180 H 1062.84 4.54098 -0.794745 0
M  V30 11181 H 1066.38 5.67656 -4.05479 0
M  V30 11182 H 1062.28 5.8032 -2.82664 0
M  V30 11183 H 1063.05 6.7029 -4.69738 0
M  V30 11184 N 1065.71 0.390394 1.52688 0
M  V30 11185 C 1066.96 -0.191729 2.01892 0
M  V30 11186 C 1067.29 -1.4637 1.27631 0
M  V30 11187 O 1066.56 -1.90809 0.377094 0
M  V30 11188 C 1066.85 -0.458535 3.57169 0
M  V30 11189 C 1066.7 0.828796 4.42098 0
M  V30 11190 C 1068.02 -1.2487 4.22014 0
M  V30 11191 H 1065.14 -0.0682091 0.733837 0
M  V30 11192 H 1067.78 0.520176 1.82741 0
M  V30 11193 H 1065.93 -1.06498 3.73618 0
M  V30 11194 H 1067.6 1.46562 4.37398 0
M  V30 11195 H 1065.85 1.44388 4.09066 0
M  V30 11196 H 1066.52 0.596746 5.48765 0
M  V30 11197 H 1068.99 -0.735452 4.09549 0
M  V30 11198 H 1067.87 -1.40412 5.30637 0
M  V30 11199 H 1068.13 -2.2642 3.79719 0
M  V30 11200 N 1067.19 -1.57141 0.120249 0
M  V30 11201 C 1068.41 -2.00017 -0.548454 0
M  V30 11202 C 1068.84 -0.999433 -1.59352 0
M  V30 11203 O 1068.2 0.0286978 -1.81277 0
M  V30 11204 C 1068.24 -3.41766 -1.15015 0
M  V30 11205 O 1067.35 -3.44589 -2.26566 0
M  V30 11206 H 1066.69 -0.649739 -0.136875 0
M  V30 11207 H 1069.22 -2.03529 0.209092 0
M  V30 11208 H 1069.23 -3.80001 -1.48537 0
M  V30 11209 H 1067.9 -4.14117 -0.384681 0
M  V30 11210 H 1066.48 -3.18174 -1.94473 0
M  V30 11211 N 1068.67 0.153526 -1.5685 0
M  V30 11212 C 1070.08 0.714247 -1.72498 0
M  V30 11213 C 1070.43 1.81968 -0.733621 0
M  V30 11214 O 1069.55 2.16163 0.10118 0
M  V30 11215 C 1070.15 1.30238 -3.12767 0
M  V30 11216 C 1068.71 1.80974 -3.30038 0
M  V30 11217 C 1067.85 0.695638 -2.68433 0
M  V30 11218 H 1070.81 -0.0720733 -1.58536 0
M  V30 11219 H 1070.83 2.17217 -3.12405 0
M  V30 11220 H 1070.34 0.497605 -3.84897 0
M  V30 11221 H 1068.44 2.64039 -2.62895 0
M  V30 11222 H 1068.55 1.94294 -4.37934 0
M  V30 11223 H 1066.92 1.12061 -2.28723 0
M  V30 11224 H 1067.7 -0.0975885 -3.43161 0
M  V30 11225 N 1070.14 1.51827 0.422667 0
M  V30 11226 C 1071.11 1.7359 1.49663 0
M  V30 11227 C 1072.11 0.605811 1.48952 0
M  V30 11228 O 1073.3 0.87354 1.50715 0
M  V30 11229 C 1070.43 1.80585 2.8914 0
M  V30 11230 H 1071.62 2.69453 1.31664 0
M  V30 11231 H 1069.18 1.42038 0.652298 0
M  V30 11232 H 1069.91 0.865895 3.12526 0
M  V30 11233 H 1069.7 2.62729 2.9106 0
M  V30 11234 H 1071.19 1.99212 3.67021 0
M  V30 11235 N 1071.62 -0.679052 1.4222 0
M  V30 11236 C 1072.9 -1.43473 1.32947 0
M  V30 11237 C 1073.28 -2.11071 -0.0351689 0
M  V30 11238 O 1072.63 -2.02925 -1.05042 0
M  V30 11239 C 1072.84 -2.44065 2.49466 0
M  V30 11240 C 1074.19 -3.08834 2.91387 0
M  V30 11241 O 1075.21 -2.54392 2.49325 0
M  V30 11242 O 1074.07 -4.07478 3.64175 0
M  V30 11243 H 1071.16 -0.639743 0.524078 0
M  V30 11244 H 1073.71 -0.708134 1.54219 0
M  V30 11245 H 1072.48 -1.92884 3.40457 0
M  V30 11246 H 1072.1 -3.24212 2.30158 0
M  V30 11247 N 1073.1 -1.28322 -0.914942 0
M  V30 11248 C 1074.33 -1.1837 -1.70304 0
M  V30 11249 C 1074.75 0.254291 -1.86373 0
M  V30 11250 O 1074.11 1.18398 -1.37301 0
M  V30 11251 C 1074.16 -1.88603 -3.07346 0
M  V30 11252 O 1073.26 -1.19268 -3.94777 0
M  V30 11253 H 1072.6 -0.410978 -0.52153 0
M  V30 11254 H 1075.13 -1.69622 -1.14409 0
M  V30 11255 H 1075.14 -1.96463 -3.57584 0
M  V30 11256 H 1073.82 -2.93201 -2.94967 0
M  V30 11257 H 1072.39 -1.19563 -3.53212 0
M  V30 11258 N 1074.58 1.12322 -1.10551 0
M  V30 11259 C 1075.99 1.6539 -0.8662 0
M  V30 11260 C 1076.34 1.86695 0.603284 0
M  V30 11261 O 1075.47 1.59432 1.46323 0
M  V30 11262 C 1076.06 3.00443 -1.56587 0
M  V30 11263 C 1074.62 3.50456 -1.37323 0
M  V30 11264 C 1073.77 2.25454 -1.61449 0
M  V30 11265 H 1076.72 0.960866 -1.26305 0
M  V30 11266 H 1076.74 3.66972 -1.00557 0
M  V30 11267 H 1076.25 2.84905 -2.63535 0
M  V30 11268 H 1074.35 3.71176 -0.325431 0
M  V30 11269 H 1074.46 4.29839 -2.11601 0
M  V30 11270 H 1072.83 2.32621 -1.03729 0
M  V30 11271 H 1073.61 2.12469 -2.69651 0
M  V30 11272 N 1076.06 0.894434 1.2976 0
M  V30 11273 C 1077.3 0.517669 1.95771 0
M  V30 11274 C 1077.63 -0.935028 1.70551 0
M  V30 11275 O 1076.89 -1.67722 1.00835 0
M  V30 11276 C 1077.19 0.750307 3.49435 0
M  V30 11277 C 1076.85 2.17955 3.94723 0
M  V30 11278 C 1075.51 2.57036 4.068 0
M  V30 11279 C 1077.87 3.11053 4.18205 0
M  V30 11280 C 1075.19 3.88406 4.39724 0
M  V30 11281 C 1077.55 4.41966 4.52602 0
M  V30 11282 C 1076.21 4.80927 4.62888 0
M  V30 11283 H 1075.48 0.189428 0.716378 0
M  V30 11284 H 1078.13 1.13209 1.54454 0
M  V30 11285 H 1076.43 0.0529242 3.91764 0
M  V30 11286 H 1078.13 0.438251 3.98598 0
M  V30 11287 H 1074.72 1.86622 3.85837 0
M  V30 11288 H 1078.9 2.82076 4.08347 0
M  V30 11289 H 1074.16 4.18321 4.4589 0
M  V30 11290 H 1078.33 5.14134 4.69722 0
M  V30 11291 H 1075.96 5.82759 4.88156 0
M  V30 11292 N 1077.53 -1.43282 0.656365 0
M  V30 11293 C 1078.95 -1.56272 0.324213 0
M  V30 11294 C 1079.15 -1.63946 -1.1715 0
M  V30 11295 O 1078.21 -1.59625 -1.95643 0
M  V30 11296 C 1079.52 -2.82204 1.03833 0
M  V30 11297 C 1081.07 -2.95952 1.01889 0
M  V30 11298 C 1081.54 -4.2472 1.71397 0
M  V30 11299 N 1083.03 -4.31591 1.68176 0
M  V30 11300 C 1083.77 -5.30001 2.1883 0
M  V30 11301 N 1083.26 -6.34671 2.77785 0
M  V30 11302 N 1085.06 -5.21676 2.09311 0
M  V30 11303 H 1077.21 -1.36544 1.62694 0
M  V30 11304 H 1079.47 -0.655999 0.684375 0
M  V30 11305 H 1079.18 -2.82608 2.09346 0
M  V30 11306 H 1079.05 -3.72527 0.591878 0
M  V30 11307 H 1081.44 -2.95087 -0.0278431 0
M  V30 11308 H 1081.52 -2.0691 1.50406 0
M  V30 11309 H 1081.16 -4.26346 2.76028 0
M  V30 11310 H 1081.09 -5.12665 1.20342 0
M  V30 11311 H 1083.58 -3.56573 1.25157 0
M  V30 11312 H 1083.9 -7.06087 3.14104 0
M  V30 11313 H 1082.24 -6.35285 2.81847 0
M  V30 11314 H 1085.43 -4.3882 1.62955 0
M  V30 11315 H 1085.61 -5.9821 2.49095 0
M  V30 11316 N 1079.01 -0.398486 -1.52479 0
M  V30 11317 C 1079.96 0.449343 -2.23528 0
M  V30 11318 C 1080.95 1.02218 -1.24259 0
M  V30 11319 O 1082.14 0.946757 -1.49551 0
M  V30 11320 C 1079.27 1.5712 -3.05235 0
M  V30 11321 C 1078.35 1.00966 -4.11906 0
M  V30 11322 N 1078.75 0.173855 -5.05501 0
M  V30 11323 C 1077.04 1.28124 -4.272 0
M  V30 11324 C 1077.74 -0.137391 -5.81538 0
M  V30 11325 N 1076.72 0.468972 -5.41573 0
M  V30 11326 H 1080.52 -0.195654 -2.93248 0
M  V30 11327 H 1078.04 -0.208305 -1.61059 0
M  V30 11328 H 1080.03 2.19108 -3.54679 0
M  V30 11329 H 1078.69 2.21893 -2.37052 0
M  V30 11330 H 1079.7 -0.189618 -5.17553 0
M  V30 11331 H 1076.38 1.92933 -3.70247 0
M  V30 11332 H 1077.77 -0.815159 -6.66937 0
M  V30 11333 N 1080.49 1.57075 -0.12858 0
M  V30 11334 C 1081.74 1.94695 0.526952 0
M  V30 11335 C 1082.05 1.01482 1.67215 0
M  V30 11336 O 1083.26 1.28606 2.39108 0
M  V30 11337 C 1081.72 3.4605 0.988801 0
M  V30 11338 C 1081.32 4.47816 -0.128457 0
M  V30 11339 C 1083.07 3.92572 1.61517 0
M  V30 11340 C 1080.97 5.9036 0.350628 0
M  V30 11341 H 1079.9 0.726819 0.200623 0
M  V30 11342 H 1082.56 1.82295 -0.209972 0
M  V30 11343 H 1080.94 3.53718 1.78043 0
M  V30 11344 H 1082.11 4.51826 -0.904976 0
M  V30 11345 H 1080.43 4.11103 -0.662075 0
M  V30 11346 H 1083.02 4.96493 1.98491 0
M  V30 11347 H 1083.37 3.33085 2.49721 0
M  V30 11348 H 1083.9 3.87744 0.888768 0
M  V30 11349 H 1080.64 6.53624 -0.495592 0
M  V30 11350 H 1080.16 5.89749 1.09342 0
M  V30 11351 H 1081.84 6.41926 0.808717 0
M  V30 11352 N 1081.97 -0.145205 1.5693 0
M  V30 11353 C 1083.22 -0.857516 1.83447 0
M  V30 11354 C 1083.54 -1.81088 0.709739 0
M  V30 11355 O 1082.8 -1.9337 -0.301097 0
M  V30 11356 C 1083.1 -1.66391 3.16305 0
M  V30 11357 C 1082.76 -0.857171 4.42678 0
M  V30 11358 C 1081.43 -0.634611 4.76997 0
M  V30 11359 C 1083.78 -0.293105 5.20375 0
M  V30 11360 C 1081.11 0.162693 5.86474 0
M  V30 11361 C 1083.46 0.491248 6.3069 0
M  V30 11362 C 1082.12 0.724368 6.63558 0
M  V30 11363 H 1081.39 -0.313787 0.671281 0
M  V30 11364 H 1084.04 -0.121074 1.91117 0
M  V30 11365 H 1082.34 -2.47051 3.04094 0
M  V30 11366 H 1084.04 -2.21855 3.34038 0
M  V30 11367 H 1080.63 -1.0407 4.15773 0
M  V30 11368 H 1084.82 -0.452326 4.94234 0
M  V30 11369 H 1080.07 0.352788 6.10381 0
M  V30 11370 H 1084.25 0.935449 6.90089 0
M  V30 11371 H 1081.87 1.34403 7.48224 0
M  V30 11372 N 1083.45 -1.52049 -0.414609 0
M  V30 11373 C 1084.38 -1.69712 -1.52555 0
M  V30 11374 C 1085.36 -0.544681 -1.53206 0
M  V30 11375 O 1086.54 -0.771358 -1.71995 0
M  V30 11376 C 1083.67 -1.73145 -2.91099 0
M  V30 11377 C 1082.72 -2.94624 -3.08382 0
M  V30 11378 S 1083.55 -4.55062 -2.82274 0
M  V30 11379 C 1084.7 -4.61274 -4.23057 0
M  V30 11380 H 1084.94 -2.63675 -1.37342 0
M  V30 11381 H 1082.47 -1.42018 -0.605824 0
M  V30 11382 H 1084.43 -1.75808 -3.70947 0
M  V30 11383 H 1083.09 -0.803198 -3.03657 0
M  V30 11384 H 1082.28 -2.93492 -4.0973 0
M  V30 11385 H 1081.88 -2.8982 -2.36391 0
M  V30 11386 H 1084.18 -4.38313 -5.16612 0
M  V30 11387 H 1085.12 -5.63188 -4.29214 0
M  V30 11388 H 1085.53 -3.90361 -4.07773 0
M  V30 11389 N 1084.93 0.6715 -1.42579 0
M  V30 11390 C 1086.17 1.42871 -1.42941 0
M  V30 11391 C 1086.49 1.94941 -0.0480483 0
M  V30 11392 O 1085.76 1.73275 0.913921 0
M  V30 11393 H 1084.34 0.530189 -0.526221 0
M  V30 11394 H 1087.01 0.793219 -1.78028 0
M  V30 11395 H 1086.1 2.2801 -2.13114 0
M  V30 11396 N 1086.4 1.28806 0.908124 0
M  V30 11397 C 1087.82 1.06634 1.18749 0
M  V30 11398 C 1088.02 -0.187729 2.00624 0
M  V30 11399 O 1087.08 -0.88784 2.36376 0
M  V30 11400 C 1088.39 2.31703 1.91661 0
M  V30 11401 C 1089.94 2.36939 2.04521 0
M  V30 11402 C 1090.41 3.61789 2.80843 0
M  V30 11403 N 1091.9 3.62462 2.88402 0
M  V30 11404 C 1092.64 4.55746 3.47971 0
M  V30 11405 N 1092.13 5.59353 4.08774 0
M  V30 11406 N 1093.93 4.43331 3.45564 0
M  V30 11407 H 1086.08 2.09299 0.36164 0
M  V30 11408 H 1088.34 0.921479 0.222668 0
M  V30 11409 H 1088.05 3.23096 1.38931 0
M  V30 11410 H 1087.92 2.38556 2.92183 0
M  V30 11411 H 1090.31 1.4604 2.5643 0
M  V30 11412 H 1090.39 2.34077 1.03159 0
M  V30 11413 H 1090.03 4.53035 2.29612 0
M  V30 11414 H 1089.96 3.61907 3.82532 0
M  V30 11415 H 1092.45 2.87544 2.45208 0
M  V30 11416 H 1092.77 6.26668 4.52224 0
M  V30 11417 H 1091.11 5.63173 4.07261 0
M  V30 11418 H 1094.3 3.61587 2.97276 0
M  V30 11419 H 1094.48 5.16216 3.91695 0
M  V30 11420 N 1087.88 -1.11734 1.11145 0
M  V30 11421 C 1089.13 -1.83043 0.856717 0
M  V30 11422 C 1089.45 -1.84901 -0.619407 0
M  V30 11423 O 1088.72 -1.31738 -1.44989 0
M  V30 11424 H 1087.3 -0.677823 0.31395 0
M  V30 11425 H 1089.96 -1.35262 1.40322 0
M  V30 11426 H 1089.06 -2.87005 1.22616 0
M  V30 11427 N 1089.36 -0.901303 -1.29284 0
M  V30 11428 C 1090.64 -0.44747 -1.90413 0
M  V30 11429 C 1091.02 1.07298 -1.81797 0
M  V30 11430 O 1090.36 1.91555 -1.24574 0
M  V30 11431 C 1090.57 -0.963849 -3.35427 0
M  V30 11432 C 1091.92 -1.00851 -4.12449 0
M  V30 11433 O 1092.95 -0.91163 -3.44337 0
M  V30 11434 O 1091.81 -1.15426 -5.34171 0
M  V30 11435 H 1088.9 -0.13976 -0.815105 0
M  V30 11436 H 1091.45 -0.991274 -1.37738 0
M  V30 11437 H 1090.22 -2.00782 -3.3586 0
M  V30 11438 H 1089.84 -0.400149 -3.95581 0
M  V30 11439 N 1090.84 1.42931 -0.663954 0
M  V30 11440 C 1091.79 2.27958 0.0436184 0
M  V30 11441 C 1092.77 1.40493 0.784258 0
M  V30 11442 O 1093.96 1.64035 0.664956 0
M  V30 11443 C 1091.09 3.28357 1.00183 0
M  V30 11444 C 1090.18 4.23308 0.259099 0
M  V30 11445 N 1090.57 5.00502 -0.730182 0
M  V30 11446 C 1088.87 4.43199 0.499061 0
M  V30 11447 C 1089.57 5.69771 -1.17201 0
M  V30 11448 N 1088.54 5.41258 -0.504105 0
M  V30 11449 H 1092.35 2.85061 -0.715348 0
M  V30 11450 H 1089.86 1.54764 -0.492117 0
M  V30 11451 H 1091.86 3.88061 1.52362 0
M  V30 11452 H 1090.52 2.72815 1.76074 0
M  V30 11453 H 1091.53 5.0588 -1.10932 0
M  V30 11454 H 1088.21 3.98713 1.23831 0
M  V30 11455 H 1089.6 6.41718 -1.99117 0
M  V30 11456 N 1092.32 0.406567 1.52266 0
M  V30 11457 C 1093.54 -0.169624 2.06204 0
M  V30 11458 C 1093.96 -1.39076 1.27684 0
M  V30 11459 O 1093.32 -1.79528 0.328023 0
M  V30 11460 C 1093.37 -0.522611 3.57702 0
M  V30 11461 O 1093.09 0.650028 4.33251 0
M  V30 11462 C 1094.59 -1.15281 4.28048 0
M  V30 11463 H 1091.81 -0.0215191 0.670655 0
M  V30 11464 H 1094.35 0.576781 1.96198 0
M  V30 11465 H 1092.51 -1.21891 3.67725 0
M  V30 11466 H 1092.92 0.355989 5.23291 0
M  V30 11467 H 1094.4 -1.35002 5.35237 0
M  V30 11468 H 1094.87 -2.12517 3.84361 0
M  V30 11469 H 1095.48 -0.496786 4.22389 0
M  V30 11470 N 1093.79 -1.57004 0.136909 0
M  V30 11471 C 1094.72 -2.19262 -0.802902 0
M  V30 11472 C 1095.71 -1.13786 -1.26439 0
M  V30 11473 O 1096.89 -1.42091 -1.32377 0
M  V30 11474 C 1094.02 -2.80624 -2.04615 0
M  V30 11475 C 1092.97 -3.91839 -1.72181 0
M  V30 11476 C 1092.3 -4.4009 -3.03686 0
M  V30 11477 C 1093.6 -5.13095 -0.976249 0
M  V30 11478 H 1095.29 -2.98049 -0.28406 0
M  V30 11479 H 1092.84 -1.43364 -0.135189 0
M  V30 11480 H 1094.79 -3.22842 -2.70834 0
M  V30 11481 H 1093.52 -1.99153 -2.58855 0
M  V30 11482 H 1092.18 -3.50224 -1.08344 0
M  V30 11483 H 1091.82 -3.55454 -3.55896 0
M  V30 11484 H 1091.52 -5.15098 -2.82751 0
M  V30 11485 H 1093.05 -4.84971 -3.70993 0
M  V30 11486 H 1094.46 -5.5222 -1.54033 0
M  V30 11487 H 1092.86 -5.93801 -0.867214 0
M  V30 11488 H 1093.93 -4.84888 0.0338488 0
M  V30 11489 N 1095.27 0.136881 -1.57004 0
M  V30 11490 C 1096.52 0.8461 -1.83536 0
M  V30 11491 C 1096.84 1.81246 -0.71937 0
M  V30 11492 O 1096.11 1.94191 0.258161 0
M  V30 11493 H 1094.69 0.315446 -0.677128 0
M  V30 11494 H 1097.35 0.128469 -1.94476 0
M  V30 11495 H 1096.45 1.40221 -2.78827 0
M  V30 11496 N 1096.75 1.52266 0.40654 0
M  V30 11497 C 1097.71 1.75168 1.47814 0
M  V30 11498 C 1098.71 0.621575 1.48301 0
M  V30 11499 O 1099.9 0.889476 1.4978 0
M  V30 11500 C 1097.04 1.83642 2.87208 0
M  V30 11501 H 1098.23 2.70834 1.28798 0
M  V30 11502 H 1095.78 1.42722 0.637196 0
M  V30 11503 H 1096.52 0.898994 3.1159 0
M  V30 11504 H 1096.3 2.65801 2.88257 0
M  V30 11505 H 1097.79 2.03093 3.64888 0
M  V30 11506 N 1098.23 -0.663929 1.42933 0
M  V30 11507 C 1099.16 -1.78899 1.50058 0
M  V30 11508 C 1100.14 -1.66329 0.356164 0
M  V30 11509 O 1101.32 -1.85587 0.571944 0
M  V30 11510 C 1098.45 -3.17265 1.41281 0
M  V30 11511 C 1097.41 -3.44584 2.53861 0
M  V30 11512 C 1096.73 -4.82638 2.3014 0
M  V30 11513 C 1098.03 -3.40394 3.96143 0
M  V30 11514 H 1099.73 -1.73194 2.44222 0
M  V30 11515 H 1097.27 -0.83182 1.17545 0
M  V30 11516 H 1099.23 -3.95715 1.44872 0
M  V30 11517 H 1097.95 -3.23675 0.43616 0
M  V30 11518 H 1096.61 -2.685 2.49606 0
M  V30 11519 H 1096.26 -4.85711 1.30743 0
M  V30 11520 H 1095.96 -5.01879 3.056 0
M  V30 11521 H 1097.48 -5.63359 2.35497 0
M  V30 11522 H 1098.9 -4.08796 4.01943 0
M  V30 11523 H 1097.29 -3.7117 4.71543 0
M  V30 11524 H 1098.36 -2.38767 4.22041 0
M  V30 11525 N 1099.71 -1.29285 -0.901281 0
M  V30 11526 C 1100.64 -1.16832 -2.0217 0
M  V30 11527 C 1101.62 -0.0629265 -1.69984 0
M  V30 11528 O 1102.8 -0.242123 -1.92685 0
M  V30 11529 C 1099.93 -0.842406 -3.36929 0
M  V30 11530 C 1098.89 -1.90394 -3.8332 0
M  V30 11531 C 1098.21 -1.43138 -5.15185 0
M  V30 11532 C 1099.51 -3.31254 -4.03817 0
M  V30 11533 H 1101.21 -2.10562 -2.12847 0
M  V30 11534 H 1098.75 -1.01375 -1.0227 0
M  V30 11535 H 1100.71 -0.741999 -4.14816 0
M  V30 11536 H 1099.43 0.130598 -3.26339 0
M  V30 11537 H 1098.09 -1.99371 -3.07647 0
M  V30 11538 H 1097.74 -0.447091 -5.01009 0
M  V30 11539 H 1097.44 -2.14129 -5.47195 0
M  V30 11540 H 1098.96 -1.34444 -5.95615 0
M  V30 11541 H 1100.37 -3.25129 -4.72191 0
M  V30 11542 H 1098.77 -4.00189 -4.47178 0
M  V30 11543 H 1099.84 -3.74349 -3.08206 0
M  V30 11544 N 1101.18 1.11143 -1.11736 0
M  V30 11545 C 1102.46 1.79384 -0.779785 0
M  V30 11546 C 1102.84 1.98015 0.731668 0
M  V30 11547 O 1102.19 1.56731 1.66276 0
M  V30 11548 C 1102.4 3.12868 -1.54643 0
M  V30 11549 C 1103.75 3.8786 -1.7277 0
M  V30 11550 O 1104.77 3.22566 -1.51094 0
M  V30 11551 O 1103.63 5.05034 -2.08813 0
M  V30 11552 H 1100.72 0.777128 -0.282845 0
M  V30 11553 H 1103.27 1.17858 -1.22096 0
M  V30 11554 H 1102.04 2.94682 -2.57446 0
M  V30 11555 H 1101.67 3.82109 -1.09901 0
M  V30 11556 N 1102.66 0.908147 1.28804 0
M  V30 11557 C 1103.61 0.363504 2.25084 0
M  V30 11558 C 1104.6 -0.52121 1.52224 0
M  V30 11559 O 1105.79 -0.361848 1.73262 0
M  V30 11560 C 1102.92 -0.400353 3.40958 0
M  V30 11561 C 1102 0.499761 4.21145 0
M  V30 11562 N 1102.39 1.61082 4.79464 0
M  V30 11563 C 1100.69 0.299108 4.44996 0
M  V30 11564 C 1101.39 2.16906 5.39747 0
M  V30 11565 N 1100.37 1.46103 5.23598 0
M  V30 11566 H 1104.17 1.21212 2.6774 0
M  V30 11567 H 1101.69 0.760159 1.43511 0
M  V30 11568 H 1103.68 -0.807343 4.09008 0
M  V30 11569 H 1102.34 -1.24613 2.99836 0
M  V30 11570 H 1103.35 1.99347 4.77997 0
M  V30 11571 H 1100.03 -0.507611 4.14403 0
M  V30 11572 H 1101.42 3.10338 5.95936 0
M  V30 11573 N 1104.14 -1.42577 0.671525 0
M  V30 11574 C 1105.07 -2.33499 0.00506984 0
M  V30 11575 C 1106.05 -1.50497 -0.792763 0
M  V30 11576 O 1107.24 -1.79109 -0.750574 0
M  V30 11577 C 1104.37 -3.34077 -0.949194 0
M  V30 11578 C 1103.32 -4.27208 -0.260187 0
M  V30 11579 C 1102.65 -5.17968 -1.32716 0
M  V30 11580 C 1103.95 -5.15192 0.858772 0
M  V30 11581 H 1105.64 -2.89477 0.764407 0
M  V30 11582 H 1103.19 -1.39191 0.369043 0
M  V30 11583 H 1105.14 -3.96594 -1.42448 0
M  V30 11584 H 1103.86 -2.76396 -1.73991 0
M  V30 11585 H 1102.52 -3.66082 0.194834 0
M  V30 11586 H 1102.17 -4.56615 -2.10979 0
M  V30 11587 H 1101.87 -5.81104 -0.871293 0
M  V30 11588 H 1103.39 -5.83359 -1.80345 0
M  V30 11589 H 1104.81 -5.71412 0.464844 0
M  V30 11590 H 1103.21 -5.87144 1.24023 0
M  V30 11591 H 1104.28 -4.53787 1.70895 0
M  V30 11592 N 1105.62 -0.414636 -1.52048 0
M  V30 11593 C 1107.03 -0.0657806 -1.59464 0
M  V30 11594 C 1107.23 1.4225 -1.42713 0
M  V30 11595 O 1106.29 2.18996 -1.25687 0
M  V30 11596 C 1107.6 -0.565618 -2.95332 0
M  V30 11597 C 1109.15 -0.524072 -3.08581 0
M  V30 11598 C 1109.63 -1.00051 -4.46938 0
M  V30 11599 N 1111.12 -0.957555 -4.53194 0
M  V30 11600 C 1111.85 -1.29733 -5.58531 0
M  V30 11601 N 1111.35 -1.70883 -6.71395 0
M  V30 11602 N 1113.14 -1.21694 -5.48769 0
M  V30 11603 H 1105.29 -1.38325 -1.61183 0
M  V30 11604 H 1107.56 -0.568593 -0.758556 0
M  V30 11605 H 1107.26 -1.60604 -3.12888 0
M  V30 11606 H 1107.14 0.0217735 -3.77194 0
M  V30 11607 H 1109.52 0.507319 -2.90707 0
M  V30 11608 H 1109.6 -1.14759 -2.28613 0
M  V30 11609 H 1109.25 -2.03025 -4.65557 0
M  V30 11610 H 1109.18 -0.353754 -5.2541 0
M  V30 11611 H 1111.67 -0.65508 -3.72179 0
M  V30 11612 H 1111.98 -1.95105 -7.47766 0
M  V30 11613 H 1110.33 -1.74791 -6.72661 0
M  V30 11614 H 1113.52 -0.894286 -4.59478 0
M  V30 11615 H 1113.69 -1.48504 -6.30754 0
M  V30 11616 N 1107.1 1.56929 -0.145233 0
M  V30 11617 C 1108.03 2.19685 0.791263 0
M  V30 11618 C 1109.01 1.14455 1.25833 0
M  V30 11619 O 1110.19 1.42791 1.31622 0
M  V30 11620 C 1107.32 2.81705 2.03124 0
M  V30 11621 C 1106.28 3.92746 1.70101 0
M  V30 11622 C 1105.6 4.41694 3.01347 0
M  V30 11623 C 1106.9 5.13606 0.949025 0
M  V30 11624 H 1108.6 2.98196 0.26825 0
M  V30 11625 H 1106.14 1.43434 0.127584 0
M  V30 11626 H 1108.1 3.24273 2.69119 0
M  V30 11627 H 1106.82 2.00523 2.57795 0
M  V30 11628 H 1105.48 3.50794 1.06486 0
M  V30 11629 H 1105.13 3.57336 3.54006 0
M  V30 11630 H 1104.83 5.1659 2.80016 0
M  V30 11631 H 1106.35 4.86931 3.68416 0
M  V30 11632 H 1107.76 5.53029 1.51102 0
M  V30 11633 H 1106.16 5.94252 0.835711 0
M  V30 11634 H 1107.23 4.84863 -0.0595631 0
M  V30 11635 N 1108.58 -0.128553 1.57075 0
M  V30 11636 C 1109.51 -1.15953 2.02675 0
M  V30 11637 C 1110.49 -1.43743 0.909501 0
M  V30 11638 O 1111.67 -1.54348 1.17857 0
M  V30 11639 C 1108.8 -2.48813 2.423 0
M  V30 11640 C 1107.76 -2.35506 3.57381 0
M  V30 11641 C 1107.08 -3.73243 3.82875 0
M  V30 11642 C 1108.38 -1.82359 4.89431 0
M  V30 11643 H 1110.08 -0.780283 2.89054 0
M  V30 11644 H 1107.62 -0.373896 1.39061 0
M  V30 11645 H 1109.57 -3.21179 2.72804 0
M  V30 11646 H 1108.3 -2.88609 1.52881 0
M  V30 11647 H 1106.96 -1.6559 3.27071 0
M  V30 11648 H 1106.61 -4.10507 2.90677 0
M  V30 11649 H 1106.31 -3.65195 4.60333 0
M  V30 11650 H 1107.83 -4.47128 4.15823 0
M  V30 11651 H 1109.24 -2.44533 5.18533 0
M  V30 11652 H 1107.64 -1.85156 5.70822 0
M  V30 11653 H 1108.71 -0.780478 4.78578 0
M  V30 11654 N 1110.05 -1.5248 -0.398459 0
M  V30 11655 C 1111.47 -1.4152 -0.737854 0
M  V30 11656 C 1111.67 -0.528122 -1.94456 0
M  V30 11657 O 1110.73 0.00203799 -2.525 0
M  V30 11658 C 1112.04 -2.8422 -0.9818 0
M  V30 11659 C 1113.59 -2.93635 -1.08386 0
M  V30 11660 C 1114.06 -4.37327 -1.3605 0
M  V30 11661 N 1115.55 -4.40609 -1.42892 0
M  V30 11662 C 1116.29 -5.48863 -1.65944 0
M  V30 11663 N 1115.78 -6.67217 -1.86529 0
M  V30 11664 N 1117.58 -5.36393 -1.68046 0
M  V30 11665 H 1109.73 -2.08681 0.395705 0
M  V30 11666 H 1111.99 -0.941023 0.114801 0
M  V30 11667 H 1111.7 -3.51302 -0.167358 0
M  V30 11668 H 1111.57 -3.25907 -1.89907 0
M  V30 11669 H 1113.96 -2.26728 -1.88888 0
M  V30 11670 H 1114.04 -2.5539 -0.144714 0
M  V30 11671 H 1113.68 -5.04797 -0.56061 0
M  V30 11672 H 1113.61 -4.73116 -2.31233 0
M  V30 11673 H 1116.1 -3.55298 -1.2873 0
M  V30 11674 H 1116.42 -7.45498 -2.03599 0
M  V30 11675 H 1114.76 -6.70263 -1.83773 0
M  V30 11676 H 1117.95 -4.42903 -1.51509 0
M  V30 11677 H 1118.13 -6.2083 -1.85672 0
M  V30 11678 N 1111.53 0.65634 -1.43283 0
M  V30 11679 C 1112.76 1.44906 -1.48382 0
M  V30 11680 C 1113.18 1.87823 -0.101993 0
M  V30 11681 O 1112.54 1.57178 0.903597 0
M  V30 11682 C 1112.59 2.66231 -2.43215 0
M  V30 11683 O 1111.69 3.65176 -1.91625 0
M  V30 11684 H 1111.03 0.434601 -0.502014 0
M  V30 11685 H 1113.56 0.803429 -1.88165 0
M  V30 11686 H 1113.57 3.14083 -2.60414 0
M  V30 11687 H 1112.25 2.34336 -3.43598 0
M  V30 11688 H 1110.82 3.24302 -1.84072 0
M  V30 11689 N 1113.01 1.29761 0.894412 0
M  V30 11690 C 1113.96 1.15232 2.0205 0
M  V30 11691 C 1114.95 0.0665664 1.69269 0
M  V30 11692 O 1116.16 0.226746 1.78566 0
M  V30 11693 H 1112.53 0.356102 0.662341 0
M  V30 11694 H 1114.5 2.10559 2.11442 0
M  V30 11695 C 1113.25 0.851143 3.37121 0
M  V30 11696 H 1112.58 1.67865 3.62852 0
M  V30 11697 H 1114.02 0.78954 4.16584 0
M  V30 11698 C 1112.47 -0.445737 3.33938 0
M  V30 11699 O 1113 -1.47017 3.7383 0
M  V30 11700 N 1111.21 -0.453493 2.8704 0
M  V30 11701 H 1110.76 0.380636 2.54772 0
M  V30 11702 H 1110.72 -1.32119 2.85293 0
M  V30 11703 N 1114.49 -1.10549 1.12324 0
M  V30 11704 C 1115.71 -1.8681 0.900927 0
M  V30 11705 C 1116.14 -1.80049 -0.54443 0
M  V30 11706 O 1115.5 -1.16957 -1.38531 0
M  V30 11707 C 1115.54 -3.33197 1.37883 0
M  V30 11708 O 1114.65 -4.08628 0.556529 0
M  V30 11709 H 1113.99 -0.579709 0.32378 0
M  V30 11710 H 1116.52 -1.39678 1.49503 0
M  V30 11711 H 1116.53 -3.84047 1.37739 0
M  V30 11712 H 1115.2 -3.37435 2.43127 0
M  V30 11713 H 1113.78 -3.67627 0.62486 0
M  V30 11714 N 1115.97 -0.914965 -1.28321 0
M  V30 11715 C 1117.19 -0.564023 -1.99583 0
M  V30 11716 C 1117.62 0.847821 -1.6791 0
M  V30 11717 O 1116.97 1.56682 -0.912171 0
M  V30 11718 C 1117.02 -0.781368 -3.52033 0
M  V30 11719 O 1116.13 0.159072 -4.12093 0
M  V30 11720 H 1115.47 -0.218565 -0.626997 0
M  V30 11721 H 1118 -1.23074 -1.63444 0
M  V30 11722 H 1118.01 -0.691946 -4.0209 0
M  V30 11723 H 1116.68 -1.81059 -3.7442 0
M  V30 11724 H 1115.26 0.0208145 -3.72894 0
M  V30 11725 N 1117.44 1.42219 -0.679077 0
M  V30 11726 C 1118.69 2.01081 -0.202718 0
M  V30 11727 C 1119.01 1.53986 1.19639 0
M  V30 11728 O 1118.28 0.763359 1.80415 0
M  V30 11729 H 1116.86 0.743526 -0.0719547 0
M  V30 11730 H 1119.52 1.74077 -0.876544 0
M  V30 11731 H 1118.62 3.11411 -0.207314 0
M  V30 11732 N 1118.92 0.422693 1.51826 0
M  V30 11733 C 1120.15 -0.147744 2.06372 0
M  V30 11734 C 1120.56 -1.37714 1.29152 0
M  V30 11735 O 1119.92 -1.7917 0.347046 0
M  V30 11736 C 1119.97 -0.484642 3.58237 0
M  V30 11737 O 1119.69 0.695944 4.32537 0
M  V30 11738 C 1121.19 -1.10734 4.29247 0
M  V30 11739 H 1118.41 -0.0144047 0.670845 0
M  V30 11740 H 1120.96 0.597558 1.95575 0
M  V30 11741 H 1119.11 -1.17984 3.68997 0
M  V30 11742 H 1119.53 0.411471 5.22884 0
M  V30 11743 H 1121 -1.29318 5.36639 0
M  V30 11744 H 1121.48 -2.08429 3.86593 0
M  V30 11745 H 1122.08 -0.451958 4.22892 0
M  V30 11746 N 1120.4 -1.5685 0.153553 0
M  V30 11747 C 1121.81 -1.83074 -0.36618 0
M  V30 11748 C 1122.16 -1.07257 -1.64288 0
M  V30 11749 O 1121.29 -0.319925 -2.14022 0
M  V30 11750 C 1121.88 -3.32086 -0.671142 0
M  V30 11751 C 1120.44 -3.58868 -1.13537 0
M  V30 11752 C 1119.59 -2.76827 -0.161887 0
M  V30 11753 H 1122.54 -1.54129 0.378139 0
M  V30 11754 H 1122.56 -3.48598 -1.52512 0
M  V30 11755 H 1122.07 -3.8724 0.258234 0
M  V30 11756 H 1120.17 -3.09107 -2.08047 0
M  V30 11757 H 1120.29 -4.67299 -1.05682 0
M  V30 11758 H 1118.65 -2.46112 -0.6558 0
M  V30 11759 H 1119.43 -3.34755 0.761195 0
M  V30 11760 N 1121.88 0.120221 -1.57141 0
M  V30 11761 C 1123.13 0.826586 -1.84423 0
M  V30 11762 C 1123.45 1.80473 -0.738553 0
M  V30 11763 O 1122.72 1.94454 0.23755 0
M  V30 11764 H 1121.3 0.308246 -0.680436 0
M  V30 11765 H 1123.96 0.107835 -1.94601 0
M  V30 11766 H 1123.05 1.37256 -2.80298 0
M  V30 11767 N 1123.36 1.52689 0.390367 0
M  V30 11768 C 1124.32 1.76726 1.45947 0
M  V30 11769 C 1125.32 0.637269 1.47633 0
M  V30 11770 O 1126.51 0.905312 1.48828 0
M  V30 11771 C 1123.64 1.86678 2.85244 0
M  V30 11772 H 1124.83 2.72185 1.25918 0
M  V30 11773 H 1122.39 1.4339 0.622023 0
M  V30 11774 H 1123.12 0.931991 3.10619 0
M  V30 11775 H 1122.91 2.68843 2.85422 0
M  V30 11776 H 1124.4 2.06952 3.62713 0
M  V30 11777 N 1124.83 -0.648732 1.43629 0
M  V30 11778 C 1126.06 -1.4362 1.48932 0
M  V30 11779 C 1126.48 -1.88487 0.108599 0
M  V30 11780 O 1125.83 -1.59768 -0.882066 0
M  V30 11781 C 1125.89 -2.66822 2.43903 0
M  V30 11782 O 1125.61 -2.2383 3.76606 0
M  V30 11783 C 1127.11 -3.60134 2.58493 0
M  V30 11784 H 1124.33 -0.441055 0.505679 0
M  V30 11785 H 1126.87 -0.794936 1.88417 0
M  V30 11786 H 1125.03 -3.27079 2.07601 0
M  V30 11787 H 1125.44 -3.03575 4.27718 0
M  V30 11788 H 1126.91 -4.43234 3.29011 0
M  V30 11789 H 1127.39 -4.07779 1.63134 0
M  V30 11790 H 1128 -3.05756 2.95624 0
M  V30 11791 N 1126.31 -1.30234 -0.887518 0
M  V30 11792 C 1127.54 -1.21955 -1.67755 0
M  V30 11793 C 1127.96 0.214701 -1.86871 0
M  V30 11794 O 1127.32 1.15459 -1.39782 0
M  V30 11795 C 1127.37 -1.95079 -3.03276 0
M  V30 11796 O 1126.47 -1.27615 -3.92158 0
M  V30 11797 H 1125.81 -0.421948 -0.512695 0
M  V30 11798 H 1128.34 -1.72011 -1.10785 0
M  V30 11799 H 1128.35 -2.04004 -3.53336 0
M  V30 11800 H 1127.03 -2.99392 -2.88682 0
M  V30 11801 H 1125.61 -1.27029 -3.50597 0
M  V30 11802 N 1127.79 1.09952 -1.12909 0
M  V30 11803 C 1129.02 1.8633 -0.910821 0
M  V30 11804 C 1129.44 1.80335 0.534874 0
M  V30 11805 O 1128.8 1.1769 1.37908 0
M  V30 11806 C 1128.85 3.32462 -1.39648 0
M  V30 11807 O 1127.95 4.08327 -0.578192 0
M  V30 11808 H 1127.29 0.577984 -0.32685 0
M  V30 11809 H 1129.82 1.38883 -1.50242 0
M  V30 11810 H 1129.83 3.83311 -1.39774 0
M  V30 11811 H 1128.51 3.36141 -2.44913 0
M  V30 11812 H 1127.08 3.67291 -0.644347 0
M  V30 11813 N 1129.27 0.921757 1.27833 0
M  V30 11814 C 1130.5 0.575202 1.98744 0
M  V30 11815 C 1130.91 -0.845405 1.68815 0
M  V30 11816 O 1130.27 -1.56106 0.94536 0
M  V30 11817 C 1130.32 0.784389 3.52888 0
M  V30 11818 O 1130.04 2.1491 3.81766 0
M  V30 11819 C 1131.54 0.445744 4.41053 0
M  V30 11820 H 1128.76 0.218525 0.634419 0
M  V30 11821 H 1131.31 1.23715 1.62834 0
M  V30 11822 H 1129.46 0.169323 3.8703 0
M  V30 11823 H 1129.87 2.19469 4.76375 0
M  V30 11824 H 1131.35 0.64284 5.48244 0
M  V30 11825 H 1131.83 -0.618433 4.34824 0
M  V30 11826 H 1132.43 1.03869 4.12421 0
M  V30 11827 N 1130.75 -1.41857 0.686609 0
M  V30 11828 C 1131.99 -2.0097 0.213378 0
M  V30 11829 C 1132.32 -1.54618 -1.1882 0
M  V30 11830 O 1131.59 -0.772916 -1.80008 0
M  V30 11831 H 1130.17 -0.743134 0.0758968 0
M  V30 11832 H 1132.83 -1.73609 0.885763 0
M  V30 11833 H 1131.92 -3.11296 0.223826 0
M  V30 11834 N 1132.22 -0.430739 -1.51599 0
M  V30 11835 C 1133.47 0.137929 -2.0203 0
M  V30 11836 C 1133.8 1.43287 -1.31526 0
M  V30 11837 O 1133.05 1.9121 -0.416814 0
M  V30 11838 C 1133.35 0.410694 -3.55032 0
M  V30 11839 C 1133.02 -0.797634 -4.43789 0
M  V30 11840 C 1131.68 -1.12902 -4.67768 0
M  V30 11841 C 1134.03 -1.60403 -4.95904 0
M  V30 11842 C 1131.36 -2.2676 -5.41107 0
M  V30 11843 C 1133.71 -2.73354 -5.70491 0
M  V30 11844 C 1132.38 -3.06955 -5.92735 0
M  V30 11845 H 1131.65 0.0504718 -0.739279 0
M  V30 11846 H 1134.29 -0.576585 -1.82614 0
M  V30 11847 H 1132.6 1.20703 -3.72744 0
M  V30 11848 H 1134.3 0.864006 -3.91581 0
M  V30 11849 H 1130.89 -0.529397 -4.25318 0
M  V30 11850 H 1135.07 -1.36122 -4.77268 0
M  V30 11851 H 1130.33 -2.53114 -5.56546 0
M  V30 11852 H 1134.5 -3.36213 -6.09864 0
M  V30 11853 H 1132.13 -3.95293 -6.49344 0
M  V30 11854 N 1133.7 1.56767 -0.161869 0
M  V30 11855 C 1134.63 2.1466 0.803356 0
M  V30 11856 C 1135.65 1.09977 1.20037 0
M  V30 11857 O 1136.84 1.37199 1.14187 0
M  V30 11858 C 1133.94 2.66663 2.09151 0
M  V30 11859 C 1133.11 3.95904 1.85953 0
M  V30 11860 C 1132.17 4.33067 2.98897 0
M  V30 11861 O 1131.19 5.01119 2.69942 0
M  V30 11862 N 1132.4 3.93856 4.26448 0
M  V30 11863 H 1135.16 2.98108 0.308472 0
M  V30 11864 H 1132.72 1.61886 0.0212238 0
M  V30 11865 H 1134.71 2.88528 2.83784 0
M  V30 11866 H 1133.28 1.87856 2.49857 0
M  V30 11867 H 1132.5 3.82513 0.952751 0
M  V30 11868 H 1133.79 4.8033 1.67811 0
M  V30 11869 H 1133.19 3.39051 4.52836 0
M  V30 11870 H 1131.75 4.20741 4.97815 0
M  V30 11871 N 1135.18 -0.111886 1.57202 0
M  V30 11872 C 1136.09 -1.1556 2.04165 0
M  V30 11873 C 1137.11 -1.44898 0.963354 0
M  V30 11874 O 1138.28 -1.55873 1.27536 0
M  V30 11875 C 1135.35 -2.46048 2.44256 0
M  V30 11876 C 1134.41 -2.24043 3.66201 0
M  V30 11877 C 1133.64 -3.4831 4.04371 0
M  V30 11878 O 1133.86 -4.55895 3.42806 0
M  V30 11879 O 1132.8 -3.38891 4.9743 0
M  V30 11880 H 1136.62 -0.786778 2.93332 0
M  V30 11881 H 1134.21 -0.323196 1.45862 0
M  V30 11882 H 1136.09 -3.22916 2.70745 0
M  V30 11883 H 1134.77 -2.8239 1.58233 0
M  V30 11884 H 1133.67 -1.4501 3.44852 0
M  V30 11885 H 1135.01 -1.92602 4.52952 0
M  V30 11886 N 1136.66 -1.52894 -0.382264 0
M  V30 11887 C 1137.88 -1.72453 -1.15216 0
M  V30 11888 C 1138.31 -0.444925 -1.82762 0
M  V30 11889 O 1137.67 0.599825 -1.7109 0
M  V30 11890 C 1137.71 -2.87939 -2.17079 0
M  V30 11891 O 1136.82 -2.55383 -3.23811 0
M  V30 11892 H 1136.16 -0.57324 -0.335099 0
M  V30 11893 H 1138.69 -1.99713 -0.444495 0
M  V30 11894 H 1138.7 -3.13628 -2.60963 0
M  V30 11895 H 1137.37 -3.80765 -1.67305 0
M  V30 11896 H 1135.95 -2.40457 -2.85018 0
M  V30 11897 N 1138.14 0.641106 -1.43971 0
M  V30 11898 C 1139.55 0.958161 -1.27638 0
M  V30 11899 C 1139.75 2.00456 -0.204885 0
M  V30 11900 O 1138.81 2.49106 0.412606 0
M  V30 11901 C 1140.12 1.43091 -2.64472 0
M  V30 11902 C 1141.67 1.54692 -2.72102 0
M  V30 11903 C 1142.15 2.05353 -4.09382 0
M  V30 11904 N 1143.64 2.12638 -4.11509 0
M  V30 11905 C 1144.37 2.52987 -5.14573 0
M  V30 11906 N 1143.87 2.92544 -6.28005 0
M  V30 11907 N 1145.66 2.53033 -5.01927 0
M  V30 11908 H 1137.81 -0.0510973 -2.12339 0
M  V30 11909 H 1140.07 0.039748 -0.947166 0
M  V30 11910 H 1139.78 0.736389 -3.43904 0
M  V30 11911 H 1139.65 2.40375 -2.90688 0
M  V30 11912 H 1142.04 2.23242 -1.92994 0
M  V30 11913 H 1142.12 0.558083 -2.49638 0
M  V30 11914 H 1141.77 1.37401 -4.88962 0
M  V30 11915 H 1141.7 3.0509 -4.29218 0
M  V30 11916 H 1144.19 1.84792 -3.29636 0
M  V30 11917 H 1144.5 3.22116 -7.02468 0
M  V30 11918 H 1142.85 2.90319 -6.31458 0
M  V30 11919 H 1146.04 2.21514 -4.1237 0
M  V30 11920 H 1146.21 2.84155 -5.82375 0
M  V30 11921 N 1139.62 1.30703 0.880598 0
M  V30 11922 C 1140.86 1.19778 1.63277 0
M  V30 11923 C 1141.19 -0.246521 1.92931 0
M  V30 11924 O 1140.45 -1.19226 1.55189 0
M  V30 11925 C 1140.74 1.97628 2.97789 0
M  V30 11926 C 1140.41 3.47213 2.87669 0
M  V30 11927 C 1139.07 3.88004 2.84617 0
M  V30 11928 C 1141.42 4.4245 2.75477 0
M  V30 11929 C 1138.75 5.22315 2.67216 0
M  V30 11930 C 1141.1 5.76874 2.59614 0
M  V30 11931 C 1139.77 6.16898 2.54939 0
M  V30 11932 H 1139.04 0.438298 0.597475 0
M  V30 11933 H 1141.69 1.61853 1.02352 0
M  V30 11934 H 1139.99 1.48201 3.6269 0
M  V30 11935 H 1141.69 1.86563 3.54958 0
M  V30 11936 H 1138.28 3.14802 2.90857 0
M  V30 11937 H 1142.46 4.11875 2.76899 0
M  V30 11938 H 1137.72 5.52412 2.62014 0
M  V30 11939 H 1141.89 6.50304 2.49155 0
M  V30 11940 H 1139.52 7.20916 2.41214 0
M  V30 11941 N 1141.09 -1.09351 1.1349 0
M  V30 11942 C 1142.51 -1.3359 0.873269 0
M  V30 11943 C 1142.71 -1.95432 -0.490767 0
M  V30 11944 O 1141.77 -2.20117 -1.23712 0
M  V30 11945 C 1143.08 -2.24681 1.99847 0
M  V30 11946 C 1144.63 -2.38188 2.03065 0
M  V30 11947 C 1145.1 -3.32615 3.14851 0
M  V30 11948 N 1146.59 -3.40188 3.14366 0
M  V30 11949 C 1147.33 -4.13256 3.97501 0
M  V30 11950 N 1146.82 -4.89114 4.90652 0
M  V30 11951 N 1148.62 -4.08988 3.85597 0
M  V30 11952 H 1140.77 -0.675852 2.0136 0
M  V30 11953 H 1143.03 -0.360268 0.876876 0
M  V30 11954 H 1142.74 -1.86469 2.98198 0
M  V30 11955 H 1142.61 -3.25075 1.91327 0
M  V30 11956 H 1145 -2.75663 1.05327 0
M  V30 11957 H 1145.08 -1.3757 2.15658 0
M  V30 11958 H 1144.72 -2.95863 4.12829 0
M  V30 11959 H 1144.65 -4.33139 2.99496 0
M  V30 11960 H 1147.14 -2.861 2.46892 0
M  V30 11961 H 1147.46 -5.423 5.50573 0
M  V30 11962 H 1145.8 -4.882 4.94657 0
M  V30 11963 H 1148.99 -3.48826 3.12151 0
M  V30 11964 H 1149.17 -4.65671 4.50615 0
M  V30 11965 N 1142.57 -0.928524 -1.27343 0
M  V30 11966 C 1143.99 -0.62889 -1.46687 0
M  V30 11967 C 1144.19 0.821592 -1.83989 0
M  V30 11968 O 1143.24 1.59941 -1.95385 0
M  V30 11969 C 1144.56 -1.57947 -2.55878 0
M  V30 11970 C 1146.1 -1.58778 -2.69738 0
M  V30 11971 C 1146.58 -2.52535 -3.82087 0
M  V30 11972 N 1148.07 -2.50747 -3.89462 0
M  V30 11973 C 1148.81 -3.19981 -4.75814 0
M  V30 11974 N 1148.3 -3.98598 -5.66649 0
M  V30 11975 N 1150.09 -3.08996 -4.69551 0
M  V30 11976 H 1142.25 -1.86625 -1.01414 0
M  V30 11977 H 1144.51 -0.801293 -0.50659 0
M  V30 11978 H 1144.21 -2.61427 -2.35264 0
M  V30 11979 H 1144.09 -1.3218 -3.53282 0
M  V30 11980 H 1146.48 -0.560292 -2.89732 0
M  V30 11981 H 1146.56 -1.88594 -1.72817 0
M  V30 11982 H 1146.2 -3.55395 -3.62846 0
M  V30 11983 H 1146.13 -2.20015 -4.78436 0
M  V30 11984 H 1148.62 -1.93651 -3.24511 0
M  V30 11985 H 1148.93 -4.4841 -6.29403 0
M  V30 11986 H 1147.28 -4.02701 -5.66442 0
M  V30 11987 H 1150.47 -2.4707 -3.97585 0
M  V30 11988 H 1150.64 -3.63223 -5.36631 0
M  V30 11989 N 1144.05 1.41491 -0.694123 0
M  V30 11990 C 1144.98 2.29197 0.0112742 0
M  V30 11991 C 1145.99 1.44708 0.745877 0
M  V30 11992 O 1147.18 1.68227 0.596821 0
M  V30 11993 C 1144.28 3.22547 1.04004 0
M  V30 11994 C 1143.46 4.35787 0.375347 0
M  V30 11995 C 1142.52 5.09722 1.30652 0
M  V30 11996 O 1141.54 5.63558 0.799459 0
M  V30 11997 N 1142.74 5.1705 2.63893 0
M  V30 11998 H 1145.51 2.90377 -0.741705 0
M  V30 11999 H 1143.07 1.52628 -0.540039 0
M  V30 12000 H 1145.06 3.68878 1.66468 0
M  V30 12001 H 1143.63 2.62685 1.69456 0
M  V30 12002 H 1142.85 3.91857 -0.429145 0
M  V30 12003 H 1144.14 5.08726 -0.0869041 0
M  V30 12004 H 1143.54 4.74756 3.07609 0
M  V30 12005 H 1142.09 5.66962 3.21555 0
M  V30 12006 N 1145.53 0.438773 1.51369 0
M  V30 12007 C 1146.46 -0.362467 2.3067 0
M  V30 12008 C 1147.44 -1.01973 1.36145 0
M  V30 12009 O 1148.62 -1.0231 1.65065 0
M  V30 12010 C 1145.75 -1.46313 3.14976 0
M  V30 12011 C 1144.71 -0.929272 4.1779 0
M  V30 12012 C 1144.03 -2.12579 4.90627 0
M  V30 12013 C 1145.33 0.0372782 5.22287 0
M  V30 12014 H 1147.03 0.29931 2.979 0
M  V30 12015 H 1144.57 0.14539 1.43264 0
M  V30 12016 H 1146.53 -2.03088 3.69233 0
M  V30 12017 H 1145.25 -2.15321 2.45569 0
M  V30 12018 H 1143.91 -0.383722 3.64586 0
M  V30 12019 H 1143.56 -2.8021 4.17722 0
M  V30 12020 H 1143.26 -1.77496 5.60151 0
M  V30 12021 H 1144.78 -2.69905 5.47708 0
M  V30 12022 H 1146.2 -0.44022 5.71607 0
M  V30 12023 H 1144.59 0.300748 5.99346 0
M  V30 12024 H 1145.66 0.973503 4.75027 0
M  V30 12025 N 1147.01 -1.56678 0.170181 0
M  V30 12026 C 1147.97 -2.16698 -0.746622 0
M  V30 12027 C 1148.97 -1.11475 -1.15888 0
M  V30 12028 O 1150.16 -1.36994 -1.07602 0
M  V30 12029 C 1147.29 -2.74892 -2.01612 0
M  V30 12030 H 1148.48 -2.99061 -0.224135 0
M  V30 12031 H 1146.04 -1.56098 -0.0793761 0
M  V30 12032 H 1146.77 -1.96259 -2.58172 0
M  V30 12033 H 1146.56 -3.51896 -1.72949 0
M  V30 12034 H 1148.05 -3.21058 -2.67042 0
M  V30 12035 N 1148.48 0.103547 -1.57259 0
M  V30 12036 C 1149.41 1.12714 -2.04494 0
M  V30 12037 C 1150.39 1.42278 -0.932255 0
M  V30 12038 O 1151.58 1.52453 -1.20298 0
M  V30 12039 C 1148.71 2.44927 -2.46228 0
M  V30 12040 C 1147.66 2.2979 -3.61082 0
M  V30 12041 C 1146.99 3.67105 -3.88765 0
M  V30 12042 C 1148.29 1.7455 -4.9227 0
M  V30 12043 H 1149.98 0.734198 -2.90258 0
M  V30 12044 H 1147.53 0.351725 -1.39638 0
M  V30 12045 H 1149.48 3.16798 -2.77879 0
M  V30 12046 H 1148.21 2.8614 -1.57453 0
M  V30 12047 H 1146.87 1.60366 -3.29664 0
M  V30 12048 H 1146.51 4.05831 -2.97171 0
M  V30 12049 H 1146.21 3.57825 -4.66084 0
M  V30 12050 H 1147.74 4.40456 -4.22884 0
M  V30 12051 H 1149.15 2.36253 -5.22358 0
M  V30 12052 H 1147.55 1.76051 -5.73695 0
M  V30 12053 H 1148.62 0.704242 -4.79759 0
M  V30 12054 N 1149.96 1.53094 0.37415 0
M  V30 12055 C 1150.89 1.81901 1.46404 0
M  V30 12056 C 1151.87 0.671949 1.56265 0
M  V30 12057 O 1153.06 0.920978 1.70973 0
M  V30 12058 C 1150.19 2.00123 2.83845 0
M  V30 12059 C 1149.14 3.15864 2.88814 0
M  V30 12060 C 1148.47 3.19364 4.28848 0
M  V30 12061 C 1149.77 4.54633 2.57112 0
M  V30 12062 H 1151.46 2.73172 1.22546 0
M  V30 12063 H 1149.01 1.31444 0.588087 0
M  V30 12064 H 1150.96 2.18859 3.6011 0
M  V30 12065 H 1149.68 1.05555 3.09072 0
M  V30 12066 H 1148.34 2.96935 2.15 0
M  V30 12067 H 1147.99 2.2245 4.51137 0
M  V30 12068 H 1147.69 3.97123 4.3309 0
M  V30 12069 H 1149.22 3.40273 5.06997 0
M  V30 12070 H 1150.63 4.73587 3.23091 0
M  V30 12071 H 1149.03 5.34569 2.72683 0
M  V30 12072 H 1150.1 4.60331 1.52392 0
M  V30 12073 N 1151.44 -0.633461 1.44309 0
M  V30 12074 C 1152.67 -1.42033 1.50447 0
M  V30 12075 C 1153.08 -1.88362 0.128585 0
M  V30 12076 O 1152.44 -1.60695 -0.865071 0
M  V30 12077 C 1152.49 -2.6422 2.46719 0
M  V30 12078 O 1152.21 -2.19823 3.78958 0
M  V30 12079 C 1153.71 -3.57372 2.62298 0
M  V30 12080 H 1150.93 -0.435667 0.510329 0
M  V30 12081 H 1153.48 -0.774907 1.8925 0
M  V30 12082 H 1151.63 -3.24859 2.11058 0
M  V30 12083 H 1152.05 -2.99022 4.30913 0
M  V30 12084 H 1153.52 -4.39719 3.33693 0
M  V30 12085 H 1154 -4.06026 1.67449 0
M  V30 12086 H 1154.6 -3.02603 2.9885 0
M  V30 12087 N 1152.92 -1.31168 -0.873655 0
M  V30 12088 C 1154.16 -1.21831 -1.62877 0
M  V30 12089 C 1154.52 0.222272 -1.91112 0
M  V30 12090 O 1153.81 1.15463 -1.52902 0
M  V30 12091 C 1154.01 -1.99204 -2.96736 0
M  V30 12092 C 1153.84 -3.50639 -2.81571 0
M  V30 12093 C 1152.61 -4.19992 -2.80953 0
M  V30 12094 C 1154.8 -4.45658 -2.56697 0
M  V30 12095 N 1152.79 -5.57609 -2.56799 0
M  V30 12096 C 1154.16 -5.70917 -2.41771 0
M  V30 12097 C 1156.21 -4.35126 -2.42012 0
M  V30 12098 C 1154.91 -6.86837 -2.13654 0
M  V30 12099 C 1156.94 -5.50825 -2.15282 0
M  V30 12100 C 1156.3 -6.75071 -2.01142 0
M  V30 12101 H 1152.4 -0.500911 -0.60051 0
M  V30 12102 H 1154.99 -1.65313 -1.02857 0
M  V30 12103 H 1153.16 -1.58096 -3.54768 0
M  V30 12104 H 1154.89 -1.81916 -3.61509 0
M  V30 12105 H 1151.64 -3.71928 -2.932 0
M  V30 12106 H 1152.07 -6.30058 -2.47703 0
M  V30 12107 H 1156.71 -3.39736 -2.51673 0
M  V30 12108 H 1154.43 -7.82257 -2.0273 0
M  V30 12109 H 1158.01 -5.44591 -2.04725 0
M  V30 12110 H 1156.89 -7.63085 -1.8075 0
M  V30 12111 N 1154.4 1.08748 -1.14068 0
M  V30 12112 C 1155.62 1.84814 -0.930138 0
M  V30 12113 C 1156.04 1.81461 0.521267 0
M  V30 12114 O 1155.4 1.21577 1.36108 0
M  V30 12115 C 1155.45 3.32501 -1.41863 0
M  V30 12116 O 1155.17 3.35846 -2.81317 0
M  V30 12117 C 1156.67 4.25384 -1.24753 0
M  V30 12118 H 1153.89 0.583546 -0.331233 0
M  V30 12119 H 1156.43 1.37366 -1.51495 0
M  V30 12120 H 1154.59 3.7735 -0.876664 0
M  V30 12121 H 1155 4.28013 -3.03159 0
M  V30 12122 H 1156.48 5.27138 -1.63798 0
M  V30 12123 H 1156.95 4.38789 -0.18999 0
M  V30 12124 H 1157.56 3.86357 -1.77787 0
M  V30 12125 N 1155.87 0.935264 1.26849 0
M  V30 12126 C 1156.8 0.457776 2.28969 0
M  V30 12127 C 1157.79 -0.48587 1.63013 0
M  V30 12128 O 1158.97 -0.388998 1.90264 0
M  V30 12129 C 1156.1 -0.283332 3.46142 0
M  V30 12130 C 1155.05 0.573196 4.24144 0
M  V30 12131 C 1154.38 -0.297525 5.33872 0
M  V30 12132 C 1155.68 1.84153 4.88759 0
M  V30 12133 H 1157.37 1.31125 2.69159 0
M  V30 12134 H 1154.92 0.631956 1.29392 0
M  V30 12135 H 1156.87 -0.628366 4.16689 0
M  V30 12136 H 1155.6 -1.1709 3.04889 0
M  V30 12137 H 1154.26 0.901043 3.55354 0
M  V30 12138 H 1153.9 -1.18427 4.8886 0
M  V30 12139 H 1153.6 0.272126 5.8697 0
M  V30 12140 H 1155.13 -0.637961 6.07258 0
M  V30 12141 H 1156.54 1.5641 5.51551 0
M  V30 12142 H 1154.94 2.35528 5.51948 0
M  V30 12143 H 1156.01 2.5565 4.12033 0
M  V30 12144 N 1157.35 -1.41121 0.701616 0
M  V30 12145 C 1158.28 -2.292 0.000880842 0
M  V30 12146 C 1159.3 -1.45102 -0.738192 0
M  V30 12147 O 1160.49 -1.68541 -0.587891 0
M  V30 12148 C 1157.59 -3.23094 -1.02292 0
M  V30 12149 C 1156.76 -4.35979 -0.352231 0
M  V30 12150 C 1155.82 -5.10408 -1.27947 0
M  V30 12151 O 1154.84 -5.63974 -0.769561 0
M  V30 12152 N 1156.05 -5.18442 -2.61147 0
M  V30 12153 H 1158.81 -2.8998 0.757094 0
M  V30 12154 H 1156.37 -1.52339 0.548126 0
M  V30 12155 H 1158.36 -3.69755 -1.64509 0
M  V30 12156 H 1156.93 -2.6358 -1.68061 0
M  V30 12157 H 1156.15 -3.91624 0.44992 0
M  V30 12158 H 1157.44 -5.08673 0.113882 0
M  V30 12159 H 1156.84 -4.76381 -3.05087 0
M  V30 12160 H 1155.4 -5.68659 -3.18544 0
M  V30 12161 N 1158.83 -0.446794 -1.51134 0
M  V30 12162 C 1160.08 0.116263 -2.01765 0
M  V30 12163 C 1160.4 1.42382 -1.33238 0
M  V30 12164 O 1159.67 1.9018 -0.469915 0
M  V30 12165 H 1158.25 0.0459558 -0.745585 0
M  V30 12166 H 1160.91 -0.591664 -1.85702 0
M  V30 12167 H 1160.01 0.285358 -3.10793 0
M  V30 12168 N 1160.31 1.56586 -0.178487 0
M  V30 12169 C 1161.27 2.17091 0.73512 0
M  V30 12170 C 1162.27 1.12088 1.15295 0
M  V30 12171 O 1163.46 1.37563 1.06874 0
M  V30 12172 C 1160.59 2.75957 2.00151 0
M  V30 12173 H 1161.79 2.99176 0.208272 0
M  V30 12174 H 1159.34 1.56138 0.0710967 0
M  V30 12175 H 1160.07 1.97626 2.57127 0
M  V30 12176 H 1159.86 3.52809 1.7108 0
M  V30 12177 H 1161.35 3.2247 2.65335 0
M  V30 12178 N 1161.79 -0.095206 1.57312 0
M  V30 12179 C 1162.75 -1.09974 2.01093 0
M  V30 12180 C 1163.75 -1.32954 0.904424 0
M  V30 12181 O 1164.94 -1.29069 1.16991 0
M  V30 12182 C 1162.07 -2.4489 2.37153 0
M  V30 12183 H 1163.26 -0.722906 2.91057 0
M  V30 12184 H 1160.82 -0.340249 1.52552 0
M  V30 12185 H 1161.55 -2.8745 1.50143 0
M  V30 12186 H 1161.34 -2.29559 3.17876 0
M  V30 12187 H 1162.83 -3.17141 2.71683 0
M  V30 12188 N 1163.26 -1.53291 -0.366026 0
M  V30 12189 C 1164.21 -1.80367 -1.4687 0
M  V30 12190 C 1165.21 -0.672767 -1.55468 0
M  V30 12191 O 1166.41 -0.8557 -1.5836 0
M  V30 12192 H 1162.79 -0.571076 -0.48926 0
M  V30 12193 H 1164.76 -2.72661 -1.21237 0
M  V30 12194 C 1163.51 -2.01008 -2.8371 0
M  V30 12195 H 1162.83 -2.87468 -2.77853 0
M  V30 12196 H 1164.27 -2.2393 -3.60043 0
M  V30 12197 C 1162.73 -0.789054 -3.27529 0
M  V30 12198 O 1163.26 0.0224712 -4.01694 0
M  V30 12199 N 1161.47 -0.612621 -2.84069 0
M  V30 12200 H 1161.01 -1.27416 -2.23881 0
M  V30 12201 H 1160.97 0.202943 -3.13744 0
M  V30 12202 N 1164.74 0.6258 -1.44643 0
M  V30 12203 C 1165.71 1.71941 -1.51555 0
M  V30 12204 C 1166.71 1.55822 -0.396988 0
M  V30 12205 O 1167.9 1.61221 -0.65981 0
M  V30 12206 C 1165.03 3.11068 -1.39461 0
M  V30 12207 H 1166.22 1.67185 -2.48976 0
M  V30 12208 H 1163.77 0.839934 -1.31814 0
M  V30 12209 H 1164.51 3.21416 -0.431534 0
M  V30 12210 H 1164.29 3.24175 -2.20574 0
M  V30 12211 H 1165.78 3.90762 -1.4729 0
M  V30 12212 N 1166.22 1.31629 0.866686 0
M  V30 12213 C 1167.15 1.22151 1.99001 0
M  V30 12214 C 1168.13 0.107972 1.69757 0
M  V30 12215 O 1169.32 0.293125 1.91975 0
M  V30 12216 C 1166.45 0.93144 3.34577 0
M  V30 12217 C 1165.4 2.0049 3.78137 0
M  V30 12218 C 1164.73 1.56747 5.11209 0
M  V30 12219 C 1166.03 3.41844 3.94892 0
M  V30 12220 H 1167.72 2.16132 2.0719 0
M  V30 12221 H 1165.27 1.04051 0.995463 0
M  V30 12222 H 1167.22 0.851719 4.12703 0
M  V30 12223 H 1165.94 -0.0440289 3.2657 0
M  V30 12224 H 1164.6 2.07457 3.02253 0
M  V30 12225 H 1164.25 0.579767 4.99648 0
M  V30 12226 H 1163.95 2.28562 5.41326 0
M  V30 12227 H 1165.47 1.50188 5.91841 0
M  V30 12228 H 1166.89 3.37534 4.63405 0
M  V30 12229 H 1165.29 4.11905 4.36411 0
M  V30 12230 H 1166.36 3.82389 2.98172 0
M  V30 12231 N 1167.7 -1.08142 1.14644 0
M  V30 12232 C 1168.92 -1.84857 0.940349 0
M  V30 12233 C 1169.35 -1.81163 -0.506117 0
M  V30 12234 O 1168.71 -1.19869 -1.36019 0
M  V30 12235 C 1168.76 -3.30198 1.4492 0
M  V30 12236 O 1167.86 -4.07355 0.64308 0
M  V30 12237 H 1167.2 -0.572711 0.336003 0
M  V30 12238 H 1169.73 -1.36475 1.52432 0
M  V30 12239 H 1169.74 -3.81039 1.45854 0
M  V30 12240 H 1168.42 -3.32202 2.50229 0
M  V30 12241 H 1166.99 -3.66219 0.702698 0
M  V30 12242 N 1169.18 -0.941978 -1.26351 0
M  V30 12243 C 1170.43 -0.588806 -1.93333 0
M  V30 12244 C 1170.75 0.875067 -1.74263 0
M  V30 12245 O 1170.02 1.62187 -1.09873 0
M  V30 12246 H 1168.6 -0.214774 -0.715459 0
M  V30 12247 H 1171.26 -1.19747 -1.53774 0
M  V30 12248 H 1170.35 -0.807267 -3.01479 0
M  V30 12249 N 1170.66 1.40747 -0.709091 0
M  V30 12250 C 1171.93 1.94831 -0.173246 0
M  V30 12251 C 1172.31 1.64766 1.31967 0
M  V30 12252 O 1171.66 0.961853 2.07269 0
M  V30 12253 C 1171.87 3.45697 -0.479013 0
M  V30 12254 C 1173.22 4.22576 -0.414122 0
M  V30 12255 O 1174.24 3.53778 -0.414699 0
M  V30 12256 O 1173.1 5.45135 -0.385986 0
M  V30 12257 H 1170.2 0.826683 -0.0228947 0
M  V30 12258 H 1172.74 1.50391 -0.786178 0
M  V30 12259 H 1171.51 3.60914 -1.51185 0
M  V30 12260 H 1171.14 3.97261 0.164211 0
M  V30 12261 N 1172.13 0.454803 1.50895 0
M  V30 12262 C 1173.38 -0.105927 2.02523 0
M  V30 12263 C 1173.71 -1.40825 1.33724 0
M  V30 12264 O 1172.99 -1.89038 0.457683 0
M  V30 12265 C 1173.27 -0.306635 3.58792 0
M  V30 12266 C 1173.12 1.01556 4.38185 0
M  V30 12267 C 1174.44 -1.06858 4.2693 0
M  V30 12268 H 1171.56 -0.0370232 0.736069 0
M  V30 12269 H 1174.2 0.597215 1.8037 0
M  V30 12270 H 1172.35 -0.905563 3.77799 0
M  V30 12271 H 1174.03 1.64981 4.30789 0
M  V30 12272 H 1172.27 1.61608 4.02574 0
M  V30 12273 H 1172.94 0.828959 5.4574 0
M  V30 12274 H 1175.42 -0.561086 4.123 0
M  V30 12275 H 1174.29 -1.1778 5.36115 0
M  V30 12276 H 1174.55 -2.10111 3.8898 0
M  V30 12277 N 1173.61 -1.56489 0.186789 0
M  V30 12278 C 1174.86 -1.98399 -0.448244 0
M  V30 12279 C 1175.21 -1.07139 -1.59809 0
M  V30 12280 O 1174.51 -0.114119 -1.9126 0
M  V30 12281 C 1174.7 -3.44145 -0.964315 0
M  V30 12282 C 1174.53 -4.495 0.133992 0
M  V30 12283 C 1173.3 -5.01857 0.588851 0
M  V30 12284 C 1175.5 -5.05637 0.939971 0
M  V30 12285 N 1173.48 -5.90866 1.66585 0
M  V30 12286 C 1174.85 -5.91236 1.86655 0
M  V30 12287 C 1176.9 -4.88093 0.983319 0
M  V30 12288 C 1175.61 -6.61167 2.83286 0
M  V30 12289 C 1177.63 -5.58757 1.93764 0
M  V30 12290 C 1177 -6.44096 2.85167 0
M  V30 12291 H 1173.09 -0.770833 -0.131684 0
M  V30 12292 H 1175.68 -1.9252 0.290571 0
M  V30 12293 H 1173.85 -3.50541 -1.6726 0
M  V30 12294 H 1175.58 -3.73036 -1.56926 0
M  V30 12295 H 1172.34 -4.73244 0.183712 0
M  V30 12296 H 1172.76 -6.40075 2.2053 0
M  V30 12297 H 1177.4 -4.218 0.290658 0
M  V30 12298 H 1175.12 -7.26664 3.53532 0
M  V30 12299 H 1178.71 -5.47163 1.97748 0
M  V30 12300 H 1177.59 -6.97813 3.57808 0
M  V30 12301 N 1175.09 0.086862 -1.5736 0
M  V30 12302 C 1176.04 1.12359 -2.03662 0
M  V30 12303 C 1177.03 1.40982 -0.939169 0
M  V30 12304 O 1178.24 1.40566 -1.12433 0
M  V30 12305 H 1174.61 0.379605 -0.649156 0
M  V30 12306 H 1176.58 0.706822 -2.89908 0
M  V30 12307 C 1175.33 2.43327 -2.48369 0
M  V30 12308 H 1174.66 2.22148 -3.324 0
M  V30 12309 H 1176.1 3.14351 -2.84534 0
M  V30 12310 C 1174.55 3.08214 -1.36036 0
M  V30 12311 O 1175.08 3.95659 -0.694063 0
M  V30 12312 N 1173.29 2.68596 -1.10927 0
M  V30 12313 H 1172.84 1.97578 -1.6529 0
M  V30 12314 H 1172.8 3.12336 -0.359679 0
M  V30 12315 N 1176.57 1.53483 0.357892 0
M  V30 12316 C 1177.82 1.69256 1.09706 0
M  V30 12317 C 1178.13 0.454888 1.90237 0
M  V30 12318 O 1179.34 0.4933 2.66981 0
M  V30 12319 C 1177.79 2.99238 1.99961 0
M  V30 12320 C 1177.4 4.30293 1.24706 0
M  V30 12321 C 1179.14 3.24378 2.73823 0
M  V30 12322 C 1177.05 5.5136 2.13907 0
M  V30 12323 H 1175.98 0.630657 0.413265 0
M  V30 12324 H 1178.63 1.79983 0.357518 0
M  V30 12325 H 1177.01 2.82332 2.77677 0
M  V30 12326 H 1178.19 4.57857 0.519995 0
M  V30 12327 H 1176.5 4.11656 0.626736 0
M  V30 12328 H 1179.1 4.12015 3.40805 0
M  V30 12329 H 1179.44 2.40769 3.39612 0
M  V30 12330 H 1179.98 3.41994 2.03187 0
M  V30 12331 H 1176.71 6.3747 1.52684 0
M  V30 12332 H 1176.23 5.28065 2.84442 0
M  V30 12333 H 1177.91 5.86448 2.7329 0
M  V30 12334 N 1178.05 -0.61812 1.44973 0
M  V30 12335 C 1179.32 -1.37705 1.38913 0
M  V30 12336 C 1179.7 -2.1103 0.054385 0
M  V30 12337 O 1179.05 -2.07197 -0.963409 0
M  V30 12338 C 1179.26 -2.33265 2.59593 0
M  V30 12339 C 1180.61 -2.96197 3.04224 0
M  V30 12340 O 1181.63 -2.43589 2.59891 0
M  V30 12341 O 1180.49 -3.91666 3.8113 0
M  V30 12342 H 1177.59 -0.61694 0.55074 0
M  V30 12343 H 1180.13 -0.642088 1.57084 0
M  V30 12344 H 1178.9 -1.78271 3.48332 0
M  V30 12345 H 1178.53 -3.14158 2.43702 0
M  V30 12346 N 1179.52 -1.32087 -0.859693 0
M  V30 12347 C 1180.47 -1.20549 -1.98924 0
M  V30 12348 C 1181.47 -0.111422 -1.69033 0
M  V30 12349 O 1182.67 -0.27401 -1.77902 0
M  V30 12350 H 1179.05 -0.373538 -0.652667 0
M  V30 12351 H 1181.02 -2.16091 -2.05785 0
M  V30 12352 C 1179.77 -0.940226 -3.34746 0
M  V30 12353 H 1179.09 -1.77427 -3.58273 0
M  V30 12354 H 1180.53 -0.899712 -4.14344 0
M  V30 12355 C 1178.99 0.357042 -3.35003 0
M  V30 12356 O 1179.52 1.37054 -3.77596 0
M  V30 12357 N 1177.72 0.37723 -2.88141 0
M  V30 12358 H 1177.27 -0.448051 -2.53674 0
M  V30 12359 H 1177.23 1.24509 -2.88695 0
M  V30 12360 N 1181 1.07532 -1.15215 0
M  V30 12361 C 1181.95 2.16785 -0.843022 0
M  V30 12362 C 1182.94 1.68411 0.182802 0
M  V30 12363 O 1184.15 1.7996 0.0380164 0
M  V30 12364 H 1180.52 0.707465 -0.254945 0
M  V30 12365 H 1182.5 2.40078 -1.77215 0
M  V30 12366 C 1181.24 3.45967 -0.346699 0
M  V30 12367 H 1180.57 3.83574 -1.12744 0
M  V30 12368 H 1182.01 4.23663 -0.169039 0
M  V30 12369 C 1180.47 3.23768 0.931437 0
M  V30 12370 O 1181 3.48179 2.00336 0
M  V30 12371 N 1179.2 2.77264 0.870217 0
M  V30 12372 H 1178.75 2.576 -0.00226223 0
M  V30 12373 H 1178.71 2.6279 1.72594 0
M  V30 12374 N 1182.48 0.948665 1.2585 0
M  V30 12375 C 1183.73 0.600236 1.934 0
M  V30 12376 C 1184.06 -0.86185 1.74363 0
M  V30 12377 O 1183.31 -1.63294 1.07858 0
M  V30 12378 C 1183.61 0.89784 3.45939 0
M  V30 12379 C 1183.28 2.345 3.85124 0
M  V30 12380 C 1181.94 2.74058 3.95532 0
M  V30 12381 C 1184.29 3.2851 4.04636 0
M  V30 12382 C 1181.62 4.06707 4.22855 0
M  V30 12383 C 1183.97 4.60764 4.3345 0
M  V30 12384 C 1182.63 5.00127 4.42074 0
M  V30 12385 H 1181.9 0.219642 0.707699 0
M  V30 12386 H 1184.55 1.19658 1.49513 0
M  V30 12387 H 1182.86 0.219037 3.91187 0
M  V30 12388 H 1184.55 0.606916 3.96381 0
M  V30 12389 H 1181.14 2.02819 3.77574 0
M  V30 12390 H 1185.33 2.99141 3.96015 0
M  V30 12391 H 1180.58 4.36856 4.27746 0
M  V30 12392 H 1184.76 5.33594 4.47493 0
M  V30 12393 H 1182.38 6.02939 4.63 0
M  V30 12394 O 1184 -1.37026 0.854759 0
M  V30 12395 H 1184.69 -1.88433 0.448626 0
M  V30 END ATOM
M  V30 BEGIN BOND
M  V30 END BOND
M  V30 END CTAB
M  END
$$$$
