drugbank_target|Q9UPZ9 Serine/threonine-protein kinase ICK (DB12010)
 OpenBabel12092121153D

  0  0  0     0  0            999 V3000
M  V30 BEGIN CTAB
M  V30 COUNTS 10108 10251 0 0 0
M  V30 BEGIN ATOM
M  V30 1 H -0.908 1.98254 -0.117106 0
M  V30 2 N 0 1.576 0 0
M  V30 3 C 0.933 2.03868 1.02534 0
M  V30 4 C 1.911 0.928543 1.3348 0
M  V30 5 O 3.095 1.19667 1.45644 0
M  V30 6 C 0.222 2.43627 2.35294 0
M  V30 7 C -0.732 3.65373 2.2001 0
M  V30 8 S 0.101 5.13292 1.52614 0
M  V30 9 C 1.257 5.56322 2.86805 0
M  V30 10 H 1.49 2.90518 0.631377 0
M  V30 11 H -0.977 1.52953 0.210867 0
M  V30 12 H 0.981 2.67203 3.11629 0
M  V30 13 H -0.358 1.57376 2.7183 0
M  V30 14 H -1.165 3.90944 3.18086 0
M  V30 15 H -1.563 3.418 1.51819 0
M  V30 16 H 0.729 5.58782 3.83104 0
M  V30 17 H 1.672 6.56266 2.65933 0
M  V30 18 H 2.08 4.83886 2.90714 0
M  V30 19 N 1.4781 -0.272755 1.55222 0
M  V30 20 C 2.4261 -1.35705 1.88909 0
M  V30 21 C 3.4201 -1.5112 0.765456 0
M  V30 22 O 4.6261 -1.52901 0.949802 0
M  V30 23 H 1.0011 -0.453868 0.59959 0
M  V30 24 H 2.9721 -1.04544 2.79487 0
M  V30 25 C 1.7211 -2.71049 2.17779 0
M  V30 26 H 1.0441 -2.59979 3.03728 0
M  V30 27 H 2.4841 -3.45858 2.45272 0
M  V30 28 C 0.9431 -3.22165 0.985473 0
M  V30 29 O 1.4731 -4.01096 0.220233 0
M  V30 30 N -0.3209 -2.7985 0.783108 0
M  V30 31 H -0.7739 -2.15775 1.40708 0
M  V30 32 H -0.8159 -3.14397 -0.0130392 0
M  V30 33 N 2.9562 -1.48159 -0.537278 0
M  V30 34 C 4.3722 -1.34118 -0.865129 0
M  V30 35 C 4.5722 -0.346678 -1.98495 0
M  V30 36 O 3.6282 0.234715 -2.51407 0
M  V30 37 C 4.9412 -2.73963 -1.23954 0
M  V30 38 C 6.4892 -2.82397 -1.34984 0
M  V30 39 C 6.9642 -4.22928 -1.75772 0
M  V30 40 N 8.4552 -4.25566 -1.82887 0
M  V30 41 C 9.1902 -5.31235 -2.15817 0
M  V30 42 N 8.6862 -6.47189 -2.47222 0
M  V30 43 N 10.4792 -5.18624 -2.16761 0
M  V30 44 H 2.6302 -2.1144 0.201715 0
M  V30 45 H 4.8932 -0.947598 0.0275949 0
M  V30 46 H 4.5992 -3.48264 -0.490381 0
M  V30 47 H 4.4732 -3.0702 -2.19132 0
M  V30 48 H 6.8602 -2.08356 -2.08978 0
M  V30 49 H 6.9412 -2.5297 -0.379448 0
M  V30 50 H 6.5852 -4.97482 -1.02341 0
M  V30 51 H 6.5152 -4.49794 -2.73848 0
M  V30 52 H 9.0062 -3.41924 -1.60924 0
M  V30 53 H 9.3192 -7.23564 -2.71433 0
M  V30 54 H 7.6642 -6.50476 -2.44757 0
M  V30 55 H 10.8552 -4.27056 -1.91679 0
M  V30 56 H 11.0282 -6.01078 -2.42093 0
M  V30 57 N 4.4343 0.785586 -1.36625 0
M  V30 58 C 5.6643 1.5722 -1.34036 0
M  V30 59 C 6.0723 1.89033 0.0795062 0
M  V30 60 O 5.4153 1.50881 1.04789 0
M  V30 61 C 5.4773 2.91759 -2.10041 0
M  V30 62 C 5.1413 2.82654 -3.59104 0
M  V30 63 C 6.1383 2.54634 -4.53274 0
M  V30 64 C 3.8233 3.01111 -4.02042 0
M  V30 65 C 5.8173 2.45177 -5.88359 0
M  V30 66 C 3.5043 2.91276 -5.37216 0
M  V30 67 C 4.5023 2.63348 -6.30188 0
M  V30 68 O 4.1903 2.53514 -7.6288 0
M  V30 69 H 3.9223 0.494177 -0.461265 0
M  V30 70 H 6.4763 0.982632 -1.8037 0
M  V30 71 H 4.7063 3.52781 -1.58375 0
M  V30 72 H 6.3953 3.53059 -2.00261 0
M  V30 73 H 7.1613 2.40073 -4.21414 0
M  V30 74 H 3.0403 3.21854 -3.30047 0
M  V30 75 H 6.5843 2.23299 -6.60896 0
M  V30 76 H 2.4813 3.054 -5.68684 0
M  V30 77 H 3.2493 2.68967 -7.73045 0
M  V30 78 N 5.9124 1.20967 1.01018 0
M  V30 79 C 7.1404 1.04956 1.78303 0
M  V30 80 C 7.5554 -0.400915 1.84494 0
M  V30 81 O 6.9124 -1.27826 1.30257 0
M  V30 82 C 6.9634 1.63403 3.22462 0
M  V30 83 O 6.6844 3.02775 3.16637 0
M  V30 84 C 8.1854 1.52432 4.16268 0
M  V30 85 H 5.4054 0.368858 0.560522 0
M  V30 86 H 7.9494 1.60193 1.27116 0
M  V30 87 H 6.1044 1.1227 3.70775 0
M  V30 88 H 6.5184 3.30626 4.07169 0
M  V30 89 H 7.9924 1.98078 5.15237 0
M  V30 90 H 8.4694 0.477875 4.36592 0
M  V30 91 H 9.0754 2.02787 3.73841 0
M  V30 92 N 7.3905 -1.2043 1.01659 0
M  V30 93 C 8.6185 -1.93777 0.725132 0
M  V30 94 C 9.0335 -1.74772 -0.714166 0
M  V30 95 O 8.3905 -1.06169 -1.4844 0
M  V30 96 C 8.4415 -3.45876 1.05129 0
M  V30 97 O 8.1625 -3.6426 2.43406 0
M  V30 98 C 9.6635 -4.36368 0.780891 0
M  V30 99 H 6.8835 -0.615901 0.266284 0
M  V30 100 H 9.4275 -1.52922 1.35776 0
M  V30 101 H 7.5825 -3.8461 0.464065 0
M  V30 102 H 7.9965 -4.58246 2.55169 0
M  V30 103 H 9.4705 -5.41743 1.05918 0
M  V30 104 H 9.9475 -4.38275 -0.284937 0
M  V30 105 H 10.5535 -4.03296 1.35027 0
M  V30 106 N 8.8686 -0.792821 -1.36206 0
M  V30 107 C 10.1176 -0.363353 -1.984 0
M  V30 108 C 10.4306 1.07172 -1.63626 0
M  V30 109 O 11.6366 1.60362 -2.19081 0
M  V30 110 C 10.0926 -0.59872 -3.54885 0
M  V30 111 C 9.7006 -2.04543 -3.9858 0
M  V30 112 C 11.4446 -0.233926 -4.23855 0
M  V30 113 C 9.3516 -2.22727 -5.47856 0
M  V30 114 H 8.2816 -0.13212 -0.742334 0
M  V30 115 H 10.9326 -0.974935 -1.55458 0
M  V30 116 H 9.3146 0.0826222 -3.95914 0
M  V30 117 H 10.4886 -2.76345 -3.68741 0
M  V30 118 H 8.8036 -2.36879 -3.42458 0
M  V30 119 H 11.4006 -0.348027 -5.33566 0
M  V30 120 H 11.7436 0.818351 -4.08177 0
M  V30 121 H 12.2766 -0.868639 -3.882 0
M  V30 122 H 9.0156 -3.2635 -5.68486 0
M  V30 123 H 8.5356 -1.55434 -5.7931 0
M  V30 124 H 10.2146 -2.03607 -6.14128 0
M  V30 125 N 10.3467 1.47872 -0.545128 0
M  V30 126 C 11.7627 1.5829 -0.204032 0
M  V30 127 C 11.9627 1.54529 1.29317 0
M  V30 128 O 11.0187 1.44232 2.07252 0
M  V30 129 C 12.3317 2.89304 -0.819987 0
M  V30 130 C 13.8797 3.02864 -0.790105 0
M  V30 131 C 14.3547 4.3656 -1.38491 0
M  V30 132 N 15.8457 4.43165 -1.34755 0
M  V30 133 C 16.5807 5.45153 -1.77753 0
M  V30 134 N 16.0767 6.54016 -2.2855 0
M  V30 135 N 17.8697 5.36125 -1.68897 0
M  V30 136 H 10.0207 1.4856 -1.51802 0
M  V30 137 H 12.2837 0.706305 -0.632327 0
M  V30 138 H 11.9897 2.97757 -1.87173 0
M  V30 139 H 11.8637 3.75957 -0.305915 0
M  V30 140 H 14.2507 2.94014 0.252913 0
M  V30 141 H 14.3317 2.17782 -1.34181 0
M  V30 142 H 13.9757 4.46164 -2.42693 0
M  V30 143 H 13.9057 5.20353 -0.808754 0
M  V30 144 H 16.3967 3.65083 -0.975855 0
M  V30 145 H 16.7097 7.27994 -2.59314 0
M  V30 146 H 15.0547 6.54938 -2.32553 0
M  V30 147 H 18.2457 4.49975 -1.28998 0
M  V30 148 H 18.4187 6.15472 -2.02726 0
M  V30 149 N 11.8248 0.280983 1.55075 0
M  V30 150 C 12.7568 -0.637268 2.20163 0
M  V30 151 C 13.7698 -1.11298 1.18813 0
M  V30 152 O 14.9588 -1.03388 1.4551 0
M  V30 153 C 12.0588 -1.88199 2.81841 0
M  V30 154 C 11.2318 -1.55211 4.08936 0
M  V30 155 C 10.2908 -2.64991 4.54606 0
M  V30 156 O 9.3168 -2.30929 5.2025 0
M  V30 157 N 10.5188 -3.95161 4.25238 0
M  V30 158 H 13.2838 -0.0801694 2.99593 0
M  V30 159 H 10.8448 0.102329 1.61576 0
M  V30 160 H 12.8368 -2.60948 3.09335 0
M  V30 161 H 11.4068 -2.34799 2.06369 0
M  V30 162 H 10.6268 -0.658185 3.88666 0
M  V30 163 H 11.9148 -1.30681 4.91732 0
M  V30 164 H 11.3128 -4.25653 3.72607 0
M  V30 165 H 9.8698 -4.6427 4.5749 0
M  V30 166 N 13.3029 -1.57598 0.00835791 0
M  V30 167 C 14.2329 -2.1198 -0.979113 0
M  V30 168 C 15.2139 -1.03091 -1.35301 0
M  V30 169 O 16.3989 -1.30818 -1.43528 0
M  V30 170 C 13.5289 -2.62995 -2.26828 0
M  V30 171 C 12.4829 -3.76485 -2.03576 0
M  V30 172 C 11.8089 -4.13846 -3.38579 0
M  V30 173 C 13.1089 -5.0342 -1.39161 0
M  V30 174 H 14.8029 -2.94738 -0.526281 0
M  V30 175 H 12.3489 -1.41783 -0.251704 0
M  V30 176 H 14.3019 -2.99669 -2.96271 0
M  V30 177 H 13.0259 -1.7737 -2.7424 0
M  V30 178 H 11.6849 -3.40217 -1.36557 0
M  V30 179 H 11.3329 -3.25232 -3.83709 0
M  V30 180 H 11.0329 -4.90312 -3.23834 0
M  V30 181 H 12.5569 -4.53086 -4.09323 0
M  V30 182 H 13.9709 -5.37812 -1.98573 0
M  V30 183 H 12.3679 -5.84746 -1.34878 0
M  V30 184 H 13.4379 -4.83548 -0.361868 0
M  V30 185 N 14.781 0.264519 -1.55364 0
M  V30 186 C 16.029 0.993021 -1.76021 0
M  V30 187 C 16.35 1.86511 -0.569099 0
M  V30 188 O 15.62 1.91438 0.415735 0
M  V30 189 H 14.2 0.369639 -0.649135 0
M  V30 190 H 16.862 0.286707 -1.9278 0
M  V30 191 H 15.958 1.62502 -2.66457 0
M  V30 192 N 16.2591 1.48442 0.529413 0
M  V30 193 C 17.5361 1.46978 1.29062 0
M  V30 194 C 17.9161 0.181769 2.10316 0
M  V30 195 O 17.2641 -0.836481 2.12639 0
M  V30 196 C 17.4741 2.7321 2.17157 0
M  V30 197 C 18.8221 3.21562 2.77278 0
M  V30 198 O 19.8461 2.74131 2.27444 0
M  V30 199 O 18.7051 4.04094 3.67927 0
M  V30 200 H 15.7991 0.587003 0.582543 0
M  V30 201 H 18.3451 1.60676 0.546021 0
M  V30 202 H 17.1171 3.58465 1.56903 0
M  V30 203 H 16.7401 2.62235 2.98862 0
M  V30 204 N 17.7372 -0.778329 1.37039 0
M  V30 205 C 18.9852 -1.53361 1.31623 0
M  V30 206 C 19.3062 -1.94739 -0.100831 0
M  V30 207 O 18.5762 -1.65797 -1.04347 0
M  V30 208 H 17.1562 -0.568794 0.484234 0
M  V30 209 H 19.8182 -0.926742 1.71457 0
M  V30 210 H 18.9142 -2.43606 1.95096 0
M  V30 211 N 19.2153 -1.21501 -1.00376 0
M  V30 212 C 20.4433 -1.059 -1.77744 0
M  V30 213 C 20.8583 0.391125 -1.84704 0
M  V30 214 O 20.2153 1.27133 -1.30933 0
M  V30 215 C 20.2663 -1.65111 -3.21591 0
M  V30 216 O 19.9873 -3.0445 -3.15027 0
M  V30 217 C 21.4883 -1.54637 -4.15454 0
M  V30 218 H 18.7083 -0.371825 -0.558558 0
M  V30 219 H 21.2523 -1.60865 -1.26264 0
M  V30 220 H 19.4073 -1.14235 -3.70175 0
M  V30 221 H 19.8213 -3.3278 -4.0541 0
M  V30 222 H 21.2953 -2.00808 -5.14179 0
M  V30 223 H 21.7723 -0.501022 -4.36333 0
M  V30 224 H 22.3783 -2.04767 -3.72761 0
M  V30 225 N 20.6934 1.19889 -1.02296 0
M  V30 226 C 21.9234 1.93109 -0.734332 0
M  V30 227 C 22.3314 1.75377 0.709889 0
M  V30 228 O 21.6744 1.06912 1.49384 0
M  V30 229 C 21.7364 3.45362 -0.99827 0
M  V30 230 C 21.4004 3.8686 -2.43287 0
M  V30 231 C 22.3974 3.92102 -3.41397 0
M  V30 232 C 20.0824 4.18668 -2.77529 0
M  V30 233 C 22.0764 4.28573 -4.71809 0
M  V30 234 C 19.7634 4.54813 -4.08153 0
M  V30 235 C 20.7614 4.59739 -5.05103 0
M  V30 236 O 20.4494 4.95051 -6.33388 0
M  V30 237 H 20.1814 0.620409 -0.268456 0
M  V30 238 H 22.7354 1.53144 -1.3688 0
M  V30 239 H 20.9654 3.85482 -0.306645 0
M  V30 240 H 22.6544 3.99814 -0.700234 0
M  V30 241 H 23.4204 3.67685 -3.1628 0
M  V30 242 H 19.2994 4.14021 -2.0275 0
M  V30 243 H 22.8434 4.32333 -5.4748 0
M  V30 244 H 18.7404 4.78687 -4.33047 0
M  V30 245 H 19.5084 5.1302 -6.37772 0
M  V30 246 N 22.1715 0.800033 1.35784 0
M  V30 247 C 23.4195 0.376597 1.9856 0
M  V30 248 C 23.7405 -1.05812 1.63795 0
M  V30 249 O 23.0105 -1.73103 0.917171 0
M  V30 250 H 21.5905 0.136261 0.734467 0
M  V30 251 H 24.2525 1.02442 1.65806 0
M  V30 252 H 23.3485 0.477002 3.08433 0
M  V30 253 N 23.6496 -1.47581 0.552962 0
M  V30 254 C 24.8746 -2.07378 0.0300593 0
M  V30 255 C 25.2996 -1.40355 -1.25229 0
M  V30 256 O 24.6576 -0.477099 -1.7491 0
M  V30 257 C 24.7056 -3.60274 -0.153231 0
M  V30 258 O 23.8096 -3.94041 -1.21678 0
M  V30 259 H 23.1506 -0.662158 0.0494182 0
M  V30 260 H 25.6806 -1.89662 0.767434 0
M  V30 261 H 25.6906 -4.0633 -0.368761 0
M  V30 262 H 24.3656 -4.08455 0.783397 0
M  V30 263 H 22.9426 -3.59735 -0.982079 0
M  V30 264 N 25.1277 -0.289203 -1.54924 0
M  V30 265 C 26.3737 0.323998 -2.00195 0
M  V30 266 C 26.7067 1.54441 -1.17735 0
M  V30 267 O 25.9817 1.92875 -0.250878 0
M  V30 268 C 26.2647 0.692276 -3.53383 0
M  V30 269 C 26.1177 -0.536457 -4.46589 0
M  V30 270 C 27.4367 1.52335 -4.12895 0
M  V30 271 H 24.5557 0.116289 -0.727768 0
M  V30 272 H 27.1977 -0.398954 -1.85764 0
M  V30 273 H 25.3477 1.30822 -3.65811 0
M  V30 274 H 27.0197 -1.17499 -4.46085 0
M  V30 275 H 25.2627 -1.17192 -4.1767 0
M  V30 276 H 25.9337 -0.234806 -5.515 0
M  V30 277 H 28.4097 1.00302 -4.0383 0
M  V30 278 H 27.2857 1.74982 -5.20262 0
M  V30 279 H 27.5467 2.50886 -3.64018 0
M  V30 280 N 26.6058 1.57591 -0.0167156 0
M  V30 281 C 27.5358 2.12496 0.967858 0
M  V30 282 C 28.5168 1.03807 1.34752 0
M  V30 283 O 29.7018 1.31577 1.42833 0
M  V30 284 C 26.8318 2.64194 2.25431 0
M  V30 285 C 25.7858 3.77559 2.01576 0
M  V30 286 C 25.1118 4.15636 3.36379 0
M  V30 287 C 26.4118 5.04151 1.36489 0
M  V30 288 H 28.1058 2.95013 0.510643 0
M  V30 289 H 25.6518 1.41915 0.244181 0
M  V30 290 H 27.6048 3.01236 2.94678 0
M  V30 291 H 26.3288 1.78821 2.73296 0
M  V30 292 H 24.9878 3.40937 1.34751 0
M  V30 293 H 24.6358 3.27263 3.81979 0
M  V30 294 H 24.3358 4.92022 3.21229 0
M  V30 295 H 25.8598 4.5525 4.06915 0
M  V30 296 H 27.2738 5.38857 1.95718 0
M  V30 297 H 25.6708 5.85453 1.31776 0
M  V30 298 H 26.7408 4.83733 0.336219 0
M  V30 299 N 28.0839 -0.256276 1.55502 0
M  V30 300 C 29.0139 -1.32102 1.92539 0
M  V30 301 C 29.9949 -1.50684 0.789194 0
M  V30 302 O 31.1799 -1.63449 1.04872 0
M  V30 303 C 28.3099 -2.67752 2.21192 0
M  V30 304 C 27.2639 -2.63878 3.36975 0
M  V30 305 C 26.5899 -4.03236 3.51147 0
M  V30 306 C 27.8899 -2.21682 4.72921 0
M  V30 307 H 29.5839 -1.01351 2.81724 0
M  V30 308 H 27.1299 -0.486105 1.35547 0
M  V30 309 H 29.0829 -3.42365 2.45691 0
M  V30 310 H 27.8069 -3.0012 1.28824 0
M  V30 311 H 26.4659 -1.91722 3.12471 0
M  V30 312 H 26.1139 -4.32854 2.56216 0
M  V30 313 H 25.8139 -4.01535 4.29003 0
M  V30 314 H 27.3379 -4.79563 3.77957 0
M  V30 315 H 28.7519 -2.86023 4.96854 0
M  V30 316 H 27.1489 -2.3111 5.53812 0
M  V30 317 H 28.2189 -1.16833 4.70615 0
M  V30 318 N 29.562 -1.4872 -0.521534 0
M  V30 319 C 30.81 -1.56857 -1.27437 0
M  V30 320 C 31.131 -0.247982 -1.93417 0
M  V30 321 O 30.401 0.731151 -1.81744 0
M  V30 322 H 28.981 -0.577885 -0.473347 0
M  V30 323 H 31.643 -1.85233 -0.606205 0
M  V30 324 H 30.739 -2.35402 -2.0492 0
M  V30 325 N 31.0401 0.771051 -1.3745 0
M  V30 326 C 32.4561 1.07171 -1.18265 0
M  V30 327 C 32.6561 2.01491 -0.019287 0
M  V30 328 O 31.7121 2.44244 0.640408 0
M  V30 329 C 33.0251 1.66854 -2.50161 0
M  V30 330 C 34.5731 1.79109 -2.56689 0
M  V30 331 C 35.0481 2.42205 -3.88717 0
M  V30 332 N 36.5391 2.49655 -3.90162 0
M  V30 333 C 37.2741 2.9933 -4.8907 0
M  V30 334 N 36.7701 3.49172 -5.98374 0
M  V30 335 N 38.5631 2.9821 -4.76474 0
M  V30 336 H 30.7141 0.144796 -2.11906 0
M  V30 337 H 32.9771 0.126863 -0.939473 0
M  V30 338 H 32.6831 1.05017 -3.35655 0
M  V30 339 H 32.5571 2.6614 -2.673 0
M  V30 340 H 34.9441 2.40077 -1.71601 0
M  V30 341 H 35.0251 0.785757 -2.43433 0
M  V30 342 H 34.6691 1.81875 -4.74219 0
M  V30 343 H 34.5991 3.43345 -3.99276 0
M  V30 344 H 37.0901 2.14383 -3.11205 0
M  V30 345 H 37.4031 3.8548 -6.69795 0
M  V30 346 H 35.7481 3.47275 -6.02018 0
M  V30 347 H 38.9391 2.58572 -3.90203 0
M  V30 348 H 39.1121 3.36613 -5.53711 0
M  V30 349 N 32.5182 1.22032 0.997298 0
M  V30 350 C 33.7432 1.06921 1.77715 0
M  V30 351 C 34.1682 -0.376226 1.84299 0
M  V30 352 O 33.5262 -1.27165 1.29223 0
M  V30 353 C 33.5742 1.67996 3.19076 0
M  V30 354 O 32.6782 0.930653 4.01762 0
M  V30 355 H 32.0192 0.375814 0.547412 0
M  V30 356 H 34.5492 1.61737 1.25309 0
M  V30 357 H 34.5592 1.72538 3.69723 0
M  V30 358 H 33.2342 2.73182 3.13599 0
M  V30 359 H 31.8112 0.960917 3.60307 0
M  V30 360 N 33.9963 -1.19345 1.0293 0
M  V30 361 C 35.2453 -1.88363 0.721256 0
M  V30 362 C 35.5583 -1.80514 -0.753254 0
M  V30 363 O 36.7643 -2.44788 -1.17436 0
M  V30 364 C 35.2203 -3.37872 1.23978 0
M  V30 365 C 34.8283 -3.54278 2.74211 0
M  V30 366 C 36.5723 -4.12365 1.00775 0
M  V30 367 C 34.4793 -4.97682 3.19479 0
M  V30 368 H 33.4093 -0.705484 0.266098 0
M  V30 369 H 36.0603 -1.34928 1.24365 0
M  V30 370 H 34.4423 -3.90707 0.6453 0
M  V30 371 H 35.6163 -3.11769 3.39318 0
M  V30 372 H 33.9313 -2.93174 2.95699 0
M  V30 373 H 36.5283 -5.18119 1.32123 0
M  V30 374 H 36.8713 -4.16263 -0.0554308 0
M  V30 375 H 37.4043 -3.65668 1.56625 0
M  V30 376 H 34.1433 -4.98945 4.25128 0
M  V30 377 H 33.6633 -5.4095 2.591 0
M  V30 378 H 35.3423 -5.66337 3.12845 0
M  V30 379 N 35.4744 -0.807222 -1.35358 0
M  V30 380 C 36.3844 -0.219594 -2.3357 0
M  V30 381 C 37.4004 0.637734 -1.61892 0
M  V30 382 O 38.5764 0.549336 -1.93763 0
M  V30 383 C 35.6414 0.62158 -3.41083 0
M  V30 384 C 34.7024 -0.256315 -4.28534 0
M  V30 385 C 33.9354 0.544807 -5.30912 0
M  V30 386 O 34.1584 1.77944 -5.41934 0
M  V30 387 O 33.0924 -0.0646478 -6.01865 0
M  V30 388 H 36.9184 -1.03208 -2.85625 0
M  V30 389 H 34.5034 -0.569025 -1.38139 0
M  V30 390 H 36.3854 1.10067 -4.06772 0
M  V30 391 H 35.0604 1.41165 -2.91297 0
M  V30 392 H 33.9674 -0.782559 -3.65823 0
M  V30 393 H 35.3004 -1.01034 -4.81719 0
M  V30 394 N 36.9525 1.47285 -0.560781 0
M  V30 395 C 38.1775 2.07359 -0.0410566 0
M  V30 396 C 38.6025 1.41017 1.24483 0
M  V30 397 O 37.9605 0.486368 1.74654 0
M  V30 398 C 38.0085 3.6035 0.134123 0
M  V30 399 O 37.1125 3.94681 1.19587 0
M  V30 400 H 36.4535 0.661887 -0.0529291 0
M  V30 401 H 38.9835 1.89252 -0.777482 0
M  V30 402 H 38.9935 4.0652 0.347207 0
M  V30 403 H 37.6685 4.08034 -0.805047 0
M  V30 404 H 36.2455 3.60251 0.962987 0
M  V30 405 N 38.4306 0.297415 1.54768 0
M  V30 406 C 39.6786 -0.312295 1.99673 0
M  V30 407 C 39.9996 -1.54686 1.18732 0
M  V30 408 O 39.2696 -1.93854 0.282382 0
M  V30 409 H 37.8496 -0.118381 0.73756 0
M  V30 410 H 40.5116 0.407915 1.90583 0
M  V30 411 H 39.6076 -0.586813 3.06534 0
M  V30 412 N 39.9087 -1.5758 0.0250728 0
M  V30 413 C 40.8187 -2.1343 -0.973905 0
M  V30 414 C 41.8347 -1.08556 -1.35984 0
M  V30 415 O 43.0107 -1.40592 -1.44207 0
M  V30 416 C 40.0757 -2.64703 -2.23904 0
M  V30 417 C 39.1367 -3.84276 -1.91391 0
M  V30 418 C 38.3697 -4.33095 -3.11873 0
M  V30 419 O 38.5927 -3.81107 -4.24398 0
M  V30 420 O 37.5267 -5.24984 -2.94406 0
M  V30 421 H 41.3527 -2.99057 -0.529036 0
M  V30 422 H 38.9377 -1.48118 -0.195288 0
M  V30 423 H 40.8197 -2.97769 -2.98181 0
M  V30 424 H 39.4947 -1.82161 -2.6758 0
M  V30 425 H 38.4017 -3.56143 -1.14511 0
M  V30 426 H 39.7347 -4.67968 -1.52534 0
M  V30 427 N 41.3868 0.248026 -1.55636 0
M  V30 428 C 42.3168 1.31079 -1.93237 0
M  V30 429 C 43.2978 1.50264 -0.797174 0
M  V30 430 O 44.4828 1.62891 -1.05737 0
M  V30 431 C 41.6128 2.66575 -2.22609 0
M  V30 432 C 40.5668 2.62087 -3.3837 0
M  V30 433 C 39.8928 4.01369 -3.53281 0
M  V30 434 C 41.1928 2.19171 -4.7409 0
M  V30 435 H 42.8868 0.998556 -2.82257 0
M  V30 436 H 40.4328 0.47891 -1.35803 0
M  V30 437 H 42.3858 3.41057 -2.47503 0
M  V30 438 H 41.1098 2.99432 -1.30414 0
M  V30 439 H 39.7688 1.90063 -3.13483 0
M  V30 440 H 39.4168 4.31489 -2.58508 0
M  V30 441 H 39.1168 3.99254 -4.31127 0
M  V30 442 H 40.6408 4.77552 -3.80495 0
M  V30 443 H 42.0548 2.83384 -4.98363 0
M  V30 444 H 40.4518 2.2817 -5.5503 0
M  V30 445 H 41.5218 1.14336 -4.71227 0
M  V30 446 N 42.8649 1.48995 0.513639 0
M  V30 447 C 44.1139 1.57093 1.2651 0
M  V30 448 C 44.4269 0.257091 1.93903 0
M  V30 449 O 45.6329 0.216478 2.70636 0
M  V30 450 C 44.0889 2.77118 2.29638 0
M  V30 451 C 43.6969 4.15209 1.68241 0
M  V30 452 C 45.4409 2.94538 3.05692 0
M  V30 453 C 43.3479 5.26474 2.69406 0
M  V30 454 H 42.2779 0.584876 0.475854 0
M  V30 455 H 44.9289 1.7536 0.540487 0
M  V30 456 H 43.3109 2.52319 3.05207 0
M  V30 457 H 44.4849 4.50094 0.987505 0
M  V30 458 H 42.7999 4.03042 1.04623 0
M  V30 459 H 45.3969 3.74832 3.8132 0
M  V30 460 H 45.7399 2.04614 3.62545 0
M  V30 461 H 46.2729 3.19316 2.37238 0
M  V30 462 H 43.0119 6.18417 2.17351 0
M  V30 463 H 42.5319 4.96058 3.37175 0
M  V30 464 H 44.2109 5.55277 3.32078 0
M  V30 465 N 44.343 -0.763751 1.37857 0
M  V30 466 C 45.306 -1.85889 1.34081 0
M  V30 467 C 46.306 -1.58949 0.243277 0
M  V30 468 O 47.496 -1.66882 0.499589 0
M  V30 469 C 44.628 -3.23176 1.08489 0
M  V30 470 H 45.821 -1.90648 2.31502 0
M  V30 471 H 43.374 -0.964367 1.23003 0
M  V30 472 H 44.109 -3.24091 0.116318 0
M  V30 473 H 43.894 -3.44124 1.8794 0
M  V30 474 H 45.384 -4.03254 1.08517 0
M  V30 475 N 45.8211 -1.22559 -0.990812 0
M  V30 476 C 47.0701 -1.04553 -1.72486 0
M  V30 477 C 47.3831 0.419349 -1.91052 0
M  V30 478 O 48.5891 0.719121 -2.61803 0
M  V30 479 C 47.0451 -1.82231 -3.10355 0
M  V30 480 C 46.6531 -3.32981 -2.99713 0
M  V30 481 C 48.3971 -1.7268 -3.87791 0
M  V30 482 C 46.3041 -4.03091 -4.32748 0
M  V30 483 H 45.2341 -0.387614 -0.646739 0
M  V30 484 H 47.8851 -1.46429 -1.10593 0
M  V30 485 H 46.2671 -1.33155 -3.72942 0
M  V30 486 H 47.4411 -3.89466 -2.46278 0
M  V30 487 H 45.7561 -3.43231 -2.35758 0
M  V30 488 H 48.3531 -2.22381 -4.86262 0
M  V30 489 H 48.6961 -0.687607 -4.10582 0
M  V30 490 H 49.2291 -2.1931 -3.31885 0
M  V30 491 H 45.9681 -5.07273 -4.15156 0
M  V30 492 H 45.4881 -3.51394 -4.86089 0
M  V30 493 H 47.1671 -4.08804 -5.01486 0
M  V30 494 N 47.2992 1.18797 -1.03562 0
M  V30 495 C 48.2462 2.22253 -0.622259 0
M  V30 496 C 49.2162 1.61987 0.36736 0
M  V30 497 O 50.4012 1.88986 0.262492 0
M  V30 498 C 47.5412 3.45097 0.0138462 0
M  V30 499 C 46.6542 4.19722 -1.02263 0
M  V30 500 C 45.7892 5.30009 -0.355573 0
M  V30 501 C 44.8282 5.96399 -1.37749 0
M  V30 502 N 43.9652 6.98234 -0.735766 0
M  V30 503 H 48.8052 2.56968 -1.50903 0
M  V30 504 H 46.3422 1.26245 -0.755017 0
M  V30 505 H 48.3002 4.15279 0.399948 0
M  V30 506 H 46.9302 3.11018 0.864158 0
M  V30 507 H 45.9822 3.48418 -1.52673 0
M  V30 508 H 47.2942 4.65227 -1.79903 0
M  V30 509 H 46.4482 6.0664 0.0850095 0
M  V30 510 H 45.1872 4.85592 0.452967 0
M  V30 511 H 44.1922 5.18512 -1.82826 0
M  V30 512 H 45.4172 6.42899 -2.18764 0
M  V30 513 H 43.3632 6.55979 0.0525597 0
M  V30 514 H 43.2802 7.41965 -1.44995 0
M  V30 515 H 44.5482 7.78845 -0.31941 0
M  V30 516 N 48.7773 0.814389 1.34928 0
M  V30 517 C 49.7243 0.22822 2.29669 0
M  V30 518 C 50.6943 -0.642164 1.53184 0
M  V30 519 O 51.8793 -0.585605 1.81591 0
M  V30 520 C 49.0193 -0.61089 3.3965 0
M  V30 521 C 48.1323 0.280792 4.31086 0
M  V30 522 C 47.2673 -0.567067 5.28165 0
M  V30 523 C 46.3063 0.324531 6.11239 0
M  V30 524 N 45.4433 -0.483756 7.00431 0
M  V30 525 H 50.2833 1.04153 2.79206 0
M  V30 526 H 47.8203 0.525133 1.37407 0
M  V30 527 H 49.7783 -1.11263 4.0209 0
M  V30 528 H 48.4083 -1.38939 2.91369 0
M  V30 529 H 47.4603 0.900688 3.69583 0
M  V30 530 H 48.7723 0.966723 4.89342 0
M  V30 531 H 47.9263 -1.13363 5.96015 0
M  V30 532 H 46.6653 -1.28654 4.70425 0
M  V30 533 H 45.6703 0.903298 5.42329 0
M  V30 534 H 46.8953 1.04198 6.71059 0
M  V30 535 H 44.8413 -1.18706 6.45171 0
M  V30 536 H 44.7583 0.143965 7.55863 0
M  V30 537 H 46.0263 -1.03334 7.7262 0
M  V30 538 N 50.2554 -1.46986 0.568584 0
M  V30 539 C 51.1884 -2.27129 -0.220779 0
M  V30 540 C 52.1664 -1.34757 -0.909905 0
M  V30 541 O 53.3504 -1.64152 -0.926622 0
M  V30 542 C 50.4774 -3.12108 -1.31553 0
M  V30 543 C 49.5234 -4.20141 -0.733748 0
M  V30 544 S 50.3564 -5.33783 0.428479 0
M  V30 545 C 51.5124 -6.22327 -0.667811 0
M  V30 546 H 51.7454 -2.93731 0.459267 0
M  V30 547 H 49.2784 -1.5026 0.355154 0
M  V30 548 H 51.2364 -3.61636 -1.94241 0
M  V30 549 H 49.8974 -2.44847 -1.96746 0
M  V30 550 H 49.0904 -4.79373 -1.5562 0
M  V30 551 H 48.6924 -3.73553 -0.182812 0
M  V30 552 H 50.9844 -6.59364 -1.55708 0
M  V30 553 H 51.9274 -7.0801 -0.11258 0
M  V30 554 H 52.3354 -5.5618 -0.965601 0
M  V30 555 N 51.7335 -0.305618 -1.54608 0
M  V30 556 C 52.6805 0.568421 -2.23691 0
M  V30 557 C 53.6505 1.12592 -1.22116 0
M  V30 558 O 54.8355 1.16959 -1.50749 0
M  V30 559 C 51.9755 1.7322 -2.98477 0
M  V30 560 C 51.0885 1.20566 -4.14835 0
M  V30 561 C 50.2235 2.33368 -4.77193 0
M  V30 562 C 49.2625 1.7787 -5.85686 0
M  V30 563 N 48.3995 2.84263 -6.4198 0
M  V30 564 H 53.2395 -0.0272867 -2.97988 0
M  V30 565 H 50.7765 -0.0252363 -1.47078 0
M  V30 566 H 52.7345 2.41675 -3.40072 0
M  V30 567 H 51.3645 2.29947 -2.26548 0
M  V30 568 H 50.4165 0.413223 -3.78149 0
M  V30 569 H 51.7285 0.759417 -4.92985 0
M  V30 570 H 50.8825 3.09761 -5.21664 0
M  V30 571 H 49.6215 2.8132 -3.98385 0
M  V30 572 H 48.6265 0.99968 -5.40635 0
M  V30 573 H 49.8515 1.30816 -6.66381 0
M  V30 574 H 47.7975 3.31541 -5.66053 0
M  V30 575 H 47.7145 2.44149 -7.15491 0
M  V30 576 H 48.9825 3.6054 -6.91109 0
M  V30 577 N 53.2116 1.57565 -0.0334293 0
M  V30 578 C 54.6276 1.56297 0.322997 0
M  V30 579 C 54.8276 1.03945 1.7262 0
M  V30 580 O 53.8836 0.688109 2.42943 0
M  V30 581 C 55.1966 3.00232 0.167664 0
M  V30 582 C 56.7446 3.12078 0.240107 0
M  V30 583 C 57.2196 4.57859 0.113513 0
M  V30 584 N 58.7106 4.62887 0.170359 0
M  V30 585 C 59.4456 5.73319 0.0962517 0
M  V30 586 N 58.9416 6.92794 -0.0291881 0
M  V30 587 N 60.7346 5.61898 0.150551 0
M  V30 588 H 52.8856 1.89923 -0.950956 0
M  V30 589 H 55.1486 0.873824 -0.367608 0
M  V30 590 H 54.8546 3.42501 -0.799102 0
M  V30 591 H 54.7286 3.654 0.936083 0
M  V30 592 H 57.1156 2.69718 1.19733 0
M  V30 593 H 57.1966 2.49623 -0.558763 0
M  V30 594 H 56.8406 5.009 -0.840314 0
M  V30 595 H 56.7706 5.18299 0.931302 0
M  V30 596 H 59.2616 3.76954 0.26728 0
M  V30 597 H 59.5746 7.7276 -0.0789252 0
M  V30 598 H 57.9196 6.94971 -0.0640299 0
M  V30 599 H 61.1106 4.67448 0.246981 0
M  V30 600 H 61.2836 6.47938 0.0893365 0
M  V30 601 N 54.6897 -0.239769 1.55765 0
M  V30 602 C 55.6367 -1.29696 1.90913 0
M  V30 603 C 56.6067 -1.47478 0.764164 0
M  V30 604 O 57.7917 -1.61345 1.01845 0
M  V30 605 C 54.9317 -2.64598 2.21544 0
M  V30 606 C 54.0447 -2.54765 3.48882 0
M  V30 607 C 53.1797 -3.82069 3.69049 0
M  V30 608 C 52.2187 -3.66883 4.89963 0
M  V30 609 N 51.3557 -4.86094 5.06614 0
M  V30 610 H 56.1957 -0.990224 2.81067 0
M  V30 611 H 53.7327 -0.477684 1.39128 0
M  V30 612 H 55.6907 -3.43132 2.3731 0
M  V30 613 H 54.3207 -2.93405 1.34585 0
M  V30 614 H 53.3727 -1.67763 3.41409 0
M  V30 615 H 54.6847 -2.39457 4.37563 0
M  V30 616 H 53.8387 -4.69046 3.84812 0
M  V30 617 H 52.5777 -4.00282 2.78614 0
M  V30 618 H 51.5827 -2.78289 4.74168 0
M  V30 619 H 52.8077 -3.50157 5.81865 0
M  V30 620 H 50.7537 -5.04655 4.19117 0
M  V30 621 H 50.6707 -4.73443 5.89396 0
M  V30 622 H 51.9387 -5.74549 5.26795 0
M  V30 623 N 56.1678 -1.49265 -0.50573 0
M  V30 624 C 57.4148 -1.58513 -1.26015 0
M  V30 625 C 57.7428 -0.26972 -1.92621 0
M  V30 626 O 56.9978 0.741997 -1.81088 0
M  V30 627 C 57.2968 -2.69008 -2.35308 0
M  V30 628 C 56.9628 -4.10662 -1.86192 0
M  V30 629 C 55.6248 -4.49212 -1.72516 0
M  V30 630 C 57.9768 -4.99336 -1.49375 0
M  V30 631 C 55.3048 -5.74214 -1.20394 0
M  V30 632 C 57.6568 -6.24852 -0.987072 0
M  V30 633 C 56.3208 -6.62236 -0.836669 0
M  V30 634 H 55.5908 -0.580041 -0.461122 0
M  V30 635 H 58.2378 -1.83078 -0.561665 0
M  V30 636 H 56.5428 -2.38396 -3.10926 0
M  V30 637 H 58.2398 -2.73373 -2.93374 0
M  V30 638 H 54.8298 -3.8023 -1.97795 0
M  V30 639 H 59.0138 -4.70212 -1.5879 0
M  V30 640 H 54.2698 -6.01883 -1.07458 0
M  V30 641 H 58.4438 -6.92944 -0.692983 0
M  V30 642 H 56.0708 -7.58979 -0.430607 0
M  V30 643 N 57.6459 0.756429 -1.3826 0
M  V30 644 C 58.8759 1.54341 -1.3734 0
M  V30 645 C 59.2839 1.89159 0.0393917 0
M  V30 646 O 58.6269 1.5307 1.01565 0
M  V30 647 C 58.6889 2.87238 -2.16182 0
M  V30 648 C 58.3529 2.74973 -3.65019 0
M  V30 649 C 59.3499 2.44962 -4.58574 0
M  V30 650 C 57.0349 2.92515 -4.08338 0
M  V30 651 C 59.0289 2.32642 -5.93428 0
M  V30 652 C 56.7159 2.79815 -5.43274 0
M  V30 653 C 57.7139 2.49921 -6.35632 0
M  V30 654 O 57.4019 2.37275 -7.68086 0
M  V30 655 H 57.1339 0.484281 -0.471643 0
M  V30 656 H 59.6879 0.944152 -1.82414 0
M  V30 657 H 57.9179 3.49342 -1.65822 0
M  V30 658 H 59.6069 3.48731 -2.07705 0
M  V30 659 H 60.3729 2.31081 -4.26412 0
M  V30 660 H 56.2519 3.14781 -3.368 0
M  V30 661 H 59.7959 2.0923 -6.65484 0
M  V30 662 H 55.6929 2.93269 -5.75034 0
M  V30 663 H 56.4609 2.52509 -7.78577 0
M  V30 664 N 59.124 1.23083 0.984299 0
M  V30 665 C 60.349 1.088 1.76571 0
M  V30 666 C 60.774 -0.356657 1.84688 0
M  V30 667 O 60.132 -1.25788 1.30565 0
M  V30 668 C 60.18 1.71371 3.17277 0
M  V30 669 O 59.284 0.973213 4.00752 0
M  V30 670 H 58.625 0.381599 0.543395 0
M  V30 671 H 61.155 1.63057 1.23587 0
M  V30 672 H 61.165 1.76449 3.67872 0
M  V30 673 H 59.84 2.76493 3.10684 0
M  V30 674 H 58.417 0.999078 3.59267 0
M  V30 675 N 60.6021 -1.18246 1.0419 0
M  V30 676 C 61.8481 -1.88793 0.75689 0
M  V30 677 C 62.2031 -1.78909 -0.707767 0
M  V30 678 O 61.4961 -1.1794 -1.50999 0
M  V30 679 C 61.6901 -3.38082 1.15911 0
M  V30 680 C 61.5191 -3.62496 2.66133 0
M  V30 681 C 60.2891 -3.7979 3.33298 0
M  V30 682 C 62.4871 -3.62976 3.64353 0
M  V30 683 N 60.4691 -3.91955 4.72487 0
M  V30 684 C 61.8401 -3.80869 4.89222 0
M  V30 685 C 63.8951 -3.46071 3.57965 0
M  V30 686 C 62.5981 -3.83608 6.08471 0
M  V30 687 C 64.6241 -3.50093 4.76643 0
M  V30 688 C 63.9861 -3.68484 6.00332 0
M  V30 689 H 60.0851 -0.709406 0.32904 0
M  V30 690 H 62.6691 -1.42022 1.33183 0
M  V30 691 H 60.8401 -3.83544 0.612238 0
M  V30 692 H 62.5721 -3.96202 0.824989 0
M  V30 693 H 59.3271 -3.79224 2.83701 0
M  V30 694 H 59.7511 -4.01857 5.44831 0
M  V30 695 H 64.3931 -3.30797 2.63311 0
M  V30 696 H 62.1111 -3.97669 7.0348 0
M  V30 697 H 65.6971 -3.38285 4.73344 0
M  V30 698 H 64.5771 -3.71488 6.90627 0
M  V30 699 N 62.0802 -0.821533 -1.34494 0
M  V30 700 C 62.9902 -0.244355 -2.33324 0
M  V30 701 C 64.0062 0.620527 -1.62559 0
M  V30 702 O 65.1822 0.528754 -1.94335 0
M  V30 703 C 62.2472 0.585368 -3.41723 0
M  V30 704 C 61.3082 -0.301752 -4.28238 0
M  V30 705 C 60.5412 0.488466 -5.3146 0
M  V30 706 O 60.7642 1.72186 -5.4379 0
M  V30 707 O 59.6982 -0.12848 -6.01763 0
M  V30 708 H 63.5242 -1.06231 -2.84515 0
M  V30 709 H 61.1092 -0.583645 -1.37528 0
M  V30 710 H 62.9912 1.05747 -4.07916 0
M  V30 711 H 61.6662 1.38068 -2.92778 0
M  V30 712 H 60.5732 -0.821315 -3.64973 0
M  V30 713 H 61.9062 -1.06138 -4.8062 0
M  V30 714 N 63.5583 1.46682 -0.576371 0
M  V30 715 C 64.4683 2.34032 0.163141 0
M  V30 716 C 65.4843 1.49367 0.892501 0
M  V30 717 O 66.6603 1.82252 0.857106 0
M  V30 718 C 63.7253 3.26435 1.16795 0
M  V30 719 C 62.7863 4.26998 0.443944 0
M  V30 720 C 62.0193 5.14986 1.40088 0
M  V30 721 O 62.2423 5.05785 2.637 0
M  V30 722 O 61.1763 5.94906 0.914917 0
M  V30 723 H 65.0023 2.98607 -0.55388 0
M  V30 724 H 62.5873 1.45554 -0.336821 0
M  V30 725 H 64.4693 3.83459 1.74748 0
M  V30 726 H 63.1443 2.64465 1.86655 0
M  V30 727 H 62.0513 3.7368 -0.177271 0
M  V30 728 H 63.3843 4.91736 -0.213566 0
M  V30 729 N 65.0364 0.313813 1.54444 0
M  V30 730 C 66.2764 -0.292389 2.02298 0
M  V30 731 C 66.6404 -1.50105 1.19719 0
M  V30 732 O 67.8414 -2.17947 1.5733 0
M  V30 733 C 66.1124 -0.627682 3.51845 0
M  V30 734 S 67.6714 -1.21493 4.21646 0
M  V30 735 H 64.4894 -0.0890247 0.705405 0
M  V30 736 H 67.0914 0.444668 1.90376 0
M  V30 737 H 65.7954 0.260265 4.09574 0
M  V30 738 H 65.3264 -1.39519 3.67829 0
M  V30 739 H 67.3414 -2.5022 4.28491 0
M  V30 740 N 66.5145 -1.57545 0.0417849 0
M  V30 741 C 67.4475 -2.06514 -0.970928 0
M  V30 742 C 68.4255 -0.963607 -1.30971 0
M  V30 743 O 69.6095 -1.23486 -1.4242 0
M  V30 744 C 66.7365 -2.4978 -2.28752 0
M  V30 745 C 65.7825 -3.71078 -2.10246 0
M  V30 746 S 66.6155 -5.17158 -1.38952 0
M  V30 747 C 67.7715 -5.6373 -2.71954 0
M  V30 748 H 68.0045 -2.9209 -0.554129 0
M  V30 749 H 65.5375 -1.53459 -0.17024 0
M  V30 750 H 67.4955 -2.75371 -3.04435 0
M  V30 751 H 66.1565 -1.64527 -2.67562 0
M  V30 752 H 65.3495 -3.9924 -3.07609 0
M  V30 753 H 64.9515 -3.45705 -1.42704 0
M  V30 754 H 67.2435 -5.68743 -3.68154 0
M  V30 755 H 68.1865 -6.63086 -2.4844 0
M  V30 756 H 68.5945 -4.91424 -2.77782 0
M  V30 757 N 67.9926 0.231505 -1.5589 0
M  V30 758 C 68.9406 1.30649 -1.92441 0
M  V30 759 C 69.9346 1.49037 -0.805254 0
M  V30 760 O 71.1406 1.50329 -0.990007 0
M  V30 761 H 67.5156 0.437812 -0.611412 0
M  V30 762 H 69.4866 0.970973 -2.82161 0
M  V30 763 C 68.2356 2.65179 -2.24889 0
M  V30 764 H 67.5586 2.51835 -3.10514 0
M  V30 765 H 68.9986 3.39234 -2.54355 0
M  V30 766 C 67.4576 3.19439 -1.07054 0
M  V30 767 O 67.9876 4.00371 -0.326499 0
M  V30 768 N 66.1936 2.77675 -0.85703 0
M  V30 769 H 65.7406 2.11969 -1.46379 0
M  V30 770 H 65.6986 3.14321 -0.0703223 0
M  V30 771 N 69.4707 1.49531 0.497807 0
M  V30 772 C 70.4007 1.6935 1.60757 0
M  V30 773 C 71.3817 0.542218 1.61227 0
M  V30 774 O 72.5667 0.778417 1.77917 0
M  V30 775 C 69.6967 1.76298 2.99226 0
M  V30 776 C 68.6507 2.91248 3.13622 0
M  V30 777 C 67.9767 2.83312 4.53474 0
M  V30 778 C 69.2767 4.3214 2.93346 0
M  V30 779 H 70.9707 2.62263 1.44425 0
M  V30 780 H 68.5167 1.26208 0.693367 0
M  V30 781 H 70.4697 1.88749 3.76765 0
M  V30 782 H 69.1937 0.799871 3.16654 0
M  V30 783 H 67.8527 2.78404 2.38509 0
M  V30 784 H 67.5007 1.84902 4.67782 0
M  V30 785 H 67.2007 3.60465 4.64046 0
M  V30 786 H 68.7247 2.97775 5.33069 0
M  V30 787 H 70.1387 4.45649 3.60652 0
M  V30 788 H 68.5357 5.1054 3.15387 0
M  V30 789 H 69.6057 4.46363 1.89441 0
M  V30 790 N 70.9488 -0.749086 1.3866 0
M  V30 791 C 72.3648 -1.05276 1.19955 0
M  V30 792 C 72.5648 -2.01435 0.05134 0
M  V30 793 O 71.6208 -2.45232 -0.60147 0
M  V30 794 C 72.9338 -1.62853 2.52783 0
M  V30 795 C 74.4818 -1.75002 2.59506 0
M  V30 796 C 74.9568 -2.35991 3.92521 0
M  V30 797 N 76.4478 -2.43416 3.94085 0
M  V30 798 C 77.1828 -2.91511 4.9377 0
M  V30 799 N 76.6788 -3.39608 6.03853 0
M  V30 800 N 78.4718 -2.90592 4.81157 0
M  V30 801 H 70.6228 -0.111066 2.12109 0
M  V30 802 H 72.8858 -0.111901 0.941373 0
M  V30 803 H 72.5918 -0.99664 3.37283 0
M  V30 804 H 72.4658 -2.61854 2.715 0
M  V30 805 H 74.8528 -2.37317 1.75398 0
M  V30 806 H 74.9338 -0.74693 2.44652 0
M  V30 807 H 74.5778 -1.74308 4.77053 0
M  V30 808 H 74.5078 -3.3695 4.04688 0
M  V30 809 H 76.9988 -2.09405 3.14576 0
M  V30 810 H 77.3118 -3.74775 6.75843 0
M  V30 811 H 75.6568 -3.37653 6.07466 0
M  V30 812 H 78.8478 -2.52332 3.94267 0
M  V30 813 H 79.0208 -3.27762 5.58996 0
M  V30 814 N 72.4269 -1.23603 -0.977757 0
M  V30 815 C 73.3369 -1.03632 -2.1047 0
M  V30 816 C 74.3529 0.0199435 -1.73989 0
M  V30 817 O 75.5289 -0.176076 -2.00629 0
M  V30 818 C 72.5939 -0.63276 -3.40877 0
M  V30 819 C 71.6549 -1.76437 -3.91367 0
M  V30 820 C 70.8879 -1.37997 -5.15551 0
M  V30 821 O 71.1109 -0.265357 -5.69782 0
M  V30 822 O 70.0449 -2.20201 -5.60174 0
M  V30 823 H 73.8709 -1.98086 -2.30208 0
M  V30 824 H 71.4559 -1.02332 -1.08851 0
M  V30 825 H 73.3379 -0.418761 -4.19314 0
M  V30 826 H 72.0129 0.282754 -3.22463 0
M  V30 827 H 70.9199 -2.03304 -3.14036 0
M  V30 828 H 72.2529 -2.6583 -4.14241 0
M  V30 829 N 73.905 1.17692 -1.04816 0
M  V30 830 C 75.151 1.88137 -0.75711 0
M  V30 831 C 75.484 1.80604 0.713841 0
M  V30 832 O 74.759 1.21146 1.52164 0
M  V30 833 C 75.042 3.38318 -1.2334 0
M  V30 834 C 74.895 3.54622 -2.76701 0
M  V30 835 C 76.214 4.32214 -0.829415 0
M  V30 836 H 73.333 0.683163 -0.27651 0
M  V30 837 H 75.975 1.38424 -1.30149 0
M  V30 838 H 74.125 3.80787 -0.770286 0
M  V30 839 H 75.797 3.21194 -3.31107 0
M  V30 840 H 74.04 2.97026 -3.16161 0
M  V30 841 H 74.711 4.60028 -3.05088 0
M  V30 842 H 77.187 3.97565 -1.22805 0
M  V30 843 H 76.063 5.35838 -1.19033 0
M  V30 844 H 76.324 4.41294 0.266891 0
M  V30 845 N 75.3831 0.828654 1.34056 0
M  V30 846 C 76.3301 0.252567 2.29414 0
M  V30 847 C 77.3001 -0.62588 1.53857 0
M  V30 848 O 78.4851 -0.566312 1.82202 0
M  V30 849 C 75.6251 -0.574831 3.40279 0
M  V30 850 C 74.7381 0.326499 4.30764 0
M  V30 851 C 73.8731 -0.511016 5.28736 0
M  V30 852 C 72.9121 0.389342 6.1086 0
M  V30 853 N 72.0491 -0.409439 7.00905 0
M  V30 854 H 76.8891 1.07108 2.78086 0
M  V30 855 H 74.4261 0.539677 1.36843 0
M  V30 856 H 76.3841 -1.06992 4.03248 0
M  V30 857 H 75.0141 -1.35841 2.92826 0
M  V30 858 H 74.0661 0.939837 3.68607 0
M  V30 859 H 75.3781 1.01857 4.88289 0
M  V30 860 H 74.5321 -1.07035 5.97184 0
M  V30 861 H 73.2711 -1.23657 4.71763 0
M  V30 862 H 72.2761 0.960769 5.4134 0
M  V30 863 H 73.5011 1.1131 6.69916 0
M  V30 864 H 71.4471 -1.11856 6.46393 0
M  V30 865 H 71.3641 0.224126 7.55668 0
M  V30 866 H 72.6321 -0.951336 7.73673 0
M  V30 867 N 76.8612 -1.46375 0.584142 0
M  V30 868 C 78.0862 -2.07268 0.0740405 0
M  V30 869 C 78.5112 -1.42979 -1.22223 0
M  V30 870 O 77.8692 -0.514092 -1.73859 0
M  V30 871 C 77.9172 -3.60518 -0.0767769 0
M  V30 872 O 77.0212 -3.96533 -1.13292 0
M  V30 873 H 76.3622 -0.660961 0.0634524 0
M  V30 874 H 78.8922 -1.87991 0.807492 0
M  V30 875 H 78.9022 -4.07021 -0.282489 0
M  V30 876 H 77.5772 -4.06702 0.86986 0
M  V30 877 H 76.1542 -3.61738 -0.905553 0
M  V30 878 N 78.3393 -0.321999 -1.54275 0
M  V30 879 C 79.2693 0.537411 -2.27231 0
M  V30 880 C 80.2503 1.12064 -1.27968 0
M  V30 881 O 81.4353 1.14606 -1.56777 0
M  V30 882 C 78.5653 1.69919 -3.02894 0
M  V30 883 C 77.5193 1.24534 -4.09482 0
M  V30 884 C 76.8453 2.49394 -4.72977 0
M  V30 885 C 78.1453 0.361335 -5.21049 0
M  V30 886 H 79.8393 -0.0711406 -2.99315 0
M  V30 887 H 77.3853 -0.0356555 -1.43956 0
M  V30 888 H 79.3383 2.30668 -3.52662 0
M  V30 889 H 78.0623 2.33431 -2.28424 0
M  V30 890 H 76.7213 0.660782 -3.60596 0
M  V30 891 H 76.3693 3.11265 -3.95124 0
M  V30 892 H 76.0693 2.19718 -5.44975 0
M  V30 893 H 77.5933 3.10908 -5.25517 0
M  V30 894 H 79.0073 0.875072 -5.66582 0
M  V30 895 H 77.4043 0.157428 -5.99893 0
M  V30 896 H 78.4743 -0.60822 -4.8107 0
M  V30 897 N 79.8174 1.5752 -0.0501392 0
M  V30 898 C 80.7644 2.1147 0.924603 0
M  V30 899 C 81.7344 1.02182 1.30951 0
M  V30 900 O 82.9194 1.29723 1.39916 0
M  V30 901 C 80.0594 2.66337 2.19451 0
M  V30 902 C 79.1724 3.89708 1.86418 0
M  V30 903 C 78.3074 4.32893 3.07859 0
M  V30 904 C 77.3464 5.48967 2.70742 0
M  V30 905 N 76.4834 5.87211 3.84874 0
M  V30 906 H 81.3234 2.94465 0.457639 0
M  V30 907 H 78.8604 1.45531 0.214266 0
M  V30 908 H 80.8184 2.96247 2.93758 0
M  V30 909 H 79.4484 1.86141 2.63726 0
M  V30 910 H 78.5004 3.66396 1.02264 0
M  V30 911 H 79.8124 4.74074 1.55096 0
M  V30 912 H 78.9664 4.6435 3.90466 0
M  V30 913 H 77.7054 3.47336 3.42358 0
M  V30 914 H 76.7104 5.17183 1.86551 0
M  V30 915 H 77.9354 6.3624 2.37436 0
M  V30 916 H 75.8814 5.04607 4.19175 0
M  V30 917 H 75.7984 6.66266 3.57247 0
M  V30 918 H 77.0664 6.23282 4.68123 0
M  V30 919 N 81.2955 -0.223234 1.56011 0
M  V30 920 C 82.2425 -1.27664 1.92277 0
M  V30 921 C 83.2125 -1.46659 0.779763 0
M  V30 922 O 84.3975 -1.60256 1.03551 0
M  V30 923 C 81.5375 -2.62234 2.24338 0
M  V30 924 C 80.6505 -2.51051 3.51564 0
M  V30 925 C 79.7855 -3.78133 3.7308 0
M  V30 926 C 78.8245 -3.61665 4.93827 0
M  V30 927 N 77.9615 -4.80693 5.11741 0
M  V30 928 H 82.8015 -0.960358 2.82101 0
M  V30 929 H 80.3385 -0.462901 1.39627 0
M  V30 930 H 82.2965 -3.40596 2.40936 0
M  V30 931 H 80.9265 -2.91961 1.3769 0
M  V30 932 H 79.9785 -1.64132 3.43169 0
M  V30 933 H 81.2905 -2.34803 4.40079 0
M  V30 934 H 80.4445 -4.64938 3.89766 0
M  V30 935 H 79.1835 -3.97304 2.82844 0
M  V30 936 H 78.1885 -2.73244 4.77093 0
M  V30 937 H 79.4135 -3.43966 5.85546 0
M  V30 938 H 77.3595 -5.00181 4.24446 0
M  V30 939 H 77.2765 -4.67165 5.94384 0
M  V30 940 H 78.5445 -5.6893 5.3286 0
M  V30 941 N 82.7736 -1.49793 -0.48987 0
M  V30 942 C 83.7036 -1.70201 -1.59856 0
M  V30 943 C 84.6846 -0.55076 -1.60937 0
M  V30 944 O 85.8696 -0.787841 -1.77501 0
M  V30 945 C 82.9996 -1.77882 -2.98287 0
M  V30 946 C 81.9536 -2.92907 -3.12073 0
M  V30 947 C 81.2796 -2.85712 -4.51965 0
M  V30 948 C 82.5796 -4.3369 -2.91051 0
M  V30 949 H 84.2736 -2.63025 -1.43032 0
M  V30 950 H 81.8196 -1.26574 -0.686664 0
M  V30 951 H 83.7726 -1.90744 -3.75759 0
M  V30 952 H 82.4966 -0.816653 -3.16225 0
M  V30 953 H 81.1556 -2.79665 -2.37029 0
M  V30 954 H 80.8036 -1.8738 -4.66795 0
M  V30 955 H 80.5036 -3.62921 -4.62128 0
M  V30 956 H 82.0276 -3.00598 -5.31482 0
M  V30 957 H 83.4416 -4.47555 -3.58284 0
M  V30 958 H 81.8386 -5.12205 -3.12675 0
M  V30 959 H 82.9086 -4.47362 -1.87071 0
M  V30 960 N 84.2517 0.741722 -1.39055 0
M  V30 961 C 85.1997 1.87702 -1.3737 0
M  V30 962 C 86.1937 1.67427 -0.257812 0
M  V30 963 O 87.3997 1.7485 -0.427489 0
M  V30 964 H 83.7747 0.617757 -0.428812 0
M  V30 965 H 85.7457 1.86239 -2.33147 0
M  V30 966 C 84.4947 3.25315 -1.22741 0
M  V30 967 H 83.8177 3.41509 -2.07873 0
M  V30 968 H 85.2577 4.04964 -1.25618 0
M  V30 969 C 83.7167 3.36838 0.0647316 0
M  V30 970 O 84.2467 3.88073 1.03741 0
M  V30 971 N 82.4527 2.90329 0.125544 0
M  V30 972 H 81.9997 2.48823 -0.666682 0
M  V30 973 H 81.9577 2.98418 0.989639 0
M  V30 974 N 85.7298 1.2412 0.971189 0
M  V30 975 C 86.6798 0.997551 2.05019 0
M  V30 976 C 87.6638 -0.0597747 1.60789 0
M  V30 977 O 88.8558 0.153516 1.76333 0
M  V30 978 C 85.9848 0.600557 3.38006 0
M  V30 979 C 85.0708 1.69377 3.88809 0
M  V30 980 N 85.4618 2.92586 4.12586 0
M  V30 981 C 83.7598 1.57048 4.17435 0
M  V30 982 C 84.4608 3.63431 4.54195 0
M  V30 983 N 83.4368 2.90979 4.59165 0
M  V30 984 H 87.2388 1.93316 2.21374 0
M  V30 985 H 84.7528 1.14194 1.1547 0
M  V30 986 H 86.7498 0.40725 4.14906 0
M  V30 987 H 85.4098 -0.327903 3.2304 0
M  V30 988 H 86.4208 3.288 4.00139 0
M  V30 989 H 83.0978 0.709798 4.11422 0
M  V30 990 H 84.4878 4.69102 4.81033 0
M  V30 991 N 87.2079 -1.17134 1.05439 0
M  V30 992 C 88.1709 -2.19439 0.661764 0
M  V30 993 C 89.1709 -1.58199 -0.288042 0
M  V30 994 O 90.3609 -1.74053 -0.0715803 0
M  V30 995 C 87.4929 -3.40889 -0.0276209 0
M  V30 996 H 88.6859 -2.55688 1.56728 0
M  V30 997 H 86.2389 -1.31259 0.848567 0
M  V30 998 H 86.9739 -3.10187 -0.94629 0
M  V30 999 H 86.7589 -3.86586 0.655238 0
M  V30 1000 H 88.2489 -4.16603 -0.288342 0
M  V30 1001 N 88.686 -0.835752 -1.33615 0
M  V30 1002 C 89.634 -0.255238 -2.31195 0
M  V30 1003 C 90.628 0.61107 -1.57995 0
M  V30 1004 O 91.834 0.500979 -1.72888 0
M  V30 1005 H 88.209 -0.0638085 -0.749288 0
M  V30 1006 H 90.18 -1.09283 -2.77669 0
M  V30 1007 C 88.929 0.55754 -3.43201 0
M  V30 1008 H 88.252 -0.0997553 -3.99676 0
M  V30 1009 H 89.692 0.929622 -4.13683 0
M  V30 1010 C 88.151 1.73515 -2.88781 0
M  V30 1011 O 88.681 2.83376 -2.84712 0
M  V30 1012 N 86.887 1.55603 -2.4543 0
M  V30 1013 H 86.434 0.662354 -2.48939 0
M  V30 1014 H 86.392 2.34545 -2.09371 0
M  V30 1015 N 90.1641 1.46063 -0.591896 0
M  V30 1016 C 91.4101 2.02638 -0.0811191 0
M  V30 1017 C 91.7431 1.4613 1.27905 0
M  V30 1018 O 91.0181 0.629908 1.84017 0
M  V30 1019 C 91.3011 3.60091 -0.0252436 0
M  V30 1020 C 91.1541 4.26965 -1.41496 0
M  V30 1021 C 92.4731 4.3496 0.670685 0
M  V30 1022 H 89.5921 0.73635 -0.0309524 0
M  V30 1023 H 92.2341 1.741 -0.760859 0
M  V30 1024 H 90.3841 3.84535 0.553624 0
M  V30 1025 H 92.0561 4.13756 -2.0397 0
M  V30 1026 H 90.2991 3.85971 -1.98011 0
M  V30 1027 H 90.9701 5.35781 -1.32825 0
M  V30 1028 H 93.4461 4.15716 0.178825 0
M  V30 1029 H 92.3221 5.44686 0.678837 0
M  V30 1030 H 92.5831 4.06685 1.73379 0
M  V30 1031 N 91.6422 0.330177 1.54103 0
M  V30 1032 C 92.8882 -0.270806 2.00984 0
M  V30 1033 C 93.2212 -1.51265 1.21789 0
M  V30 1034 O 92.4962 -1.92142 0.301927 0
M  V30 1035 C 92.7792 -0.598339 3.55094 0
M  V30 1036 C 92.6322 0.654674 4.4501 0
M  V30 1037 C 93.9512 -1.41334 4.16789 0
M  V30 1038 H 91.0702 -0.0969531 0.730595 0
M  V30 1039 H 93.7122 0.448066 1.84641 0
M  V30 1040 H 91.8622 -1.21078 3.69151 0
M  V30 1041 H 93.5342 1.29285 4.42813 0
M  V30 1042 H 91.7772 1.28224 4.14416 0
M  V30 1043 H 92.4482 0.380944 5.50684 0
M  V30 1044 H 94.9242 -0.895597 4.06347 0
M  V30 1045 H 93.8002 -1.61127 5.24718 0
M  V30 1046 H 94.0612 -2.41146 3.70541 0
M  V30 1047 N 93.1203 -1.57491 0.0584922 0
M  V30 1048 C 94.0673 -2.11958 -0.913376 0
M  V30 1049 C 95.0373 -1.02875 -1.30407 0
M  V30 1050 O 96.2223 -1.30464 -1.39226 0
M  V30 1051 C 93.3623 -2.67497 -2.18035 0
M  V30 1052 C 92.4753 -3.90691 -1.84349 0
M  V30 1053 C 91.6103 -4.3452 -3.05559 0
M  V30 1054 C 90.6493 -5.50395 -2.67827 0
M  V30 1055 N 89.7863 -5.89244 -3.81754 0
M  V30 1056 H 94.6263 -2.94704 -0.442017 0
M  V30 1057 H 92.1633 -1.45643 -0.206545 0
M  V30 1058 H 94.1213 -2.978 -2.92183 0
M  V30 1059 H 92.7513 -1.87537 -2.62735 0
M  V30 1060 H 91.8033 -3.66934 -1.00319 0
M  V30 1061 H 93.1153 -4.7489 -1.5258 0
M  V30 1062 H 92.2693 -4.66414 -3.87998 0
M  V30 1063 H 91.0083 -3.49147 -3.40511 0
M  V30 1064 H 90.0133 -5.18165 -1.83806 0
M  V30 1065 H 91.2383 -6.3749 -2.34059 0
M  V30 1066 H 89.1843 -5.06823 -4.16493 0
M  V30 1067 H 89.1013 -6.68151 -3.53708 0
M  V30 1068 H 90.3693 -6.25756 -4.64811 0
M  V30 1069 N 94.5984 0.214957 -1.56127 0
M  V30 1070 C 95.5284 1.2695 -1.95974 0
M  V30 1071 C 96.5094 1.48539 -0.828868 0
M  V30 1072 O 97.6944 1.60611 -1.09168 0
M  V30 1073 C 94.8244 2.61794 -2.28214 0
M  V30 1074 C 93.7784 2.54851 -3.43853 0
M  V30 1075 C 93.1044 3.93785 -3.61715 0
M  V30 1076 C 94.4044 2.09065 -4.78632 0
M  V30 1077 H 96.0984 0.93846 -2.84312 0
M  V30 1078 H 93.6444 0.449996 -1.36788 0
M  V30 1079 H 95.5974 3.35731 -2.54682 0
M  V30 1080 H 94.3214 2.96599 -1.36736 0
M  V30 1081 H 92.9804 1.8337 -3.17444 0
M  V30 1082 H 92.6284 4.25908 -2.67602 0
M  V30 1083 H 92.3284 3.90019 -4.39498 0
M  V30 1084 H 93.8524 4.69374 -3.90539 0
M  V30 1085 H 95.2664 2.7275 -5.04262 0
M  V30 1086 H 93.6634 2.16346 -5.59745 0
M  V30 1087 H 94.7334 1.04315 -4.73547 0
M  V30 1088 N 96.0765 1.50051 0.48192 0
M  V30 1089 C 97.0235 1.68122 1.58125 0
M  V30 1090 C 97.9935 0.522545 1.57666 0
M  V30 1091 O 99.1785 0.751844 1.75362 0
M  V30 1092 C 96.3185 1.77142 2.96167 0
M  V30 1093 C 95.4315 3.0444 3.06497 0
M  V30 1094 C 94.5665 3.04321 4.35387 0
M  V30 1095 C 93.6055 4.26118 4.3942 0
M  V30 1096 N 92.7425 4.238 5.59766 0
M  V30 1097 H 97.5825 2.6198 1.42022 0
M  V30 1098 H 95.1195 1.29877 0.690687 0
M  V30 1099 H 97.0775 1.80352 3.76203 0
M  V30 1100 H 95.7075 0.867329 3.1093 0
M  V30 1101 H 94.7595 3.10752 2.19402 0
M  V30 1102 H 96.0715 3.94426 3.05336 0
M  V30 1103 H 95.2255 3.062 5.23762 0
M  V30 1104 H 93.9645 2.12147 4.39141 0
M  V30 1105 H 92.9695 4.24463 3.49444 0
M  V30 1106 H 94.1945 5.19507 4.37366 0
M  V30 1107 H 92.1405 3.34474 5.64326 0
M  V30 1108 H 92.0575 5.07542 5.60301 0
M  V30 1109 H 93.3255 4.2981 6.50295 0
M  V30 1110 N 97.5546 -0.734337 1.39446 0
M  V30 1111 C 98.4646 -1.87879 1.40495 0
M  V30 1112 C 99.4806 -1.714 0.299672 0
M  V30 1113 O 100.657 -1.93991 0.541249 0
M  V30 1114 C 97.7216 -3.23477 1.24754 0
M  V30 1115 C 96.7826 -3.52344 2.45259 0
M  V30 1116 C 96.0156 -4.81473 2.30259 0
M  V30 1117 O 96.2386 -5.55237 1.30643 0
M  V30 1118 O 95.1726 -5.10254 3.19256 0
M  V30 1119 H 98.9986 -1.89949 2.36966 0
M  V30 1120 H 96.5836 -0.882243 1.20569 0
M  V30 1121 H 98.4656 -4.04509 1.18111 0
M  V30 1122 H 97.1406 -3.22176 0.313781 0
M  V30 1123 H 96.0476 -2.71396 2.57478 0
M  V30 1124 H 97.3806 -3.58426 3.37331 0
M  V30 1125 N 99.0327 -1.24633 -0.964593 0
M  V30 1126 C 100.279 -1.08949 -1.71049 0
M  V30 1127 C 100.612 0.370302 -1.90637 0
M  V30 1128 O 99.8867 1.27349 -1.47011 0
M  V30 1129 C 100.17 -1.83329 -3.0994 0
M  V30 1130 C 100.023 -3.37077 -2.97824 0
M  V30 1131 C 101.342 -1.60846 -4.09654 0
M  V30 1132 H 98.4607 -0.397178 -0.620821 0
M  V30 1133 H 101.103 -1.5334 -1.12191 0
M  V30 1134 H 99.2527 -1.45597 -3.60186 0
M  V30 1135 H 100.925 -3.84425 -2.5498 0
M  V30 1136 H 99.1677 -3.65298 -2.33965 0
M  V30 1137 H 99.8387 -3.84324 -3.96231 0
M  V30 1138 H 102.315 -1.93674 -3.68279 0
M  V30 1139 H 101.191 -2.1534 -5.04896 0
M  V30 1140 H 101.452 -0.547434 -4.38698 0
M  V30 1141 N 100.511 1.16574 -1.06058 0
M  V30 1142 C 101.76 1.86385 -0.770944 0
M  V30 1143 C 102.073 1.82448 0.705129 0
M  V30 1144 O 103.279 2.47815 1.10905 0
M  V30 1145 C 101.735 3.34466 -1.32893 0
M  V30 1146 C 101.343 3.46883 -2.83507 0
M  V30 1147 C 103.087 4.09548 -1.11672 0
M  V30 1148 C 100.994 4.89036 -3.32562 0
M  V30 1149 H 99.9238 0.698181 -0.284709 0
M  V30 1150 H 102.575 1.31583 -1.27899 0
M  V30 1151 H 100.957 3.88859 -0.748662 0
M  V30 1152 H 102.131 3.02663 -3.47465 0
M  V30 1153 H 100.446 2.85232 -3.03368 0
M  V30 1154 H 103.043 5.14434 -1.45814 0
M  V30 1155 H 103.386 4.16264 -0.0549535 0
M  V30 1156 H 103.919 3.61387 -1.66265 0
M  V30 1157 H 100.658 4.87499 -4.38207 0
M  V30 1158 H 100.178 5.3389 -2.73351 0
M  V30 1159 H 101.857 5.57843 -3.2775 0
M  V30 1160 N 101.989 0.842826 1.3317 0
M  V30 1161 C 103.405 0.531128 1.50503 0
M  V30 1162 C 103.605 -0.940734 1.78192 0
M  V30 1163 O 102.661 -1.72436 1.84451 0
M  V30 1164 C 103.974 1.40789 2.65705 0
M  V30 1165 C 105.522 1.40708 2.79589 0
M  V30 1166 C 105.997 2.26878 3.97857 0
M  V30 1167 N 107.488 2.24609 4.05099 0
M  V30 1168 C 108.223 2.88019 4.95815 0
M  V30 1169 N 107.719 3.60496 5.9162 0
M  V30 1170 N 109.512 2.77469 4.88843 0
M  V30 1171 H 101.663 1.79557 1.1346 0
M  V30 1172 H 103.926 0.766267 0.558156 0
M  V30 1173 H 103.632 2.454 2.51936 0
M  V30 1174 H 103.506 1.08677 3.61205 0
M  V30 1175 H 105.893 0.368668 2.92788 0
M  V30 1176 H 105.974 1.76829 1.84838 0
M  V30 1177 H 105.618 3.3078 3.85418 0
M  V30 1178 H 105.548 1.88096 4.91861 0
M  V30 1179 H 108.039 1.71906 3.36536 0
M  V30 1180 H 108.352 4.06076 6.57512 0
M  V30 1181 H 106.697 3.64604 5.91683 0
M  V30 1182 H 109.888 2.20406 4.12963 0
M  V30 1183 H 110.061 3.2717 5.59342 0
M  V30 1184 N 103.467 -1.45747 0.599634 0
M  V30 1185 C 104.377 -2.34262 -0.125888 0
M  V30 1186 C 105.393 -1.50768 -0.868625 0
M  V30 1187 O 106.569 -1.83592 -0.828003 0
M  V30 1188 C 103.634 -3.28252 -1.11587 0
M  V30 1189 C 102.695 -4.27651 -0.375956 0
M  V30 1190 C 101.928 -5.1715 -1.31877 0
M  V30 1191 O 102.151 -5.09916 -2.55621 0
M  V30 1192 O 101.085 -5.96286 -0.820157 0
M  V30 1193 H 104.911 -2.97688 0.601315 0
M  V30 1194 H 102.496 -1.44999 0.359934 0
M  V30 1195 H 104.378 -3.86191 -1.68626 0
M  V30 1196 H 103.053 -2.67401 -1.82424 0
M  V30 1197 H 101.96 -3.7335 0.236698 0
M  V30 1198 H 103.293 -4.91334 0.29177 0
M  V30 1199 N 104.945 -0.338344 -1.53925 0
M  V30 1200 C 105.893 0.536231 -2.26335 0
M  V30 1201 C 106.887 1.1063 -1.28286 0
M  V30 1202 O 108.093 1.05264 -1.46012 0
M  V30 1203 H 104.468 0.191602 -0.727181 0
M  V30 1204 H 106.439 -0.0965747 -2.98244 0
M  V30 1205 C 105.188 1.67803 -3.04528 0
M  V30 1206 H 104.511 1.24864 -3.79801 0
M  V30 1207 H 105.951 2.26526 -3.58416 0
M  V30 1208 C 104.41 2.60439 -2.13712 0
M  V30 1209 O 104.94 3.6255 -1.72975 0
M  V30 1210 N 103.146 2.29006 -1.78898 0
M  V30 1211 H 102.693 1.46011 -2.12223 0
M  V30 1212 H 102.651 2.91248 -1.18416 0
M  V30 1213 N 106.423 1.57458 -0.0668435 0
M  V30 1214 C 107.7 1.8469 0.644132 0
M  V30 1215 C 108.08 0.958343 1.88093 0
M  V30 1216 O 107.428 0.0233579 2.28488 0
M  V30 1217 C 107.638 3.34767 0.986509 0
M  V30 1218 C 108.986 4.02159 1.36212 0
M  V30 1219 O 110.01 3.39484 1.07839 0
M  V30 1220 O 108.869 5.12694 1.89227 0
M  V30 1221 H 105.963 0.762816 0.319437 0
M  V30 1222 H 108.509 1.6942 -0.0973986 0
M  V30 1223 H 107.281 3.91151 0.107883 0
M  V30 1224 H 106.904 3.55281 1.78497 0
M  V30 1225 N 107.901 -0.206675 1.56239 0
M  V30 1226 C 108.851 -1.26 1.90021 0
M  V30 1227 C 109.835 -1.41566 0.764721 0
M  V30 1228 O 111.027 -1.44131 1.02739 0
M  V30 1229 C 108.156 -2.6073 2.23326 0
M  V30 1230 C 107.242 -2.49005 3.43304 0
M  V30 1231 N 107.633 -2.06946 4.61527 0
M  V30 1232 C 105.931 -2.79927 3.47213 0
M  V30 1233 C 106.632 -2.06832 5.43687 0
M  V30 1234 N 105.608 -2.47892 4.83788 0
M  V30 1235 H 109.41 -0.925955 2.78932 0
M  V30 1236 H 106.924 -0.415172 1.57003 0
M  V30 1237 H 108.921 -3.36798 2.45708 0
M  V30 1238 H 107.581 -2.94968 1.35735 0
M  V30 1239 H 108.592 -1.77839 4.86409 0
M  V30 1240 H 105.269 -3.18438 2.70006 0
M  V30 1241 H 106.659 -1.76312 6.48354 0
M  V30 1242 N 109.379 -1.50304 -0.473955 0
M  V30 1243 C 110.309 -1.71886 -1.58042 0
M  V30 1244 C 111.29 -0.567799 -1.60344 0
M  V30 1245 O 112.475 -0.806623 -1.76656 0
M  V30 1246 C 109.605 -1.81036 -2.96384 0
M  V30 1247 C 108.559 -2.962 -3.08949 0
M  V30 1248 C 107.885 -2.9049 -4.48909 0
M  V30 1249 C 109.185 -4.36752 -2.86434 0
M  V30 1250 H 110.879 -2.64527 -1.40234 0
M  V30 1251 H 108.425 -1.27295 -0.673201 0
M  V30 1252 H 110.378 -1.94719 -3.73714 0
M  V30 1253 H 109.102 -0.850147 -3.15341 0
M  V30 1254 H 107.761 -2.82164 -2.3405 0
M  V30 1255 H 107.409 -1.92321 -4.64781 0
M  V30 1256 H 107.109 -3.67802 -4.58253 0
M  V30 1257 H 108.633 -3.06218 -5.28264 0
M  V30 1258 H 110.047 -4.5133 -3.53517 0
M  V30 1259 H 108.444 -5.15493 -3.07225 0
M  V30 1260 H 109.514 -4.49321 -1.82316 0
M  V30 1261 N 110.857 0.726932 -1.39834 0
M  V30 1262 C 112.087 1.51393 -1.40583 0
M  V30 1263 C 112.495 1.892 -0.000740625 0
M  V30 1264 O 111.838 1.55189 0.982951 0
M  V30 1265 C 111.9 2.82588 -2.22226 0
M  V30 1266 C 111.564 2.67169 -3.70769 0
M  V30 1267 C 112.561 2.3518 -4.63666 0
M  V30 1268 C 110.246 2.83788 -4.14451 0
M  V30 1269 C 112.24 2.20002 -5.98229 0
M  V30 1270 C 109.927 2.68229 -5.49087 0
M  V30 1271 C 110.925 2.36382 -6.4079 0
M  V30 1272 O 110.613 2.2093 -7.72946 0
M  V30 1273 H 110.345 0.474168 -0.48181 0
M  V30 1274 H 112.899 0.905247 -1.84376 0
M  V30 1275 H 111.129 3.45746 -1.73195 0
M  V30 1276 H 112.818 3.44247 -2.15055 0
M  V30 1277 H 113.584 2.21984 -4.31217 0
M  V30 1278 H 109.463 3.07566 -3.43401 0
M  V30 1279 H 113.007 1.95067 -6.69772 0
M  V30 1280 H 108.904 2.81006 -5.81125 0
M  V30 1281 H 109.672 2.35937 -7.83757 0
M  V30 1282 N 112.336 1.25143 0.95797 0
M  V30 1283 C 113.583 1.09692 1.70217 0
M  V30 1284 C 113.911 -0.362654 1.91089 0
M  V30 1285 O 113.166 -1.28386 1.47701 0
M  V30 1286 C 113.465 1.79272 3.09187 0
M  V30 1287 C 113.131 3.29196 3.08125 0
M  V30 1288 C 111.793 3.70096 3.07543 0
M  V30 1289 C 114.145 4.24995 3.0171 0
M  V30 1290 C 111.473 5.05213 2.9829 0
M  V30 1291 C 113.825 5.60132 2.93999 0
M  V30 1292 C 112.489 6.00365 2.9175 0
M  V30 1293 H 111.759 0.401393 0.622868 0
M  V30 1294 H 114.406 1.55372 1.11945 0
M  V30 1295 H 112.711 1.26014 3.70982 0
M  V30 1296 H 114.408 1.64773 3.65583 0
M  V30 1297 H 110.998 2.96651 3.09348 0
M  V30 1298 H 115.182 3.9439 3.01281 0
M  V30 1299 H 110.438 5.35569 2.94916 0
M  V30 1300 H 114.612 6.3406 2.87996 0
M  V30 1301 H 112.239 7.05023 2.84336 0
M  V30 1302 N 113.814 -1.1601 1.06675 0
M  V30 1303 C 115.063 -1.85973 0.780818 0
M  V30 1304 C 115.376 -1.82819 -0.695444 0
M  V30 1305 O 116.582 -2.484 -1.09589 0
M  V30 1306 C 115.038 -3.33757 1.34665 0
M  V30 1307 C 114.646 -3.45374 2.85343 0
M  V30 1308 C 116.39 -4.0895 1.13843 0
M  V30 1309 C 114.297 -4.87266 3.35151 0
M  V30 1310 H 113.227 -0.696661 0.288407 0
M  V30 1311 H 115.878 -1.30903 1.28595 0
M  V30 1312 H 114.26 -3.88456 0.769274 0
M  V30 1313 H 115.434 -3.00816 3.49065 0
M  V30 1314 H 113.749 -2.83619 3.04876 0
M  V30 1315 H 116.346 -5.13654 1.4854 0
M  V30 1316 H 116.689 -4.16229 0.0770282 0
M  V30 1317 H 117.222 -3.605 1.68179 0
M  V30 1318 H 113.961 -4.85168 4.40786 0
M  V30 1319 H 113.481 -5.32433 2.76179 0
M  V30 1320 H 115.16 -5.56097 3.30704 0
M  V30 1321 N 115.292 -0.849877 -1.32721 0
M  V30 1322 C 116.539 -0.450923 -1.97416 0
M  V30 1323 C 116.867 0.992376 -1.67279 0
M  V30 1324 O 116.122 1.71048 -0.950845 0
M  V30 1325 C 116.421 -0.631272 -3.51781 0
M  V30 1326 C 116.087 -2.04432 -4.01894 0
M  V30 1327 C 114.749 -2.4308 -4.1529 0
M  V30 1328 C 117.101 -2.96679 -4.28522 0
M  V30 1329 C 114.429 -3.73257 -4.52654 0
M  V30 1330 C 116.781 -4.26349 -4.67343 0
M  V30 1331 C 115.445 -4.64939 -4.78945 0
M  V30 1332 H 114.715 -0.165004 -0.722395 0
M  V30 1333 H 117.362 -1.07901 -1.58207 0
M  V30 1334 H 115.667 0.0800767 -3.91718 0
M  V30 1335 H 117.364 -0.302709 -3.99856 0
M  V30 1336 H 113.954 -1.73419 -3.91949 0
M  V30 1337 H 118.138 -2.68054 -4.17685 0
M  V30 1338 H 113.394 -4.02946 -4.59831 0
M  V30 1339 H 117.568 -4.97895 -4.86902 0
M  V30 1340 H 115.195 -5.65855 -5.07654 0
M  V30 1341 N 116.77 1.45427 -0.607355 0
M  V30 1342 C 117.68 2.34325 0.113463 0
M  V30 1343 C 118.696 1.51226 0.860617 0
M  V30 1344 O 119.872 1.84029 0.818255 0
M  V30 1345 C 116.937 3.28839 1.09844 0
M  V30 1346 C 115.998 4.27844 0.353271 0
M  V30 1347 C 115.231 5.17842 1.29133 0
M  V30 1348 O 115.454 5.11264 2.52913 0
M  V30 1349 O 114.388 5.96713 0.788523 0
M  V30 1350 H 118.214 2.97364 -0.617094 0
M  V30 1351 H 115.799 1.44807 -0.367619 0
M  V30 1352 H 117.681 3.8708 1.66575 0
M  V30 1353 H 116.356 2.68365 1.81003 0
M  V30 1354 H 115.263 3.7322 -0.256494 0
M  V30 1355 H 116.596 4.91173 -0.317822 0
M  V30 1356 N 118.248 0.346503 1.53744 0
M  V30 1357 C 119.478 -0.250047 2.05081 0
M  V30 1358 C 119.886 -1.44529 1.22098 0
M  V30 1359 O 119.229 -1.81992 0.249917 0
M  V30 1360 C 119.291 -0.725934 3.52094 0
M  V30 1361 C 118.955 0.350053 4.55657 0
M  V30 1362 C 119.952 1.19372 5.0601 0
M  V30 1363 C 117.637 0.504827 4.99757 0
M  V30 1364 C 119.631 2.17768 5.99046 0
M  V30 1365 C 117.318 1.49218 5.92602 0
M  V30 1366 C 118.316 2.32706 6.42135 0
M  V30 1367 O 118.004 3.2976 7.33153 0
M  V30 1368 H 117.736 -0.0515469 0.674032 0
M  V30 1369 H 120.29 0.497559 1.99282 0
M  V30 1370 H 118.52 -1.52483 3.55367 0
M  V30 1371 H 120.209 -1.24336 3.86388 0
M  V30 1372 H 120.975 1.08525 4.72702 0
M  V30 1373 H 116.854 -0.135178 4.60802 0
M  V30 1374 H 120.398 2.82971 6.37631 0
M  V30 1375 H 116.295 1.6012 6.25325 0
M  V30 1376 H 117.063 3.25265 7.51096 0
M  V30 1377 N 119.726 -1.57421 0.075193 0
M  V30 1378 C 120.659 -2.08528 -0.926904 0
M  V30 1379 C 121.637 -0.991171 -1.28898 0
M  V30 1380 O 122.821 -1.26479 -1.39769 0
M  V30 1381 C 119.948 -2.54576 -2.23402 0
M  V30 1382 C 118.994 -3.75454 -2.02327 0
M  V30 1383 S 119.827 -5.19989 -1.27951 0
M  V30 1384 C 120.983 -5.69372 -2.59935 0
M  V30 1385 H 121.216 -2.932 -0.492048 0
M  V30 1386 H 118.749 -1.53785 -0.137651 0
M  V30 1387 H 120.707 -2.81767 -2.98526 0
M  V30 1388 H 119.368 -1.70166 -2.64012 0
M  V30 1389 H 118.561 -4.05675 -2.99071 0
M  V30 1390 H 118.163 -3.48654 -1.35339 0
M  V30 1391 H 120.455 -5.76424 -3.56008 0
M  V30 1392 H 121.398 -6.68207 -2.34319 0
M  V30 1393 H 121.806 -4.97205 -2.67296 0
M  V30 1394 N 121.204 0.198386 -1.56346 0
M  V30 1395 C 122.151 1.24589 -1.94284 0
M  V30 1396 C 123.121 1.454 -0.802997 0
M  V30 1397 O 124.306 1.58588 -1.06087 0
M  V30 1398 C 121.446 2.58631 -2.28482 0
M  V30 1399 C 120.559 2.45426 -3.55514 0
M  V30 1400 C 119.694 3.7215 -3.79049 0
M  V30 1401 C 118.733 3.53763 -4.99518 0
M  V30 1402 N 117.87 4.72491 -5.19323 0
M  V30 1403 H 122.71 0.915356 -2.83593 0
M  V30 1404 H 120.247 0.440629 -1.40346 0
M  V30 1405 H 122.205 3.3672 -2.46324 0
M  V30 1406 H 120.835 2.89734 -1.42317 0
M  V30 1407 H 119.887 1.58652 -3.45737 0
M  V30 1408 H 121.199 2.27772 -4.43758 0
M  V30 1409 H 120.353 4.58679 -3.97113 0
M  V30 1410 H 119.092 3.92754 -2.89129 0
M  V30 1411 H 118.097 2.65619 -4.8138 0
M  V30 1412 H 119.322 3.34607 -5.90944 0
M  V30 1413 H 117.268 4.93365 -4.3235 0
M  V30 1414 H 117.185 4.5765 -6.01741 0
M  V30 1415 H 118.453 5.6038 -5.41843 0
M  V30 1416 N 122.682 1.50554 0.465978 0
M  V30 1417 C 123.592 1.72585 1.58907 0
M  V30 1418 C 124.608 0.60911 1.6299 0
M  V30 1419 O 125.784 0.88804 1.80765 0
M  V30 1420 C 122.849 1.81995 2.95091 0
M  V30 1421 C 121.91 3.05751 3.01355 0
M  V30 1422 C 121.143 3.14702 4.31043 0
M  V30 1423 O 121.366 2.30313 5.21835 0
M  V30 1424 O 120.3 4.07468 4.43005 0
M  V30 1425 H 124.126 2.67799 1.43239 0
M  V30 1426 H 121.711 1.34711 0.646013 0
M  V30 1427 H 123.593 1.90335 3.75966 0
M  V30 1428 H 122.268 0.899659 3.10947 0
M  V30 1429 H 121.175 3.02908 2.19539 0
M  V30 1430 H 122.508 3.97375 2.90437 0
M  V30 1431 N 124.16 -0.719506 1.40217 0
M  V30 1432 C 125.108 -1.85493 1.40339 0
M  V30 1433 C 126.102 -1.66995 0.284415 0
M  V30 1434 O 127.308 -1.74148 0.455252 0
M  V30 1435 H 123.683 -0.610857 0.438586 0
M  V30 1436 H 125.654 -1.82506 2.36081 0
M  V30 1437 C 124.403 -3.23321 1.27901 0
M  V30 1438 H 123.726 -3.38159 2.1328 0
M  V30 1439 H 125.166 -4.02914 1.32045 0
M  V30 1440 C 123.625 -3.36898 -0.0111355 0
M  V30 1441 O 124.155 -3.89674 -0.975538 0
M  V30 1442 N 122.361 -2.90492 -0.0793393 0
M  V30 1443 H 121.908 -2.47731 0.706183 0
M  V30 1444 H 121.866 -2.99955 -0.942038 0
M  V30 1445 N 125.638 -1.25649 -0.95132 0
M  V30 1446 C 126.568 -1.08808 -2.06599 0
M  V30 1447 C 127.549 0.00382547 -1.701 0
M  V30 1448 O 128.734 -0.166325 -1.93486 0
M  V30 1449 C 125.864 -0.709542 -3.39975 0
M  V30 1450 C 124.818 -1.75206 -3.90496 0
M  V30 1451 C 124.144 -1.22811 -5.20405 0
M  V30 1452 C 125.444 -3.15153 -4.16504 0
M  V30 1453 H 127.138 -2.02048 -2.20946 0
M  V30 1454 H 124.684 -0.972835 -1.06169 0
M  V30 1455 H 126.637 -0.578649 -4.17408 0
M  V30 1456 H 125.361 0.258556 -3.25575 0
M  V30 1457 H 124.02 -1.87145 -3.15234 0
M  V30 1458 H 123.668 -0.250145 -5.02378 0
M  V30 1459 H 123.368 -1.92492 -5.55176 0
M  V30 1460 H 124.892 -1.10968 -6.00432 0
M  V30 1461 H 126.306 -3.06349 -4.84586 0
M  V30 1462 H 124.703 -3.82333 -4.62538 0
M  V30 1463 H 125.773 -3.61966 -3.22658 0
M  V30 1464 N 127.117 1.15442 -1.07289 0
M  V30 1465 C 128.347 1.89821 -0.815576 0
M  V30 1466 C 128.755 1.7823 0.634867 0
M  V30 1467 O 128.098 1.13152 1.44715 0
M  V30 1468 C 128.16 3.40817 -1.14385 0
M  V30 1469 C 127.824 3.76193 -2.59476 0
M  V30 1470 C 128.821 3.77269 -3.57721 0
M  V30 1471 C 126.506 4.0652 -2.95037 0
M  V30 1472 C 128.5 4.08176 -4.89562 0
M  V30 1473 C 126.187 4.37092 -4.27076 0
M  V30 1474 C 127.185 4.37902 -5.24148 0
M  V30 1475 O 126.873 4.67741 -6.53815 0
M  V30 1476 H 126.605 0.608465 -0.294528 0
M  V30 1477 H 129.159 1.472 -1.43252 0
M  V30 1478 H 127.389 3.83835 -0.469865 0
M  V30 1479 H 129.078 3.96485 -0.869179 0
M  V30 1480 H 129.844 3.5394 -3.3159 0
M  V30 1481 H 125.723 4.05049 -2.20128 0
M  V30 1482 H 129.267 4.08723 -5.65324 0
M  V30 1483 H 125.164 4.59889 -4.5296 0
M  V30 1484 H 125.932 4.85509 -6.58957 0
M  V30 1485 N 128.595 0.856903 1.32268 0
M  V30 1486 C 129.527 0.260412 2.27716 0
M  V30 1487 C 130.54 -0.569137 1.52528 0
M  V30 1488 O 131.729 -0.39326 1.74114 0
M  V30 1489 C 128.829 -0.650477 3.32599 0
M  V30 1490 C 128.002 0.14372 4.37164 0
M  V30 1491 C 127.061 -0.69328 5.21613 0
M  V30 1492 O 126.087 -0.12599 5.69061 0
M  V30 1493 N 127.289 -2.00761 5.44679 0
M  V30 1494 H 130.054 1.08059 2.79541 0
M  V30 1495 H 127.615 0.717103 1.45152 0
M  V30 1496 H 129.607 -1.21581 3.86005 0
M  V30 1497 H 128.177 -1.37133 2.80915 0
M  V30 1498 H 127.397 0.890486 3.8401 0
M  V30 1499 H 128.685 0.68915 5.04111 0
M  V30 1500 H 128.083 -2.49181 5.07863 0
M  V30 1501 H 126.64 -2.52103 6.01072 0
M  V30 1502 N 130.073 -1.45103 0.615059 0
M  V30 1503 C 131.003 -2.33339 -0.0865619 0
M  V30 1504 C 131.984 -1.4727 -0.851209 0
M  V30 1505 O 133.169 -1.76026 -0.820281 0
M  V30 1506 C 130.299 -3.30095 -1.07956 0
M  V30 1507 C 129.253 -4.25858 -0.427628 0
M  V30 1508 C 128.579 -5.12361 -1.5294 0
M  V30 1509 C 129.879 -5.18165 0.655944 0
M  V30 1510 H 131.573 -2.92254 0.650224 0
M  V30 1511 H 129.119 -1.40532 0.314138 0
M  V30 1512 H 131.072 -3.90698 -1.57901 0
M  V30 1513 H 129.796 -2.69355 -1.84703 0
M  V30 1514 H 128.455 -3.66564 0.0510292 0
M  V30 1515 H 128.103 -4.47984 -2.28734 0
M  V30 1516 H 127.803 -5.77238 -1.09865 0
M  V30 1517 H 129.327 -5.75833 -2.03098 0
M  V30 1518 H 130.741 -5.72796 0.240257 0
M  V30 1519 H 129.138 -5.91559 1.00888 0
M  V30 1520 H 130.208 -4.60144 1.52957 0
M  V30 1521 N 131.551 -0.354651 -1.53558 0
M  V30 1522 C 132.8 0.239504 -2.00273 0
M  V30 1523 C 133.113 1.50759 -1.24623 0
M  V30 1524 O 134.319 2.17968 -1.61871 0
M  V30 1525 C 132.775 0.477341 -3.5672 0
M  V30 1526 C 132.383 -0.775488 -4.41237 0
M  V30 1527 C 134.127 1.02975 -4.11821 0
M  V30 1528 C 132.034 -0.507838 -5.89216 0
M  V30 1529 H 130.964 0.0932743 -0.748208 0
M  V30 1530 H 133.615 -0.471701 -1.77334 0
M  V30 1531 H 131.997 1.24953 -3.7577 0
M  V30 1532 H 133.171 -1.54963 -4.33962 0
M  V30 1533 H 131.486 -1.25033 -3.97185 0
M  V30 1534 H 134.083 1.24513 -5.2 0
M  V30 1535 H 134.426 1.98862 -3.65731 0
M  V30 1536 H 134.959 0.317994 -3.96527 0
M  V30 1537 H 131.698 -1.43674 -6.39561 0
M  V30 1538 H 131.218 0.228011 -5.99366 0
M  V30 1539 H 132.897 -0.129238 -6.46871 0
M  V30 1540 N 133.029 1.57378 -0.0835403 0
M  V30 1541 C 133.976 2.13384 0.879539 0
M  V30 1542 C 134.946 1.04936 1.28754 0
M  V30 1543 O 136.131 1.32662 1.37133 0
M  V30 1544 C 133.271 2.70932 2.13752 0
M  V30 1545 C 132.384 3.93575 1.7811 0
M  V30 1546 C 131.519 4.39326 2.98607 0
M  V30 1547 C 130.558 5.54587 2.59037 0
M  V30 1548 N 129.695 5.95243 3.72331 0
M  V30 1549 H 134.535 2.9537 0.395076 0
M  V30 1550 H 132.072 1.45953 0.183349 0
M  V30 1551 H 134.03 3.02411 2.87408 0
M  V30 1552 H 132.66 1.91693 2.59718 0
M  V30 1553 H 131.712 3.68483 0.94469 0
M  V30 1554 H 133.024 4.77258 1.45005 0
M  V30 1555 H 132.178 4.72528 3.80529 0
M  V30 1556 H 130.917 3.5452 3.34913 0
M  V30 1557 H 129.922 5.21024 1.75539 0
M  V30 1558 H 131.147 6.41133 2.23887 0
M  V30 1559 H 129.093 5.13385 4.08378 0
M  V30 1560 H 129.01 6.73694 3.43034 0
M  V30 1561 H 130.278 6.33072 4.54797 0
M  V30 1562 N 134.507 -0.190092 1.56449 0
M  V30 1563 C 135.417 -1.25591 1.98152 0
M  V30 1564 C 136.433 -1.49519 0.889944 0
M  V30 1565 O 137.609 -1.62036 1.19609 0
M  V30 1566 C 134.674 -2.57916 2.3169 0
M  V30 1567 C 133.735 -2.42015 3.5458 0
M  V30 1568 C 132.968 -3.6803 3.8651 0
M  V30 1569 O 133.191 -4.72413 3.1966 0
M  V30 1570 O 132.125 -3.6326 4.79923 0
M  V30 1571 H 135.951 -0.931988 2.89046 0
M  V30 1572 H 133.536 -0.395488 1.4407 0
M  V30 1573 H 135.418 -3.36008 2.54316 0
M  V30 1574 H 134.093 -2.89925 1.43963 0
M  V30 1575 H 133 -1.62017 3.37196 0
M  V30 1576 H 134.333 -2.14937 4.4279 0
M  V30 1577 N 135.985 -1.50799 -0.457987 0
M  V30 1578 C 137.401 -1.38515 -0.792819 0
M  V30 1579 C 137.601 -0.451409 -1.96379 0
M  V30 1580 O 136.657 0.10112 -2.52297 0
M  V30 1581 C 137.97 -2.80149 -1.09258 0
M  V30 1582 C 139.518 -2.89156 -1.19825 0
M  V30 1583 C 139.993 -4.31651 -1.53106 0
M  V30 1584 N 141.484 -4.34662 -1.60072 0
M  V30 1585 C 142.219 -5.41928 -1.87354 0
M  V30 1586 N 141.715 -6.59384 -2.12568 0
M  V30 1587 N 143.508 -5.29385 -1.88965 0
M  V30 1588 H 135.659 -2.10073 0.313511 0
M  V30 1589 H 137.922 -0.944803 0.0777862 0
M  V30 1590 H 137.628 -3.50374 -0.305084 0
M  V30 1591 H 137.502 -3.18204 -2.02549 0
M  V30 1592 H 139.889 -2.19141 -1.97639 0
M  V30 1593 H 139.97 -2.54626 -0.244821 0
M  V30 1594 H 139.614 -5.02208 -0.758266 0
M  V30 1595 H 139.544 -4.63678 -2.49621 0
M  V30 1596 H 142.035 -3.49973 -1.42573 0
M  V30 1597 H 142.348 -7.36934 -2.32696 0
M  V30 1598 H 140.693 -6.62535 -2.09933 0
M  V30 1599 H 143.884 -4.36616 -1.68772 0
M  V30 1600 H 144.057 -6.13066 -2.09891 0
M  V30 1601 N 137.463 0.71206 -1.40597 0
M  V30 1602 C 138.411 1.84746 -1.41321 0
M  V30 1603 C 139.405 1.66842 -0.293268 0
M  V30 1604 O 140.611 1.73904 -0.464481 0
M  V30 1605 H 136.986 0.608522 -0.441819 0
M  V30 1606 H 138.957 1.81252 -2.37045 0
M  V30 1607 C 137.706 3.22638 -1.29614 0
M  V30 1608 H 137.029 3.37023 -2.15071 0
M  V30 1609 H 138.469 4.02209 -1.3418 0
M  V30 1610 C 136.928 3.36899 -0.00673121 0
M  V30 1611 O 137.458 3.90186 0.954859 0
M  V30 1612 N 135.664 2.9053 0.0639327 0
M  V30 1613 H 135.211 2.47353 -0.719311 0
M  V30 1614 H 135.169 3.0045 0.926118 0
M  V30 1615 N 138.941 1.26152 0.944643 0
M  V30 1616 C 139.888 1.07408 2.04285 0
M  V30 1617 C 140.858 -0.0198413 1.66088 0
M  V30 1618 O 142.043 0.139264 1.90291 0
M  V30 1619 C 139.183 0.70945 3.37729 0
M  V30 1620 C 138.296 1.87926 3.88983 0
M  V30 1621 C 137.431 1.45807 5.10797 0
M  V30 1622 C 136.47 2.5964 5.54305 0
M  V30 1623 N 135.607 2.18226 6.67324 0
M  V30 1624 H 140.447 2.01389 2.1965 0
M  V30 1625 H 137.984 1.00275 1.07626 0
M  V30 1626 H 139.942 0.478948 4.14442 0
M  V30 1627 H 138.572 -0.193389 3.2222 0
M  V30 1628 H 137.624 2.22279 3.08701 0
M  V30 1629 H 138.936 2.73377 4.17213 0
M  V30 1630 H 138.09 1.18781 5.94959 0
M  V30 1631 H 136.829 0.574414 4.84305 0
M  V30 1632 H 135.834 2.87399 4.68702 0
M  V30 1633 H 137.059 3.48599 5.828 0
M  V30 1634 H 135.005 1.3229 6.42523 0
M  V30 1635 H 134.922 2.97221 6.95123 0
M  V30 1636 H 136.19 1.94403 7.54869 0
M  V30 1637 N 140.419 -1.14872 1.07899 0
M  V30 1638 C 141.349 -2.2193 0.725887 0
M  V30 1639 C 142.33 -1.67622 -0.28927 0
M  V30 1640 O 143.515 -1.93533 -0.160787 0
M  V30 1641 C 140.645 -3.47061 0.128856 0
M  V30 1642 C 139.599 -4.14363 1.07178 0
M  V30 1643 C 138.925 -5.33636 0.337229 0
M  V30 1644 C 140.225 -4.63492 2.40775 0
M  V30 1645 H 141.919 -2.51724 1.62097 0
M  V30 1646 H 139.465 -1.20991 0.780838 0
M  V30 1647 H 141.418 -4.21199 -0.130147 0
M  V30 1648 H 140.142 -3.16617 -0.80134 0
M  V30 1649 H 138.801 -3.42173 1.3158 0
M  V30 1650 H 138.449 -4.99449 -0.596606 0
M  V30 1651 H 138.149 -5.79609 0.965788 0
M  V30 1652 H 139.673 -6.10539 0.0861567 0
M  V30 1653 H 141.087 -5.2913 2.20669 0
M  V30 1654 H 139.484 -5.20148 2.99276 0
M  V30 1655 H 140.554 -3.78834 3.02676 0
M  V30 1656 N 141.898 -0.863906 -1.31812 0
M  V30 1657 C 143.145 -0.471836 -1.96926 0
M  V30 1658 C 143.473 0.974578 -1.68322 0
M  V30 1659 O 142.728 1.7003 -0.968933 0
M  V30 1660 C 143.027 -0.668547 -3.51091 0
M  V30 1661 C 142.693 -2.08683 -3.99703 0
M  V30 1662 C 141.355 -2.47471 -4.12688 0
M  V30 1663 C 143.707 -3.01207 -4.25351 0
M  V30 1664 C 141.035 -3.78037 -4.4867 0
M  V30 1665 C 143.387 -4.31282 -4.62794 0
M  V30 1666 C 142.051 -4.69992 -4.73987 0
M  V30 1667 H 141.321 -0.172657 -0.720604 0
M  V30 1668 H 143.968 -1.09573 -1.57054 0
M  V30 1669 H 142.273 0.0385252 -3.91781 0
M  V30 1670 H 143.97 -0.345102 -3.99512 0
M  V30 1671 H 140.56 -1.77566 -3.90087 0
M  V30 1672 H 144.744 -2.72469 -4.14819 0
M  V30 1673 H 140 -4.078 -4.55532 0
M  V30 1674 H 144.174 -5.03031 -4.81594 0
M  V30 1675 H 141.801 -5.71207 -5.01624 0
M  V30 1676 N 143.376 1.44774 -0.622745 0
M  V30 1677 C 144.787 1.85546 -0.207226 0
M  V30 1678 C 145.138 1.52093 1.23944 0
M  V30 1679 O 144.263 0.95492 1.94191 0
M  V30 1680 C 144.858 3.36781 -0.369313 0
M  V30 1681 C 143.417 3.76399 -0.00836847 0
M  V30 1682 C 142.564 2.68664 -0.686651 0
M  V30 1683 H 145.515 1.3536 -0.828454 0
M  V30 1684 H 145.536 3.78453 0.394162 0
M  V30 1685 H 145.048 3.61098 -1.42231 0
M  V30 1686 H 143.149 3.57698 1.04322 0
M  V30 1687 H 143.262 4.7732 -0.412584 0
M  V30 1688 H 141.626 2.54404 -0.122777 0
M  V30 1689 H 142.409 2.95815 -1.74208 0
M  V30 1690 N 144.854 0.36279 1.53368 0
M  V30 1691 C 145.764 -0.492994 2.29362 0
M  V30 1692 C 146.78 -1.09507 1.35219 0
M  V30 1693 O 147.956 -1.10662 1.68273 0
M  V30 1694 C 145.021 -1.61855 3.066 0
M  V30 1695 C 144.082 -1.04429 4.16405 0
M  V30 1696 C 143.315 -2.11621 4.89951 0
M  V30 1697 O 143.538 -3.32684 4.63333 0
M  V30 1698 O 142.472 -1.74835 5.75948 0
M  V30 1699 H 146.298 0.125331 3.03441 0
M  V30 1700 H 143.883 0.127253 1.48857 0
M  V30 1701 H 145.765 -2.27302 3.54841 0
M  V30 1702 H 144.44 -2.22233 2.3536 0
M  V30 1703 H 143.347 -0.353819 3.72423 0
M  V30 1704 H 144.68 -0.485113 4.89804 0
M  V30 1705 N 146.332 -1.57332 0.0918853 0
M  V30 1706 C 147.557 -1.98995 -0.584442 0
M  V30 1707 C 147.982 -0.970528 -1.61128 0
M  V30 1708 O 147.34 0.0613904 -1.81196 0
M  V30 1709 C 147.388 -3.39636 -1.21161 0
M  V30 1710 O 146.492 -3.40447 -2.32744 0
M  V30 1711 H 145.833 -0.647165 -0.148572 0
M  V30 1712 H 148.363 -2.03873 0.172347 0
M  V30 1713 H 148.373 -3.7726 -1.55367 0
M  V30 1714 H 147.048 -4.13356 -0.459313 0
M  V30 1715 H 145.625 -3.14614 -2.0018 0
M  V30 1716 N 147.81 0.181792 -1.56548 0
M  V30 1717 C 148.773 1.20894 -1.94724 0
M  V30 1718 C 149.773 1.37738 -0.829747 0
M  V30 1719 O 150.963 1.35323 -1.09697 0
M  V30 1720 C 148.095 2.57593 -2.23291 0
M  V30 1721 H 149.288 0.882275 -2.86629 0
M  V30 1722 H 146.841 0.423838 -1.50444 0
M  V30 1723 H 147.576 2.95291 -1.34067 0
M  V30 1724 H 147.361 2.46735 -3.04736 0
M  V30 1725 H 148.851 3.31637 -2.53785 0
M  V30 1726 N 149.288 1.51039 0.449983 0
M  V30 1727 C 150.537 1.62317 1.19733 0
M  V30 1728 C 150.85 0.339101 1.92638 0
M  V30 1729 O 152.056 0.331069 2.69474 0
M  V30 1730 C 150.512 2.86608 2.17678 0
M  V30 1731 C 150.12 4.21972 1.50479 0
M  V30 1732 C 151.864 3.07239 2.92924 0
M  V30 1733 C 149.771 5.37426 2.46834 0
M  V30 1734 H 148.701 0.604532 0.450619 0
M  V30 1735 H 151.352 1.77494 0.465625 0
M  V30 1736 H 149.734 2.65037 2.94231 0
M  V30 1737 H 150.908 4.53878 0.795716 0
M  V30 1738 H 149.223 4.07117 0.874344 0
M  V30 1739 H 151.82 3.90668 3.65079 0
M  V30 1740 H 152.163 2.19807 3.5354 0
M  V30 1741 H 152.696 3.29091 2.23481 0
M  V30 1742 H 149.435 6.27079 1.90926 0
M  V30 1743 H 148.955 5.09912 3.15832 0
M  V30 1744 H 150.634 5.68862 3.08228 0
M  V30 1745 N 150.766 -0.704594 1.40972 0
M  V30 1746 C 152.182 -1.01406 1.23244 0
M  V30 1747 C 152.382 -2.01169 0.115399 0
M  V30 1748 O 151.438 -2.47021 -0.523147 0
M  V30 1749 C 152.751 -1.54728 2.57836 0
M  V30 1750 C 154.299 -1.66658 2.64942 0
M  V30 1751 C 154.774 -2.23383 3.9983 0
M  V30 1752 N 156.265 -2.30756 4.01629 0
M  V30 1753 C 157 -2.75655 5.02794 0
M  V30 1754 N 156.496 -3.20225 6.14352 0
M  V30 1755 N 158.289 -2.75138 4.90159 0
M  V30 1756 H 150.44 -0.0435285 2.12355 0
M  V30 1757 H 152.703 -0.0818951 0.944456 0
M  V30 1758 H 152.409 -0.888832 3.40283 0
M  V30 1759 H 152.283 -2.53084 2.79693 0
M  V30 1760 H 154.67 -2.31617 1.8286 0
M  V30 1761 H 154.751 -0.668717 2.46904 0
M  V30 1762 H 154.395 -1.59043 4.82357 0
M  V30 1763 H 154.325 -3.23904 4.15203 0
M  V30 1764 H 156.816 -1.99291 3.21079 0
M  V30 1765 H 157.129 -3.53084 6.87424 0
M  V30 1766 H 155.474 -3.18156 6.17901 0
M  V30 1767 H 158.665 -2.39661 4.02095 0
M  V30 1768 H 158.838 -3.09812 5.6914 0
M  V30 1769 N 152.244 -1.26651 -0.937939 0
M  V30 1770 C 153.192 -1.08308 -2.05845 0
M  V30 1771 C 154.186 -0.0090757 -1.69398 0
M  V30 1772 O 155.392 -0.166007 -1.79233 0
M  V30 1773 H 151.767 -0.333416 -0.674046 0
M  V30 1774 H 153.738 -2.03261 -2.18467 0
M  V30 1775 C 152.487 -0.736229 -3.39816 0
M  V30 1776 H 151.81 -1.55453 -3.6834 0
M  V30 1777 H 153.25 -0.64769 -4.19024 0
M  V30 1778 C 151.709 0.558824 -3.32233 0
M  V30 1779 O 152.239 1.59621 -3.68624 0
M  V30 1780 N 150.445 0.550657 -2.85335 0
M  V30 1781 H 149.992 -0.293943 -2.55917 0
M  V30 1782 H 149.95 1.41726 -2.80644 0
M  V30 1783 N 153.722 1.14298 -1.08507 0
M  V30 1784 C 154.971 1.84708 -0.810305 0
M  V30 1785 C 155.284 1.83903 0.666271 0
M  V30 1786 O 156.49 2.50112 1.05624 0
M  V30 1787 C 154.946 3.31572 -1.39957 0
M  V30 1788 C 154.554 3.40791 -2.90801 0
M  V30 1789 C 156.298 4.07087 -1.20334 0
M  V30 1790 C 154.205 4.81872 -3.4286 0
M  V30 1791 H 153.135 0.691985 -0.299454 0
M  V30 1792 H 155.786 1.28841 -1.30661 0
M  V30 1793 H 154.168 3.87183 -0.830976 0
M  V30 1794 H 155.342 2.95225 -3.53806 0
M  V30 1795 H 153.657 2.78732 -3.0935 0
M  V30 1796 H 156.254 5.11225 -1.56693 0
M  V30 1797 H 156.597 4.16054 -0.143237 0
M  V30 1798 H 157.13 3.57779 -1.73893 0
M  V30 1799 H 153.869 4.78094 -4.48449 0
M  V30 1800 H 153.389 5.27972 -2.84615 0
M  V30 1801 H 155.068 5.50765 -3.39509 0
M  V30 1802 N 155.201 0.870884 1.31352 0
M  V30 1803 C 156.134 0.271983 2.26573 0
M  V30 1804 C 157.112 -0.599385 1.51149 0
M  V30 1805 O 158.296 -0.552605 1.80218 0
M  V30 1806 C 155.423 -0.614801 3.33073 0
M  V30 1807 C 154.469 0.185342 4.26097 0
M  V30 1808 S 155.302 1.56444 5.12138 0
M  V30 1809 C 156.458 0.683807 6.22153 0
M  V30 1810 H 156.691 1.07916 2.77023 0
M  V30 1811 H 154.224 0.669459 1.39132 0
M  V30 1812 H 156.182 -1.12074 3.94905 0
M  V30 1813 H 154.843 -1.39593 2.81376 0
M  V30 1814 H 154.036 -0.490771 5.01605 0
M  V30 1815 H 153.638 0.623415 3.68768 0
M  V30 1816 H 155.93 -0.10521 6.77418 0
M  V30 1817 H 156.873 1.41004 6.93919 0
M  V30 1818 H 157.281 0.250952 5.63942 0
M  V30 1819 N 156.679 -1.44442 0.630414 0
M  V30 1820 C 157.909 -2.06115 0.141465 0
M  V30 1821 C 158.317 -1.47179 -1.1889 0
M  V30 1822 O 157.66 -0.588873 -1.74006 0
M  V30 1823 C 157.722 -3.59467 -0.0484355 0
M  V30 1824 C 157.386 -4.40864 1.20366 0
M  V30 1825 C 158.383 -4.74391 2.12719 0
M  V30 1826 C 156.068 -4.8125 1.43887 0
M  V30 1827 C 158.062 -5.47186 3.26904 0
M  V30 1828 C 155.749 -5.53795 2.5837 0
M  V30 1829 C 156.747 -5.86682 3.49705 0
M  V30 1830 O 156.435 -6.57749 4.62191 0
M  V30 1831 H 156.167 -0.671648 0.0765792 0
M  V30 1832 H 158.721 -1.86312 0.864695 0
M  V30 1833 H 156.951 -3.77758 -0.826803 0
M  V30 1834 H 158.64 -4.02909 -0.491849 0
M  V30 1835 H 159.406 -4.43728 1.95781 0
M  V30 1836 H 155.285 -4.55073 0.736853 0
M  V30 1837 H 158.829 -5.72773 3.98217 0
M  V30 1838 H 154.726 -5.83872 2.75251 0
M  V30 1839 H 155.494 -6.76217 4.61164 0
M  V30 1840 N 158.157 -0.370918 -1.53173 0
M  V30 1841 C 159.089 0.507823 -2.23503 0
M  V30 1842 C 160.102 1.04182 -1.251 0
M  V30 1843 O 161.291 0.947286 -1.5129 0
M  V30 1844 C 158.391 1.71447 -2.92334 0
M  V30 1845 C 157.564 1.31105 -4.17289 0
M  V30 1846 C 156.623 2.38035 -4.69282 0
M  V30 1847 O 155.649 2.00204 -5.32829 0
M  V30 1848 N 156.851 3.69697 -4.47554 0
M  V30 1849 H 159.616 -0.0946382 -2.99551 0
M  V30 1850 H 157.177 -0.196358 -1.60705 0
M  V30 1851 H 159.169 2.42469 -3.24023 0
M  V30 1852 H 157.739 2.22368 -2.19707 0
M  V30 1853 H 156.959 0.430462 -3.91843 0
M  V30 1854 H 158.247 1.0179 -4.98514 0
M  V30 1855 H 157.645 4.03205 -3.9679 0
M  V30 1856 H 156.202 4.36807 -4.8378 0
M  V30 1857 N 159.635 1.57281 -0.100228 0
M  V30 1858 C 160.884 1.93713 0.561984 0
M  V30 1859 C 161.197 0.984492 1.69018 0
M  V30 1860 O 162.403 1.24273 2.41389 0
M  V30 1861 C 160.859 3.4421 1.05106 0
M  V30 1862 C 160.467 4.47975 -0.0476628 0
M  V30 1863 C 162.211 3.89595 1.68571 0
M  V30 1864 C 160.118 5.89631 0.457055 0
M  V30 1865 H 159.048 0.723082 0.2137 0
M  V30 1866 H 161.699 1.82644 -0.177057 0
M  V30 1867 H 160.081 3.50449 1.84395 0
M  V30 1868 H 161.255 4.53385 -0.823333 0
M  V30 1869 H 159.57 4.1223 -0.587816 0
M  V30 1870 H 162.167 4.92832 2.07414 0
M  V30 1871 H 162.51 3.28526 2.55688 0
M  V30 1872 H 163.043 3.86078 0.958562 0
M  V30 1873 H 159.782 6.54411 -0.377616 0
M  V30 1874 H 159.302 5.87681 1.19962 0
M  V30 1875 H 160.981 6.40363 0.92437 0
M  V30 1876 N 161.113 -0.173488 1.56642 0
M  V30 1877 C 162.043 -1.2171 1.99271 0
M  V30 1878 C 163.024 -1.46289 0.867959 0
M  V30 1879 O 164.209 -1.5766 1.13388 0
M  V30 1880 C 161.339 -2.55651 2.35074 0
M  V30 1881 C 160.293 -2.45645 3.50489 0
M  V30 1882 C 159.619 -3.84056 3.72028 0
M  V30 1883 C 160.919 -1.96302 4.84007 0
M  V30 1884 H 162.613 -0.86275 2.867 0
M  V30 1885 H 160.159 -0.413571 1.37933 0
M  V30 1886 H 162.112 -3.2886 2.63494 0
M  V30 1887 H 160.836 -2.92869 1.44552 0
M  V30 1888 H 159.495 -1.7489 3.22194 0
M  V30 1889 H 159.143 -4.18664 2.788 0
M  V30 1890 H 158.843 -3.7823 4.49684 0
M  V30 1891 H 160.367 -4.58854 4.02846 0
M  V30 1892 H 161.781 -2.59284 5.11317 0
M  V30 1893 H 160.178 -2.01429 5.65284 0
M  V30 1894 H 161.248 -0.917226 4.76146 0
M  V30 1895 N 162.591 -1.51276 -0.441967 0
M  V30 1896 C 163.523 -1.68444 -1.55433 0
M  V30 1897 C 164.536 -0.565187 -1.52674 0
M  V30 1898 O 165.725 -0.839356 -1.57534 0
M  V30 1899 C 162.825 -1.67966 -2.94348 0
M  V30 1900 C 161.998 -2.964 -3.21661 0
M  V30 1901 C 161.057 -2.88171 -4.40277 0
M  V30 1902 O 160.083 -3.62119 -4.39157 0
M  V30 1903 N 161.285 -2.03706 -5.43584 0
M  V30 1904 H 164.05 -2.644 -1.41112 0
M  V30 1905 H 161.611 -1.49104 -0.630838 0
M  V30 1906 H 163.603 -1.60035 -3.71713 0
M  V30 1907 H 162.173 -0.796225 -3.0229 0
M  V30 1908 H 161.393 -3.18234 -2.32638 0
M  V30 1909 H 162.681 -3.81427 -3.36736 0
M  V30 1910 H 162.079 -1.42995 -5.47329 0
M  V30 1911 H 160.636 -2.01658 -6.1982 0
M  V30 1912 N 164.069 0.697108 -1.41344 0
M  V30 1913 C 165.317 1.45426 -1.40341 0
M  V30 1914 C 165.638 1.94996 -0.0128787 0
M  V30 1915 O 164.908 1.71599 0.945027 0
M  V30 1916 H 163.488 0.539594 -0.516573 0
M  V30 1917 H 166.15 0.825201 -1.76569 0
M  V30 1918 H 165.246 2.31817 -2.08967 0
M  V30 1919 N 165.547 1.27147 0.931209 0
M  V30 1920 C 166.477 1.12081 2.04842 0
M  V30 1921 C 167.458 0.0232364 1.70084 0
M  V30 1922 O 168.643 0.197085 1.93197 0
M  V30 1923 C 165.773 0.76354 3.38803 0
M  V30 1924 C 164.727 1.81396 3.87659 0
M  V30 1925 C 164.053 1.31075 5.18385 0
M  V30 1926 C 165.353 3.21739 4.11438 0
M  V30 1927 H 167.047 2.05537 2.17703 0
M  V30 1928 H 164.593 0.989603 1.04608 0
M  V30 1929 H 166.546 0.644982 4.16435 0
M  V30 1930 H 165.27 -0.206727 3.25945 0
M  V30 1931 H 163.929 1.92136 3.12217 0
M  V30 1932 H 163.577 0.330037 5.01916 0
M  V30 1933 H 163.277 2.013 5.52044 0
M  V30 1934 H 164.801 1.20506 5.98591 0
M  V30 1935 H 166.215 3.14019 4.79651 0
M  V30 1936 H 164.612 3.89644 4.56397 0
M  V30 1937 H 165.682 3.67054 3.16859 0
M  V30 1938 N 167.025 -1.13721 1.09112 0
M  V30 1939 C 167.988 -2.17222 0.731241 0
M  V30 1940 C 168.988 -1.59035 -0.237566 0
M  V30 1941 O 170.178 -1.74192 -0.0161704 0
M  V30 1942 C 167.31 -3.40804 0.0808443 0
M  V30 1943 H 168.503 -2.50573 1.64783 0
M  V30 1944 H 166.056 -1.28493 0.889897 0
M  V30 1945 H 166.791 -3.1304 -0.847127 0
M  V30 1946 H 166.576 -3.84306 0.777896 0
M  V30 1947 H 168.066 -4.1731 -0.155657 0
M  V30 1948 N 168.503 -0.877838 -1.30888 0
M  V30 1949 C 169.75 -0.492696 -1.96415 0
M  V30 1950 C 170.078 0.956671 -1.69346 0
M  V30 1951 O 169.333 1.68993 -0.986913 0
M  V30 1952 C 169.632 -0.705748 -3.50363 0
M  V30 1953 C 169.298 -2.1291 -3.97467 0
M  V30 1954 C 167.96 -2.51834 -4.1004 0
M  V30 1955 C 170.312 -3.05702 -4.22132 0
M  V30 1956 C 167.64 -3.82775 -4.44635 0
M  V30 1957 C 169.992 -4.36166 -4.58194 0
M  V30 1958 C 168.656 -4.74993 -4.68975 0
M  V30 1959 H 167.926 -0.18029 -0.718733 0
M  V30 1960 H 170.573 -1.11233 -1.55883 0
M  V30 1961 H 168.878 -0.00303058 -3.918 0
M  V30 1962 H 170.575 -0.387456 -3.99124 0
M  V30 1963 H 167.165 -1.81694 -3.88182 0
M  V30 1964 H 171.349 -2.76853 -4.11906 0
M  V30 1965 H 166.605 -4.12609 -4.51181 0
M  V30 1966 H 170.779 -5.08111 -4.76231 0
M  V30 1967 H 168.406 -5.76495 -4.95537 0
M  V30 1968 N 169.982 1.44106 -0.638065 0
M  V30 1969 C 171.231 2.01194 -0.142744 0
M  V30 1970 C 171.544 1.50835 1.24532 0
M  V30 1971 O 172.75 2.00096 1.83504 0
M  V30 1972 C 171.206 3.59319 -0.20442 0
M  V30 1973 C 170.814 4.18674 -1.59423 0
M  V30 1974 C 172.558 4.23854 0.234079 0
M  V30 1975 C 170.465 5.69045 -1.61065 0
M  V30 1976 H 169.395 0.752367 -0.0495998 0
M  V30 1977 H 172.046 1.65246 -0.797881 0
M  V30 1978 H 170.428 3.92598 0.517946 0
M  V30 1979 H 171.602 3.96921 -2.34074 0
M  V30 1980 H 169.917 3.66453 -1.97741 0
M  V30 1981 H 172.514 5.34155 0.241443 0
M  V30 1982 H 172.857 3.96688 1.2627 0
M  V30 1983 H 173.39 3.95403 -0.436025 0
M  V30 1984 H 170.129 6.00956 -2.61787 0
M  V30 1985 H 169.649 5.929 -0.90718 0
M  V30 1986 H 171.328 6.32809 -1.34766 0
M  V30 1987 N 171.46 0.379036 1.52974 0
M  V30 1988 C 172.41 -0.477772 2.22938 0
M  V30 1989 C 173.394 -1.03792 1.22948 0
M  V30 1990 O 174.586 -0.965725 1.48333 0
M  V30 1991 C 171.715 -1.60994 3.03209 0
M  V30 1992 C 170.801 -1.06203 4.10587 0
M  V30 1993 N 171.192 -0.238214 5.05239 0
M  V30 1994 C 169.49 -1.33554 4.25534 0
M  V30 1995 C 170.191 0.0633235 5.81666 0
M  V30 1996 N 169.167 -0.537901 5.40932 0
M  V30 1997 H 172.969 0.158295 2.93473 0
M  V30 1998 H 170.483 0.187778 1.61311 0
M  V30 1999 H 172.48 -2.23607 3.5186 0
M  V30 2000 H 171.14 -2.24893 2.34207 0
M  V30 2001 H 172.151 0.123695 5.17752 0
M  V30 2002 H 168.828 -1.97632 3.6776 0
M  V30 2003 H 170.218 0.730161 6.67921 0
M  V30 2004 N 172.938 -1.57226 0.108567 0
M  V30 2005 C 173.885 -2.14756 -0.845481 0
M  V30 2006 C 174.855 -1.06971 -1.27068 0
M  V30 2007 O 176.04 -1.34827 -1.35005 0
M  V30 2008 C 173.18 -2.74298 -2.09415 0
M  V30 2009 C 172.293 -3.96358 -1.71826 0
M  V30 2010 C 171.428 -4.44021 -2.9158 0
M  V30 2011 C 170.467 -5.58637 -2.50181 0
M  V30 2012 N 169.604 -6.01091 -3.62814 0
M  V30 2013 H 174.444 -2.95961 -0.348035 0
M  V30 2014 H 171.981 -1.46226 -0.160106 0
M  V30 2015 H 173.939 -3.06945 -2.82561 0
M  V30 2016 H 172.569 -1.95801 -2.56636 0
M  V30 2017 H 171.621 -3.69939 -0.885947 0
M  V30 2018 H 172.933 -4.79504 -1.37394 0
M  V30 2019 H 172.087 -4.78522 -3.72963 0
M  V30 2020 H 170.826 -3.59803 -3.29231 0
M  V30 2021 H 169.831 -5.23751 -1.67228 0
M  V30 2022 H 171.056 -6.44613 -2.13659 0
M  V30 2023 H 169.002 -5.19817 -4.00158 0
M  V30 2024 H 168.919 -6.79066 -3.32273 0
M  V30 2025 H 170.187 -6.40227 -4.44668 0
M  V30 2026 N 174.416 0.165178 -1.56732 0
M  V30 2027 C 175.366 1.20917 -1.93295 0
M  V30 2028 C 176.35 1.39488 -0.801985 0
M  V30 2029 O 177.542 1.41356 -1.06525 0
M  V30 2030 C 174.671 2.54718 -2.3016 0
M  V30 2031 C 173.757 2.39815 -3.49785 0
M  V30 2032 N 174.148 1.94637 -4.66851 0
M  V30 2033 C 172.446 2.70623 -3.54513 0
M  V30 2034 C 173.147 1.92344 -5.4898 0
M  V30 2035 N 172.123 2.34978 -4.9019 0
M  V30 2036 H 175.925 0.851675 -2.81289 0
M  V30 2037 H 173.439 0.373399 -1.58049 0
M  V30 2038 H 175.436 3.30165 -2.54552 0
M  V30 2039 H 174.096 2.91265 -1.43508 0
M  V30 2040 H 175.107 1.6488 -4.90953 0
M  V30 2041 H 171.784 3.11167 -2.78354 0
M  V30 2042 H 173.174 1.5906 -6.52801 0
M  V30 2043 N 175.894 1.51508 0.433938 0
M  V30 2044 C 177.142 1.6402 1.18075 0
M  V30 2045 C 177.463 0.360328 1.91642 0
M  V30 2046 O 176.733 -0.623945 1.85698 0
M  V30 2047 H 175.313 0.6045 0.43885 0
M  V30 2048 H 177.975 1.88452 0.497178 0
M  V30 2049 H 177.071 2.46949 1.90847 0
M  V30 2050 N 177.372 -0.689602 1.41712 0
M  V30 2051 C 178.619 -1.44966 1.4139 0
M  V30 2052 C 178.947 -1.94484 0.025105 0
M  V30 2053 O 178.202 -1.70307 -0.964048 0
M  V30 2054 C 178.501 -2.67298 2.37247 0
M  V30 2055 C 178.167 -2.36405 3.83958 0
M  V30 2056 C 176.829 -2.27691 4.23923 0
M  V30 2057 C 179.181 -2.11043 4.76561 0
M  V30 2058 C 176.509 -1.91719 5.54492 0
M  V30 2059 C 178.861 -1.76578 6.07456 0
M  V30 2060 C 177.525 -1.66363 6.46436 0
M  V30 2061 H 176.795 -0.53047 0.517381 0
M  V30 2062 H 179.442 -0.787655 1.74552 0
M  V30 2063 H 177.747 -3.38461 1.9736 0
M  V30 2064 H 179.444 -3.25452 2.34269 0
M  V30 2065 H 176.034 -2.44085 3.52308 0
M  V30 2066 H 180.218 -2.16717 4.46483 0
M  V30 2067 H 175.474 -1.82367 5.83568 0
M  V30 2068 H 179.648 -1.55974 6.78708 0
M  V30 2069 H 177.275 -1.38258 7.47522 0
M  V30 2070 N 178.85 -1.27639 -0.924453 0
M  V30 2071 C 180.097 -1.14167 -1.67249 0
M  V30 2072 C 180.425 0.311863 -1.91984 0
M  V30 2073 O 179.68 1.24425 -1.51053 0
M  V30 2074 C 179.979 -1.87407 -3.04325 0
M  V30 2075 C 179.645 -3.37249 -2.99289 0
M  V30 2076 C 178.307 -3.7812 -2.97622 0
M  V30 2077 C 180.659 -4.32845 -2.90336 0
M  V30 2078 C 177.987 -5.12944 -2.8479 0
M  V30 2079 C 180.339 -5.6773 -2.79045 0
M  V30 2080 C 179.003 -6.07889 -2.7573 0
M  V30 2081 H 178.273 -0.417766 -0.612007 0
M  V30 2082 H 180.92 -1.58286 -1.07786 0
M  V30 2083 H 179.225 -1.35805 -3.67511 0
M  V30 2084 H 180.922 -1.74408 -3.61086 0
M  V30 2085 H 177.512 -3.04748 -3.01374 0
M  V30 2086 H 181.696 -4.02239 -2.90719 0
M  V30 2087 H 176.952 -5.432 -2.80612 0
M  V30 2088 H 181.126 -6.41472 -2.71083 0
M  V30 2089 H 178.753 -7.12314 -2.65544 0
M  V30 2090 N 180.328 1.1314 -1.09713 0
M  V30 2091 C 181.278 2.16709 -0.708593 0
M  V30 2092 C 182.262 1.58471 0.278523 0
M  V30 2093 O 183.454 1.76779 0.088427 0
M  V30 2094 C 180.583 3.43039 -0.133923 0
M  V30 2095 C 179.669 4.08277 -1.14763 0
M  V30 2096 N 180.06 4.48637 -2.33577 0
M  V30 2097 C 178.358 4.34954 -0.986446 0
M  V30 2098 C 179.059 4.9952 -2.98085 0
M  V30 2099 N 178.035 4.94561 -2.25632 0
M  V30 2100 H 181.837 2.45672 -1.61315 0
M  V30 2101 H 179.351 1.29967 -0.973775 0
M  V30 2102 H 181.348 4.16583 0.162465 0
M  V30 2103 H 180.008 3.15549 0.765447 0
M  V30 2104 H 181.019 4.41246 -2.7115 0
M  V30 2105 H 177.696 4.17258 -0.142008 0
M  V30 2106 H 179.086 5.40521 -3.99108 0
M  V30 2107 N 181.806 0.884767 1.30421 0
M  V30 2108 C 183.222 0.57874 1.48737 0
M  V30 2109 C 183.422 -0.883567 1.81095 0
M  V30 2110 O 182.478 -1.6648 1.89844 0
M  V30 2111 C 183.791 1.49171 2.61091 0
M  V30 2112 C 185.339 1.49532 2.74971 0
M  V30 2113 C 185.814 2.39421 3.90438 0
M  V30 2114 N 187.305 2.37383 3.97748 0
M  V30 2115 C 188.04 3.03647 4.86401 0
M  V30 2116 N 187.536 3.79136 5.79852 0
M  V30 2117 N 189.329 2.9288 4.79768 0
M  V30 2118 H 181.48 1.83075 1.0769 0
M  V30 2119 H 183.743 0.783637 0.533495 0
M  V30 2120 H 183.449 2.53291 2.44001 0
M  V30 2121 H 183.323 1.20113 3.57565 0
M  V30 2122 H 185.71 0.46163 2.91467 0
M  V30 2123 H 185.791 1.8262 1.79119 0
M  V30 2124 H 185.435 3.42874 3.74699 0
M  V30 2125 H 185.365 2.03649 4.85628 0
M  V30 2126 H 187.856 1.82525 3.30897 0
M  V30 2127 H 188.169 4.26789 6.4426 0
M  V30 2128 H 186.514 3.83243 5.79784 0
M  V30 2129 H 189.705 2.33433 4.05742 0
M  V30 2130 H 189.878 3.448 5.4865 0
M  V30 2131 N 183.284 -1.43765 0.645699 0
M  V30 2132 C 184.561 -1.9541 0.0862963 0
M  V30 2133 C 184.941 -1.58725 -1.39175 0
M  V30 2134 O 184.289 -0.868581 -2.11348 0
M  V30 2135 C 184.499 -3.47488 0.324565 0
M  V30 2136 C 185.847 -4.24001 0.225497 0
M  V30 2137 O 186.871 -3.55274 0.256715 0
M  V30 2138 O 185.73 -5.46313 0.142801 0
M  V30 2139 H 182.824 -0.826882 -0.0139483 0
M  V30 2140 H 185.37 -1.53743 0.718415 0
M  V30 2141 H 184.142 -3.67289 1.3496 0
M  V30 2142 H 183.765 -3.96135 -0.340987 0
M  V30 2143 N 184.763 -0.387143 -1.52771 0
M  V30 2144 C 185.693 0.440551 -2.29306 0
M  V30 2145 C 186.674 1.06535 -1.32606 0
M  V30 2146 O 187.859 1.07853 -1.61497 0
M  V30 2147 C 184.989 1.56919 -3.09829 0
M  V30 2148 C 183.943 1.07054 -4.14395 0
M  V30 2149 C 183.269 2.29109 -4.83129 0
M  V30 2150 C 184.569 0.140015 -5.22112 0
M  V30 2151 H 186.263 -0.198026 -2.98744 0
M  V30 2152 H 183.809 -0.09668 -1.43675 0
M  V30 2153 H 185.762 2.15503 -3.62128 0
M  V30 2154 H 184.486 2.23532 -2.3812 0
M  V30 2155 H 183.145 0.507247 -3.63074 0
M  V30 2156 H 182.793 2.94227 -4.0797 0
M  V30 2157 H 182.493 1.96406 -5.53804 0
M  V30 2158 H 184.017 2.88339 -5.38231 0
M  V30 2159 H 185.431 0.633978 -5.69784 0
M  V30 2160 H 183.828 -0.0971485 -6.00021 0
M  V30 2161 H 184.898 -0.811711 -4.78058 0
M  V30 2162 N 186.241 1.57166 -0.116904 0
M  V30 2163 C 187.188 2.15202 0.83408 0
M  V30 2164 C 188.158 1.07644 1.26499 0
M  V30 2165 O 189.343 1.35541 1.34288 0
M  V30 2166 C 186.483 2.75405 2.07957 0
M  V30 2167 C 185.596 3.97264 1.69721 0
M  V30 2168 C 184.731 4.45561 2.89221 0
M  V30 2169 C 183.77 5.59956 2.47215 0
M  V30 2170 N 182.907 6.03006 3.59622 0
M  V30 2171 H 187.747 2.96141 0.332335 0
M  V30 2172 H 185.284 1.46309 0.152349 0
M  V30 2173 H 187.242 3.08439 2.80929 0
M  V30 2174 H 185.872 1.97159 2.55594 0
M  V30 2175 H 184.924 3.70404 0.866316 0
M  V30 2176 H 186.236 4.80226 1.34849 0
M  V30 2177 H 185.39 4.80493 3.7042 0
M  V30 2178 H 184.129 3.61544 3.27318 0
M  V30 2179 H 183.134 5.2463 1.64448 0
M  V30 2180 H 184.359 6.45738 2.10238 0
M  V30 2181 H 182.305 5.21931 3.97396 0
M  V30 2182 H 182.222 6.80819 3.28667 0
M  V30 2183 H 183.49 6.42576 4.41267 0
M  V30 2184 N 187.719 -0.156864 1.56817 0
M  V30 2185 C 189.13 -0.717916 1.72345 0
M  V30 2186 C 189.481 -1.82124 0.729747 0
M  V30 2187 O 188.606 -2.16141 -0.105781 0
M  V30 2188 C 189.201 -1.30904 3.12489 0
M  V30 2189 C 187.76 -1.81676 3.29653 0
M  V30 2190 C 186.907 -0.701349 2.68284 0
M  V30 2191 H 189.858 0.0686989 1.58551 0
M  V30 2192 H 189.879 -2.17882 3.11942 0
M  V30 2193 H 189.391 -0.505796 3.8479 0
M  V30 2194 H 187.492 -2.64598 2.62333 0
M  V30 2195 H 187.605 -1.95226 4.3752 0
M  V30 2196 H 185.969 -1.12548 2.28484 0
M  V30 2197 H 186.752 0.0902846 3.43181 0
M  V30 2198 N 189.197 -1.51736 -0.425897 0
M  V30 2199 C 190.107 -1.76738 -1.54275 0
M  V30 2200 C 191.123 -0.65211 -1.61318 0
M  V30 2201 O 192.299 -0.935654 -1.78346 0
M  V30 2202 C 189.364 -1.89755 -2.90162 0
M  V30 2203 C 188.425 -3.13633 -2.93143 0
M  V30 2204 C 187.658 -3.2602 -4.22548 0
M  V30 2205 O 187.881 -2.44067 -5.15546 0
M  V30 2206 O 186.815 -4.19071 -4.32046 0
M  V30 2207 H 190.641 -2.71502 -1.36089 0
M  V30 2208 H 188.226 -1.36376 -0.610069 0
M  V30 2209 H 190.108 -2.00236 -3.70788 0
M  V30 2210 H 188.783 -0.981785 -3.08452 0
M  V30 2211 H 187.69 -3.08622 -2.11431 0
M  V30 2212 H 189.023 -4.04936 -2.798 0
M  V30 2213 N 190.675 0.682077 -1.42076 0
M  V30 2214 C 191.623 1.81707 -1.45208 0
M  V30 2215 C 192.617 1.66183 -0.328591 0
M  V30 2216 O 193.823 1.7288 -0.501264 0
M  V30 2217 H 190.198 0.599014 -0.454628 0
M  V30 2218 H 192.169 1.76183 -2.40836 0
M  V30 2219 C 190.918 3.19816 -1.36428 0
M  V30 2220 H 190.241 3.32385 -2.22171 0
M  V30 2221 H 191.681 3.99272 -1.42681 0
M  V30 2222 C 190.14 3.36809 -0.078191 0
M  V30 2223 O 190.67 3.92124 0.87188 0
M  V30 2224 N 188.876 2.906 0.00229266 0
M  V30 2225 H 188.423 2.45772 -0.771616 0
M  V30 2226 H 188.381 3.02347 0.862179 0
M  V30 2227 N 192.153 1.28127 0.917671 0
M  V30 2228 C 193.083 1.14248 2.03641 0
M  V30 2229 C 194.064 0.0412748 1.7005 0
M  V30 2230 O 195.249 0.217566 1.92977 0
M  V30 2231 C 192.379 0.799431 3.37974 0
M  V30 2232 C 191.333 1.85497 3.85713 0
M  V30 2233 C 190.659 1.36565 5.16966 0
M  V30 2234 C 191.959 3.26085 4.08002 0
M  V30 2235 H 193.653 2.07835 2.15511 0
M  V30 2236 H 191.199 1.00064 1.03553 0
M  V30 2237 H 193.152 0.689114 4.15727 0
M  V30 2238 H 191.876 -0.172145 3.26146 0
M  V30 2239 H 190.535 1.95437 3.10161 0
M  V30 2240 H 190.183 0.383253 5.01538 0
M  V30 2241 H 189.883 2.07143 5.49878 0
M  V30 2242 H 191.407 1.26848 5.97279 0
M  V30 2243 H 192.821 3.19089 4.76293 0
M  V30 2244 H 191.218 3.94462 4.52238 0
M  V30 2245 H 192.288 3.70394 3.12948 0
M  V30 2246 N 193.631 -1.12557 1.10312 0
M  V30 2247 C 194.561 -2.20341 0.772798 0
M  V30 2248 C 195.542 -1.68198 -0.25365 0
M  V30 2249 O 196.727 -1.93831 -0.119699 0
M  V30 2250 C 193.857 -3.46709 0.202443 0
M  V30 2251 C 192.811 -4.11996 1.15943 0
M  V30 2252 C 192.137 -5.328 0.450345 0
M  V30 2253 C 193.437 -4.5828 2.50552 0
M  V30 2254 H 195.131 -2.48229 1.674 0
M  V30 2255 H 192.677 -1.19308 0.806326 0
M  V30 2256 H 194.63 -4.2138 -0.0407752 0
M  V30 2257 H 193.354 -3.18245 -0.734001 0
M  V30 2258 H 192.013 -3.39305 1.38808 0
M  V30 2259 H 191.661 -5.00602 -0.490531 0
M  V30 2260 H 191.361 -5.7743 1.08851 0
M  V30 2261 H 192.885 -6.10219 0.215642 0
M  V30 2262 H 194.299 -5.2433 2.31843 0
M  V30 2263 H 192.696 -5.13683 3.10242 0
M  V30 2264 H 193.766 -3.72329 3.10643 0
M  V30 2265 N 195.109 -0.891671 -1.2995 0
M  V30 2266 C 196.349 -0.520296 -1.97667 0
M  V30 2267 C 196.713 0.914797 -1.68806 0
M  V30 2268 O 197.914 1.39263 -2.29911 0
M  V30 2269 C 196.185 -0.795222 -3.48441 0
M  V30 2270 S 197.744 -0.526953 -4.35624 0
M  V30 2271 H 194.562 -0.19333 -0.684211 0
M  V30 2272 H 197.164 -1.15238 -1.57926 0
M  V30 2273 H 195.868 -1.83805 -3.66938 0
M  V30 2274 H 195.399 -0.15095 -3.9311 0
M  V30 2275 H 197.414 0.631533 -4.92165 0
M  V30 2276 N 196.587 1.43421 -0.653314 0
M  V30 2277 C 197.52 2.2803 0.0879804 0
M  V30 2278 C 198.498 1.39833 0.82979 0
M  V30 2279 O 199.682 1.69275 0.829341 0
M  V30 2280 C 196.809 3.19247 1.13132 0
M  V30 2281 C 195.855 4.23704 0.487546 0
M  V30 2282 S 196.688 5.30377 -0.738961 0
M  V30 2283 C 197.844 6.25162 0.30384 0
M  V30 2284 H 198.077 2.90554 -0.629739 0
M  V30 2285 H 195.61 1.47934 -0.442156 0
M  V30 2286 H 197.568 3.72346 1.72827 0
M  V30 2287 H 196.229 2.55901 1.82136 0
M  V30 2288 H 195.422 4.87631 1.27407 0
M  V30 2289 H 195.024 3.73983 -0.0352915 0
M  V30 2290 H 197.316 6.67321 1.17 0
M  V30 2291 H 198.259 7.07463 -0.300402 0
M  V30 2292 H 198.667 5.60864 0.63969 0
M  V30 2293 N 198.065 0.39524 1.52563 0
M  V30 2294 C 199.313 -0.184678 2.01254 0
M  V30 2295 C 199.634 -1.46822 1.28329 0
M  V30 2296 O 198.904 -1.91666 0.405094 0
M  V30 2297 H 197.484 -0.0712355 0.743596 0
M  V30 2298 H 200.146 0.528293 1.87603 0
M  V30 2299 H 199.242 -0.390681 3.09645 0
M  V30 2300 N 199.544 -1.57102 0.125237 0
M  V30 2301 C 200.955 -1.82384 -0.399142 0
M  V30 2302 C 201.306 -1.04276 -1.66195 0
M  V30 2303 O 200.431 -0.281269 -2.14564 0
M  V30 2304 C 201.026 -3.30821 -0.730932 0
M  V30 2305 C 199.585 -3.56762 -1.19992 0
M  V30 2306 C 198.732 -2.7649 -0.211792 0
M  V30 2307 H 201.683 -1.54786 0.350277 0
M  V30 2308 H 201.704 -3.4579 -1.58775 0
M  V30 2309 H 201.216 -3.87643 0.188345 0
M  V30 2310 H 199.317 -3.05305 -2.13588 0
M  V30 2311 H 199.43 -4.65317 -1.14093 0
M  V30 2312 H 197.794 -2.4489 -0.700085 0
M  V30 2313 H 198.577 -3.36073 0.700691 0
M  V30 2314 N 201.022 0.148545 -1.56898 0
M  V30 2315 C 201.932 1.20293 -2.01412 0
M  V30 2316 C 202.948 1.47107 -0.929273 0
M  V30 2317 O 204.124 1.58807 -1.23863 0
M  V30 2318 C 201.189 2.51682 -2.38447 0
M  V30 2319 C 200.25 2.32529 -3.60872 0
M  V30 2320 C 199.483 3.57653 -3.96132 0
M  V30 2321 O 199.706 4.63771 -3.32073 0
M  V30 2322 O 198.64 3.50408 -4.89385 0
M  V30 2323 H 202.466 0.855025 -2.91416 0
M  V30 2324 H 200.051 0.357151 -1.45068 0
M  V30 2325 H 201.933 3.29147 -2.63135 0
M  V30 2326 H 200.608 2.86006 -1.51599 0
M  V30 2327 H 199.515 1.53019 -3.41373 0
M  V30 2328 H 200.848 2.03121 -4.48333 0
M  V30 2329 N 202.5 1.5196 0.417844 0
M  V30 2330 C 203.43 1.77634 1.51554 0
M  V30 2331 C 204.411 0.626918 1.58126 0
M  V30 2332 O 205.596 0.871632 1.7354 0
M  V30 2333 C 202.726 1.91911 2.8946 0
M  V30 2334 C 201.68 3.07463 2.97743 0
M  V30 2335 C 201.006 3.06951 4.37819 0
M  V30 2336 C 202.306 4.47082 2.70027 0
M  V30 2337 H 204 2.6955 1.3032 0
M  V30 2338 H 201.546 1.29706 0.625492 0
M  V30 2339 H 203.499 2.08455 3.6623 0
M  V30 2340 H 202.223 0.966598 3.11969 0
M  V30 2341 H 200.882 2.90656 2.23416 0
M  V30 2342 H 200.53 2.09438 4.57323 0
M  V30 2343 H 200.23 3.84556 4.44286 0
M  V30 2344 H 201.754 3.25613 5.16535 0
M  V30 2345 H 203.168 4.6414 3.36522 0
M  V30 2346 H 201.565 5.2654 2.87881 0
M  V30 2347 H 202.635 4.55777 1.65514 0
M  V30 2348 N 203.978 -0.674533 1.42435 0
M  V30 2349 C 205.224 -1.43671 1.43131 0
M  V30 2350 C 205.557 -1.94142 0.0476021 0
M  V30 2351 O 204.832 -1.70924 -0.928188 0
M  V30 2352 C 205.115 -2.63355 2.45594 0
M  V30 2353 C 204.968 -2.18514 3.93156 0
M  V30 2354 C 206.287 -3.65571 2.45043 0
M  V30 2355 H 203.406 -0.521077 0.521198 0
M  V30 2356 H 206.048 -0.766551 1.7385 0
M  V30 2357 H 204.198 -3.2053 2.19528 0
M  V30 2358 H 205.87 -1.66504 4.30202 0
M  V30 2359 H 204.113 -1.50086 4.07009 0
M  V30 2360 H 204.784 -3.04484 4.60428 0
M  V30 2361 H 207.26 -3.18113 2.68223 0
M  V30 2362 H 206.136 -4.46893 3.18713 0
M  V30 2363 H 206.397 -4.16716 1.47649 0
M  V30 2364 N 205.456 -1.28612 -0.910864 0
M  V30 2365 C 206.403 -1.12786 -2.01365 0
M  V30 2366 C 207.373 -0.024201 -1.66082 0
M  V30 2367 O 208.558 -0.189667 -1.89855 0
M  V30 2368 C 205.698 -0.798743 -3.35729 0
M  V30 2369 C 204.811 -1.98173 -3.83864 0
M  V30 2370 C 203.946 -1.59298 -5.06752 0
M  V30 2371 C 202.985 -2.74245 -5.47226 0
M  V30 2372 N 202.122 -2.35842 -6.61304 0
M  V30 2373 H 206.962 -2.07142 -2.14234 0
M  V30 2374 H 204.499 -1.03093 -1.0493 0
M  V30 2375 H 206.457 -0.588662 -4.13026 0
M  V30 2376 H 205.087 0.10789 -3.2262 0
M  V30 2377 H 204.139 -2.30386 -3.02699 0
M  V30 2378 H 205.451 -2.84343 -4.09818 0
M  V30 2379 H 204.605 -1.34513 -5.916 0
M  V30 2380 H 203.344 -0.702618 -4.82612 0
M  V30 2381 H 202.349 -2.99725 -4.60918 0
M  V30 2382 H 203.574 -3.63928 -5.73353 0
M  V30 2383 H 201.52 -1.49279 -6.38789 0
M  V30 2384 H 201.437 -3.15546 -6.86998 0
M  V30 2385 H 202.705 -2.14348 -7.4945 0
M  V30 2386 N 206.934 1.1197 -1.10907 0
M  V30 2387 C 208.183 1.82947 -0.849302 0
M  V30 2388 C 208.496 1.85275 0.627112 0
M  V30 2389 O 209.702 2.52296 1.00295 0
M  V30 2390 C 208.158 3.28529 -1.46959 0
M  V30 2391 C 207.766 3.34546 -2.97965 0
M  V30 2392 C 209.51 4.04443 -1.28942 0
M  V30 2393 C 207.417 4.74491 -3.53004 0
M  V30 2394 H 206.347 0.685477 -0.314065 0
M  V30 2395 H 208.998 1.2604 -1.33365 0
M  V30 2396 H 207.38 3.85333 -0.912917 0
M  V30 2397 H 208.554 2.87654 -3.59989 0
M  V30 2398 H 206.869 2.72108 -3.15192 0
M  V30 2399 H 209.466 5.07787 -1.67502 0
M  V30 2400 H 209.809 4.15656 -0.231456 0
M  V30 2401 H 210.342 3.5401 -1.81443 0
M  V30 2402 H 207.081 4.68474 -4.58489 0
M  V30 2403 H 206.601 5.21816 -2.9575 0
M  V30 2404 H 208.28 5.4344 -3.51115 0
M  V30 2405 N 208.412 0.89855 1.29475 0
M  V30 2406 C 209.375 0.380272 2.26023 0
M  V30 2407 C 210.375 -0.484891 1.53315 0
M  V30 2408 O 211.565 -0.290108 1.71767 0
M  V30 2409 C 208.697 -0.45651 3.3783 0
M  V30 2410 H 209.89 1.23295 2.73383 0
M  V30 2411 H 207.443 0.676589 1.40897 0
M  V30 2412 H 208.178 -1.32922 2.95808 0
M  V30 2413 H 207.963 0.163393 3.91759 0
M  V30 2414 H 209.453 -0.810466 4.0966 0
M  V30 2415 N 209.89 -1.43072 0.660911 0
M  V30 2416 C 211.167 -1.95307 0.107017 0
M  V30 2417 C 211.547 -1.60192 -1.37484 0
M  V30 2418 O 210.895 -0.890949 -2.10415 0
M  V30 2419 C 211.105 -3.47124 0.361402 0
M  V30 2420 C 212.453 -4.23738 0.270455 0
M  V30 2421 O 213.477 -3.54981 0.294382 0
M  V30 2422 O 212.336 -5.46131 0.200737 0
M  V30 2423 H 209.43 -0.826984 -0.00517729 0
M  V30 2424 H 211.976 -1.52972 0.734681 0
M  V30 2425 H 210.748 -3.65837 1.38848 0
M  V30 2426 H 210.371 -3.96475 -0.298953 0
M  V30 2427 N 211.368 -0.403325 -1.52352 0
M  V30 2428 C 212.615 0.174347 -2.01748 0
M  V30 2429 C 212.943 1.45636 -1.2892 0
M  V30 2430 O 212.198 1.9193 -0.382258 0
M  V30 2431 C 212.497 0.474665 -3.54234 0
M  V30 2432 C 212.163 -0.717458 -4.45155 0
M  V30 2433 C 210.825 -1.04447 -4.69728 0
M  V30 2434 C 213.177 -1.51432 -4.98716 0
M  V30 2435 C 210.505 -2.16963 -5.45109 0
M  V30 2436 C 212.857 -2.6302 -5.75329 0
M  V30 2437 C 211.521 -2.96213 -5.98175 0
M  V30 2438 H 210.791 0.0637981 -0.738248 0
M  V30 2439 H 213.438 -0.543553 -1.83624 0
M  V30 2440 H 211.743 1.27406 -3.70506 0
M  V30 2441 H 213.44 0.934496 -3.89959 0
M  V30 2442 H 210.03 -0.452596 -4.26204 0
M  V30 2443 H 214.214 -1.27491 -4.79645 0
M  V30 2444 H 209.47 -2.43034 -5.61021 0
M  V30 2445 H 213.644 -3.25158 -6.15829 0
M  V30 2446 H 211.271 -3.83516 -6.56368 0
M  V30 2447 N 212.846 1.57033 -0.133567 0
M  V30 2448 C 214.094 1.953 0.519848 0
M  V30 2449 C 214.415 1.01866 1.66278 0
M  V30 2450 O 213.685 0.0776513 1.95746 0
M  V30 2451 H 212.265 0.721091 0.195032 0
M  V30 2452 H 214.927 1.93809 -0.205921 0
M  V30 2453 H 214.023 2.98695 0.904854 0
M  V30 2454 N 214.325 -0.140222 1.56975 0
M  V30 2455 C 215.255 -1.17456 2.01808 0
M  V30 2456 C 216.236 -1.44415 0.898794 0
M  V30 2457 O 217.421 -1.5522 1.16707 0
M  V30 2458 C 214.551 -2.50607 2.40444 0
M  V30 2459 C 213.505 -2.38155 3.55621 0
M  V30 2460 C 212.831 -3.76078 3.80091 0
M  V30 2461 C 214.131 -1.85991 4.88062 0
M  V30 2462 H 215.825 -0.801743 2.88466 0
M  V30 2463 H 213.371 -0.38422 1.38779 0
M  V30 2464 H 215.324 -3.23197 2.7041 0
M  V30 2465 H 214.048 -2.89737 1.50732 0
M  V30 2466 H 212.707 -1.68016 3.25832 0
M  V30 2467 H 212.355 -4.12656 2.87618 0
M  V30 2468 H 212.055 -3.68606 4.57606 0
M  V30 2469 H 213.579 -4.50206 4.12488 0
M  V30 2470 H 214.993 -2.4838 5.16701 0
M  V30 2471 H 213.39 -1.89393 5.6943 0
M  V30 2472 H 214.46 -0.816023 4.77984 0
M  V30 2473 N 215.803 -1.52179 -0.40978 0
M  V30 2474 C 216.766 -1.74853 -1.48186 0
M  V30 2475 C 217.766 -0.618417 -1.48433 0
M  V30 2476 O 218.956 -0.886286 -1.49969 0
M  V30 2477 C 216.088 -1.8303 -2.87598 0
M  V30 2478 H 217.281 -2.70559 -1.29374 0
M  V30 2479 H 214.834 -1.42586 -0.640233 0
M  V30 2480 H 215.569 -0.89236 -3.11781 0
M  V30 2481 H 215.354 -2.65187 -2.88822 0
M  V30 2482 H 216.844 -2.02316 -3.65319 0
M  V30 2483 N 217.281 0.66697 -1.42791 0
M  V30 2484 C 218.697 0.981027 -1.25889 0
M  V30 2485 C 218.897 2.00793 -0.168695 0
M  V30 2486 O 217.953 2.48321 0.45747 0
M  V30 2487 C 219.266 1.47838 -2.61848 0
M  V30 2488 C 220.814 1.59575 -2.69267 0
M  V30 2489 C 221.289 2.12704 -4.05612 0
M  V30 2490 N 222.78 2.20026 -4.07606 0
M  V30 2491 C 223.515 2.62227 -5.09926 0
M  V30 2492 N 223.011 3.03824 -6.22626 0
M  V30 2493 N 224.804 2.62045 -4.97281 0
M  V30 2494 H 216.955 -0.0127891 -2.12396 0
M  V30 2495 H 219.218 0.0568258 -0.946295 0
M  V30 2496 H 218.924 0.798299 -3.4252 0
M  V30 2497 H 218.798 2.45579 -2.86305 0
M  V30 2498 H 221.185 2.26687 -1.88936 0
M  V30 2499 H 221.266 0.60302 -2.48591 0
M  V30 2500 H 220.91 1.46198 -4.86404 0
M  V30 2501 H 220.84 3.12782 -4.23645 0
M  V30 2502 H 223.331 1.90708 -3.2625 0
M  V30 2503 H 223.644 3.34734 -6.96544 0
M  V30 2504 H 221.989 3.01662 -6.26119 0
M  V30 2505 H 225.18 2.28916 -4.08308 0
M  V30 2506 H 225.353 2.94613 -5.77154 0
M  V30 2507 N 218.759 1.29093 0.90403 0
M  V30 2508 C 219.669 1.15727 2.0407 0
M  V30 2509 C 220.685 0.0815308 1.73809 0
M  V30 2510 O 221.861 0.292749 1.99261 0
M  V30 2511 C 218.926 0.830424 3.36608 0
M  V30 2512 C 217.987 1.98955 3.80415 0
M  V30 2513 C 217.22 1.6782 5.06628 0
M  V30 2514 O 217.443 0.597105 5.67266 0
M  V30 2515 O 216.377 2.52486 5.46383 0
M  V30 2516 H 220.203 2.11171 2.18267 0
M  V30 2517 H 217.788 1.08504 1.027 0
M  V30 2518 H 219.67 0.662521 4.16159 0
M  V30 2519 H 218.345 -0.0942678 3.23563 0
M  V30 2520 H 217.252 2.21267 3.01648 0
M  V30 2521 H 218.585 2.89529 3.98037 0
M  V30 2522 N 220.237 -1.11381 1.11499 0
M  V30 2523 C 221.486 -1.82494 0.858993 0
M  V30 2524 C 221.799 -1.85605 -0.617278 0
M  V30 2525 O 223.005 -2.52824 -0.989552 0
M  V30 2526 C 221.461 -3.27745 1.48699 0
M  V30 2527 C 221.069 -3.32961 2.99735 0
M  V30 2528 C 222.813 -4.03754 1.31085 0
M  V30 2529 C 220.72 -4.72612 3.55516 0
M  V30 2530 H 219.65 -0.683802 0.317696 0
M  V30 2531 H 222.301 -1.25331 1.34031 0
M  V30 2532 H 220.683 -3.84844 0.933339 0
M  V30 2533 H 221.857 -2.85741 3.61509 0
M  V30 2534 H 220.172 -2.70433 3.16631 0
M  V30 2535 H 222.769 -5.06891 1.70192 0
M  V30 2536 H 223.112 -4.15527 0.253496 0
M  V30 2537 H 223.645 -3.53043 1.83318 0
M  V30 2538 H 220.384 -4.66036 4.60967 0
M  V30 2539 H 219.904 -5.2024 2.98513 0
M  V30 2540 H 221.583 -5.4157 3.53992 0
M  V30 2541 N 221.715 -0.905404 -1.28997 0
M  V30 2542 C 223.131 -0.60233 -1.47798 0
M  V30 2543 C 223.331 0.854645 -1.82478 0
M  V30 2544 O 222.387 1.63439 -1.92468 0
M  V30 2545 C 223.7 -1.53306 -2.58685 0
M  V30 2546 C 225.248 -1.53887 -2.72558 0
M  V30 2547 C 225.723 -2.45602 -3.86579 0
M  V30 2548 N 227.214 -2.43681 -3.93921 0
M  V30 2549 C 227.949 -3.11347 -4.81509 0
M  V30 2550 N 227.445 -3.88313 -5.73746 0
M  V30 2551 N 229.238 -3.00476 -4.75048 0
M  V30 2552 H 221.389 -1.84765 -1.04764 0
M  V30 2553 H 223.652 -0.792025 -0.520961 0
M  V30 2554 H 223.358 -2.57141 -2.39941 0
M  V30 2555 H 223.232 -1.25787 -3.55609 0
M  V30 2556 H 225.619 -0.507941 -2.90696 0
M  V30 2557 H 225.7 -1.85447 -1.76191 0
M  V30 2558 H 225.344 -3.48792 -3.69197 0
M  V30 2559 H 225.274 -2.11349 -4.82327 0
M  V30 2560 H 227.765 -1.87767 -3.27951 0
M  V30 2561 H 228.078 -4.36985 -6.37389 0
M  V30 2562 H 226.423 -3.92419 -5.73614 0
M  V30 2563 H 229.614 -2.39858 -4.01977 0
M  V30 2564 H 229.787 -3.53485 -5.43095 0
M  V30 2565 N 223.193 1.4272 -0.668489 0
M  V30 2566 C 224.418 2.06484 -0.194758 0
M  V30 2567 C 224.843 1.49862 1.13679 0
M  V30 2568 O 224.201 0.614582 1.70565 0
M  V30 2569 C 224.249 3.60353 -0.133546 0
M  V30 2570 O 223.353 4.02464 0.899806 0
M  V30 2571 H 222.694 0.656137 -0.10188 0
M  V30 2572 H 225.224 1.82964 -0.915722 0
M  V30 2573 H 225.234 4.07976 0.0447041 0
M  V30 2574 H 223.909 4.00938 -1.1055 0
M  V30 2575 H 222.486 3.66402 0.693109 0
M  V30 2576 N 224.671 0.411399 1.52136 0
M  V30 2577 C 225.618 -0.412975 2.27075 0
M  V30 2578 C 226.588 -1.03912 1.29582 0
M  V30 2579 O 227.773 -1.06296 1.58448 0
M  V30 2580 C 224.913 -1.52247 3.09701 0
M  V30 2581 C 224.026 -0.917021 4.22155 0
M  V30 2582 C 223.161 -1.9994 4.92135 0
M  V30 2583 C 222.2 -1.37101 5.96548 0
M  V30 2584 N 221.337 -2.39364 6.60038 0
M  V30 2585 H 226.177 0.232499 2.97092 0
M  V30 2586 H 223.714 0.126496 1.46555 0
M  V30 2587 H 225.672 -2.17674 3.55913 0
M  V30 2588 H 224.302 -2.13794 2.41851 0
M  V30 2589 H 223.354 -0.151742 3.80097 0
M  V30 2590 H 224.666 -0.418006 4.97045 0
M  V30 2591 H 223.82 -2.73088 5.41763 0
M  V30 2592 H 222.559 -2.53208 4.16818 0
M  V30 2593 H 221.564 -0.624873 5.46237 0
M  V30 2594 H 222.789 -0.845998 6.7381 0
M  V30 2595 H 220.735 -2.91759 5.87548 0
M  V30 2596 H 220.652 -1.9428 7.3061 0
M  V30 2597 H 221.92 -3.12074 7.14304 0
M  V30 2598 N 226.149 -1.5696 0.141893 0
M  V30 2599 C 227.56 -1.82797 -0.379776 0
M  V30 2600 C 227.911 -1.06033 -1.6508 0
M  V30 2601 O 227.036 -0.304011 -2.14254 0
M  V30 2602 C 227.631 -3.31578 -0.695802 0
M  V30 2603 C 226.19 -3.58014 -1.16201 0
M  V30 2604 C 225.337 -2.76699 -0.182455 0
M  V30 2605 H 228.288 -1.54406 0.366675 0
M  V30 2606 H 228.309 -3.47454 -1.55099 0
M  V30 2607 H 227.821 -3.87421 0.229449 0
M  V30 2608 H 225.922 -3.07553 -2.10338 0
M  V30 2609 H 226.035 -4.66501 -1.09151 0
M  V30 2610 H 224.399 -2.45618 -0.674072 0
M  V30 2611 H 225.182 -3.35311 0.736297 0
M  V30 2612 N 227.627 0.131896 -1.57047 0
M  V30 2613 C 229.038 0.690407 -1.73465 0
M  V30 2614 C 229.389 1.8094 -0.758629 0
M  V30 2615 O 228.514 2.16282 0.0713813 0
M  V30 2616 C 229.109 1.25916 -3.14532 0
M  V30 2617 C 227.668 1.76409 -3.32501 0
M  V30 2618 C 226.815 0.658579 -2.69366 0
M  V30 2619 H 229.766 -0.0939144 -1.58422 0
M  V30 2620 H 229.787 2.12892 -3.15369 0
M  V30 2621 H 229.299 0.444515 -3.85546 0
M  V30 2622 H 227.4 2.60391 -2.66509 0
M  V30 2623 H 227.513 1.88241 -4.4057 0
M  V30 2624 H 225.877 1.08899 -2.30246 0
M  V30 2625 H 226.66 -0.14487 -3.42994 0
M  V30 2626 N 229.106 1.52395 0.401703 0
M  V30 2627 C 230.336 1.70429 1.1678 0
M  V30 2628 C 230.744 0.416702 1.84554 0
M  V30 2629 O 230.087 -0.617697 1.73003 0
M  V30 2630 C 230.149 2.78919 2.26814 0
M  V30 2631 C 229.813 4.20437 1.79113 0
M  V30 2632 C 230.81 5.04028 1.27482 0
M  V30 2633 C 228.495 4.66704 1.85722 0
M  V30 2634 C 230.489 6.31961 0.830913 0
M  V30 2635 C 228.176 5.94625 1.40942 0
M  V30 2636 C 229.174 6.77082 0.897128 0
M  V30 2637 O 228.862 8.02607 0.455822 0
M  V30 2638 H 228.594 0.574272 0.356634 0
M  V30 2639 H 231.148 1.99767 0.477724 0
M  V30 2640 H 229.378 2.44973 2.99207 0
M  V30 2641 H 231.067 2.8548 2.88541 0
M  V30 2642 H 231.833 4.69471 1.21744 0
M  V30 2643 H 227.712 4.0262 2.24539 0
M  V30 2644 H 231.256 6.96271 0.430368 0
M  V30 2645 H 227.153 6.28688 1.46362 0
M  V30 2646 H 227.921 8.16453 0.578457 0
M  V30 2647 N 230.584 -0.659388 1.43143 0
M  V30 2648 C 231.812 -1.44723 1.47861 0
M  V30 2649 C 232.227 -1.88563 0.0945886 0
M  V30 2650 O 231.584 -1.59108 -0.893915 0
M  V30 2651 C 231.635 -2.68627 2.41913 0
M  V30 2652 O 231.356 -2.26623 3.74932 0
M  V30 2653 C 232.857 -3.62045 2.55809 0
M  V30 2654 H 230.077 -0.444801 0.502387 0
M  V30 2655 H 232.621 -0.808916 1.87821 0
M  V30 2656 H 230.776 -3.28613 2.05164 0
M  V30 2657 H 231.19 -3.06745 4.2545 0
M  V30 2658 H 232.664 -4.45666 3.25708 0
M  V30 2659 H 233.141 -4.08981 1.60099 0
M  V30 2660 H 233.747 -3.07944 2.93344 0
M  V30 2661 N 232.062 -1.29571 -0.897171 0
M  V30 2662 C 233.339 -1.08365 -1.62839 0
M  V30 2663 C 233.719 0.371331 -2.07808 0
M  V30 2664 O 233.067 1.3606 -1.83576 0
M  V30 2665 C 233.277 -2.0735 -2.80726 0
M  V30 2666 C 234.625 -2.38406 -3.51351 0
M  V30 2667 O 235.649 -2.05564 -2.90898 0
M  V30 2668 O 234.508 -2.9453 -4.60341 0
M  V30 2669 H 231.602 -0.415345 -0.715134 0
M  V30 2670 H 234.148 -1.40952 -0.945018 0
M  V30 2671 H 232.92 -3.05339 -2.44711 0
M  V30 2672 H 232.543 -1.75507 -3.56767 0
M  V30 2673 N 233.54 1.10788 -1.12088 0
M  V30 2674 C 234.77 1.86191 -0.895351 0
M  V30 2675 C 235.178 1.80763 0.558702 0
M  V30 2676 O 234.521 1.19188 1.39785 0
M  V30 2677 C 234.583 3.35659 -1.28737 0
M  V30 2678 C 234.247 3.64849 -2.75198 0
M  V30 2679 C 235.244 3.61757 -3.734 0
M  V30 2680 C 232.929 3.93641 -3.12013 0
M  V30 2681 C 234.923 3.87045 -5.06434 0
M  V30 2682 C 232.61 4.18585 -4.4523 0
M  V30 2683 C 233.608 4.15277 -5.42249 0
M  V30 2684 O 233.296 4.3959 -6.73065 0
M  V30 2685 H 233.028 0.595425 -0.32007 0
M  V30 2686 H 235.582 1.40992 -1.49367 0
M  V30 2687 H 233.812 3.81497 -0.63224 0
M  V30 2688 H 235.501 3.92441 -1.03656 0
M  V30 2689 H 236.267 3.39557 -3.46303 0
M  V30 2690 H 232.146 3.95348 -2.37109 0
M  V30 2691 H 235.69 3.84378 -5.82151 0
M  V30 2692 H 231.587 4.40264 -4.72057 0
M  V30 2693 H 232.355 4.57123 -6.78956 0
M  V30 2694 N 235.018 0.912232 1.28515 0
M  V30 2695 C 236.264 0.545405 1.95328 0
M  V30 2696 C 236.597 -0.908313 1.71649 0
M  V30 2697 O 235.872 -1.64575 1.03659 0
M  V30 2698 C 236.155 0.853483 3.4984 0
M  V30 2699 C 236.008 2.35982 3.82926 0
M  V30 2700 C 237.327 0.348589 4.38717 0
M  V30 2701 H 234.446 0.199626 0.709449 0
M  V30 2702 H 237.088 1.1412 1.5191 0
M  V30 2703 H 235.238 0.34643 3.86952 0
M  V30 2704 H 236.91 2.93738 3.55691 0
M  V30 2705 H 235.153 2.81543 3.30024 0
M  V30 2706 H 235.824 2.52593 4.90816 0
M  V30 2707 H 238.3 0.78294 4.08668 0
M  V30 2708 H 237.176 0.593242 5.45685 0
M  V30 2709 H 237.437 -0.751049 4.35674 0
M  V30 2710 N 236.496 -1.42363 0.676048 0
M  V30 2711 C 237.721 -2.06377 0.205705 0
M  V30 2712 C 238.146 -1.50463 -1.12883 0
M  V30 2713 O 237.504 -0.623619 -1.70237 0
M  V30 2714 C 237.552 -3.60277 0.152655 0
M  V30 2715 O 236.656 -4.02935 -0.87845 0
M  V30 2716 H 235.997 -0.655588 0.105359 0
M  V30 2717 H 238.527 -1.82475 0.925412 0
M  V30 2718 H 238.537 -4.07993 -0.0230675 0
M  V30 2719 H 237.212 -4.00346 1.12675 0
M  V30 2720 H 235.789 -3.66764 -0.673668 0
M  V30 2721 N 237.974 -0.419461 -1.51915 0
M  V30 2722 C 239.202 0.152136 -2.0634 0
M  V30 2723 C 239.617 1.37988 -1.28859 0
M  V30 2724 O 238.974 1.79243 -0.343232 0
M  V30 2725 C 239.025 0.492266 -3.58133 0
M  V30 2726 O 238.746 -0.686736 -4.32684 0
M  V30 2727 C 240.247 1.11648 -4.2901 0
M  V30 2728 H 237.467 0.0158325 -0.670813 0
M  V30 2729 H 240.011 -0.593394 -1.95702 0
M  V30 2730 H 238.166 1.18769 -3.68745 0
M  V30 2731 H 238.58 -0.400341 -5.2297 0
M  V30 2732 H 240.054 1.3046 -5.36362 0
M  V30 2733 H 240.531 2.09251 -3.86148 0
M  V30 2734 H 241.137 0.460958 -4.22795 0
M  V30 2735 N 239.452 1.56882 -0.150215 0
M  V30 2736 C 240.868 1.58263 0.20617 0
M  V30 2737 C 241.068 1.16464 1.64434 0
M  V30 2738 O 240.124 0.866422 2.3717 0
M  V30 2739 C 241.437 3.00649 -0.0555025 0
M  V30 2740 C 242.985 3.12999 0.00795388 0
M  V30 2741 C 243.46 4.5744 -0.226429 0
M  V30 2742 N 244.951 4.62875 -0.173469 0
M  V30 2743 C 245.686 5.72454 -0.329288 0
M  V30 2744 N 245.182 6.90669 -0.543005 0
M  V30 2745 N 246.975 5.61467 -0.266666 0
M  V30 2746 H 239.126 1.82345 -1.08922 0
M  V30 2747 H 241.389 0.844149 -0.431413 0
M  V30 2748 H 241.095 3.3563 -1.05096 0
M  V30 2749 H 240.969 3.71337 0.66246 0
M  V30 2750 H 243.356 2.77857 0.993966 0
M  V30 2751 H 243.437 2.4479 -0.742388 0
M  V30 2752 H 243.081 4.93287 -1.20956 0
M  V30 2753 H 243.011 5.2378 0.544274 0
M  V30 2754 H 245.502 3.77898 -0.0130709 0
M  V30 2755 H 245.815 7.70045 -0.651922 0
M  V30 2756 H 244.16 6.92581 -0.579366 0
M  V30 2757 H 247.351 4.67992 -0.100441 0
M  V30 2758 H 247.524 6.46816 -0.391535 0
M  V30 2759 N 240.93 -0.123565 1.57115 0
M  V30 2760 C 242.176 -0.828428 1.85765 0
M  V30 2761 C 242.531 -1.77709 0.737371 0
M  V30 2762 O 241.824 -1.89787 -0.262978 0
M  V30 2763 C 242.018 -1.62016 3.18568 0
M  V30 2764 C 241.847 -0.749663 4.43407 0
M  V30 2765 C 240.617 -0.406251 5.03664 0
M  V30 2766 C 242.815 -0.0693505 5.14253 0
M  V30 2767 N 240.797 0.475389 6.12057 0
M  V30 2768 C 242.168 0.671474 6.16353 0
M  V30 2769 C 244.223 0.00754393 4.97899 0
M  V30 2770 C 242.926 1.48197 7.03868 0
M  V30 2771 C 244.952 0.804845 5.85898 0
M  V30 2772 C 244.314 1.53388 6.87497 0
M  V30 2773 H 240.413 -0.280219 0.73007 0
M  V30 2774 H 242.997 -0.0924183 1.94481 0
M  V30 2775 H 241.168 -2.32724 3.10957 0
M  V30 2776 H 242.9 -2.27 3.35042 0
M  V30 2777 H 239.655 -0.747446 4.67665 0
M  V30 2778 H 240.079 0.907924 6.70884 0
M  V30 2779 H 244.721 -0.541741 4.19315 0
M  V30 2780 H 242.439 2.04242 7.81864 0
M  V30 2781 H 246.025 0.866642 5.75309 0
M  V30 2782 H 244.905 2.1409 7.5441 0
M  V30 2783 N 242.408 -1.52605 -0.393616 0
M  V30 2784 C 243.638 -1.71046 -1.15874 0
M  V30 2785 C 244.046 -0.426483 -1.84331 0
M  V30 2786 O 243.389 0.608513 -1.73329 0
M  V30 2787 C 243.451 -2.80118 -2.25332 0
M  V30 2788 C 243.115 -4.21381 -1.76881 0
M  V30 2789 C 244.112 -5.04697 -1.24808 0
M  V30 2790 C 241.797 -4.67683 -1.83244 0
M  V30 2791 C 243.791 -6.32393 -0.797387 0
M  V30 2792 C 241.478 -5.95364 -1.37787 0
M  V30 2793 C 242.476 -6.77549 -0.861208 0
M  V30 2794 O 242.164 -8.02837 -0.413252 0
M  V30 2795 H 241.896 -0.576155 -0.353583 0
M  V30 2796 H 244.45 -2.00018 -0.467123 0
M  V30 2797 H 242.68 -2.46557 -2.97904 0
M  V30 2798 H 244.369 -2.87006 -2.87023 0
M  V30 2799 H 245.135 -4.70111 -1.19252 0
M  V30 2800 H 241.014 -4.03805 -2.22401 0
M  V30 2801 H 244.558 -6.9649 -0.393437 0
M  V30 2802 H 240.455 -6.29455 -1.43026 0
M  V30 2803 H 241.223 -8.16749 -0.53515 0
M  V30 2804 N 243.887 0.651787 -1.4349 0
M  V30 2805 C 245.303 0.96762 -1.26922 0
M  V30 2806 C 245.503 2.00602 -0.189982 0
M  V30 2807 O 244.559 2.48793 0.431107 0
M  V30 2808 C 245.872 1.45052 -2.63401 0
M  V30 2809 C 247.42 1.5671 -2.70945 0
M  V30 2810 C 247.895 2.0839 -4.07845 0
M  V30 2811 N 249.386 2.1569 -4.09917 0
M  V30 2812 C 250.121 2.56804 -5.12679 0
M  V30 2813 N 249.617 2.97203 -6.25813 0
M  V30 2814 N 251.41 2.56756 -5.00033 0
M  V30 2815 H 243.561 -0.0353158 -2.12371 0
M  V30 2816 H 245.824 0.0467858 -0.946845 0
M  V30 2817 H 245.53 0.761926 -3.43348 0
M  V30 2818 H 245.404 2.42529 -2.88894 0
M  V30 2819 H 247.791 2.2467 -1.9133 0
M  V30 2820 H 247.872 0.57662 -2.49216 0
M  V30 2821 H 247.516 1.41031 -4.87927 0
M  V30 2822 H 247.446 3.08271 -4.26938 0
M  V30 2823 H 249.937 1.87237 -3.28254 0
M  V30 2824 H 250.25 3.27328 -7.00055 0
M  V30 2825 H 248.595 2.95004 -6.29283 0
M  V30 2826 H 251.786 2.24572 -4.10713 0
M  V30 2827 H 251.959 2.88475 -5.80247 0
M  V30 2828 N 245.365 1.30045 0.890287 0
M  V30 2829 C 246.328 1.15963 1.977 0
M  V30 2830 C 247.328 0.0923777 1.60534 0
M  V30 2831 O 248.518 0.340071 1.70848 0
M  V30 2832 C 245.65 0.775451 3.31963 0
M  V30 2833 H 246.843 2.12502 2.11619 0
M  V30 2834 H 244.396 1.13366 1.07601 0
M  V30 2835 H 245.131 -0.189671 3.23745 0
M  V30 2836 H 244.916 1.54668 3.60306 0
M  V30 2837 H 246.406 0.700251 4.11687 0
M  V30 2838 N 246.843 -1.10192 1.12674 0
M  V30 2839 C 248.254 -1.63707 0.897604 0
M  V30 2840 C 248.605 -1.87812 -0.567546 0
M  V30 2841 O 247.73 -1.62196 -1.43253 0
M  V30 2842 C 248.325 -2.974 1.62292 0
M  V30 2843 C 246.884 -3.47772 1.43986 0
M  V30 2844 C 246.031 -2.22332 1.65722 0
M  V30 2845 H 248.982 -0.936587 1.28116 0
M  V30 2846 H 249.003 -3.64986 1.07541 0
M  V30 2847 H 248.515 -2.79824 2.68924 0
M  V30 2848 H 246.616 -3.70487 0.396206 0
M  V30 2849 H 246.729 -4.25723 2.19765 0
M  V30 2850 H 245.093 -2.30599 1.08149 0
M  V30 2851 H 245.876 -2.07285 2.73657 0
M  V30 2852 N 248.321 -0.919034 -1.28029 0
M  V30 2853 C 249.231 -0.416756 -2.30869 0
M  V30 2854 C 250.247 0.498235 -1.66714 0
M  V30 2855 O 251.423 0.383144 -1.97722 0
M  V30 2856 C 248.488 0.330274 -3.45123 0
M  V30 2857 C 247.549 -0.618578 -4.2482 0
M  V30 2858 C 246.782 0.0928959 -5.33619 0
M  V30 2859 O 247.005 1.31375 -5.55065 0
M  V30 2860 O 245.939 -0.574499 -5.99152 0
M  V30 2861 H 249.765 -1.27043 -2.75851 0
M  V30 2862 H 247.35 -0.684052 -1.3282 0
M  V30 2863 H 249.232 0.751972 -4.14636 0
M  V30 2864 H 247.907 1.1597 -3.02213 0
M  V30 2865 H 246.814 -1.08978 -3.57875 0
M  V30 2866 H 248.147 -1.41497 -4.71423 0
M  V30 2867 N 249.799 1.42003 -0.683588 0
M  V30 2868 C 251.045 2.01712 -0.209825 0
M  V30 2869 C 251.378 1.53968 1.18353 0
M  V30 2870 O 250.653 0.745661 1.79639 0
M  V30 2871 C 250.936 3.59202 -0.254197 0
M  V30 2872 C 250.789 4.17102 -1.68363 0
M  V30 2873 C 252.108 4.38344 0.392709 0
M  V30 2874 H 249.227 0.732891 -0.0777189 0
M  V30 2875 H 251.869 1.68909 -0.87004 0
M  V30 2876 H 250.019 3.87278 0.307954 0
M  V30 2877 H 251.691 3.99946 -2.29871 0
M  V30 2878 H 249.934 3.72597 -2.22157 0
M  V30 2879 H 250.605 5.26249 -1.6663 0
M  V30 2880 H 253.081 4.16011 -0.0859162 0
M  V30 2881 H 251.957 5.47901 0.331063 0
M  V30 2882 H 252.218 4.16887 1.47164 0
M  V30 2883 N 251.277 0.427512 1.51691 0
M  V30 2884 C 252.207 -0.3796 2.30394 0
M  V30 2885 C 253.188 -1.02982 1.35384 0
M  V30 2886 O 254.373 -1.03534 1.643 0
M  V30 2887 C 251.503 -1.48649 3.1388 0
M  V30 2888 C 250.457 -0.960294 4.17088 0
M  V30 2889 C 249.783 -2.16219 4.89033 0
M  V30 2890 C 251.083 -0.00153679 5.223 0
M  V30 2891 H 252.777 0.277164 2.98114 0
M  V30 2892 H 250.323 0.134739 1.43368 0
M  V30 2893 H 252.276 -2.05826 3.67714 0
M  V30 2894 H 251 -2.1714 2.43962 0
M  V30 2895 H 249.659 -0.410806 3.64291 0
M  V30 2896 H 249.307 -2.83307 4.15628 0
M  V30 2897 H 249.007 -1.81654 5.58816 0
M  V30 2898 H 250.531 -2.73968 5.45687 0
M  V30 2899 H 251.945 -0.482687 5.71264 0
M  V30 2900 H 250.342 0.256199 5.99553 0
M  V30 2901 H 251.412 0.938174 4.75738 0
M  V30 2902 N 252.755 -1.56801 0.158532 0
M  V30 2903 C 253.685 -2.20347 -0.772609 0
M  V30 2904 C 254.666 -1.15518 -1.24859 0
M  V30 2905 O 255.851 -1.43902 -1.30406 0
M  V30 2906 C 252.981 -2.83417 -2.00729 0
M  V30 2907 C 251.935 -3.94174 -1.66765 0
M  V30 2908 C 251.261 -4.44233 -2.97592 0
M  V30 2909 C 252.561 -5.14392 -0.905447 0
M  V30 2910 H 254.255 -2.98413 -0.242959 0
M  V30 2911 H 251.801 -1.43537 -0.115419 0
M  V30 2912 H 253.754 -3.26543 -2.6636 0
M  V30 2913 H 252.478 -2.02701 -2.56086 0
M  V30 2914 H 251.137 -3.51684 -1.03508 0
M  V30 2915 H 250.785 -3.60325 -3.50963 0
M  V30 2916 H 250.485 -5.18945 -2.75626 0
M  V30 2917 H 252.009 -4.90037 -3.64274 0
M  V30 2918 H 253.423 -5.5429 -1.46408 0
M  V30 2919 H 251.82 -5.9494 -0.7853 0
M  V30 2920 H 252.89 -4.84795 0.100668 0
M  V30 2921 N 254.233 0.115231 -1.57178 0
M  V30 2922 C 255.649 0.468877 -1.52557 0
M  V30 2923 C 255.849 1.81649 -0.872125 0
M  V30 2924 O 254.905 2.48347 -0.45606 0
M  V30 2925 C 256.218 0.4499 -2.97315 0
M  V30 2926 C 257.766 0.533185 -3.08425 0
M  V30 2927 C 258.241 0.54456 -4.54751 0
M  V30 2928 N 259.732 0.605892 -4.5922 0
M  V30 2929 C 260.467 0.636203 -5.6986 0
M  V30 2930 N 259.963 0.623931 -6.89985 0
M  V30 2931 N 261.756 0.679496 -5.57978 0
M  V30 2932 H 253.907 -0.767712 -1.9804 0
M  V30 2933 H 256.17 -0.283609 -0.904583 0
M  V30 2934 H 255.876 -0.472721 -3.48509 0
M  V30 2935 H 255.75 1.27632 -3.5495 0
M  V30 2936 H 258.137 1.44623 -2.57232 0
M  V30 2937 H 258.218 -0.320995 -2.53778 0
M  V30 2938 H 257.862 -0.364452 -5.06591 0
M  V30 2939 H 257.792 1.41568 -5.07214 0
M  V30 2940 H 260.283 0.621386 -3.72756 0
M  V30 2941 H 260.596 0.649787 -7.70063 0
M  V30 2942 H 258.941 0.591296 -6.9248 0
M  V30 2943 H 262.132 0.686472 -4.63039 0
M  V30 2944 H 262.305 0.69965 -6.44212 0
M  V30 2945 N 255.711 1.52812 0.385517 0
M  V30 2946 C 256.936 1.72207 1.15583 0
M  V30 2947 C 257.361 0.441034 1.82857 0
M  V30 2948 O 256.719 -0.603465 1.70962 0
M  V30 2949 C 256.767 2.87476 2.17692 0
M  V30 2950 O 255.871 2.54693 3.24354 0
M  V30 2951 H 255.212 0.572526 0.336319 0
M  V30 2952 H 257.742 1.99618 0.448744 0
M  V30 2953 H 257.752 3.13072 2.6163 0
M  V30 2954 H 256.427 3.80408 1.68115 0
M  V30 2955 H 255.004 2.3985 2.85529 0
M  V30 2956 N 257.189 -0.644168 1.43834 0
M  V30 2957 C 258.417 -1.43147 1.49387 0
M  V30 2958 C 258.832 -1.88452 0.114583 0
M  V30 2959 O 258.189 -1.60047 -0.876989 0
M  V30 2960 C 258.24 -2.66046 2.44748 0
M  V30 2961 O 257.961 -2.22633 3.77314 0
M  V30 2962 C 259.462 -3.59311 2.59635 0
M  V30 2963 H 256.682 -0.439447 0.507077 0
M  V30 2964 H 259.226 -0.78895 1.88669 0
M  V30 2965 H 257.381 -3.26418 2.08638 0
M  V30 2966 H 257.795 -3.02216 4.28679 0
M  V30 2967 H 259.269 -4.42187 3.30416 0
M  V30 2968 H 259.746 -4.07259 1.64427 0
M  V30 2969 H 260.352 -3.04816 2.96593 0
M  V30 2970 N 258.668 -1.30515 -0.883378 0
M  V30 2971 C 259.616 -1.16941 -2.01066 0
M  V30 2972 C 260.61 -0.0809148 -1.69207 0
M  V30 2973 O 261.816 -0.241877 -1.78367 0
M  V30 2974 H 258.191 -0.361705 -0.659298 0
M  V30 2975 H 260.162 -2.12344 -2.09649 0
M  V30 2976 C 258.911 -0.879694 -3.36388 0
M  V30 2977 H 258.234 -1.70936 -3.61415 0
M  V30 2978 H 259.674 -0.82483 -4.159 0
M  V30 2979 C 258.133 0.417409 -3.34304 0
M  V30 2980 O 258.663 1.43843 -3.75063 0
M  V30 2981 N 256.869 0.429141 -2.87414 0
M  V30 2982 H 256.416 -0.402222 -2.5444 0
M  V30 2983 H 256.374 1.29696 -2.86403 0
M  V30 2984 N 260.146 1.09593 -1.13257 0
M  V30 2985 C 261.376 1.85231 -0.915049 0
M  V30 2986 C 261.784 1.81345 0.539498 0
M  V30 2987 O 261.127 1.20664 1.38513 0
M  V30 2988 C 261.189 3.34275 -1.3229 0
M  V30 2989 C 260.853 3.6191 -2.79052 0
M  V30 2990 C 261.85 3.57777 -3.77216 0
M  V30 2991 C 259.535 3.90309 -3.16171 0
M  V30 2992 C 261.529 3.81652 -5.1051 0
M  V30 2993 C 259.216 4.13839 -4.49644 0
M  V30 2994 C 260.214 4.09502 -5.46623 0
M  V30 2995 O 259.902 4.32426 -6.77689 0
M  V30 2996 H 259.634 0.591997 -0.326367 0
M  V30 2997 H 262.188 1.394 -1.50854 0
M  V30 2998 H 260.418 3.80805 -0.672667 0
M  V30 2999 H 262.107 3.9132 -1.07812 0
M  V30 3000 H 262.873 3.35865 -3.49885 0
M  V30 3001 H 258.752 3.92811 -2.41289 0
M  V30 3002 H 262.296 3.78182 -5.86195 0
M  V30 3003 H 258.193 4.35232 -4.767 0
M  V30 3004 H 258.961 4.49896 -6.83766 0
M  V30 3005 N 261.624 0.925811 1.2754 0
M  V30 3006 C 262.849 0.580924 1.99098 0
M  V30 3007 C 263.274 -0.833555 1.68622 0
M  V30 3008 O 262.632 -1.55903 0.925422 0
M  V30 3009 C 262.68 0.811186 3.51358 0
M  V30 3010 O 261.784 -0.124129 4.12213 0
M  V30 3011 H 261.125 0.223873 0.625122 0
M  V30 3012 H 263.655 1.24455 1.62395 0
M  V30 3013 H 263.665 0.72601 4.01489 0
M  V30 3014 H 262.34 1.84227 3.72872 0
M  V30 3015 H 260.917 0.0108006 3.72898 0
M  V30 3016 N 263.102 -1.41638 0.69111 0
M  V30 3017 C 264.327 -2.06148 0.227583 0
M  V30 3018 C 264.752 -1.51652 -1.11281 0
M  V30 3019 O 264.11 -0.64164 -1.69566 0
M  V30 3020 C 264.158 -3.60095 0.190858 0
M  V30 3021 O 263.262 -4.03845 -0.835664 0
M  V30 3022 H 262.603 -0.654434 0.112306 0
M  V30 3023 H 265.133 -1.81484 0.944714 0
M  V30 3024 H 265.143 -4.07995 0.020207 0
M  V30 3025 H 263.818 -3.99129 1.16915 0
M  V30 3026 H 262.395 -3.67458 -0.63473 0
M  V30 3027 N 264.58 -0.43555 -1.51462 0
M  V30 3028 C 265.991 0.0279871 -1.86679 0
M  V30 3029 C 266.342 1.42104 -1.35281 0
M  V30 3030 O 265.467 2.04667 -0.702878 0
M  V30 3031 C 266.062 0.0575626 -3.38751 0
M  V30 3032 C 264.621 0.465507 -3.7351 0
M  V30 3033 C 263.768 -0.342996 -2.75171 0
M  V30 3034 H 266.719 -0.651473 -1.44712 0
M  V30 3035 H 266.74 0.867421 -3.70481 0
M  V30 3036 H 266.252 -0.956448 -3.7613 0
M  V30 3037 H 264.353 1.48519 -3.41721 0
M  V30 3038 H 264.466 0.191546 -4.78717 0
M  V30 3039 H 262.83 0.198442 -2.53926 0
M  V30 3040 H 263.613 -1.35585 -3.15391 0
M  V30 3041 N 266.058 1.56714 -0.166846 0
M  V30 3042 C 267.307 1.95922 0.479318 0
M  V30 3043 C 267.62 1.05529 1.6469 0
M  V30 3044 O 268.826 1.34399 2.35901 0
M  V30 3045 C 267.282 3.48359 0.90412 0
M  V30 3046 C 266.89 4.47369 -0.237621 0
M  V30 3047 C 268.634 3.96394 1.51896 0
M  V30 3048 C 266.541 5.91039 0.206561 0
M  V30 3049 H 265.471 0.731495 0.18284 0
M  V30 3050 H 268.122 1.81728 -0.254363 0
M  V30 3051 H 266.504 3.57955 1.69365 0
M  V30 3052 H 267.678 4.49485 -1.01489 0
M  V30 3053 H 265.993 4.09366 -0.762128 0
M  V30 3054 H 268.59 5.01186 1.86325 0
M  V30 3055 H 268.933 3.39075 2.41524 0
M  V30 3056 H 269.466 3.89796 0.79395 0
M  V30 3057 H 266.205 6.52221 -0.654834 0
M  V30 3058 H 265.725 5.9224 0.949282 0
M  V30 3059 H 267.404 6.43707 0.651939 0
M  V30 3060 N 267.536 -0.106894 1.57237 0
M  V30 3061 C 268.813 -0.843526 1.76477 0
M  V30 3062 C 269.193 -1.97499 0.745464 0
M  V30 3063 O 268.541 -2.27357 -0.228306 0
M  V30 3064 C 268.751 -1.34903 3.21873 0
M  V30 3065 C 270.099 -1.79654 3.8472 0
M  V30 3066 O 271.123 -1.44554 3.2555 0
M  V30 3067 O 269.982 -2.44515 4.88748 0
M  V30 3068 H 267.076 -0.401468 0.723016 0
M  V30 3069 H 269.622 -0.0896927 1.69463 0
M  V30 3070 H 268.394 -0.53781 3.87586 0
M  V30 3071 H 268.017 -2.16522 3.33473 0
M  V30 3072 N 269.014 -1.53014 -0.377408 0
M  V30 3073 C 270.26 -1.68872 -1.12294 0
M  V30 3074 C 270.593 -0.433224 -1.89306 0
M  V30 3075 O 269.868 0.569258 -1.85983 0
M  V30 3076 C 270.151 -2.93115 -2.09179 0
M  V30 3077 C 270.004 -4.28794 -1.35853 0
M  V30 3078 C 271.323 -3.12928 -3.09458 0
M  V30 3079 H 268.442 -0.614518 -0.406862 0
M  V30 3080 H 271.084 -1.85633 -0.40503 0
M  V30 3081 H 269.234 -2.78956 -2.70399 0
M  V30 3082 H 270.906 -4.54742 -0.775082 0
M  V30 3083 H 269.149 -4.28744 -0.660364 0
M  V30 3084 H 269.82 -5.11837 -2.06706 0
M  V30 3085 H 272.296 -3.26194 -2.58334 0
M  V30 3086 H 271.172 -4.01316 -3.74482 0
M  V30 3087 H 271.433 -2.27669 -3.78971 0
M  V30 3088 N 270.492 0.636531 -1.44174 0
M  V30 3089 C 271.738 1.39649 -1.47884 0
M  V30 3090 C 272.093 1.92098 -0.107747 0
M  V30 3091 O 271.386 1.70391 0.876208 0
M  V30 3092 C 271.58 2.58309 -2.47005 0
M  V30 3093 C 271.409 2.17476 -3.93617 0
M  V30 3094 C 270.179 2.0501 -4.61843 0
M  V30 3095 C 272.377 1.76722 -4.82984 0
M  V30 3096 N 270.359 1.57683 -5.93304 0
M  V30 3097 C 271.73 1.40601 -6.03847 0
M  V30 3098 C 273.785 1.64054 -4.70096 0
M  V30 3099 C 272.488 0.930787 -7.13252 0
M  V30 3100 C 274.514 1.17937 -5.79521 0
M  V30 3101 C 273.876 0.827625 -6.99521 0
M  V30 3102 H 269.975 0.506027 -0.596205 0
M  V30 3103 H 272.559 0.730791 -1.80465 0
M  V30 3104 H 270.73 3.22514 -2.16423 0
M  V30 3105 H 272.462 3.25083 -2.41045 0
M  V30 3106 H 269.217 2.25294 -4.16581 0
M  V30 3107 H 269.641 1.36334 -6.63131 0
M  V30 3108 H 274.283 1.89882 -3.77762 0
M  V30 3109 H 272.001 0.660012 -8.054 0
M  V30 3110 H 275.587 1.08601 -5.71574 0
M  V30 3111 H 274.467 0.476231 -7.82753 0
M  V30 3112 N 271.97 1.30982 0.876444 0
M  V30 3113 C 272.933 1.18054 1.96459 0
M  V30 3114 C 273.933 0.109399 1.60427 0
M  V30 3115 O 275.123 0.358173 1.70478 0
M  V30 3116 C 272.255 0.810616 3.31122 0
M  V30 3117 H 273.448 2.14735 2.09354 0
M  V30 3118 H 271.001 1.145 1.06392 0
M  V30 3119 H 271.736 -0.155322 3.23928 0
M  V30 3120 H 271.521 1.58481 3.58645 0
M  V30 3121 H 273.011 0.743876 4.10921 0
M  V30 3122 N 273.449 -1.08991 1.13837 0
M  V30 3123 C 274.695 -1.81526 0.90422 0
M  V30 3124 C 275.028 -1.85706 -0.568066 0
M  V30 3125 O 274.303 -1.32855 -1.42056 0
M  V30 3126 C 274.586 -3.27447 1.49835 0
M  V30 3127 C 274.439 -3.31512 3.04006 0
M  V30 3128 C 275.758 -4.24256 1.17025 0
M  V30 3129 H 272.877 -0.659029 0.329923 0
M  V30 3130 H 275.519 -1.27644 1.40737 0
M  V30 3131 H 273.669 -3.73462 1.07044 0
M  V30 3132 H 275.341 -2.93867 3.55584 0
M  V30 3133 H 273.584 -2.70963 3.38765 0
M  V30 3134 H 274.255 -4.34329 3.40679 0
M  V30 3135 H 276.731 -3.86549 1.54009 0
M  V30 3136 H 275.607 -5.24684 1.61237 0
M  V30 3137 H 275.868 -4.42019 0.0846274 0
M  V30 3138 N 274.927 -0.932562 -1.27047 0
M  V30 3139 C 276.175 -0.574422 -1.93765 0
M  V30 3140 C 276.496 0.887993 -1.73608 0
M  V30 3141 O 275.766 1.62999 -1.08665 0
M  V30 3142 H 274.346 -0.209451 -0.717035 0
M  V30 3143 H 277.008 -1.18601 -1.5466 0
M  V30 3144 H 276.104 -0.784841 -3.02071 0
M  V30 3145 N 276.405 1.4127 -0.698611 0
M  V30 3146 C 277.645 2.03044 -0.235062 0
M  V30 3147 C 278.009 1.54146 1.14468 0
M  V30 3148 O 279.21 2.07867 1.70425 0
M  V30 3149 C 277.481 3.56192 -0.293651 0
M  V30 3150 S 279.04 4.38696 0.0954053 0
M  V30 3151 H 275.858 0.704697 -0.0944648 0
M  V30 3152 H 278.46 1.72656 -0.917064 0
M  V30 3153 H 277.164 3.89274 -1.29977 0
M  V30 3154 H 276.695 3.91285 0.407397 0
M  V30 3155 H 278.71 4.78257 1.3223 0
M  V30 3156 N 277.883 0.443576 1.51229 0
M  V30 3157 C 279.132 -0.122332 2.01329 0
M  V30 3158 C 279.445 -1.43237 1.33201 0
M  V30 3159 O 280.651 -2.0816 1.74304 0
M  V30 3160 C 279.107 -0.268551 3.58897 0
M  V30 3161 C 278.715 1.03142 4.35965 0
M  V30 3162 C 280.459 -0.787894 4.17124 0
M  V30 3163 C 278.366 0.850504 5.85252 0
M  V30 3164 H 277.296 -0.0494929 0.752374 0
M  V30 3165 H 279.947 0.574289 1.74282 0
M  V30 3166 H 278.329 -1.02832 3.82415 0
M  V30 3167 H 279.503 1.80001 4.24189 0
M  V30 3168 H 277.818 1.47977 3.89219 0
M  V30 3169 H 280.415 -0.939841 5.26375 0
M  V30 3170 H 280.758 -1.77201 3.76703 0
M  V30 3171 H 281.291 -0.0862669 3.97706 0
M  V30 3172 H 278.03 1.80718 6.30096 0
M  V30 3173 H 277.55 0.121825 5.99676 0
M  V30 3174 H 279.229 0.506163 6.45017 0
M  V30 3175 N 279.361 -1.56624 0.175154 0
M  V30 3176 C 280.294 -2.14 -0.792412 0
M  V30 3177 C 281.272 -1.07114 -1.22333 0
M  V30 3178 O 282.456 -1.35112 -1.31442 0
M  V30 3179 C 279.583 -2.68268 -2.0676 0
M  V30 3180 C 278.629 -3.87562 -1.7804 0
M  V30 3181 S 279.462 -5.27074 -0.946222 0
M  V30 3182 C 280.618 -5.8475 -2.23199 0
M  V30 3183 H 280.851 -2.95736 -0.304588 0
M  V30 3184 H 278.384 -1.54349 -0.0395705 0
M  V30 3185 H 280.342 -3.00182 -2.80002 0
M  V30 3186 H 279.003 -1.86612 -2.52656 0
M  V30 3187 H 278.196 -4.23874 -2.72666 0
M  V30 3188 H 277.798 -3.56555 -1.12891 0
M  V30 3189 H 280.09 -5.97898 -3.18629 0
M  V30 3190 H 281.033 -6.81756 -1.91349 0
M  V30 3191 H 281.441 -5.13198 -2.35134 0
M  V30 3192 N 280.839 0.0985539 -1.57292 0
M  V30 3193 C 281.802 1.10402 -2.00858 0
M  V30 3194 C 282.802 1.33146 -0.901593 0
M  V30 3195 O 283.992 1.29318 -1.16716 0
M  V30 3196 C 281.124 2.45394 -2.36632 0
M  V30 3197 H 282.317 0.729099 -2.90902 0
M  V30 3198 H 279.87 0.343495 -1.52479 0
M  V30 3199 H 280.605 2.87769 -1.49531 0
M  V30 3200 H 280.39 2.30235 -3.17387 0
M  V30 3201 H 281.88 3.17718 -2.71007 0
M  V30 3202 N 282.317 1.53212 0.369288 0
M  V30 3203 C 283.227 1.82342 1.47609 0
M  V30 3204 C 284.243 0.711532 1.58787 0
M  V30 3205 O 285.419 1.0012 1.74751 0
M  V30 3206 C 282.484 2.00393 2.8292 0
M  V30 3207 C 281.545 3.24297 2.81301 0
M  V30 3208 C 280.778 3.41478 4.10157 0
M  V30 3209 O 281.001 2.63033 5.06132 0
M  V30 3210 O 279.935 4.34817 4.16194 0
M  V30 3211 H 283.761 2.76366 1.25918 0
M  V30 3212 H 281.346 1.38547 0.559034 0
M  V30 3213 H 283.228 2.13859 3.63101 0
M  V30 3214 H 281.903 1.09559 3.04596 0
M  V30 3215 H 280.81 3.16257 1.99831 0
M  V30 3216 H 282.143 4.15041 2.64578 0
M  V30 3217 N 283.795 -0.628877 1.44509 0
M  V30 3218 C 285.041 -1.39045 1.47629 0
M  V30 3219 C 285.374 -1.93892 0.109343 0
M  V30 3220 O 284.649 -1.7379 -0.87334 0
M  V30 3221 C 284.932 -2.55408 2.53848 0
M  V30 3222 C 284.785 -2.05896 3.99909 0
M  V30 3223 C 286.104 -3.5759 2.56549 0
M  V30 3224 H 283.223 -0.504232 0.537512 0
M  V30 3225 H 285.865 -0.710854 1.76201 0
M  V30 3226 H 284.015 -3.13384 2.29615 0
M  V30 3227 H 285.687 -1.52734 4.35282 0
M  V30 3228 H 283.93 -1.37061 4.11578 0
M  V30 3229 H 284.601 -2.89681 4.69882 0
M  V30 3230 H 287.077 -3.09419 2.78207 0
M  V30 3231 H 285.953 -4.36527 3.32769 0
M  V30 3232 H 286.214 -4.11808 1.60832 0
M  V30 3233 N 285.273 -1.31445 -0.869486 0
M  V30 3234 C 286.503 -1.23942 -1.65294 0
M  V30 3235 C 286.911 0.197561 -1.88166 0
M  V30 3236 O 286.254 1.14019 -1.44033 0
M  V30 3237 C 286.316 -1.91385 -3.04322 0
M  V30 3238 C 285.98 -3.40726 -3.04557 0
M  V30 3239 C 286.977 -4.36464 -2.82481 0
M  V30 3240 C 284.662 -3.82425 -3.25663 0
M  V30 3241 C 286.656 -5.71876 -2.8149 0
M  V30 3242 C 284.343 -5.1795 -3.243 0
M  V30 3243 C 285.341 -6.12486 -3.02241 0
M  V30 3244 O 285.029 -7.45534 -3.00724 0
M  V30 3245 H 284.761 -0.429459 -0.522054 0
M  V30 3246 H 287.315 -1.73873 -1.0935 0
M  V30 3247 H 285.545 -1.36004 -3.61994 0
M  V30 3248 H 287.234 -1.77791 -3.64891 0
M  V30 3249 H 288 -4.05576 -2.65956 0
M  V30 3250 H 283.879 -3.09274 -3.41863 0
M  V30 3251 H 287.423 -6.45638 -2.64191 0
M  V30 3252 H 283.32 -5.48473 -3.40365 0
M  V30 3253 H 284.088 -7.54713 -3.16782 0
M  V30 3254 N 286.751 1.08385 -1.14413 0
M  V30 3255 C 287.979 1.84517 -0.936001 0
M  V30 3256 C 288.394 1.81626 0.515503 0
M  V30 3257 O 287.751 1.22008 1.35721 0
M  V30 3258 C 287.802 3.32049 -1.42918 0
M  V30 3259 O 287.523 3.34951 -2.82381 0
M  V30 3260 C 289.024 4.24986 -1.26103 0
M  V30 3261 H 286.244 0.582491 -0.333084 0
M  V30 3262 H 288.788 1.36885 -1.5193 0
M  V30 3263 H 286.943 3.7707 -0.888641 0
M  V30 3264 H 287.357 4.27048 -3.04517 0
M  V30 3265 H 288.831 5.26615 -1.6547 0
M  V30 3266 H 289.308 4.38726 -0.20392 0
M  V30 3267 H 289.914 3.85791 -1.79012 0
M  V30 3268 N 288.23 0.939286 1.26551 0
M  V30 3269 C 289.16 0.465044 2.28822 0
M  V30 3270 C 290.141 -0.480692 1.63167 0
M  V30 3271 O 291.326 -0.382955 1.90387 0
M  V30 3272 C 288.456 -0.27234 3.46231 0
M  V30 3273 C 287.41 0.58666 4.2396 0
M  V30 3274 C 286.736 -0.280573 5.33963 0
M  V30 3275 C 288.036 1.85704 4.88171 0
M  V30 3276 H 289.73 1.31979 2.68741 0
M  V30 3277 H 287.276 0.636061 1.29191 0
M  V30 3278 H 289.229 -0.615133 4.16886 0
M  V30 3279 H 287.953 -1.16121 3.0526 0
M  V30 3280 H 286.612 0.91232 3.55067 0
M  V30 3281 H 286.26 -1.16874 4.89234 0
M  V30 3282 H 285.96 0.29076 5.8688 0
M  V30 3283 H 287.484 -0.618678 6.07458 0
M  V30 3284 H 288.898 1.58161 5.51052 0
M  V30 3285 H 287.295 2.37279 5.51197 0
M  V30 3286 H 288.365 2.56957 4.11219 0
M  V30 3287 N 289.708 -1.40897 0.706093 0
M  V30 3288 C 291.124 -1.55042 0.37869 0
M  V30 3289 C 291.324 -1.67944 -1.11342 0
M  V30 3290 O 290.38 -1.66372 -1.89938 0
M  V30 3291 C 291.693 -2.78398 1.13643 0
M  V30 3292 C 293.241 -2.92206 1.12181 0
M  V30 3293 C 293.716 -4.18463 1.86152 0
M  V30 3294 N 295.207 -4.25443 1.83173 0
M  V30 3295 C 295.942 -5.2202 2.37239 0
M  V30 3296 N 295.438 -6.24563 2.99821 0
M  V30 3297 N 297.231 -5.14033 2.27435 0
M  V30 3298 H 289.382 -1.30769 1.67372 0
M  V30 3299 H 291.645 -0.631653 0.706907 0
M  V30 3300 H 291.351 -2.7511 2.19106 0
M  V30 3301 H 291.225 -3.70228 0.721853 0
M  V30 3302 H 293.612 -2.95004 0.0754171 0
M  V30 3303 H 293.693 -2.01521 1.57554 0
M  V30 3304 H 293.337 -4.16427 2.90776 0
M  V30 3305 H 293.267 -5.08141 1.38206 0
M  V30 3306 H 295.758 -3.51976 1.37556 0
M  V30 3307 H 296.071 -6.94665 3.38616 0
M  V30 3308 H 294.416 -6.25035 3.03902 0
M  V30 3309 H 297.607 -4.3285 1.78208 0
M  V30 3310 H 297.78 -5.89129 2.69873 0
M  V30 3311 N 291.186 -0.45159 -1.50991 0
M  V30 3312 C 292.597 0.00818571 -1.86698 0
M  V30 3313 C 292.948 1.40661 -1.3678 0
M  V30 3314 O 292.073 2.0391 -0.724546 0
M  V30 3315 C 292.668 0.0216303 -3.38793 0
M  V30 3316 C 291.227 0.425865 -3.73983 0
M  V30 3317 C 290.374 -0.372163 -2.74791 0
M  V30 3318 H 293.325 -0.666785 -1.44013 0
M  V30 3319 H 293.346 0.828078 -3.7138 0
M  V30 3320 H 292.858 -0.996288 -3.75094 0
M  V30 3321 H 290.959 1.44886 -3.43277 0
M  V30 3322 H 291.072 0.140761 -4.78893 0
M  V30 3323 H 289.436 0.171498 -2.54122 0
M  V30 3324 H 290.219 -1.38922 -3.13935 0
M  V30 3325 N 292.664 1.56529 -0.183458 0
M  V30 3326 C 293.594 2.21549 0.737456 0
M  V30 3327 C 294.575 1.17489 1.23005 0
M  V30 3328 O 295.76 1.45959 1.281 0
M  V30 3329 C 292.89 2.86575 1.96194 0
M  V30 3330 C 291.844 3.96778 1.60473 0
M  V30 3331 C 291.17 4.48911 2.90487 0
M  V30 3332 C 292.47 5.15767 0.823497 0
M  V30 3333 H 294.164 2.98761 0.195453 0
M  V30 3334 H 291.71 1.43702 0.0925686 0
M  V30 3335 H 293.663 3.30739 2.61131 0
M  V30 3336 H 292.387 2.06749 2.52828 0
M  V30 3337 H 291.046 3.53286 0.978997 0
M  V30 3338 H 290.694 3.65862 3.45186 0
M  V30 3339 H 290.394 5.23265 2.67335 0
M  V30 3340 H 291.918 4.95771 3.56432 0
M  V30 3341 H 293.332 5.56549 1.37571 0
M  V30 3342 H 291.729 5.96114 0.690551 0
M  V30 3343 H 292.799 4.84574 -0.177782 0
M  V30 3344 N 294.142 -0.090211 1.57342 0
M  V30 3345 C 295.389 -0.792807 1.86335 0
M  V30 3346 C 295.717 -1.78494 0.772662 0
M  V30 3347 O 294.972 -1.94305 -0.233258 0
M  V30 3348 C 295.271 -1.55222 3.21933 0
M  V30 3349 C 294.937 -0.701765 4.45406 0
M  V30 3350 C 293.599 -0.467334 4.78925 0
M  V30 3351 C 295.951 -0.11086 5.21082 0
M  V30 3352 C 293.279 0.367785 5.85546 0
M  V30 3353 C 295.631 0.711609 6.28585 0
M  V30 3354 C 294.295 0.956086 6.60617 0
M  V30 3355 H 293.565 -0.290109 0.681849 0
M  V30 3356 H 296.212 -0.0541332 1.91423 0
M  V30 3357 H 294.517 -2.3626 3.12551 0
M  V30 3358 H 296.214 -2.10032 3.41595 0
M  V30 3359 H 292.804 -0.894598 4.1916 0
M  V30 3360 H 296.988 -0.279129 4.95514 0
M  V30 3361 H 292.244 0.566128 6.08773 0
M  V30 3362 H 296.418 1.17632 6.86393 0
M  V30 3363 H 294.045 1.60499 7.43064 0
M  V30 3364 N 295.62 -1.53406 -0.361157 0
M  V30 3365 C 297.031 -1.61442 -0.937728 0
M  V30 3366 C 297.382 -0.48461 -1.90121 0
M  V30 3367 O 296.507 0.388312 -2.12888 0
M  V30 3368 C 297.102 -2.92624 -1.70753 0
M  V30 3369 C 295.661 -3.02981 -2.23337 0
M  V30 3370 C 294.808 -2.5677 -1.04712 0
M  V30 3371 H 297.759 -1.58083 -0.139816 0
M  V30 3372 H 297.78 -2.80675 -2.56908 0
M  V30 3373 H 297.292 -3.74834 -1.00604 0
M  V30 3374 H 295.393 -2.25368 -2.96715 0
M  V30 3375 H 295.506 -4.0814 -2.50916 0
M  V30 3376 H 293.87 -2.11752 -1.41539 0
M  V30 3377 H 294.653 -3.41402 -0.360539 0
M  V30 3378 N 297.098 0.621204 -1.44841 0
M  V30 3379 C 298.346 1.37783 -1.47852 0
M  V30 3380 C 298.667 1.94653 -0.116224 0
M  V30 3381 O 297.937 1.76367 0.852737 0
M  V30 3382 H 296.517 0.511453 -0.544449 0
M  V30 3383 H 299.179 0.730446 -1.80694 0
M  V30 3384 H 298.275 2.20414 -2.20961 0
M  V30 3385 N 298.576 1.31904 0.862503 0
M  V30 3386 C 299.539 1.20131 1.95195 0
M  V30 3387 C 300.539 0.126409 1.60302 0
M  V30 3388 O 301.729 0.376234 1.70089 0
M  V30 3389 C 298.861 0.845691 3.30244 0
M  V30 3390 H 300.054 2.16943 2.07064 0
M  V30 3391 H 297.607 1.15622 1.05172 0
M  V30 3392 H 298.342 -0.120957 3.24074 0
M  V30 3393 H 298.127 1.62276 3.56944 0
M  V30 3394 H 299.617 0.787418 4.10109 0
M  V30 3395 N 300.054 -1.07777 1.14986 0
M  V30 3396 C 301.279 -1.84558 0.946213 0
M  V30 3397 C 301.704 -1.81323 -0.500362 0
M  V30 3398 O 301.062 -1.20301 -1.35637 0
M  V30 3399 C 301.11 -3.29736 1.45968 0
M  V30 3400 O 300.214 -4.07149 0.65601 0
M  V30 3401 H 299.555 -0.571641 0.33782 0
M  V30 3402 H 302.085 -1.35991 1.52865 0
M  V30 3403 H 302.095 -3.80574 1.47063 0
M  V30 3404 H 300.77 -3.31406 2.51283 0
M  V30 3405 H 299.347 -3.65994 0.714322 0
M  V30 3406 N 301.532 -0.945985 -1.26051 0
M  V30 3407 C 302.442 -0.465633 -2.29933 0
M  V30 3408 C 303.458 0.462761 -1.67733 0
M  V30 3409 O 304.634 0.341118 -1.9849 0
M  V30 3410 C 301.699 0.256994 -3.45746 0
M  V30 3411 C 300.76 -0.708549 -4.23412 0
M  V30 3412 C 299.993 -0.0203135 -5.33696 0
M  V30 3413 O 300.216 1.19571 -5.57726 0
M  V30 3414 O 299.15 -0.701459 -5.97799 0
M  V30 3415 H 302.976 -1.32866 -2.73094 0
M  V30 3416 H 300.561 -0.712071 -1.31339 0
M  V30 3417 H 302.443 0.663852 -4.16138 0
M  V30 3418 H 301.118 1.09533 -3.04605 0
M  V30 3419 H 300.025 -1.16545 -3.55483 0
M  V30 3420 H 301.358 -1.51465 -4.68315 0
M  V30 3421 N 303.011 1.40521 -0.713556 0
M  V30 3422 C 304.26 2.00155 -0.249192 0
M  V30 3423 C 304.573 1.57224 1.16362 0
M  V30 3424 O 305.779 2.09542 1.72639 0
M  V30 3425 C 304.235 3.5773 -0.3946 0
M  V30 3426 C 303.843 4.09635 -1.81392 0
M  V30 3427 C 305.587 4.24499 0.00907364 0
M  V30 3428 C 303.494 5.59707 -1.91003 0
M  V30 3429 H 302.424 0.74868 -0.0894114 0
M  V30 3430 H 305.075 1.60784 -0.884352 0
M  V30 3431 H 303.457 3.94792 0.30911 0
M  V30 3432 H 304.631 3.83955 -2.54785 0
M  V30 3433 H 302.946 3.55456 -2.16888 0
M  V30 3434 H 305.543 5.34683 -0.0420404 0
M  V30 3435 H 305.886 4.02824 1.05065 0
M  V30 3436 H 306.419 3.92536 -0.645007 0
M  V30 3437 H 303.158 5.86234 -2.93275 0
M  V30 3438 H 302.678 5.87258 -1.22019 0
M  V30 3439 H 304.357 6.24776 -1.6812 0
M  V30 3440 N 304.489 0.459591 1.5075 0
M  V30 3441 C 305.766 -0.160371 1.94941 0
M  V30 3442 C 306.146 -1.58048 1.39943 0
M  V30 3443 O 305.494 -2.206 0.595629 0
M  V30 3444 C 305.704 -0.115432 3.48809 0
M  V30 3445 C 307.052 -0.310026 4.23467 0
M  V30 3446 O 308.076 -0.192543 3.55679 0
M  V30 3447 O 306.935 -0.546031 5.43765 0
M  V30 3448 H 304.029 -0.117925 0.818549 0
M  V30 3449 H 306.575 0.519169 1.61563 0
M  V30 3450 H 305.347 0.87652 3.81357 0
M  V30 3451 H 304.97 -0.836928 3.88692 0
M  V30 3452 N 305.967 -1.56429 0.191757 0
M  V30 3453 C 307.195 -2.01867 -0.453586 0
M  V30 3454 C 307.61 -1.07191 -1.5542 0
M  V30 3455 O 306.967 -0.0762108 -1.82341 0
M  V30 3456 C 307.018 -3.47017 -1.013 0
M  V30 3457 O 306.739 -4.38078 0.0437005 0
M  V30 3458 C 308.24 -4.07956 -1.73456 0
M  V30 3459 H 305.46 -0.661211 -0.114199 0
M  V30 3460 H 308.004 -2.02295 0.299483 0
M  V30 3461 H 306.159 -3.47298 -1.71647 0
M  V30 3462 H 306.573 -5.23178 -0.372212 0
M  V30 3463 H 308.047 -5.1138 -2.07833 0
M  V30 3464 H 308.524 -3.51222 -2.63704 0
M  V30 3465 H 309.13 -4.11437 -1.07702 0
M  V30 3466 N 307.445 0.0818655 -1.57387 0
M  V30 3467 C 308.694 0.781681 -1.85937 0
M  V30 3468 C 309.007 1.79246 -0.782957 0
M  V30 3469 O 310.213 2.54112 -0.955987 0
M  V30 3470 C 308.669 1.44109 -3.29789 0
M  V30 3471 C 308.277 0.469396 -4.45534 0
M  V30 3472 C 310.021 2.12386 -3.67549 0
M  V30 3473 C 307.928 1.13415 -5.80423 0
M  V30 3474 H 306.858 0.295682 -0.693605 0
M  V30 3475 H 309.509 0.0348051 -1.83467 0
M  V30 3476 H 307.891 2.23588 -3.2684 0
M  V30 3477 H 309.065 -0.294856 -4.59856 0
M  V30 3478 H 307.38 -0.108383 -4.16259 0
M  V30 3479 H 309.977 2.62878 -4.65617 0
M  V30 3480 H 310.32 2.91877 -2.96839 0
M  V30 3481 H 310.853 1.39751 -3.72444 0
M  V30 3482 H 307.592 0.379771 -6.54399 0
M  V30 3483 H 307.112 1.8695 -5.69921 0
M  V30 3484 H 308.791 1.65686 -6.25426 0
M  V30 3485 N 308.923 1.53595 0.353017 0
M  V30 3486 C 310.17 1.70385 1.09431 0
M  V30 3487 C 310.498 0.462113 1.88931 0
M  V30 3488 O 309.753 -0.556074 1.87633 0
M  V30 3489 C 310.052 2.91313 2.07054 0
M  V30 3490 C 309.718 4.27308 1.43939 0
M  V30 3491 C 308.38 4.64287 1.26454 0
M  V30 3492 C 310.732 5.11829 0.983883 0
M  V30 3493 C 308.06 5.83412 0.620226 0
M  V30 3494 C 310.412 6.31611 0.353516 0
M  V30 3495 C 309.076 6.67293 0.166272 0
M  V30 3496 H 308.346 0.623484 0.400436 0
M  V30 3497 H 310.993 1.87799 0.374655 0
M  V30 3498 H 309.298 2.68463 2.85368 0
M  V30 3499 H 310.995 3.01497 2.64387 0
M  V30 3500 H 307.585 3.98198 1.58543 0
M  V30 3501 H 311.769 4.838 1.10685 0
M  V30 3502 H 307.025 6.09639 0.463681 0
M  V30 3503 H 311.199 6.964 -0.00757555 0
M  V30 3504 H 308.826 7.59461 -0.335047 0
M  V30 3505 N 310.401 -0.613514 1.45168 0
M  V30 3506 C 311.348 -1.72456 1.53387 0
M  V30 3507 C 312.318 -1.6169 0.380191 0
M  V30 3508 O 313.503 -1.81356 0.592836 0
M  V30 3509 C 310.643 -3.10753 1.50088 0
M  V30 3510 C 309.756 -3.32368 2.75963 0
M  V30 3511 C 308.891 -4.60737 2.64376 0
M  V30 3512 C 307.93 -4.7559 3.85332 0
M  V30 3513 N 307.067 -5.95253 3.72315 0
M  V30 3514 H 311.907 -1.64768 2.48305 0
M  V30 3515 H 309.444 -0.803503 1.23216 0
M  V30 3516 H 311.402 -3.90758 1.46164 0
M  V30 3517 H 310.032 -3.17413 0.587243 0
M  V30 3518 H 309.084 -2.4618 2.89999 0
M  V30 3519 H 310.396 -3.39218 3.65695 0
M  V30 3520 H 309.55 -5.48928 2.58385 0
M  V30 3521 H 308.289 -4.56275 1.72233 0
M  V30 3522 H 307.294 -3.85824 3.91688 0
M  V30 3523 H 308.519 -4.81854 4.78533 0
M  V30 3524 H 306.465 -5.91847 2.82937 0
M  V30 3525 H 306.382 -6.03236 4.55677 0
M  V30 3526 H 307.65 -6.85958 3.70246 0
M  V30 3527 N 311.879 -1.3236 -0.855495 0
M  V30 3528 C 313.128 -1.22226 -1.60448 0
M  V30 3529 C 313.441 0.214733 -1.94418 0
M  V30 3530 O 314.647 0.437917 -2.67945 0
M  V30 3531 C 313.103 -2.14063 -2.89318 0
M  V30 3532 C 312.711 -3.62839 -2.62777 0
M  V30 3533 C 314.455 -2.12764 -3.67331 0
M  V30 3534 C 312.362 -4.4664 -3.87643 0
M  V30 3535 H 311.292 -0.453904 -0.602069 0
M  V30 3536 H 313.943 -1.57314 -0.944698 0
M  V30 3537 H 312.325 -1.71889 -3.5675 0
M  V30 3538 H 313.499 -4.1335 -2.03662 0
M  V30 3539 H 311.814 -3.66261 -1.98096 0
M  V30 3540 H 314.411 -2.72611 -4.59987 0
M  V30 3541 H 314.754 -1.11841 -4.00995 0
M  V30 3542 H 315.287 -2.53214 -3.06802 0
M  V30 3543 H 312.026 -5.48373 -3.5912 0
M  V30 3544 H 311.546 -4.0088 -4.46156 0
M  V30 3545 H 313.225 -4.59597 -4.55389 0
M  V30 3546 N 313.357 1.07166 -1.15556 0
M  V30 3547 C 314.597 1.81391 -0.94216 0
M  V30 3548 C 314.961 1.84788 0.521272 0
M  V30 3549 O 316.162 2.54904 0.85307 0
M  V30 3550 C 314.433 3.22431 -1.54185 0
M  V30 3551 S 315.992 4.13379 -1.47183 0
M  V30 3552 H 312.81 0.624963 -0.339031 0
M  V30 3553 H 315.412 1.28725 -1.4714 0
M  V30 3554 H 314.116 3.17548 -2.59984 0
M  V30 3555 H 313.647 3.80172 -1.01156 0
M  V30 3556 H 315.662 4.94007 -0.466004 0
M  V30 3557 N 314.835 0.952656 1.25548 0
M  V30 3558 C 315.767 0.428609 2.25157 0
M  V30 3559 C 316.78 -0.454428 1.56329 0
M  V30 3560 O 317.969 -0.263023 1.76552 0
M  V30 3561 C 315.069 -0.401972 3.36508 0
M  V30 3562 C 314.242 0.467601 4.34893 0
M  V30 3563 C 313.301 -0.30445 5.25319 0
M  V30 3564 O 312.327 0.296473 5.68427 0
M  V30 3565 N 313.529 -1.59805 5.5807 0
M  V30 3566 H 316.294 1.28497 2.70756 0
M  V30 3567 H 313.855 0.822798 1.39433 0
M  V30 3568 H 315.847 -0.926134 3.9396 0
M  V30 3569 H 314.417 -1.15918 2.90313 0
M  V30 3570 H 313.637 1.17288 3.76347 0
M  V30 3571 H 314.925 1.06119 4.97611 0
M  V30 3572 H 314.323 -2.10823 5.24948 0
M  V30 3573 H 312.88 -2.06822 6.18116 0
M  V30 3574 N 316.313 -1.40141 0.720998 0
M  V30 3575 C 317.559 -2.01084 0.263231 0
M  V30 3576 C 317.892 -1.57052 -1.14229 0
M  V30 3577 O 317.167 -0.793027 -1.77599 0
M  V30 3578 C 317.45 -3.58401 0.349344 0
M  V30 3579 C 317.303 -4.12491 1.79363 0
M  V30 3580 C 318.622 -4.39231 -0.276351 0
M  V30 3581 H 315.741 -0.730572 0.0971228 0
M  V30 3582 H 318.383 -1.66543 0.914518 0
M  V30 3583 H 316.533 -3.87958 -0.205165 0
M  V30 3584 H 318.205 -3.93711 2.40394 0
M  V30 3585 H 316.448 -3.66576 2.31958 0
M  V30 3586 H 317.119 -5.21646 1.80524 0
M  V30 3587 H 319.595 -4.15637 0.196184 0
M  V30 3588 H 318.471 -5.48586 -0.185681 0
M  V30 3589 H 318.732 -4.20643 -1.36059 0
M  V30 3590 N 317.792 -0.46758 -1.50504 0
M  V30 3591 C 318.722 0.318381 -2.31319 0
M  V30 3592 C 319.703 0.993564 -1.38066 0
M  V30 3593 O 320.888 0.991411 -1.66987 0
M  V30 3594 C 318.018 1.40275 -3.17711 0
M  V30 3595 C 316.972 0.849373 -4.19487 0
M  V30 3596 C 316.298 2.03177 -4.94594 0
M  V30 3597 C 317.598 -0.136942 -5.2212 0
M  V30 3598 H 319.292 -0.356106 -2.97275 0
M  V30 3599 H 316.838 -0.172703 -1.42961 0
M  V30 3600 H 318.791 1.96004 -3.73042 0
M  V30 3601 H 317.515 2.10596 -2.49634 0
M  V30 3602 H 316.174 0.314076 -3.65252 0
M  V30 3603 H 315.822 2.72187 -4.22993 0
M  V30 3604 H 315.522 1.66774 -5.63436 0
M  V30 3605 H 317.046 2.59403 -5.52759 0
M  V30 3606 H 318.46 0.331056 -5.72343 0
M  V30 3607 H 316.857 -0.41507 -5.98663 0
M  V30 3608 H 317.927 -1.06398 -4.73083 0
M  V30 3609 N 319.27 1.56325 -0.20005 0
M  V30 3610 C 320.518 1.97329 0.436547 0
M  V30 3611 C 320.839 1.08826 1.61808 0
M  V30 3612 O 320.109 0.160604 1.95241 0
M  V30 3613 H 318.689 0.728714 0.164272 0
M  V30 3614 H 321.351 1.92761 -0.287937 0
M  V30 3615 H 320.447 3.02264 0.777353 0
M  V30 3616 N 320.748 -0.0735177 1.57428 0
M  V30 3617 C 321.976 -0.785969 1.9139 0
M  V30 3618 C 322.391 -1.71207 0.795847 0
M  V30 3619 O 321.748 -1.81033 -0.230915 0
M  V30 3620 C 321.799 -1.58107 3.25091 0
M  V30 3621 O 321.52 -0.6922 4.32597 0
M  V30 3622 C 323.021 -2.39467 3.73055 0
M  V30 3623 H 320.241 -0.223558 0.632663 0
M  V30 3624 H 322.785 -0.044302 2.04452 0
M  V30 3625 H 320.94 -2.27503 3.13562 0
M  V30 3626 H 321.354 -1.24504 5.09508 0
M  V30 3627 H 322.828 -2.90716 4.69242 0
M  V30 3628 H 323.305 -3.18913 3.01979 0
M  V30 3629 H 323.911 -1.7523 3.87523 0
M  V30 3630 N 322.226 -1.5378 -0.344866 0
M  V30 3631 C 323.637 -1.62428 -0.920552 0
M  V30 3632 C 323.988 -0.504747 -1.89596 0
M  V30 3633 O 323.113 0.365711 -2.13287 0
M  V30 3634 C 323.708 -2.94419 -1.67639 0
M  V30 3635 C 322.267 -3.05333 -2.20111 0
M  V30 3636 C 321.414 -2.57866 -1.01982 0
M  V30 3637 H 324.365 -1.58222 -0.123042 0
M  V30 3638 H 324.386 -2.83384 -2.53917 0
M  V30 3639 H 323.898 -3.7588 -0.966224 0
M  V30 3640 H 321.999 -2.28502 -2.94308 0
M  V30 3641 H 322.112 -4.10778 -2.46573 0
M  V30 3642 H 320.476 -2.13241 -1.39285 0
M  V30 3643 H 321.259 -3.41765 -0.324308 0
M  V30 3644 N 323.704 0.605807 -1.45491 0
M  V30 3645 C 324.651 1.7164 -1.54299 0
M  V30 3646 C 325.621 1.61486 -0.388761 0
M  V30 3647 O 326.806 1.81039 -0.602445 0
M  V30 3648 C 323.946 3.09953 -1.51734 0
M  V30 3649 C 323.059 3.309 -2.77721 0
M  V30 3650 C 322.194 4.59329 -2.66816 0
M  V30 3651 C 321.233 4.7354 -3.87848 0
M  V30 3652 N 320.37 5.9327 -3.75467 0
M  V30 3653 H 325.21 1.63449 -2.49176 0
M  V30 3654 H 322.747 0.796957 -1.23641 0
M  V30 3655 H 324.705 3.89977 -1.48235 0
M  V30 3656 H 323.335 3.17098 -0.604068 0
M  V30 3657 H 322.387 2.44639 -2.913 0
M  V30 3658 H 323.699 3.37274 -3.67488 0
M  V30 3659 H 322.853 5.4755 -2.61292 0
M  V30 3660 H 321.592 4.55355 -1.74651 0
M  V30 3661 H 320.597 3.83741 -3.93729 0
M  V30 3662 H 321.822 4.79309 -4.81082 0
M  V30 3663 H 319.768 5.90338 -2.86072 0
M  V30 3664 H 319.685 6.00811 -4.5887 0
M  V30 3665 H 320.953 6.83984 -3.73879 0
M  V30 3666 N 325.182 1.32811 0.848464 0
M  V30 3667 C 326.129 1.22265 1.95755 0
M  V30 3668 C 327.099 0.103413 1.65778 0
M  V30 3669 O 328.284 0.280033 1.88734 0
M  V30 3670 C 325.424 0.958014 3.31536 0
M  V30 3671 C 324.537 2.16262 3.73971 0
M  V30 3672 C 323.672 1.83295 4.98575 0
M  V30 3673 C 322.711 3.00041 5.33518 0
M  V30 3674 N 321.848 2.67125 6.49299 0
M  V30 3675 H 326.688 2.17128 2.04107 0
M  V30 3676 H 324.225 1.07982 0.998913 0
M  V30 3677 H 326.183 0.785052 4.09747 0
M  V30 3678 H 324.813 0.046159 3.22767 0
M  V30 3679 H 323.865 2.44565 2.91362 0
M  V30 3680 H 325.177 3.03572 3.95785 0
M  V30 3681 H 324.331 1.62586 5.84509 0
M  V30 3682 H 323.07 0.932078 4.7871 0
M  V30 3683 H 322.075 3.21374 4.46093 0
M  V30 3684 H 323.3 3.90869 5.55336 0
M  V30 3685 H 321.246 1.79586 6.3094 0
M  V30 3686 H 321.163 3.47965 6.71161 0
M  V30 3687 H 322.431 2.49861 7.3837 0
M  V30 3688 N 326.66 -1.06551 1.16123 0
M  V30 3689 C 327.888 -1.83005 0.965237 0
M  V30 3690 C 328.303 -1.82423 -0.486542 0
M  V30 3691 O 327.66 -1.24152 -1.33763 0
M  V30 3692 C 327.711 -3.29733 1.48183 0
M  V30 3693 O 327.432 -3.30416 2.87674 0
M  V30 3694 C 328.933 -4.22926 1.32848 0
M  V30 3695 H 326.153 -0.577118 0.342309 0
M  V30 3696 H 328.697 -1.3445 1.54089 0
M  V30 3697 H 326.852 -3.75609 0.948517 0
M  V30 3698 H 327.266 -4.22149 3.11272 0
M  V30 3699 H 328.74 -5.23916 1.73827 0
M  V30 3700 H 329.217 -4.38346 0.273692 0
M  V30 3701 H 329.823 -3.82894 1.85127 0
M  V30 3702 N 328.138 -0.959301 -1.25041 0
M  V30 3703 C 329.415 -0.533805 -1.88175 0
M  V30 3704 C 329.795 0.988994 -1.865 0
M  V30 3705 O 329.143 1.85677 -1.33177 0
M  V30 3706 C 329.353 -1.11575 -3.30684 0
M  V30 3707 C 330.701 -1.19548 -4.07423 0
M  V30 3708 O 331.725 -1.06765 -3.39823 0
M  V30 3709 O 330.584 -1.39656 -5.28354 0
M  V30 3710 H 327.678 -0.176772 -0.807887 0
M  V30 3711 H 330.224 -1.05303 -1.33076 0
M  V30 3712 H 328.996 -2.15884 -3.26358 0
M  V30 3713 H 328.619 -0.580059 -3.93346 0
M  V30 3714 N 329.616 1.39756 -0.72842 0
M  V30 3715 C 330.862 2.01425 -0.282761 0
M  V30 3716 C 331.217 1.56754 1.11561 0
M  V30 3717 O 330.51 0.783482 1.74849 0
M  V30 3718 C 330.704 3.56002 -0.315776 0
M  V30 3719 C 330.533 4.1568 -1.71582 0
M  V30 3720 C 329.303 4.48555 -2.32651 0
M  V30 3721 C 331.501 4.39667 -2.66829 0
M  V30 3722 N 329.483 4.93698 -3.64877 0
M  V30 3723 C 330.854 4.86942 -3.8378 0
M  V30 3724 C 332.909 4.21724 -2.64675 0
M  V30 3725 C 331.612 5.18158 -4.98904 0
M  V30 3726 C 333.638 4.54049 -3.78937 0
M  V30 3727 C 333 5.01525 -4.94623 0
M  V30 3728 H 329.099 0.76756 -0.149583 0
M  V30 3729 H 331.683 1.69784 -0.952976 0
M  V30 3730 H 329.854 3.87046 0.324057 0
M  V30 3731 H 331.586 4.0443 0.147808 0
M  V30 3732 H 328.341 4.36128 -1.84633 0
M  V30 3733 H 328.765 5.20635 -4.32744 0
M  V30 3734 H 333.407 3.84228 -1.76433 0
M  V30 3735 H 331.125 5.54562 -5.87781 0
M  V30 3736 H 334.711 4.41795 -3.78561 0
M  V30 3737 H 333.591 5.26065 -5.81572 0
M  V30 3738 N 331.094 0.475555 1.50254 0
M  V30 3739 C 332.505 0.0215174 1.86688 0
M  V30 3740 C 332.856 -1.38467 1.39001 0
M  V30 3741 O 331.981 -2.02732 0.756894 0
M  V30 3742 C 332.576 0.0322715 3.38785 0
M  V30 3743 C 331.135 -0.366314 3.74613 0
M  V30 3744 C 330.282 0.415832 2.74164 0
M  V30 3745 H 333.233 0.689612 1.42934 0
M  V30 3746 H 333.254 -0.76889 3.7265 0
M  V30 3747 H 332.766 1.05584 3.73462 0
M  V30 3748 H 330.867 -1.39406 3.45538 0
M  V30 3749 H 330.98 -0.064555 4.79057 0
M  V30 3750 H 329.344 -0.131048 2.54363 0
M  V30 3751 H 330.127 1.43899 3.11686 0
M  V30 3752 N 332.573 -1.56217 0.208337 0
M  V30 3753 C 333.483 -2.23316 -0.718836 0
M  V30 3754 C 334.499 -1.23648 -1.22422 0
M  V30 3755 O 335.675 -1.56423 -1.26861 0
M  V30 3756 C 332.74 -2.88968 -1.91568 0
M  V30 3757 C 331.801 -4.03943 -1.45357 0
M  V30 3758 C 331.034 -4.66455 -2.59337 0
M  V30 3759 O 331.257 -4.27919 -3.77149 0
M  V30 3760 O 330.191 -5.55686 -2.31293 0
M  V30 3761 H 334.017 -3.03182 -0.177315 0
M  V30 3762 H 331.602 -1.49384 -0.0215402 0
M  V30 3763 H 333.484 -3.30455 -2.61491 0
M  V30 3764 H 332.159 -2.12071 -2.44556 0
M  V30 3765 H 331.066 -3.67052 -0.722746 0
M  V30 3766 H 332.399 -4.82543 -0.970219 0
M  V30 3767 N 334.051 0.0651679 -1.57465 0
M  V30 3768 C 335.299 0.761555 -1.87202 0
M  V30 3769 C 335.62 1.77778 -0.801243 0
M  V30 3770 O 334.89 1.95166 0.16937 0
M  V30 3771 H 333.47 0.284251 -0.690804 0
M  V30 3772 H 336.132 0.0396827 -1.9486 0
M  V30 3773 H 335.228 1.27365 -2.84929 0
M  V30 3774 N 335.529 1.53961 0.336706 0
M  V30 3775 C 336.759 1.75229 1.09446 0
M  V30 3776 C 337.167 0.494602 1.82621 0
M  V30 3777 O 336.51 -0.543764 1.75468 0
M  V30 3778 C 336.572 2.88288 2.1478 0
M  V30 3779 C 336.236 4.27656 1.6112 0
M  V30 3780 C 337.233 5.08981 1.0599 0
M  V30 3781 C 334.918 4.74161 1.6576 0
M  V30 3782 C 336.912 6.34916 0.562129 0
M  V30 3783 C 334.599 6.00067 1.15595 0
M  V30 3784 C 335.597 6.80278 0.609147 0
M  V30 3785 O 335.285 8.03818 0.114999 0
M  V30 3786 H 335.017 0.588881 0.331956 0
M  V30 3787 H 337.571 2.01614 0.392566 0
M  V30 3788 H 335.801 2.57443 2.88548 0
M  V30 3789 H 337.49 2.97461 2.76174 0
M  V30 3790 H 338.256 4.74213 1.01722 0
M  V30 3791 H 334.135 4.11781 2.07261 0
M  V30 3792 H 337.679 6.9747 0.134668 0
M  V30 3793 H 333.576 6.3433 1.19566 0
M  V30 3794 H 334.344 8.18172 0.231651 0
M  V30 3795 N 337.007 -0.598083 1.45811 0
M  V30 3796 C 337.939 -1.72231 1.51225 0
M  V30 3797 C 338.952 -1.57757 0.402059 0
M  V30 3798 O 340.141 -1.65464 0.669624 0
M  V30 3799 C 337.241 -3.10331 1.3619 0
M  V30 3800 C 336.414 -3.50955 2.61054 0
M  V30 3801 C 335.473 -4.68055 2.40439 0
M  V30 3802 O 334.499 -4.74691 3.14097 0
M  V30 3803 N 335.701 -5.61941 1.45612 0
M  V30 3804 H 338.466 -1.68046 2.48154 0
M  V30 3805 H 336.027 -0.783637 1.41671 0
M  V30 3806 H 338.019 -3.86439 1.20195 0
M  V30 3807 H 336.589 -3.0897 0.475015 0
M  V30 3808 H 335.809 -2.64711 2.92099 0
M  V30 3809 H 337.097 -3.74858 3.44034 0
M  V30 3810 H 336.495 -5.59301 0.848431 0
M  V30 3811 H 335.052 -6.37542 1.35585 0
M  V30 3812 N 338.485 -1.33259 -0.841409 0
M  V30 3813 C 339.415 -1.25926 -1.96634 0
M  V30 3814 C 340.396 -0.140349 -1.6952 0
M  V30 3815 O 341.581 -0.329707 -1.91381 0
M  V30 3816 C 338.711 -0.99512 -3.32738 0
M  V30 3817 C 337.665 -2.0767 -3.74242 0
M  V30 3818 C 336.991 -1.66474 -5.08125 0
M  V30 3819 C 338.291 -3.49318 -3.88297 0
M  V30 3820 H 339.985 -2.20046 -2.03027 0
M  V30 3821 H 337.531 -1.05931 -0.975425 0
M  V30 3822 H 339.484 -0.930323 -4.11002 0
M  V30 3823 H 338.208 -0.0183004 -3.26595 0
M  V30 3824 H 336.867 -2.13187 -2.98239 0
M  V30 3825 H 336.515 -0.675012 -4.9845 0
M  V30 3826 H 336.215 -2.3885 -5.36865 0
M  V30 3827 H 337.739 -1.61455 -5.88867 0
M  V30 3828 H 339.153 -3.46316 -4.56879 0
M  V30 3829 H 337.55 -4.20158 -4.28471 0
M  V30 3830 H 338.62 -3.8801 -2.9082 0
M  V30 3831 N 339.963 1.05934 -1.16686 0
M  V30 3832 C 341.188 1.83029 -0.975455 0
M  V30 3833 C 341.613 1.82096 0.471452 0
M  V30 3834 O 340.971 1.22443 1.33706 0
M  V30 3835 C 341.019 3.27372 -1.51195 0
M  V30 3836 O 340.123 4.06054 -0.720701 0
M  V30 3837 H 339.464 0.566194 -0.346872 0
M  V30 3838 H 341.994 1.33541 -1.55009 0
M  V30 3839 H 342.004 3.78186 -1.53099 0
M  V30 3840 H 340.679 3.27366 -2.56523 0
M  V30 3841 H 339.256 3.64812 -0.772458 0
M  V30 3842 N 341.441 0.965919 1.2453 0
M  V30 3843 C 342.666 0.643971 1.97149 0
M  V30 3844 C 343.091 -0.779487 1.71189 0
M  V30 3845 O 342.449 -1.5288 0.974553 0
M  V30 3846 C 342.497 0.922557 3.48599 0
M  V30 3847 O 341.601 0.00707672 4.12399 0
M  V30 3848 H 340.942 0.243647 0.617683 0
M  V30 3849 H 343.472 1.29558 1.58353 0
M  V30 3850 H 343.482 0.853373 3.98976 0
M  V30 3851 H 342.157 1.95996 3.66822 0
M  V30 3852 H 340.734 0.12943 3.72675 0
M  V30 3853 N 342.919 -1.39368 0.735821 0
M  V30 3854 C 343.882 -2.2896 0.104874 0
M  V30 3855 C 344.882 -1.46347 -0.666274 0
M  V30 3856 O 346.072 -1.67014 -0.49517 0
M  V30 3857 C 343.204 -3.29857 -0.860656 0
M  V30 3858 H 344.397 -2.86259 0.894205 0
M  V30 3859 H 341.95 -1.48029 0.501704 0
M  V30 3860 H 342.685 -2.77615 -1.67631 0
M  V30 3861 H 342.47 -3.9087 -0.310327 0
M  V30 3862 H 343.96 -3.96893 -1.29867 0
M  V30 3863 N 344.397 -0.483516 -1.5 0
M  V30 3864 C 345.33 0.350427 -2.25493 0
M  V30 3865 C 346.308 0.985549 -1.29328 0
M  V30 3866 O 347.492 1.01906 -1.58579 0
M  V30 3867 C 344.619 1.49202 -3.04066 0
M  V30 3868 C 343.665 0.973036 -4.15252 0
M  V30 3869 S 344.498 -0.122237 -5.3536 0
M  V30 3870 C 345.654 1.02294 -6.17484 0
M  V30 3871 H 345.887 -0.290381 -2.95878 0
M  V30 3872 H 343.42 -0.268562 -1.52046 0
M  V30 3873 H 345.378 2.14623 -3.49925 0
M  V30 3874 H 344.039 2.10438 -2.33183 0
M  V30 3875 H 343.232 1.82804 -4.69679 0
M  V30 3876 H 342.834 0.396335 -3.71894 0
M  V30 3877 H 345.126 1.93195 -6.49371 0
M  V30 3878 H 346.069 0.517664 -7.06205 0
M  V30 3879 H 346.477 1.28238 -5.49741 0
M  V30 3880 N 345.875 1.56104 -0.216619 0
M  V30 3881 C 346.823 2.21434 0.712036 0
M  V30 3882 C 347.817 1.19218 1.20348 0
M  V30 3883 O 349.023 1.3731 1.16387 0
M  V30 3884 H 345.398 0.70992 0.248026 0
M  V30 3885 H 347.369 2.98083 0.137558 0
M  V30 3886 C 346.118 2.90434 1.91163 0
M  V30 3887 H 345.441 3.68842 1.54258 0
M  V30 3888 H 346.881 3.39552 2.5393 0
M  V30 3889 C 345.34 1.92635 2.76394 0
M  V30 3890 O 345.87 1.44017 3.74996 0
M  V30 3891 N 344.076 1.60392 2.42328 0
M  V30 3892 H 343.623 2.00122 1.622 0
M  V30 3893 H 343.581 0.952159 2.99635 0
M  V30 3894 N 347.353 -0.0568162 1.57498 0
M  V30 3895 C 348.6 -0.753104 1.87975 0
M  V30 3896 C 348.928 -1.76815 0.81035 0
M  V30 3897 O 348.183 -1.94756 -0.19199 0
M  V30 3898 C 348.482 -1.48359 3.25153 0
M  V30 3899 C 348.148 -0.60713 4.46794 0
M  V30 3900 C 346.81 -0.365642 4.79809 0
M  V30 3901 C 349.162 -0.000305978 5.212 0
M  V30 3902 C 346.49 0.491905 5.84634 0
M  V30 3903 C 348.842 0.844781 6.26934 0
M  V30 3904 C 347.506 1.096 6.58441 0
M  V30 3905 H 346.776 -0.27558 0.687849 0
M  V30 3906 H 349.423 -0.0135173 1.91495 0
M  V30 3907 H 347.728 -2.29577 3.17492 0
M  V30 3908 H 349.425 -2.02739 3.45974 0
M  V30 3909 H 346.015 -0.805487 4.20963 0
M  V30 3910 H 350.199 -0.173961 4.95995 0
M  V30 3911 H 345.455 0.695131 6.07436 0
M  V30 3912 H 349.629 1.32165 6.83744 0
M  V30 3913 H 347.256 1.76224 7.39492 0
M  V30 3914 N 348.832 -1.54138 -0.328536 0
M  V30 3915 C 350.248 -1.44736 -0.672574 0
M  V30 3916 C 350.448 -0.616217 -1.91846 0
M  V30 3917 O 349.504 -0.113067 -2.52247 0
M  V30 3918 C 350.817 -2.884 -0.851217 0
M  V30 3919 C 352.365 -2.98271 -0.948877 0
M  V30 3920 C 352.84 -4.43074 -1.15973 0
M  V30 3921 N 354.331 -4.46665 -1.22658 0
M  V30 3922 C 355.066 -5.55857 -1.40751 0
M  V30 3923 N 354.562 -6.75026 -1.5592 0
M  V30 3924 N 356.355 -5.43495 -1.4342 0
M  V30 3925 H 348.506 -2.06661 0.490421 0
M  V30 3926 H 350.769 -0.934812 0.157579 0
M  V30 3927 H 350.475 -3.51699 -0.00704236 0
M  V30 3928 H 350.349 -3.34225 -1.74853 0
M  V30 3929 H 352.736 -2.35102 -1.78356 0
M  V30 3930 H 352.817 -2.55785 -0.0281435 0
M  V30 3931 H 352.461 -5.06827 -0.329915 0
M  V30 3932 H 352.391 -4.83165 -2.09426 0
M  V30 3933 H 354.882 -3.60797 -1.124 0
M  V30 3934 H 355.195 -7.54004 -1.69404 0
M  V30 3935 H 353.54 -6.77944 -1.53027 0
M  V30 3936 H 356.731 -4.49349 -1.31162 0
M  V30 3937 H 356.904 -6.28649 -1.57178 0
M  V30 3938 N 350.31 0.590341 -1.46126 0
M  V30 3939 C 351.556 1.34874 -1.52252 0
M  V30 3940 C 351.911 1.91658 -0.168807 0
M  V30 3941 O 351.204 1.73093 0.821556 0
M  V30 3942 C 351.398 2.5032 -2.55097 0
M  V30 3943 C 351.227 2.04843 -4.00337 0
M  V30 3944 C 349.997 1.90213 -4.68132 0
M  V30 3945 C 352.195 1.61267 -4.88362 0
M  V30 3946 N 350.177 1.38727 -5.9802 0
M  V30 3947 C 351.548 1.21319 -6.08015 0
M  V30 3948 C 353.603 1.49015 -4.75078 0
M  V30 3949 C 352.306 0.7034 -7.15852 0
M  V30 3950 C 354.332 0.994401 -5.8298 0
M  V30 3951 C 353.694 0.604659 -7.018 0
M  V30 3952 H 349.793 0.486803 -0.612002 0
M  V30 3953 H 352.377 0.673007 -1.82698 0
M  V30 3954 H 350.548 3.15466 -2.26574 0
M  V30 3955 H 352.28 3.1725 -2.51266 0
M  V30 3956 H 349.035 2.11927 -4.23537 0
M  V30 3957 H 349.459 1.15168 -6.67132 0
M  V30 3958 H 354.101 1.77768 -3.83612 0
M  V30 3959 H 351.819 0.403446 -8.07092 0
M  V30 3960 H 355.405 0.903621 -5.7474 0
M  V30 3961 H 354.285 0.226963 -7.83871 0
M  V30 3962 N 351.788 1.33704 0.83433 0
M  V30 3963 C 353.199 1.22813 1.4062 0
M  V30 3964 C 353.55 -0.151107 1.95617 0
M  V30 3965 O 352.675 -1.05092 1.89168 0
M  V30 3966 C 353.27 2.22355 2.55624 0
M  V30 3967 C 351.829 2.1529 3.08751 0
M  V30 3968 C 350.976 2.09589 1.8157 0
M  V30 3969 H 353.927 1.45236 0.639702 0
M  V30 3970 H 353.948 1.83391 3.33389 0
M  V30 3971 H 353.46 3.22728 2.15566 0
M  V30 3972 H 351.561 1.18235 3.53343 0
M  V30 3973 H 351.674 3.06038 3.68616 0
M  V30 3974 H 350.038 1.55134 2.02004 0
M  V30 3975 H 350.821 3.11777 1.43701 0
M  V30 3976 N 353.266 -1.05314 1.17247 0
M  V30 3977 C 354.198 -2.13023 0.845812 0
M  V30 3978 C 355.211 -1.62096 -0.151246 0
M  V30 3979 O 356.4 -1.78343 0.0748818 0
M  V30 3980 C 353.5 -3.38047 0.240292 0
M  V30 3981 C 352.673 -4.18255 1.27991 0
M  V30 3982 C 351.732 -5.21625 0.692375 0
M  V30 3983 O 350.758 -5.52619 1.36385 0
M  V30 3984 N 351.96 -5.78201 -0.516178 0
M  V30 3985 H 354.725 -2.41642 1.77283 0
M  V30 3986 H 352.286 -1.21401 1.07115 0
M  V30 3987 H 354.278 -4.04359 -0.16603 0
M  V30 3988 H 352.848 -3.06972 -0.590487 0
M  V30 3989 H 352.068 -3.47451 1.86203 0
M  V30 3990 H 353.356 -4.68643 1.98119 0
M  V30 3991 H 352.754 -5.55301 -1.07969 0
M  V30 3992 H 351.311 -6.4604 -0.86458 0
M  V30 3993 N 354.744 -0.972509 -1.24016 0
M  V30 3994 C 355.984 -0.644951 -1.93958 0
M  V30 3995 C 356.348 0.80559 -1.74282 0
M  V30 3996 O 357.549 1.2436 -2.38302 0
M  V30 3997 C 355.82 -1.01521 -3.42678 0
M  V30 3998 S 357.379 -0.802927 -4.31391 0
M  V30 3999 H 354.197 -0.236452 -0.670531 0
M  V30 4000 H 356.799 -1.25048 -1.50277 0
M  V30 4001 H 355.503 -2.06769 -3.54506 0
M  V30 4002 H 355.034 -0.400648 -3.91355 0
M  V30 4003 H 357.049 0.317256 -4.95185 0
M  V30 4004 N 356.222 1.38976 -0.743202 0
M  V30 4005 C 357.468 2.0064 -0.295189 0
M  V30 4006 C 357.801 1.5885 1.11716 0
M  V30 4007 O 357.076 0.821181 1.76315 0
M  V30 4008 C 357.359 3.578 -0.406318 0
M  V30 4009 C 357.212 4.09586 -1.85903 0
M  V30 4010 C 358.531 4.39616 0.206439 0
M  V30 4011 H 355.65 0.728935 -0.108733 0
M  V30 4012 H 358.292 1.65067 -0.940897 0
M  V30 4013 H 356.442 3.88235 0.143419 0
M  V30 4014 H 358.114 3.89837 -2.46627 0
M  V30 4015 H 356.357 3.6284 -2.3776 0
M  V30 4016 H 357.028 5.18708 -1.888 0
M  V30 4017 H 359.504 4.15273 -0.262283 0
M  V30 4018 H 358.38 5.48812 0.0983819 0
M  V30 4019 H 358.641 4.22754 1.2935 0
M  V30 4020 N 357.7 0.491464 1.49741 0
M  V30 4021 C 359.111 0.0413169 1.86654 0
M  V30 4022 C 359.462 -1.36985 1.40462 0
M  V30 4023 O 358.587 -2.01917 0.778354 0
M  V30 4024 C 359.182 0.0682023 3.38731 0
M  V30 4025 C 357.741 -0.32656 3.74981 0
M  V30 4026 C 356.888 0.444888 2.73708 0
M  V30 4027 H 359.839 0.704733 1.42194 0
M  V30 4028 H 359.86 -0.729322 3.73445 0
M  V30 4029 H 359.372 1.09539 3.72321 0
M  V30 4030 H 357.473 -1.35734 3.46997 0
M  V30 4031 H 357.586 -0.013741 4.79098 0
M  V30 4032 H 355.95 -0.104062 2.54487 0
M  V30 4033 H 356.733 1.47197 3.10142 0
M  V30 4034 N 359.178 -1.55987 0.224894 0
M  V30 4035 C 360.126 -2.21808 -0.700283 0
M  V30 4036 C 361.12 -1.19854 -1.19714 0
M  V30 4037 O 362.326 -1.37925 -1.15658 0
M  V30 4038 H 358.701 -0.711226 -0.244258 0
M  V30 4039 H 360.672 -2.98152 -0.121749 0
M  V30 4040 C 359.421 -2.91444 -1.8962 0
M  V30 4041 H 358.744 -3.69655 -1.52299 0
M  V30 4042 H 360.184 -3.40894 -2.52125 0
M  V30 4043 C 358.643 -1.94098 -2.75368 0
M  V30 4044 O 359.173 -1.46004 -3.74227 0
M  V30 4045 N 357.379 -1.61675 -2.41474 0
M  V30 4046 H 356.926 -2.00979 -1.61137 0
M  V30 4047 H 356.884 -0.968036 -2.99126 0
M  V30 4048 N 360.656 0.0484629 -1.57525 0
M  V30 4049 C 361.604 1.07359 -2.06341 0
M  V30 4050 C 362.598 1.3865 -0.973269 0
M  V30 4051 O 363.804 1.37783 -1.15827 0
M  V30 4052 H 360.179 0.363662 -0.65822 0
M  V30 4053 H 362.15 0.635916 -2.91545 0
M  V30 4054 C 360.899 2.37198 -2.54229 0
M  V30 4055 H 360.222 2.13977 -3.37719 0
M  V30 4056 H 361.662 3.07319 -2.92115 0
M  V30 4057 C 360.121 3.04805 -1.43511 0
M  V30 4058 O 360.651 3.93848 -0.79034 0
M  V30 4059 N 358.857 2.65811 -1.17444 0
M  V30 4060 H 358.404 1.93488 -1.70059 0
M  V30 4061 H 358.362 3.11366 -0.435737 0
M  V30 4062 N 362.134 1.5431 0.320358 0
M  V30 4063 C 363.064 1.86912 1.3995 0
M  V30 4064 C 364.045 0.726211 1.53819 0
M  V30 4065 O 365.23 0.980233 1.67646 0
M  V30 4066 C 362.36 2.09932 2.7667 0
M  V30 4067 C 361.314 3.25776 2.77586 0
M  V30 4068 C 360.64 3.34173 4.17412 0
M  V30 4069 C 361.94 4.6335 2.41048 0
M  V30 4070 H 363.634 2.77292 1.12914 0
M  V30 4071 H 361.18 1.33421 0.541738 0
M  V30 4072 H 363.133 2.31324 3.52232 0
M  V30 4073 H 361.857 1.16304 3.0519 0
M  V30 4074 H 360.516 3.04276 2.04479 0
M  V30 4075 H 360.164 2.38098 4.43078 0
M  V30 4076 H 359.864 4.12033 4.18931 0
M  V30 4077 H 361.388 3.57803 4.94782 0
M  V30 4078 H 362.802 4.84602 3.06324 0
M  V30 4079 H 361.199 5.43782 2.53813 0
M  V30 4080 H 362.269 4.65381 1.36193 0
M  V30 4081 N 363.613 -0.582584 1.46437 0
M  V30 4082 C 364.56 -1.69164 1.5701 0
M  V30 4083 C 365.53 -1.60847 0.414403 0
M  V30 4084 O 366.715 -1.80058 0.631171 0
M  V30 4085 C 363.855 -3.075 1.56646 0
M  V30 4086 C 362.968 -3.2644 2.82951 0
M  V30 4087 C 362.103 -4.55026 2.7409 0
M  V30 4088 C 361.142 -4.6731 3.95333 0
M  V30 4089 N 360.279 -5.87221 3.84858 0
M  V30 4090 H 365.119 -1.59464 2.51744 0
M  V30 4091 H 362.656 -0.777186 1.24893 0
M  V30 4092 H 364.614 -3.8757 1.5442 0
M  V30 4093 H 363.244 -3.16096 0.654439 0
M  V30 4094 H 362.296 -2.39974 2.95155 0
M  V30 4095 H 363.608 -3.31385 3.72808 0
M  V30 4096 H 362.762 -5.43324 2.6997 0
M  V30 4097 H 361.501 -4.52519 1.81873 0
M  V30 4098 H 360.506 -3.77429 3.99784 0
M  V30 4099 H 361.731 -4.71595 4.88646 0
M  V30 4100 H 359.677 -5.85712 2.95427 0
M  V30 4101 H 359.594 -5.93435 4.6837 0
M  V30 4102 H 360.862 -6.7795 3.84713 0
M  V30 4103 N 365.091 -1.34144 -0.827227 0
M  V30 4104 C 366.319 -1.29325 -1.61501 0
M  V30 4105 C 366.734 0.13354 -1.88327 0
M  V30 4106 O 366.091 1.0793 -1.47164 0
M  V30 4107 C 366.142 -2.07746 -2.95844 0
M  V30 4108 O 365.863 -3.4486 -2.70191 0
M  V30 4109 C 367.364 -2.10273 -3.90256 0
M  V30 4110 H 364.584 -0.445069 -0.50215 0
M  V30 4111 H 367.128 -1.76693 -1.02955 0
M  V30 4112 H 365.283 -1.6403 -3.5096 0
M  V30 4113 H 365.697 -3.85345 -3.55822 0
M  V30 4114 H 367.171 -2.69575 -4.81698 0
M  V30 4115 H 367.648 -1.096 -4.25305 0
M  V30 4116 H 368.254 -2.54059 -3.41078 0
M  V30 4117 N 366.569 1.04691 -1.17803 0
M  V30 4118 C 367.499 2.14494 -0.92275 0
M  V30 4119 C 368.48 1.69546 0.137179 0
M  V30 4120 O 369.665 1.94195 -0.0141108 0
M  V30 4121 C 366.795 3.44491 -0.440803 0
M  V30 4122 C 365.749 4.03031 -1.4405 0
M  V30 4123 C 365.075 5.28432 -0.81631 0
M  V30 4124 C 366.375 4.39932 -2.81527 0
M  V30 4125 H 368.069 2.36107 -1.84103 0
M  V30 4126 H 365.615 1.1347 -0.886599 0
M  V30 4127 H 367.568 4.2066 -0.249602 0
M  V30 4128 H 366.292 3.22546 0.513025 0
M  V30 4129 H 364.951 3.28937 -1.61853 0
M  V30 4130 H 364.599 5.02792 0.144511 0
M  V30 4131 H 364.299 5.68559 -1.48371 0
M  V30 4132 H 365.823 6.07284 -0.635496 0
M  V30 4133 H 367.237 5.07113 -2.67412 0
M  V30 4134 H 365.634 4.9109 -3.44892 0
M  V30 4135 H 366.704 3.50045 -3.35554 0
M  V30 4136 N 368.047 0.979072 1.23499 0
M  V30 4137 C 369.296 0.642751 1.91185 0
M  V30 4138 C 369.609 -0.827253 1.77245 0
M  V30 4139 O 370.815 -1.27458 2.39722 0
M  V30 4140 C 369.271 1.09901 3.42709 0
M  V30 4141 C 368.879 2.59327 3.65313 0
M  V30 4142 C 370.623 0.836371 4.16179 0
M  V30 4143 C 368.53 2.98627 5.10467 0
M  V30 4144 H 367.46 0.236698 0.715884 0
M  V30 4145 H 370.111 1.1868 1.39955 0
M  V30 4146 H 368.493 0.48319 3.93041 0
M  V30 4147 H 369.667 3.26136 3.25533 0
M  V30 4148 H 367.982 2.83323 3.05151 0
M  V30 4149 H 370.579 1.10586 5.23139 0
M  V30 4150 H 370.922 -0.227509 4.15678 0
M  V30 4151 H 371.455 1.41371 3.71832 0
M  V30 4152 H 368.194 4.04133 5.16098 0
M  V30 4153 H 367.714 2.3651 5.51201 0
M  V30 4154 H 369.393 2.89159 5.78788 0
M  V30 4155 N 369.525 -1.3858 0.750561 0
M  V30 4156 C 370.936 -1.82927 0.373438 0
M  V30 4157 C 371.287 -1.62634 -1.09748 0
M  V30 4158 O 370.412 -1.12588 -1.84805 0
M  V30 4159 C 371.007 -3.32088 0.671029 0
M  V30 4160 C 369.566 -3.74795 0.34722 0
M  V30 4161 C 368.713 -2.61391 0.92575 0
M  V30 4162 H 371.664 -1.27351 0.946958 0
M  V30 4163 H 371.685 -3.80465 -0.0518269 0
M  V30 4164 H 371.197 -3.46826 1.74164 0
M  V30 4165 H 369.298 -3.65638 -0.716933 0
M  V30 4166 H 369.411 -4.71667 0.840656 0
M  V30 4167 H 367.775 -2.52265 0.351327 0
M  V30 4168 H 368.558 -2.78929 2.00133 0
M  V30 4169 N 371.003 -0.499398 -1.49478 0
M  V30 4170 C 371.951 0.293604 -2.3074 0
M  V30 4171 C 372.945 0.96427 -1.39277 0
M  V30 4172 O 374.151 0.892141 -1.56336 0
M  V30 4173 H 370.526 0.113541 -0.743379 0
M  V30 4174 H 372.497 -0.411772 -2.95545 0
M  V30 4175 C 371.246 1.3462 -3.20582 0
M  V30 4176 H 370.569 0.83954 -3.90886 0
M  V30 4177 H 372.009 1.87308 -3.80384 0
M  V30 4178 C 370.468 2.36351 -2.40083 0
M  V30 4179 O 370.998 3.422 -2.10385 0
M  V30 4180 N 369.204 2.0878 -2.02137 0
M  V30 4181 H 368.751 1.22723 -2.26488 0
M  V30 4182 H 368.709 2.77075 -1.48583 0
M  V30 4183 N 372.481 1.55866 -0.233164 0
M  V30 4184 C 373.444 2.1953 0.658715 0
M  V30 4185 C 374.444 1.16053 1.11303 0
M  V30 4186 O 375.634 1.41218 1.01996 0
M  V30 4187 C 372.766 2.82791 1.90373 0
M  V30 4188 H 373.959 2.99721 0.10347 0
M  V30 4189 H 371.512 1.56291 0.0164245 0
M  V30 4190 H 372.247 2.06501 2.50056 0
M  V30 4191 H 372.032 3.58578 1.58632 0
M  V30 4192 H 373.522 3.31556 2.53891 0
M  V30 4193 N 373.959 -0.0401083 1.57549 0
M  V30 4194 C 375.184 -0.748931 1.93406 0
M  V30 4195 C 375.609 -1.68686 0.832274 0
M  V30 4196 O 374.967 -1.80047 -0.212818 0
M  V30 4197 C 375.015 -1.4916 3.28304 0
M  V30 4198 O 374.119 -2.6042 3.19774 0
M  V30 4199 H 373.46 -0.202212 0.63246 0
M  V30 4200 H 375.99 0.00112086 2.046 0
M  V30 4201 H 376 -1.86395 3.62934 0
M  V30 4202 H 374.675 -0.80364 4.08062 0
M  V30 4203 H 373.252 -2.25808 2.96758 0
M  V30 4204 N 375.437 -1.54477 -0.31217 0
M  V30 4205 C 376.662 -1.77526 -1.07235 0
M  V30 4206 C 377.087 -0.527775 -1.80544 0
M  V30 4207 O 376.445 0.52121 -1.73646 0
M  V30 4208 C 376.493 -2.97535 -2.03728 0
M  V30 4209 O 375.597 -2.69878 -3.11833 0
M  V30 4210 H 374.938 -0.58792 -0.30862 0
M  V30 4211 H 377.468 -2.01532 -0.352993 0
M  V30 4212 H 377.478 -3.25198 -2.46395 0
M  V30 4213 H 376.153 -3.87996 -1.49774 0
M  V30 4214 H 374.73 -2.53199 -2.7376 0
M  V30 4215 N 376.915 0.57481 -1.46744 0
M  V30 4216 C 377.825 1.711 -1.60505 0
M  V30 4217 C 378.841 1.67008 -0.488307 0
M  V30 4218 O 380.017 1.86774 -0.753495 0
M  V30 4219 C 377.082 3.07608 -1.59932 0
M  V30 4220 C 376.143 3.22904 -2.82898 0
M  V30 4221 C 375.376 4.529 -2.82343 0
M  V30 4222 O 375.599 5.37278 -1.91542 0
M  V30 4223 O 374.533 4.71611 -3.73987 0
M  V30 4224 H 378.359 1.62436 -2.56609 0
M  V30 4225 H 375.944 0.742779 -1.29627 0
M  V30 4226 H 377.826 3.88877 -1.62336 0
M  V30 4227 H 376.501 3.16692 -0.669898 0
M  V30 4228 H 375.408 2.41099 -2.86046 0
M  V30 4229 H 376.741 3.18715 -3.75076 0
M  V30 4230 N 378.394 1.34581 0.820102 0
M  V30 4231 C 379.357 1.2628 1.91275 0
M  V30 4232 C 380.357 0.177344 1.59819 0
M  V30 4233 O 381.547 0.430156 1.68806 0
M  V30 4234 C 378.679 0.950327 3.27386 0
M  V30 4235 H 379.872 2.23421 2.00057 0
M  V30 4236 H 377.425 1.1891 1.0144 0
M  V30 4237 H 378.16 -0.0177938 3.24295 0
M  V30 4238 H 377.945 1.73549 3.51601 0
M  V30 4239 H 379.435 0.917492 4.07396 0
M  V30 4240 N 379.872 -1.04064 1.18357 0
M  V30 4241 C 381.118 -1.77528 0.980397 0
M  V30 4242 C 381.451 -1.87948 -0.48879 0
M  V30 4243 O 380.726 -1.3876 -1.36293 0
M  V30 4244 C 381.009 -3.20797 1.63588 0
M  V30 4245 C 380.862 -3.1832 3.17793 0
M  V30 4246 C 382.181 -4.18911 1.34914 0
M  V30 4247 H 379.3 -0.644443 0.357578 0
M  V30 4248 H 381.942 -1.2156 1.46024 0
M  V30 4249 H 380.092 -3.68586 1.22788 0
M  V30 4250 H 381.764 -2.78521 3.67728 0
M  V30 4251 H 380.007 -2.56351 3.49952 0
M  V30 4252 H 380.678 -4.19489 3.58794 0
M  V30 4253 H 383.154 -3.7967 1.70265 0
M  V30 4254 H 382.03 -5.17374 1.83346 0
M  V30 4255 H 382.291 -4.41262 0.272027 0
M  V30 4256 N 381.35 -0.985608 -1.22978 0
M  V30 4257 C 382.282 -0.488154 -2.23941 0
M  V30 4258 C 383.295 0.41282 -1.57479 0
M  V30 4259 O 384.484 0.216121 -1.77187 0
M  V30 4260 C 381.584 0.312611 -3.37455 0
M  V30 4261 C 380.757 -0.582741 -4.33501 0
M  V30 4262 C 379.816 0.165064 -5.25941 0
M  V30 4263 O 378.842 -0.447077 -5.67442 0
M  V30 4264 N 380.044 1.44953 -5.62111 0
M  V30 4265 H 382.809 -1.3563 -2.67254 0
M  V30 4266 H 380.37 -0.859477 -1.37203 0
M  V30 4267 H 382.362 0.821357 -3.96277 0
M  V30 4268 H 380.932 1.0818 -2.93285 0
M  V30 4269 H 380.152 -1.27225 -3.73105 0
M  V30 4270 H 381.44 -1.19275 -4.94622 0
M  V30 4271 H 380.838 1.9683 -5.30353 0
M  V30 4272 H 379.395 1.90361 -6.23383 0
M  V30 4273 N 382.828 1.3818 -0.7579 0
M  V30 4274 C 383.758 2.33027 -0.148597 0
M  V30 4275 C 384.739 1.55085 0.69875 0
M  V30 4276 O 385.924 1.83384 0.639053 0
M  V30 4277 C 383.054 3.3928 0.742034 0
M  V30 4278 C 382.008 4.28 -0.00291946 0
M  V30 4279 C 381.334 5.25146 1.00625 0
M  V30 4280 C 382.634 5.08938 -1.17385 0
M  V30 4281 H 384.328 2.84231 -0.940909 0
M  V30 4282 H 381.874 1.36659 -0.453908 0
M  V30 4283 H 383.827 4.046 1.17799 0
M  V30 4284 H 382.551 2.86569 1.56671 0
M  V30 4285 H 381.21 3.64192 -0.419504 0
M  V30 4286 H 380.858 4.68721 1.8251 0
M  V30 4287 H 380.558 5.85361 0.512428 0
M  V30 4288 H 382.082 5.93342 1.44143 0
M  V30 4289 H 383.496 5.67474 -0.815224 0
M  V30 4290 H 381.893 5.7841 -1.59882 0
M  V30 4291 H 382.963 4.42424 -1.98468 0
M  V30 4292 N 384.306 0.507319 1.49211 0
M  V30 4293 C 385.236 -0.256939 2.32082 0
M  V30 4294 C 386.217 -0.956609 1.40652 0
M  V30 4295 O 387.402 -0.946788 1.69557 0
M  V30 4296 C 384.532 -1.31802 3.21318 0
M  V30 4297 C 383.486 -0.737855 4.21592 0
M  V30 4298 C 382.812 -1.89992 4.99807 0
M  V30 4299 C 384.112 0.275325 5.21574 0
M  V30 4300 H 385.806 0.434798 2.96226 0
M  V30 4301 H 383.352 0.210546 1.42452 0
M  V30 4302 H 385.305 -1.86045 3.78107 0
M  V30 4303 H 384.029 -2.03903 2.5513 0
M  V30 4304 H 382.688 -0.217126 3.65956 0
M  V30 4305 H 382.336 -2.60877 4.30061 0
M  V30 4306 H 382.036 -1.51777 5.6766 0
M  V30 4307 H 383.56 -2.44657 5.59442 0
M  V30 4308 H 384.974 -0.179193 5.7302 0
M  V30 4309 H 383.371 0.573649 5.97352 0
M  V30 4310 H 384.441 1.18903 4.70096 0
M  V30 4311 N 385.784 -1.5574 0.241426 0
M  V30 4312 C 387.2 -1.59196 -0.113548 0
M  V30 4313 C 387.4 -1.25852 -1.57364 0
M  V30 4314 O 386.456 -1.00322 -2.31715 0
M  V30 4315 C 387.769 -2.99814 0.230695 0
M  V30 4316 C 389.317 -3.12513 0.174547 0
M  V30 4317 C 389.792 -4.55342 0.492744 0
M  V30 4318 N 391.283 -4.61076 0.443043 0
M  V30 4319 C 392.018 -5.6956 0.662484 0
M  V30 4320 N 391.514 -6.86328 0.944761 0
M  V30 4321 N 393.307 -5.58957 0.593564 0
M  V30 4322 H 385.458 -1.75685 1.19368 0
M  V30 4323 H 387.721 -0.81756 0.479896 0
M  V30 4324 H 387.427 -3.28932 1.24485 0
M  V30 4325 H 387.301 -3.74568 -0.444833 0
M  V30 4326 H 389.688 -2.83179 -0.830277 0
M  V30 4327 H 389.769 -2.40045 0.883845 0
M  V30 4328 H 389.413 -4.85396 1.4951 0
M  V30 4329 H 389.343 -5.26062 -0.23797 0
M  V30 4330 H 391.834 -3.77179 0.233374 0
M  V30 4331 H 392.147 -7.64935 1.09977 0
M  V30 4332 H 390.492 -6.88025 0.982175 0
M  V30 4333 H 393.683 -4.66611 0.373123 0
M  V30 4334 H 393.856 -6.43433 0.767981 0
M  V30 4335 N 387.262 0.0317525 -1.57568 0
M  V30 4336 C 388.539 0.758366 -1.803 0
M  V30 4337 C 388.919 1.93718 -0.838845 0
M  V30 4338 O 388.267 2.28187 0.119571 0
M  V30 4339 C 388.477 1.19392 -3.27943 0
M  V30 4340 C 389.825 1.61094 -3.92854 0
M  V30 4341 O 390.849 1.28857 -3.32076 0
M  V30 4342 O 389.708 2.20918 -4.99858 0
M  V30 4343 H 386.802 0.366514 -0.741348 0
M  V30 4344 H 389.348 0.00873765 -1.69698 0
M  V30 4345 H 388.12 0.352275 -3.89711 0
M  V30 4346 H 387.743 2.00365 -3.43424 0
M  V30 4347 N 388.74 1.54641 0.303973 0
M  V30 4348 C 389.673 1.80263 1.3993 0
M  V30 4349 C 390.651 0.653657 1.48883 0
M  V30 4350 O 391.835 0.893284 1.6599 0
M  V30 4351 C 388.962 1.9367 2.77866 0
M  V30 4352 C 388.008 3.16078 2.86351 0
M  V30 4353 S 388.841 4.74219 2.4875 0
M  V30 4354 C 389.997 4.90558 3.88721 0
M  V30 4355 H 390.23 2.72886 1.17986 0
M  V30 4356 H 387.763 1.46014 0.501918 0
M  V30 4357 H 389.721 2.0208 3.57315 0
M  V30 4358 H 388.382 1.01991 2.9708 0
M  V30 4359 H 387.575 3.22252 3.87517 0
M  V30 4360 H 387.177 3.06099 2.14893 0
M  V30 4361 H 389.469 4.74398 4.83687 0
M  V30 4362 H 390.412 5.92651 3.87518 0
M  V30 4363 H 390.82 4.18728 3.78585 0
M  V30 4364 N 390.218 -0.567019 1.47046 0
M  V30 4365 C 391.148 -1.68482 1.61667 0
M  V30 4366 C 392.129 -1.6358 0.466418 0
M  V30 4367 O 393.314 -1.81354 0.694574 0
M  V30 4368 C 390.444 -3.07124 1.62148 0
M  V30 4369 C 389.398 -3.26867 2.76301 0
M  V30 4370 C 388.724 -4.66196 2.61849 0
M  V30 4371 C 390.024 -3.13186 4.17986 0
M  V30 4372 H 391.718 -1.56502 2.5524 0
M  V30 4373 H 389.264 -0.751486 1.22836 0
M  V30 4374 H 391.217 -3.8516 1.70968 0
M  V30 4375 H 389.941 -3.2004 0.651287 0
M  V30 4376 H 388.6 -2.51237 2.66975 0
M  V30 4377 H 388.248 -4.75898 1.62879 0
M  V30 4378 H 387.948 -4.80356 3.38425 0
M  V30 4379 H 389.472 -5.46379 2.72584 0
M  V30 4380 H 390.886 -3.81049 4.2834 0
M  V30 4381 H 389.283 -3.3886 4.95272 0
M  V30 4382 H 390.353 -2.10057 4.3704 0
M  V30 4383 N 391.696 -1.35014 -0.812953 0
M  V30 4384 C 392.628 -1.23262 -1.93233 0
M  V30 4385 C 393.641 -0.157371 -1.62038 0
M  V30 4386 O 394.83 -0.410096 -1.73725 0
M  V30 4387 C 391.93 -0.87392 -3.27438 0
M  V30 4388 C 391.103 -2.04622 -3.86586 0
M  V30 4389 C 390.162 -1.66432 -4.99186 0
M  V30 4390 O 389.188 -2.38222 -5.16951 0
M  V30 4391 N 390.39 -0.584248 -5.77552 0
M  V30 4392 H 393.155 -2.19699 -2.03844 0
M  V30 4393 H 390.716 -1.281 -0.99005 0
M  V30 4394 H 392.708 -0.600039 -4.00227 0
M  V30 4395 H 391.278 0.00057392 -3.126 0
M  V30 4396 H 390.498 -2.48427 -3.06068 0
M  V30 4397 H 391.786 -2.82999 -4.22835 0
M  V30 4398 H 391.184 0.0123526 -5.65699 0
M  V30 4399 H 389.741 -0.37013 -6.50748 0
M  V30 4400 N 393.175 1.03435 -1.18907 0
M  V30 4401 C 394.421 1.7713 -0.99982 0
M  V30 4402 C 394.776 1.86695 0.465049 0
M  V30 4403 O 394.069 1.36866 1.34083 0
M  V30 4404 C 394.263 3.19792 -1.59586 0
M  V30 4405 C 394.092 3.24134 -3.11717 0
M  V30 4406 C 392.862 3.32398 -3.80578 0
M  V30 4407 C 395.06 3.11625 -4.09138 0
M  V30 4408 N 393.042 3.26055 -5.20155 0
M  V30 4409 C 394.413 3.12855 -5.35277 0
M  V30 4410 C 396.468 2.95713 -4.00572 0
M  V30 4411 C 395.171 2.99805 -6.53842 0
M  V30 4412 C 397.197 2.84011 -5.1874 0
M  V30 4413 C 396.559 2.8589 -6.43775 0
M  V30 4414 H 392.658 0.659683 -0.419931 0
M  V30 4415 H 395.242 1.2317 -1.50789 0
M  V30 4416 H 393.413 3.72085 -1.11389 0
M  V30 4417 H 395.145 3.81819 -1.3415 0
M  V30 4418 H 391.9 3.38392 -3.31342 0
M  V30 4419 H 392.324 3.26307 -5.93172 0
M  V30 4420 H 396.966 2.93086 -3.0473 0
M  V30 4421 H 394.684 3.01184 -7.49876 0
M  V30 4422 H 398.27 2.72744 -5.13909 0
M  V30 4423 H 397.15 2.76931 -7.33675 0
M  V30 4424 N 394.653 0.992116 1.22453 0
M  V30 4425 C 395.93 0.583508 1.86694 0
M  V30 4426 C 396.31 -0.9392 1.89056 0
M  V30 4427 O 395.658 -1.82081 1.38053 0
M  V30 4428 C 395.868 1.20304 3.2761 0
M  V30 4429 C 397.216 1.30308 4.0411 0
M  V30 4430 O 398.24 1.15737 3.36873 0
M  V30 4431 O 397.099 1.53615 5.24466 0
M  V30 4432 H 394.193 0.198129 0.802916 0
M  V30 4433 H 396.739 1.08794 1.30238 0
M  V30 4434 H 395.511 2.24461 3.2052 0
M  V30 4435 H 395.134 0.684144 3.9167 0
M  V30 4436 N 396.131 -1.37776 0.765217 0
M  V30 4437 C 397.542 -1.82521 0.392819 0
M  V30 4438 C 397.893 -1.63789 -1.08017 0
M  V30 4439 O 397.018 -1.14542 -1.83601 0
M  V30 4440 C 397.613 -3.31358 0.706214 0
M  V30 4441 C 396.172 -3.74406 0.386952 0
M  V30 4442 C 395.319 -2.60394 0.953422 0
M  V30 4443 H 398.27 -1.2634 0.960412 0
M  V30 4444 H 398.291 -3.80498 -0.0114706 0
M  V30 4445 H 397.803 -3.44959 1.77833 0
M  V30 4446 H 395.904 -3.66377 -0.678112 0
M  V30 4447 H 396.017 -4.70749 0.890636 0
M  V30 4448 H 394.381 -2.51878 0.378064 0
M  V30 4449 H 395.164 -2.76791 2.03081 0
M  V30 4450 N 397.609 -0.515225 -1.4894 0
M  V30 4451 C 398.556 0.255567 -2.29381 0
M  V30 4452 C 399.526 0.947387 -1.36432 0
M  V30 4453 O 400.711 0.951288 -1.65394 0
M  V30 4454 C 397.851 1.30551 -3.19453 0
M  V30 4455 C 396.964 0.624029 -4.27469 0
M  V30 4456 C 396.099 1.65563 -5.0474 0
M  V30 4457 C 395.138 0.956802 -6.04576 0
M  V30 4458 N 394.275 1.93326 -6.74959 0
M  V30 4459 H 399.115 -0.436607 -2.94784 0
M  V30 4460 H 396.652 -0.227154 -1.45336 0
M  V30 4461 H 398.61 1.92639 -3.70062 0
M  V30 4462 H 397.24 1.96626 -2.56004 0
M  V30 4463 H 396.292 -0.110459 -3.8024 0
M  V30 4464 H 397.604 0.0746092 -4.98744 0
M  V30 4465 H 396.758 2.35119 -5.59289 0
M  V30 4466 H 395.497 2.23893 -4.3327 0
M  V30 4467 H 394.502 0.247097 -5.49244 0
M  V30 4468 H 395.727 0.379814 -6.78037 0
M  V30 4469 H 393.673 2.50591 -6.06251 0
M  V30 4470 H 393.59 1.43489 -7.42258 0
M  V30 4471 H 394.858 2.62126 -7.34105 0
M  V30 4472 N 399.087 1.5561 -0.249682 0
M  V30 4473 C 400.034 2.21496 0.648694 0
M  V30 4474 C 401.004 1.17977 1.16921 0
M  V30 4475 O 402.189 1.46434 1.22318 0
M  V30 4476 C 399.329 2.92039 1.83868 0
M  V30 4477 C 398.442 4.10219 1.35442 0
M  V30 4478 C 397.577 4.6847 2.50419 0
M  V30 4479 C 396.616 5.78893 1.98869 0
M  V30 4480 N 395.753 6.31315 3.07223 0
M  V30 4481 H 400.593 2.97892 0.0801582 0
M  V30 4482 H 398.13 1.47074 0.0278031 0
M  V30 4483 H 400.088 3.31138 2.53778 0
M  V30 4484 H 398.718 2.18111 2.37965 0
M  V30 4485 H 397.77 3.76413 0.54928 0
M  V30 4486 H 399.082 4.89927 0.936649 0
M  V30 4487 H 398.236 5.10158 3.28366 0
M  V30 4488 H 396.975 3.87984 2.95499 0
M  V30 4489 H 395.98 5.3668 1.19393 0
M  V30 4490 H 397.205 6.61232 1.54755 0
M  V30 4491 H 395.151 5.53733 3.51732 0
M  V30 4492 H 395.068 7.06224 2.69784 0
M  V30 4493 H 396.336 6.77662 3.8522 0
M  V30 4494 N 400.565 -0.0233959 1.57583 0
M  V30 4495 C 401.981 -0.379134 1.55031 0
M  V30 4496 C 402.181 -1.76255 0.976548 0
M  V30 4497 O 401.237 -2.45266 0.600078 0
M  V30 4498 C 402.55 -0.275792 2.99433 0
M  V30 4499 C 404.098 -0.352458 3.11009 0
M  V30 4500 C 404.573 -0.278501 4.57152 0
M  V30 4501 N 406.064 -0.337123 4.61972 0
M  V30 4502 C 406.799 -0.302876 5.726 0
M  V30 4503 N 406.295 -0.220589 6.92449 0
M  V30 4504 N 408.088 -0.353023 5.6099 0
M  V30 4505 H 400.239 0.881869 1.93227 0
M  V30 4506 H 402.502 0.335867 0.886509 0
M  V30 4507 H 402.208 0.675108 3.4516 0
M  V30 4508 H 402.082 -1.06721 3.61788 0
M  V30 4509 H 404.469 -1.29379 2.65226 0
M  V30 4510 H 404.55 0.468409 2.51475 0
M  V30 4511 H 404.194 0.659189 5.03604 0
M  V30 4512 H 404.124 -1.11755 5.14605 0
M  V30 4513 H 406.615 -0.403002 3.75745 0
M  V30 4514 H 406.928 -0.199713 7.72542 0
M  V30 4515 H 405.273 -0.186555 6.9475 0
M  V30 4516 H 408.464 -0.415339 4.66254 0
M  V30 4517 H 408.637 -0.322866 6.47195 0
M  V30 4518 N 402.043 -1.548 -0.295768 0
M  V30 4519 C 403.454 -1.65274 -0.868411 0
M  V30 4520 C 403.805 -0.56481 -1.87894 0
M  V30 4521 O 402.93 0.29767 -2.14343 0
M  V30 4522 C 403.525 -2.99603 -1.58188 0
M  V30 4523 C 402.084 -3.12181 -2.10286 0
M  V30 4524 C 401.231 -2.6098 -0.93727 0
M  V30 4525 H 404.182 -1.58534 -0.0726422 0
M  V30 4526 H 404.203 -2.91319 -2.44772 0
M  V30 4527 H 403.715 -3.78764 -0.846151 0
M  V30 4528 H 401.816 -2.3775 -2.8689 0
M  V30 4529 H 401.929 -4.18415 -2.33379 0
M  V30 4530 H 400.293 -2.17564 -1.32431 0
M  V30 4531 H 401.076 -3.42623 -0.215414 0
M  V30 4532 N 403.521 0.559213 -1.47345 0
M  V30 4533 C 404.749 1.34194 -1.57479 0
M  V30 4534 C 405.164 1.87463 -0.224261 0
M  V30 4535 O 404.521 1.64888 0.782185 0
M  V30 4536 C 404.572 2.51324 -2.59843 0
M  V30 4537 O 404.293 2.00256 -3.89653 0
M  V30 4538 C 405.794 3.43563 -2.80142 0
M  V30 4539 H 403.014 0.409136 -0.531835 0
M  V30 4540 H 405.558 0.677609 -1.92947 0
M  V30 4541 H 403.713 3.13699 -2.27314 0
M  V30 4542 H 404.127 2.76708 -4.4557 0
M  V30 4543 H 405.601 4.2217 -3.55635 0
M  V30 4544 H 406.078 3.9698 -1.87892 0
M  V30 4545 H 406.684 2.87005 -3.1386 0
M  V30 4546 N 404.999 1.35443 0.805782 0
M  V30 4547 C 405.962 1.28301 1.89925 0
M  V30 4548 C 406.962 0.194285 1.59622 0
M  V30 4549 O 408.152 0.448036 1.6834 0
M  V30 4550 C 405.284 0.984997 3.2636 0
M  V30 4551 H 406.477 2.2553 1.97677 0
M  V30 4552 H 404.03 1.19979 1.00173 0
M  V30 4553 H 404.765 0.016603 3.24296 0
M  V30 4554 H 404.55 1.77269 3.4974 0
M  V30 4555 H 406.04 0.960651 4.064 0
M  V30 4556 N 406.477 -1.02803 1.19454 0
M  V30 4557 C 407.702 -1.80378 1.02364 0
M  V30 4558 C 408.127 -1.83282 -0.423007 0
M  V30 4559 O 407.485 -1.25945 -1.30413 0
M  V30 4560 C 407.533 -3.23248 1.59821 0
M  V30 4561 O 406.637 -4.04 0.828105 0
M  V30 4562 H 405.978 -0.556799 0.361761 0
M  V30 4563 H 408.508 -1.29385 1.58495 0
M  V30 4564 H 408.518 -3.73994 1.63073 0
M  V30 4565 H 407.193 -3.2045 2.65113 0
M  V30 4566 H 405.77 -3.62635 0.86891 0
M  V30 4567 N 407.956 -0.998596 -1.21925 0
M  V30 4568 C 408.888 -0.511879 -2.23411 0
M  V30 4569 C 409.901 0.396094 -1.57908 0
M  V30 4570 O 411.09 0.197316 -1.77406 0
M  V30 4571 C 408.19 0.276802 -3.37768 0
M  V30 4572 C 407.363 -0.628687 -4.32858 0
M  V30 4573 C 406.422 0.109272 -5.26087 0
M  V30 4574 O 405.448 -0.507237 -5.66935 0
M  V30 4575 N 406.65 1.38983 -5.63617 0
M  V30 4576 H 409.415 -1.38457 -2.658 0
M  V30 4577 H 406.976 -0.873981 -1.36283 0
M  V30 4578 H 408.968 0.77928 -3.97126 0
M  V30 4579 H 407.538 1.05063 -2.94415 0
M  V30 4580 H 406.758 -1.31175 -3.71735 0
M  V30 4581 H 408.046 -1.24514 -4.93329 0
M  V30 4582 H 407.444 1.91194 -5.32411 0
M  V30 4583 H 406.001 1.83739 -6.25367 0
M  V30 4584 N 409.434 1.37368 -0.772513 0
M  V30 4585 C 410.397 2.28601 -0.165541 0
M  V30 4586 C 411.397 1.48062 0.627238 0
M  V30 4587 O 412.587 1.68268 0.450715 0
M  V30 4588 C 409.719 3.32023 0.772897 0
M  V30 4589 H 410.912 2.83787 -0.969787 0
M  V30 4590 H 408.465 1.46647 -0.540775 0
M  V30 4591 H 409.2 2.81962 1.60212 0
M  V30 4592 H 408.985 3.91555 0.206585 0
M  V30 4593 H 410.475 4.00197 1.19298 0
M  V30 4594 N 410.912 0.523116 1.48665 0
M  V30 4595 C 411.842 -0.23231 2.32342 0
M  V30 4596 C 412.823 -0.941637 1.41659 0
M  V30 4597 O 414.008 -0.928751 1.70552 0
M  V30 4598 C 411.138 -1.28387 3.22698 0
M  V30 4599 C 410.092 -0.693098 4.22351 0
M  V30 4600 C 409.418 -1.8468 5.01794 0
M  V30 4601 C 410.718 0.33063 5.21252 0
M  V30 4602 H 412.412 0.466192 2.95748 0
M  V30 4603 H 409.958 0.225643 1.42221 0
M  V30 4604 H 411.911 -1.82024 3.80059 0
M  V30 4605 H 410.635 -2.01186 2.57278 0
M  V30 4606 H 409.294 -0.178299 3.66166 0
M  V30 4607 H 408.942 -2.56301 4.32804 0
M  V30 4608 H 408.642 -1.45747 5.69238 0
M  V30 4609 H 410.166 -2.38709 5.62006 0
M  V30 4610 H 411.58 -0.118407 5.73178 0
M  V30 4611 H 409.977 0.636974 5.9671 0
M  V30 4612 H 411.047 1.23883 4.68808 0
M  V30 4613 N 412.39 -1.55475 0.257931 0
M  V30 4614 C 413.806 -1.59307 -0.0966563 0
M  V30 4615 C 414.006 -1.27514 -1.5602 0
M  V30 4616 O 413.062 -1.02774 -2.30637 0
M  V30 4617 C 414.375 -2.99552 0.262481 0
M  V30 4618 C 415.923 -3.1231 0.207683 0
M  V30 4619 C 416.398 -4.54793 0.541012 0
M  V30 4620 N 417.889 -4.6058 0.491921 0
M  V30 4621 C 418.624 -5.68825 0.722857 0
M  V30 4622 N 418.12 -6.85287 1.0175 0
M  V30 4623 N 419.913 -5.58296 0.652815 0
M  V30 4624 H 412.064 -1.74409 1.21224 0
M  V30 4625 H 414.327 -0.812424 0.48854 0
M  V30 4626 H 414.033 -3.27593 1.27967 0
M  V30 4627 H 413.907 -3.75019 -0.40508 0
M  V30 4628 H 416.294 -2.84044 -0.800195 0
M  V30 4629 H 416.375 -2.39095 0.909255 0
M  V30 4630 H 416.019 -4.83783 1.5465 0
M  V30 4631 H 415.949 -5.26285 -0.18216 0
M  V30 4632 H 418.44 -3.7691 0.273366 0
M  V30 4633 H 418.753 -7.63725 1.18084 0
M  V30 4634 H 417.098 -6.86945 1.05509 0
M  V30 4635 H 420.289 -4.66189 0.422592 0
M  V30 4636 H 420.462 -6.42582 0.836182 0
M  V30 4637 N 413.868 0.0150385 -1.57593 0
M  V30 4638 C 415.098 0.713359 -1.93894 0
M  V30 4639 C 415.506 1.68663 -0.857289 0
M  V30 4640 O 414.849 1.82876 0.173788 0
M  V30 4641 C 414.911 1.51348 -3.26089 0
M  V30 4642 C 414.575 0.703451 -4.51554 0
M  V30 4643 C 415.572 -0.00237924 -5.199 0
M  V30 4644 C 413.257 0.653854 -4.98026 0
M  V30 4645 C 415.251 -0.746955 -6.33008 0
M  V30 4646 C 412.938 -0.0944578 -6.11027 0
M  V30 4647 C 413.936 -0.793609 -6.78374 0
M  V30 4648 O 413.624 -1.52974 -7.89211 0
M  V30 4649 H 413.356 0.204637 -0.644282 0
M  V30 4650 H 415.91 -0.0276411 -2.05381 0
M  V30 4651 H 414.14 2.29862 -3.10967 0
M  V30 4652 H 415.829 2.09572 -3.47612 0
M  V30 4653 H 416.595 0.0268803 -4.84993 0
M  V30 4654 H 412.474 1.18756 -4.45441 0
M  V30 4655 H 416.018 -1.2932 -6.85509 0
M  V30 4656 H 411.915 -0.125591 -6.45378 0
M  V30 4657 H 412.683 -1.44488 -8.05646 0
M  V30 4658 N 415.346 1.54954 0.287554 0
M  V30 4659 C 416.757 1.65732 0.859634 0
M  V30 4660 C 417.108 0.574767 1.87592 0
M  V30 4661 O 416.233 -0.286299 2.14498 0
M  V30 4662 C 416.828 3.00438 1.56597 0
M  V30 4663 C 415.387 3.13292 2.08627 0
M  V30 4664 C 414.534 2.61473 0.923416 0
M  V30 4665 H 417.485 1.5857 0.0642338 0
M  V30 4666 H 417.506 2.92613 2.43224 0
M  V30 4667 H 417.018 3.79207 0.826053 0
M  V30 4668 H 415.119 2.39268 2.85625 0
M  V30 4669 H 415.232 4.19647 2.31157 0
M  V30 4670 H 413.596 2.18264 1.31275 0
M  V30 4671 H 414.379 3.42733 0.197241 0
M  V30 4672 N 416.824 -0.551391 1.4764 0
M  V30 4673 C 418.054 -1.33163 1.57959 0
M  V30 4674 C 418.462 -1.87785 0.23094 0
M  V30 4675 O 417.805 -1.65996 -0.786825 0
M  V30 4676 C 417.867 -2.53449 2.54958 0
M  V30 4677 C 417.531 -2.20071 4.00522 0
M  V30 4678 C 418.528 -1.77017 4.88836 0
M  V30 4679 C 416.213 -2.31252 4.45901 0
M  V30 4680 C 418.207 -1.4558 6.20552 0
M  V30 4681 C 415.894 -1.99427 5.77644 0
M  V30 4682 C 416.892 -1.56659 6.64791 0
M  V30 4683 O 416.58 -1.25242 7.94084 0
M  V30 4684 H 416.312 -0.412022 0.535923 0
M  V30 4685 H 418.866 -0.674186 1.9402 0
M  V30 4686 H 417.096 -3.22104 2.13976 0
M  V30 4687 H 418.785 -3.15523 2.55343 0
M  V30 4688 H 419.551 -1.67867 4.55023 0
M  V30 4689 H 415.43 -2.63498 3.78272 0
M  V30 4690 H 418.974 -1.12125 6.8853 0
M  V30 4691 H 414.871 -2.08211 6.10998 0
M  V30 4692 H 415.639 -1.38822 8.06642 0
M  V30 4693 N 418.302 -1.35869 -0.798587 0
M  V30 4694 C 419.549 -1.29588 -1.55606 0
M  V30 4695 C 419.877 0.127456 -1.94082 0
M  V30 4696 O 419.132 1.09461 -1.62225 0
M  V30 4697 C 419.431 -2.1556 -2.85077 0
M  V30 4698 C 419.097 -3.6424 -2.65781 0
M  V30 4699 C 417.759 -4.04766 -2.60227 0
M  V30 4700 C 420.111 -4.58547 -2.47758 0
M  V30 4701 C 417.439 -5.37753 -2.34603 0
M  V30 4702 C 419.791 -5.91742 -2.23662 0
M  V30 4703 C 418.455 -6.31402 -2.16534 0
M  V30 4704 H 417.725 -0.474197 -0.569402 0
M  V30 4705 H 420.372 -1.67839 -0.922086 0
M  V30 4706 H 418.677 -1.70216 -3.52893 0
M  V30 4707 H 420.374 -2.08031 -3.42818 0
M  V30 4708 H 416.964 -3.32086 -2.70956 0
M  V30 4709 H 421.148 -4.28117 -2.51056 0
M  V30 4710 H 416.404 -5.67474 -2.2756 0
M  V30 4711 H 420.578 -6.6439 -2.08708 0
M  V30 4712 H 418.205 -7.34381 -1.96441 0
M  V30 4713 N 419.78 1.02168 -1.19998 0
M  V30 4714 C 420.712 2.10705 -0.901994 0
M  V30 4715 C 421.725 1.6244 0.108216 0
M  V30 4716 O 422.914 1.78082 -0.12214 0
M  V30 4717 C 420.014 3.37291 -0.329834 0
M  V30 4718 C 419.187 4.14714 -1.39035 0
M  V30 4719 C 418.246 5.19606 -0.830432 0
M  V30 4720 O 417.272 5.48809 -1.50989 0
M  V30 4721 N 418.474 5.79366 0.362696 0
M  V30 4722 H 421.239 2.36856 -1.83628 0
M  V30 4723 H 418.8 1.18518 -1.10296 0
M  V30 4724 H 420.792 4.04657 0.0587633 0
M  V30 4725 H 419.362 3.0843 0.508891 0
M  V30 4726 H 418.582 3.42392 -1.9535 0
M  V30 4727 H 419.87 4.63226 -2.10474 0
M  V30 4728 H 419.268 5.57968 0.932081 0
M  V30 4729 H 417.825 6.48106 0.69299 0
M  V30 4730 N 421.258 1.00505 1.21394 0
M  V30 4731 C 422.504 0.688793 1.90745 0
M  V30 4732 C 422.837 -0.778486 1.77914 0
M  V30 4733 O 422.112 -1.56433 1.15581 0
M  V30 4734 C 422.395 1.11063 3.42545 0
M  V30 4735 C 422.248 2.63737 3.64367 0
M  V30 4736 C 423.567 0.673059 4.34923 0
M  V30 4737 H 420.686 0.251702 0.692687 0
M  V30 4738 H 423.328 1.25074 1.43026 0
M  V30 4739 H 421.478 0.632508 3.83317 0
M  V30 4740 H 423.15 3.19313 3.32922 0
M  V30 4741 H 421.393 3.05248 3.08231 0
M  V30 4742 H 422.064 2.88305 4.70727 0
M  V30 4743 H 424.54 1.08392 4.01734 0
M  V30 4744 H 423.416 0.996383 5.39781 0
M  V30 4745 H 423.677 -0.425808 4.40045 0
M  V30 4746 N 422.737 -1.36956 0.779787 0
M  V30 4747 C 423.985 -1.99097 0.347079 0
M  V30 4748 C 424.306 -1.62206 -1.08232 0
M  V30 4749 O 423.576 -0.891373 -1.74446 0
M  V30 4750 H 422.156 -0.736409 0.125342 0
M  V30 4751 H 424.818 -1.67308 0.999696 0
M  V30 4752 H 423.914 -3.09107 0.431162 0
M  V30 4753 N 424.215 -0.530993 -1.48385 0
M  V30 4754 C 425.165 0.251092 -2.26613 0
M  V30 4755 C 426.149 0.908977 -1.32765 0
M  V30 4756 O 427.341 0.811616 -1.57295 0
M  V30 4757 C 424.47 1.29677 -3.17866 0
M  V30 4758 C 423.556 0.643627 -4.19188 0
M  V30 4759 N 423.947 -0.271223 -5.05072 0
M  V30 4760 C 422.245 0.900711 -4.3681 0
M  V30 4761 C 422.946 -0.648109 -5.78078 0
M  V30 4762 N 421.922 -0.00895987 -5.43599 0
M  V30 4763 H 425.724 -0.452702 -2.90393 0
M  V30 4764 H 423.238 -0.349091 -1.58604 0
M  V30 4765 H 425.235 1.87079 -3.72568 0
M  V30 4766 H 423.895 2.00193 -2.55642 0
M  V30 4767 H 424.906 -0.643883 -5.13882 0
M  V30 4768 H 421.583 1.59636 -3.85775 0
M  V30 4769 H 422.973 -1.39833 -6.57188 0
M  V30 4770 N 425.693 1.55336 -0.266172 0
M  V30 4771 C 427.104 1.85236 0.233315 0
M  V30 4772 C 427.455 1.18816 1.56132 0
M  V30 4773 O 426.58 0.473307 2.11161 0
M  V30 4774 C 427.175 3.36059 0.430113 0
M  V30 4775 C 425.734 3.66116 0.873842 0
M  V30 4776 C 424.881 2.77274 -0.0380016 0
M  V30 4777 H 427.832 1.51004 -0.488214 0
M  V30 4778 H 427.853 3.58681 1.26998 0
M  V30 4779 H 427.365 3.84373 -0.536588 0
M  V30 4780 H 425.466 3.23295 1.85233 0
M  V30 4781 H 425.579 4.73699 0.717358 0
M  V30 4782 H 423.943 2.50198 0.476759 0
M  V30 4783 H 424.726 3.284 -1.00042 0
M  V30 4784 N 427.171 -0.0066808 1.57599 0
M  V30 4785 C 428.101 -0.999296 2.11036 0
M  V30 4786 C 429.082 -1.36278 1.01795 0
M  V30 4787 O 430.267 -1.4477 1.29442 0
M  V30 4788 C 427.397 -2.29328 2.60818 0
M  V30 4789 C 426.351 -2.07159 3.74525 0
M  V30 4790 C 425.677 -3.42512 4.10596 0
M  V30 4791 C 426.977 -1.43959 5.02069 0
M  V30 4792 H 428.671 -0.554382 2.94223 0
M  V30 4793 H 426.217 -0.265221 1.41536 0
M  V30 4794 H 428.17 -2.99117 2.96828 0
M  V30 4795 H 426.894 -2.7592 1.74745 0
M  V30 4796 H 425.553 -1.39797 3.38899 0
M  V30 4797 H 425.201 -3.86795 3.21556 0
M  V30 4798 H 424.901 -3.28498 4.87199 0
M  V30 4799 H 426.425 -4.13628 4.4916 0
M  V30 4800 H 427.839 -2.03696 5.35893 0
M  V30 4801 H 426.236 -1.40452 5.83432 0
M  V30 4802 H 427.306 -0.407992 4.83181 0
M  V30 4803 N 428.649 -1.55105 -0.279332 0
M  V30 4804 C 429.897 -1.75066 -1.00977 0
M  V30 4805 C 430.218 -0.551276 -1.87045 0
M  V30 4806 O 429.488 0.433984 -1.91032 0
M  V30 4807 H 428.068 -0.645578 -0.375816 0
M  V30 4808 H 430.73 -1.92497 -0.305089 0
M  V30 4809 H 429.826 -2.64894 -1.65038 0
M  V30 4810 N 430.127 0.543554 -1.4793 0
M  V30 4811 C 431.352 1.32995 -1.59145 0
M  V30 4812 C 431.777 1.86472 -0.246956 0
M  V30 4813 O 431.135 1.63696 0.779324 0
M  V30 4814 C 431.183 2.46623 -2.63077 0
M  V30 4815 O 430.287 3.49261 -2.19295 0
M  V30 4816 H 429.628 0.394472 -0.534124 0
M  V30 4817 H 432.158 0.655489 -1.93816 0
M  V30 4818 H 432.168 2.93001 -2.83926 0
M  V30 4819 H 430.843 2.07059 -3.60693 0
M  V30 4820 H 429.42 3.09094 -2.08603 0
M  V30 4821 N 431.605 1.3629 0.791371 0
M  V30 4822 C 432.833 1.33562 1.58016 0
M  V30 4823 C 433.248 -0.0835616 1.88615 0
M  V30 4824 O 432.605 -1.0399 1.49974 0
M  V30 4825 C 432.656 2.15517 2.90232 0
M  V30 4826 O 432.377 3.51902 2.60953 0
M  V30 4827 C 433.878 2.20546 3.84544 0
M  V30 4828 H 431.098 0.458226 0.490173 0
M  V30 4829 H 433.642 1.79361 0.982345 0
M  V30 4830 H 431.797 1.73278 3.46487 0
M  V30 4831 H 432.211 3.94644 3.4548 0
M  V30 4832 H 433.685 2.82252 4.74382 0
M  V30 4833 H 434.162 1.20838 4.2225 0
M  V30 4834 H 434.768 2.63013 3.34222 0
M  V30 4835 N 433.083 -1.0153 1.20538 0
M  V30 4836 C 434.311 -1.78746 1.04199 0
M  V30 4837 C 434.726 -1.84323 -0.408733 0
M  V30 4838 O 434.083 -1.29714 -1.28377 0
M  V30 4839 C 434.134 -3.23152 1.62035 0
M  V30 4840 O 433.855 -3.17918 3.0143 0
M  V30 4841 C 435.356 -4.16911 1.50666 0
M  V30 4842 H 432.576 -0.56208 0.366479 0
M  V30 4843 H 435.12 -1.27794 1.59653 0
M  V30 4844 H 433.275 -3.71248 1.10697 0
M  V30 4845 H 433.689 -4.08567 3.28897 0
M  V30 4846 H 435.163 -5.16072 1.95892 0
M  V30 4847 H 435.64 -4.36791 0.459363 0
M  V30 4848 H 436.246 -3.74698 2.01201 0
M  V30 4849 N 434.561 -1.01147 -1.20859 0
M  V30 4850 C 435.493 -0.535546 -2.22855 0
M  V30 4851 C 436.506 0.379323 -1.58319 0
M  V30 4852 O 437.695 0.178489 -1.77605 0
M  V30 4853 C 434.795 0.240962 -3.38042 0
M  V30 4854 C 433.968 -0.674562 -4.32167 0
M  V30 4855 C 433.027 0.053467 -5.26173 0
M  V30 4856 O 432.053 -0.567339 -5.66366 0
M  V30 4857 N 433.255 1.32997 -5.65059 0
M  V30 4858 H 436.02 -1.41268 -2.64317 0
M  V30 4859 H 433.581 -0.888386 -1.35349 0
M  V30 4860 H 435.573 0.737115 -3.97931 0
M  V30 4861 H 434.143 1.01935 -2.95513 0
M  V30 4862 H 433.363 -1.35111 -3.70322 0
M  V30 4863 H 434.651 -1.2974 -4.91981 0
M  V30 4864 H 434.049 1.85536 -5.34409 0
M  V30 4865 H 432.606 1.77095 -6.2728 0
M  V30 4866 N 436.039 1.36541 -0.78704 0
M  V30 4867 C 436.987 2.31965 -0.171724 0
M  V30 4868 C 437.981 1.55689 0.667631 0
M  V30 4869 O 439.187 1.70969 0.562981 0
M  V30 4870 H 435.562 0.751101 -0.0367545 0
M  V30 4871 H 437.533 2.81428 -0.992017 0
M  V30 4872 C 436.282 3.40968 0.680904 0
M  V30 4873 H 435.605 3.99775 0.0443961 0
M  V30 4874 H 437.045 4.10063 1.07815 0
M  V30 4875 C 435.504 2.82338 1.83813 0
M  V30 4876 O 436.034 2.74311 2.93456 0
M  V30 4877 N 434.24 2.39661 1.6435 0
M  V30 4878 H 433.787 2.46389 0.751668 0
M  V30 4879 H 433.745 2.00779 2.4194 0
M  V30 4880 N 437.518 0.538854 1.48102 0
M  V30 4881 C 438.448 -0.207654 2.32575 0
M  V30 4882 C 439.429 -0.926559 1.4265 0
M  V30 4883 O 440.614 -0.91061 1.71527 0
M  V30 4884 C 437.744 -1.24957 3.24042 0
M  V30 4885 C 436.698 -0.648263 4.23062 0
M  V30 4886 C 436.024 -1.79348 5.03725 0
M  V30 4887 C 437.324 0.385897 5.20872 0
M  V30 4888 H 439.018 0.497534 2.95237 0
M  V30 4889 H 436.564 0.240715 1.41974 0
M  V30 4890 H 438.517 -1.77983 3.81969 0
M  V30 4891 H 437.241 -1.98446 2.59397 0
M  V30 4892 H 435.9 -0.139452 3.66335 0
M  V30 4893 H 435.548 -2.51696 4.35498 0
M  V30 4894 H 435.248 -1.39702 5.70751 0
M  V30 4895 H 436.772 -2.32735 5.64506 0
M  V30 4896 H 438.186 -0.057607 5.73271 0
M  V30 4897 H 436.583 0.700227 5.96001 0
M  V30 4898 H 437.653 1.28848 4.67468 0
M  V30 4899 N 438.996 -1.55193 0.274407 0
M  V30 4900 C 439.928 -2.1989 -0.646595 0
M  V30 4901 C 440.941 -1.1834 -1.11801 0
M  V30 4902 O 442.13 -1.4507 -1.04004 0
M  V30 4903 C 439.23 -2.8104 -1.89393 0
M  V30 4904 C 438.403 -4.08274 -1.56943 0
M  V30 4905 C 437.462 -4.53478 -2.66916 0
M  V30 4906 O 436.488 -5.19267 -2.33132 0
M  V30 4907 N 437.69 -4.2356 -3.9696 0
M  V30 4908 H 440.455 -2.99556 -0.0928686 0
M  V30 4909 H 438.016 -1.61618 0.0954783 0
M  V30 4910 H 440.008 -3.08226 -2.62257 0
M  V30 4911 H 438.578 -2.05372 -2.35672 0
M  V30 4912 H 437.798 -3.88384 -0.674655 0
M  V30 4913 H 439.086 -4.91173 -1.32764 0
M  V30 4914 H 438.484 -3.70799 -4.27229 0
M  V30 4915 H 437.041 -4.55518 -4.66205 0
M  V30 4916 N 440.474 -0.00167713 -1.576 0
M  V30 4917 C 441.751 0.719951 -1.81868 0
M  V30 4918 C 442.131 1.91895 -0.879747 0
M  V30 4919 O 441.479 2.28389 0.0711423 0
M  V30 4920 C 441.689 1.12409 -3.30402 0
M  V30 4921 C 443.037 1.52724 -3.96182 0
M  V30 4922 O 444.061 1.21784 -3.34734 0
M  V30 4923 O 442.92 2.10265 -5.04431 0
M  V30 4924 H 440.014 0.350707 -0.748955 0
M  V30 4925 H 442.56 -0.0272597 -1.69678 0
M  V30 4926 H 441.332 0.269532 -3.90371 0
M  V30 4927 H 440.955 1.93035 -3.47596 0
M  V30 4928 N 441.952 1.55251 0.271103 0
M  V30 4929 C 443.177 1.80306 1.02491 0
M  V30 4930 C 443.602 0.575457 1.79081 0
M  V30 4931 O 442.96 -0.474987 1.74967 0
M  V30 4932 C 443.008 3.02832 1.95768 0
M  V30 4933 O 442.112 2.78051 3.04568 0
M  V30 4934 H 441.453 0.595896 0.292923 0
M  V30 4935 H 443.983 2.02397 0.299436 0
M  V30 4936 H 443.993 3.31616 2.37686 0
M  V30 4937 H 442.668 3.9183 1.39434 0
M  V30 4938 H 441.245 2.60369 2.66951 0
M  V30 4939 N 443.43 -0.535701 1.48216 0
M  V30 4940 C 444.34 -1.66785 1.64985 0
M  V30 4941 C 445.356 -1.65654 0.532414 0
M  V30 4942 O 446.532 -1.8471 0.80275 0
M  V30 4943 C 443.597 -3.0326 1.68031 0
M  V30 4944 C 442.658 -3.1529 2.9136 0
M  V30 4945 C 441.891 -4.45255 2.94252 0
M  V30 4946 O 442.114 -5.32011 2.05719 0
M  V30 4947 O 441.048 -4.6153 3.86359 0
M  V30 4948 H 444.874 -1.55576 2.60825 0
M  V30 4949 H 442.459 -0.70815 1.31551 0
M  V30 4950 H 444.341 -3.84436 1.72589 0
M  V30 4951 H 443.016 -3.14805 0.753628 0
M  V30 4952 H 441.923 -2.3343 2.92337 0
M  V30 4953 H 443.256 -3.08658 3.83394 0
M  V30 4954 N 444.908 -1.36708 -0.784132 0
M  V30 4955 C 445.855 -1.31466 -1.89698 0
M  V30 4956 C 446.825 -0.18239 -1.65096 0
M  V30 4957 O 448.01 -0.369762 -1.87183 0
M  V30 4958 C 445.15 -1.1151 -3.26588 0
M  V30 4959 C 444.263 -2.33859 -3.63227 0
M  V30 4960 C 443.398 -2.06873 -4.89262 0
M  V30 4961 C 442.437 -3.25154 -5.18595 0
M  V30 4962 N 441.574 -2.978 -6.35814 0
M  V30 4963 H 446.414 -2.26619 -1.93515 0
M  V30 4964 H 443.951 -1.12625 -0.946256 0
M  V30 4965 H 445.909 -0.979653 -4.05535 0
M  V30 4966 H 444.539 -0.200103 -3.22179 0
M  V30 4967 H 443.591 -2.58188 -2.79362 0
M  V30 4968 H 444.903 -3.22109 -3.8085 0
M  V30 4969 H 444.057 -1.90289 -5.76086 0
M  V30 4970 H 442.796 -1.15942 -4.73718 0
M  V30 4971 H 441.801 -3.42292 -4.30251 0
M  V30 4972 H 443.026 -4.1692 -5.36055 0
M  V30 4973 H 440.972 -2.09485 -6.21653 0
M  V30 4974 H 440.889 -3.7959 -6.53794 0
M  V30 4975 H 442.157 -2.84805 -7.25607 0
M  V30 4976 N 446.386 1.0089 -1.21074 0
M  V30 4977 C 447.797 1.56056 -1.02486 0
M  V30 4978 C 448.148 1.91728 0.416506 0
M  V30 4979 O 447.273 1.73066 1.29912 0
M  V30 4980 C 447.868 2.83563 -1.85411 0
M  V30 4981 C 446.427 3.3523 -1.71166 0
M  V30 4982 C 445.574 2.0846 -1.82865 0
M  V30 4983 H 448.525 0.831818 -1.35154 0
M  V30 4984 H 448.546 3.55286 -1.36205 0
M  V30 4985 H 448.058 2.57569 -2.9031 0
M  V30 4986 H 446.159 3.66167 -0.689361 0
M  V30 4987 H 446.272 4.06913 -2.52901 0
M  V30 4988 H 444.636 2.21275 -1.26132 0
M  V30 4989 H 445.419 1.84883 -2.89263 0
M  V30 4990 N 447.864 1.01787 1.20321 0
M  V30 4991 C 448.796 0.547357 2.22568 0
M  V30 4992 C 449.809 -0.370922 1.58518 0
M  V30 4993 O 450.998 -0.169067 1.77698 0
M  V30 4994 C 448.098 -0.223031 3.38165 0
M  V30 4995 C 447.271 0.697472 4.31803 0
M  V30 4996 C 446.33 -0.025562 5.26194 0
M  V30 4997 O 445.356 0.597367 5.66057 0
M  V30 4998 N 446.558 -1.29999 5.65757 0
M  V30 4999 H 449.323 1.42668 2.63564 0
M  V30 5000 H 446.884 0.895552 1.34876 0
M  V30 5001 H 448.876 -0.716002 3.98316 0
M  V30 5002 H 447.446 -1.00366 2.9605 0
M  V30 5003 H 446.666 1.37073 3.69601 0
M  V30 5004 H 447.954 1.32347 4.91286 0
M  V30 5005 H 447.352 -1.827 5.35385 0
M  V30 5006 H 445.909 -1.73766 6.28211 0
M  V30 5007 N 449.342 -1.36122 0.79427 0
M  V30 5008 C 450.289 -2.29982 0.194101 0
M  V30 5009 C 451.259 -1.52214 -0.664833 0
M  V30 5010 O 452.444 -1.80702 -0.612498 0
M  V30 5011 C 449.584 -3.38706 -0.661244 0
M  V30 5012 C 448.697 -4.31456 0.216766 0
M  V30 5013 C 447.832 -5.27265 -0.645411 0
M  V30 5014 C 446.871 -6.11653 0.233756 0
M  V30 5015 N 446.008 -6.99636 -0.587682 0
M  V30 5016 H 450.848 -2.80722 0.999965 0
M  V30 5017 H 448.385 -1.38172 0.504677 0
M  V30 5018 H 450.343 -4.00394 -1.17219 0
M  V30 5019 H 448.973 -2.89274 -1.43249 0
M  V30 5020 H 448.025 -3.7088 0.845724 0
M  V30 5021 H 449.337 -4.90724 0.893973 0
M  V30 5022 H 448.491 -5.94266 -1.22198 0
M  V30 5023 H 447.23 -4.68463 -1.35623 0
M  V30 5024 H 446.235 -5.4361 0.82269 0
M  V30 5025 H 447.46 -6.72531 0.942247 0
M  V30 5026 H 445.406 -6.43337 -1.2827 0
M  V30 5027 H 445.323 -7.55993 0.0317402 0
M  V30 5028 H 446.591 -7.71001 -1.14792 0
M  V30 5029 N 450.82 -0.546701 -1.47814 0
M  V30 5030 C 452.068 -0.0187037 -2.02091 0
M  V30 5031 C 452.389 1.33168 -1.42447 0
M  V30 5032 O 451.659 1.86619 -0.595839 0
M  V30 5033 H 450.239 -0.00392531 -0.74699 0
M  V30 5034 H 452.901 -0.714327 -1.81338 0
M  V30 5035 H 451.997 0.0772219 -3.12004 0
M  V30 5036 N 452.299 1.55045 -0.282633 0
M  V30 5037 C 453.548 1.98938 0.332667 0
M  V30 5038 C 453.861 1.17455 1.56409 0
M  V30 5039 O 455.067 1.51527 2.25282 0
M  V30 5040 C 453.523 3.54105 0.643226 0
M  V30 5041 C 453.131 4.44374 -0.568814 0
M  V30 5042 C 454.875 4.06569 1.22074 0
M  V30 5043 C 452.782 5.90943 -0.232426 0
M  V30 5044 H 451.712 0.743043 0.128075 0
M  V30 5045 H 454.363 1.79341 -0.388464 0
M  V30 5046 H 452.745 3.69532 1.42346 0
M  V30 5047 H 453.919 4.40718 -1.34551 0
M  V30 5048 H 452.234 4.02585 -1.06369 0
M  V30 5049 H 454.831 5.13626 1.48635 0
M  V30 5050 H 455.174 3.56057 2.15707 0
M  V30 5051 H 455.707 3.94612 0.502621 0
M  V30 5052 H 452.446 6.45567 -1.13683 0
M  V30 5053 H 451.966 5.9765 0.507357 0
M  V30 5054 H 453.645 6.4677 0.172657 0
M  V30 5055 N 453.777 0.010035 1.57597 0
M  V30 5056 C 454.707 -0.976857 2.12084 0
M  V30 5057 C 455.688 -1.35191 1.03235 0
M  V30 5058 O 456.873 -1.43389 1.3097 0
M  V30 5059 C 454.003 -2.26548 2.63236 0
M  V30 5060 C 452.957 -2.03175 3.76701 0
M  V30 5061 C 452.283 -3.38138 4.14206 0
M  V30 5062 C 453.583 -1.38625 5.03568 0
M  V30 5063 H 455.277 -0.523145 2.94794 0
M  V30 5064 H 452.823 -0.250195 1.4181 0
M  V30 5065 H 454.776 -2.95952 2.99984 0
M  V30 5066 H 453.5 -2.74051 1.77661 0
M  V30 5067 H 452.159 -1.36195 3.40362 0
M  V30 5068 H 451.807 -3.83363 3.25641 0
M  V30 5069 H 451.507 -3.23312 4.90656 0
M  V30 5070 H 453.031 -4.08841 4.53521 0
M  V30 5071 H 454.445 -1.98 5.38023 0
M  V30 5072 H 452.842 -1.34256 5.84889 0
M  V30 5073 H 453.912 -0.356722 4.83586 0
M  V30 5074 N 455.255 -1.55392 -0.262866 0
M  V30 5075 C 456.165 -1.92077 -1.34698 0
M  V30 5076 C 457.181 -0.819227 -1.53508 0
M  V30 5077 O 458.357 -1.11921 -1.67439 0
M  V30 5078 C 455.422 -2.19407 -2.68443 0
M  V30 5079 C 454.483 -3.42905 -2.58292 0
M  V30 5080 C 453.716 -3.68921 -3.85659 0
M  V30 5081 O 453.939 -2.97275 -4.8681 0
M  V30 5082 O 452.873 -4.62455 -3.85252 0
M  V30 5083 H 456.699 -2.84384 -1.06581 0
M  V30 5084 H 454.284 -1.42069 -0.462264 0
M  V30 5085 H 456.166 -2.38365 -3.47506 0
M  V30 5086 H 454.841 -1.30282 -2.96325 0
M  V30 5087 H 453.748 -3.29272 -1.7757 0
M  V30 5088 H 455.081 -4.32282 -2.35358 0
M  V30 5089 N 456.733 0.527833 -1.48498 0
M  V30 5090 C 457.68 1.6322 -1.6318 0
M  V30 5091 C 458.65 1.59199 -0.473815 0
M  V30 5092 O 459.835 1.77591 -0.697563 0
M  V30 5093 C 456.975 3.01474 -1.67951 0
M  V30 5094 C 456.088 3.15713 -2.94871 0
M  V30 5095 C 455.223 4.44539 -2.90789 0
M  V30 5096 C 454.262 4.52315 -4.12404 0
M  V30 5097 N 453.399 5.72533 -4.06387 0
M  V30 5098 H 458.239 1.50011 -2.57489 0
M  V30 5099 H 455.776 0.730298 -1.27691 0
M  V30 5100 H 457.734 3.81572 -1.68698 0
M  V30 5101 H 456.364 3.1345 -0.771306 0
M  V30 5102 H 455.416 2.28854 -3.03859 0
M  V30 5103 H 456.728 3.1732 -3.8485 0
M  V30 5104 H 455.882 5.3293 -2.89949 0
M  V30 5105 H 454.621 4.45457 -1.98542 0
M  V30 5106 H 453.626 3.62331 -4.13517 0
M  V30 5107 H 454.851 4.53134 -5.05812 0
M  V30 5108 H 452.797 5.74344 -3.16962 0
M  V30 5109 H 452.714 5.75643 -4.90073 0
M  V30 5110 H 453.982 6.63204 -4.0961 0
M  V30 5111 N 458.211 1.37122 0.776871 0
M  V30 5112 C 459.174 1.32301 1.8716 0
M  V30 5113 C 460.174 0.228099 1.59174 0
M  V30 5114 O 461.364 0.483642 1.67352 0
M  V30 5115 C 458.496 1.054 3.24197 0
M  V30 5116 H 459.689 2.29673 1.92848 0
M  V30 5117 H 457.242 1.22077 0.97606 0
M  V30 5118 H 457.977 0.0853872 3.24188 0
M  V30 5119 H 457.762 1.84648 3.45901 0
M  V30 5120 H 459.252 1.04664 4.04271 0
M  V30 5121 N 459.689 -1.00246 1.21608 0
M  V30 5122 C 460.937 -1.73717 1.0328 0
M  V30 5123 C 461.258 -1.90102 -0.434318 0
M  V30 5124 O 460.528 -1.45376 -1.31311 0
M  V30 5125 H 459.108 -0.643613 0.379172 0
M  V30 5126 H 461.77 -1.20787 1.52959 0
M  V30 5127 H 460.866 -2.73535 1.50283 0
M  V30 5128 N 461.167 -1.02423 -1.1978 0
M  V30 5129 C 462.578 -0.748389 -1.71044 0
M  V30 5130 C 462.929 0.732398 -1.82017 0
M  V30 5131 O 462.054 1.57116 -1.48807 0
M  V30 5132 C 462.649 -1.35187 -3.1066 0
M  V30 5133 C 461.208 -1.12472 -3.59203 0
M  V30 5134 C 460.355 -1.45283 -2.36195 0
M  V30 5135 H 463.306 -1.19275 -1.04686 0
M  V30 5136 H 463.327 -0.746408 -3.73107 0
M  V30 5137 H 462.839 -2.4296 -3.02642 0
M  V30 5138 H 460.94 -0.0649983 -3.72543 0
M  V30 5139 H 461.053 -1.81016 -4.43588 0
M  V30 5140 H 459.417 -0.872034 -2.39307 0
M  V30 5141 H 460.2 -2.54129 -2.30811 0
M  V30 5142 N 462.645 1.35699 -0.801477 0
M  V30 5143 C 464.056 1.81415 -0.441073 0
M  V30 5144 C 464.407 1.66595 1.03636 0
M  V30 5145 O 463.532 1.19369 1.80499 0
M  V30 5146 C 464.127 3.29369 -0.793819 0
M  V30 5147 C 462.686 3.73248 -0.486083 0
M  V30 5148 C 461.833 2.57775 -1.02213 0
M  V30 5149 H 464.784 1.23749 -0.993572 0
M  V30 5150 H 464.805 3.80395 -0.0894158 0
M  V30 5151 H 464.317 3.40123 -1.86917 0
M  V30 5152 H 462.418 3.68046 0.580735 0
M  V30 5153 H 462.531 4.68222 -1.01513 0
M  V30 5154 H 460.895 2.50788 -0.444712 0
M  V30 5155 H 461.678 2.71309 -2.10348 0
M  V30 5156 N 464.123 0.554532 1.47522 0
M  V30 5157 C 465.534 0.120446 1.86311 0
M  V30 5158 C 465.885 -1.30904 1.46145 0
M  V30 5159 O 465.01 -1.98434 0.863294 0
M  V30 5160 C 465.605 0.211808 3.38137 0
M  V30 5161 C 464.164 -0.167224 3.76028 0
M  V30 5162 C 463.311 0.560576 2.71575 0
M  V30 5163 H 466.262 0.764408 1.39077 0
M  V30 5164 H 466.283 -0.570275 3.76202 0
M  V30 5165 H 465.795 1.25232 3.6734 0
M  V30 5166 H 463.896 -1.20894 3.52442 0
M  V30 5167 H 464.009 0.189473 4.78725 0
M  V30 5168 H 462.373 0.00396836 2.547 0
M  V30 5169 H 463.156 1.60219 3.0362 0
M  V30 5170 N 465.601 -1.54893 0.290851 0
M  V30 5171 C 466.831 -2.04047 -0.323818 0
M  V30 5172 C 467.239 -1.16809 -1.48837 0
M  V30 5173 O 466.582 -0.184145 -1.82775 0
M  V30 5174 C 466.644 -3.49248 -0.852395 0
M  V30 5175 C 466.308 -4.56623 0.185557 0
M  V30 5176 C 467.305 -5.09985 1.01053 0
M  V30 5177 C 464.99 -5.01252 0.324332 0
M  V30 5178 C 466.984 -6.06507 1.96031 0
M  V30 5179 C 464.671 -5.97596 1.27757 0
M  V30 5180 C 465.669 -6.50107 2.09405 0
M  V30 5181 O 465.357 -7.44565 3.03114 0
M  V30 5182 H 465.089 -0.671735 -0.0758129 0
M  V30 5183 H 467.643 -2.00947 0.425393 0
M  V30 5184 H 465.873 -3.49639 -1.65195 0
M  V30 5185 H 467.562 -3.81654 -1.38185 0
M  V30 5186 H 468.328 -4.76307 0.914129 0
M  V30 5187 H 464.207 -4.60015 -0.301213 0
M  V30 5188 H 467.751 -6.47418 2.598 0
M  V30 5189 H 463.648 -6.30691 1.37473 0
M  V30 5190 H 464.416 -7.62334 2.97976 0
M  V30 5191 N 467.08 -0.0183926 -1.57589 0
M  V30 5192 C 468.329 0.66185 -1.90532 0
M  V30 5193 C 468.642 1.73904 -0.895366 0
M  V30 5194 O 469.848 2.47518 -1.11566 0
M  V30 5195 C 468.304 1.22844 -3.38286 0
M  V30 5196 C 467.912 0.185103 -4.47617 0
M  V30 5197 C 469.656 1.88581 -3.80312 0
M  V30 5198 C 467.563 0.762723 -5.86461 0
M  V30 5199 H 466.493 0.250972 -0.711006 0
M  V30 5200 H 469.144 -0.0819435 -1.83317 0
M  V30 5201 H 467.526 2.0235 -3.40398 0
M  V30 5202 H 468.7 -0.58671 -4.5705 0
M  V30 5203 H 467.015 -0.372889 -4.14727 0
M  V30 5204 H 469.612 2.32735 -4.81392 0
M  V30 5205 H 469.955 2.72408 -3.14801 0
M  V30 5206 H 470.488 1.15782 -3.80578 0
M  V30 5207 H 467.227 -0.0371713 -6.55489 0
M  V30 5208 H 466.747 1.50327 -5.80656 0
M  V30 5209 H 468.426 1.25576 -6.34697 0
M  V30 5210 N 468.558 1.5553 0.254621 0
M  V30 5211 C 469.505 1.89666 1.31512 0
M  V30 5212 C 470.475 0.750057 1.482 0
M  V30 5213 O 471.66 1.00301 1.62309 0
M  V30 5214 C 468.8 2.19009 2.667 0
M  V30 5215 C 467.913 3.46435 2.58083 0
M  V30 5216 C 467.048 3.65386 3.85573 0
M  V30 5217 C 466.087 4.8644 3.71541 0
M  V30 5218 N 465.224 5.01952 4.90906 0
M  V30 5219 H 470.064 2.80109 1.017 0
M  V30 5220 H 467.601 1.38666 0.490938 0
M  V30 5221 H 469.559 2.34025 3.45381 0
M  V30 5222 H 468.189 1.31779 2.94676 0
M  V30 5223 H 467.241 3.39792 1.71013 0
M  V30 5224 H 468.553 4.35258 2.43622 0
M  V30 5225 H 467.707 3.80319 4.72697 0
M  V30 5226 H 466.446 2.74781 4.02922 0
M  V30 5227 H 465.451 4.71491 2.82801 0
M  V30 5228 H 466.676 5.78497 3.55694 0
M  V30 5229 H 464.622 4.14283 5.08631 0
M  V30 5230 H 464.539 5.84851 4.79046 0
M  V30 5231 H 465.807 5.21289 5.7955 0
M  V30 5232 N 470.036 -0.519951 1.48776 0
M  V30 5233 C 471.447 -1.10177 1.50725 0
M  V30 5234 C 471.798 -1.94153 0.282678 0
M  V30 5235 O 470.923 -2.07645 -0.609298 0
M  V30 5236 C 471.518 -2.00482 2.73116 0
M  V30 5237 C 470.077 -2.53862 2.77905 0
M  V30 5238 C 469.224 -1.31047 2.44381 0
M  V30 5239 H 472.175 -0.30473 1.55747 0
M  V30 5240 H 472.196 -2.8491 2.52203 0
M  V30 5241 H 471.708 -1.39335 3.62225 0
M  V30 5242 H 469.809 -3.18702 1.93029 0
M  V30 5243 H 469.922 -2.9231 3.79594 0
M  V30 5244 H 468.286 -1.62953 1.95751 0
M  V30 5245 H 469.069 -0.71637 3.35743 0
M  V30 5246 N 471.514 -1.37532 -0.769588 0
M  V30 5247 C 472.76 -1.33057 -1.53048 0
M  V30 5248 C 473.093 0.0841865 -1.94017 0
M  V30 5249 O 472.368 1.04198 -1.64235 0
M  V30 5250 C 472.651 -2.27166 -2.79406 0
M  V30 5251 C 472.504 -3.77429 -2.44677 0
M  V30 5252 C 473.823 -2.19683 -3.81349 0
M  V30 5253 H 470.942 -0.484655 -0.555228 0
M  V30 5254 H 473.584 -1.68251 -0.882702 0
M  V30 5255 H 471.734 -1.97283 -3.34682 0
M  V30 5256 H 473.406 -4.17918 -1.953 0
M  V30 5257 H 471.649 -3.95892 -1.77346 0
M  V30 5258 H 472.32 -4.38716 -3.35011 0
M  V30 5259 H 474.796 -2.46029 -3.35573 0
M  V30 5260 H 473.672 -2.87668 -4.67481 0
M  V30 5261 H 473.933 -1.19045 -4.25771 0
M  V30 5262 N 472.992 0.995999 -1.22138 0
M  V30 5263 C 474.403 1.54961 -1.04135 0
M  V30 5264 C 474.754 1.92159 0.396147 0
M  V30 5265 O 473.879 1.74435 1.28069 0
M  V30 5266 C 474.474 2.81581 -1.88408 0
M  V30 5267 C 473.033 3.33396 -1.74712 0
M  V30 5268 C 472.18 2.06509 -1.85066 0
M  V30 5269 H 475.131 0.817436 -1.36028 0
M  V30 5270 H 475.152 3.53822 -1.39966 0
M  V30 5271 H 474.664 2.54476 -2.93025 0
M  V30 5272 H 472.765 3.65416 -0.728159 0
M  V30 5273 H 472.878 4.04208 -2.57202 0
M  V30 5274 H 471.242 2.19925 -1.28472 0
M  V30 5275 H 472.025 1.81804 -2.91208 0
M  V30 5276 N 474.47 1.03057 1.19235 0
M  V30 5277 C 475.881 0.757449 1.70645 0
M  V30 5278 C 476.232 -0.722735 1.82403 0
M  V30 5279 O 475.357 -1.56325 1.49638 0
M  V30 5280 C 475.952 1.36833 3.09939 0
M  V30 5281 C 474.511 1.14375 3.58602 0
M  V30 5282 C 473.658 1.46533 2.35422 0
M  V30 5283 H 476.609 1.19828 1.04052 0
M  V30 5284 H 476.63 0.766184 3.72706 0
M  V30 5285 H 476.142 2.44562 3.01349 0
M  V30 5286 H 474.243 0.0847542 3.72504 0
M  V30 5287 H 474.356 1.83366 4.42622 0
M  V30 5288 H 472.72 0.884712 2.38841 0
M  V30 5289 H 473.503 2.55349 2.2946 0
M  V30 5290 N 475.948 -1.35272 0.808662 0
M  V30 5291 C 476.911 -2.28082 0.226093 0
M  V30 5292 C 477.911 -1.49673 -0.587762 0
M  V30 5293 O 479.101 -1.69404 -0.405943 0
M  V30 5294 C 476.233 -3.33955 -0.684596 0
M  V30 5295 H 477.426 -2.81116 1.04469 0
M  V30 5296 H 474.979 -1.45162 0.579466 0
M  V30 5297 H 475.714 -2.86111 -1.5268 0
M  V30 5298 H 475.499 -3.91965 -0.102699 0
M  V30 5299 H 476.989 -4.03219 -1.08646 0
M  V30 5300 N 477.426 -0.562348 -1.47226 0
M  V30 5301 C 478.358 0.220011 -2.28142 0
M  V30 5302 C 479.371 0.874596 -1.37312 0
M  V30 5303 O 480.56 0.747583 -1.62091 0
M  V30 5304 C 477.66 1.32953 -3.11732 0
M  V30 5305 C 476.833 0.770759 -4.30556 0
M  V30 5306 C 475.892 1.76541 -4.95701 0
M  V30 5307 O 474.918 1.3095 -5.53932 0
M  V30 5308 N 476.12 3.09896 -4.90861 0
M  V30 5309 H 478.885 -0.474107 -2.95926 0
M  V30 5310 H 476.446 -0.398761 -1.56912 0
M  V30 5311 H 478.438 1.99378 -3.5218 0
M  V30 5312 H 477.008 1.92681 -2.46156 0
M  V30 5313 H 476.228 -0.0704056 -3.94137 0
M  V30 5314 H 477.516 0.376872 -5.07402 0
M  V30 5315 H 476.914 3.49577 -4.44761 0
M  V30 5316 H 475.471 3.71865 -5.35313 0
M  V30 5317 N 478.904 1.54736 -0.299062 0
M  V30 5318 C 480.315 1.8569 0.193971 0
M  V30 5319 C 480.666 1.22101 1.53577 0
M  V30 5320 O 479.791 0.51799 2.10109 0
M  V30 5321 C 480.386 3.36895 0.358733 0
M  V30 5322 C 478.945 3.67887 0.795986 0
M  V30 5323 C 478.092 2.77131 -0.096807 0
M  V30 5324 H 481.043 1.49934 -0.520134 0
M  V30 5325 H 481.064 3.61294 1.19361 0
M  V30 5326 H 480.576 3.83148 -0.617998 0
M  V30 5327 H 478.677 3.27151 1.78334 0
M  V30 5328 H 478.79 4.75114 0.616718 0
M  V30 5329 H 477.154 2.51153 0.423581 0
M  V30 5330 H 477.937 3.26204 -1.06986 0
M  V30 5331 N 480.382 0.0267497 1.57577 0
M  V30 5332 C 481.793 -0.512413 1.79531 0
M  V30 5333 C 482.144 -1.72391 0.936791 0
M  V30 5334 O 481.269 -2.15903 0.146543 0
M  V30 5335 C 481.864 -0.936378 3.25603 0
M  V30 5336 C 480.423 -1.42067 3.4856 0
M  V30 5337 C 479.57 -0.384278 2.74624 0
M  V30 5338 H 482.521 0.252797 1.56674 0
M  V30 5339 H 482.542 -1.80088 3.35184 0
M  V30 5340 H 482.054 -0.0544332 3.88062 0
M  V30 5341 H 480.155 -2.32262 2.9135 0
M  V30 5342 H 480.268 -1.42968 4.57271 0
M  V30 5343 H 478.632 -0.851855 2.40032 0
M  V30 5344 H 479.415 0.489159 3.39797 0
M  V30 5345 N 481.861 -1.55662 -0.24637 0
M  V30 5346 C 482.824 -1.89558 -1.28842 0
M  V30 5347 C 483.824 -0.772082 -1.41052 0
M  V30 5348 O 485.014 -1.04007 -1.39743 0
M  V30 5349 C 482.146 -2.12449 -2.66605 0
M  V30 5350 H 483.339 -2.82735 -1.00004 0
M  V30 5351 H 480.892 -1.48562 -0.485684 0
M  V30 5352 H 481.627 -1.21742 -3.00582 0
M  V30 5353 H 481.412 -2.94273 -2.59125 0
M  V30 5354 H 482.902 -2.39854 -3.41847 0
M  V30 5355 N 483.339 0.512053 -1.4905 0
M  V30 5356 C 484.286 1.6148 -1.64902 0
M  V30 5357 C 485.256 1.58687 -0.490673 0
M  V30 5358 O 486.441 1.76842 -0.71636 0
M  V30 5359 C 483.581 2.99676 -1.71139 0
M  V30 5360 C 482.694 3.12568 -2.98203 0
M  V30 5361 C 481.829 4.4143 -2.95487 0
M  V30 5362 C 480.868 4.47916 -4.17179 0
M  V30 5363 N 480.005 5.68191 -4.12437 0
M  V30 5364 H 484.845 1.47271 -2.59066 0
M  V30 5365 H 482.382 0.716713 -1.28459 0
M  V30 5366 H 484.34 3.79761 -1.72736 0
M  V30 5367 H 482.97 3.12614 -0.804508 0
M  V30 5368 H 482.022 2.25618 -3.06269 0
M  V30 5369 H 483.334 3.1322 -3.88194 0
M  V30 5370 H 482.488 5.29825 -2.95585 0
M  V30 5371 H 481.227 4.43326 -2.03256 0
M  V30 5372 H 480.232 3.57925 -4.17337 0
M  V30 5373 H 481.457 4.47744 -5.1059 0
M  V30 5374 H 479.403 5.7095 -3.23036 0
M  V30 5375 H 479.32 5.70413 -4.96151 0
M  V30 5376 H 480.588 6.58823 -4.16621 0
M  V30 5377 N 484.817 1.37938 0.762283 0
M  V30 5378 C 486.228 1.30094 1.33912 0
M  V30 5379 C 486.579 -0.0472026 1.96143 0
M  V30 5380 O 485.704 -0.94917 1.94473 0
M  V30 5381 C 486.299 2.35592 2.43478 0
M  V30 5382 C 484.858 2.31353 2.96905 0
M  V30 5383 C 484.005 2.18919 1.70205 0
M  V30 5384 H 486.956 1.48423 0.561816 0
M  V30 5385 H 486.977 2.00806 3.23199 0
M  V30 5386 H 486.489 3.33701 1.98155 0
M  V30 5387 H 484.59 1.36799 3.46579 0
M  V30 5388 H 484.703 3.25147 3.51875 0
M  V30 5389 H 483.067 1.65624 1.93496 0
M  V30 5390 H 483.85 3.18956 1.26973 0
M  V30 5391 N 486.295 -0.989507 1.22664 0
M  V30 5392 C 487.245 -2.06478 0.967005 0
M  V30 5393 C 488.229 -1.60682 -0.0836374 0
M  V30 5394 O 489.421 -1.76541 0.127322 0
M  V30 5395 C 486.55 -3.38861 0.550313 0
M  V30 5396 C 485.636 -3.9128 1.63587 0
M  V30 5397 N 486.027 -4.16884 2.86429 0
M  V30 5398 C 484.325 -4.1972 1.50834 0
M  V30 5399 C 485.026 -4.5954 3.56648 0
M  V30 5400 N 484.002 -4.63434 2.84131 0
M  V30 5401 H 487.804 -2.24219 1.90008 0
M  V30 5402 H 485.318 -1.17153 1.12467 0
M  V30 5403 H 487.315 -4.15465 0.345612 0
M  V30 5404 H 485.975 -3.22518 -0.375822 0
M  V30 5405 H 486.986 -4.04976 3.22823 0
M  V30 5406 H 483.663 -4.1243 0.648643 0
M  V30 5407 H 485.053 -4.87944 4.61909 0
M  V30 5408 N 487.773 -1.03688 -1.18687 0
M  V30 5409 C 489.001 -0.757918 -1.92518 0
M  V30 5410 C 489.416 0.684398 -1.75959 0
M  V30 5411 O 488.773 1.46617 -1.08673 0
M  V30 5412 C 488.824 -1.10985 -3.44042 0
M  V30 5413 O 488.545 -2.49554 -3.60076 0
M  V30 5414 C 490.046 -0.854844 -4.3498 0
M  V30 5415 H 487.266 -0.276699 -0.611293 0
M  V30 5416 H 489.81 -1.38352 -1.50595 0
M  V30 5417 H 487.965 -0.529279 -3.83767 0
M  V30 5418 H 488.379 -2.6291 -4.53849 0
M  V30 5419 H 489.853 -1.15098 -5.39867 0
M  V30 5420 H 490.33 0.210507 -4.38695 0
M  V30 5421 H 490.936 -1.41853 -4.00946 0
M  V30 5422 N 489.251 1.34841 -0.815825 0
M  V30 5423 C 490.667 1.51543 -0.500697 0
M  V30 5424 C 490.867 1.76261 0.976444 0
M  V30 5425 O 489.923 1.8094 1.76117 0
M  V30 5426 C 491.236 2.68487 -1.35407 0
M  V30 5427 C 492.784 2.82368 -1.35046 0
M  V30 5428 C 493.259 4.02347 -2.18816 0
M  V30 5429 N 494.75 4.09542 -2.16402 0
M  V30 5430 C 495.485 5.01517 -2.77971 0
M  V30 5431 N 494.981 5.98763 -3.48503 0
M  V30 5432 N 496.774 4.94334 -2.67563 0
M  V30 5433 H 488.925 1.17055 -1.77234 0
M  V30 5434 H 491.188 0.573481 -0.754866 0
M  V30 5435 H 490.894 2.56829 -2.40274 0
M  V30 5436 H 490.768 3.63321 -1.01377 0
M  V30 5437 H 493.155 2.93471 -0.309604 0
M  V30 5438 H 493.236 1.88363 -1.73069 0
M  V30 5439 H 492.88 3.92004 -3.22948 0
M  V30 5440 H 492.81 4.95551 -1.78148 0
M  V30 5441 H 495.301 3.39932 -1.65091 0
M  V30 5442 H 495.614 6.6556 -3.92747 0
M  V30 5443 H 493.959 5.98909 -3.52609 0
M  V30 5444 H 497.15 4.1732 -2.12041 0
M  V30 5445 H 497.323 5.6582 -3.15834 0
M  V30 5446 N 490.729 0.570148 1.46925 0
M  V30 5447 C 491.978 0.0487352 2.01641 0
M  V30 5448 C 492.291 -1.31433 1.44861 0
M  V30 5449 O 493.497 -1.92638 1.91318 0
M  V30 5450 C 491.953 0.0365817 3.59881 0
M  V30 5451 C 491.561 1.39719 4.25655 0
M  V30 5452 C 493.305 -0.431545 4.22301 0
M  V30 5453 C 491.212 1.34345 5.75939 0
M  V30 5454 H 490.142 0.0144492 0.753862 0
M  V30 5455 H 492.793 0.719928 1.68788 0
M  V30 5456 H 491.175 -0.700522 3.89755 0
M  V30 5457 H 492.349 2.15303 4.07408 0
M  V30 5458 H 490.664 1.80431 3.75278 0
M  V30 5459 H 493.261 -0.490354 5.32447 0
M  V30 5460 H 493.604 -1.44638 3.90366 0
M  V30 5461 H 494.137 0.251102 3.97007 0
M  V30 5462 H 490.876 2.33469 6.12513 0
M  V30 5463 H 490.396 0.629615 5.96486 0
M  V30 5464 H 492.075 1.051 6.38407 0
M  V30 5465 N 492.207 -1.54576 0.307264 0
M  V30 5466 C 493.432 -2.05139 -0.305379 0
M  V30 5467 C 493.857 -1.18278 -1.46259 0
M  V30 5468 O 493.215 -0.188243 -1.8032 0
M  V30 5469 C 493.263 -3.53066 -0.733283 0
M  V30 5470 O 492.367 -3.69206 -1.83741 0
M  V30 5471 H 491.708 -0.661444 -0.0582105 0
M  V30 5472 H 494.238 -1.99569 0.450931 0
M  V30 5473 H 494.248 -3.95034 -1.02039 0
M  V30 5474 H 492.923 -4.15746 0.113198 0
M  V30 5475 H 491.5 -3.39143 -1.55037 0
M  V30 5476 N 493.685 -0.035106 -1.57561 0
M  V30 5477 C 494.91 0.655802 -1.96759 0
M  V30 5478 C 495.335 1.64523 -0.911809 0
M  V30 5479 O 494.693 1.80857 0.126673 0
M  V30 5480 C 494.741 1.33326 -3.35047 0
M  V30 5481 O 493.845 2.44866 -3.31835 0
M  V30 5482 H 493.186 0.171807 -0.641388 0
M  V30 5483 H 495.716 -0.0987369 -2.04362 0
M  V30 5484 H 495.726 1.68867 -3.71413 0
M  V30 5485 H 494.401 0.608033 -4.11431 0
M  V30 5486 H 492.978 2.11392 -3.07193 0
M  V30 5487 N 495.163 1.55791 0.238111 0
M  V30 5488 C 496.579 1.48411 0.587045 0
M  V30 5489 C 496.779 0.72702 1.87927 0
M  V30 5490 O 495.835 0.259942 2.51158 0
M  V30 5491 C 497.148 2.92873 0.681623 0
M  V30 5492 C 498.696 3.03295 0.773363 0
M  V30 5493 C 499.171 4.49082 0.899428 0
M  V30 5494 N 500.662 4.53056 0.964075 0
M  V30 5495 C 501.397 5.63117 1.08104 0
M  V30 5496 N 500.893 6.82969 1.16299 0
M  V30 5497 N 502.686 5.50933 1.11488 0
M  V30 5498 H 494.837 2.0345 -0.610076 0
M  V30 5499 H 497.1 0.924034 -0.211813 0
M  V30 5500 H 496.806 3.51142 -0.19802 0
M  V30 5501 H 496.68 3.43851 1.55069 0
M  V30 5502 H 499.067 2.45101 1.64346 0
M  V30 5503 H 499.148 2.55513 -0.121034 0
M  V30 5504 H 498.792 5.07889 0.0338586 0
M  V30 5505 H 498.722 4.94553 1.809 0
M  V30 5506 H 501.213 3.66737 0.91173 0
M  V30 5507 H 501.526 7.62598 1.25155 0
M  V30 5508 H 499.871 6.85712 1.13241 0
M  V30 5509 H 503.062 4.56231 1.0474 0
M  V30 5510 H 503.235 6.36743 1.20259 0
M  V30 5511 N 496.642 -0.504142 1.49319 0
M  V30 5512 C 497.574 -1.62265 1.61872 0
M  V30 5513 C 498.587 -1.54881 0.501573 0
M  V30 5514 O 499.776 -1.6087 0.773497 0
M  V30 5515 C 496.876 -3.01042 1.55651 0
M  V30 5516 C 496.049 -3.33642 2.82845 0
M  V30 5517 C 495.108 -4.51816 2.69719 0
M  V30 5518 O 494.134 -4.53755 3.4365 0
M  V30 5519 N 495.336 -5.51543 1.81055 0
M  V30 5520 H 498.101 -1.51924 2.58339 0
M  V30 5521 H 495.662 -0.691954 1.46368 0
M  V30 5522 H 497.654 -3.78013 1.44528 0
M  V30 5523 H 496.224 -3.05323 0.670546 0
M  V30 5524 H 495.444 -2.45598 3.08343 0
M  V30 5525 H 496.732 -3.5222 3.67177 0
M  V30 5526 H 496.13 -5.52774 1.20241 0
M  V30 5527 H 494.687 -6.27629 1.75856 0
M  V30 5528 N 498.12 -1.38341 -0.754957 0
M  V30 5529 C 499.07 -1.31964 -1.85929 0
M  V30 5530 C 500.054 -0.204181 -1.59599 0
M  V30 5531 O 501.246 -0.440036 -1.71443 0
M  V30 5532 C 498.375 -1.14565 -3.2362 0
M  V30 5533 C 497.461 -2.30727 -3.55846 0
M  V30 5534 N 497.852 -3.56165 -3.59138 0
M  V30 5535 C 496.15 -2.23249 -3.86104 0
M  V30 5536 C 496.851 -4.32865 -3.88591 0
M  V30 5537 N 495.827 -3.62203 -4.05351 0
M  V30 5538 H 499.629 -2.2694 -1.8675 0
M  V30 5539 H 497.143 -1.31553 -0.952243 0
M  V30 5540 H 499.14 -1.0808 -4.02647 0
M  V30 5541 H 497.8 -0.205212 -3.24051 0
M  V30 5542 H 498.811 -3.89854 -3.40932 0
M  V30 5543 H 495.488 -1.37357 -3.94258 0
M  V30 5544 H 496.878 -5.41504 -3.97773 0
M  V30 5545 N 499.598 0.982988 -1.23187 0
M  V30 5546 C 500.53 2.07729 -0.968572 0
M  V30 5547 C 501.543 1.62702 0.0564821 0
M  V30 5548 O 502.732 1.77603 -0.178733 0
M  V30 5549 C 499.832 3.36071 -0.436974 0
M  V30 5550 C 499.005 4.10081 -1.52159 0
M  V30 5551 C 498.064 5.16701 -0.99532 0
M  V30 5552 O 497.09 5.43727 -1.68373 0
M  V30 5553 N 498.292 5.80226 0.178192 0
M  V30 5554 H 501.057 2.30894 -1.9107 0
M  V30 5555 H 498.618 1.14949 -1.1401 0
M  V30 5556 H 500.61 4.04639 -0.0700051 0
M  V30 5557 H 499.18 3.09893 0.410509 0
M  V30 5558 H 498.4 3.36004 -2.06144 0
M  V30 5559 H 499.688 4.56295 -2.25105 0
M  V30 5560 H 499.086 5.60651 0.754096 0
M  V30 5561 H 497.643 6.49982 0.486449 0
M  V30 5562 N 501.076 1.04316 1.18135 0
M  V30 5563 C 502.039 0.640794 2.2006 0
M  V30 5564 C 503.039 -0.303124 1.57917 0
M  V30 5565 O 504.229 -0.0881855 1.73977 0
M  V30 5566 C 501.361 -0.060148 3.40847 0
M  V30 5567 H 502.554 1.54281 2.57172 0
M  V30 5568 H 500.107 0.836004 1.32063 0
M  V30 5569 H 500.842 -0.975845 3.0927 0
M  V30 5570 H 500.627 0.618319 3.87194 0
M  V30 5571 H 502.117 -0.328082 4.16309 0
M  V30 5572 N 502.554 -1.34406 0.822964 0
M  V30 5573 C 503.779 -2.0304 0.423034 0
M  V30 5574 C 504.204 -1.61568 -0.963196 0
M  V30 5575 O 503.562 -0.800339 -1.62678 0
M  V30 5576 C 503.61 -3.56636 0.53321 0
M  V30 5577 O 502.714 -4.09971 -0.446939 0
M  V30 5578 H 502.055 -0.64075 0.174171 0
M  V30 5579 H 504.585 -1.71653 1.11339 0
M  V30 5580 H 504.595 -4.05945 0.408991 0
M  V30 5581 H 503.27 -3.86168 1.54425 0
M  V30 5582 H 501.847 -3.71835 -0.281601 0
M  V30 5583 N 504.032 -0.577932 -1.46621 0
M  V30 5584 C 504.964 0.195801 -2.28362 0
M  V30 5585 C 505.977 0.859983 -1.38232 0
M  V30 5586 O 507.166 0.730349 -1.62875 0
M  V30 5587 C 504.266 1.29639 -3.13124 0
M  V30 5588 C 503.439 0.725049 -4.31349 0
M  V30 5589 C 502.498 1.71274 -4.97546 0
M  V30 5590 O 501.524 1.25067 -5.5529 0
M  V30 5591 N 502.726 3.04672 -4.94121 0
M  V30 5592 H 505.491 -0.505468 -2.95407 0
M  V30 5593 H 503.052 -0.415381 -1.56481 0
M  V30 5594 H 505.044 1.95631 -3.54275 0
M  V30 5595 H 503.614 1.90059 -2.48186 0
M  V30 5596 H 502.834 -0.112205 -3.9404 0
M  V30 5597 H 504.122 0.323034 -5.07774 0
M  V30 5598 H 503.52 3.4484 -4.48444 0
M  V30 5599 H 502.077 3.66166 -5.39227 0
M  V30 5600 N 505.51 1.54411 -0.315457 0
M  V30 5601 C 506.921 1.85885 0.174265 0
M  V30 5602 C 507.272 1.23723 1.52273 0
M  V30 5603 O 506.397 0.540246 2.09548 0
M  V30 5604 C 506.992 3.37257 0.322981 0
M  V30 5605 C 505.551 3.68711 0.756922 0
M  V30 5606 C 504.698 2.77013 -0.126195 0
M  V30 5607 H 507.649 1.49374 -0.536007 0
M  V30 5608 H 507.67 3.62539 1.15522 0
M  V30 5609 H 507.182 3.82471 -0.658602 0
M  V30 5610 H 505.283 3.29024 1.74854 0
M  V30 5611 H 505.396 4.75741 0.566291 0
M  V30 5612 H 503.76 2.51588 0.39692 0
M  V30 5613 H 504.543 3.25051 -1.1044 0
M  V30 5614 N 506.988 0.0434614 1.5754 0
M  V30 5615 C 508.399 -0.493343 1.80064 0
M  V30 5616 C 508.75 -1.71388 0.955023 0
M  V30 5617 O 507.875 -2.15736 0.169434 0
M  V30 5618 C 508.47 -0.90179 3.26578 0
M  V30 5619 C 507.029 -1.38362 3.50047 0
M  V30 5620 C 506.176 -0.355129 2.75017 0
M  V30 5621 H 509.127 0.2694 1.56397 0
M  V30 5622 H 509.148 -1.76523 3.37075 0
M  V30 5623 H 508.66 -0.013271 3.88098 0
M  V30 5624 H 506.761 -2.29159 2.93798 0
M  V30 5625 H 506.874 -1.3811 4.58762 0
M  V30 5626 H 505.238 -0.826348 2.40922 0
M  V30 5627 H 506.021 0.525172 3.39259 0
M  V30 5628 N 508.466 -1.55915 -0.229846 0
M  V30 5629 C 509.396 -1.94754 -1.28815 0
M  V30 5630 C 510.377 -0.814657 -1.49323 0
M  V30 5631 O 511.562 -1.07631 -1.61645 0
M  V30 5632 C 508.692 -2.25705 -2.63959 0
M  V30 5633 C 507.646 -3.41406 -2.5812 0
M  V30 5634 C 506.972 -3.57941 -3.97218 0
M  V30 5635 C 508.272 -4.76616 -2.13623 0
M  V30 5636 H 509.966 -2.83404 -0.965547 0
M  V30 5637 H 507.512 -1.36353 -0.463028 0
M  V30 5638 H 509.465 -2.51467 -3.38146 0
M  V30 5639 H 508.189 -1.339 -2.9789 0
M  V30 5640 H 506.848 -3.1568 -1.86391 0
M  V30 5641 H 506.496 -2.63526 -4.28443 0
M  V30 5642 H 506.196 -4.35757 -3.94195 0
M  V30 5643 H 507.72 -3.86042 -4.73079 0
M  V30 5644 H 509.134 -5.01637 -2.77549 0
M  V30 5645 H 507.531 -5.57655 -2.21677 0
M  V30 5646 H 508.601 -4.7253 -1.08829 0
M  V30 5647 N 509.944 0.496216 -1.49584 0
M  V30 5648 C 510.894 1.59422 -1.62999 0
M  V30 5649 C 511.878 1.53402 -0.485457 0
M  V30 5650 O 513.07 1.60851 -0.738649 0
M  V30 5651 C 510.199 2.98009 -1.70427 0
M  V30 5652 C 509.285 3.09008 -2.90473 0
M  V30 5653 N 509.676 2.89884 -4.14489 0
M  V30 5654 C 507.974 3.40115 -2.8851 0
M  V30 5655 C 508.675 3.0519 -4.95211 0
M  V30 5656 N 507.651 3.3428 -4.2867 0
M  V30 5657 H 511.453 1.43297 -2.56599 0
M  V30 5658 H 508.967 0.702443 -1.46422 0
M  V30 5659 H 510.964 3.76926 -1.78136 0
M  V30 5660 H 509.624 3.152 -0.77967 0
M  V30 5661 H 510.635 2.65963 -4.44392 0
M  V30 5662 H 507.312 3.63452 -2.05448 0
M  V30 5663 H 508.702 2.94856 -6.03746 0
M  V30 5664 N 511.423 1.38739 0.74761 0
M  V30 5665 C 512.353 1.39173 1.87492 0
M  V30 5666 C 513.334 0.256794 1.6815 0
M  V30 5667 O 514.519 0.460762 1.88655 0
M  V30 5668 C 511.649 1.22197 3.25093 0
M  V30 5669 C 510.603 2.32957 3.59047 0
M  V30 5670 C 509.929 2.01082 4.95449 0
M  V30 5671 C 511.229 3.75237 3.6331 0
M  V30 5672 H 512.923 2.3351 1.87386 0
M  V30 5673 H 510.469 1.12399 0.900134 0
M  V30 5674 H 512.422 1.21124 4.03617 0
M  V30 5675 H 511.146 0.243241 3.25693 0
M  V30 5676 H 509.805 2.33226 2.82845 0
M  V30 5677 H 509.453 1.01678 4.92616 0
M  V30 5678 H 509.153 2.75267 5.19136 0
M  V30 5679 H 510.677 2.01638 5.76346 0
M  V30 5680 H 512.091 3.76966 4.31937 0
M  V30 5681 H 510.488 4.48677 3.98509 0
M  V30 5682 H 511.558 4.07122 2.634 0
M  V30 5683 N 512.901 -0.976442 1.23707 0
M  V30 5684 C 514.129 -1.75341 1.09833 0
M  V30 5685 C 514.544 -1.8553 -0.349885 0
M  V30 5686 O 513.901 -1.33732 -1.24185 0
M  V30 5687 C 513.952 -3.17833 1.72233 0
M  V30 5688 O 513.673 -3.08167 3.11391 0
M  V30 5689 C 515.174 -4.11906 1.63853 0
M  V30 5690 H 512.394 -0.550137 0.384175 0
M  V30 5691 H 514.938 -1.2265 1.63638 0
M  V30 5692 H 513.093 -3.67538 1.22452 0
M  V30 5693 H 513.507 -3.97897 3.41729 0
M  V30 5694 H 514.981 -5.09579 2.12211 0
M  V30 5695 H 515.458 -4.35109 0.598092 0
M  V30 5696 H 516.064 -3.68107 2.13019 0
M  V30 5697 N 514.379 -1.04941 -1.1758 0
M  V30 5698 C 515.609 -0.777166 -1.91425 0
M  V30 5699 C 516.017 0.670647 -1.76915 0
M  V30 5700 O 515.36 1.46965 -1.10213 0
M  V30 5701 C 515.422 -1.07495 -3.43052 0
M  V30 5702 C 515.086 -2.51844 -3.81345 0
M  V30 5703 C 516.083 -3.50047 -3.844 0
M  V30 5704 C 513.768 -2.86787 -4.12382 0
M  V30 5705 C 515.762 -4.81239 -4.17957 0
M  V30 5706 C 513.449 -4.18182 -4.45608 0
M  V30 5707 C 514.447 -5.15219 -4.48373 0
M  V30 5708 O 514.135 -6.44258 -4.80819 0
M  V30 5709 H 513.867 -0.282209 -0.614275 0
M  V30 5710 H 516.421 -1.40258 -1.50056 0
M  V30 5711 H 514.651 -0.392437 -3.84704 0
M  V30 5712 H 516.34 -0.78912 -3.98155 0
M  V30 5713 H 517.106 -3.24391 -3.60548 0
M  V30 5714 H 512.985 -2.11922 -4.09402 0
M  V30 5715 H 516.529 -5.56974 -4.2003 0
M  V30 5716 H 512.426 -4.43602 -4.68922 0
M  V30 5717 H 513.194 -6.49041 -4.98686 0
M  V30 5718 N 515.857 1.33968 -0.830081 0
M  V30 5719 C 517.268 1.80439 -0.479455 0
M  V30 5720 C 517.619 1.68756 1.00079 0
M  V30 5721 O 516.744 1.23171 1.77927 0
M  V30 5722 C 517.339 3.27611 -0.863505 0
M  V30 5723 C 515.898 3.72133 -0.565145 0
M  V30 5724 C 515.045 2.55549 -1.07657 0
M  V30 5725 H 517.996 1.21614 -1.0196 0
M  V30 5726 H 518.017 3.8012 -0.170083 0
M  V30 5727 H 517.529 3.36082 -1.94089 0
M  V30 5728 H 515.63 3.69196 0.502536 0
M  V30 5729 H 515.743 4.65963 -1.11422 0
M  V30 5730 H 514.107 2.49788 -0.497807 0
M  V30 5731 H 514.89 2.66786 -2.16055 0
M  V30 5732 N 517.335 0.585699 1.46312 0
M  V30 5733 C 518.565 0.0780166 2.06453 0
M  V30 5734 C 518.973 -1.2336 1.43454 0
M  V30 5735 O 518.316 -1.75734 0.535086 0
M  V30 5736 C 518.378 -0.158951 3.59148 0
M  V30 5737 C 518.042 1.06752 4.44357 0
M  V30 5738 C 519.039 1.98031 4.80708 0
M  V30 5739 C 516.724 1.2902 4.85447 0
M  V30 5740 C 518.718 3.09924 5.5698 0
M  V30 5741 C 516.405 2.41218 5.61478 0
M  V30 5742 C 517.403 3.31499 5.97158 0
M  V30 5743 O 517.091 4.41747 6.71651 0
M  V30 5744 H 516.823 0.0558894 0.673686 0
M  V30 5745 H 519.377 0.806994 1.88883 0
M  V30 5746 H 517.607 -0.942575 3.75037 0
M  V30 5747 H 519.296 -0.615513 4.01206 0
M  V30 5748 H 520.062 1.82043 4.49539 0
M  V30 5749 H 515.941 0.596567 4.57124 0
M  V30 5750 H 519.485 3.80415 5.84748 0
M  V30 5751 H 515.382 2.57167 5.9206 0
M  V30 5752 H 516.15 4.40152 6.90079 0
M  V30 5753 N 518.813 -1.54241 0.323641 0
M  V30 5754 C 519.76 -2.24339 -0.542277 0
M  V30 5755 C 520.73 -1.23421 -1.11159 0
M  V30 5756 O 521.915 -1.52104 -1.15192 0
M  V30 5757 C 519.055 -3.00479 -1.69725 0
M  V30 5758 C 518.168 -4.16214 -1.15716 0
M  V30 5759 C 517.303 -4.79884 -2.27783 0
M  V30 5760 C 516.342 -5.87722 -1.71023 0
M  V30 5761 N 515.479 -6.45254 -2.76752 0
M  V30 5762 H 520.319 -2.97935 0.0620613 0
M  V30 5763 H 517.856 -1.47039 0.0423993 0
M  V30 5764 H 519.814 -3.42869 -2.3769 0
M  V30 5765 H 518.444 -2.29217 -2.27288 0
M  V30 5766 H 517.496 -3.78605 -0.369063 0
M  V30 5767 H 518.808 -4.93838 -0.701832 0
M  V30 5768 H 517.962 -5.25243 -3.03651 0
M  V30 5769 H 516.701 -4.01641 -2.76652 0
M  V30 5770 H 515.706 -5.41765 -0.936518 0
M  V30 5771 H 516.931 -6.67863 -1.2303 0
M  V30 5772 H 514.877 -5.69884 -3.24912 0
M  V30 5773 H 514.794 -7.18292 -2.35782 0
M  V30 5774 H 516.062 -6.95269 -3.5245 0
M  V30 5775 N 520.291 -0.0518155 -1.57515 0
M  V30 5776 C 521.254 0.907547 -2.10467 0
M  V30 5777 C 522.254 1.23947 -1.02439 0
M  V30 5778 O 523.444 1.17604 -1.2851 0
M  V30 5779 C 520.576 2.21723 -2.58944 0
M  V30 5780 H 521.769 0.44851 -2.96527 0
M  V30 5781 H 519.322 0.196598 -1.55059 0
M  V30 5782 H 520.057 2.72206 -1.76279 0
M  V30 5783 H 519.842 1.98935 -3.37886 0
M  V30 5784 H 521.332 2.90441 -3.00056 0
M  V30 5785 N 521.769 1.56035 0.221574 0
M  V30 5786 C 522.679 1.95581 1.29558 0
M  V30 5787 C 523.695 0.859639 1.51282 0
M  V30 5788 O 524.871 1.16321 1.64413 0
M  V30 5789 C 521.936 2.26447 2.62531 0
M  V30 5790 C 520.997 3.49632 2.4911 0
M  V30 5791 C 520.23 3.79017 3.75742 0
M  V30 5792 O 520.453 3.10077 4.78757 0
M  V30 5793 O 519.387 4.72507 3.72855 0
M  V30 5794 H 523.213 2.8711 0.990035 0
M  V30 5795 H 520.798 1.43244 0.424434 0
M  V30 5796 H 522.68 2.47494 3.41064 0
M  V30 5797 H 521.355 1.38092 2.92766 0
M  V30 5798 H 520.262 3.33864 1.68777 0
M  V30 5799 H 521.595 4.3837 2.23814 0
M  V30 5800 N 523.247 -0.488276 1.49845 0
M  V30 5801 C 524.493 -1.24341 1.6021 0
M  V30 5802 C 524.826 -1.91967 0.293651 0
M  V30 5803 O 524.101 -1.81323 -0.703718 0
M  V30 5804 C 524.384 -2.3005 2.77036 0
M  V30 5805 C 524.237 -1.66842 4.17713 0
M  V30 5806 C 525.556 -3.31509 2.89464 0
M  V30 5807 H 522.675 -0.450704 0.583125 0
M  V30 5808 H 525.317 -0.539673 1.82174 0
M  V30 5809 H 523.467 -2.90071 2.58439 0
M  V30 5810 H 525.139 -1.1055 4.47858 0
M  V30 5811 H 523.382 -0.972079 4.22768 0
M  V30 5812 H 524.053 -2.43576 4.95353 0
M  V30 5813 H 526.529 -2.81493 3.06433 0
M  V30 5814 H 525.405 -4.02822 3.72861 0
M  V30 5815 H 525.666 -3.94603 1.99351 0
M  V30 5816 N 524.725 -1.39134 -0.740242 0
M  V30 5817 C 525.95 -1.39518 -1.53459 0
M  V30 5818 C 526.375 0.00968883 -1.88098 0
M  V30 5819 O 525.733 0.995312 -1.51536 0
M  V30 5820 C 525.781 -2.26981 -2.802 0
M  V30 5821 O 524.885 -1.69609 -3.75908 0
M  V30 5822 H 524.226 -0.475328 -0.463637 0
M  V30 5823 H 526.756 -1.83064 -0.913717 0
M  V30 5824 H 526.766 -2.41309 -3.28989 0
M  V30 5825 H 525.441 -3.29081 -2.5432 0
M  V30 5826 H 524.018 -1.64495 -3.34658 0
M  V30 5827 N 526.204 0.969867 -1.24223 0
M  V30 5828 C 527.62 1.23809 -1.00716 0
M  V30 5829 C 527.82 1.99469 0.285358 0
M  V30 5830 O 526.876 2.31764 1.00207 0
M  V30 5831 C 528.189 2.02734 -2.2208 0
M  V30 5832 C 529.737 2.15834 -2.26681 0
M  V30 5833 C 530.212 2.98154 -3.47661 0
M  V30 5834 N 531.703 3.05737 -3.47964 0
M  V30 5835 C 532.438 3.69785 -4.38231 0
M  V30 5836 N 531.934 4.35569 -5.3875 0
M  V30 5837 N 533.727 3.66775 -4.25949 0
M  V30 5838 H 525.878 0.463294 -2.07286 0
M  V30 5839 H 528.141 0.267348 -0.909521 0
M  V30 5840 H 527.847 1.54524 -3.15935 0
M  V30 5841 H 527.721 3.0347 -2.24021 0
M  V30 5842 H 530.108 2.63248 -1.33359 0
M  V30 5843 H 530.189 1.14453 -2.28767 0
M  V30 5844 H 529.833 2.51435 -4.41297 0
M  V30 5845 H 529.763 3.99729 -3.42818 0
M  V30 5846 H 532.254 2.58941 -2.75242 0
M  V30 5847 H 532.567 4.82251 -6.03866 0
M  V30 5848 H 530.912 4.34244 -5.42639 0
M  V30 5849 H 534.103 3.14558 -3.46657 0
M  V30 5850 H 534.276 4.16407 -4.96497 0
M  V30 5851 N 527.682 1.05563 1.17022 0
M  V30 5852 C 528.91 0.78845 1.91288 0
M  V30 5853 C 529.325 -0.656318 1.77025 0
M  V30 5854 O 528.682 -1.44869 1.10992 0
M  V30 5855 C 528.733 1.16444 3.42232 0
M  V30 5856 O 528.454 2.5525 3.5606 0
M  V30 5857 C 529.955 0.923937 4.33565 0
M  V30 5858 H 527.175 0.286389 0.606813 0
M  V30 5859 H 529.719 1.4073 1.48375 0
M  V30 5860 H 527.874 0.590266 3.82877 0
M  V30 5861 H 528.288 2.70097 4.49609 0
M  V30 5862 H 529.762 1.23672 5.37968 0
M  V30 5863 H 530.239 -0.140688 4.38975 0
M  V30 5864 H 530.845 1.48214 3.98639 0
M  V30 5865 N 529.16 -1.33526 0.837174 0
M  V30 5866 C 530.437 -1.92369 0.354065 0
M  V30 5867 C 530.817 -1.76348 -1.16038 0
M  V30 5868 O 530.165 -1.15083 -1.97403 0
M  V30 5869 C 530.375 -3.39728 0.799101 0
M  V30 5870 C 531.723 -4.16877 0.806139 0
M  V30 5871 O 532.747 -3.48373 0.742597 0
M  V30 5872 O 531.606 -5.39166 0.892345 0
M  V30 5873 H 528.7 -0.820952 0.0998378 0
M  V30 5874 H 531.246 -1.42409 0.922913 0
M  V30 5875 H 530.018 -3.45254 1.84162 0
M  V30 5876 H 529.641 -3.97062 0.206731 0
M  V30 5877 N 530.638 -0.59345 -1.46 0
M  V30 5878 C 531.588 0.154751 -2.27474 0
M  V30 5879 C 532.572 0.851849 -1.365 0
M  V30 5880 O 533.764 0.744171 -1.60596 0
M  V30 5881 C 530.893 1.16079 -3.2308 0
M  V30 5882 C 529.979 0.465256 -4.2154 0
M  V30 5883 N 530.37 -0.485197 -5.03467 0
M  V30 5884 C 528.668 0.714634 -4.40237 0
M  V30 5885 C 529.369 -0.892709 -5.74809 0
M  V30 5886 N 528.345 -0.239511 -5.43072 0
M  V30 5887 H 532.147 -0.57546 -2.88211 0
M  V30 5888 H 529.661 -0.416046 -1.5698 0
M  V30 5889 H 531.658 1.71108 -3.80168 0
M  V30 5890 H 530.318 1.89171 -2.63903 0
M  V30 5891 H 531.329 -0.861258 -5.10689 0
M  V30 5892 H 528.006 1.43131 -3.92199 0
M  V30 5893 H 529.396 -1.67581 -6.50666 0
M  V30 5894 N 532.116 1.54067 -0.331816 0
M  V30 5895 C 533.527 1.86059 0.15454 0
M  V30 5896 C 533.878 1.25331 1.50952 0
M  V30 5897 O 533.003 0.562441 2.08963 0
M  V30 5898 C 533.598 3.37581 0.287192 0
M  V30 5899 C 532.157 3.69493 0.717773 0
M  V30 5900 C 531.304 2.76863 -0.155569 0
M  V30 5901 H 534.255 1.48797 -0.55182 0
M  V30 5902 H 534.276 3.63744 1.11671 0
M  V30 5903 H 533.788 3.81751 -0.699131 0
M  V30 5904 H 531.889 3.3086 1.71354 0
M  V30 5905 H 532.002 4.76315 0.5158 0
M  V30 5906 H 530.366 2.51995 0.370213 0
M  V30 5907 H 531.149 3.23861 -1.13881 0
M  V30 5908 N 533.594 0.0601682 1.57485 0
M  V30 5909 C 534.819 -0.624416 1.97777 0
M  V30 5910 C 535.244 -1.63051 0.937867 0
M  V30 5911 O 534.602 -1.81036 -0.0978845 0
M  V30 5912 C 534.65 -1.27979 3.37126 0
M  V30 5913 O 533.754 -2.39556 3.35688 0
M  V30 5914 H 533.095 -0.161581 0.64404 0
M  V30 5915 H 535.625 0.131237 2.04179 0
M  V30 5916 H 535.635 -1.62937 3.74053 0
M  V30 5917 H 534.31 -0.542501 4.12347 0
M  V30 5918 H 532.887 -2.06478 3.10517 0
M  V30 5919 N 535.072 -1.5615 -0.213296 0
M  V30 5920 C 536.022 -1.89485 -1.26804 0
M  V30 5921 C 537.006 -0.758713 -1.41889 0
M  V30 5922 O 538.198 -1.02127 -1.44565 0
M  V30 5923 C 535.327 -2.22219 -2.61675 0
M  V30 5924 C 534.413 -3.42245 -2.50458 0
M  V30 5925 N 534.804 -4.60645 -2.089 0
M  V30 5926 C 533.102 -3.46023 -2.81397 0
M  V30 5927 C 533.803 -5.42805 -2.09135 0
M  V30 5928 N 532.779 -4.82732 -2.49941 0
M  V30 5929 H 536.581 -2.78537 -0.937771 0
M  V30 5930 H 534.095 -1.56826 -0.421824 0
M  V30 5931 H 536.092 -2.44278 -3.37837 0
M  V30 5932 H 534.752 -1.34484 -2.95541 0
M  V30 5933 H 535.763 -4.85651 -1.79899 0
M  V30 5934 H 532.44 -2.68654 -3.1958 0
M  V30 5935 H 533.83 -6.47601 -1.79059 0
M  V30 5936 N 536.55 0.480323 -1.50102 0
M  V30 5937 C 537.48 1.58769 -1.71215 0
M  V30 5938 C 538.461 1.60583 -0.560997 0
M  V30 5939 O 539.646 1.76996 -0.799127 0
M  V30 5940 C 536.776 2.97148 -1.79778 0
M  V30 5941 C 535.73 3.10201 -2.94888 0
M  V30 5942 C 535.056 4.50137 -2.88584 0
M  V30 5943 C 536.356 2.88283 -4.35534 0
M  V30 5944 H 538.05 1.41354 -2.6393 0
M  V30 5945 H 535.596 0.678591 -1.27008 0
M  V30 5946 H 537.549 3.74536 -1.93133 0
M  V30 5947 H 536.273 3.15699 -0.836772 0
M  V30 5948 H 534.932 2.35244 -2.81169 0
M  V30 5949 H 534.58 4.65593 -1.90349 0
M  V30 5950 H 534.28 4.59808 -3.65856 0
M  V30 5951 H 535.804 5.29558 -3.03976 0
M  V30 5952 H 537.218 3.55427 -4.49827 0
M  V30 5953 H 535.615 3.09408 -5.14186 0
M  V30 5954 H 536.685 1.84219 -4.48544 0
M  V30 5955 N 538.028 1.39524 0.732853 0
M  V30 5956 C 538.96 1.34318 1.85718 0
M  V30 5957 C 539.973 0.251576 1.60844 0
M  V30 5958 O 541.162 0.510685 1.71039 0
M  V30 5959 C 538.262 1.06334 3.21786 0
M  V30 5960 C 537.435 2.26813 3.73998 0
M  V30 5961 C 536.494 1.95253 4.88634 0
M  V30 5962 O 535.52 2.67957 5.02183 0
M  V30 5963 N 536.722 0.919984 5.73164 0
M  V30 5964 H 539.487 2.3121 1.90688 0
M  V30 5965 H 537.048 1.33654 0.91368 0
M  V30 5966 H 539.04 0.832363 3.96048 0
M  V30 5967 H 537.61 0.181682 3.12072 0
M  V30 5968 H 536.83 2.65849 2.91064 0
M  V30 5969 H 538.118 3.0717 4.05616 0
M  V30 5970 H 537.516 0.317487 5.64808 0
M  V30 5971 H 536.073 0.748905 6.47483 0
M  V30 5972 N 539.506 -0.963266 1.24736 0
M  V30 5973 C 540.416 -2.09246 1.06082 0
M  V30 5974 C 541.432 -1.74 0.000363101 0
M  V30 5975 O 542.608 -2.0041 0.199479 0
M  V30 5976 C 539.673 -3.40115 0.672498 0
M  V30 5977 C 538.734 -3.89282 1.80993 0
M  V30 5978 C 537.967 -5.13905 1.44004 0
M  V30 5979 O 538.19 -5.69434 0.331835 0
M  V30 5980 O 537.124 -5.57566 2.26723 0
M  V30 5981 H 540.95 -2.27881 2.00759 0
M  V30 5982 H 538.535 -1.07649 1.03595 0
M  V30 5983 H 540.417 -4.18797 0.467668 0
M  V30 5984 H 539.092 -3.22771 -0.245102 0
M  V30 5985 H 537.999 -3.11642 2.06955 0
M  V30 5986 H 539.332 -4.1111 2.70646 0
M  V30 5987 N 540.985 -1.06182 -1.16461 0
M  V30 5988 C 542.262 -0.691364 -1.82974 0
M  V30 5989 C 542.642 0.827377 -1.9421 0
M  V30 5990 O 541.99 1.73723 -1.48434 0
M  V30 5991 C 542.2 -1.39199 -3.20038 0
M  V30 5992 C 543.548 -1.53647 -3.95825 0
M  V30 5993 O 544.572 -1.35181 -3.29552 0
M  V30 5994 O 543.431 -1.83932 -5.14618 0
M  V30 5995 H 540.525 -0.244605 -0.789998 0
M  V30 5996 H 543.071 -1.16203 -1.23673 0
M  V30 5997 H 541.843 -2.42766 -3.06888 0
M  V30 5998 H 541.466 -0.911335 -3.87015 0
M  V30 5999 N 542.463 1.3308 -0.844243 0
M  V30 6000 C 543.41 2.29104 -0.279323 0
M  V30 6001 C 544.38 1.54577 0.607882 0
M  V30 6002 O 545.565 1.8285 0.545009 0
M  V30 6003 C 542.705 3.40927 0.53508 0
M  V30 6004 C 541.818 4.30354 -0.376749 0
M  V30 6005 C 540.953 5.29297 0.449276 0
M  V30 6006 C 539.992 6.10365 -0.460606 0
M  V30 6007 N 539.129 7.01335 0.327612 0
M  V30 6008 H 543.969 2.76817 -1.10346 0
M  V30 6009 H 541.506 1.36203 -0.555611 0
M  V30 6010 H 543.464 4.04469 1.02278 0
M  V30 6011 H 542.094 2.94391 1.32414 0
M  V30 6012 H 541.146 3.67485 -0.982791 0
M  V30 6013 H 542.458 4.87067 -1.07549 0
M  V30 6014 H 541.612 5.98392 1.00058 0
M  V30 6015 H 540.351 4.73174 1.18143 0
M  V30 6016 H 539.356 5.40182 -1.02388 0
M  V30 6017 H 540.581 6.68571 -1.1912 0
M  V30 6018 H 538.527 6.47655 1.04305 0
M  V30 6019 H 538.444 7.55355 -0.3123 0
M  V30 6020 H 539.712 7.74731 0.86098 0
M  V30 6021 N 543.941 0.601185 1.45683 0
M  V30 6022 C 545.352 0.179659 1.85834 0
M  V30 6023 C 545.703 -1.26189 1.50236 0
M  V30 6024 O 544.828 -1.95587 0.925987 0
M  V30 6025 C 545.423 0.319277 3.37292 0
M  V30 6026 C 543.982 -0.0475092 3.7637 0
M  V30 6027 C 543.129 0.646692 2.69654 0
M  V30 6028 H 546.08 0.808268 1.36575 0
M  V30 6029 H 546.101 -0.4503 3.77826 0
M  V30 6030 H 545.613 1.36855 3.6317 0
M  V30 6031 H 543.714 -1.0962 3.5611 0
M  V30 6032 H 543.827 0.34168 4.7788 0
M  V30 6033 H 542.191 0.0849971 2.54558 0
M  V30 6034 H 542.974 1.69797 2.98369 0
M  V30 6035 N 545.419 -1.53889 0.339982 0
M  V30 6036 C 546.644 -2.05741 -0.261798 0
M  V30 6037 C 547.069 -1.21354 -1.43718 0
M  V30 6038 O 546.427 -0.22645 -1.7988 0
M  V30 6039 C 546.475 -3.54542 -0.658228 0
M  V30 6040 O 545.579 -3.7302 -1.75869 0
M  V30 6041 H 544.92 -0.662529 -0.0441672 0
M  V30 6042 H 547.45 -1.98568 0.493161 0
M  V30 6043 H 547.46 -3.9711 -0.936368 0
M  V30 6044 H 546.135 -4.15412 0.201358 0
M  V30 6045 H 544.712 -3.42355 -1.47809 0
M  V30 6046 N 546.897 -0.0685191 -1.57451 0
M  V30 6047 C 548.308 0.464634 -1.80826 0
M  V30 6048 C 548.659 1.69847 -0.982169 0
M  V30 6049 O 547.784 2.15439 -0.203734 0
M  V30 6050 C 548.379 0.849721 -3.27971 0
M  V30 6051 C 546.938 1.32776 -3.52204 0
M  V30 6052 C 546.085 0.311332 -2.75547 0
M  V30 6053 H 549.036 -0.294248 -1.55948 0
M  V30 6054 H 549.057 1.71138 -3.39841 0
M  V30 6055 H 548.569 -0.0484736 -3.8807 0
M  V30 6056 H 546.67 2.24456 -2.97406 0
M  V30 6057 H 546.783 1.30794 -4.60901 0
M  V30 6058 H 545.147 0.787915 -2.42206 0
M  V30 6059 H 545.93 -0.579078 -3.38381 0
M  V30 6060 N 548.375 1.56261 0.205012 0
M  V30 6061 C 549.305 1.96779 1.257 0
M  V30 6062 C 550.286 0.838309 1.48008 0
M  V30 6063 O 551.471 1.10189 1.59913 0
M  V30 6064 C 548.601 2.29876 2.60335 0
M  V30 6065 C 547.555 3.45469 2.52656 0
M  V30 6066 C 546.881 3.64215 3.91473 0
M  V30 6067 C 548.181 4.79954 2.06014 0
M  V30 6068 H 549.875 2.84904 0.920338 0
M  V30 6069 H 547.421 1.37072 0.441277 0
M  V30 6070 H 549.374 2.56814 3.34102 0
M  V30 6071 H 548.098 1.38622 2.95722 0
M  V30 6072 H 546.757 3.18605 1.81345 0
M  V30 6073 H 546.405 2.70309 4.24196 0
M  V30 6074 H 546.105 4.41973 3.87213 0
M  V30 6075 H 547.629 3.93519 4.66878 0
M  V30 6076 H 549.043 5.05989 2.69533 0
M  V30 6077 H 547.44 5.61111 2.12777 0
M  V30 6078 H 548.51 4.74201 1.01297 0
M  V30 6079 N 549.853 -0.472356 1.50355 0
M  V30 6080 C 550.783 -1.57859 1.72055 0
M  V30 6081 C 551.764 -1.60283 0.569505 0
M  V30 6082 O 552.949 -1.7657 0.808503 0
M  V30 6083 C 550.079 -2.96191 1.81351 0
M  V30 6084 C 549.033 -3.08633 2.96529 0
M  V30 6085 C 548.359 -4.486 2.90968 0
M  V30 6086 C 549.659 -2.85969 4.37057 0
M  V30 6087 H 551.353 -1.39953 2.64676 0
M  V30 6088 H 548.899 -0.671846 1.27367 0
M  V30 6089 H 550.852 -3.73507 1.95117 0
M  V30 6090 H 549.576 -3.15251 0.853502 0
M  V30 6091 H 548.235 -2.33749 2.82413 0
M  V30 6092 H 547.883 -4.64577 1.92815 0
M  V30 6093 H 547.583 -4.57861 3.68289 0
M  V30 6094 H 549.107 -5.27938 3.0678 0
M  V30 6095 H 550.521 -3.53036 4.51706 0
M  V30 6096 H 548.918 -3.06677 5.15819 0
M  V30 6097 H 549.988 -1.81838 4.49514 0
M  V30 6098 N 551.331 -1.39911 -0.725443 0
M  V30 6099 C 552.578 -1.37654 -1.48518 0
M  V30 6100 C 552.906 0.0243982 -1.94485 0
M  V30 6101 O 552.161 1.00708 -1.67799 0
M  V30 6102 C 552.46 -2.30368 -2.7325 0
M  V30 6103 C 552.126 -3.77817 -2.461 0
M  V30 6104 C 550.788 -4.17991 -2.38405 0
M  V30 6105 C 553.14 -4.71036 -2.23103 0
M  V30 6106 C 550.468 -5.49433 -2.05768 0
M  V30 6107 C 552.82 -6.02766 -1.9198 0
M  V30 6108 C 551.484 -6.41993 -1.82761 0
M  V30 6109 H 550.754 -0.503713 -0.543465 0
M  V30 6110 H 553.401 -1.7249 -0.831822 0
M  V30 6111 H 551.706 -1.88683 -3.43375 0
M  V30 6112 H 553.403 -2.2591 -3.31309 0
M  V30 6113 H 549.993 -3.45982 -2.52972 0
M  V30 6114 H 554.177 -4.40823 -2.2801 0
M  V30 6115 H 549.433 -5.78738 -1.9716 0
M  V30 6116 H 553.607 -6.74519 -1.73197 0
M  V30 6117 H 551.234 -7.43761 -1.57237 0
M  V30 6118 N 552.809 0.956637 -1.25245 0
M  V30 6119 C 554.22 1.51569 -1.09012 0
M  V30 6120 C 554.571 1.93322 0.334813 0
M  V30 6121 O 553.696 1.78421 1.22454 0
M  V30 6122 C 554.291 2.75444 -1.97271 0
M  V30 6123 C 552.85 3.27669 -1.8523 0
M  V30 6124 C 551.997 2.00517 -1.91542 0
M  V30 6125 H 554.948 0.773746 -1.3856 0
M  V30 6126 H 554.969 3.4919 -1.51151 0
M  V30 6127 H 554.481 2.45024 -3.00973 0
M  V30 6128 H 552.582 3.62914 -0.844045 0
M  V30 6129 H 552.695 3.9582 -2.69932 0
M  V30 6130 H 551.059 2.15727 -1.35404 0
M  V30 6131 H 551.842 1.72448 -2.96844 0
M  V30 6132 N 554.287 1.06798 1.15896 0
M  V30 6133 C 555.512 0.808739 1.90982 0
M  V30 6134 C 555.937 -0.6316 1.77179 0
M  V30 6135 O 555.295 -1.4407 1.10061 0
M  V30 6136 C 555.343 1.21468 3.39526 0
M  V30 6137 O 554.447 0.356562 4.10856 0
M  V30 6138 H 553.788 0.29512 0.594811 0
M  V30 6139 H 556.318 1.42513 1.46804 0
M  V30 6140 H 556.328 1.18844 3.90308 0
M  V30 6141 H 555.003 2.26379 3.48891 0
M  V30 6142 H 553.58 0.444808 3.70238 0
M  V30 6143 N 555.766 -1.3263 0.851289 0
M  V30 6144 C 556.696 -2.31449 0.308771 0
M  V30 6145 C 557.677 -1.59531 -0.590255 0
M  V30 6146 O 558.862 -1.87351 -0.511205 0
M  V30 6147 C 555.992 -3.43586 -0.506548 0
M  V30 6148 C 554.946 -4.26963 0.297753 0
M  V30 6149 C 554.272 -5.30831 -0.642094 0
M  V30 6150 C 555.572 -4.99643 1.52166 0
M  V30 6151 H 557.266 -2.77074 1.13447 0
M  V30 6152 H 554.812 -1.33207 0.546971 0
M  V30 6153 H 556.765 -4.11754 -0.896474 0
M  V30 6154 H 555.489 -2.96681 -1.36558 0
M  V30 6155 H 554.148 -3.60437 0.669391 0
M  V30 6156 H 553.796 -4.8018 -1.49788 0
M  V30 6157 H 553.496 -5.87501 -0.107968 0
M  V30 6158 H 555.02 -6.01862 -1.02927 0
M  V30 6159 H 556.434 -5.6051 1.20421 0
M  V30 6160 H 554.831 -5.66022 1.99347 0
M  V30 6161 H 555.901 -4.27701 2.28474 0
M  V30 6162 N 557.244 -0.608902 -1.45362 0
M  V30 6163 C 558.194 0.130616 -2.27626 0
M  V30 6164 C 559.178 0.837323 -1.37396 0
M  V30 6165 O 560.37 0.727096 -1.61376 0
M  V30 6166 C 557.499 1.12646 -3.24293 0
M  V30 6167 C 556.585 0.42052 -4.2201 0
M  V30 6168 N 556.976 -0.538569 -5.02925 0
M  V30 6169 C 555.274 0.667901 -4.40971 0
M  V30 6170 C 555.975 -0.953625 -5.7383 0
M  V30 6171 N 554.951 -0.297097 -5.42788 0
M  V30 6172 H 558.753 -0.605996 -2.87585 0
M  V30 6173 H 556.267 -0.432672 -1.5653 0
M  V30 6174 H 558.264 1.67066 -3.81961 0
M  V30 6175 H 556.924 1.86361 -2.65894 0
M  V30 6176 H 557.935 -0.915375 -5.09746 0
M  V30 6177 H 554.612 1.38963 -3.93695 0
M  V30 6178 H 556.002 -1.74473 -6.48852 0
M  V30 6179 N 558.722 1.53707 -0.348139 0
M  V30 6180 C 559.67 2.26671 0.521808 0
M  V30 6181 C 560.664 1.28988 1.09811 0
M  V30 6182 O 561.87 1.4668 1.04332 0
M  V30 6183 H 558.245 0.728387 0.186968 0
M  V30 6184 H 560.216 2.98176 -0.115563 0
M  V30 6185 C 558.965 3.05591 1.6586 0
M  V30 6186 H 558.288 3.80589 1.22443 0
M  V30 6187 H 559.728 3.59851 2.24239 0
M  V30 6188 C 558.187 2.15366 2.59073 0
M  V30 6189 O 558.717 1.7528 3.61441 0
M  V30 6190 N 556.923 1.80352 2.27863 0
M  V30 6191 H 556.47 2.13149 1.44656 0
M  V30 6192 H 556.428 1.20268 2.90488 0
M  V30 6193 N 560.2 0.0768682 1.57412 0
M  V30 6194 C 561.147 -0.888577 2.13009 0
M  V30 6195 C 562.117 -1.29198 1.0439 0
M  V30 6196 O 563.302 -1.37694 1.3208 0
M  V30 6197 C 560.442 -2.14899 2.70023 0
M  V30 6198 C 559.555 -1.79777 3.92816 0
M  V30 6199 C 558.69 -3.00467 4.38056 0
M  V30 6200 C 557.729 -2.61385 5.53484 0
M  V30 6201 N 556.866 -3.74851 5.93659 0
M  V30 6202 H 561.706 -0.407593 2.95199 0
M  V30 6203 H 559.243 -0.189534 1.45874 0
M  V30 6204 H 561.201 -2.88688 3.0119 0
M  V30 6205 H 559.831 -2.60529 1.9059 0
M  V30 6206 H 558.883 -0.960301 3.68079 0
M  V30 6207 H 560.195 -1.47027 4.76639 0
M  V30 6208 H 559.349 -3.82529 4.7091 0
M  V30 6209 H 558.088 -3.36413 3.53097 0
M  V30 6210 H 557.093 -1.77746 5.20275 0
M  V30 6211 H 558.318 -2.26603 6.40178 0
M  V30 6212 H 556.264 -4.1055 5.11649 0
M  V30 6213 H 556.181 -3.45887 6.72234 0
M  V30 6214 H 557.449 -4.57477 6.31138 0
M  V30 6215 N 561.678 -1.56367 -0.196722 0
M  V30 6216 C 562.628 -1.9082 -1.24787 0
M  V30 6217 C 563.612 -0.773719 -1.41076 0
M  V30 6218 O 564.804 -1.03655 -1.43474 0
M  V30 6219 C 561.933 -2.24982 -2.59303 0
M  V30 6220 C 561.019 -3.44882 -2.46814 0
M  V30 6221 N 561.41 -4.62835 -2.04003 0
M  V30 6222 C 559.708 -3.48988 -2.77711 0
M  V30 6223 C 560.409 -5.44993 -2.03366 0
M  V30 6224 N 559.385 -4.85356 -2.44807 0
M  V30 6225 H 563.187 -2.79516 -0.908175 0
M  V30 6226 H 560.701 -1.57265 -0.405166 0
M  V30 6227 H 562.698 -2.47848 -3.35227 0
M  V30 6228 H 561.358 -1.37611 -2.94098 0
M  V30 6229 H 562.369 -4.87532 -1.74738 0
M  V30 6230 H 559.046 -2.72029 -3.16712 0
M  V30 6231 H 560.436 -6.49464 -1.72181 0
M  V30 6232 N 563.156 0.464375 -1.50603 0
M  V30 6233 C 564.567 1.04507 -1.5471 0
M  V30 6234 C 564.918 1.9297 -0.354542 0
M  V30 6235 O 564.043 2.09763 0.531812 0
M  V30 6236 C 564.638 1.90207 -2.80369 0
M  V30 6237 C 563.197 2.43373 -2.87135 0
M  V30 6238 C 562.344 1.21886 -2.49076 0
M  V30 6239 H 565.295 0.246716 -1.56771 0
M  V30 6240 H 565.316 2.75353 -2.62604 0
M  V30 6241 H 564.828 1.25796 -3.67147 0
M  V30 6242 H 562.929 3.11318 -2.04724 0
M  V30 6243 H 563.042 2.7802 -3.90181 0
M  V30 6244 H 561.406 1.55575 -2.01664 0
M  V30 6245 H 562.189 0.591268 -3.3817 0
M  V30 6246 N 564.634 1.40294 0.718013 0
M  V30 6247 C 565.566 1.36281 1.84283 0
M  V30 6248 C 566.579 0.268621 1.60569 0
M  V30 6249 O 567.768 0.528798 1.70487 0
M  V30 6250 C 564.868 1.09741 3.2064 0
M  V30 6251 C 564.041 2.30767 3.71571 0
M  V30 6252 C 563.1 2.00424 4.86535 0
M  V30 6253 O 562.126 2.73268 4.99313 0
M  V30 6254 N 563.328 0.980724 5.72156 0
M  V30 6255 H 566.093 2.3322 1.88225 0
M  V30 6256 H 563.654 1.34616 0.899453 0
M  V30 6257 H 565.646 0.874322 3.95143 0
M  V30 6258 H 564.216 0.214771 3.11861 0
M  V30 6259 H 563.436 2.68921 2.88228 0
M  V30 6260 H 564.724 3.11455 4.02335 0
M  V30 6261 H 564.122 0.377375 5.6444 0
M  V30 6262 H 562.679 0.817538 6.46653 0
M  V30 6263 N 566.112 -0.949982 1.2575 0
M  V30 6264 C 567.337 -1.73503 1.13628 0
M  V30 6265 C 567.762 -1.85601 -0.30559 0
M  V30 6266 O 567.12 -1.33984 -1.22139 0
M  V30 6267 C 567.168 -3.1243 1.80055 0
M  V30 6268 O 566.272 -3.97916 1.08336 0
M  V30 6269 H 565.613 -0.532665 0.396439 0
M  V30 6270 H 568.143 -1.19043 1.66403 0
M  V30 6271 H 568.153 -3.62866 1.86527 0
M  V30 6272 H 566.828 -3.02941 2.84956 0
M  V30 6273 H 565.405 -3.56375 1.09777 0
M  V30 6274 N 567.59 -1.07411 -1.15328 0
M  V30 6275 C 568.537 -0.694995 -2.20087 0
M  V30 6276 C 569.507 0.313904 -1.63107 0
M  V30 6277 O 570.692 0.200216 -1.89747 0
M  V30 6278 C 567.832 -0.0996218 -3.44956 0
M  V30 6279 C 566.945 -1.16007 -4.16133 0
M  V30 6280 C 566.08 -0.529636 -5.28553 0
M  V30 6281 C 565.119 -1.57283 -5.91548 0
M  V30 6282 N 564.256 -0.964932 -6.95438 0
M  V30 6283 H 569.096 -1.5927 -2.51867 0
M  V30 6284 H 566.633 -0.796115 -1.23695 0
M  V30 6285 H 568.591 0.263197 -4.16369 0
M  V30 6286 H 567.221 0.761435 -3.13691 0
M  V30 6287 H 566.273 -1.64045 -3.4321 0
M  V30 6288 H 567.585 -1.95101 -4.59061 0
M  V30 6289 H 566.739 -0.114487 -6.06592 0
M  V30 6290 H 565.478 0.29307 -4.86819 0
M  V30 6291 H 564.483 -1.99775 -5.12221 0
M  V30 6292 H 565.708 -2.39783 -6.35359 0
M  V30 6293 H 563.654 -0.16314 -6.55797 0
M  V30 6294 H 563.571 -1.69311 -7.36797 0
M  V30 6295 H 564.839 -0.575305 -7.77374 0
M  V30 6296 N 569.068 1.32177 -0.85831 0
M  V30 6297 C 570.317 1.96392 -0.459689 0
M  V30 6298 C 570.63 1.68659 0.990632 0
M  V30 6299 O 571.836 2.26641 1.49485 0
M  V30 6300 C 570.292 3.51542 -0.7711 0
M  V30 6301 C 569.9 3.8813 -2.2374 0
M  V30 6302 C 571.644 4.2221 -0.44038 0
M  V30 6303 C 569.551 5.36341 -2.49183 0
M  V30 6304 H 568.481 0.735007 -0.168169 0
M  V30 6305 H 571.132 1.50518 -1.0496 0
M  V30 6306 H 569.514 3.95846 -0.11058 0
M  V30 6307 H 570.688 3.54824 -2.94001 0
M  V30 6308 H 569.003 3.30497 -2.533 0
M  V30 6309 H 571.6 5.31234 -0.607855 0
M  V30 6310 H 571.943 4.11683 0.618291 0
M  V30 6311 H 572.476 3.83502 -1.05695 0
M  V30 6312 H 569.215 5.51892 -3.53689 0
M  V30 6313 H 568.735 5.7104 -1.83504 0
M  V30 6314 H 570.414 6.03466 -2.33318 0
M  V30 6315 N 570.547 0.616602 1.45037 0
M  V30 6316 C 571.775 0.121968 2.0654 0
M  V30 6317 C 572.19 -1.19743 1.45969 0
M  V30 6318 O 571.547 -1.73133 0.577168 0
M  V30 6319 C 571.598 -0.0145171 3.61497 0
M  V30 6320 O 571.319 1.25269 4.19809 0
M  V30 6321 C 572.82 -0.539555 4.40004 0
M  V30 6322 H 570.04 0.0729837 0.667019 0
M  V30 6323 H 572.584 0.846891 1.8614 0
M  V30 6324 H 570.739 -0.689809 3.81209 0
M  V30 6325 H 571.153 1.08816 5.13088 0
M  V30 6326 H 572.627 -0.584112 5.48901 0
M  V30 6327 H 573.104 -1.56368 4.10421 0
M  V30 6328 H 573.71 0.101995 4.25178 0
M  V30 6329 N 572.025 -1.5352 0.356285 0
M  V30 6330 C 572.988 -2.24071 -0.482182 0
M  V30 6331 C 573.988 -1.24531 -1.01729 0
M  V30 6332 O 575.178 -1.48876 -0.904513 0
M  V30 6333 C 572.31 -2.97025 -1.67299 0
M  V30 6334 H 573.503 -2.99596 0.135031 0
M  V30 6335 H 571.056 -1.55928 0.107825 0
M  V30 6336 H 571.791 -2.25719 -2.32855 0
M  V30 6337 H 571.576 -3.7005 -1.29636 0
M  V30 6338 H 573.066 -3.50683 -2.26741 0
M  V30 6339 N 573.503 -0.0852151 -1.57369 0
M  V30 6340 C 574.751 0.579658 -1.93609 0
M  V30 6341 C 575.072 1.69332 -0.967043 0
M  V30 6342 O 574.342 1.95892 -0.0174215 0
M  V30 6343 H 572.922 0.217113 -0.714752 0
M  V30 6344 H 575.584 -0.146226 -1.94351 0
M  V30 6345 H 574.68 0.996276 -2.95771 0
M  V30 6346 N 574.981 1.5647 0.188427 0
M  V30 6347 C 575.911 1.98101 1.23606 0
M  V30 6348 C 576.892 0.853961 1.47111 0
M  V30 6349 O 578.077 1.11879 1.58735 0
M  V30 6350 C 575.207 2.32624 2.57882 0
M  V30 6351 C 574.161 3.48129 2.48978 0
M  V30 6352 C 573.487 3.68347 3.87588 0
M  V30 6353 C 574.787 4.82112 2.00911 0
M  V30 6354 H 576.481 2.85864 0.890068 0
M  V30 6355 H 574.027 1.37532 0.426714 0
M  V30 6356 H 575.98 2.60343 3.3136 0
M  V30 6357 H 574.704 1.41751 2.94235 0
M  V30 6358 H 573.363 3.20511 1.77956 0
M  V30 6359 H 573.011 2.74793 4.21305 0
M  V30 6360 H 572.711 4.46055 3.82503 0
M  V30 6361 H 574.235 3.98449 4.62678 0
M  V30 6362 H 575.649 5.08819 2.64151 0
M  V30 6363 H 574.046 5.63337 2.06814 0
M  V30 6364 H 575.116 4.75249 0.96262 0
M  V30 6365 N 576.459 -0.456382 1.50847 0
M  V30 6366 C 577.369 -1.57805 1.73594 0
M  V30 6367 C 578.385 -1.62599 0.619476 0
M  V30 6368 O 579.561 -1.80195 0.899532 0
M  V30 6369 C 576.626 -2.93926 1.8387 0
M  V30 6370 C 575.687 -2.99402 3.07663 0
M  V30 6371 C 574.92 -4.29031 3.1744 0
M  V30 6372 O 575.143 -5.20358 2.33631 0
M  V30 6373 O 574.077 -4.40401 4.10281 0
M  V30 6374 H 577.903 -1.41531 2.68705 0
M  V30 6375 H 575.488 -0.637422 1.3512 0
M  V30 6376 H 577.37 -3.74747 1.92725 0
M  V30 6377 H 576.045 -3.10368 0.91944 0
M  V30 6378 H 574.952 -2.17606 3.043 0
M  V30 6379 H 576.285 -2.87901 3.99216 0
M  V30 6380 N 577.937 -1.40673 -0.710563 0
M  V30 6381 C 578.887 -1.37812 -1.81636 0
M  V30 6382 C 579.871 -0.254853 -1.58869 0
M  V30 6383 O 581.063 -0.494356 -1.69956 0
M  V30 6384 C 578.192 -1.24802 -3.19811 0
M  V30 6385 C 577.278 -2.41931 -3.48325 0
M  V30 6386 N 577.669 -3.67411 -3.47625 0
M  V30 6387 C 575.967 -2.35419 -3.78806 0
M  V30 6388 C 576.668 -4.45008 -3.74623 0
M  V30 6389 N 575.644 -3.74916 -3.93623 0
M  V30 6390 H 579.446 -2.32766 -1.79436 0
M  V30 6391 H 576.96 -1.34516 -0.909909 0
M  V30 6392 H 578.957 -1.20835 -3.99004 0
M  V30 6393 H 577.617 -0.308202 -3.23234 0
M  V30 6394 H 578.628 -4.00503 -3.28356 0
M  V30 6395 H 575.305 -1.4983 -3.89689 0
M  V30 6396 H 576.695 -5.53884 -3.80344 0
M  V30 6397 N 579.415 0.9433 -1.26252 0
M  V30 6398 C 580.362 2.0417 -1.07625 0
M  V30 6399 C 581.332 1.6609 0.0180738 0
M  V30 6400 O 582.517 1.90276 -0.141289 0
M  V30 6401 C 579.657 3.37653 -0.713043 0
M  V30 6402 C 578.77 3.88783 -1.8834 0
M  V30 6403 C 577.905 5.10642 -1.4635 0
M  V30 6404 C 576.944 5.54028 -2.60229 0
M  V30 6405 N 576.081 6.67092 -2.18936 0
M  V30 6406 H 580.921 2.19436 -2.01623 0
M  V30 6407 H 578.458 1.07519 -1.00389 0
M  V30 6408 H 580.416 4.14391 -0.483358 0
M  V30 6409 H 579.046 3.22241 0.18996 0
M  V30 6410 H 578.098 3.08464 -2.22608 0
M  V30 6411 H 579.41 4.16922 -2.73821 0
M  V30 6412 H 578.564 5.94832 -1.19414 0
M  V30 6413 H 577.303 4.84244 -0.579568 0
M  V30 6414 H 576.308 4.68396 -2.87898 0
M  V30 6415 H 577.533 5.82429 -3.49219 0
M  V30 6416 H 575.479 6.42381 -1.32974 0
M  V30 6417 H 575.396 6.94806 -2.97961 0
M  V30 6418 H 576.664 7.54662 -1.95206 0
M  V30 6419 N 580.893 1.08022 1.14757 0
M  V30 6420 C 581.841 0.701088 2.21783 0
M  V30 6421 C 582.835 -0.291311 1.66876 0
M  V30 6422 O 584.041 -0.154296 1.79337 0
M  V30 6423 H 580.416 0.208668 0.722469 0
M  V30 6424 H 582.387 1.61321 2.51034 0
M  V30 6425 C 581.136 0.122278 3.47485 0
M  V30 6426 H 580.459 0.877065 3.90061 0
M  V30 6427 H 581.899 -0.105248 4.23869 0
M  V30 6428 C 580.358 -1.13883 3.17068 0
M  V30 6429 O 580.888 -2.22429 3.34497 0
M  V30 6430 N 579.094 -1.04767 2.71058 0
M  V30 6431 H 578.641 -0.164302 2.57075 0
M  V30 6432 H 578.599 -1.89224 2.51081 0
M  V30 6433 N 582.371 -1.3172 0.865308 0
M  V30 6434 C 583.619 -1.96487 0.472995 0
M  V30 6435 C 583.94 -1.68761 -0.976975 0
M  V30 6436 O 583.21 -1.00051 -1.68424 0
M  V30 6437 H 581.79 -0.726947 0.171922 0
M  V30 6438 H 584.452 -1.60612 1.10407 0
M  V30 6439 H 583.548 -3.0574 0.62687 0
M  V30 6440 N 583.85 -0.624285 -1.44708 0
M  V30 6441 C 584.76 0.0861083 -2.34442 0
M  V30 6442 C 585.776 0.84291 -1.5222 0
M  V30 6443 O 586.952 0.796723 -1.84971 0
M  V30 6444 C 584.017 1.05999 -3.30099 0
M  V30 6445 C 583.077 0.303316 -4.28227 0
M  V30 6446 C 582.311 1.23081 -5.19314 0
M  V30 6447 O 582.534 2.46929 -5.14181 0
M  V30 6448 O 581.468 0.71883 -5.97592 0
M  V30 6449 H 585.293 -0.651756 -2.96624 0
M  V30 6450 H 582.879 -0.384493 -1.44368 0
M  V30 6451 H 584.76 1.62046 -3.88997 0
M  V30 6452 H 583.436 1.77859 -2.70459 0
M  V30 6453 H 582.343 -0.300033 -3.72895 0
M  V30 6454 H 583.676 -0.375123 -4.90768 0
M  V30 6455 N 585.328 1.53329 -0.364422 0
M  V30 6456 C 586.577 2.00421 0.226747 0
M  V30 6457 C 586.89 1.25581 1.49963 0
M  V30 6458 O 588.096 1.63256 2.16933 0
M  V30 6459 C 586.552 3.57017 0.454618 0
M  V30 6460 C 586.16 4.40734 -0.803568 0
M  V30 6461 C 587.904 4.12468 1.00351 0
M  V30 6462 C 585.811 5.8888 -0.545345 0
M  V30 6463 H 584.741 0.748787 0.0885082 0
M  V30 6464 H 587.392 1.7703 -0.482983 0
M  V30 6465 H 585.774 3.76558 1.22558 0
M  V30 6466 H 586.948 4.32967 -1.57723 0
M  V30 6467 H 585.263 3.96381 -1.27559 0
M  V30 6468 H 587.86 5.20783 1.212 0
M  V30 6469 H 588.203 3.6699 1.9653 0
M  V30 6470 H 588.736 3.96721 0.29274 0
M  V30 6471 H 585.475 6.38633 -1.47743 0
M  V30 6472 H 584.995 5.99499 0.189842 0
M  V30 6473 H 586.674 6.46776 -0.170425 0
M  V30 6474 N 586.806 0.0935595 1.57322 0
M  V30 6475 C 587.753 -0.865935 2.1394 0
M  V30 6476 C 588.723 -1.28083 1.05754 0
M  V30 6477 O 589.908 -1.36285 1.33533 0
M  V30 6478 C 587.048 -2.12023 2.72287 0
M  V30 6479 C 586.161 -1.756 3.94701 0
M  V30 6480 C 585.296 -2.95804 4.41218 0
M  V30 6481 C 584.335 -2.555 5.56225 0
M  V30 6482 N 583.472 -3.68534 5.97601 0
M  V30 6483 H 588.312 -0.376261 2.95615 0
M  V30 6484 H 585.849 -0.174052 1.46067 0
M  V30 6485 H 587.807 -2.85477 3.04235 0
M  V30 6486 H 586.437 -2.58492 1.93343 0
M  V30 6487 H 585.489 -0.921208 3.69077 0
M  V30 6488 H 586.801 -1.41964 4.78171 0
M  V30 6489 H 585.955 -3.77513 4.74941 0
M  V30 6490 H 584.694 -3.32649 3.56645 0
M  V30 6491 H 583.699 -1.72218 5.22131 0
M  V30 6492 H 584.924 -2.19801 6.42545 0
M  V30 6493 H 582.87 -4.051 5.15974 0
M  V30 6494 H 582.787 -3.38737 6.75865 0
M  V30 6495 H 584.055 -4.50757 6.35955 0
M  V30 6496 N 588.284 -1.56567 -0.180126 0
M  V30 6497 C 589.695 -1.7126 -0.743422 0
M  V30 6498 C 590.046 -0.70263 -1.83187 0
M  V30 6499 O 589.171 0.137856 -2.1596 0
M  V30 6500 C 589.766 -3.10512 -1.35528 0
M  V30 6501 C 588.325 -3.26919 -1.8655 0
M  V30 6502 C 587.472 -2.67213 -0.741099 0
M  V30 6503 H 590.423 -1.58636 0.0451543 0
M  V30 6504 H 590.444 -3.08673 -2.22489 0
M  V30 6505 H 589.956 -3.83997 -0.562862 0
M  V30 6506 H 588.057 -2.58376 -2.68464 0
M  V30 6507 H 588.17 -4.34574 -2.01699 0
M  V30 6508 H 586.534 -2.26788 -1.15927 0
M  V30 6509 H 587.317 -3.43277 0.0393291 0
M  V30 6510 N 589.762 0.448376 -1.51087 0
M  V30 6511 C 590.709 1.54341 -1.71603 0
M  V30 6512 C 591.679 1.56463 -0.557536 0
M  V30 6513 O 592.864 1.73644 -0.79072 0
M  V30 6514 C 590.004 2.92148 -1.83695 0
M  V30 6515 C 589.117 2.99639 -3.11192 0
M  V30 6516 C 588.252 4.285 -3.13944 0
M  V30 6517 C 587.291 4.29819 -4.35801 0
M  V30 6518 N 586.428 5.50186 -4.36164 0
M  V30 6519 H 591.268 1.36151 -2.65079 0
M  V30 6520 H 588.805 0.661585 -1.31383 0
M  V30 6521 H 590.763 3.72093 -1.88687 0
M  V30 6522 H 589.393 3.0892 -0.936374 0
M  V30 6523 H 588.445 2.12425 -3.15562 0
M  V30 6524 H 589.757 2.96474 -4.01129 0
M  V30 6525 H 588.911 5.16811 -3.17791 0
M  V30 6526 H 587.65 4.34307 -2.21876 0
M  V30 6527 H 586.655 3.39902 -4.32142 0
M  V30 6528 H 587.88 4.25685 -5.29121 0
M  V30 6529 H 585.826 5.56735 -3.46961 0
M  V30 6530 H 585.743 5.48856 -5.19897 0
M  V30 6531 H 587.011 6.40559 -4.44189 0
M  V30 6532 N 591.24 1.41047 0.703093 0
M  V30 6533 C 592.465 1.43537 1.49706 0
M  V30 6534 C 592.89 0.0401853 1.88057 0
M  V30 6535 O 592.248 -0.954785 1.54122 0
M  V30 6536 C 592.296 2.3433 2.74084 0
M  V30 6537 O 591.4 1.79515 3.71279 0
M  V30 6538 H 590.741 0.487454 0.450871 0
M  V30 6539 H 593.271 1.85422 0.86486 0
M  V30 6540 H 593.281 2.49947 3.22476 0
M  V30 6541 H 591.956 3.35708 2.45506 0
M  V30 6542 H 590.533 1.7331 3.30179 0
M  V30 6543 N 592.718 -0.936591 1.26751 0
M  V30 6544 C 594.134 -1.21095 1.03963 0
M  V30 6545 C 594.334 -2.00156 -0.232372 0
M  V30 6546 O 593.39 -2.3434 -0.940274 0
M  V30 6547 C 594.703 -1.96775 2.27377 0
M  V30 6548 C 596.251 -2.09749 2.32324 0
M  V30 6549 C 596.726 -2.88832 3.55443 0
M  V30 6550 N 598.217 -2.96404 3.55948 0
M  V30 6551 C 598.952 -3.58036 4.47881 0
M  V30 6552 N 598.448 -4.21132 5.50109 0
M  V30 6553 N 600.241 -3.55353 4.35523 0
M  V30 6554 H 592.392 -0.408173 2.08441 0
M  V30 6555 H 594.655 -0.243139 0.91629 0
M  V30 6556 H 594.361 -1.46094 3.19921 0
M  V30 6557 H 594.235 -2.97424 2.31989 0
M  V30 6558 H 596.622 -2.5962 1.40291 0
M  V30 6559 H 596.703 -1.08347 2.31721 0
M  V30 6560 H 596.347 -2.39647 4.47808 0
M  V30 6561 H 596.277 -3.90499 3.53296 0
M  V30 6562 H 598.768 -2.51552 2.82011 0
M  V30 6563 H 599.081 -4.66071 6.16439 0
M  V30 6564 H 597.426 -4.19705 5.53961 0
M  V30 6565 H 600.617 -3.05256 3.54875 0
M  V30 6566 H 600.79 -4.03097 5.07363 0
M  V30 6567 N 594.196 -1.08629 -1.14182 0
M  V30 6568 C 595.612 -0.814363 -1.3726 0
M  V30 6569 C 595.812 0.575271 -1.93114 0
M  V30 6570 O 594.868 1.33165 -2.1453 0
M  V30 6571 C 596.181 -1.8989 -2.33157 0
M  V30 6572 C 597.729 -1.92518 -2.46791 0
M  V30 6573 C 598.204 -3.00092 -3.45989 0
M  V30 6574 N 599.695 -2.99279 -3.53534 0
M  V30 6575 C 600.43 -3.79158 -4.30147 0
M  V30 6576 N 599.926 -4.68923 -5.09983 0
M  V30 6577 N 601.719 -3.67451 -4.25366 0
M  V30 6578 H 593.87 -1.98232 -0.762758 0
M  V30 6579 H 596.133 -0.860383 -0.398051 0
M  V30 6580 H 595.839 -2.89809 -1.99257 0
M  V30 6581 H 595.713 -1.77013 -3.33086 0
M  V30 6582 H 598.1 -0.932425 -2.79982 0
M  V30 6583 H 598.181 -2.09473 -1.46816 0
M  V30 6584 H 597.825 -3.99575 -3.13532 0
M  V30 6585 H 597.755 -2.80382 -4.45751 0
M  V30 6586 H 600.246 -2.3422 -2.96563 0
M  V30 6587 H 600.559 -5.26475 -5.65724 0
M  V30 6588 H 598.904 -4.72964 -5.09244 0
M  V30 6589 H 602.095 -2.9669 -3.62067 0
M  V30 6590 H 602.268 -4.29944 -4.84822 0
M  V30 6591 N 595.674 1.31259 -0.872281 0
M  V30 6592 C 597.09 1.49283 -0.564521 0
M  V30 6593 C 597.29 1.80243 0.900807 0
M  V30 6594 O 596.346 1.88246 1.68284 0
M  V30 6595 C 597.659 2.62503 -1.46673 0
M  V30 6596 C 599.207 2.76386 -1.46901 0
M  V30 6597 C 599.682 3.92705 -2.35684 0
M  V30 6598 N 601.173 3.99995 -2.33577 0
M  V30 6599 C 601.908 4.89276 -2.98992 0
M  V30 6600 N 601.404 5.83443 -3.73585 0
M  V30 6601 N 603.197 4.82541 -2.88289 0
M  V30 6602 H 595.348 1.09432 -1.82039 0
M  V30 6603 H 597.611 0.540949 -0.77851 0
M  V30 6604 H 597.317 2.46407 -2.50951 0
M  V30 6605 H 597.191 3.58695 -1.16696 0
M  V30 6606 H 599.578 2.91894 -0.433796 0
M  V30 6607 H 599.659 1.80853 -1.80903 0
M  V30 6608 H 599.303 3.77954 -3.39283 0
M  V30 6609 H 599.233 4.87549 -1.99006 0
M  V30 6610 H 601.724 3.32624 -1.7936 0
M  V30 6611 H 602.037 6.48303 -4.20622 0
M  V30 6612 H 600.382 5.83415 -3.77694 0
M  V30 6613 H 603.573 4.07951 -2.2955 0
M  V30 6614 H 603.746 5.51916 -3.39549 0
M  V30 6615 N 597.152 0.631951 1.44375 0
M  V30 6616 C 598.398 0.145491 2.02879 0
M  V30 6617 C 598.753 -1.21936 1.48827 0
M  V30 6618 O 598.046 -1.7976 0.663085 0
M  V30 6619 C 598.24 0.0735861 3.57324 0
M  V30 6620 C 598.069 1.42992 4.2636 0
M  V30 6621 C 596.839 2.01691 4.63302 0
M  V30 6622 C 599.037 2.36393 4.56752 0
M  V30 6623 N 597.019 3.30551 5.17309 0
M  V30 6624 C 598.39 3.49869 5.11851 0
M  V30 6625 C 600.445 2.35462 4.38705 0
M  V30 6626 C 599.148 4.6261 5.50803 0
M  V30 6627 C 601.174 3.47268 4.78706 0
M  V30 6628 C 600.536 4.59467 5.33919 0
M  V30 6629 H 596.635 0.0971781 0.775938 0
M  V30 6630 H 599.219 0.835624 1.75856 0
M  V30 6631 H 597.39 -0.585829 3.83957 0
M  V30 6632 H 599.122 -0.421777 4.02496 0
M  V30 6633 H 595.877 1.54627 4.47647 0
M  V30 6634 H 596.301 3.96435 5.48788 0
M  V30 6635 H 600.943 1.49966 3.9531 0
M  V30 6636 H 598.661 5.48813 5.93152 0
M  V30 6637 H 602.247 3.47724 4.66454 0
M  V30 6638 H 601.127 5.44551 5.64299 0
M  V30 6639 N 598.631 -1.53133 0.372548 0
M  V30 6640 C 599.879 -2.00958 -0.214534 0
M  V30 6641 C 600.2 -1.26135 -1.48711 0
M  V30 6642 O 599.47 -0.376597 -1.92246 0
M  V30 6643 H 598.05 -0.742456 -0.0822664 0
M  V30 6644 H 600.712 -1.88367 0.500385 0
M  V30 6645 H 599.808 -3.09031 -0.436605 0
M  V30 6646 N 600.109 -0.101901 -1.5727 0
M  V30 6647 C 601.039 0.851544 -2.17419 0
M  V30 6648 C 602.02 1.28942 -1.10941 0
M  V30 6649 O 603.205 1.35509 -1.39107 0
M  V30 6650 C 600.335 2.10816 -2.75996 0
M  V30 6651 C 599.289 1.80867 -3.87906 0
M  V30 6652 C 598.615 3.13413 -4.33216 0
M  V30 6653 C 599.915 1.0903 -5.10793 0
M  V30 6654 H 601.609 0.350381 -2.97343 0
M  V30 6655 H 599.155 0.16709 -1.43027 0
M  V30 6656 H 601.108 2.77959 -3.16729 0
M  V30 6657 H 599.832 2.63227 -1.93337 0
M  V30 6658 H 598.491 1.16119 -3.47724 0
M  V30 6659 H 598.139 3.63725 -3.47438 0
M  V30 6660 H 597.839 2.94155 -5.08671 0
M  V30 6661 H 599.363 3.81704 -4.76586 0
M  V30 6662 H 600.777 1.66295 -5.48652 0
M  V30 6663 H 599.174 0.99927 -5.91722 0
M  V30 6664 H 600.244 0.0741704 -4.84843 0
M  V30 6665 N 601.587 1.56661 0.17182 0
M  V30 6666 C 602.836 1.81158 0.886831 0
M  V30 6667 C 603.149 0.679072 1.83434 0
M  V30 6668 O 604.355 0.808964 2.59168 0
M  V30 6669 C 602.811 3.20999 1.6275 0
M  V30 6670 C 602.419 4.42117 0.723652 0
M  V30 6671 C 604.163 3.5479 2.33076 0
M  V30 6672 C 602.07 5.7298 1.46452 0
M  V30 6673 H 601 0.675543 0.334899 0
M  V30 6674 H 603.651 1.82967 0.139765 0
M  V30 6675 H 602.033 3.13506 2.4193 0
M  V30 6676 H 603.207 4.60789 -0.0311485 0
M  V30 6677 H 601.522 4.16197 0.130063 0
M  V30 6678 H 604.119 4.49806 2.89099 0
M  V30 6679 H 604.462 2.79646 3.08389 0
M  V30 6680 H 604.995 3.63834 1.6084 0
M  V30 6681 H 601.734 6.51152 0.753729 0
M  V30 6682 H 601.254 5.58285 2.19266 0
M  V30 6683 H 602.933 6.14916 2.01214 0
M  V30 6684 N 603.065 -0.440357 1.51323 0
M  V30 6685 C 604.29 -1.21716 1.67928 0
M  V30 6686 C 604.715 -1.84328 0.374826 0
M  V30 6687 O 604.073 -1.68675 -0.664706 0
M  V30 6688 C 604.121 -2.27914 2.79442 0
M  V30 6689 O 603.225 -3.33325 2.42834 0
M  V30 6690 H 602.566 -0.35674 0.560029 0
M  V30 6691 H 605.096 -0.520417 1.97871 0
M  V30 6692 H 605.106 -2.72746 3.03436 0
M  V30 6693 H 603.781 -1.8172 3.741 0
M  V30 6694 H 602.358 -2.9399 2.294 0
M  V30 6695 N 604.543 -1.41418 -0.695603 0
M  V30 6696 C 605.959 -1.23887 -1.00619 0
M  V30 6697 C 606.159 -0.128206 -2.01092 0
M  V30 6698 O 605.215 0.507408 -2.47349 0
M  V30 6699 C 606.528 -2.58816 -1.53083 0
M  V30 6700 C 608.076 -2.65998 -1.64967 0
M  V30 6701 C 608.551 -4.01244 -2.20833 0
M  V30 6702 N 610.042 -4.0309 -2.28194 0
M  V30 6703 C 610.777 -5.04539 -2.72448 0
M  V30 6704 N 610.273 -6.16378 -3.16306 0
M  V30 6705 N 612.066 -4.91901 -2.72011 0
M  V30 6706 H 604.217 -2.12379 -0.0300061 0
M  V30 6707 H 606.48 -0.944958 -0.0758797 0
M  V30 6708 H 606.186 -3.40842 -0.867147 0
M  V30 6709 H 606.06 -2.81299 -2.51298 0
M  V30 6710 H 608.447 -1.84331 -2.30448 0
M  V30 6711 H 608.528 -2.47325 -0.652982 0
M  V30 6712 H 608.172 -4.83359 -1.55968 0
M  V30 6713 H 608.102 -4.17257 -3.21254 0
M  V30 6714 H 610.593 -3.22341 -1.97242 0
M  V30 6715 H 610.906 -6.89658 -3.487 0
M  V30 6716 H 609.251 -6.19914 -3.14215 0
M  V30 6717 H 612.442 -4.03613 -2.37095 0
M  V30 6718 H 612.615 -5.71102 -3.06181 0
M  V30 6719 N 606.021 0.929856 -1.27246 0
M  V30 6720 C 607.246 1.71674 -1.16374 0
M  V30 6721 C 607.671 1.86064 0.276024 0
M  V30 6722 O 607.029 1.3591 1.19992 0
M  V30 6723 C 607.077 3.09526 -1.85003 0
M  V30 6724 O 606.181 3.96142 -1.14653 0
M  V30 6725 H 605.522 0.52629 -0.404863 0
M  V30 6726 H 608.052 1.16381 -1.68276 0
M  V30 6727 H 608.062 3.59852 -1.92276 0
M  V30 6728 H 606.737 2.98369 -2.89739 0
M  V30 6729 H 605.314 3.54584 -1.15433 0
M  V30 6730 N 607.499 1.09233 1.13605 0
M  V30 6731 C 608.727 0.848908 1.88683 0
M  V30 6732 C 609.142 -0.599667 1.79024 0
M  V30 6733 O 608.499 -1.41265 1.15544 0
M  V30 6734 C 608.55 1.27273 3.38355 0
M  V30 6735 O 608.271 2.66449 3.47759 0
M  V30 6736 C 609.772 1.0614 4.30406 0
M  V30 6737 H 606.992 0.305549 0.597395 0
M  V30 6738 H 609.536 1.4538 1.43823 0
M  V30 6739 H 607.691 0.711776 3.80805 0
M  V30 6740 H 608.105 2.84264 4.40788 0
M  V30 6741 H 609.579 1.40725 5.33761 0
M  V30 6742 H 610.056 -0.000960332 4.392 0
M  V30 6743 H 610.662 1.60821 3.93722 0
M  V30 6744 N 608.977 -1.30795 0.87923 0
M  V30 6745 C 609.924 -2.28282 0.339968 0
M  V30 6746 C 610.894 -1.56134 -0.566685 0
M  V30 6747 O 612.079 -1.84231 -0.496338 0
M  V30 6748 C 609.219 -3.42225 -0.444501 0
M  V30 6749 C 608.332 -4.29204 0.490717 0
M  V30 6750 C 607.467 -5.30302 -0.308784 0
M  V30 6751 C 606.506 -6.08929 0.622272 0
M  V30 6752 N 605.643 -7.01957 -0.14155 0
M  V30 6753 H 610.483 -2.73794 1.17647 0
M  V30 6754 H 608.02 -1.34682 0.591527 0
M  V30 6755 H 609.978 -4.07038 -0.915186 0
M  V30 6756 H 608.608 -2.97799 -1.24562 0
M  V30 6757 H 607.66 -3.6475 1.07988 0
M  V30 6758 H 608.972 -4.84045 1.20425 0
M  V30 6759 H 608.126 -6.00835 -0.841575 0
M  V30 6760 H 606.865 -4.7614 -1.05556 0
M  V30 6761 H 605.87 -5.37278 1.16674 0
M  V30 6762 H 607.095 -6.65178 1.36804 0
M  V30 6763 H 605.041 -6.50192 -0.870966 0
M  V30 6764 H 604.958 -7.54261 0.51246 0
M  V30 6765 H 606.226 -7.76741 -0.655271 0
M  V30 6766 N 610.455 -0.639598 -1.44038 0
M  V30 6767 C 611.732 -0.078012 -1.95444 0
M  V30 6768 C 612.112 1.39847 -1.58133 0
M  V30 6769 O 611.46 2.11714 -0.859614 0
M  V30 6770 C 611.67 -0.309832 -3.47622 0
M  V30 6771 C 613.018 -0.207521 -4.24093 0
M  V30 6772 O 614.042 -0.241653 -3.55379 0
M  V30 6773 O 612.901 -0.119641 -5.46369 0
M  V30 6774 H 609.995 0.0174534 -0.826816 0
M  V30 6775 H 612.541 -0.711891 -1.54046 0
M  V30 6776 H 611.313 -1.33401 -3.67858 0
M  V30 6777 H 610.936 0.357777 -3.95987 0
M  V30 6778 N 611.933 1.52934 -0.380664 0
M  V30 6779 C 613.158 2.06363 0.207157 0
M  V30 6780 C 613.583 1.25122 1.4045 0
M  V30 6781 O 612.941 0.274062 1.79217 0
M  V30 6782 C 612.989 3.56162 0.563996 0
M  V30 6783 O 612.093 3.77552 1.65917 0
M  V30 6784 H 611.434 0.663468 0.0265859 0
M  V30 6785 H 613.964 1.9719 -0.545635 0
M  V30 6786 H 613.974 3.99453 0.830752 0
M  V30 6787 H 612.649 4.14732 -0.311427 0
M  V30 6788 H 611.226 3.46154 1.3868 0
M  V30 6789 N 613.412 0.11024 1.57214 0
M  V30 6790 C 614.689 -0.592956 1.86396 0
M  V30 6791 C 615.069 -1.85379 1.00985 0
M  V30 6792 O 614.417 -2.28337 0.0863592 0
M  V30 6793 C 614.627 -0.893816 3.3736 0
M  V30 6794 C 615.975 -1.25069 4.05762 0
M  V30 6795 O 616.999 -0.984356 3.42329 0
M  V30 6796 O 615.858 -1.75017 5.17718 0
M  V30 6797 H 612.952 -0.29828 0.771335 0
M  V30 6798 H 615.498 0.144083 1.69087 0
M  V30 6799 H 614.27 2.6031e-05 3.913 0
M  V30 6800 H 613.893 -1.68631 3.60068 0
M  V30 6801 N 614.89 -1.56749 -0.16351 0
M  V30 6802 C 616.167 -1.73321 -0.906599 0
M  V30 6803 C 616.547 -0.673779 -2.00059 0
M  V30 6804 O 615.895 0.310121 -2.26386 0
M  V30 6805 C 616.105 -3.168 -1.46419 0
M  V30 6806 C 617.453 -3.77993 -1.93407 0
M  V30 6807 O 618.477 -3.20127 -1.56196 0
M  V30 6808 O 617.336 -4.79615 -2.61976 0
M  V30 6809 H 614.43 -0.708073 -0.427272 0
M  V30 6810 H 616.976 -1.69029 -0.150727 0
M  V30 6811 H 615.748 -3.85396 -0.677189 0
M  V30 6812 H 615.371 -3.2545 -2.28403 0
M  V30 6813 N 616.368 0.432326 -1.51554 0
M  V30 6814 C 617.614 1.17997 -1.65675 0
M  V30 6815 C 617.969 1.88794 -0.37076 0
M  V30 6816 O 617.262 1.80817 0.633692 0
M  V30 6817 C 617.456 2.21907 -2.80164 0
M  V30 6818 C 617.285 1.6131 -4.19773 0
M  V30 6819 C 616.055 1.39585 -4.85638 0
M  V30 6820 C 618.253 1.08659 -5.0269 0
M  V30 6821 N 616.235 0.746374 -6.09346 0
M  V30 6822 C 617.606 0.562685 -6.17441 0
M  V30 6823 C 619.661 0.978831 -4.88184 0
M  V30 6824 C 618.364 -0.0584015 -7.19276 0
M  V30 6825 C 620.39 0.371631 -5.90231 0
M  V30 6826 C 619.752 -0.141711 -7.04257 0
M  V30 6827 H 615.851 0.419277 -0.660099 0
M  V30 6828 H 618.435 0.475809 -1.88797 0
M  V30 6829 H 616.606 2.89706 -2.58698 0
M  V30 6830 H 618.338 2.88867 -2.8344 0
M  V30 6831 H 615.093 1.65897 -4.43593 0
M  V30 6832 H 615.517 0.438934 -6.75576 0
M  V30 6833 H 620.159 1.36157 -4.00276 0
M  V30 6834 H 617.877 -0.453262 -8.06828 0
M  V30 6835 H 621.463 0.290086 -5.81076 0
M  V30 6836 H 620.343 -0.60417 -7.81869 0
M  V30 6837 N 617.846 1.41785 0.688094 0
M  V30 6838 C 618.809 1.43936 1.78368 0
M  V30 6839 C 619.809 0.328866 1.57401 0
M  V30 6840 O 620.999 0.589093 1.63937 0
M  V30 6841 C 618.131 1.25804 3.16838 0
M  V30 6842 H 619.324 2.41472 1.77852 0
M  V30 6843 H 616.877 1.28037 0.896448 0
M  V30 6844 H 617.612 0.291386 3.22988 0
M  V30 6845 H 617.397 2.06272 3.33458 0
M  V30 6846 H 618.887 1.30162 3.96797 0
M  V30 6847 N 619.324 -0.923095 1.27737 0
M  V30 6848 C 620.601 -1.64989 1.05062 0
M  V30 6849 C 620.981 -2.07018 -0.413124 0
M  V30 6850 O 620.329 -1.80797 -1.39731 0
M  V30 6851 C 620.539 -2.84847 2.01652 0
M  V30 6852 C 621.887 -3.56083 2.31279 0
M  V30 6853 O 622.911 -2.94981 1.99662 0
M  V30 6854 O 621.77 -4.66182 2.85196 0
M  V30 6855 H 618.864 -0.723357 0.400853 0
M  V30 6856 H 621.41 -0.973224 1.3902 0
M  V30 6857 H 620.182 -2.50814 3.00347 0
M  V30 6858 H 619.805 -3.60231 1.68284 0
M  V30 6859 N 620.802 -1.09834 -1.13024 0
M  V30 6860 C 621.732 -0.763451 -2.20666 0
M  V30 6861 C 622.713 0.260778 -1.68089 0
M  V30 6862 O 623.898 0.127915 -1.93778 0
M  V30 6863 C 621.028 -0.187744 -3.46792 0
M  V30 6864 C 619.982 -1.14196 -4.12484 0
M  V30 6865 C 619.308 -0.427755 -5.32986 0
M  V30 6866 C 620.608 -2.48607 -4.59338 0
M  V30 6867 H 622.302 -1.66347 -2.48936 0
M  V30 6868 H 619.848 -0.801261 -1.19649 0
M  V30 6869 H 621.801 0.0586375 -4.21359 0
M  V30 6870 H 620.525 0.747485 -3.17931 0
M  V30 6871 H 619.184 -1.37369 -3.3989 0
M  V30 6872 H 618.832 0.511747 -5.0039 0
M  V30 6873 H 618.532 -1.06403 -5.77886 0
M  V30 6874 H 620.056 -0.189772 -6.10305 0
M  V30 6875 H 621.47 -2.29618 -5.25308 0
M  V30 6876 H 619.867 -3.08062 -5.14993 0
M  V30 6877 H 620.937 -3.09062 -3.73642 0
M  V30 6878 N 622.28 1.30327 -0.886154 0
M  V30 6879 C 623.557 1.90922 -0.425217 0
M  V30 6880 C 623.937 1.80533 1.09413 0
M  V30 6881 O 623.285 1.2233 1.92996 0
M  V30 6882 C 623.495 3.36529 -0.924638 0
M  V30 6883 C 624.843 4.13598 -0.960305 0
M  V30 6884 O 625.867 3.45377 -0.871382 0
M  V30 6885 O 624.726 5.35482 -1.09184 0
M  V30 6886 H 621.82 0.81668 -0.130238 0
M  V30 6887 H 624.366 1.38886 -0.975132 0
M  V30 6888 H 623.138 3.38181 -1.96849 0
M  V30 6889 H 622.761 3.96021 -0.353955 0
M  V30 6890 N 623.758 0.647228 1.43697 0
M  V30 6891 C 625.035 0.0883758 1.954 0
M  V30 6892 C 625.415 -1.39006 1.58873 0
M  V30 6893 O 624.763 -2.11255 0.87083 0
M  V30 6894 C 624.973 0.328263 3.47453 0
M  V30 6895 C 626.321 0.230009 4.23977 0
M  V30 6896 O 627.345 0.260496 3.55246 0
M  V30 6897 O 626.204 0.148615 5.46298 0
M  V30 6898 H 623.298 -0.0130683 0.826897 0
M  V30 6899 H 625.844 0.72005 1.53666 0
M  V30 6900 H 624.616 1.3535 3.67146 0
M  V30 6901 H 624.239 -0.336772 3.96171 0
M  V30 6902 N 625.236 -1.5273 0.388769 0
M  V30 6903 C 626.166 -2.29353 -0.438111 0
M  V30 6904 C 627.147 -1.32719 -1.06394 0
M  V30 6905 O 628.332 -1.61612 -1.07681 0
M  V30 6906 C 625.462 -3.09995 -1.56589 0
M  V30 6907 C 624.416 -4.14509 -1.06613 0
M  V30 6908 C 623.742 -4.83372 -2.28594 0
M  V30 6909 C 625.042 -5.22127 -0.134459 0
M  V30 6910 H 626.736 -2.98723 0.201206 0
M  V30 6911 H 624.282 -1.43665 0.0982089 0
M  V30 6912 H 626.235 -3.62357 -2.15118 0
M  V30 6913 H 624.959 -2.38357 -2.23279 0
M  V30 6914 H 623.618 -3.63128 -0.503383 0
M  V30 6915 H 623.266 -4.08283 -2.93792 0
M  V30 6916 H 622.966 -5.54012 -1.95817 0
M  V30 6917 H 624.49 -5.38538 -2.87766 0
M  V30 6918 H 625.904 -5.69851 -0.627914 0
M  V30 6919 H 624.301 -6.00011 0.103534 0
M  V30 6920 H 625.371 -4.77971 0.816798 0
M  V30 6921 N 626.714 -0.118576 -1.57153 0
M  V30 6922 C 627.991 0.583062 -1.86708 0
M  V30 6923 C 628.371 1.84841 -1.01967 0
M  V30 6924 O 627.719 2.28288 -0.0984673 0
M  V30 6925 C 627.929 0.875912 -3.3783 0
M  V30 6926 C 629.277 1.22916 -4.0642 0
M  V30 6927 O 630.301 0.966188 -3.42846 0
M  V30 6928 O 629.16 1.72269 -5.18638 0
M  V30 6929 H 626.254 0.294185 -0.772906 0
M  V30 6930 H 628.8 -0.153048 -1.69008 0
M  V30 6931 H 627.572 -0.0207776 -3.91294 0
M  V30 6932 H 627.195 1.66719 -3.60958 0
M  V30 6933 N 628.193 1.56834 0.155195 0
M  V30 6934 C 629.44 1.82898 0.869179 0
M  V30 6935 C 629.768 0.698194 1.81537 0
M  V30 6936 O 629.023 -0.313404 1.93174 0
M  V30 6937 C 629.322 3.15239 1.68402 0
M  V30 6938 C 628.988 4.42123 0.885341 0
M  V30 6939 C 627.65 4.76583 0.664971 0
M  V30 6940 C 630.002 5.20178 0.326234 0
M  V30 6941 C 627.33 5.86566 -0.125346 0
M  V30 6942 C 629.682 6.3099 -0.45108 0
M  V30 6943 C 628.346 6.64006 -0.682102 0
M  V30 6944 H 627.616 0.66927 0.318055 0
M  V30 6945 H 630.263 1.91036 0.133241 0
M  V30 6946 H 628.568 3.02515 2.48982 0
M  V30 6947 H 630.265 3.32618 2.23978 0
M  V30 6948 H 626.855 4.15102 1.06716 0
M  V30 6949 H 631.039 4.93936 0.483787 0
M  V30 6950 H 626.295 6.10594 -0.313915 0
M  V30 6951 H 630.469 6.9067 -0.89149 0
M  V30 6952 H 628.096 7.49065 -1.29636 0
M  V30 6953 N 629.671 -0.424282 1.51781 0
M  V30 6954 C 630.896 -1.19928 1.6921 0
M  V30 6955 C 631.321 -1.8392 0.394355 0
M  V30 6956 O 630.679 -1.69371 -0.646778 0
M  V30 6957 C 630.727 -2.24937 2.81843 0
M  V30 6958 O 629.831 -3.3073 2.46356 0
M  V30 6959 H 629.172 -0.35078 0.563781 0
M  V30 6960 H 631.702 -0.499401 1.98412 0
M  V30 6961 H 631.712 -2.69512 3.06312 0
M  V30 6962 H 630.387 -1.77742 3.76006 0
M  V30 6963 H 628.964 -2.9154 2.32505 0
M  V30 6964 N 631.149 -1.42148 -0.680565 0
M  V30 6965 C 632.56 -1.3768 -1.26099 0
M  V30 6966 C 632.911 -0.0672348 -1.96085 0
M  V30 6967 O 632.036 0.834172 -1.99676 0
M  V30 6968 C 632.631 -2.49387 -2.29328 0
M  V30 6969 C 631.19 -2.4827 -2.82911 0
M  V30 6970 C 630.337 -2.2847 -1.57152 0
M  V30 6971 H 633.288 -1.51446 -0.474326 0
M  V30 6972 H 633.309 -2.19307 -3.10941 0
M  V30 6973 H 632.821 -3.44686 -1.78363 0
M  V30 6974 H 630.922 -1.56773 -3.38013 0
M  V30 6975 H 631.035 -3.45109 -3.3232 0
M  V30 6976 H 629.399 -1.76623 -1.83511 0
M  V30 6977 H 630.182 -3.25816 -1.0816 0
M  V30 6978 N 632.627 0.916307 -1.28225 0
M  V30 6979 C 633.852 1.7043 -1.18188 0
M  V30 6980 C 634.277 1.86346 0.256274 0
M  V30 6981 O 633.635 1.37175 1.18544 0
M  V30 6982 C 633.683 3.07546 -1.88275 0
M  V30 6983 O 632.787 3.94904 -1.18848 0
M  V30 6984 H 632.128 0.521967 -0.410423 0
M  V30 6985 H 634.658 1.14589 -1.69501 0
M  V30 6986 H 634.668 3.57793 -1.96082 0
M  V30 6987 H 633.343 2.95279 -2.92887 0
M  V30 6988 H 631.92 3.53339 -1.19187 0
M  V30 6989 N 634.105 1.10431 1.1244 0
M  V30 6990 C 635.035 0.775143 2.20258 0
M  V30 6991 C 636.016 -0.25186 1.68225 0
M  V30 6992 O 637.201 -0.117637 1.93843 0
M  V30 6993 C 634.331 0.206133 3.46688 0
M  V30 6994 C 633.285 1.16382 4.11873 0
M  V30 6995 C 632.611 0.456014 5.32752 0
M  V30 6996 C 633.911 2.5104 4.58013 0
M  V30 6997 H 635.605 1.67665 2.4805 0
M  V30 6998 H 633.151 0.807595 1.19222 0
M  V30 6999 H 635.104 -0.036291 4.21384 0
M  V30 7000 H 633.828 -0.730614 3.18323 0
M  V30 7001 H 632.487 1.39169 3.39157 0
M  V30 7002 H 632.135 -0.485203 5.00654 0
M  V30 7003 H 631.835 1.09466 5.77314 0
M  V30 7004 H 633.359 0.222135 6.10196 0
M  V30 7005 H 634.773 2.32401 5.24083 0
M  V30 7006 H 633.17 3.10789 5.13352 0
M  V30 7007 H 634.24 3.11039 3.71998 0
M  V30 7008 N 635.583 -1.29855 0.893053 0
M  V30 7009 C 636.808 -2.00512 0.530066 0
M  V30 7010 C 637.233 -1.66446 -0.876199 0
M  V30 7011 O 636.591 -0.885446 -1.58207 0
M  V30 7012 C 636.639 -3.53308 0.721505 0
M  V30 7013 O 635.743 -4.11764 -0.228994 0
M  V30 7014 H 635.084 -0.630617 0.207891 0
M  V30 7015 H 637.614 -1.6551 1.20282 0
M  V30 7016 H 637.624 -4.03206 0.623599 0
M  V30 7017 H 636.299 -3.77439 1.74678 0
M  V30 7018 H 634.876 -3.72805 -0.0841034 0
M  V30 7019 N 637.061 -0.65484 -1.43351 0
M  V30 7020 C 638.477 -0.32255 -1.56307 0
M  V30 7021 C 638.677 1.17324 -1.63821 0
M  V30 7022 O 637.733 1.95813 -1.59417 0
M  V30 7023 C 639.046 -1.03533 -2.82314 0
M  V30 7024 C 640.594 -1.01574 -2.9606 0
M  V30 7025 C 641.069 -1.70945 -4.24902 0
M  V30 7026 N 642.56 -1.67716 -4.3177 0
M  V30 7027 C 643.295 -2.18265 -5.30234 0
M  V30 7028 N 642.791 -2.7711 -6.34966 0
M  V30 7029 N 644.584 -2.08756 -5.21898 0
M  V30 7030 H 636.735 -1.62549 -1.36717 0
M  V30 7031 H 638.998 -0.683676 -0.656727 0
M  V30 7032 H 638.704 -2.09045 -2.8283 0
M  V30 7033 H 638.578 -0.587913 -3.7259 0
M  V30 7034 H 640.965 0.0309834 -2.95084 0
M  V30 7035 H 641.046 -1.50186 -2.07069 0
M  V30 7036 H 640.69 -2.75574 -4.26639 0
M  V30 7037 H 640.62 -1.19797 -5.12793 0
M  V30 7038 H 643.111 -1.24777 -3.56706 0
M  V30 7039 H 643.424 -3.13353 -7.06421 0
M  V30 7040 H 641.769 -2.81171 -6.35585 0
M  V30 7041 H 644.96 -1.62488 -4.38994 0
M  V30 7042 H 645.133 -2.48459 -5.98475 0
M  V30 7043 N 638.539 1.52521 -0.396863 0
M  V30 7044 C 639.788 2.00857 0.184184 0
M  V30 7045 C 640.101 1.28733 1.47265 0
M  V30 7046 O 641.307 1.67821 2.13421 0
M  V30 7047 C 639.763 3.57901 0.378787 0
M  V30 7048 C 639.371 4.38931 -0.896873 0
M  V30 7049 C 641.115 4.14504 0.915789 0
M  V30 7050 C 639.022 5.87591 -0.670133 0
M  V30 7051 H 637.952 0.750496 0.0726055 0
M  V30 7052 H 640.603 1.75965 -0.520425 0
M  V30 7053 H 638.985 3.79072 1.14543 0
M  V30 7054 H 640.159 4.29524 -1.66872 0
M  V30 7055 H 638.474 3.93586 -1.35938 0
M  V30 7056 H 641.071 5.23236 1.10126 0
M  V30 7057 H 641.414 3.71076 1.88701 0
M  V30 7058 H 641.947 3.97253 0.208523 0
M  V30 7059 H 638.686 6.35355 -1.61257 0
M  V30 7060 H 638.206 5.99767 0.0626368 0
M  V30 7061 H 639.885 6.46268 -0.307577 0
M  V30 7062 N 640.017 0.126909 1.57088 0
M  V30 7063 C 641.294 -0.573152 1.87014 0
M  V30 7064 C 641.674 -1.84297 1.02945 0
M  V30 7065 O 641.022 -2.28232 0.110573 0
M  V30 7066 C 641.232 -0.857984 3.38289 0
M  V30 7067 C 642.58 -1.20759 4.07066 0
M  V30 7068 O 643.604 -0.947992 3.43353 0
M  V30 7069 O 642.463 -1.69516 5.19545 0
M  V30 7070 H 639.557 -0.290082 0.774456 0
M  V30 7071 H 642.103 0.162008 1.68925 0
M  V30 7072 H 640.875 0.0415286 3.91278 0
M  V30 7073 H 640.498 -1.64803 3.61837 0
M  V30 7074 N 641.495 -1.56914 -0.146875 0
M  V30 7075 C 642.425 -2.01308 -1.1831 0
M  V30 7076 C 643.406 -0.892664 -1.44795 0
M  V30 7077 O 644.591 -1.16048 -1.55713 0
M  V30 7078 C 641.721 -2.3938 -2.51624 0
M  V30 7079 C 640.675 -3.54608 -2.3966 0
M  V30 7080 C 640.001 -3.78493 -3.77686 0
M  V30 7081 C 641.301 -4.87269 -1.88058 0
M  V30 7082 H 642.995 -2.88123 -0.813964 0
M  V30 7083 H 640.541 -1.38615 -0.3901 0
M  V30 7084 H 642.494 -2.69037 -3.24341 0
M  V30 7085 H 641.218 -1.49502 -2.90373 0
M  V30 7086 H 639.877 -3.25116 -1.69396 0
M  V30 7087 H 639.525 -2.85866 -4.13871 0
M  V30 7088 H 639.225 -4.56039 -3.70543 0
M  V30 7089 H 640.749 -4.10576 -4.51951 0
M  V30 7090 H 642.163 -5.15644 -2.50568 0
M  V30 7091 H 640.56 -5.68622 -1.91805 0
M  V30 7092 H 641.63 -4.77634 -0.836277 0
M  V30 7093 N 642.974 0.416227 -1.52004 0
M  V30 7094 C 643.921 1.50666 -1.74838 0
M  V30 7095 C 644.891 1.55245 -0.590599 0
M  V30 7096 O 646.076 1.71928 -0.827374 0
M  V30 7097 C 643.216 2.88185 -1.89851 0
M  V30 7098 C 642.329 2.92971 -3.17478 0
M  V30 7099 C 641.464 4.21745 -3.22962 0
M  V30 7100 C 640.503 4.20478 -4.4482 0
M  V30 7101 N 639.64 5.40811 -4.47736 0
M  V30 7102 H 644.48 1.30498 -2.67907 0
M  V30 7103 H 642.017 0.633568 -1.32757 0
M  V30 7104 H 643.975 3.68007 -1.96537 0
M  V30 7105 H 642.605 3.06865 -1.00169 0
M  V30 7106 H 641.657 2.05684 -3.19997 0
M  V30 7107 H 642.969 2.87899 -4.07328 0
M  V30 7108 H 642.123 5.09954 -3.28682 0
M  V30 7109 H 640.862 4.29503 -2.31038 0
M  V30 7110 H 639.867 3.30659 -4.39254 0
M  V30 7111 H 641.092 4.14366 -5.38031 0
M  V30 7112 H 639.038 5.4925 -3.58692 0
M  V30 7113 H 638.955 5.37705 -5.31422 0
M  V30 7114 H 640.223 6.30993 -4.57676 0
M  V30 7115 N 644.452 1.42507 0.673017 0
M  V30 7116 C 645.4 1.46362 1.80779 0
M  V30 7117 C 646.394 0.339166 1.6597 0
M  V30 7118 O 647.6 0.512262 1.72557 0
M  V30 7119 H 643.975 0.458433 0.596107 0
M  V30 7120 H 645.946 2.41953 1.74646 0
M  V30 7121 C 644.695 1.38462 3.18941 0
M  V30 7122 H 644.018 2.24283 3.30964 0
M  V30 7123 H 645.458 1.45221 3.98355 0
M  V30 7124 C 643.917 0.0996354 3.36753 0
M  V30 7125 O 644.447 -0.846894 3.92671 0
M  V30 7126 N 642.653 0.016211 2.90595 0
M  V30 7127 H 642.2 0.78725 2.45276 0
M  V30 7128 H 642.158 -0.84291 3.0289 0
M  V30 7129 N 645.93 -0.909495 1.28709 0
M  V30 7130 C 646.877 -2.01245 1.13 0
M  V30 7131 C 647.847 -1.6608 0.0259684 0
M  V30 7132 O 649.032 -1.89835 0.191687 0
M  V30 7133 C 646.172 -3.35644 0.802315 0
M  V30 7134 C 645.285 -3.83653 1.98582 0
M  V30 7135 C 644.42 -5.06582 1.59837 0
M  V30 7136 C 643.459 -5.46934 2.74827 0
M  V30 7137 N 642.596 -6.61053 2.36546 0
M  V30 7138 H 647.436 -2.14013 2.0737 0
M  V30 7139 H 644.973 -1.0482 1.03205 0
M  V30 7140 H 646.931 -4.12963 0.593057 0
M  V30 7141 H 645.561 -3.22631 -0.104457 0
M  V30 7142 H 644.613 -3.02454 2.30708 0
M  V30 7143 H 645.925 -4.09515 2.84779 0
M  V30 7144 H 645.079 -5.91457 1.35143 0
M  V30 7145 H 643.818 -4.82537 0.707753 0
M  V30 7146 H 642.823 -4.60599 3.00215 0
M  V30 7147 H 644.048 -5.72965 3.64538 0
M  V30 7148 H 641.994 -6.3863 1.49959 0
M  V30 7149 H 641.911 -6.86662 3.16277 0
M  V30 7150 H 643.179 -7.49221 2.15146 0
M  V30 7151 N 647.408 -1.11026 -1.11852 0
M  V30 7152 C 648.355 -0.764662 -2.17765 0
M  V30 7153 C 649.325 0.261854 -1.64023 0
M  V30 7154 O 650.51 0.139748 -1.90288 0
M  V30 7155 C 647.65 -0.209317 -3.44465 0
M  V30 7156 C 646.763 -1.29187 -4.12231 0
M  V30 7157 C 645.898 -0.697523 -5.266 0
M  V30 7158 C 644.937 -1.76023 -5.86244 0
M  V30 7159 N 644.074 -1.18569 -6.92016 0
M  V30 7160 H 648.914 -1.67202 -2.46673 0
M  V30 7161 H 646.451 -0.835065 -1.21099 0
M  V30 7162 H 648.409 0.130599 -4.16996 0
M  V30 7163 H 647.039 0.661251 -3.15955 0
M  V30 7164 H 646.091 -1.74881 -3.37818 0
M  V30 7165 H 647.403 -2.09607 -4.52622 0
M  V30 7166 H 646.557 -0.307412 -6.05921 0
M  V30 7167 H 645.296 0.138044 -4.87505 0
M  V30 7168 H 644.301 -2.1597 -5.05606 0
M  V30 7169 H 645.526 -2.59875 -6.27409 0
M  V30 7170 H 643.472 -0.371695 -6.54946 0
M  V30 7171 H 643.389 -1.92666 -7.31038 0
M  V30 7172 H 644.657 -0.82233 -7.7515 0
M  V30 7173 N 648.886 1.2938 -0.899927 0
M  V30 7174 C 650.302 1.48052 -0.596059 0
M  V30 7175 C 650.502 1.82114 0.862372 0
M  V30 7176 O 649.558 1.91774 1.64253 0
M  V30 7177 C 650.871 2.59332 -1.52208 0
M  V30 7178 C 652.419 2.73208 -1.5273 0
M  V30 7179 C 652.894 3.87617 -2.43961 0
M  V30 7180 N 654.385 3.9495 -2.42009 0
M  V30 7181 C 655.12 4.82824 -3.09303 0
M  V30 7182 N 654.616 5.75387 -3.85877 0
M  V30 7183 N 656.409 4.76317 -2.98459 0
M  V30 7184 H 648.56 1.05546 -1.8432 0
M  V30 7185 H 650.823 0.524314 -0.78981 0
M  V30 7186 H 650.529 2.41029 -2.56121 0
M  V30 7187 H 650.403 3.56139 -1.24278 0
M  V30 7188 H 652.79 2.90908 -0.495614 0
M  V30 7189 H 652.871 1.76975 -1.84698 0
M  V30 7190 H 652.515 3.70672 -3.47224 0
M  V30 7191 H 652.445 4.83218 -2.09303 0
M  V30 7192 H 654.936 3.28744 -1.86375 0
M  V30 7193 H 655.249 6.39235 -4.34279 0
M  V30 7194 H 653.594 5.75272 -3.89984 0
M  V30 7195 H 656.785 4.0299 -2.38152 0
M  V30 7196 H 656.958 5.44589 -3.51179 0
M  V30 7197 N 650.364 0.662433 1.43002 0
M  V30 7198 C 651.296 -0.062326 2.29115 0
M  V30 7199 C 652.309 -0.777926 1.43011 0
M  V30 7200 O 653.498 -0.634146 1.66856 0
M  V30 7201 C 650.598 -1.11163 3.2015 0
M  V30 7202 C 649.771 -0.472327 4.34842 0
M  V30 7203 C 648.83 -1.41974 5.06685 0
M  V30 7204 O 647.856 -0.924795 5.61637 0
M  V30 7205 N 649.058 -2.75345 5.11043 0
M  V30 7206 H 651.823 0.676838 2.91957 0
M  V30 7207 H 649.384 0.505907 1.53793 0
M  V30 7208 H 651.376 -1.74643 3.65078 0
M  V30 7209 H 649.946 -1.75266 2.58845 0
M  V30 7210 H 649.166 0.341751 3.92716 0
M  V30 7211 H 650.454 -0.0264381 5.08793 0
M  V30 7212 H 649.852 -3.18108 4.67786 0
M  V30 7213 H 648.409 -3.34105 5.59658 0
M  V30 7214 N 651.842 -1.52309 0.404946 0
M  V30 7215 C 653.067 -2.06666 -0.1743 0
M  V30 7216 C 653.492 -1.27341 -1.38441 0
M  V30 7217 O 652.85 -0.302539 -1.78758 0
M  V30 7218 C 652.898 -3.57014 -0.507262 0
M  V30 7219 O 652.002 -3.80144 -1.59889 0
M  V30 7220 H 651.343 -0.663807 -0.0160273 0
M  V30 7221 H 653.873 -1.96297 0.576937 0
M  V30 7222 H 653.883 -4.00724 -0.767098 0
M  V30 7223 H 652.558 -4.14184 0.377368 0
M  V30 7224 H 651.135 -3.48316 -1.33155 0
M  V30 7225 N 653.32 -0.135238 -1.57019 0
M  V30 7226 C 654.597 0.563227 -1.87316 0
M  V30 7227 C 654.977 1.83749 -1.03921 0
M  V30 7228 O 654.325 2.2817 -0.122675 0
M  V30 7229 C 654.535 0.840031 -3.3874 0
M  V30 7230 C 655.883 1.18598 -4.077 0
M  V30 7231 O 656.907 0.92977 -3.43851 0
M  V30 7232 O 655.766 1.66758 -5.20436 0
M  V30 7233 H 652.86 0.285971 -0.775983 0
M  V30 7234 H 655.406 -0.170965 -1.68837 0
M  V30 7235 H 654.178 -0.0622785 -3.9125 0
M  V30 7236 H 653.801 1.62882 -3.62706 0
M  V30 7237 N 654.798 1.5699 0.138552 0
M  V30 7238 C 656.075 1.74741 0.87891 0
M  V30 7239 C 656.455 0.705522 1.98961 0
M  V30 7240 O 655.803 -0.274066 2.2685 0
M  V30 7241 C 656.013 3.1909 1.4136 0
M  V30 7242 C 657.361 3.81023 1.87368 0
M  V30 7243 O 658.385 3.22571 1.51084 0
M  V30 7244 O 657.244 4.83722 2.54312 0
M  V30 7245 H 654.338 0.714781 0.415953 0
M  V30 7246 H 656.884 1.69248 0.123817 0
M  V30 7247 H 655.656 3.86424 0.61579 0
M  V30 7248 H 655.279 3.29043 2.23196 0
M  V30 7249 N 656.276 -0.40816 1.52223 0
M  V30 7250 C 657.504 -1.17672 1.70179 0
M  V30 7251 C 657.919 -1.84257 0.411696 0
M  V30 7252 O 657.276 -1.7192 -0.612354 0
M  V30 7253 C 657.327 -2.23911 2.83806 0
M  V30 7254 O 657.048 -1.60044 4.0782 0
M  V30 7255 C 658.549 -3.1364 3.13281 0
M  V30 7256 H 655.769 -0.353562 0.570293 0
M  V30 7257 H 658.313 -0.480083 1.98785 0
M  V30 7258 H 656.468 -2.89242 2.57717 0
M  V30 7259 H 656.882 -2.30484 4.71145 0
M  V30 7260 H 658.356 -3.84255 3.96298 0
M  V30 7261 H 658.833 -3.76066 2.26872 0
M  V30 7262 H 659.439 -2.53977 3.41139 0
M  V30 7263 N 657.755 -1.42862 -0.66545 0
M  V30 7264 C 658.685 -1.49867 -1.79059 0
M  V30 7265 C 659.666 -0.354394 -1.66367 0
M  V30 7266 O 660.851 -0.569969 -1.85647 0
M  V30 7267 C 657.981 -1.40943 -3.17415 0
M  V30 7268 C 656.935 -2.53495 -3.44854 0
M  V30 7269 C 656.261 -2.29626 -4.82883 0
M  V30 7270 C 657.561 -3.95781 -3.40815 0
M  V30 7271 H 659.255 -2.44037 -1.73453 0
M  V30 7272 H 656.801 -1.17456 -0.833071 0
M  V30 7273 H 658.754 -1.4445 -3.95869 0
M  V30 7274 H 657.478 -0.432716 -3.23721 0
M  V30 7275 H 656.137 -2.4932 -2.68766 0
M  V30 7276 H 655.785 -1.30226 -4.8585 0
M  V30 7277 H 655.485 -3.05065 -5.02204 0
M  V30 7278 H 657.009 -2.34897 -5.63609 0
M  V30 7279 H 658.423 -4.01508 -4.09224 0
M  V30 7280 H 656.82 -4.71148 -3.71672 0
M  V30 7281 H 657.89 -4.21786 -2.39216 0
M  V30 7282 N 659.233 0.902656 -1.29189 0
M  V30 7283 C 660.473 1.6672 -1.18254 0
M  V30 7284 C 660.837 1.90199 0.262336 0
M  V30 7285 O 662.038 2.6421 0.494612 0
M  V30 7286 C 660.309 2.98178 -1.9704 0
M  V30 7287 S 661.868 3.89226 -2.02605 0
M  V30 7288 H 658.686 0.572432 -0.421714 0
M  V30 7289 H 661.288 1.07279 -1.63436 0
M  V30 7290 H 659.992 2.788 -3.01163 0
M  V30 7291 H 659.523 3.62661 -1.5245 0
M  V30 7292 H 661.538 4.82913 -1.14059 0
M  V30 7293 N 660.711 1.11618 1.11262 0
M  V30 7294 C 662.127 0.850468 1.35053 0
M  V30 7295 C 662.327 -0.523868 1.94571 0
M  V30 7296 O 661.383 -1.2743 2.17986 0
M  V30 7297 C 662.696 1.96005 2.28041 0
M  V30 7298 C 664.244 1.98993 2.416 0
M  V30 7299 C 664.719 3.0916 3.37911 0
M  V30 7300 N 666.21 3.08547 3.45475 0
M  V30 7301 C 666.945 3.9043 4.19943 0
M  V30 7302 N 666.441 4.8228 4.97371 0
M  V30 7303 N 668.234 3.786 4.15474 0
M  V30 7304 H 660.385 2.00184 0.709932 0
M  V30 7305 H 662.648 0.870635 0.375099 0
M  V30 7306 H 662.354 2.9499 1.91503 0
M  V30 7307 H 662.228 1.85782 3.28275 0
M  V30 7308 H 664.615 1.00633 2.77411 0
M  V30 7309 H 664.696 2.13292 1.4121 0
M  V30 7310 H 664.34 4.07748 3.02827 0
M  V30 7311 H 664.27 2.92102 4.3816 0
M  V30 7312 H 666.761 2.42 2.90249 0
M  V30 7313 H 667.074 5.41289 5.51567 0
M  V30 7314 H 665.419 4.863 4.96525 0
M  V30 7315 H 668.61 3.06185 3.54074 0
M  V30 7316 H 668.783 4.42647 4.73253 0
M  V30 7317 N 662.189 -1.289 0.906776 0
M  V30 7318 C 663.436 -1.95269 0.536326 0
M  V30 7319 C 663.764 -1.71435 -0.918711 0
M  V30 7320 O 663.019 -1.02431 -1.66752 0
M  V30 7321 C 663.318 -3.48704 0.783617 0
M  V30 7322 C 662.984 -3.92626 2.21711 0
M  V30 7323 C 661.646 -4.04329 2.60906 0
M  V30 7324 C 663.998 -4.15218 3.15029 0
M  V30 7325 C 661.326 -4.35998 3.92584 0
M  V30 7326 C 663.678 -4.48365 4.46264 0
M  V30 7327 C 662.342 -4.58278 4.85322 0
M  V30 7328 H 661.612 -0.714538 0.196256 0
M  V30 7329 H 664.259 -1.53366 1.14678 0
M  V30 7330 H 662.564 -3.91696 0.0903048 0
M  V30 7331 H 664.261 -3.98162 0.476267 0
M  V30 7332 H 660.851 -3.84038 1.90296 0
M  V30 7333 H 665.035 -4.05636 2.8596 0
M  V30 7334 H 660.291 -4.41878 4.22557 0
M  V30 7335 H 664.465 -4.64795 5.18593 0
M  V30 7336 H 662.092 -4.82573 5.87391 0
M  V30 7337 N 663.667 -0.670007 -1.42649 0
M  V30 7338 C 664.577 0.0114788 -2.34597 0
M  V30 7339 C 665.593 0.794055 -1.54825 0
M  V30 7340 O 666.769 0.737472 -1.87412 0
M  V30 7341 C 663.834 0.954436 -3.33304 0
M  V30 7342 C 662.895 0.166925 -4.28975 0
M  V30 7343 C 662.128 1.06497 -5.22967 0
M  V30 7344 O 662.351 2.30446 -5.21777 0
M  V30 7345 O 661.285 0.528347 -5.99577 0
M  V30 7346 H 665.111 -0.745794 -2.944 0
M  V30 7347 H 662.696 -0.430228 -1.43071 0
M  V30 7348 H 664.578 1.49589 -3.93956 0
M  V30 7349 H 663.253 1.69164 -2.7598 0
M  V30 7350 H 662.16 -0.418515 -3.71752 0
M  V30 7351 H 663.493 -0.531067 -4.89327 0
M  V30 7352 N 665.145 1.52092 -0.413018 0
M  V30 7353 C 666.37 2.06756 0.163338 0
M  V30 7354 C 666.795 1.28073 1.37764 0
M  V30 7355 O 666.153 0.312015 1.78595 0
M  V30 7356 C 666.201 3.57278 0.488322 0
M  V30 7357 O 665.305 3.80986 1.57871 0
M  V30 7358 H 664.646 0.663882 0.0125068 0
M  V30 7359 H 667.176 1.95988 -0.587339 0
M  V30 7360 H 667.186 4.01125 0.745836 0
M  V30 7361 H 665.861 4.13978 -0.399327 0
M  V30 7362 H 664.438 3.49017 1.31306 0
M  V30 7363 N 666.623 0.143563 1.56945 0
M  V30 7364 C 667.869 -0.50916 1.96304 0
M  V30 7365 C 668.202 -1.64741 1.0283 0
M  V30 7366 O 667.477 -1.94374 0.0700361 0
M  V30 7367 C 667.76 -1.0186 3.45393 0
M  V30 7368 C 667.613 0.117923 4.49645 0
M  V30 7369 C 668.932 -1.90151 3.96901 0
M  V30 7370 H 666.051 -0.183608 0.713763 0
M  V30 7371 H 668.693 0.224095 1.88674 0
M  V30 7372 H 666.843 -1.64345 3.52027 0
M  V30 7373 H 668.515 0.754145 4.55094 0
M  V30 7374 H 666.758 0.777568 4.26774 0
M  V30 7375 H 667.429 -0.280187 5.51288 0
M  V30 7376 H 669.905 -1.375 3.92725 0
M  V30 7377 H 668.781 -2.22707 5.0169 0
M  V30 7378 H 669.042 -2.83718 3.39052 0
M  V30 7379 N 668.101 -1.57061 -0.130224 0
M  V30 7380 C 669.031 -2.02552 -1.16168 0
M  V30 7381 C 670.012 -0.907971 -1.4384 0
M  V30 7382 O 671.197 -1.17693 -1.54473 0
M  V30 7383 C 668.327 -2.42035 -2.49071 0
M  V30 7384 C 667.281 -3.5713 -2.35886 0
M  V30 7385 C 666.607 -3.82478 -3.7365 0
M  V30 7386 C 667.907 -4.89236 -1.8288 0
M  V30 7387 H 669.601 -2.8897 -0.783359 0
M  V30 7388 H 667.147 -1.39021 -0.375376 0
M  V30 7389 H 669.1 -2.72462 -3.21469 0
M  V30 7390 H 667.824 -1.52573 -2.88771 0
M  V30 7391 H 666.483 -3.26895 -1.65938 0
M  V30 7392 H 666.131 -2.9024 -4.10816 0
M  V30 7393 H 665.831 -4.59944 -3.65685 0
M  V30 7394 H 667.355 -4.15347 -4.47571 0
M  V30 7395 H 668.769 -5.18272 -2.45085 0
M  V30 7396 H 667.166 -5.70624 -1.85763 0
M  V30 7397 H 668.236 -4.78494 -0.785571 0
M  V30 7398 N 669.579 0.400081 -1.52437 0
M  V30 7399 C 670.856 1.15973 -1.57511 0
M  V30 7400 C 671.236 2.0798 -0.361572 0
M  V30 7401 O 670.584 2.19032 0.650929 0
M  V30 7402 C 670.794 1.92912 -2.90837 0
M  V30 7403 C 672.142 2.48662 -3.44169 0
M  V30 7404 O 673.166 2.03081 -2.92637 0
M  V30 7405 O 672.025 3.31894 -4.34176 0
M  V30 7406 H 669.119 0.530023 -0.634827 0
M  V30 7407 H 671.665 0.40613 -1.64769 0
M  V30 7408 H 670.437 1.25564 -3.70607 0
M  V30 7409 H 670.06 2.75257 -2.86913 0
M  V30 7410 N 671.057 1.43213 0.657864 0
M  V30 7411 C 671.987 1.50815 1.78262 0
M  V30 7412 C 672.968 0.363211 1.66177 0
M  V30 7413 O 674.153 0.579806 1.85343 0
M  V30 7414 C 671.283 1.42625 3.16663 0
M  V30 7415 C 670.237 2.5532 3.43505 0
M  V30 7416 C 669.563 2.32184 4.81658 0
M  V30 7417 C 670.863 3.97583 3.38711 0
M  V30 7418 H 672.557 2.44954 1.72157 0
M  V30 7419 H 670.103 1.17896 0.82683 0
M  V30 7420 H 672.056 1.46548 3.95097 0
M  V30 7421 H 670.78 0.449877 3.23487 0
M  V30 7422 H 669.439 2.50742 2.6744 0
M  V30 7423 H 669.087 1.32801 4.85153 0
M  V30 7424 H 668.787 3.07724 5.00579 0
M  V30 7425 H 670.311 2.37883 5.62356 0
M  V30 7426 H 671.725 4.03673 4.07089 0
M  V30 7427 H 670.122 4.73112 3.69168 0
M  V30 7428 H 671.192 4.23049 2.36976 0
M  V30 7429 N 672.536 -0.895792 1.29666 0
M  V30 7430 C 673.483 -2.00035 1.15129 0
M  V30 7431 C 674.453 -1.66043 0.0435819 0
M  V30 7432 O 675.638 -1.89621 0.211811 0
M  V30 7433 C 672.778 -3.34774 0.83787 0
M  V30 7434 C 671.891 -3.81525 2.0264 0
M  V30 7435 C 671.026 -5.04858 1.65201 0
M  V30 7436 C 670.065 -5.43988 2.80612 0
M  V30 7437 N 669.202 -6.58507 2.43544 0
M  V30 7438 H 674.042 -2.11802 2.09628 0
M  V30 7439 H 671.579 -1.03719 1.04311 0
M  V30 7440 H 673.537 -4.12311 0.636824 0
M  V30 7441 H 672.167 -3.22724 -0.0702314 0
M  V30 7442 H 671.219 -2.9999 2.33903 0
M  V30 7443 H 672.531 -4.06472 2.89106 0
M  V30 7444 H 671.685 -5.8999 1.41408 0
M  V30 7445 H 670.424 -4.81759 0.758893 0
M  V30 7446 H 669.429 -4.57388 3.05083 0
M  V30 7447 H 670.654 -5.69066 3.70595 0
M  V30 7448 H 668.6 -6.37004 1.56724 0
M  V30 7449 H 668.517 -6.83269 3.23542 0
M  V30 7450 H 669.785 -7.46897 2.2308 0
M  V30 7451 N 674.014 -1.12206 -1.10668 0
M  V30 7452 C 675.425 -0.890657 -1.64086 0
M  V30 7453 C 675.776 0.575502 -1.8757 0
M  V30 7454 O 674.901 1.4394 -1.61587 0
M  V30 7455 C 675.496 -1.61029 -2.98085 0
M  V30 7456 C 674.055 -1.4251 -3.48379 0
M  V30 7457 C 673.202 -1.64778 -2.23033 0
M  V30 7458 H 676.153 -1.27718 -0.94201 0
M  V30 7459 H 676.174 -1.05993 -3.65439 0
M  V30 7460 H 675.686 -2.67735 -2.80962 0
M  V30 7461 H 673.787 -0.380497 -3.70652 0
M  V30 7462 H 673.9 -2.17959 -4.26651 0
M  V30 7463 H 672.264 -1.07171 -2.31055 0
M  V30 7464 H 673.047 -2.72776 -2.08443 0
M  V30 7465 N 675.492 1.28418 -0.913599 0
M  V30 7466 C 676.717 1.99643 -0.561899 0
M  V30 7467 C 677.142 1.67819 0.849608 0
M  V30 7468 O 676.5 0.910503 1.56779 0
M  V30 7469 C 676.548 3.52116 -0.777622 0
M  V30 7470 O 675.652 4.12076 0.163457 0
M  V30 7471 H 674.993 0.627229 -0.217898 0
M  V30 7472 H 677.523 1.63575 -1.229 0
M  V30 7473 H 677.533 4.02163 -0.687666 0
M  V30 7474 H 676.208 3.74613 -1.8066 0
M  V30 7475 H 674.785 3.72892 0.0247827 0
M  V30 7476 N 676.97 0.677563 1.42291 0
M  V30 7477 C 677.88 0.000962654 2.346 0
M  V30 7478 C 678.896 -0.785833 1.55244 0
M  V30 7479 O 680.072 -0.727523 1.87801 0
M  V30 7480 C 677.137 -0.936746 3.33805 0
M  V30 7481 C 676.198 -0.144173 4.29058 0
M  V30 7482 C 675.431 -1.03722 5.23524 0
M  V30 7483 O 675.654 -2.27675 5.22992 0
M  V30 7484 O 674.588 -0.496542 5.99848 0
M  V30 7485 H 678.414 0.761397 2.94001 0
M  V30 7486 H 675.999 0.43781 1.42841 0
M  V30 7487 H 677.881 -1.47497 3.94744 0
M  V30 7488 H 676.556 -1.67698 2.76874 0
M  V30 7489 H 675.463 0.438224 3.71524 0
M  V30 7490 H 676.796 0.55701 4.89038 0
M  V30 7491 N 678.448 -1.51871 0.421078 0
M  V30 7492 C 679.859 -1.86644 -0.0457991 0
M  V30 7493 C 680.21 -1.33919 -1.43388 0
M  V30 7494 O 679.335 -0.683316 -2.05328 0
M  V30 7495 C 679.93 -3.38681 -0.0898844 0
M  V30 7496 C 678.489 -3.73049 -0.501127 0
M  V30 7497 C 677.636 -2.75485 0.316723 0
M  V30 7498 H 680.587 -1.45327 0.637635 0
M  V30 7499 H 680.608 -3.69636 -0.902734 0
M  V30 7500 H 680.12 -3.77025 0.920513 0
M  V30 7501 H 678.221 -3.40288 -1.51773 0
M  V30 7502 H 678.334 -4.78512 -0.237217 0
M  V30 7503 H 676.698 -2.53725 -0.222663 0
M  V30 7504 H 677.481 -3.16671 1.32569 0
M  V30 7505 N 679.926 -0.151884 -1.56866 0
M  V30 7506 C 681.172 0.498742 -1.96572 0
M  V30 7507 C 681.505 1.64194 -1.03702 0
M  V30 7508 O 680.78 1.94334 -0.0803432 0
M  V30 7509 C 681.063 1.00027 -3.45929 0
M  V30 7510 C 680.916 -0.141767 -4.49577 0
M  V30 7511 C 682.235 1.88044 -3.97904 0
M  V30 7512 H 679.354 0.17982 -0.714726 0
M  V30 7513 H 681.996 -0.234097 -1.88552 0
M  V30 7514 H 680.146 1.62476 -3.52894 0
M  V30 7515 H 681.818 -0.778269 -4.54687 0
M  V30 7516 H 680.061 -0.80019 -4.26356 0
M  V30 7517 H 680.732 0.250947 -5.51429 0
M  V30 7518 H 683.208 1.35416 -3.93449 0
M  V30 7519 H 682.084 2.20043 -5.02864 0
M  V30 7520 H 682.345 2.81916 -3.40552 0
M  V30 7521 N 681.404 1.57128 0.121893 0
M  V30 7522 C 682.652 1.84335 0.828548 0
M  V30 7523 C 682.973 0.736632 1.80551 0
M  V30 7524 O 682.243 -0.23962 1.94429 0
M  V30 7525 H 680.823 0.680108 0.30897 0
M  V30 7526 H 683.485 1.9459 0.109906 0
M  V30 7527 H 682.581 2.80152 1.37554 0
M  V30 7528 N 682.882 -0.391992 1.52647 0
M  V30 7529 C 684.11 -1.1586 1.71418 0
M  V30 7530 C 684.525 -1.8381 0.431216 0
M  V30 7531 O 683.882 -1.7256 -0.594085 0
M  V30 7532 C 683.933 -2.20888 2.86165 0
M  V30 7533 O 683.654 -1.5571 4.09495 0
M  V30 7534 C 685.155 -3.103 3.1659 0
M  V30 7535 H 682.375 -0.347494 0.574011 0
M  V30 7536 H 684.919 -0.458972 1.99283 0
M  V30 7537 H 683.074 -2.86492 2.6077 0
M  V30 7538 H 683.488 -2.25474 4.73563 0
M  V30 7539 H 684.962 -3.8003 4.00351 0
M  V30 7540 H 685.439 -3.73639 2.30848 0
M  V30 7541 H 686.045 -2.50345 3.43813 0
M  V30 7542 N 684.36 -1.4356 -0.65026 0
M  V30 7543 C 685.608 -1.45046 -1.40734 0
M  V30 7544 C 685.929 -0.0769822 -1.94848 0
M  V30 7545 O 685.199 0.888098 -1.74613 0
M  V30 7546 H 683.779 -0.534034 -0.522318 0
M  V30 7547 H 686.441 -1.79186 -0.766703 0
M  V30 7548 H 685.537 -2.16476 -2.24822 0
M  V30 7549 N 685.838 0.888903 -1.30139 0
M  V30 7550 C 686.786 2.0156 -1.16088 0
M  V30 7551 C 687.78 1.69239 -0.0737413 0
M  V30 7552 O 688.986 1.78468 -0.234313 0
M  V30 7553 H 685.361 0.660825 -0.358907 0
M  V30 7554 H 687.332 2.10547 -2.11453 0
M  V30 7555 C 686.081 3.36758 -0.865426 0
M  V30 7556 H 685.404 3.62137 -1.69402 0
M  V30 7557 H 686.844 4.16246 -0.807192 0
M  V30 7558 C 685.303 3.34124 0.431577 0
M  V30 7559 O 685.833 3.7445 1.45431 0
M  V30 7560 N 684.039 2.87229 0.441321 0
M  V30 7561 H 683.586 2.54609 -0.391433 0
M  V30 7562 H 683.544 2.8585 1.30909 0
M  V30 7563 N 687.317 1.12792 1.10072 0
M  V30 7564 C 688.542 0.908838 1.86427 0
M  V30 7565 C 688.967 -0.536793 1.80278 0
M  V30 7566 O 688.325 -1.38033 1.17543 0
M  V30 7567 C 688.373 1.39295 3.3261 0
M  V30 7568 O 687.477 0.573846 4.08388 0
M  V30 7569 H 686.818 0.326234 0.578331 0
M  V30 7570 H 689.348 1.50094 1.39043 0
M  V30 7571 H 689.358 1.39366 3.83459 0
M  V30 7572 H 688.033 2.44555 3.36401 0
M  V30 7573 H 686.61 0.640438 3.67359 0
M  V30 7574 N 688.795 -1.27931 0.920396 0
M  V30 7575 C 689.758 -2.25345 0.41858 0
M  V30 7576 C 690.758 -1.54116 -0.458798 0
M  V30 7577 O 691.948 -1.72235 -0.260912 0
M  V30 7578 C 689.08 -3.38556 -0.399104 0
M  V30 7579 H 690.273 -2.71251 1.27918 0
M  V30 7580 H 687.826 -1.39728 0.700406 0
M  V30 7581 H 688.561 -2.98021 -1.27882 0
M  V30 7582 H 688.346 -3.91426 0.229863 0
M  V30 7583 H 689.836 -4.10976 -0.740817 0
M  V30 7584 N 690.273 -0.685099 -1.4193 0
M  V30 7585 C 691.684 -0.287699 -1.8447 0
M  V30 7586 C 692.035 1.17215 -1.57338 0
M  V30 7587 O 691.16 1.89856 -1.03845 0
M  V30 7588 C 691.755 -0.515385 -3.34857 0
M  V30 7589 C 690.314 -0.172006 -3.76007 0
M  V30 7590 C 689.461 -0.802808 -2.65425 0
M  V30 7591 H 692.412 -0.88652 -1.3163 0
M  V30 7592 H 692.433 0.229251 -3.79809 0
M  V30 7593 H 691.945 -1.57796 -3.54573 0
M  V30 7594 H 690.046 0.886716 -3.61895 0
M  V30 7595 H 690.159 -0.619717 -4.75075 0
M  V30 7596 H 688.523 -0.233267 -2.5363 0
M  V30 7597 H 689.306 -1.86904 -2.87961 0
M  V30 7598 N 691.751 1.51645 -0.429126 0
M  V30 7599 C 692.979 2.06433 0.138994 0
M  V30 7600 C 693.394 1.29735 1.37165 0
M  V30 7601 O 692.751 0.354638 1.79021 0
M  V30 7602 C 692.802 3.58439 0.469452 0
M  V30 7603 O 692.523 4.32238 -0.714273 0
M  V30 7604 C 694.024 4.29712 1.08914 0
M  V30 7605 H 691.244 0.6709 0.0115608 0
M  V30 7606 H 693.788 1.9532 -0.605843 0
M  V30 7607 H 691.943 3.69494 1.16419 0
M  V30 7608 H 692.357 5.22704 -0.433633 0
M  V30 7609 H 693.831 5.37182 1.27042 0
M  V30 7610 H 694.308 3.87473 2.06788 0
M  V30 7611 H 694.914 4.2308 0.434028 0
M  V30 7612 N 693.229 0.160201 1.56784 0
M  V30 7613 C 694.161 -0.80564 2.14574 0
M  V30 7614 C 695.174 -1.20154 1.09849 0
M  V30 7615 O 696.363 -1.14333 1.37078 0
M  V30 7616 C 693.463 -2.09434 2.6644 0
M  V30 7617 C 692.636 -1.86375 3.95706 0
M  V30 7618 C 691.695 -2.99358 4.32749 0
M  V30 7619 O 690.721 -2.70475 5.00831 0
M  V30 7620 N 691.923 -4.26867 3.93402 0
M  V30 7621 H 694.688 -0.311644 2.98075 0
M  V30 7622 H 692.249 -0.0229465 1.61884 0
M  V30 7623 H 694.241 -2.84091 2.88226 0
M  V30 7624 H 692.811 -2.50057 1.8759 0
M  V30 7625 H 692.031 -0.956821 3.82412 0
M  V30 7626 H 693.319 -1.68322 4.80151 0
M  V30 7627 H 692.717 -4.53197 3.38569 0
M  V30 7628 H 691.274 -4.98263 4.20211 0
M  V30 7629 N 694.707 -1.5719 -0.113559 0
M  V30 7630 C 695.935 -1.89328 -0.834422 0
M  V30 7631 C 696.35 -0.752018 -1.73177 0
M  V30 7632 O 695.707 0.276912 -1.80387 0
M  V30 7633 C 695.758 -3.20962 -1.66329 0
M  V30 7634 O 695.479 -4.30695 -0.802069 0
M  V30 7635 C 696.98 -3.6684 -2.48884 0
M  V30 7636 H 694.2 -0.626769 -0.239587 0
M  V30 7637 H 696.744 -2.04273 -0.0963195 0
M  V30 7638 H 694.899 -3.0767 -2.35409 0
M  V30 7639 H 695.313 -5.06175 -1.37431 0
M  V30 7640 H 696.787 -4.61692 -3.02563 0
M  V30 7641 H 697.264 -2.93765 -3.26495 0
M  V30 7642 H 697.87 -3.82938 -1.85036 0
M  V30 7643 N 696.185 0.383891 -1.52853 0
M  V30 7644 C 697.41 1.154 -1.7233 0
M  V30 7645 C 697.835 1.82809 -0.44298 0
M  V30 7646 O 697.193 1.71026 0.601645 0
M  V30 7647 C 697.241 2.17386 -2.87708 0
M  V30 7648 O 696.345 3.24082 -2.55038 0
M  V30 7649 H 695.686 0.335709 -0.572883 0
M  V30 7650 H 698.216 0.44662 -1.99666 0
M  V30 7651 H 698.226 2.61296 -3.1335 0
M  V30 7652 H 696.901 1.6771 -3.80587 0
M  V30 7653 H 695.478 2.85273 -2.40153 0
M  V30 7654 N 697.663 1.43903 0.642637 0
M  V30 7655 C 698.893 1.49323 1.4278 0
M  V30 7656 C 699.301 0.113058 1.88862 0
M  V30 7657 O 698.644 -0.889089 1.60751 0
M  V30 7658 C 698.706 2.3861 2.68897 0
M  V30 7659 C 698.37 3.85976 2.44687 0
M  V30 7660 C 699.367 4.7681 2.07239 0
M  V30 7661 C 697.052 4.30567 2.58683 0
M  V30 7662 C 699.046 6.10234 1.841 0
M  V30 7663 C 696.733 5.64042 2.35159 0
M  V30 7664 C 697.731 6.53693 1.97925 0
M  V30 7665 O 697.419 7.84698 1.74654 0
M  V30 7666 H 697.151 0.509109 0.444729 0
M  V30 7667 H 699.705 1.89425 0.794195 0
M  V30 7668 H 697.935 1.93415 3.34855 0
M  V30 7669 H 699.624 2.35112 3.30873 0
M  V30 7670 H 700.39 4.43635 1.95993 0
M  V30 7671 H 696.269 3.61054 2.86637 0
M  V30 7672 H 699.813 6.80171 1.54962 0
M  V30 7673 H 695.71 5.96782 2.46011 0
M  V30 7674 H 696.478 7.96382 1.88993 0
M  V30 7675 N 699.141 -0.881989 1.30609 0
M  V30 7676 C 700.073 -1.99375 1.13058 0
M  V30 7677 C 701.086 -1.62636 0.0729879 0
M  V30 7678 O 702.275 -1.75621 0.319301 0
M  V30 7679 C 699.375 -3.31536 0.702651 0
M  V30 7680 C 698.548 -3.96693 1.84265 0
M  V30 7681 C 697.607 -5.07158 1.40277 0
M  V30 7682 O 696.633 -5.28628 2.11048 0
M  V30 7683 N 697.835 -5.79808 0.283449 0
M  V30 7684 H 700.6 -2.14981 2.08814 0
M  V30 7685 H 698.161 -1.05526 1.22784 0
M  V30 7686 H 700.153 -4.02804 0.391331 0
M  V30 7687 H 698.723 -3.12175 -0.162954 0
M  V30 7688 H 697.943 -3.1856 2.32192 0
M  V30 7689 H 699.231 -4.36964 2.60653 0
M  V30 7690 H 698.629 -5.64871 -0.306189 0
M  V30 7691 H 697.186 -6.51792 0.0315985 0
M  V30 7692 N 700.619 -1.13374 -1.09472 0
M  V30 7693 C 702.035 -0.871846 -1.33682 0
M  V30 7694 C 702.235 0.492847 -1.9538 0
M  V30 7695 O 701.291 1.23946 -2.19985 0
M  V30 7696 C 702.604 -1.99608 -2.24893 0
M  V30 7697 C 704.152 -2.02812 -2.38404 0
M  V30 7698 C 704.627 -3.14497 -3.3295 0
M  V30 7699 N 706.118 -3.14004 -3.40523 0
M  V30 7700 C 706.853 -3.97061 -4.13679 0
M  V30 7701 N 706.349 -4.90131 -4.89636 0
M  V30 7702 N 708.142 -3.85162 -4.09398 0
M  V30 7703 H 700.293 -2.01288 -0.677995 0
M  V30 7704 H 702.556 -0.876492 -0.361201 0
M  V30 7705 H 702.262 -2.98 -1.86786 0
M  V30 7706 H 702.136 -1.90981 -3.25278 0
M  V30 7707 H 704.523 -1.05034 -2.75775 0
M  V30 7708 H 704.604 -2.15511 -1.37799 0
M  V30 7709 H 704.248 -4.12514 -2.96302 0
M  V30 7710 H 704.178 -2.99035 -4.33458 0
M  V30 7711 H 706.669 -2.46587 -2.86362 0
M  V30 7712 H 706.982 -5.49996 -5.42885 0
M  V30 7713 H 705.327 -4.94138 -4.88726 0
M  V30 7714 H 708.518 -3.11779 -3.49158 0
M  V30 7715 H 708.691 -4.5012 -4.6615 0
M  V30 7716 N 702.098 1.27442 -0.927168 0
M  V30 7717 C 703.514 1.46754 -0.627329 0
M  V30 7718 C 703.714 1.83902 0.823549 0
M  V30 7719 O 702.77 1.95215 1.60148 0
M  V30 7720 C 704.083 2.56045 -1.57674 0
M  V30 7721 C 705.631 2.69906 -1.58491 0
M  V30 7722 C 706.106 3.82355 -2.52128 0
M  V30 7723 N 707.597 3.89728 -2.50332 0
M  V30 7724 C 708.332 4.76155 -3.19475 0
M  V30 7725 N 707.828 5.67073 -3.97995 0
M  V30 7726 N 709.621 4.6988 -3.08496 0
M  V30 7727 H 701.772 1.01613 -1.86517 0
M  V30 7728 H 704.035 0.507443 -0.800753 0
M  V30 7729 H 703.741 2.35542 -2.61176 0
M  V30 7730 H 703.615 3.53423 -1.31804 0
M  V30 7731 H 706.002 2.89792 -0.557208 0
M  V30 7732 H 706.083 1.73018 -1.8841 0
M  V30 7733 H 705.727 3.63224 -3.55008 0
M  V30 7734 H 705.657 4.7867 -2.19505 0
M  V30 7735 H 708.148 3.24717 -1.93306 0
M  V30 7736 H 708.461 6.2988 -4.4774 0
M  V30 7737 H 706.806 5.6687 -4.02098 0
M  V30 7738 H 709.997 3.97848 -2.46646 0
M  V30 7739 H 710.17 5.37017 -3.62652 0
M  V30 7740 N 703.576 0.692616 1.41565 0
M  V30 7741 C 704.853 0.150496 1.9502 0
M  V30 7742 C 705.233 -1.33881 1.63215 0
M  V30 7743 O 704.581 -2.08378 0.937598 0
M  V30 7744 C 704.791 0.438636 3.46233 0
M  V30 7745 C 706.139 0.364777 4.2303 0
M  V30 7746 O 707.163 0.373383 3.54238 0
M  V30 7747 O 706.022 0.32234 5.45549 0
M  V30 7748 H 703.116 0.0132454 0.826894 0
M  V30 7749 H 705.662 0.768574 1.51298 0
M  V30 7750 H 704.434 1.46962 3.62654 0
M  V30 7751 H 704.057 -0.210562 3.97042 0
M  V30 7752 N 705.054 -1.51416 0.437162 0
M  V30 7753 C 706.282 -2.06503 -0.128045 0
M  V30 7754 C 706.697 -1.30461 -1.36475 0
M  V30 7755 O 706.054 -0.364127 -1.78831 0
M  V30 7756 C 706.105 -3.58683 -0.450437 0
M  V30 7757 O 705.826 -4.31853 0.737186 0
M  V30 7758 C 707.327 -4.30284 -1.06633 0
M  V30 7759 H 704.547 -0.670952 -0.00800269 0
M  V30 7760 H 707.091 -1.94996 0.616193 0
M  V30 7761 H 705.246 -3.70106 -1.14457 0
M  V30 7762 H 705.66 -5.22467 0.461347 0
M  V30 7763 H 707.134 -5.37848 -1.24191 0
M  V30 7764 H 707.611 -3.88564 -2.0473 0
M  V30 7765 H 708.217 -4.23304 -0.411585 0
M  V30 7766 N 706.532 -0.168513 -1.56696 0
M  V30 7767 C 707.943 0.348694 -1.83415 0
M  V30 7768 C 708.294 1.63257 -1.0882 0
M  V30 7769 O 707.419 2.13707 -0.340333 0
M  V30 7770 C 708.014 0.639423 -3.32711 0
M  V30 7771 C 706.573 1.10108 -3.59935 0
M  V30 7772 C 705.72 0.135464 -2.76969 0
M  V30 7773 H 708.671 -0.392829 -1.53761 0
M  V30 7774 H 708.692 1.49179 -3.50037 0
M  V30 7775 H 708.204 -0.295173 -3.86976 0
M  V30 7776 H 706.305 2.05088 -3.11079 0
M  V30 7777 H 706.418 1.01218 -4.68286 0
M  V30 7778 H 704.782 0.632286 -2.46727 0
M  V30 7779 H 705.565 -0.793104 -3.34013 0
M  V30 7780 N 708.01 1.57248 0.105221 0
M  V30 7781 C 709.238 1.89768 0.82437 0
M  V30 7782 C 709.653 0.761192 1.72775 0
M  V30 7783 O 709.01 -0.267342 1.80531 0
M  V30 7784 C 709.061 3.2184 1.64625 0
M  V30 7785 O 708.782 4.31115 0.779217 0
M  V30 7786 C 710.283 3.68155 2.46935 0
M  V30 7787 H 707.503 0.628031 0.236259 0
M  V30 7788 H 710.047 2.04321 0.085485 0
M  V30 7789 H 708.202 3.08915 2.33775 0
M  V30 7790 H 708.616 5.06897 1.34745 0
M  V30 7791 H 710.09 4.6329 3.00111 0
M  V30 7792 H 710.567 2.95492 3.24932 0
M  V30 7793 H 711.173 3.83914 1.83002 0
M  V30 7794 N 709.488 -0.375779 1.53054 0
M  V30 7795 C 710.418 -1.46598 1.81745 0
M  V30 7796 C 711.399 -1.56337 0.670286 0
M  V30 7797 O 712.584 -1.71071 0.919158 0
M  V30 7798 C 709.714 -2.84058 1.99821 0
M  V30 7799 C 708.668 -2.8915 3.15557 0
M  V30 7800 C 707.994 -4.29187 3.18908 0
M  V30 7801 C 709.294 -2.57595 4.54359 0
M  V30 7802 H 710.988 -1.22837 2.73041 0
M  V30 7803 H 708.534 -0.589485 1.31381 0
M  V30 7804 H 710.487 -3.60342 2.18475 0
M  V30 7805 H 709.211 -3.09184 1.05226 0
M  V30 7806 H 707.87 -2.15316 2.96706 0
M  V30 7807 H 707.518 -4.51374 2.2197 0
M  V30 7808 H 707.218 -4.33512 3.96662 0
M  V30 7809 H 708.742 -5.07359 3.39734 0
M  V30 7810 H 710.156 -3.23595 4.73243 0
M  V30 7811 H 708.553 -2.73252 5.34279 0
M  V30 7812 H 709.623 -1.52882 4.60169 0
M  V30 7813 N 710.966 -1.44241 -0.634997 0
M  V30 7814 C 712.382 -1.28043 -0.952742 0
M  V30 7815 C 712.582 -0.21338 -2.00367 0
M  V30 7816 O 711.638 0.402042 -2.49279 0
M  V30 7817 C 712.951 -2.65076 -1.41968 0
M  V30 7818 C 714.499 -2.72755 -1.53537 0
M  V30 7819 C 714.974 -4.10249 -2.03616 0
M  V30 7820 N 716.465 -4.12406 -2.10892 0
M  V30 7821 C 717.2 -5.15641 -2.50803 0
M  V30 7822 N 716.696 -6.29239 -2.89879 0
M  V30 7823 N 718.489 -5.02995 -2.50903 0
M  V30 7824 H 710.64 -2.12315 0.060098 0
M  V30 7825 H 712.903 -0.947326 -0.0357325 0
M  V30 7826 H 712.609 -3.44213 -0.721804 0
M  V30 7827 H 712.483 -2.91704 -2.39141 0
M  V30 7828 H 714.87 -1.93939 -2.22422 0
M  V30 7829 H 714.951 -2.49872 -0.547496 0
M  V30 7830 H 714.595 -4.8954 -1.35327 0
M  V30 7831 H 714.525 -4.30507 -3.03268 0
M  V30 7832 H 717.016 -3.30417 -1.83393 0
M  V30 7833 H 717.329 -7.03827 -3.19135 0
M  V30 7834 H 715.674 -6.32683 -2.8764 0
M  V30 7835 H 718.865 -4.13306 -2.19763 0
M  V30 7836 H 719.038 -5.83574 -2.81683 0
M  V30 7837 N 712.444 0.87505 -1.31075 0
M  V30 7838 C 713.669 1.66583 -1.23551 0
M  V30 7839 C 714.094 1.87067 0.19686 0
M  V30 7840 O 713.452 1.40877 1.1412 0
M  V30 7841 C 713.5 3.01401 -1.97965 0
M  V30 7842 O 712.604 3.90923 -1.31351 0
M  V30 7843 H 711.945 0.508645 -0.426821 0
M  V30 7844 H 714.475 1.09139 -1.7306 0
M  V30 7845 H 714.485 3.51374 -2.07366 0
M  V30 7846 H 713.16 2.85812 -3.02133 0
M  V30 7847 H 711.737 3.49369 -1.30368 0
M  V30 7848 N 713.922 1.13953 1.08869 0
M  V30 7849 C 714.885 0.824991 2.13838 0
M  V30 7850 C 715.885 -0.168198 1.59918 0
M  V30 7851 O 717.075 0.0595778 1.74098 0
M  V30 7852 C 714.207 0.228938 3.4013 0
M  V30 7853 H 715.4 1.75521 2.43171 0
M  V30 7854 H 712.953 0.94492 1.24503 0
M  V30 7855 H 713.688 -0.710227 3.16427 0
M  V30 7856 H 713.473 0.944243 3.80561 0
M  V30 7857 H 714.963 0.0259223 4.17592 0
M  V30 7858 N 715.4 -1.26948 0.933913 0
M  V30 7859 C 716.363 -2.24889 0.442457 0
M  V30 7860 C 717.363 -1.54594 -0.442426 0
M  V30 7861 O 718.553 -1.72502 -0.242629 0
M  V30 7862 C 715.685 -3.3896 -0.363173 0
M  V30 7863 H 716.878 -2.69879 1.30787 0
M  V30 7864 H 714.431 -1.38978 0.715187 0
M  V30 7865 H 715.166 -2.99361 -1.24714 0
M  V30 7866 H 714.951 -3.9116 0.271366 0
M  V30 7867 H 716.441 -4.11739 -0.697186 0
M  V30 7868 N 716.879 -0.700114 -1.41195 0
M  V30 7869 C 717.826 -0.0376652 -2.30769 0
M  V30 7870 C 718.796 0.766544 -1.47354 0
M  V30 7871 O 719.981 0.73365 -1.76131 0
M  V30 7872 C 717.121 0.889452 -3.33441 0
M  V30 7873 C 716.234 0.076373 -4.31932 0
M  V30 7874 C 715.369 1.00155 -5.21673 0
M  V30 7875 C 714.408 0.181644 -6.1183 0
M  V30 7876 N 713.545 1.06087 -6.94039 0
M  V30 7877 H 718.385 -0.80726 -2.86858 0
M  V30 7878 H 715.922 -0.409798 -1.41277 0
M  V30 7879 H 717.88 1.44107 -3.91522 0
M  V30 7880 H 716.51 1.6254 -2.78892 0
M  V30 7881 H 715.562 -0.592223 -3.75762 0
M  V30 7882 H 716.874 -0.559076 -4.95657 0
M  V30 7883 H 716.028 1.62223 -5.8461 0
M  V30 7884 H 714.767 1.67085 -4.58186 0
M  V30 7885 H 713.772 -0.452085 -5.47938 0
M  V30 7886 H 714.997 -0.483925 -6.77374 0
M  V30 7887 H 712.943 1.7161 -6.33156 0
M  V30 7888 H 712.86 0.481094 -7.54468 0
M  V30 7889 H 714.128 1.66822 -7.6144 0
M  V30 7890 N 718.357 1.51182 -0.445186 0
M  V30 7891 C 719.289 2.25714 0.398206 0
M  V30 7892 C 720.302 1.30032 0.979562 0
M  V30 7893 O 721.491 1.55731 0.872368 0
M  V30 7894 C 718.591 3.00348 1.56985 0
M  V30 7895 C 717.764 4.23187 1.10596 0
M  V30 7896 C 716.823 4.80334 2.14863 0
M  V30 7897 O 715.849 5.4196 1.73977 0
M  V30 7898 N 717.051 4.65053 3.47427 0
M  V30 7899 H 719.816 2.98732 -0.240629 0
M  V30 7900 H 717.377 1.59556 -0.274507 0
M  V30 7901 H 719.369 3.35464 2.26376 0
M  V30 7902 H 717.939 2.30291 2.11387 0
M  V30 7903 H 717.159 3.93476 0.238832 0
M  V30 7904 H 718.447 5.02886 0.773537 0
M  V30 7905 H 717.845 4.15984 3.83372 0
M  V30 7906 H 716.402 5.04509 4.12691 0
M  V30 7907 N 719.835 0.176821 1.56605 0
M  V30 7908 C 720.785 -0.763718 2.14829 0
M  V30 7909 C 721.769 -1.18903 1.08401 0
M  V30 7910 O 722.961 -1.15048 1.3451 0
M  V30 7911 C 720.09 -1.99069 2.7969 0
M  V30 7912 C 719.176 -1.58711 3.93283 0
M  V30 7913 N 719.567 -0.893423 4.97847 0
M  V30 7914 C 717.865 -1.87774 4.04545 0
M  V30 7915 C 718.566 -0.693866 5.77547 0
M  V30 7916 N 717.542 -1.23699 5.29339 0
M  V30 7917 H 721.344 -0.224811 2.93039 0
M  V30 7918 H 718.858 -0.0236563 1.62383 0
M  V30 7919 H 720.855 -2.67478 3.19783 0
M  V30 7920 H 719.515 -2.53449 2.02962 0
M  V30 7921 H 720.526 -0.550868 5.14962 0
M  V30 7922 H 717.203 -2.43793 3.38927 0
M  V30 7923 H 718.593 -0.144899 6.71744 0
M  V30 7924 N 721.313 -1.57302 -0.09688 0
M  V30 7925 C 722.543 -1.89926 -0.813114 0
M  V30 7926 C 722.951 -0.76852 -1.72888 0
M  V30 7927 O 722.294 0.268549 -1.81726 0
M  V30 7928 C 722.356 -3.17787 -1.68082 0
M  V30 7929 C 722.02 -4.4729 -0.937061 0
M  V30 7930 C 723.017 -5.1921 -0.267687 0
M  V30 7931 C 720.702 -4.93957 -0.911671 0
M  V30 7932 C 722.696 -6.36034 0.417129 0
M  V30 7933 C 720.383 -6.10693 -0.223068 0
M  V30 7934 C 721.381 -6.8158 0.440155 0
M  V30 7935 O 721.069 -7.96092 1.11772 0
M  V30 7936 H 720.801 -0.632783 -0.237828 0
M  V30 7937 H 723.355 -2.05248 -0.0790818 0
M  V30 7938 H 721.585 -2.98607 -2.45705 0
M  V30 7939 H 723.274 -3.36257 -2.27346 0
M  V30 7940 H 724.04 -4.84198 -0.278774 0
M  V30 7941 H 719.919 -4.38671 -1.41734 0
M  V30 7942 H 723.463 -6.91301 0.93537 0
M  V30 7943 H 719.36 -6.45159 -0.209821 0
M  V30 7944 H 720.128 -8.12064 1.02443 0
M  V30 7945 N 722.791 0.367657 -1.53252 0
M  V30 7946 C 723.721 1.45632 -1.8252 0
M  V30 7947 C 724.702 1.55979 -0.678568 0
M  V30 7948 O 725.887 1.70581 -0.928217 0
M  V30 7949 C 723.017 2.82994 -2.01325 0
M  V30 7950 C 721.971 2.87473 -3.17086 0
M  V30 7951 C 721.297 4.2749 -3.21179 0
M  V30 7952 C 722.597 2.55182 -4.55719 0
M  V30 7953 H 724.291 1.21387 -2.73689 0
M  V30 7954 H 721.837 0.58251 -1.31692 0
M  V30 7955 H 723.79 3.59179 -2.20383 0
M  V30 7956 H 722.514 3.08622 -1.06864 0
M  V30 7957 H 721.173 2.13739 -2.97844 0
M  V30 7958 H 720.821 4.5019 -2.24361 0
M  V30 7959 H 720.521 4.31403 -3.98955 0
M  V30 7960 H 722.045 5.0555 -3.42419 0
M  V30 7961 H 723.459 3.21081 -4.74953 0
M  V30 7962 H 721.856 2.70414 -5.3572 0
M  V30 7963 H 722.926 1.5044 -4.60973 0
M  V30 7964 N 724.269 1.44576 0.627338 0
M  V30 7965 C 725.216 1.51734 1.73912 0
M  V30 7966 C 726.186 0.364745 1.62046 0
M  V30 7967 O 727.371 0.575503 1.81914 0
M  V30 7968 C 724.511 1.47116 3.12171 0
M  V30 7969 C 723.624 2.72778 3.34986 0
M  V30 7970 C 722.759 2.59968 4.63239 0
M  V30 7971 C 721.798 3.80776 4.79245 0
M  V30 7972 N 720.935 3.66618 5.98778 0
M  V30 7973 H 725.775 2.46722 1.6713 0
M  V30 7974 H 723.312 1.22444 0.815224 0
M  V30 7975 H 725.27 1.42429 3.92135 0
M  V30 7976 H 723.9 0.556928 3.17959 0
M  V30 7977 H 722.952 2.87637 2.48936 0
M  V30 7978 H 724.264 3.62441 3.42692 0
M  V30 7979 H 723.418 2.53135 5.51369 0
M  V30 7980 H 722.157 1.67872 4.57898 0
M  V30 7981 H 721.162 3.87989 3.89544 0
M  V30 7982 H 722.387 4.73913 4.86398 0
M  V30 7983 H 720.333 2.77277 5.9452 0
M  V30 7984 H 720.25 4.499 6.07557 0
M  V30 7985 H 721.518 3.63684 6.89459 0
M  V30 7986 N 725.747 -0.868086 1.31537 0
M  V30 7987 C 726.697 -1.96321 1.1594 0
M  V30 7988 C 727.681 -1.60748 0.0698962 0
M  V30 7989 O 728.873 -1.74524 0.295011 0
M  V30 7990 C 726.002 -3.32073 0.870789 0
M  V30 7991 C 725.088 -3.73907 2.00136 0
M  V30 7992 N 725.479 -3.87685 3.24859 0
M  V30 7993 C 723.777 -4.03433 1.90152 0
M  V30 7994 C 724.478 -4.23454 3.98825 0
M  V30 7995 N 723.454 -4.34242 3.27009 0
M  V30 7996 H 727.256 -2.05088 2.10514 0
M  V30 7997 H 724.77 -1.059 1.23122 0
M  V30 7998 H 726.767 -4.10279 0.740034 0
M  V30 7999 H 725.427 -3.24631 -0.0667068 0
M  V30 8000 H 726.438 -3.72363 3.59953 0
M  V30 8001 H 723.115 -4.0437 1.03879 0
M  V30 8002 H 724.505 -4.41696 5.06314 0
M  V30 8003 N 727.225 -1.14528 -1.08264 0
M  V30 8004 C 728.45 -0.938381 -1.84957 0
M  V30 8005 C 728.875 0.508044 -1.81109 0
M  V30 8006 O 728.233 1.36146 -1.19724 0
M  V30 8007 C 728.281 -1.44568 -3.30352 0
M  V30 8008 O 727.385 -0.638745 -4.07423 0
M  V30 8009 H 726.726 -0.335394 -0.573068 0
M  V30 8010 H 729.256 -1.52287 -1.36637 0
M  V30 8011 H 729.266 -1.45449 -3.81194 0
M  V30 8012 H 727.941 -2.49876 -3.32468 0
M  V30 8013 H 726.518 -0.698801 -3.66294 0
M  V30 8014 N 728.703 1.26451 -0.940633 0
M  V30 8015 C 730.119 1.4608 -0.642859 0
M  V30 8016 C 730.319 1.84765 0.803998 0
M  V30 8017 O 729.375 1.96902 1.58069 0
M  V30 8018 C 730.688 2.54359 -1.60381 0
M  V30 8019 C 732.236 2.6821 -1.61345 0
M  V30 8020 C 732.711 3.79659 -2.56169 0
M  V30 8021 N 734.202 3.87051 -2.54452 0
M  V30 8022 C 734.937 4.72739 -3.24507 0
M  V30 8023 N 734.433 5.6282 -4.03987 0
M  V30 8024 N 736.226 4.66581 -3.13462 0
M  V30 8025 H 728.377 0.996289 -1.87584 0
M  V30 8026 H 730.64 0.498921 -0.80609 0
M  V30 8027 H 730.346 2.32758 -2.6366 0
M  V30 8028 H 730.22 3.52005 -1.35545 0
M  V30 8029 H 732.607 2.89184 -0.587913 0
M  V30 8030 H 732.688 1.7101 -1.90235 0
M  V30 8031 H 732.332 3.59438 -3.58841 0
M  V30 8032 H 732.262 4.76315 -2.2457 0
M  V30 8033 H 734.753 3.22649 -1.96739 0
M  V30 8034 H 735.066 6.25095 -4.54396 0
M  V30 8035 H 733.411 5.62574 -4.08088 0
M  V30 8036 H 736.602 3.9521 -2.50852 0
M  V30 8037 H 736.775 5.33141 -3.68327 0
M  V30 8038 N 730.181 0.707592 1.40822 0
M  V30 8039 C 731.411 0.252706 2.05049 0
M  V30 8040 C 731.819 -1.10758 1.53393 0
M  V30 8041 O 731.162 -1.70567 0.682097 0
M  V30 8042 C 731.224 0.146001 3.59203 0
M  V30 8043 C 730.888 1.44027 4.33711 0
M  V30 8044 C 731.885 2.38058 4.62195 0
M  V30 8045 C 729.57 1.69698 4.72766 0
M  V30 8046 C 731.564 3.56013 5.28709 0
M  V30 8047 C 729.251 2.87936 5.39014 0
M  V30 8048 C 730.249 3.80915 5.66915 0
M  V30 8049 O 729.937 4.9708 6.31796 0
M  V30 8050 H 729.669 0.112784 0.666525 0
M  V30 8051 H 732.223 0.96417 1.81364 0
M  V30 8052 H 730.453 -0.621338 3.81676 0
M  V30 8053 H 732.142 -0.273275 4.04979 0
M  V30 8054 H 732.908 2.19487 4.32493 0
M  V30 8055 H 728.787 0.981835 4.50423 0
M  V30 8056 H 732.331 4.28604 5.50404 0
M  V30 8057 H 728.228 3.06419 5.68135 0
M  V30 8058 H 728.996 4.97053 6.50293 0
M  V30 8059 N 731.66 -1.50943 0.453197 0
M  V30 8060 C 732.59 -2.31005 -0.34044 0
M  V30 8061 C 733.571 -1.37112 -1.00669 0
M  V30 8062 O 734.756 -1.66033 -1.0073 0
M  V30 8063 C 731.886 -3.16358 -1.433 0
M  V30 8064 C 730.84 -4.18658 -0.889363 0
M  V30 8065 C 730.166 -4.92633 -2.07887 0
M  V30 8066 C 731.466 -5.22227 0.0871142 0
M  V30 8067 H 733.16 -2.97601 0.327723 0
M  V30 8068 H 730.706 -1.43119 0.159054 0
M  V30 8069 H 732.659 -3.71155 -1.99555 0
M  V30 8070 H 731.383 -2.47613 -2.12968 0
M  V30 8071 H 730.042 -3.64936 -0.348915 0
M  V30 8072 H 729.69 -4.20376 -2.76211 0
M  V30 8073 H 729.39 -5.61819 -1.72143 0
M  V30 8074 H 730.914 -5.50258 -2.64666 0
M  V30 8075 H 732.328 -5.72001 -0.385656 0
M  V30 8076 H 730.725 -5.99032 0.357926 0
M  V30 8077 H 731.795 -4.74077 1.01879 0
M  V30 8078 N 733.138 -0.185124 -1.56509 0
M  V30 8079 C 734.549 0.329221 -1.83774 0
M  V30 8080 C 734.9 1.62093 -1.10545 0
M  V30 8081 O 734.025 2.13334 -0.36298 0
M  V30 8082 C 734.62 0.604099 -3.33371 0
M  V30 8083 C 733.179 1.06284 -3.61083 0
M  V30 8084 C 732.326 0.10608 -2.77097 0
M  V30 8085 H 735.277 -0.409116 -1.53336 0
M  V30 8086 H 735.298 1.45458 -3.51599 0
M  V30 8087 H 734.81 -0.336201 -3.86641 0
M  V30 8088 H 732.911 2.01777 -3.13236 0
M  V30 8089 H 733.024 0.962453 -4.69333 0
M  V30 8090 H 731.388 0.606082 -2.47384 0
M  V30 8091 H 732.171 -0.828486 -3.33153 0
M  V30 8092 N 734.616 1.57351 0.0885366 0
M  V30 8093 C 735.864 1.86051 0.789262 0
M  V30 8094 C 736.185 0.774763 1.78948 0
M  V30 8095 O 735.455 -0.198324 1.94894 0
M  V30 8096 H 734.035 0.686508 0.294475 0
M  V30 8097 H 736.697 1.94779 0.0686055 0
M  V30 8098 H 735.793 2.83007 1.31581 0
M  V30 8099 N 736.094 -0.359525 1.53444 0
M  V30 8100 C 737.343 -1.09886 1.69139 0
M  V30 8101 C 737.656 -1.90285 0.452863 0
M  V30 8102 O 738.862 -2.67033 0.490459 0
M  V30 8103 C 737.318 -2.0028 2.99025 0
M  V30 8104 C 736.926 -1.25164 4.30161 0
M  V30 8105 C 738.67 -2.74168 3.24086 0
M  V30 8106 C 736.577 -2.14494 5.51132 0
M  V30 8107 H 735.507 -0.413936 0.630217 0
M  V30 8108 H 738.158 -0.359434 1.79945 0
M  V30 8109 H 736.54 -2.77978 2.82036 0
M  V30 8110 H 737.714 -0.524867 4.57801 0
M  V30 8111 H 736.029 -0.631116 4.11589 0
M  V30 8112 H 738.626 -3.41243 4.11652 0
M  V30 8113 H 738.969 -3.39868 2.40407 0
M  V30 8114 H 739.502 -2.0355 3.41778 0
M  V30 8115 H 736.241 -1.53362 6.37307 0
M  V30 8116 H 735.761 -2.85004 5.27762 0
M  V30 8117 H 737.44 -2.73914 5.86157 0
M  V30 8118 N 737.572 -1.44907 -0.619662 0
M  V30 8119 C 738.797 -1.52021 -1.41083 0
M  V30 8120 C 739.222 -0.14976 -1.87503 0
M  V30 8121 O 738.58 0.863303 -1.59426 0
M  V30 8122 C 738.628 -2.49911 -2.59955 0
M  V30 8123 O 737.732 -2.00857 -3.60181 0
M  V30 8124 H 737.073 -0.512912 -0.421684 0
M  V30 8125 H 739.603 -1.90149 -0.755282 0
M  V30 8126 H 739.613 -2.68323 -3.07354 0
M  V30 8127 H 738.288 -3.4945 -2.25516 0
M  V30 8128 H 736.865 -1.92265 -3.19513 0
M  V30 8129 N 739.05 0.861098 -1.31996 0
M  V30 8130 C 740.299 1.60965 -1.21545 0
M  V30 8131 C 740.612 1.94325 0.222972 0
M  V30 8132 O 741.818 2.67757 0.449272 0
M  V30 8133 C 740.274 2.90223 -2.12834 0
M  V30 8134 C 739.882 2.64313 -3.61722 0
M  V30 8135 C 741.626 3.68229 -2.11205 0
M  V30 8136 C 739.533 3.89532 -4.44993 0
M  V30 8137 H 738.463 0.603988 -0.451348 0
M  V30 8138 H 741.114 0.951358 -1.56912 0
M  V30 8139 H 739.496 3.57475 -1.70375 0
M  V30 8140 H 740.67 2.05413 -4.12483 0
M  V30 8141 H 738.985 1.99647 -3.65418 0
M  V30 8142 H 741.582 4.61138 -2.70658 0
M  V30 8143 H 741.925 4.01466 -1.1014 0
M  V30 8144 H 742.458 3.07873 -2.51911 0
M  V30 8145 H 739.197 3.61441 -5.46846 0
M  V30 8146 H 738.717 4.47851 -3.98985 0
M  V30 8147 H 740.396 4.57334 -4.57663 0
M  V30 8148 N 740.528 1.15101 1.07655 0
M  V30 8149 C 741.944 0.893004 1.32279 0
M  V30 8150 C 742.144 -0.461701 1.96139 0
M  V30 8151 O 741.2 -1.20431 2.21929 0
M  V30 8152 C 742.513 2.03161 2.21689 0
M  V30 8153 C 744.061 2.06579 2.35147 0
M  V30 8154 C 744.536 3.19754 3.27905 0
M  V30 8155 N 746.027 3.19382 3.35484 0
M  V30 8156 C 746.762 4.03592 4.07309 0
M  V30 8157 N 746.258 4.97859 4.81776 0
M  V30 8158 N 748.051 3.91626 4.03219 0
M  V30 8159 H 740.202 2.02341 0.645886 0
M  V30 8160 H 742.465 0.882127 0.347211 0
M  V30 8161 H 742.171 3.00934 1.82021 0
M  V30 8162 H 742.045 1.96132 3.22199 0
M  V30 8163 H 744.432 1.09408 2.74069 0
M  V30 8164 H 744.513 2.17676 1.34353 0
M  V30 8165 H 744.157 4.17175 2.89702 0
M  V30 8166 H 744.087 3.05893 4.28645 0
M  V30 8167 H 746.578 2.51112 2.82403 0
M  V30 8168 H 746.891 5.58563 5.34067 0
M  V30 8169 H 745.236 5.0185 4.80803 0
M  V30 8170 H 748.427 3.17295 3.44154 0
M  V30 8171 H 748.6 4.57479 4.5893 0
M  V30 8172 N 742.006 -1.2595 0.947325 0
M  V30 8173 C 742.954 -2.28152 0.452687 0
M  V30 8174 C 743.948 -1.62655 -0.473239 0
M  V30 8175 O 745.154 -1.76549 -0.350774 0
M  V30 8176 H 741.529 -0.741049 0.12787 0
M  V30 8177 H 743.5 -2.67267 1.32707 0
M  V30 8178 C 742.249 -3.46719 -0.26098 0
M  V30 8179 H 741.572 -3.97345 0.442352 0
M  V30 8180 H 743.012 -4.20135 -0.571208 0
M  V30 8181 C 741.471 -3.02605 -1.48094 0
M  V30 8182 O 742.001 -3.07979 -2.57899 0
M  V30 8183 N 740.207 -2.57877 -1.33969 0
M  V30 8184 H 739.754 -2.53704 -0.446295 0
M  V30 8185 H 739.712 -2.28725 -2.15713 0
M  V30 8186 N 743.484 -0.715051 -1.40445 0
M  V30 8187 C 744.732 -0.253826 -2.005 0
M  V30 8188 C 745.053 1.15681 -1.5698 0
M  V30 8189 O 744.323 1.78414 -0.809027 0
M  V30 8190 H 742.903 -0.0908537 -0.741454 0
M  V30 8191 H 745.565 -0.920561 -1.7179 0
M  V30 8192 H 744.661 -0.286499 -3.10782 0
M  V30 8193 N 744.962 1.50701 -0.461195 0
M  V30 8194 C 746.211 2.01458 0.0988277 0
M  V30 8195 C 746.524 1.34863 1.41673 0
M  V30 8196 O 747.73 1.76721 2.06111 0
M  V30 8197 C 746.186 3.59186 0.226648 0
M  V30 8198 C 745.794 4.34732 -1.08223 0
M  V30 8199 C 747.538 4.18015 0.73916 0
M  V30 8200 C 745.445 5.8422 -0.918747 0
M  V30 8201 H 744.375 0.7529 0.040709 0
M  V30 8202 H 747.026 1.736 -0.594589 0
M  V30 8203 H 745.408 3.83589 0.983621 0
M  V30 8204 H 746.582 4.22059 -1.84939 0
M  V30 8205 H 744.897 3.87466 -1.52509 0
M  V30 8206 H 747.494 5.27436 0.878347 0
M  V30 8207 H 747.837 3.78746 1.72793 0
M  V30 8208 H 748.37 3.9778 0.0398469 0
M  V30 8209 H 745.109 6.27944 -1.88059 0
M  V30 8210 H 744.629 5.99493 -0.191801 0
M  V30 8211 H 746.308 6.44382 -0.581405 0
M  V30 8212 N 746.441 0.193421 1.56409 0
M  V30 8213 C 747.371 -0.723334 2.22014 0
M  V30 8214 C 748.352 -1.22254 1.1827 0
M  V30 8215 O 749.537 -1.27168 1.46771 0
M  V30 8216 C 746.667 -1.94366 2.87818 0
M  V30 8217 C 745.621 -1.57943 3.97791 0
M  V30 8218 C 744.947 -2.87623 4.50752 0
M  V30 8219 C 746.247 -0.790639 5.16281 0
M  V30 8220 H 747.941 -0.176426 2.9888 0
M  V30 8221 H 745.487 -0.0834166 1.43758 0
M  V30 8222 H 747.44 -2.5902 3.32396 0
M  V30 8223 H 746.164 -2.51507 2.08355 0
M  V30 8224 H 744.823 -0.956482 3.53903 0
M  V30 8225 H 744.471 -3.4285 3.68053 0
M  V30 8226 H 744.171 -2.63998 5.24956 0
M  V30 8227 H 745.695 -3.53268 4.9803 0
M  V30 8228 H 747.109 -1.34024 5.57414 0
M  V30 8229 H 745.506 -0.65258 5.96541 0
M  V30 8230 H 746.576 0.208633 4.84451 0
M  V30 8231 N 747.919 -1.57396 -0.0801906 0
M  V30 8232 C 749.144 -1.91437 -0.797909 0
M  V30 8233 C 749.569 -0.789075 -1.70749 0
M  V30 8234 O 748.927 0.25857 -1.79447 0
M  V30 8235 C 748.975 -3.24402 -1.57467 0
M  V30 8236 O 748.079 -3.13043 -2.68473 0
M  V30 8237 H 747.42 -0.627109 -0.218243 0
M  V30 8238 H 749.95 -2.04537 -0.050949 0
M  V30 8239 H 749.96 -3.58072 -1.95571 0
M  V30 8240 H 748.635 -4.05884 -0.907229 0
M  V30 8241 H 747.212 -2.90915 -2.33287 0
M  V30 8242 N 749.397 0.351382 -1.53633 0
M  V30 8243 C 750.345 1.45142 -1.8176 0
M  V30 8244 C 751.339 1.54819 -0.687571 0
M  V30 8245 O 752.545 1.57536 -0.870772 0
M  V30 8246 H 748.92 0.483789 -0.575719 0
M  V30 8247 H 750.891 1.1863 -2.73806 0
M  V30 8248 C 749.64 2.81779 -2.03706 0
M  V30 8249 H 748.963 2.75097 -2.90107 0
M  V30 8250 H 750.403 3.5789 -2.27356 0
M  V30 8251 C 748.862 3.26762 -0.820271 0
M  V30 8252 O 749.392 4.01697 -0.0158603 0
M  V30 8253 N 747.598 2.83472 -0.639699 0
M  V30 8254 H 747.145 2.22655 -1.29547 0
M  V30 8255 H 747.103 3.13924 0.172995 0
M  V30 8256 N 750.875 1.45233 0.611969 0
M  V30 8257 C 752.286 1.4354 1.19387 0
M  V30 8258 C 752.637 0.160713 1.95541 0
M  V30 8259 O 751.762 -0.737954 2.03429 0
M  V30 8260 C 752.357 2.60045 2.17169 0
M  V30 8261 C 750.916 2.61486 2.70744 0
M  V30 8262 C 750.063 2.35708 1.46072 0
M  V30 8263 H 753.014 1.53536 0.401529 0
M  V30 8264 H 753.035 2.33893 3.00124 0
M  V30 8265 H 752.547 3.52803 1.61714 0
M  V30 8266 H 750.648 1.72721 3.30149 0
M  V30 8267 H 750.761 3.60572 3.15476 0
M  V30 8268 H 749.125 1.85178 1.74875 0
M  V30 8269 H 749.908 3.30606 0.924922 0
M  V30 8270 N 752.353 -0.854086 1.3245 0
M  V30 8271 C 753.601 -1.60513 1.228 0
M  V30 8272 C 753.922 -1.93865 -0.210073 0
M  V30 8273 O 753.192 -1.59673 -1.13496 0
M  V30 8274 H 751.772 -0.595099 0.451516 0
M  V30 8275 H 754.434 -1.0216 1.6598 0
M  V30 8276 H 753.53 -2.54182 1.81102 0
M  V30 8277 N 753.831 -1.1567 -1.07043 0
M  V30 8278 C 754.778 -0.856336 -2.14326 0
M  V30 8279 C 755.748 0.192051 -1.64986 0
M  V30 8280 O 756.933 0.0589148 -1.90709 0
M  V30 8281 C 754.073 -0.355227 -3.43267 0
M  V30 8282 C 753.186 -1.46555 -4.06381 0
M  V30 8283 C 752.321 -0.920245 -5.23168 0
M  V30 8284 C 751.36 -2.00729 -5.78251 0
M  V30 8285 N 750.497 -1.47813 -6.86364 0
M  V30 8286 H 755.337 -1.77514 -2.39359 0
M  V30 8287 H 752.874 -0.885676 -1.17449 0
M  V30 8288 H 754.832 -0.0463804 -4.17174 0
M  V30 8289 H 753.462 0.526649 -3.18475 0
M  V30 8290 H 752.514 -1.89052 -3.30096 0
M  V30 8291 H 753.826 -2.28616 -4.43324 0
M  V30 8292 H 752.98 -0.564127 -6.04072 0
M  V30 8293 H 751.719 -0.0688477 -4.87651 0
M  V30 8294 H 750.724 -2.3722 -4.95991 0
M  V30 8295 H 751.949 -2.86252 -6.15822 0
M  V30 8296 H 749.895 -0.649145 -6.5278 0
M  V30 8297 H 749.812 -2.23498 -7.22208 0
M  V30 8298 H 751.08 -1.15036 -7.70965 0
M  V30 8299 N 755.309 1.25446 -0.953992 0
M  V30 8300 C 756.219 2.29632 -0.480264 0
M  V30 8301 C 757.235 1.68025 0.452071 0
M  V30 8302 O 758.411 1.98703 0.328472 0
M  V30 8303 C 755.476 3.45903 0.234974 0
M  V30 8304 C 754.537 4.22953 -0.735495 0
M  V30 8305 C 753.77 5.33672 -0.0542957 0
M  V30 8306 O 753.993 5.58477 1.16018 0
M  V30 8307 O 752.927 5.9734 -0.739509 0
M  V30 8308 H 756.753 2.72242 -1.34602 0
M  V30 8309 H 754.338 1.30883 -0.720419 0
M  V30 8310 H 756.22 4.16552 0.637341 0
M  V30 8311 H 754.895 3.05296 1.07592 0
M  V30 8312 H 753.802 3.54734 -1.18806 0
M  V30 8313 H 755.135 4.67341 -1.54444 0
M  V30 8314 N 756.787 0.722489 1.40064 0
M  V30 8315 C 758.034 0.264979 2.00759 0
M  V30 8316 C 758.362 -1.14395 1.57302 0
M  V30 8317 O 757.617 -1.79165 0.787298 0
M  V30 8318 C 757.916 0.300682 3.56133 0
M  V30 8319 C 757.582 1.66087 4.19197 0
M  V30 8320 C 756.244 2.03319 4.36136 0
M  V30 8321 C 758.596 2.55452 4.54306 0
M  V30 8322 C 755.924 3.29448 4.8547 0
M  V30 8323 C 758.276 3.8094 5.05042 0
M  V30 8324 C 756.94 4.1828 5.2019 0
M  V30 8325 H 756.21 0.0969625 0.734629 0
M  V30 8326 H 758.857 0.926877 1.67575 0
M  V30 8327 H 757.162 -0.44479 3.89267 0
M  V30 8328 H 758.859 -0.0712542 4.00937 0
M  V30 8329 H 755.449 1.36137 4.06405 0
M  V30 8330 H 759.633 2.27961 4.40849 0
M  V30 8331 H 754.889 3.58338 4.95382 0
M  V30 8332 H 759.063 4.50351 5.31184 0
M  V30 8333 H 756.69 5.16081 5.58179 0
M  V30 8334 N 758.265 -1.50454 0.469181 0
M  V30 8335 C 759.514 -2.01507 -0.0881425 0
M  V30 8336 C 759.827 -1.35613 -1.40956 0
M  V30 8337 O 761.033 -1.77812 -2.05171 0
M  V30 8338 C 759.489 -3.59301 -0.207596 0
M  V30 8339 C 759.097 -4.34152 1.10527 0
M  V30 8340 C 760.841 -4.18401 -0.716981 0
M  V30 8341 C 758.748 -5.83725 0.949717 0
M  V30 8342 H 757.678 -0.753106 -0.0367156 0
M  V30 8343 H 760.329 -1.73282 0.603788 0
M  V30 8344 H 758.711 -3.84106 -0.963265 0
M  V30 8345 H 759.885 -4.21073 1.87175 0
M  V30 8346 H 758.2 -3.86652 1.54562 0
M  V30 8347 H 760.797 -5.27895 -0.850363 0
M  V30 8348 H 761.14 -3.79657 -1.70782 0
M  V30 8349 H 761.673 -3.97796 -0.0187511 0
M  V30 8350 H 758.412 -6.26938 1.91387 0
M  V30 8351 H 757.932 -5.99383 0.223591 0
M  V30 8352 H 759.611 -6.44065 0.61557 0
M  V30 8353 N 759.743 -0.201713 -1.56304 0
M  V30 8354 C 761.154 0.309711 -1.84113 0
M  V30 8355 C 761.505 1.60912 -1.12258 0
M  V30 8356 O 760.63 2.12937 -0.385587 0
M  V30 8357 C 761.225 0.568706 -3.33993 0
M  V30 8358 C 759.784 1.02448 -3.6219 0
M  V30 8359 C 758.931 0.0766842 -2.77194 0
M  V30 8360 H 761.882 -0.425356 -1.52893 0
M  V30 8361 H 761.903 1.41721 -3.53122 0
M  V30 8362 H 761.415 -0.37719 -3.86263 0
M  V30 8363 H 759.516 1.98443 -3.15359 0
M  V30 8364 H 759.629 0.912619 -4.70328 0
M  V30 8365 H 757.993 0.579809 -2.48013 0
M  V30 8366 H 758.776 -0.863774 -3.32256 0
M  V30 8367 N 761.222 1.57436 0.0718424 0
M  V30 8368 C 762.633 1.75975 0.623678 0
M  V30 8369 C 762.984 0.827155 1.77912 0
M  V30 8370 O 762.109 0.0112425 2.16397 0
M  V30 8371 C 762.704 3.1911 1.13816 0
M  V30 8372 C 761.263 3.38994 1.63586 0
M  V30 8373 C 760.41 2.71684 0.555261 0
M  V30 8374 H 763.361 1.57948 -0.154328 0
M  V30 8375 H 763.382 3.23267 2.00696 0
M  V30 8376 H 762.894 3.86962 0.296998 0
M  V30 8377 H 760.995 2.76256 2.50027 0
M  V30 8378 H 761.108 4.47436 1.71283 0
M  V30 8379 H 759.472 2.34236 1.00029 0
M  V30 8380 H 760.255 3.42191 -0.275712 0
M  V30 8381 N 762.7 -0.34323 1.53817 0
M  V30 8382 C 763.648 -1.44176 1.82527 0
M  V30 8383 C 764.642 -1.54452 0.695772 0
M  V30 8384 O 765.848 -1.57072 0.879114 0
M  V30 8385 H 762.223 -0.480729 0.578277 0
M  V30 8386 H 764.194 -1.17176 2.74431 0
M  V30 8387 C 762.943 -2.80695 2.05197 0
M  V30 8388 H 762.266 -2.73554 2.91561 0
M  V30 8389 H 763.706 -3.56679 2.29251 0
M  V30 8390 C 762.165 -3.26322 0.837589 0
M  V30 8391 O 762.695 -4.01683 0.0371631 0
M  V30 8392 N 760.901 -2.83128 0.654724 0
M  V30 8393 H 760.448 -2.21965 1.30725 0
M  V30 8394 H 760.406 -3.14011 -0.156345 0
M  V30 8395 N 764.178 -1.45556 -0.604258 0
M  V30 8396 C 765.589 -1.44171 -1.18624 0
M  V30 8397 C 765.94 -0.171081 -1.95453 0
M  V30 8398 O 765.065 0.727156 -2.03817 0
M  V30 8399 C 765.66 -2.61193 -2.15786 0
M  V30 8400 C 764.219 -2.62918 -2.69353 0
M  V30 8401 C 763.366 -2.36479 -1.4482 0
M  V30 8402 H 766.317 -1.53747 -0.393381 0
M  V30 8403 H 766.338 -2.35481 -2.98879 0
M  V30 8404 H 765.85 -3.53656 -1.59841 0
M  V30 8405 H 763.951 -1.7447 -3.29228 0
M  V30 8406 H 764.064 -3.6224 -3.13559 0
M  V30 8407 H 762.428 -1.86103 -1.73891 0
M  V30 8408 H 763.211 -3.31091 -0.907376 0
M  V30 8409 N 765.656 0.84705 -1.32902 0
M  V30 8410 C 766.902 1.60389 -1.25088 0
M  V30 8411 C 767.257 1.91521 0.183723 0
M  V30 8412 O 766.55 1.55197 1.12359 0
M  V30 8413 C 766.744 2.92663 -2.05142 0
M  V30 8414 C 766.573 2.74449 -3.56241 0
M  V30 8415 C 765.343 2.72434 -4.25567 0
M  V30 8416 C 767.541 2.47666 -4.5074 0
M  V30 8417 N 765.523 2.45512 -5.62669 0
M  V30 8418 C 766.894 2.30219 -5.75673 0
M  V30 8419 C 768.949 2.33196 -4.39914 0
M  V30 8420 C 767.652 1.99772 -6.91002 0
M  V30 8421 C 769.678 2.0414 -5.5505 0
M  V30 8422 C 769.04 1.875 -6.78987 0
M  V30 8423 H 765.139 0.590296 -0.512908 0
M  V30 8424 H 767.723 0.995058 -1.67352 0
M  V30 8425 H 765.894 3.51511 -1.65211 0
M  V30 8426 H 767.626 3.5777 -1.89163 0
M  V30 8427 H 764.381 2.85647 -3.7776 0
M  V30 8428 H 764.805 2.34958 -6.3492 0
M  V30 8429 H 769.447 2.44777 -3.44738 0
M  V30 8430 H 767.165 1.86928 -7.86183 0
M  V30 8431 H 770.751 1.93711 -5.48605 0
M  V30 8432 H 769.631 1.65339 -7.66572 0
M  V30 8433 N 767.134 1.16236 1.06428 0
M  V30 8434 C 768.359 0.967688 1.83441 0
M  V30 8435 C 768.784 -0.479167 1.81894 0
M  V30 8436 O 768.142 -1.34224 1.21875 0
M  V30 8437 C 768.19 1.49806 3.2801 0
M  V30 8438 O 767.294 0.703481 4.06356 0
M  V30 8439 H 766.635 0.344468 0.56766 0
M  V30 8440 H 769.165 1.54442 1.34197 0
M  V30 8441 H 769.175 1.51495 3.78831 0
M  V30 8442 H 767.85 2.55133 3.2845 0
M  V30 8443 H 766.427 0.756986 3.65136 0
M  V30 8444 N 768.612 -1.24939 0.960631 0
M  V30 8445 C 769.837 -1.9742 0.635608 0
M  V30 8446 C 770.262 -1.70857 -0.786737 0
M  V30 8447 O 769.62 -0.968063 -1.53291 0
M  V30 8448 C 769.668 -3.48987 0.907771 0
M  V30 8449 O 768.772 -4.12399 -0.0104053 0
M  V30 8450 H 768.113 -0.61871 0.241027 0
M  V30 8451 H 770.643 -1.58901 1.28886 0
M  V30 8452 H 770.653 -3.99334 0.836453 0
M  V30 8453 H 769.328 -3.6765 1.94439 0
M  V30 8454 H 767.905 -3.72727 0.113631 0
M  V30 8455 N 770.09 -0.729906 -1.39679 0
M  V30 8456 C 771.315 -0.284345 -2.05442 0
M  V30 8457 C 771.74 1.07056 -1.54663 0
M  V30 8458 O 771.098 1.67732 -0.688157 0
M  V30 8459 C 771.146 -0.290089 -3.59431 0
M  V30 8460 O 770.25 0.723978 -4.05995 0
M  V30 8461 H 769.591 -0.130311 -0.651088 0
M  V30 8462 H 772.121 -0.994403 -1.78809 0
M  V30 8463 H 772.131 -0.132712 -4.07784 0
M  V30 8464 H 770.806 -1.27877 -3.95753 0
M  V30 8465 H 769.383 0.533154 -3.69069 0
M  V30 8466 N 771.568 1.50203 -0.477153 0
M  V30 8467 C 772.816 2.01959 0.0755889 0
M  V30 8468 C 773.137 1.3608 1.39668 0
M  V30 8469 O 772.407 0.508136 1.89195 0
M  V30 8470 H 770.987 0.74636 0.0309248 0
M  V30 8471 H 773.649 1.84473 -0.628959 0
M  V30 8472 H 772.745 3.11305 0.222683 0
M  V30 8473 N 773.046 0.209999 1.56195 0
M  V30 8474 C 773.976 -0.699746 2.22769 0
M  V30 8475 C 774.957 -1.20993 1.1956 0
M  V30 8476 O 776.142 -1.25605 1.48112 0
M  V30 8477 C 773.272 -1.91302 2.89863 0
M  V30 8478 C 772.226 -1.53715 3.99444 0
M  V30 8479 C 771.552 -2.82826 4.53777 0
M  V30 8480 C 772.852 -0.735836 5.17091 0
M  V30 8481 H 774.546 -0.144716 2.9905 0
M  V30 8482 H 772.092 -0.0681645 1.43839 0
M  V30 8483 H 774.045 -2.5548 3.35124 0
M  V30 8484 H 772.769 -2.49283 2.11011 0
M  V30 8485 H 771.428 -0.918892 3.54897 0
M  V30 8486 H 771.076 -3.38927 3.71669 0
M  V30 8487 H 770.776 -2.58415 5.27727 0
M  V30 8488 H 772.3 -3.47966 5.01749 0
M  V30 8489 H 773.714 -1.28105 5.58804 0
M  V30 8490 H 772.111 -0.589272 5.972 0
M  V30 8491 H 773.181 0.260004 4.84202 0
M  V30 8492 N 774.524 -1.57472 -0.0634922 0
M  V30 8493 C 775.749 -1.92273 -0.77756 0
M  V30 8494 C 776.174 -0.807141 -1.69902 0
M  V30 8495 O 775.532 0.239523 -1.79711 0
M  V30 8496 C 775.58 -3.26054 -1.54017 0
M  V30 8497 O 774.684 -3.15873 -2.65138 0
M  V30 8498 H 774.025 -0.629389 -0.211579 0
M  V30 8499 H 776.555 -2.04579 -0.0292523 0
M  V30 8500 H 776.565 -3.60127 -1.91763 0
M  V30 8501 H 775.24 -4.06824 -0.864128 0
M  V30 8502 H 773.817 -2.93373 -2.30189 0
M  V30 8503 N 776.003 0.335068 -1.53997 0
M  V30 8504 C 777.251 1.07223 -1.71312 0
M  V30 8505 C 777.572 1.88911 -0.483486 0
M  V30 8506 O 776.842 1.89344 0.50257 0
M  V30 8507 H 775.422 0.398846 -0.63161 0
M  V30 8508 H 778.084 0.374288 -1.91272 0
M  V30 8509 H 777.18 1.7448 -2.58772 0
M  V30 8510 N 777.481 1.45874 0.596531 0
M  V30 8511 C 778.428 1.55389 1.70655 0
M  V30 8512 C 779.398 0.399036 1.61236 0
M  V30 8513 O 780.583 0.61396 1.80652 0
M  V30 8514 C 777.723 1.53705 3.0898 0
M  V30 8515 C 776.836 2.79823 3.29125 0
M  V30 8516 C 775.971 2.69735 4.5762 0
M  V30 8517 C 775.01 3.90856 4.71061 0
M  V30 8518 N 774.147 3.79237 5.90867 0
M  V30 8519 H 778.987 2.50211 1.61859 0
M  V30 8520 H 776.524 1.24146 0.789069 0
M  V30 8521 H 778.482 1.50715 3.89026 0
M  V30 8522 H 777.112 0.624247 3.16706 0
M  V30 8523 H 776.164 2.92852 2.42779 0
M  V30 8524 H 777.476 3.69628 3.34927 0
M  V30 8525 H 776.63 2.64773 5.45875 0
M  V30 8526 H 775.369 1.77547 4.54234 0
M  V30 8527 H 774.374 3.96164 3.81227 0
M  V30 8528 H 775.599 4.84124 4.76236 0
M  V30 8529 H 773.545 2.89825 5.88504 0
M  V30 8530 H 773.462 4.62686 5.97877 0
M  V30 8531 H 774.73 3.78227 6.8159 0
M  V30 8532 N 778.959 -0.83999 1.33349 0
M  V30 8533 C 780.184 -1.63249 1.27924 0
M  V30 8534 C 780.609 -1.87523 -0.147193 0
M  V30 8535 O 779.967 -1.43853 -1.10345 0
M  V30 8536 C 780.015 -2.96046 2.05886 0
M  V30 8537 O 779.119 -3.87303 1.4167 0
M  V30 8538 H 778.46 -0.49715 0.440157 0
M  V30 8539 H 780.99 -1.04512 1.75893 0
M  V30 8540 H 781 -3.45752 2.16609 0
M  V30 8541 H 779.675 -2.77701 3.09605 0
M  V30 8542 H 778.252 -3.45789 1.39585 0
M  V30 8543 N 780.437 -1.16799 -1.0581 0
M  V30 8544 C 781.662 -0.977402 -1.82925 0
M  V30 8545 C 782.087 0.469514 -1.82146 0
M  V30 8546 O 781.445 1.33576 -1.22585 0
M  V30 8547 C 781.493 -1.51543 -3.27211 0
M  V30 8548 O 780.597 -0.725021 -4.05977 0
M  V30 8549 H 779.938 -0.347474 -0.565825 0
M  V30 8550 H 782.468 -1.55151 -1.33376 0
M  V30 8551 H 782.478 -1.53502 -3.78023 0
M  V30 8552 H 781.153 -2.56872 -3.27093 0
M  V30 8553 H 779.73 -0.77634 -3.64729 0
M  V30 8554 N 781.915 1.24427 -0.967243 0
M  V30 8555 C 783.163 1.92107 -0.627638 0
M  V30 8556 C 783.484 1.75991 0.83978 0
M  V30 8557 O 782.754 1.13118 1.59941 0
M  V30 8558 H 781.334 0.710986 -0.229145 0
M  V30 8559 H 783.996 1.51331 -1.22821 0
M  V30 8560 H 783.092 2.99791 -0.867844 0
M  V30 8561 N 783.393 0.737304 1.3929 0
M  V30 8562 C 784.621 0.296573 2.04763 0
M  V30 8563 C 785.036 -1.06941 1.55592 0
M  V30 8564 O 784.393 -1.67619 0.721822 0
M  V30 8565 C 784.444 0.291906 3.6032 0
M  V30 8566 O 784.165 1.60397 4.07682 0
M  V30 8567 C 785.666 -0.164708 4.42994 0
M  V30 8568 H 782.886 0.129251 0.658434 0
M  V30 8569 H 785.43 1.0016 1.78293 0
M  V30 8570 H 783.585 -0.364251 3.85684 0
M  V30 8571 H 783.999 1.51909 5.0202 0
M  V30 8572 H 785.473 -0.116814 5.51876 0
M  V30 8573 H 785.95 -1.21022 4.22197 0
M  V30 8574 H 786.556 0.461968 4.22784 0
M  V30 8575 N 784.871 -1.49948 0.485112 0
M  V30 8576 C 785.804 -2.25531 -0.348027 0
M  V30 8577 C 786.782 -1.29433 -0.984172 0
M  V30 8578 O 787.966 -1.58687 -1.01738 0
M  V30 8579 C 785.093 -3.04225 -1.48878 0
M  V30 8580 C 784.139 -4.15355 -0.968616 0
M  V30 8581 S 784.972 -5.35347 0.127934 0
M  V30 8582 C 786.128 -6.17593 -1.01637 0
M  V30 8583 H 786.361 -2.95847 0.293529 0
M  V30 8584 H 783.894 -1.52018 0.27018 0
M  V30 8585 H 785.852 -3.50153 -2.14251 0
M  V30 8586 H 784.513 -2.33407 -2.1019 0
M  V30 8587 H 783.706 -4.69873 -1.82305 0
M  V30 8588 H 783.308 -3.71936 -0.392377 0
M  V30 8589 H 785.6 -6.49576 -1.92503 0
M  V30 8590 H 786.543 -7.0626 -0.510149 0
M  V30 8591 H 786.951 -5.49877 -1.27653 0
M  V30 8592 N 786.349 -0.21828 -1.56081 0
M  V30 8593 C 787.574 0.422302 -2.03055 0
M  V30 8594 C 787.999 1.5279 -1.09713 0
M  V30 8595 O 787.357 1.81102 -0.0847187 0
M  V30 8596 C 787.405 0.934177 -3.48289 0
M  V30 8597 O 786.509 2.04574 -3.58083 0
M  V30 8598 H 785.85 0.0959764 -0.657027 0
M  V30 8599 H 788.38 -0.335958 -2.01823 0
M  V30 8600 H 788.39 1.24484 -3.88546 0
M  V30 8601 H 787.065 0.124963 -4.15712 0
M  V30 8602 H 785.642 1.74196 -3.29712 0
M  V30 8603 N 787.827 1.57504 0.0551401 0
M  V30 8604 C 789.073 1.88334 0.752216 0
M  V30 8605 C 789.406 0.812742 1.76375 0
M  V30 8606 O 788.681 -0.175198 1.93709 0
M  V30 8607 C 788.964 3.29824 1.44528 0
M  V30 8608 C 788.817 4.47553 0.449026 0
M  V30 8609 C 790.136 3.69808 2.38601 0
M  V30 8610 H 787.255 0.684973 0.271995 0
M  V30 8611 H 789.897 1.89994 0.0151895 0
M  V30 8612 H 788.047 3.28539 2.07351 0
M  V30 8613 H 789.719 4.60967 -0.175277 0
M  V30 8614 H 787.962 4.33168 -0.234162 0
M  V30 8615 H 788.633 5.43376 0.971917 0
M  V30 8616 H 791.109 3.72293 1.85842 0
M  V30 8617 H 789.985 4.69665 2.84088 0
M  V30 8618 H 790.246 3.00641 3.24141 0
M  V30 8619 N 789.305 -0.326896 1.54172 0
M  V30 8620 C 790.554 -1.06274 1.71431 0
M  V30 8621 C 790.867 -1.89282 0.493123 0
M  V30 8622 O 792.073 -2.65933 0.54699 0
M  V30 8623 C 790.529 -1.93892 3.03206 0
M  V30 8624 C 790.137 -1.16011 4.32719 0
M  V30 8625 C 791.881 -2.67232 3.29829 0
M  V30 8626 C 789.788 -2.02755 5.55558 0
M  V30 8627 H 788.718 -0.400475 0.638855 0
M  V30 8628 H 791.369 -0.321184 1.80667 0
M  V30 8629 H 789.751 -2.71933 2.87869 0
M  V30 8630 H 790.925 -0.427643 4.58811 0
M  V30 8631 H 789.24 -0.54367 4.12836 0
M  V30 8632 H 791.837 -3.32434 4.18798 0
M  V30 8633 H 792.18 -3.34692 2.47562 0
M  V30 8634 H 792.713 -1.96255 3.46018 0
M  V30 8635 H 789.452 -1.3981 6.40417 0
M  V30 8636 H 788.972 -2.73745 5.33689 0
M  V30 8637 H 790.651 -2.61419 5.91835 0
M  V30 8638 N 790.784 -1.46188 -0.588786 0
M  V30 8639 C 792.009 -1.5498 -1.37826 0
M  V30 8640 C 792.434 -0.189498 -1.87143 0
M  V30 8641 O 791.792 0.829293 -1.61222 0
M  V30 8642 C 791.84 -2.55369 -2.54596 0
M  V30 8643 O 790.944 -2.08452 -3.55839 0
M  V30 8644 H 790.285 -0.521741 -0.41071 0
M  V30 8645 H 792.815 -1.91708 -0.714779 0
M  V30 8646 H 792.825 -2.74782 -3.01594 0
M  V30 8647 H 791.5 -3.54155 -2.18052 0
M  V30 8648 H 790.077 -1.98999 -3.15363 0
M  V30 8649 N 792.262 0.832906 -1.33792 0
M  V30 8650 C 793.209 1.94314 -1.24541 0
M  V30 8651 C 794.179 1.65646 -0.122753 0
M  V30 8652 O 795.364 1.88394 -0.30204 0
M  V30 8653 C 792.504 3.30395 -0.996641 0
M  V30 8654 C 791.617 3.71422 -2.20612 0
M  V30 8655 C 790.752 4.96401 -1.89101 0
M  V30 8656 C 789.791 5.2998 -3.06247 0
M  V30 8657 N 788.928 6.46137 -2.74685 0
M  V30 8658 H 793.768 2.01559 -2.19495 0
M  V30 8659 H 791.305 0.986243 -1.09141 0
M  V30 8660 H 793.263 4.08803 -0.832817 0
M  V30 8661 H 791.893 3.22691 -0.0838242 0
M  V30 8662 H 790.945 2.88488 -2.47949 0
M  V30 8663 H 792.257 3.92215 -3.0817 0
M  V30 8664 H 791.411 5.82572 -1.69396 0
M  V30 8665 H 790.15 4.7759 -0.987882 0
M  V30 8666 H 789.155 4.42312 -3.26559 0
M  V30 8667 H 790.38 5.50737 -3.97323 0
M  V30 8668 H 788.326 6.28801 -1.86938 0
M  V30 8669 H 788.243 6.67054 -3.55774 0
M  V30 8670 H 789.511 7.35403 -2.58461 0
M  V30 8671 N 793.74 1.17359 1.05189 0
M  V30 8672 C 794.986 0.963413 1.78455 0
M  V30 8673 C 795.319 -0.506703 1.87473 0
M  V30 8674 O 794.594 -1.37611 1.37453 0
M  V30 8675 C 794.877 1.60519 3.22344 0
M  V30 8676 C 794.73 3.14741 3.21338 0
M  V30 8677 C 796.049 1.3091 4.20179 0
M  V30 8678 H 793.168 0.351412 0.647826 0
M  V30 8679 H 795.81 1.44858 1.22948 0
M  V30 8680 H 793.96 1.19265 3.69741 0
M  V30 8681 H 795.632 3.65053 2.82017 0
M  V30 8682 H 793.875 3.4749 2.59679 0
M  V30 8683 H 794.546 3.54775 4.22894 0
M  V30 8684 H 797.022 1.66635 3.81277 0
M  V30 8685 H 795.898 1.784 5.191 0
M  V30 8686 H 796.159 0.229908 4.41502 0
M  V30 8687 N 795.218 -1.23913 0.973828 0
M  V30 8688 C 796.166 -2.27141 0.50098 0
M  V30 8689 C 797.16 -1.63623 -0.438631 0
M  V30 8690 O 798.366 -1.77253 -0.313247 0
M  V30 8691 H 794.741 -0.73817 0.14356 0
M  V30 8692 H 796.712 -2.64392 1.38346 0
M  V30 8693 C 795.461 -3.47195 -0.187377 0
M  V30 8694 H 794.784 -3.96318 0.526535 0
M  V30 8695 H 796.224 -4.21252 -0.481962 0
M  V30 8696 C 794.683 -3.05678 -1.41642 0
M  V30 8697 O 795.213 -3.1338 -2.51309 0
M  V30 8698 N 793.419 -2.60661 -1.28469 0
M  V30 8699 H 792.966 -2.54594 -0.39238 0
M  V30 8700 H 792.924 -2.33249 -2.10813 0
M  V30 8701 N 796.696 -0.74468 -1.38897 0
M  V30 8702 C 797.921 -0.306119 -2.05128 0
M  V30 8703 C 798.346 1.0541 -1.55789 0
M  V30 8704 O 797.704 1.66993 -0.705909 0
M  V30 8705 C 797.752 -0.328195 -3.59103 0
M  V30 8706 O 796.856 0.680876 -4.06741 0
M  V30 8707 H 796.197 -0.137209 -0.649669 0
M  V30 8708 H 798.727 -1.01331 -1.77745 0
M  V30 8709 H 798.737 -0.175956 -4.0762 0
M  V30 8710 H 797.412 -1.32067 -3.94374 0
M  V30 8711 H 795.989 0.49398 -3.69614 0
M  V30 8712 N 798.174 1.49689 -0.493057 0
M  V30 8713 C 799.42 2.02727 0.0543518 0
M  V30 8714 C 799.753 1.37264 1.37376 0
M  V30 8715 O 799.028 0.505644 1.87812 0
M  V30 8716 C 799.311 3.59456 0.215226 0
M  V30 8717 C 799.164 4.35459 -1.12675 0
M  V30 8718 C 800.483 4.29511 0.959586 0
M  V30 8719 H 797.602 0.736773 0.0182786 0
M  V30 8720 H 800.244 1.78792 -0.642924 0
M  V30 8721 H 798.394 3.79981 0.809122 0
M  V30 8722 H 800.066 4.2645 -1.75891 0
M  V30 8723 H 798.309 3.9833 -1.71801 0
M  V30 8724 H 798.98 5.43454 -0.967578 0
M  V30 8725 H 801.456 4.13594 0.455977 0
M  V30 8726 H 800.332 5.38939 1.04098 0
M  V30 8727 H 800.593 3.94202 2.00144 0
M  V30 8728 N 799.652 0.226554 1.55963 0
M  V30 8729 C 800.9 -0.402991 1.98041 0
M  V30 8730 C 801.221 -1.59938 1.11557 0
M  V30 8731 O 800.491 -1.9494 0.193719 0
M  V30 8732 H 799.071 -0.15188 0.731397 0
M  V30 8733 H 801.733 0.320613 1.92245 0
M  V30 8734 H 800.829 -0.725937 3.0354 0
M  V30 8735 N 801.13 -1.57531 -0.0467866 0
M  V30 8736 C 802.355 -1.93087 -0.757123 0
M  V30 8737 C 802.78 -0.825116 -1.69037 0
M  V30 8738 O 802.138 0.220449 -1.79955 0
M  V30 8739 C 802.186 -3.27669 -1.5055 0
M  V30 8740 O 801.29 -3.18667 -2.61773 0
M  V30 8741 H 800.631 -0.631597 -0.204892 0
M  V30 8742 H 803.161 -2.04599 -0.00755232 0
M  V30 8743 H 803.171 -3.6214 -1.87932 0
M  V30 8744 H 801.846 -4.07717 -0.820931 0
M  V30 8745 H 800.423 -2.95798 -2.27064 0
M  V30 8746 N 802.608 0.318715 -1.54344 0
M  V30 8747 C 803.833 1.07987 -1.77069 0
M  V30 8748 C 804.258 1.80766 -0.520117 0
M  V30 8749 O 803.616 1.73424 0.528566 0
M  V30 8750 C 803.664 2.04987 -2.96669 0
M  V30 8751 O 802.768 3.12974 -2.68554 0
M  V30 8752 H 802.109 0.311109 -0.586606 0
M  V30 8753 H 804.639 0.361533 -2.0138 0
M  V30 8754 H 804.649 2.47771 -3.2415 0
M  V30 8755 H 803.324 1.51417 -3.87357 0
M  V30 8756 H 801.901 2.74831 -2.52037 0
M  V30 8757 N 804.086 1.46499 0.581025 0
M  V30 8758 C 805.311 1.55708 1.37002 0
M  V30 8759 C 805.736 0.19942 1.8704 0
M  V30 8760 O 805.094 -0.820731 1.61659 0
M  V30 8761 C 805.142 2.56716 2.53238 0
M  V30 8762 O 804.246 2.10336 3.54729 0
M  V30 8763 H 803.587 0.523912 0.407937 0
M  V30 8764 H 806.117 1.92085 0.704602 0
M  V30 8765 H 806.127 2.76378 3.00132 0
M  V30 8766 H 804.802 3.55307 2.16171 0
M  V30 8767 H 803.379 2.00669 3.14303 0
M  V30 8768 N 805.565 -0.825799 1.34232 0
M  V30 8769 C 806.793 -1.61363 1.29497 0
M  V30 8770 C 807.208 -1.88341 -0.131536 0
M  V30 8771 O 806.565 -1.47279 -1.07773 0
M  V30 8772 C 806.616 -2.95623 2.08061 0
M  V30 8773 O 806.337 -2.69824 3.45147 0
M  V30 8774 C 807.838 -3.90032 2.10688 0
M  V30 8775 H 805.058 -0.501676 0.445603 0
M  V30 8776 H 807.602 -1.02767 1.76803 0
M  V30 8777 H 805.757 -3.50785 1.64404 0
M  V30 8778 H 806.171 -3.55412 3.85723 0
M  V30 8779 H 807.645 -4.81411 2.70087 0
M  V30 8780 H 808.122 -4.25188 1.10052 0
M  V30 8781 H 808.728 -3.40807 2.54422 0
M  V30 8782 N 807.043 -1.17915 -1.04565 0
M  V30 8783 C 808.268 -0.996749 -1.81878 0
M  V30 8784 C 808.693 0.450169 -1.82634 0
M  V30 8785 O 808.051 1.32268 -1.23995 0
M  V30 8786 C 808.099 -1.55005 -3.25585 0
M  V30 8787 O 807.203 -0.76804 -4.05185 0
M  V30 8788 H 806.544 -0.353456 -0.562108 0
M  V30 8789 H 809.074 -1.56557 -1.31723 0
M  V30 8790 H 809.084 -1.57503 -3.76373 0
M  V30 8791 H 807.759 -2.60327 -3.2435 0
M  V30 8792 H 806.336 -0.81498 -3.63885 0
M  V30 8793 N 808.521 1.23394 -0.980386 0
M  V30 8794 C 809.746 1.96384 -0.666935 0
M  V30 8795 C 810.171 1.72087 0.759456 0
M  V30 8796 O 809.529 0.992328 1.51732 0
M  V30 8797 C 809.577 3.47499 -0.963177 0
M  V30 8798 O 808.681 4.12363 -0.0552051 0
M  V30 8799 H 808.022 0.614797 -0.250839 0
M  V30 8800 H 810.552 1.56831 -1.31398 0
M  V30 8801 H 810.562 3.97953 -0.899877 0
M  V30 8802 H 809.237 3.6451 -2.00264 0
M  V30 8803 H 807.814 3.72499 -0.172914 0
M  V30 8804 N 809.999 0.752036 1.385 0
M  V30 8805 C 811.224 0.316993 2.04963 0
M  V30 8806 C 811.649 -1.04582 1.56346 0
M  V30 8807 O 811.007 -1.66616 0.714755 0
M  V30 8808 C 811.055 0.347235 3.58924 0
M  V30 8809 O 810.159 -0.659296 4.07096 0
M  V30 8810 H 809.5 0.140652 0.648932 0
M  V30 8811 H 812.03 1.02272 1.77205 0
M  V30 8812 H 812.04 0.19757 4.07521 0
M  V30 8813 H 810.715 1.34157 3.93668 0
M  V30 8814 H 809.292 -0.474371 3.6987 0
M  V30 8815 N 811.477 -1.49425 0.500989 0
M  V30 8816 C 812.725 -2.02053 -0.0434495 0
M  V30 8817 C 813.046 -1.38285 -1.37486 0
M  V30 8818 O 812.316 -0.538171 -1.88363 0
M  V30 8819 H 810.896 -0.746757 -0.0190469 0
M  V30 8820 H 813.558 -1.83449 0.658227 0
M  V30 8821 H 812.654 -3.11619 -0.173129 0
M  V30 8822 N 812.955 -0.234822 -1.55841 0
M  V30 8823 C 813.885 0.664217 -2.23854 0
M  V30 8824 C 814.866 1.19076 -1.2147 0
M  V30 8825 O 816.051 1.23232 -1.50091 0
M  V30 8826 C 813.181 1.86666 -2.9287 0
M  V30 8827 C 812.135 1.47341 -4.01839 0
M  V30 8828 C 811.461 2.75571 -4.58219 0
M  V30 8829 C 812.761 0.653479 -5.18196 0
M  V30 8830 H 814.455 0.0971213 -2.99242 0
M  V30 8831 H 812.001 0.0452724 -1.43929 0
M  V30 8832 H 813.954 2.50116 -3.39146 0
M  V30 8833 H 812.678 2.45894 -2.1495 0
M  V30 8834 H 811.337 0.862314 -3.56314 0
M  V30 8835 H 810.985 3.32971 -3.77014 0
M  V30 8836 H 810.685 2.49987 -5.31771 0
M  V30 8837 H 812.209 3.39939 -5.07221 0
M  V30 8838 H 813.623 1.19198 -5.60771 0
M  V30 8839 H 812.02 0.494188 -5.98062 0
M  V30 8840 H 813.09 -0.337004 -4.83728 0
M  V30 8841 N 814.433 1.57553 0.0384317 0
M  V30 8842 C 815.661 1.93093 0.743141 0
M  V30 8843 C 816.076 0.833787 1.69391 0
M  V30 8844 O 815.433 -0.190532 1.81503 0
M  V30 8845 C 815.484 3.28533 1.50826 0
M  V30 8846 O 815.205 4.34032 0.595665 0
M  V30 8847 C 816.706 3.78297 2.31098 0
M  V30 8848 H 813.926 0.637486 0.20941 0
M  V30 8849 H 816.47 2.045 -0.00125154 0
M  V30 8850 H 814.625 3.18552 2.20462 0
M  V30 8851 H 815.039 5.12155 1.13124 0
M  V30 8852 H 816.513 4.75602 2.80191 0
M  V30 8853 H 816.99 3.09008 3.12107 0
M  V30 8854 H 817.596 3.91331 1.66555 0
M  V30 8855 N 815.911 -0.310526 1.54511 0
M  V30 8856 C 817.159 -1.04484 1.72996 0
M  V30 8857 C 817.48 -1.88118 0.513479 0
M  V30 8858 O 816.75 -1.90119 -0.472384 0
M  V30 8859 H 815.33 -0.388747 0.637875 0
M  V30 8860 H 817.992 -0.343811 1.91844 0
M  V30 8861 H 817.088 -1.70341 2.61515 0
M  V30 8862 N 817.389 -1.46805 -0.573248 0
M  V30 8863 C 818.337 -1.58468 -1.70267 0
M  V30 8864 C 819.331 -0.452694 -1.63239 0
M  V30 8865 O 820.537 -0.629915 -1.68618 0
M  V30 8866 H 816.912 -0.498408 -0.56311 0
M  V30 8867 H 818.883 -2.5341 -1.57563 0
M  V30 8868 C 817.632 -1.60104 -3.08645 0
M  V30 8869 H 816.955 -2.4655 -3.14727 0
M  V30 8870 H 818.395 -1.72318 -3.87405 0
M  V30 8871 C 816.854 -0.33138 -3.35266 0
M  V30 8872 O 817.384 0.57438 -3.97572 0
M  V30 8873 N 815.59 -0.216358 -2.89793 0
M  V30 8874 H 815.137 -0.954345 -2.3927 0
M  V30 8875 H 815.095 0.632253 -3.07977 0
M  V30 8876 N 818.867 0.818669 -1.34668 0
M  V30 8877 C 820.097 1.60441 -1.30162 0
M  V30 8878 C 820.505 1.88783 0.125579 0
M  V30 8879 O 819.848 1.48281 1.08437 0
M  V30 8880 C 819.91 2.96794 -2.02864 0
M  V30 8881 C 819.574 2.91327 -3.52105 0
M  V30 8882 C 820.571 2.65611 -4.4693 0
M  V30 8883 C 818.256 3.10825 -3.9458 0
M  V30 8884 C 820.25 2.59452 -5.82206 0
M  V30 8885 C 817.937 3.0429 -5.29954 0
M  V30 8886 C 818.935 2.78637 -6.23579 0
M  V30 8887 O 818.623 2.72042 -7.56471 0
M  V30 8888 H 818.355 0.505278 -0.449077 0
M  V30 8889 H 820.909 1.02632 -1.77921 0
M  V30 8890 H 819.139 3.56538 -1.49725 0
M  V30 8891 H 820.828 3.57837 -1.91592 0
M  V30 8892 H 821.594 2.50278 -4.15434 0
M  V30 8893 H 817.473 3.29807 -3.221 0
M  V30 8894 H 821.017 2.39349 -6.55254 0
M  V30 8895 H 816.914 3.19177 -5.61067 0
M  V30 8896 H 817.682 2.87738 -7.66257 0
M  V30 8897 N 820.346 1.18468 1.03938 0
M  V30 8898 C 821.592 0.982286 1.77423 0
M  V30 8899 C 821.925 -0.48679 1.88 0
M  V30 8900 O 821.2 -1.36146 1.38905 0
M  V30 8901 C 821.483 1.63929 3.20623 0
M  V30 8902 C 821.336 3.18132 3.17982 0
M  V30 8903 C 822.655 1.3536 4.18767 0
M  V30 8904 H 819.774 0.358264 0.644062 0
M  V30 8905 H 822.416 1.46154 1.21405 0
M  V30 8906 H 820.566 1.2318 3.68455 0
M  V30 8907 H 822.238 3.68024 2.78129 0
M  V30 8908 H 820.481 3.50225 2.55978 0
M  V30 8909 H 821.152 3.5924 4.19107 0
M  V30 8910 H 823.628 1.70669 3.79488 0
M  V30 8911 H 822.504 1.83896 5.17178 0
M  V30 8912 H 822.765 0.276722 4.41233 0
M  V30 8913 N 821.824 -1.22873 0.986916 0
M  V30 8914 C 823.235 -1.73264 0.695438 0
M  V30 8915 C 823.586 -1.79679 -0.788023 0
M  V30 8916 O 822.711 -1.43905 -1.61618 0
M  V30 8917 C 823.306 -3.14671 1.2557 0
M  V30 8918 C 821.865 -3.62492 1.01373 0
M  V30 8919 C 821.012 -2.40551 1.37951 0
M  V30 8920 H 823.963 -1.08304 1.15999 0
M  V30 8921 H 823.984 -3.75226 0.631322 0
M  V30 8922 H 823.496 -3.0997 2.33539 0
M  V30 8923 H 821.597 -3.72567 -0.0495917 0
M  V30 8924 H 821.71 -4.48944 1.67289 0
M  V30 8925 H 820.074 -2.41875 0.798033 0
M  V30 8926 H 820.857 -2.38516 2.46911 0
M  V30 8927 N 823.302 -0.75937 -1.38099 0
M  V30 8928 C 824.527 -0.327859 -2.04792 0
M  V30 8929 C 824.952 1.03752 -1.56899 0
M  V30 8930 O 824.31 1.66235 -0.723581 0
M  V30 8931 C 824.358 -0.366264 -3.58735 0
M  V30 8932 O 823.462 0.637697 -4.0744 0
M  V30 8933 H 822.803 -0.144092 -0.648177 0
M  V30 8934 H 825.333 -1.03211 -1.7666 0
M  V30 8935 H 825.343 -0.219179 -4.07411 0
M  V30 8936 H 824.018 -1.36243 -3.92951 0
M  V30 8937 H 822.595 0.454749 -3.70117 0
M  V30 8938 N 824.78 1.49157 -0.508906 0
M  V30 8939 C 826.027 2.02473 0.0327983 0
M  V30 8940 C 826.355 1.38792 1.36261 0
M  V30 8941 O 825.61 0.515576 1.88786 0
M  V30 8942 C 825.909 3.56687 0.225717 0
M  V30 8943 C 825.575 4.39046 -1.02708 0
M  V30 8944 C 824.237 4.61271 -1.37048 0
M  V30 8945 C 826.589 4.86902 -1.85946 0
M  V30 8946 C 823.917 5.28598 -2.54562 0
M  V30 8947 C 826.269 5.55521 -3.0262 0
M  V30 8948 C 824.933 5.7599 -3.3733 0
M  V30 8949 H 824.203 0.740903 0.0120017 0
M  V30 8950 H 826.85 1.79372 -0.670665 0
M  V30 8951 H 825.155 3.78511 1.01177 0
M  V30 8952 H 826.852 3.95541 0.659433 0
M  V30 8953 H 823.442 4.21994 -0.749615 0
M  V30 8954 H 827.626 4.69553 -1.6073 0
M  V30 8955 H 822.882 5.42646 -2.81682 0
M  V30 8956 H 827.056 5.91576 -3.67438 0
M  V30 8957 H 824.683 6.27934 -4.2849 0
M  V30 8958 N 826.258 0.243083 1.55714 0
M  V30 8959 C 827.188 -0.652336 2.24203 0
M  V30 8960 C 828.169 -1.1843 1.221 0
M  V30 8961 O 829.354 -1.22435 1.50743 0
M  V30 8962 C 826.484 -1.85111 2.93856 0
M  V30 8963 C 825.438 -1.45208 4.02615 0
M  V30 8964 C 824.764 -2.73137 4.59674 0
M  V30 8965 C 826.064 -0.625988 5.18535 0
M  V30 8966 H 827.758 -0.0812504 2.9929 0
M  V30 8967 H 825.304 -0.0376388 1.43951 0
M  V30 8968 H 827.257 -2.48314 3.40468 0
M  V30 8969 H 825.981 -2.44751 2.16251 0
M  V30 8970 H 824.64 -0.843406 3.56766 0
M  V30 8971 H 824.288 -3.30967 3.78774 0
M  V30 8972 H 823.988 -2.47163 5.33089 0
M  V30 8973 H 825.512 -3.37245 5.09017 0
M  V30 8974 H 826.926 -1.16223 5.61396 0
M  V30 8975 H 825.323 -0.462465 5.98315 0
M  V30 8976 H 826.393 0.362652 4.83542 0
M  V30 8977 N 827.736 -1.57571 -0.0300757 0
M  V30 8978 C 828.683 -2.06492 -1.03101 0
M  V30 8979 C 829.653 -0.953862 -1.3598 0
M  V30 8980 O 830.838 -1.22436 -1.46335 0
M  V30 8981 C 827.978 -2.54826 -2.32718 0
M  V30 8982 C 827.091 -3.79718 -2.06006 0
M  V30 8983 C 826.226 -4.16668 -3.29487 0
M  V30 8984 C 825.265 -5.3448 -2.98324 0
M  V30 8985 N 824.402 -5.66867 -4.14254 0
M  V30 8986 H 829.242 -2.91755 -0.606877 0
M  V30 8987 H 826.779 -1.44252 -0.288038 0
M  V30 8988 H 828.737 -2.80916 -3.08451 0
M  V30 8989 H 827.367 -1.72481 -2.72856 0
M  V30 8990 H 826.419 -3.60718 -1.20774 0
M  V30 8991 H 827.731 -4.65569 -1.79017 0
M  V30 8992 H 826.885 -4.43881 -4.13588 0
M  V30 8993 H 825.624 -3.29466 -3.59588 0
M  V30 8994 H 824.629 -5.07021 -2.12625 0
M  V30 8995 H 825.854 -6.23334 -2.69502 0
M  V30 8996 H 823.8 -4.82625 -4.44308 0
M  V30 8997 H 823.717 -6.47226 -3.90685 0
M  V30 8998 H 824.985 -5.98656 -4.99231 0
M  V30 8999 N 829.214 0.302327 -1.54673 0
M  V30 9000 C 830.161 1.37282 -1.85532 0
M  V30 9001 C 831.131 1.50437 -0.704129 0
M  V30 9002 O 832.316 1.65317 -0.952627 0
M  V30 9003 C 829.456 2.73309 -2.10704 0
M  V30 9004 C 828.569 2.68614 -3.38335 0
M  V30 9005 C 827.704 3.96626 -3.53357 0
M  V30 9006 C 826.743 3.86324 -4.74784 0
M  V30 9007 N 825.88 5.06109 -4.86619 0
M  V30 9008 H 830.72 1.10265 -2.76849 0
M  V30 9009 H 828.257 0.533346 -1.37091 0
M  V30 9010 H 830.215 3.52414 -2.23294 0
M  V30 9011 H 828.845 2.98589 -1.22656 0
M  V30 9012 H 827.897 1.81381 -3.34373 0
M  V30 9013 H 829.209 2.56891 -4.27561 0
M  V30 9014 H 828.363 4.84168 -3.65604 0
M  V30 9015 H 827.102 4.11182 -2.62261 0
M  V30 9016 H 826.107 2.97166 -4.62572 0
M  V30 9017 H 827.332 3.73315 -5.67286 0
M  V30 9018 H 825.278 5.2113 -3.98446 0
M  V30 9019 H 825.195 4.96804 -5.69844 0
M  V30 9020 H 826.463 5.95306 -5.03221 0
M  V30 9021 N 830.692 1.47107 0.565454 0
M  V30 9022 C 831.602 1.61591 1.70075 0
M  V30 9023 C 832.618 0.498931 1.66693 0
M  V30 9024 O 833.794 0.765372 1.8629 0
M  V30 9025 C 830.859 1.61887 3.06583 0
M  V30 9026 C 829.92 2.84949 3.21096 0
M  V30 9027 C 829.153 2.85221 4.51093 0
M  V30 9028 O 829.376 1.94959 5.36048 0
M  V30 9029 O 828.31 3.76982 4.69221 0
M  V30 9030 H 832.136 2.57638 1.60799 0
M  V30 9031 H 829.721 1.30097 0.73451 0
M  V30 9032 H 831.603 1.64809 3.87835 0
M  V30 9033 H 830.278 0.69005 3.16259 0
M  V30 9034 H 829.185 2.87575 2.39273 0
M  V30 9035 H 830.518 3.77098 3.1632 0
M  V30 9036 N 832.17 -0.811516 1.35101 0
M  V30 9037 C 833.419 -1.56343 1.27435 0
M  V30 9038 C 833.732 -1.95019 -0.150696 0
M  V30 9039 O 834.938 -2.6924 -0.349586 0
M  V30 9040 C 833.394 -2.82124 2.23459 0
M  V30 9041 C 833.002 -2.50706 3.71283 0
M  V30 9042 C 834.746 -3.60137 2.24726 0
M  V30 9043 C 832.653 -3.72748 4.59143 0
M  V30 9044 H 831.583 -0.58682 0.473453 0
M  V30 9045 H 834.234 -0.892465 1.60335 0
M  V30 9046 H 832.616 -3.50905 1.83525 0
M  V30 9047 H 833.79 -1.89962 4.19823 0
M  V30 9048 H 832.105 -1.85947 3.72576 0
M  V30 9049 H 834.702 -4.50775 2.87587 0
M  V30 9050 H 835.045 -3.97101 1.24965 0
M  V30 9051 H 835.578 -2.98311 2.63164 0
M  V30 9052 H 832.317 -3.40896 5.59884 0
M  V30 9053 H 831.837 -4.32735 4.15332 0
M  V30 9054 H 833.516 -4.40033 4.74321 0
M  V30 9055 N 833.648 -1.19017 -1.03309 0
M  V30 9056 C 834.896 -0.988258 -1.76289 0
M  V30 9057 C 835.217 0.482557 -1.88935 0
M  V30 9058 O 834.487 1.34969 -1.41987 0
M  V30 9059 H 833.067 -0.36267 -0.653054 0
M  V30 9060 H 835.729 -1.49836 -1.2464 0
M  V30 9061 H 834.825 -1.43273 -2.77271 0
M  V30 9062 N 835.127 1.22348 -0.993418 0
M  V30 9063 C 836.352 1.95666 -0.687727 0
M  V30 9064 C 836.777 1.72883 0.741161 0
M  V30 9065 O 836.135 1.00837 1.50671 0
M  V30 9066 C 836.183 3.46457 -0.99998 0
M  V30 9067 O 835.287 4.12281 -0.0989386 0
M  V30 9068 H 834.628 0.612102 -0.257346 0
M  V30 9069 H 837.158 1.55428 -1.33054 0
M  V30 9070 H 837.168 3.96976 -0.942035 0
M  V30 9071 H 835.843 3.62365 -2.04118 0
M  V30 9072 H 834.42 3.72295 -0.212413 0
M  V30 9073 N 836.605 0.766683 1.37694 0
M  V30 9074 C 837.568 0.155849 2.2867 0
M  V30 9075 C 838.568 -0.633509 1.47795 0
M  V30 9076 O 839.758 -0.457844 1.68076 0
M  V30 9077 C 836.89 -0.786965 3.31692 0
M  V30 9078 H 838.083 0.957748 2.84196 0
M  V30 9079 H 835.636 0.534554 1.46875 0
M  V30 9080 H 836.371 -1.61406 2.8128 0
M  V30 9081 H 836.156 -0.223182 3.91464 0
M  V30 9082 H 837.646 -1.20994 3.99688 0
M  V30 9083 N 838.083 -1.48885 0.516809 0
M  V30 9084 C 839.016 -2.26218 -0.30011 0
M  V30 9085 C 839.994 -1.31491 -0.956496 0
M  V30 9086 O 841.178 -1.6081 -0.983488 0
M  V30 9087 C 838.305 -3.07315 -1.42392 0
M  V30 9088 C 837.351 -4.17316 -0.880295 0
M  V30 9089 S 838.184 -5.34955 0.24146 0
M  V30 9090 C 839.34 -6.1961 -0.885138 0
M  V30 9091 H 839.573 -2.95158 0.356217 0
M  V30 9092 H 837.106 -1.5141 0.302365 0
M  V30 9093 H 839.064 -3.54619 -2.06775 0
M  V30 9094 H 837.725 -2.37813 -2.05192 0
M  V30 9095 H 836.918 -4.73635 -1.72297 0
M  V30 9096 H 836.52 -3.72685 -0.313396 0
M  V30 9097 H 838.812 -6.53513 -1.78682 0
M  V30 9098 H 839.755 -7.07183 -0.360226 0
M  V30 9099 H 840.163 -5.52461 -1.1596 0
M  V30 9100 N 839.561 -0.251338 -1.55583 0
M  V30 9101 C 840.493 0.679167 -2.18906 0
M  V30 9102 C 841.506 1.13545 -1.16667 0
M  V30 9103 O 842.695 1.06146 -1.4351 0
M  V30 9104 C 839.795 1.93544 -2.78198 0
M  V30 9105 C 838.968 1.62987 -4.05899 0
M  V30 9106 C 838.027 2.73618 -4.49466 0
M  V30 9107 O 837.053 2.40815 -5.15749 0
M  V30 9108 N 838.255 4.03204 -4.1762 0
M  V30 9109 H 841.02 0.137328 -2.99385 0
M  V30 9110 H 838.581 -0.0714754 -1.61742 0
M  V30 9111 H 840.573 2.66804 -3.04299 0
M  V30 9112 H 839.143 2.38695 -2.0185 0
M  V30 9113 H 838.363 0.732237 -3.8734 0
M  V30 9114 H 839.651 1.40041 -4.89148 0
M  V30 9115 H 839.049 4.32686 -3.64416 0
M  V30 9116 H 837.606 4.72916 -4.48547 0
M  V30 9117 N 841.039 1.57585 0.0217189 0
M  V30 9118 C 842.455 1.55072 0.377484 0
M  V30 9119 C 842.655 0.978423 1.76151 0
M  V30 9120 O 841.711 0.602688 2.45202 0
M  V30 9121 C 843.024 2.99462 0.272605 0
M  V30 9122 C 844.572 3.11047 0.349148 0
M  V30 9123 C 845.047 4.57182 0.273636 0
M  V30 9124 N 846.538 4.62007 0.332206 0
M  V30 9125 C 847.273 5.72631 0.296782 0
M  V30 9126 N 846.769 6.92472 0.21322 0
M  V30 9127 N 848.562 5.61028 0.347053 0
M  V30 9128 H 840.713 1.93133 -0.883925 0
M  V30 9129 H 842.976 0.886151 -0.33681 0
M  V30 9130 H 842.682 3.45088 -0.67878 0
M  V30 9131 H 842.556 3.61901 1.06335 0
M  V30 9132 H 844.943 2.65364 1.29097 0
M  V30 9133 H 845.024 2.51425 -0.471085 0
M  V30 9134 H 844.668 5.03534 -0.664548 0
M  V30 9135 H 844.598 5.14724 1.11207 0
M  V30 9136 H 847.089 3.75788 0.399003 0
M  V30 9137 H 847.402 7.72563 0.191492 0
M  V30 9138 H 845.747 6.94769 0.179161 0
M  V30 9139 H 848.938 4.66298 0.410378 0
M  V30 9140 H 849.111 6.47229 0.315979 0
M  V30 9141 N 842.517 -0.29412 1.54831 0
M  V30 9142 C 843.763 -1.02999 1.74697 0
M  V30 9143 C 844.096 -1.86687 0.534949 0
M  V30 9144 O 843.371 -1.88789 -0.467863 0
M  V30 9145 C 843.654 -1.93024 3.03996 0
M  V30 9146 C 843.507 -1.1247 4.35512 0
M  V30 9147 C 844.826 -2.92085 3.29203 0
M  V30 9148 H 841.945 -0.373039 0.635618 0
M  V30 9149 H 844.587 -0.304065 1.87551 0
M  V30 9150 H 842.737 -2.5492 2.93169 0
M  V30 9151 H 844.409 -0.528067 4.58268 0
M  V30 9152 H 842.652 -0.427574 4.31688 0
M  V30 9153 H 843.323 -1.78728 5.22265 0
M  V30 9154 H 845.799 -2.40319 3.39685 0
M  V30 9155 H 844.675 -3.52234 4.20978 0
M  V30 9156 H 844.936 -3.66107 2.47827 0
M  V30 9157 N 843.995 -1.47404 -0.557645 0
M  V30 9158 C 844.945 -1.56267 -1.66026 0
M  V30 9159 C 845.929 -0.42161 -1.55278 0
M  V30 9160 O 847.121 -0.671505 -1.63768 0
M  V30 9161 C 844.25 -1.57958 -3.04802 0
M  V30 9162 C 843.336 -2.77447 -3.20755 0
M  V30 9163 N 843.727 -4.02148 -3.06775 0
M  V30 9164 C 842.025 -2.74199 -3.51754 0
M  V30 9165 C 842.726 -4.82168 -3.25406 0
M  V30 9166 N 841.702 -4.14481 -3.5172 0
M  V30 9167 H 845.504 -2.50454 -1.53785 0
M  V30 9168 H 843.018 -1.43392 -0.762388 0
M  V30 9169 H 845.015 -1.62397 -3.8397 0
M  V30 9170 H 843.675 -0.648667 -3.18155 0
M  V30 9171 H 844.686 -4.33014 -2.84111 0
M  V30 9172 H 841.363 -1.90243 -3.71637 0
M  V30 9173 H 842.753 -5.91037 -3.19569 0
M  V30 9174 N 845.473 0.80434 -1.35529 0
M  V30 9175 C 846.403 1.93086 -1.31301 0
M  V30 9176 C 847.384 1.69068 -0.187044 0
M  V30 9177 O 848.569 1.90399 -0.382359 0
M  V30 9178 C 845.699 3.29867 -1.0865 0
M  V30 9179 C 844.653 3.68373 -2.17911 0
M  V30 9180 C 843.979 5.0334 -1.80423 0
M  V30 9181 C 845.279 3.78516 -3.59893 0
M  V30 9182 H 846.973 1.96882 -2.25561 0
M  V30 9183 H 844.519 0.945841 -1.08581 0
M  V30 9184 H 846.472 4.08281 -1.04331 0
M  V30 9185 H 845.196 3.2642 -0.108359 0
M  V30 9186 H 843.855 2.92247 -2.21331 0
M  V30 9187 H 843.503 4.96399 -0.812213 0
M  V30 9188 H 843.203 5.30074 -2.53565 0
M  V30 9189 H 844.727 5.84191 -1.77633 0
M  V30 9190 H 846.141 4.47155 -3.58783 0
M  V30 9191 H 844.538 4.16721 -4.31814 0
M  V30 9192 H 845.608 2.8001 -3.95882 0
M  V30 9193 N 846.951 1.19563 1.02676 0
M  V30 9194 C 847.914 0.937182 2.09164 0
M  V30 9195 C 848.914 -0.0831927 1.60585 0
M  V30 9196 O 850.104 0.15178 1.73538 0
M  V30 9197 C 847.236 0.408912 3.38439 0
M  V30 9198 H 848.429 1.88164 2.33526 0
M  V30 9199 H 845.982 1.00959 1.19319 0
M  V30 9200 H 846.717 -0.541497 3.19747 0
M  V30 9201 H 846.502 1.14464 3.7502 0
M  V30 9202 H 847.992 0.247242 4.16867 0
M  V30 9203 N 848.429 -1.21819 0.999893 0
M  V30 9204 C 849.84 -1.72517 0.713775 0
M  V30 9205 C 850.191 -1.80505 -0.768922 0
M  V30 9206 O 849.316 -1.45611 -1.60083 0
M  V30 9207 C 849.911 -3.13321 1.28901 0
M  V30 9208 C 848.47 -3.61396 1.05212 0
M  V30 9209 C 847.617 -2.39074 1.40494 0
M  V30 9210 H 850.568 -1.07068 1.17141 0
M  V30 9211 H 850.589 -3.74535 0.671084 0
M  V30 9212 H 850.101 -3.07475 2.36814 0
M  V30 9213 H 848.202 -3.72599 -0.0100732 0
M  V30 9214 H 848.315 -4.47145 1.72042 0
M  V30 9215 H 846.679 -2.41015 0.823642 0
M  V30 9216 H 847.462 -2.35884 2.49427 0
M  V30 9217 N 849.908 -0.773975 -1.37286 0
M  V30 9218 C 851.157 -0.335977 -1.98882 0
M  V30 9219 C 851.47 1.09416 -1.62134 0
M  V30 9220 O 852.676 1.63366 -2.1685 0
M  V30 9221 C 851.132 -0.549756 -3.55676 0
M  V30 9222 C 850.74 -1.9903 -4.01361 0
M  V30 9223 C 852.484 -0.175493 -4.24137 0
M  V30 9224 C 850.391 -2.15156 -5.50874 0
M  V30 9225 H 849.321 -0.121877 -0.744085 0
M  V30 9226 H 851.972 -0.953419 -1.56787 0
M  V30 9227 H 850.354 0.137175 -3.95762 0
M  V30 9228 H 851.528 -2.71237 -3.72515 0
M  V30 9229 H 849.843 -2.32137 -3.4569 0
M  V30 9230 H 852.44 -0.274463 -5.33995 0
M  V30 9231 H 852.783 0.874524 -4.07011 0
M  V30 9232 H 853.316 -0.815058 -3.89361 0
M  V30 9233 H 850.055 -3.18485 -5.72929 0
M  V30 9234 H 849.575 -1.47435 -5.81397 0
M  V30 9235 H 851.254 -1.95124 -6.16876 0
M  V30 9236 N 851.386 1.48609 -0.524698 0
M  V30 9237 C 852.797 1.86516 -0.0828846 0
M  V30 9238 C 853.148 1.43478 1.33822 0
M  V30 9239 O 852.273 0.823139 2.00133 0
M  V30 9240 C 852.868 3.38495 -0.143639 0
M  V30 9241 C 851.427 3.75615 0.242951 0
M  V30 9242 C 850.574 2.72649 -0.505747 0
M  V30 9243 H 853.525 1.40589 -0.736233 0
M  V30 9244 H 853.546 3.74977 0.645955 0
M  V30 9245 H 853.058 3.69789 -1.17805 0
M  V30 9246 H 851.159 3.49935 1.27971 0
M  V30 9247 H 851.272 4.7901 -0.0929834 0
M  V30 9248 H 849.636 2.54656 0.0473482 0
M  V30 9249 H 850.419 3.06786 -1.54069 0
M  V30 9250 N 852.864 0.259585 1.55447 0
M  V30 9251 C 854.141 -0.412595 1.91199 0
M  V30 9252 C 854.521 -1.74909 1.18194 0
M  V30 9253 O 853.869 -2.26474 0.303603 0
M  V30 9254 C 854.079 -0.568195 3.44344 0
M  V30 9255 C 855.427 -0.858253 4.15836 0
M  V30 9256 O 856.451 -0.653588 3.50152 0
M  V30 9257 O 855.31 -1.24874 5.32042 0
M  V30 9258 H 852.404 -0.223403 0.796254 0
M  V30 9259 H 854.95 0.30459 1.66944 0
M  V30 9260 H 853.722 0.372989 3.89518 0
M  V30 9261 H 853.345 -1.33544 3.74502 0
M  V30 9262 N 854.342 -1.57594 -0.0133615 0
M  V30 9263 C 855.753 -1.78168 -0.557937 0
M  V30 9264 C 856.104 -0.892616 -1.74719 0
M  V30 9265 O 855.229 -0.0915491 -2.16206 0
M  V30 9266 C 855.824 -3.23115 -1.01894 0
M  V30 9267 C 854.383 -3.44831 -1.50892 0
M  V30 9268 C 853.53 -2.73558 -0.454044 0
M  V30 9269 H 856.481 -1.57266 0.212843 0
M  V30 9270 H 856.502 -3.30493 -1.8856 0
M  V30 9271 H 856.014 -3.87798 -0.153175 0
M  V30 9272 H 854.115 -2.85345 -2.39602 0
M  V30 9273 H 854.228 -4.53485 -1.54559 0
M  V30 9274 H 852.592 -2.37787 -0.912666 0
M  V30 9275 H 853.375 -3.40932 0.402524 0
M  V30 9276 N 855.82 0.285905 -1.54985 0
M  V30 9277 C 857.045 1.04207 -1.7932 0
M  V30 9278 C 857.47 1.79622 -0.558343 0
M  V30 9279 O 856.828 1.74506 0.491661 0
M  V30 9280 C 856.876 1.98648 -3.0095 0
M  V30 9281 O 855.98 3.07207 -2.75132 0
M  V30 9282 H 855.321 0.298596 -0.593074 0
M  V30 9283 H 857.851 0.318736 -2.02102 0
M  V30 9284 H 857.861 2.4084 -3.29333 0
M  V30 9285 H 856.536 1.43167 -3.90482 0
M  V30 9286 H 855.113 2.69423 -2.57809 0
M  V30 9287 N 857.298 1.47698 0.54982 0
M  V30 9288 C 858.709 1.48474 1.13191 0
M  V30 9289 C 859.06 0.243504 1.94683 0
M  V30 9290 O 858.185 -0.651009 2.06375 0
M  V30 9291 C 858.78 2.69022 2.05944 0
M  V30 9292 C 857.339 2.72733 2.5941 0
M  V30 9293 C 856.486 2.41691 1.35944 0
M  V30 9294 H 859.437 1.55101 0.336048 0
M  V30 9295 H 859.458 2.46412 2.89934 0
M  V30 9296 H 858.97 3.59345 1.46605 0
M  V30 9297 H 857.071 1.86568 3.22526 0
M  V30 9298 H 857.184 3.73628 2.99899 0
M  V30 9299 H 855.548 1.92428 1.66864 0
M  V30 9300 H 856.331 3.34231 0.783869 0
M  V30 9301 N 858.776 -0.797141 1.35954 0
M  V30 9302 C 860.024 -1.55161 1.29497 0
M  V30 9303 C 860.345 -1.94582 -0.127659 0
M  V30 9304 O 859.615 -1.64343 -1.06622 0
M  V30 9305 H 858.195 -0.575413 0.47635 0
M  V30 9306 H 860.857 -0.950282 1.70164 0
M  V30 9307 H 859.953 -2.46272 1.9172 0
M  V30 9308 N 860.254 -1.20106 -1.0204 0
M  V30 9309 C 861.484 -1.0329 -1.78927 0
M  V30 9310 C 861.892 0.421115 -1.84454 0
M  V30 9311 O 861.235 1.30422 -1.29367 0
M  V30 9312 C 861.297 -1.53627 -3.25021 0
M  V30 9313 C 860.961 -3.01869 -3.4311 0
M  V30 9314 C 861.958 -3.9956 -3.32638 0
M  V30 9315 C 859.643 -3.40746 -3.6905 0
M  V30 9316 C 861.637 -5.34119 -3.47844 0
M  V30 9317 C 859.324 -4.75462 -3.839 0
M  V30 9318 C 860.322 -5.71957 -3.73302 0
M  V30 9319 O 860.01 -7.04231 -3.87703 0
M  V30 9320 H 859.742 -0.363962 -0.569656 0
M  V30 9321 H 862.296 -1.59551 -1.29354 0
M  V30 9322 H 860.526 -0.917481 -3.75658 0
M  V30 9323 H 862.215 -1.32889 -3.8353 0
M  V30 9324 H 862.981 -3.70869 -3.12539 0
M  V30 9325 H 858.86 -2.66182 -3.76388 0
M  V30 9326 H 862.404 -6.09421 -3.39488 0
M  V30 9327 H 858.301 -5.03844 -4.03499 0
M  V30 9328 H 859.069 -7.11425 -4.04744 0
M  V30 9329 N 861.732 1.21287 -1.00634 0
M  V30 9330 C 862.957 1.94925 -0.708441 0
M  V30 9331 C 863.382 1.73659 0.722783 0
M  V30 9332 O 862.74 1.02429 1.49593 0
M  V30 9333 C 862.788 3.45377 -1.03667 0
M  V30 9334 O 861.892 4.12153 -0.142661 0
M  V30 9335 H 861.233 0.609338 -0.263824 0
M  V30 9336 H 863.763 1.54008 -1.34695 0
M  V30 9337 H 863.773 3.95954 -0.984086 0
M  V30 9338 H 862.448 3.6018 -2.0795 0
M  V30 9339 H 861.025 3.72048 -0.251888 0
M  V30 9340 N 863.21 0.781244 1.36873 0
M  V30 9341 C 864.435 0.360398 2.04245 0
M  V30 9342 C 864.86 -1.01242 1.58529 0
M  V30 9343 O 864.218 -1.65063 0.749936 0
M  V30 9344 C 864.266 0.42329 3.58107 0
M  V30 9345 O 863.37 -0.572796 4.08403 0
M  V30 9346 H 862.711 0.154386 0.645803 0
M  V30 9347 H 865.241 1.06008 1.74996 0
M  V30 9348 H 865.251 0.283967 4.07011 0
M  V30 9349 H 863.926 1.42477 3.90734 0
M  V30 9350 H 862.503 -0.395809 3.70793 0
M  V30 9351 N 864.689 -1.48329 0.532571 0
M  V30 9352 C 865.619 -2.32485 -0.217511 0
M  V30 9353 C 866.6 -1.42255 -0.932598 0
M  V30 9354 O 867.785 -1.7114 -0.917873 0
M  V30 9355 C 864.915 -3.23509 -1.26329 0
M  V30 9356 C 863.869 -4.22784 -0.666191 0
M  V30 9357 C 863.195 -5.0296 -1.81482 0
M  V30 9358 C 864.495 -5.21031 0.363813 0
M  V30 9359 H 866.189 -2.95445 0.485014 0
M  V30 9360 H 863.735 -1.42075 0.234694 0
M  V30 9361 H 865.688 -3.81211 -1.79601 0
M  V30 9362 H 864.412 -2.58554 -1.99543 0
M  V30 9363 H 863.071 -3.66272 -0.15498 0
M  V30 9364 H 862.719 -4.34427 -2.5354 0
M  V30 9365 H 862.419 -5.70154 -1.4212 0
M  V30 9366 H 863.943 -5.63514 -2.35126 0
M  V30 9367 H 865.357 -5.73241 -0.0819079 0
M  V30 9368 H 863.754 -5.96292 0.674956 0
M  V30 9369 H 864.824 -4.6801 1.26865 0
M  V30 9370 N 866.167 -0.267825 -1.55308 0
M  V30 9371 C 867.114 0.6228 -2.22238 0
M  V30 9372 C 868.084 1.15536 -1.19334 0
M  V30 9373 O 869.269 1.206 -1.47852 0
M  V30 9374 C 866.409 1.80447 -2.94164 0
M  V30 9375 C 865.522 1.30646 -4.11771 0
M  V30 9376 C 864.657 2.44935 -4.7136 0
M  V30 9377 C 863.696 1.92099 -5.81175 0
M  V30 9378 N 862.833 2.99834 -6.34857 0
M  V30 9379 H 867.673 0.0453874 -2.97965 0
M  V30 9380 H 865.21 0.0106371 -1.47096 0
M  V30 9381 H 867.168 2.49896 -3.34078 0
M  V30 9382 H 865.798 2.35403 -2.20874 0
M  V30 9383 H 864.85 0.505314 -3.77029 0
M  V30 9384 H 866.162 0.879409 -4.90987 0
M  V30 9385 H 865.316 3.2239 -5.13955 0
M  V30 9386 H 864.055 2.90951 -3.91406 0
M  V30 9387 H 863.06 1.13122 -5.38037 0
M  V30 9388 H 864.285 1.47027 -6.62993 0
M  V30 9389 H 862.231 3.45246 -5.578 0
M  V30 9390 H 862.148 2.61524 -7.09324 0
M  V30 9391 H 863.416 3.77286 -6.82111 0
M  V30 9392 N 867.645 1.57599 0.00500368 0
M  V30 9393 C 868.608 2.07058 0.982832 0
M  V30 9394 C 869.608 0.979045 1.27559 0
M  V30 9395 O 870.798 1.24187 1.22161 0
M  V30 9396 C 867.93 2.50782 2.30914 0
M  V30 9397 H 869.123 2.94718 0.555119 0
M  V30 9398 H 866.676 1.54249 0.25237 0
M  V30 9399 H 867.411 1.66351 2.78385 0
M  V30 9400 H 867.196 3.30495 2.10987 0
M  V30 9401 H 868.686 2.89391 3.0107 0
M  V30 9402 N 869.123 -0.277682 1.55134 0
M  V30 9403 C 870.056 -1.3685 1.82612 0
M  V30 9404 C 871.034 -1.47752 0.678833 0
M  V30 9405 O 872.218 -1.6445 0.921329 0
M  V30 9406 C 869.345 -2.74539 1.98359 0
M  V30 9407 C 868.391 -2.80945 3.20893 0
M  V30 9408 S 869.224 -2.40666 4.78373 0
M  V30 9409 C 870.38 -3.80338 4.97085 0
M  V30 9410 H 870.613 -1.13338 2.74849 0
M  V30 9411 H 868.146 -0.477063 1.46845 0
M  V30 9412 H 870.104 -3.53834 2.08115 0
M  V30 9413 H 868.765 -2.95306 1.07019 0
M  V30 9414 H 867.958 -3.81992 3.28783 0
M  V30 9415 H 867.56 -2.09667 3.09703 0
M  V30 9416 H 869.852 -4.75565 4.8254 0
M  V30 9417 H 870.795 -3.77403 5.99143 0
M  V30 9418 H 871.203 -3.71424 4.25094 0
M  V30 9419 N 870.601 -1.47988 -0.541979 0
M  V30 9420 C 872.017 -1.33843 -0.869383 0
M  V30 9421 C 872.217 -0.340374 -1.98604 0
M  V30 9422 O 871.273 0.242696 -2.51331 0
M  V30 9423 C 872.586 -2.73568 -1.24823 0
M  V30 9424 C 874.134 -2.81967 -1.3588 0
M  V30 9425 C 874.609 -4.22368 -1.77114 0
M  V30 9426 N 876.1 -4.24983 -1.84237 0
M  V30 9427 C 876.835 -5.30547 -2.17503 0
M  V30 9428 N 876.331 -6.46401 -2.49275 0
M  V30 9429 N 878.124 -5.17933 -2.18406 0
M  V30 9430 H 870.275 -2.11503 0.195001 0
M  V30 9431 H 872.538 -0.947681 0.0245862 0
M  V30 9432 H 872.244 -3.48107 -0.501435 0
M  V30 9433 H 872.118 -3.06322 -2.20106 0
M  V30 9434 H 874.505 -2.07692 -2.09638 0
M  V30 9435 H 874.586 -2.52848 -0.387478 0
M  V30 9436 H 874.23 -4.97155 -1.0392 0
M  V30 9437 H 874.16 -4.48922 -2.75275 0
M  V30 9438 H 876.651 -3.41411 -1.62009 0
M  V30 9439 H 876.964 -7.22698 -2.73729 0
M  V30 9440 H 875.309 -6.49696 -2.46821 0
M  V30 9441 H 878.5 -4.26445 -1.93034 0
M  V30 9442 H 878.673 -6.00307 -2.44 0
M  V30 9443 N 872.079 0.78992 -1.36375 0
M  V30 9444 C 873.49 1.36506 -1.2737 0
M  V30 9445 C 873.841 1.96008 0.086711 0
M  V30 9446 O 872.966 1.92521 0.988159 0
M  V30 9447 C 873.561 2.48175 -2.30639 0
M  V30 9448 C 872.12 3.01506 -2.25325 0
M  V30 9449 C 871.267 1.74581 -2.15445 0
M  V30 9450 H 874.218 0.591606 -1.47261 0
M  V30 9451 H 874.239 3.27179 -1.94253 0
M  V30 9452 H 873.751 2.04838 -3.2964 0
M  V30 9453 H 871.852 3.49265 -1.29788 0
M  V30 9454 H 871.965 3.58355 -3.17992 0
M  V30 9455 H 870.329 1.96794 -1.61692 0
M  V30 9456 H 871.112 1.33373 -3.16333 0
M  V30 9457 N 873.557 1.20646 1.01402 0
M  V30 9458 C 874.507 0.925209 2.08384 0
M  V30 9459 C 875.491 -0.115994 1.60481 0
M  V30 9460 O 876.683 0.0917276 1.76762 0
M  V30 9461 C 873.812 0.48193 3.399 0
M  V30 9462 C 872.898 1.5567 3.94497 0
M  V30 9463 N 873.289 2.77971 4.2257 0
M  V30 9464 C 871.587 1.42347 4.22674 0
M  V30 9465 C 872.288 3.47317 4.66632 0
M  V30 9466 N 871.264 2.74736 4.69064 0
M  V30 9467 H 875.066 1.85452 2.28002 0
M  V30 9468 H 872.58 1.10084 1.19395 0
M  V30 9469 H 874.577 0.261835 4.16077 0
M  V30 9470 H 873.237 -0.440725 3.21695 0
M  V30 9471 H 874.248 3.14598 4.11398 0
M  V30 9472 H 870.925 0.565417 4.13654 0
M  V30 9473 H 872.315 4.51985 4.97151 0
M  V30 9474 N 875.035 -1.20752 1.01276 0
M  V30 9475 C 876.446 -1.7175 0.732033 0
M  V30 9476 C 876.797 -1.8131 -0.749733 0
M  V30 9477 O 875.922 -1.47301 -1.58529 0
M  V30 9478 C 876.517 -3.11936 1.32217 0
M  V30 9479 C 875.076 -3.6026 1.09039 0
M  V30 9480 C 874.223 -2.37571 1.43022 0
M  V30 9481 H 877.174 -1.0582 1.1827 0
M  V30 9482 H 877.195 -3.73802 0.710771 0
M  V30 9483 H 876.707 -3.04946 2.40061 0
M  V30 9484 H 874.808 -3.72588 0.0294464 0
M  V30 9485 H 874.921 -4.45295 1.76775 0
M  V30 9486 H 873.285 -2.40128 0.849159 0
M  V30 9487 H 874.068 -2.33225 2.51915 0
M  V30 9488 N 876.513 -0.788492 -1.36457 0
M  V30 9489 C 877.761 -0.359749 -1.98872 0
M  V30 9490 C 878.082 1.07197 -1.62892 0
M  V30 9491 O 877.352 1.73875 -0.902463 0
M  V30 9492 H 875.932 -0.130029 -0.735596 0
M  V30 9493 H 878.594 -1.01033 -1.66668 0
M  V30 9494 H 877.69 -0.450835 -3.08827 0
M  V30 9495 N 877.991 1.48044 -0.54043 0
M  V30 9496 C 879.407 1.58354 -0.199006 0
M  V30 9497 C 879.607 1.54118 1.29807 0
M  V30 9498 O 878.663 1.43573 2.07709 0
M  V30 9499 C 879.976 2.89563 -0.810797 0
M  V30 9500 C 881.524 3.03113 -0.780486 0
M  V30 9501 C 881.999 4.36997 -1.37104 0
M  V30 9502 N 883.49 4.43591 -1.33347 0
M  V30 9503 C 884.225 5.45714 -1.76021 0
M  V30 9504 N 883.721 6.54738 -2.26473 0
M  V30 9505 N 885.514 5.36659 -1.67194 0
M  V30 9506 H 877.665 1.49041 -1.51329 0
M  V30 9507 H 879.928 0.708309 -0.630081 0
M  V30 9508 H 879.634 2.9835 -1.86227 0
M  V30 9509 H 879.508 3.76053 -0.293977 0
M  V30 9510 H 881.895 2.93932 0.262246 0
M  V30 9511 H 881.976 2.18207 -1.33489 0
M  V30 9512 H 881.62 4.46932 -2.41276 0
M  V30 9513 H 881.55 5.20607 -0.792229 0
M  V30 9514 H 884.041 3.65391 -0.964259 0
M  V30 9515 H 884.354 7.28814 -2.57002 0
M  V30 9516 H 882.699 6.55673 -2.30473 0
M  V30 9517 H 885.89 4.50382 -1.27569 0
M  V30 9518 H 886.063 6.16113 -2.00771 0
M  V30 9519 N 879.47 0.276058 1.55163 0
M  V30 9520 C 880.881 -0.221516 1.85381 0
M  V30 9521 C 881.232 -1.55372 1.19808 0
M  V30 9522 O 880.357 -2.10855 0.486742 0
M  V30 9523 C 880.952 -0.408706 3.36326 0
M  V30 9524 C 879.511 -0.850512 3.66665 0
M  V30 9525 C 878.658 0.055656 2.77244 0
M  V30 9526 H 881.609 0.497819 1.5069 0
M  V30 9527 H 881.63 -1.24711 3.59482 0
M  V30 9528 H 881.142 0.561052 3.84023 0
M  V30 9529 H 879.243 -1.83171 3.24468 0
M  V30 9530 H 879.356 -0.687181 4.74146 0
M  V30 9531 H 877.72 -0.460819 2.50497 0
M  V30 9532 H 878.503 1.02131 3.27756 0
M  V30 9533 N 880.948 -1.576 0.00335426 0
M  V30 9534 C 882.195 -1.90713 -0.680791 0
M  V30 9535 C 882.523 -0.877263 -1.73592 0
M  V30 9536 O 881.778 0.117497 -1.95347 0
M  V30 9537 C 882.077 -3.3058 -1.35837 0
M  V30 9538 C 881.743 -4.48786 -0.436111 0
M  V30 9539 C 880.405 -4.80855 -0.182195 0
M  V30 9540 C 882.757 -5.20821 0.198677 0
M  V30 9541 C 880.085 -5.8233 0.714747 0
M  V30 9542 C 882.437 -6.23252 1.08351 0
M  V30 9543 C 881.101 -6.53776 1.34658 0
M  V30 9544 H 880.371 -0.697869 -0.249119 0
M  V30 9545 H 883.018 -1.91407 0.0596011 0
M  V30 9546 H 881.323 -3.26026 -2.17289 0
M  V30 9547 H 883.02 -3.53462 -1.89383 0
M  V30 9548 H 879.61 -4.23731 -0.644186 0
M  V30 9549 H 883.794 -4.96298 0.0155259 0
M  V30 9550 H 879.05 -6.04339 0.926529 0
M  V30 9551 H 883.224 -6.78199 1.58172 0
M  V30 9552 H 880.851 -7.32225 2.04328 0
M  V30 9553 N 882.426 0.269451 -1.5528 0
M  V30 9554 C 883.673 1.00058 -1.76053 0
M  V30 9555 C 884.001 1.86156 -0.563592 0
M  V30 9556 O 883.256 1.90366 0.453806 0
M  V30 9557 C 883.555 1.91 -3.02082 0
M  V30 9558 C 883.221 1.20623 -4.34466 0
M  V30 9559 C 881.883 1.01165 -4.70446 0
M  V30 9560 C 884.235 0.705695 -5.164 0
M  V30 9561 C 881.563 0.303865 -5.85913 0
M  V30 9562 C 883.915 0.0114838 -6.32599 0
M  V30 9563 C 882.579 -0.19478 -6.67216 0
M  V30 9564 H 881.849 0.366138 -0.644223 0
M  V30 9565 H 884.496 0.272563 -1.8955 0
M  V30 9566 H 882.801 2.70435 -2.835 0
M  V30 9567 H 884.498 2.47698 -3.15352 0
M  V30 9568 H 881.088 1.36781 -4.06188 0
M  V30 9569 H 885.272 0.84364 -4.89077 0
M  V30 9570 H 880.528 0.133368 -6.11255 0
M  V30 9571 H 884.702 -0.384111 -6.9534 0
M  V30 9572 H 882.329 -0.745201 -7.56539 0
M  V30 9573 N 883.904 1.48273 0.534124 0
M  V30 9574 C 884.854 1.58889 1.63519 0
M  V30 9575 C 885.838 0.44626 1.54588 0
M  V30 9576 O 887.03 0.697474 1.62679 0
M  V30 9577 C 884.159 1.62787 3.0225 0
M  V30 9578 C 883.245 2.82515 3.16301 0
M  V30 9579 N 883.636 4.06977 3.00338 0
M  V30 9580 C 881.934 2.7976 3.47347 0
M  V30 9581 C 882.635 4.87283 3.17694 0
M  V30 9582 N 881.611 4.20024 3.45081 0
M  V30 9583 H 885.413 2.52869 1.49781 0
M  V30 9584 H 882.927 1.44587 0.739479 0
M  V30 9585 H 884.924 1.68486 3.81337 0
M  V30 9586 H 883.584 0.699201 3.17082 0
M  V30 9587 H 884.595 4.37479 2.77186 0
M  V30 9588 H 881.272 1.96132 3.68563 0
M  V30 9589 H 882.662 5.96047 3.10126 0
M  V30 9590 N 885.382 -0.782676 1.36792 0
M  V30 9591 C 886.61 -1.57162 1.34565 0
M  V30 9592 C 887.025 -1.88664 -0.0715501 0
M  V30 9593 O 886.382 -1.50633 -1.03033 0
M  V30 9594 C 886.433 -2.88854 2.1736 0
M  V30 9595 O 886.154 -2.58707 3.53557 0
M  V30 9596 C 887.655 -3.83132 2.2299 0
M  V30 9597 H 884.875 -0.487245 0.461338 0
M  V30 9598 H 887.419 -0.970905 1.79982 0
M  V30 9599 H 885.574 -3.45377 1.7548 0
M  V30 9600 H 885.988 -3.42961 3.96835 0
M  V30 9601 H 887.462 -4.72575 2.85266 0
M  V30 9602 H 887.939 -4.21472 1.23524 0
M  V30 9603 H 888.545 -3.32541 2.65135 0
M  V30 9604 N 886.86 -1.21182 -1.00761 0
M  V30 9605 C 887.792 -0.926523 -2.09638 0
M  V30 9606 C 888.805 0.0892511 -1.62555 0
M  V30 9607 O 889.994 -0.142915 -1.77927 0
M  V30 9608 C 887.094 -0.369175 -3.36883 0
M  V30 9609 C 886.267 -1.43866 -4.13063 0
M  V30 9610 C 885.326 -0.891015 -5.18601 0
M  V30 9611 O 884.352 -1.57384 -5.47009 0
M  V30 9612 N 885.554 0.295057 -5.7975 0
M  V30 9613 H 888.319 -1.8638 -2.34697 0
M  V30 9614 H 885.88 -1.11671 -1.17223 0
M  V30 9615 H 887.872 0.011534 -4.04698 0
M  V30 9616 H 886.442 0.472861 -3.09003 0
M  V30 9617 H 885.662 -1.99332 -3.40089 0
M  V30 9618 H 886.95 -2.15866 -4.60738 0
M  V30 9619 H 886.348 0.8669 -5.59018 0
M  V30 9620 H 884.905 0.617306 -6.4887 0
M  V30 9621 N 888.338 1.20213 -1.01915 0
M  V30 9622 C 889.749 1.7136 -0.741131 0
M  V30 9623 C 890.1 1.81705 0.740107 0
M  V30 9624 O 889.225 1.48139 1.57746 0
M  V30 9625 C 889.82 3.11231 -1.33869 0
M  V30 9626 C 888.379 3.59677 -1.10948 0
M  V30 9627 C 887.526 2.36809 -1.4428 0
M  V30 9628 H 890.477 1.05191 -1.1883 0
M  V30 9629 H 890.498 3.7342 -0.730585 0
M  V30 9630 H 890.01 3.03669 -2.41675 0
M  V30 9631 H 888.111 3.72568 -0.0492052 0
M  V30 9632 H 888.224 4.44351 -1.79134 0
M  V30 9633 H 886.588 2.39674 -0.861881 0
M  V30 9634 H 887.371 2.31886 -2.53148 0
M  V30 9635 N 889.816 0.795718 1.36037 0
M  V30 9636 C 891.232 0.478145 1.52269 0
M  V30 9637 C 891.432 -1.0025 1.74792 0
M  V30 9638 O 890.488 -1.78783 1.78305 0
M  V30 9639 C 891.801 1.31406 2.70468 0
M  V30 9640 C 893.349 1.3084 2.84341 0
M  V30 9641 C 893.824 2.12819 4.05551 0
M  V30 9642 N 895.315 2.10298 4.12709 0
M  V30 9643 C 896.05 2.70495 5.05589 0
M  V30 9644 N 895.546 3.39576 6.03871 0
M  V30 9645 N 897.339 2.60195 4.98252 0
M  V30 9646 H 889.49 1.75477 1.19673 0
M  V30 9647 H 891.753 0.74627 0.584624 0
M  V30 9648 H 891.459 2.36435 2.60368 0
M  V30 9649 H 891.333 0.959726 3.64786 0
M  V30 9650 H 893.72 0.266003 2.93899 0
M  V30 9651 H 893.801 1.70254 1.90912 0
M  V30 9652 H 893.445 3.17093 3.96755 0
M  V30 9653 H 893.375 1.70772 4.98141 0
M  V30 9654 H 895.866 1.60026 3.42345 0
M  V30 9655 H 896.179 3.82823 6.71317 0
M  V30 9656 H 894.524 3.43679 6.04077 0
M  V30 9657 H 897.715 2.05823 4.20422 0
M  V30 9658 H 897.888 3.074 5.70447 0
M  V30 9659 N 891.294 -1.47756 0.548274 0
M  V30 9660 C 892.519 -2.07387 0.023475 0
M  V30 9661 C 892.944 -1.39956 -1.25674 0
M  V30 9662 O 892.302 -0.471543 -1.7506 0
M  V30 9663 C 892.35 -3.60224 -0.164669 0
M  V30 9664 O 891.454 -3.93653 -1.22928 0
M  V30 9665 H 890.795 -0.662312 0.0473156 0
M  V30 9666 H 893.325 -1.89905 0.761409 0
M  V30 9667 H 893.335 -4.06211 -0.38166 0
M  V30 9668 H 892.01 -4.08702 0.770425 0
M  V30 9669 H 890.587 -3.59422 -0.993495 0
M  V30 9670 N 892.772 -0.284283 -1.55015 0
M  V30 9671 C 894 0.332948 -2.04203 0
M  V30 9672 C 894.415 1.48783 -1.16229 0
M  V30 9673 O 893.772 1.81567 -0.184323 0
M  V30 9674 C 893.823 0.805207 -3.52418 0
M  V30 9675 O 893.544 -0.303689 -4.37046 0
M  V30 9676 C 895.045 1.48931 -4.17534 0
M  V30 9677 H 892.265 0.0747447 -0.666824 0
M  V30 9678 H 894.809 -0.419048 -2.00161 0
M  V30 9679 H 892.964 1.50727 -3.56876 0
M  V30 9680 H 893.378 0.0609703 -5.24465 0
M  V30 9681 H 894.852 1.77108 -5.22816 0
M  V30 9682 H 895.329 2.42389 -3.66257 0
M  V30 9683 H 895.935 0.830867 -4.17105 0
M  V30 9684 N 894.251 1.57596 -0.0117121 0
M  V30 9685 C 895.662 1.79033 0.529521 0
M  V30 9686 C 896.013 0.920299 1.73277 0
M  V30 9687 O 895.138 0.125934 2.16033 0
M  V30 9688 C 895.733 3.24695 0.967405 0
M  V30 9689 C 894.292 3.47188 1.45387 0
M  V30 9690 C 893.439 2.74245 0.410466 0
M  V30 9691 H 896.39 1.56908 -0.237836 0
M  V30 9692 H 896.411 3.33451 1.83278 0
M  V30 9693 H 895.923 3.87992 0.0914605 0
M  V30 9694 H 894.024 2.89121 2.35032 0
M  V30 9695 H 894.137 4.55886 1.47325 0
M  V30 9696 H 892.501 2.39209 0.874721 0
M  V30 9697 H 893.284 3.40248 -0.456713 0
M  V30 9698 N 895.729 -0.261212 1.5542 0
M  V30 9699 C 896.977 -0.989272 1.76232 0
M  V30 9700 C 897.298 -1.86389 0.573067 0
M  V30 9701 O 896.568 -1.91526 -0.41166 0
M  V30 9702 H 895.148 -0.368256 0.64992 0
M  V30 9703 H 897.81 -0.282603 1.9284 0
M  V30 9704 H 896.906 -1.61935 2.66802 0
M  V30 9705 N 897.207 -1.48554 -0.526253 0
M  V30 9706 C 898.137 -1.66252 -1.63959 0
M  V30 9707 C 899.118 -0.511351 -1.62232 0
M  V30 9708 O 900.303 -0.744322 -1.7937 0
M  V30 9709 C 897.433 -1.70556 -3.02536 0
M  V30 9710 C 896.387 -2.8521 -3.19123 0
M  V30 9711 C 895.713 -2.74606 -4.58798 0
M  V30 9712 C 897.013 -4.26463 -3.0154 0
M  V30 9713 H 898.707 -2.59459 -1.49404 0
M  V30 9714 H 896.253 -1.24862 -0.717326 0
M  V30 9715 H 898.206 -1.81524 -3.80298 0
M  V30 9716 H 896.93 -0.739297 -3.18123 0
M  V30 9717 H 895.589 -2.73802 -2.43779 0
M  V30 9718 H 895.237 -1.75941 -4.71226 0
M  V30 9719 H 894.937 -3.51544 -4.70841 0
M  V30 9720 H 896.461 -2.87548 -5.38655 0
M  V30 9721 H 897.875 -4.38685 -3.69091 0
M  V30 9722 H 896.272 -5.04428 -3.25073 0
M  V30 9723 H 897.342 -4.42667 -1.97925 0
M  V30 9724 N 898.685 0.775411 -1.37205 0
M  V30 9725 C 899.934 1.52909 -1.31536 0
M  V30 9726 C 900.247 1.9535 0.0989374 0
M  V30 9727 O 901.453 2.70072 0.278079 0
M  V30 9728 C 899.909 2.761 -2.30861 0
M  V30 9729 C 899.517 2.40773 -3.77799 0
M  V30 9730 C 901.261 3.54052 -2.34195 0
M  V30 9731 C 899.168 3.60444 -4.68865 0
M  V30 9732 H 898.098 0.574061 -0.488845 0
M  V30 9733 H 900.749 0.849642 -1.62645 0
M  V30 9734 H 899.131 3.45916 -1.92764 0
M  V30 9735 H 900.305 1.78764 -4.24712 0
M  V30 9736 H 898.62 1.76004 -3.77375 0
M  V30 9737 H 901.217 4.42992 -2.99437 0
M  V30 9738 H 901.56 3.93649 -1.35449 0
M  V30 9739 H 902.093 2.91229 -2.7098 0
M  V30 9740 H 898.832 3.25932 -5.68725 0
M  V30 9741 H 898.352 4.21571 -4.26659 0
M  V30 9742 H 900.031 4.27302 -4.85821 0
M  V30 9743 N 900.163 1.21714 1.00117 0
M  V30 9744 C 901.574 1.03477 1.55401 0
M  V30 9745 C 901.925 -0.40429 1.91989 0
M  V30 9746 O 901.05 -1.28807 1.7389 0
M  V30 9747 C 901.645 1.87213 2.82377 0
M  V30 9748 C 900.204 1.73297 3.34133 0
M  V30 9749 C 899.351 1.84189 2.07291 0
M  V30 9750 H 902.302 1.3568 0.823195 0
M  V30 9751 H 902.323 1.38465 3.54412 0
M  V30 9752 H 901.835 2.91944 2.55715 0
M  V30 9753 H 899.936 0.712662 3.65721 0
M  V30 9754 H 900.049 2.55486 4.05294 0
M  V30 9755 H 898.413 1.27538 2.20468 0
M  V30 9756 H 899.196 2.90435 1.83037 0
M  V30 9757 N 901.641 -1.19671 1.02551 0
M  V30 9758 C 903.057 -1.41305 0.741963 0
M  V30 9759 C 903.257 -1.89865 -0.674807 0
M  V30 9760 O 902.313 -2.07323 -1.44129 0
M  V30 9761 C 903.626 -2.42706 1.77522 0
M  V30 9762 C 905.174 -2.56458 1.79438 0
M  V30 9763 C 905.649 -3.61111 2.81715 0
M  V30 9764 N 907.14 -3.68603 2.8051 0
M  V30 9765 C 907.875 -4.49262 3.56302 0
M  V30 9766 N 907.371 -5.33653 4.41799 0
M  V30 9767 N 909.164 -4.43879 3.44859 0
M  V30 9768 H 901.315 -0.8647 1.94002 0
M  V30 9769 H 903.578 -0.442206 0.838545 0
M  V30 9770 H 903.284 -2.14042 2.79068 0
M  V30 9771 H 903.158 -3.41831 1.59472 0
M  V30 9772 H 905.545 -2.84447 0.78573 0
M  V30 9773 H 905.626 -1.57499 2.01563 0
M  V30 9774 H 905.27 -3.33864 3.82749 0
M  V30 9775 H 905.2 -4.59713 2.56849 0
M  V30 9776 H 907.691 -3.08329 2.18498 0
M  V30 9777 H 908.004 -5.92308 4.96378 0
M  V30 9778 H 906.349 -5.33125 4.45873 0
M  V30 9779 H 909.54 -3.7699 2.77482 0
M  V30 9780 H 909.713 -5.06501 4.04179 0
M  V30 9781 N 903.119 -0.802921 -1.35613 0
M  V30 9782 C 904.53 -0.443004 -1.81368 0
M  V30 9783 C 904.881 1.03459 -1.66706 0
M  V30 9784 O 904.006 1.80372 -1.19561 0
M  V30 9785 C 904.601 -0.797324 -3.29284 0
M  V30 9786 C 903.16 -0.490055 -3.73196 0
M  V30 9787 C 902.307 -1.02487 -2.57666 0
M  V30 9788 H 905.258 -0.994888 -1.23643 0
M  V30 9789 H 905.279 -0.0934638 -3.80385 0
M  V30 9790 H 904.791 -1.87278 -3.39924 0
M  V30 9791 H 902.892 0.576818 -3.68108 0
M  V30 9792 H 903.005 -1.02012 -4.68114 0
M  V30 9793 H 901.369 -0.44738 -2.5074 0
M  V30 9794 H 902.152 -2.10636 -2.71085 0
M  V30 9795 N 904.597 1.47463 -0.556102 0
M  V30 9796 C 906.008 1.86298 -0.122429 0
M  V30 9797 C 906.359 1.46285 1.30749 0
M  V30 9798 O 905.484 0.865405 1.98342 0
M  V30 9799 C 906.079 3.38115 -0.215407 0
M  V30 9800 C 904.638 3.76046 0.163223 0
M  V30 9801 C 903.785 2.71515 -0.563466 0
M  V30 9802 H 906.736 1.38996 -0.765888 0
M  V30 9803 H 906.757 3.76263 0.566271 0
M  V30 9804 H 906.269 3.67207 -1.25622 0
M  V30 9805 H 904.37 3.5257 1.20519 0
M  V30 9806 H 904.483 4.78705 -0.194568 0
M  V30 9807 H 902.847 2.54699 -0.00667879 0
M  V30 9808 H 903.63 3.03449 -1.60542 0
M  V30 9809 N 906.075 0.2925 1.54862 0
M  V30 9810 C 907.038 -0.574423 2.21885 0
M  V30 9811 C 908.038 -1.06791 1.20218 0
M  V30 9812 O 909.228 -0.9653 1.45009 0
M  V30 9813 C 906.36 -1.79438 2.89853 0
M  V30 9814 H 907.553 0.0110319 2.99898 0
M  V30 9815 H 905.106 0.043256 1.5624 0
M  V30 9816 H 905.841 -2.4199 2.15897 0
M  V30 9817 H 905.626 -1.44827 3.64373 0
M  V30 9818 H 907.116 -2.41048 3.41007 0
M  V30 9819 N 907.553 -1.57587 0.0200696 0
M  V30 9820 C 908.516 -2.08595 -0.949767 0
M  V30 9821 C 909.516 -0.999215 -1.25985 0
M  V30 9822 O 910.706 -1.26115 -1.2017 0
M  V30 9823 C 907.838 -2.54424 -2.26895 0
M  V30 9824 H 909.031 -2.95563 -0.508161 0
M  V30 9825 H 906.584 -1.54631 -0.227798 0
M  V30 9826 H 907.319 -1.70758 -2.75703 0
M  V30 9827 H 907.104 -3.3381 -2.05702 0
M  V30 9828 H 908.594 -2.94144 -2.96427 0
M  V30 9829 N 909.032 0.252966 -1.55557 0
M  V30 9830 C 909.964 1.33585 -1.86246 0
M  V30 9831 C 910.977 1.44584 -0.748291 0
M  V30 9832 O 912.166 1.46042 -1.02635 0
M  V30 9833 C 909.266 2.71509 -2.02821 0
M  V30 9834 C 908.439 2.82853 -3.33636 0
M  V30 9835 C 907.498 4.01581 -3.40028 0
M  V30 9836 O 906.524 3.91394 -4.13278 0
M  V30 9837 N 907.726 5.14474 -2.6888 0
M  V30 9838 H 910.491 1.07596 -2.7972 0
M  V30 9839 H 908.052 0.443075 -1.55719 0
M  V30 9840 H 910.044 3.49262 -2.04445 0
M  V30 9841 H 908.614 2.90232 -1.1612 0
M  V30 9842 H 907.834 1.91823 -3.4438 0
M  V30 9843 H 909.122 2.87378 -4.19871 0
M  V30 9844 H 908.52 5.25641 -2.09087 0
M  V30 9845 H 907.077 5.90385 -2.76204 0
M  V30 9846 N 910.51 1.48831 0.518367 0
M  V30 9847 C 911.921 1.50842 1.10016 0
M  V30 9848 C 912.272 0.284744 1.94123 0
M  V30 9849 O 911.397 -0.607088 2.0771 0
M  V30 9850 C 911.992 2.73329 2.00191 0
M  V30 9851 C 910.551 2.78175 2.53566 0
M  V30 9852 C 909.698 2.4452 1.30786 0
M  V30 9853 H 912.649 1.55779 0.303073 0
M  V30 9854 H 912.67 2.52506 2.84642 0
M  V30 9855 H 912.182 3.62374 1.3895 0
M  V30 9856 H 910.283 1.93368 3.18496 0
M  V30 9857 H 910.396 3.79905 2.91906 0
M  V30 9858 H 908.76 1.95924 1.62744 0
M  V30 9859 H 909.543 3.35819 0.712797 0
M  V30 9860 N 911.988 -0.768124 1.37614 0
M  V30 9861 C 913.234 -1.52907 1.33219 0
M  V30 9862 C 913.567 -1.94026 -0.0821218 0
M  V30 9863 O 912.842 -1.64345 -1.04023 0
M  V30 9864 C 913.125 -2.79164 2.27463 0
M  V30 9865 C 912.978 -2.44276 3.7769 0
M  V30 9866 C 914.297 -3.81115 2.20089 0
M  V30 9867 H 911.416 -0.554712 0.485246 0
M  V30 9868 H 914.058 -0.880911 1.68345 0
M  V30 9869 H 912.208 -3.34472 1.97639 0
M  V30 9870 H 913.88 -1.94855 4.18126 0
M  V30 9871 H 912.123 -1.76925 3.96081 0
M  V30 9872 H 912.794 -3.34544 4.39072 0
M  V30 9873 H 915.27 -3.35311 2.46386 0
M  V30 9874 H 914.146 -4.67174 2.88166 0
M  V30 9875 H 914.407 -4.25644 1.19498 0
M  V30 9876 N 913.466 -1.22244 -0.994698 0
M  V30 9877 C 914.416 -0.958244 -2.06886 0
M  V30 9878 C 915.4 0.0904481 -1.60646 0
M  V30 9879 O 916.592 -0.119837 -1.76594 0
M  V30 9880 C 913.721 -0.535944 -3.39091 0
M  V30 9881 C 912.807 -1.61927 -3.9197 0
M  V30 9882 N 913.198 -2.84659 -4.18094 0
M  V30 9883 C 911.496 -1.49053 -4.20356 0
M  V30 9884 C 912.197 -3.54697 -4.61048 0
M  V30 9885 N 911.173 -2.82164 -4.64634 0
M  V30 9886 H 914.975 -1.89056 -2.25022 0
M  V30 9887 H 912.489 -1.1197 -1.17629 0
M  V30 9888 H 914.486 -0.327997 -4.15608 0
M  V30 9889 H 913.146 0.38949 -3.22355 0
M  V30 9890 H 914.157 -3.21104 -4.06341 0
M  V30 9891 H 910.834 -0.631154 -4.12702 0
M  V30 9892 H 912.224 -4.59837 -4.89898 0
M  V30 9893 N 914.944 1.19125 -1.03184 0
M  V30 9894 C 916.192 1.8851 -0.728587 0
M  V30 9895 C 916.513 1.80195 0.74531 0
M  V30 9896 O 915.783 1.21437 1.5372 0
M  V30 9897 H 914.363 0.69784 -0.266511 0
M  V30 9898 H 917.025 1.44607 -1.3067 0
M  V30 9899 H 916.121 2.9477 -1.02554 0
M  V30 9900 N 916.422 0.810101 1.35185 0
M  V30 9901 C 917.838 0.494269 1.51754 0
M  V30 9902 C 918.038 -0.983907 1.75845 0
M  V30 9903 O 917.094 -1.76882 1.80191 0
M  V30 9904 C 918.407 1.34268 2.69059 0
M  V30 9905 C 919.955 1.33848 2.82938 0
M  V30 9906 C 920.43 2.17109 4.03271 0
M  V30 9907 N 921.921 2.14664 4.10456 0
M  V30 9908 C 922.656 2.75843 5.02691 0
M  V30 9909 N 922.152 3.45962 6.00235 0
M  V30 9910 N 923.945 2.65465 4.95464 0
M  V30 9911 H 916.096 1.76736 1.17805 0
M  V30 9912 H 918.359 0.752429 0.576676 0
M  V30 9913 H 918.065 2.39183 2.57845 0
M  V30 9914 H 917.939 0.998362 3.63748 0
M  V30 9915 H 920.326 0.29716 2.936 0
M  V30 9916 H 920.407 1.72269 1.89095 0
M  V30 9917 H 920.051 3.21283 3.93369 0
M  V30 9918 H 919.981 1.76046 4.96302 0
M  V30 9919 H 922.472 1.63648 3.40628 0
M  V30 9920 H 922.785 3.89922 6.67219 0
M  V30 9921 H 921.13 3.50067 6.00398 0
M  V30 9922 H 924.321 2.1027 4.18215 0
M  V30 9923 H 924.494 3.13433 5.67154 0
M  V30 9924 N 917.9 -1.47166 0.563914 0
M  V30 9925 C 919.128 -2.06846 0.0474287 0
M  V30 9926 C 919.543 -1.41557 -1.24928 0
M  V30 9927 O 918.9 -0.514376 -1.75101 0
M  V30 9928 C 918.951 -3.6121 -0.144831 0
M  V30 9929 O 918.672 -4.24052 1.10053 0
M  V30 9930 C 920.173 -4.37773 -0.69783 0
M  V30 9931 H 917.393 -0.669217 0.0488896 0
M  V30 9932 H 919.937 -1.89072 0.779235 0
M  V30 9933 H 918.092 -3.78474 -0.82679 0
M  V30 9934 H 918.506 -5.16677 0.902481 0
M  V30 9935 H 919.98 -5.46438 -0.781616 0
M  V30 9936 H 920.457 -4.04517 -1.71063 0
M  V30 9937 H 921.063 -4.25269 -0.0513516 0
M  V30 9938 N 919.378 -0.300708 -1.54705 0
M  V30 9939 C 920.655 0.361757 -1.92226 0
M  V30 9940 C 921.035 1.71714 -1.2279 0
M  V30 9941 O 920.383 2.2559 -0.363542 0
M  V30 9942 C 920.593 0.476699 -3.45729 0
M  V30 9943 C 921.941 0.7477 -4.17965 0
M  V30 9944 O 922.965 0.560521 -3.51762 0
M  V30 9945 O 921.824 1.10724 -5.35166 0
M  V30 9946 H 918.918 0.202213 -0.801897 0
M  V30 9947 H 921.464 -0.348746 -1.66078 0
M  V30 9948 H 920.236 -0.476132 -3.88392 0
M  V30 9949 H 919.859 1.23568 -3.77911 0
M  V30 9950 N 920.856 1.57574 -0.0284266 0
M  V30 9951 C 922.102 1.92884 0.645544 0
M  V30 9952 C 922.457 0.905203 1.69776 0
M  V30 9953 O 921.75 -0.0788509 1.91438 0
M  V30 9954 C 921.944 3.32699 1.3056 0
M  V30 9955 C 921.773 4.48568 0.318848 0
M  V30 9956 C 920.543 5.05235 -0.0810373 0
M  V30 9957 C 922.741 5.12528 -0.426575 0
M  V30 9958 N 920.723 6.04626 -1.06303 0
M  V30 9959 C 922.094 6.07013 -1.26235 0
M  V30 9960 C 924.149 4.95509 -0.48735 0
M  V30 9961 C 922.852 6.8631 -2.15341 0
M  V30 9962 C 924.878 5.75414 -1.36575 0
M  V30 9963 C 924.24 6.69514 -2.1893 0
M  V30 9964 H 920.339 0.753677 0.208555 0
M  V30 9965 H 922.923 1.94466 -0.095439 0
M  V30 9966 H 921.094 3.31938 2.01673 0
M  V30 9967 H 922.826 3.55359 1.93655 0
M  V30 9968 H 919.581 4.72691 0.293264 0
M  V30 9969 H 920.005 6.59012 -1.55025 0
M  V30 9970 H 924.647 4.22584 0.135112 0
M  V30 9971 H 922.365 7.58541 -2.78642 0
M  V30 9972 H 925.951 5.64279 -1.41705 0
M  V30 9973 H 924.831 7.30266 -2.85799 0
M  V30 9974 N 922.334 -0.244713 1.55689 0
M  V30 9975 C 923.297 -1.2864 1.89695 0
M  V30 9976 C 924.297 -1.40969 0.773583 0
M  V30 9977 O 925.487 -1.39632 1.04156 0
M  V30 9978 C 922.619 -2.66379 2.12732 0
M  V30 9979 H 923.812 -0.997033 2.82841 0
M  V30 9980 H 921.365 -0.484103 1.48614 0
M  V30 9981 H 922.1 -3.00452 1.22062 0
M  V30 9982 H 921.885 -2.58812 2.94549 0
M  V30 9983 H 923.375 -3.41592 2.40218 0
M  V30 9984 N 923.813 -1.49104 -0.510467 0
M  V30 9985 C 925.038 -1.62068 -1.29417 0
M  V30 9986 C 925.463 -0.288432 -1.85875 0
M  V30 9987 O 924.821 0.742667 -1.65391 0
M  V30 9988 C 924.869 -2.68506 -2.40701 0
M  V30 9989 O 923.973 -2.27021 -3.4429 0
M  V30 9990 H 923.314 -0.542778 -0.382476 0
M  V30 9991 H 925.844 -1.95228 -0.612154 0
M  V30 9992 H 925.854 -2.90383 -2.86604 0
M  V30 9993 H 924.529 -3.65216 -1.98973 0
M  V30 9994 H 923.106 -2.15436 -3.04371 0
M  V30 9995 N 925.291 0.760815 -1.38019 0
M  V30 9996 C 926.238 1.8744 -1.34666 0
M  V30 9997 C 927.208 1.64762 -0.210386 0
M  V30 9998 O 928.393 1.86528 -0.401479 0
M  V30 9999 C 925.533 3.24648 -1.17037 0
M  V30 10000 C 924.646 3.59206 -2.3999 0
M  V30 10001 C 923.781 4.8568 -2.15148 0
M  V30 10002 C 922.82 5.13002 -3.3391 0
M  V30 10003 N 921.957 6.30668 -3.08549 0
M  V30 10004 H 926.797 1.8964 -2.29871 0
M  V30 10005 H 924.334 0.927004 -1.14215 0
M  V30 10006 H 926.292 4.03814 -1.04834 0
M  V30 10007 H 924.922 3.21793 -0.254758 0
M  V30 10008 H 923.974 2.74939 -2.62893 0
M  V30 10009 H 925.286 3.75328 -3.28527 0
M  V30 10010 H 924.44 5.72773 -2.00039 0
M  V30 10011 H 923.179 4.71682 -1.23965 0
M  V30 10012 H 922.184 4.2438 -3.49545 0
M  V30 10013 H 923.409 5.28901 -4.25958 0
M  V30 10014 H 921.355 6.18008 -2.20006 0
M  V30 10015 H 921.272 6.47257 -3.90633 0
M  V30 10016 H 922.54 7.20669 -2.9708 0
M  V30 10017 N 926.769 1.22769 0.988202 0
M  V30 10018 C 927.999 1.07998 1.76125 0
M  V30 10019 C 928.407 -0.372062 1.85506 0
M  V30 10020 O 927.75 -1.26946 1.3278 0
M  V30 10021 C 927.812 1.6219 3.20834 0
M  V30 10022 C 927.476 3.1086 3.34986 0
M  V30 10023 C 928.473 4.08239 3.21927 0
M  V30 10024 C 926.158 3.50411 3.59886 0
M  V30 10025 C 928.152 5.43154 3.33561 0
M  V30 10026 C 925.839 4.85473 3.71159 0
M  V30 10027 C 926.837 5.81653 3.58006 0
M  V30 10028 O 926.525 7.14263 3.68895 0
M  V30 10029 H 926.257 0.378937 0.559806 0
M  V30 10030 H 928.811 1.62925 1.25078 0
M  V30 10031 H 927.041 1.01676 3.73094 0
M  V30 10032 H 928.73 1.43011 3.79872 0
M  V30 10033 H 929.496 3.79025 3.02597 0
M  V30 10034 H 925.375 2.76068 3.69198 0
M  V30 10035 H 928.919 6.18207 3.23211 0
M  V30 10036 H 924.816 5.14365 3.89998 0
M  V30 10037 H 925.584 7.21906 3.85739 0
M  V30 10038 N 928.247 -1.18576 1.03814 0
M  V30 10039 C 929.21 -2.2033 0.63146 0
M  V30 10040 C 930.21 -1.57787 -0.309816 0
M  V30 10041 O 931.4 -1.73938 -0.0955598 0
M  V30 10042 C 928.532 -3.40818 -0.0745963 0
M  V30 10043 H 929.725 -2.57824 1.53189 0
M  V30 10044 H 927.278 -1.32416 0.830398 0
M  V30 10045 H 928.013 -3.08853 -0.988947 0
M  V30 10046 H 927.798 -3.87453 0.6019 0
M  V30 10047 H 929.288 -4.16166 -0.345727 0
M  V30 10048 N 929.725 -0.817259 -1.34754 0
M  V30 10049 C 930.95 -0.414423 -2.03217 0
M  V30 10050 C 931.375 0.970037 -1.61158 0
M  V30 10051 O 930.733 1.63016 -0.793436 0
M  V30 10052 C 930.781 -0.518087 -3.56859 0
M  V30 10053 O 929.885 0.464314 -4.09778 0
M  V30 10054 H 929.226 -0.171454 -0.641482 0
M  V30 10055 H 931.756 -1.10611 -1.72123 0
M  V30 10056 H 931.766 -0.391779 -4.06115 0
M  V30 10057 H 930.441 -1.52786 -3.86819 0
M  V30 10058 H 929.018 0.297361 -3.71712 0
M  V30 10059 N 931.203 1.46865 -0.571711 0
M  V30 10060 C 932.619 1.57897 -0.23255 0
M  V30 10061 C 932.819 1.56836 1.26509 0
M  V30 10062 O 931.875 1.47947 2.04617 0
M  V30 10063 C 933.188 2.87778 -0.872036 0
M  V30 10064 C 934.736 3.01389 -0.844605 0
M  V30 10065 C 935.211 4.33991 -1.46343 0
M  V30 10066 N 936.702 4.40662 -1.42727 0
M  V30 10067 C 937.437 5.41858 -1.87557 0
M  V30 10068 N 936.933 6.49787 -2.4031 0
M  V30 10069 N 938.726 5.32992 -1.7854 0
M  V30 10070 H 930.877 1.45798 -1.54457 0
M  V30 10071 H 933.14 0.694785 -0.644964 0
M  V30 10072 H 932.846 2.94332 -1.92513 0
M  V30 10073 H 932.72 3.75345 -0.373677 0
M  V30 10074 H 935.107 2.94423 0.19984 0
M  V30 10075 H 935.188 2.15327 -1.38087 0
M  V30 10076 H 934.832 4.41714 -2.50701 0
M  V30 10077 H 934.762 5.18809 -0.902479 0
M  V30 10078 H 937.253 3.63263 -1.04155 0
M  V30 10079 H 937.566 7.23199 -2.72403 0
M  V30 10080 H 935.911 6.50637 -2.44329 0
M  V30 10081 H 939.102 4.47575 -1.37093 0
M  V30 10082 H 939.275 6.11716 -2.13794 0
M  V30 10083 N 932.681 0.308908 1.54543 0
M  V30 10084 C 934.097 -0.0442273 1.59539 0
M  V30 10085 C 934.297 -1.51743 1.32575 0
M  V30 10086 O 933.353 -2.27134 1.10302 0
M  V30 10087 C 934.666 0.360826 2.98527 0
M  V30 10088 C 936.214 0.310252 3.11459 0
M  V30 10089 C 936.689 0.690246 4.52769 0
M  V30 10090 N 938.18 0.643084 4.58714 0
M  V30 10091 C 938.915 0.909483 5.66141 0
M  V30 10092 N 938.411 1.24226 6.81572 0
M  V30 10093 N 940.204 0.836018 5.55848 0
M  V30 10094 H 932.355 1.26893 1.70329 0
M  V30 10095 H 934.618 0.514986 0.795923 0
M  V30 10096 H 934.324 1.38669 3.23209 0
M  V30 10097 H 934.198 -0.281563 3.76148 0
M  V30 10098 H 936.585 -0.706375 2.86521 0
M  V30 10099 H 936.666 0.987373 2.35976 0
M  V30 10100 H 936.31 1.70472 4.78437 0
M  V30 10101 H 936.24 -0.00903075 5.26599 0
M  V30 10102 H 938.731 0.397138 3.75807 0
M  V30 10103 H 939.044 1.4313 7.5943 0
M  V30 10104 H 937.389 1.28038 6.83104 0
M  V30 10105 H 940.58 0.575637 4.64547 0
M  V30 10106 H 940.753 1.047 6.39486 0
M  V30 10107 O 934.198 -1.6054 0.175817 0
M  V30 10108 H 934.889 -1.89244 -0.4131 0
M  V30 END ATOM
M  V30 BEGIN BOND
M  V30 END BOND
M  V30 END CTAB
M  END
$$$$
