drugbank_target|Q9UQD0 Sodium channel protein type 8 subunit alpha (DB00273; DB00555; DB00564; DB01069; DB09085; DB09088; DB09342; DB09345; DB11186; DB13746)
 OpenBabel12092120043D

  0  0  0     0  0            999 V3000
M  V30 BEGIN CTAB
M  V30 COUNTS 31751 32112 0 0 0
M  V30 BEGIN ATOM
M  V30 1 H -0.908 1.98254 -0.117106 0
M  V30 2 N 0 1.576 0 0
M  V30 3 C 0.933 2.03868 1.02534 0
M  V30 4 C 1.911 0.928543 1.3348 0
M  V30 5 O 3.095 1.19667 1.45644 0
M  V30 6 C 0.222 2.43627 2.35294 0
M  V30 7 C -0.732 3.65373 2.2001 0
M  V30 8 S 0.101 5.13292 1.52614 0
M  V30 9 C 1.257 5.56322 2.86805 0
M  V30 10 H 1.49 2.90518 0.631377 0
M  V30 11 H -0.977 1.52953 0.210867 0
M  V30 12 H 0.981 2.67203 3.11629 0
M  V30 13 H -0.358 1.57376 2.7183 0
M  V30 14 H -1.165 3.90944 3.18086 0
M  V30 15 H -1.563 3.418 1.51819 0
M  V30 16 H 0.729 5.58782 3.83104 0
M  V30 17 H 1.672 6.56266 2.65933 0
M  V30 18 H 2.08 4.83886 2.90714 0
M  V30 19 N 1.4781 -0.272755 1.55222 0
M  V30 20 C 2.4411 -1.32041 1.87344 0
M  V30 21 C 3.4411 -1.42342 0.74803 0
M  V30 22 O 4.6311 -1.41488 1.0162 0
M  V30 23 C 1.7631 -2.70173 2.07893 0
M  V30 24 H 2.9561 -1.04789 2.80997 0
M  V30 25 H 0.5091 -0.51083 1.47717 0
M  V30 26 H 1.2441 -3.02605 1.16622 0
M  V30 27 H 1.0291 -2.64082 2.89833 0
M  V30 28 H 2.5191 -3.45869 2.34017 0
M  V30 29 N 2.9562 -1.48159 -0.537278 0
M  V30 30 C 3.9192 -1.61665 -1.62472 0
M  V30 31 C 4.9192 -0.490395 -1.5314 0
M  V30 32 O 6.1092 -0.755998 -1.5694 0
M  V30 33 C 3.2412 -1.57997 -3.02076 0
M  V30 34 H 4.4342 -2.58621 -1.51839 0
M  V30 35 H 1.9872 -1.36647 -0.758771 0
M  V30 36 H 2.7222 -0.624913 -3.18222 0
M  V30 37 H 2.5072 -2.39755 -3.10258 0
M  V30 38 H 3.9972 -1.70627 -3.81151 0
M  V30 39 N 4.4343 0.785586 -1.36625 0
M  V30 40 C 5.8503 1.08419 -1.17122 0
M  V30 41 C 6.0503 2.015 0.00208491 0
M  V30 42 O 5.1063 2.43551 0.666278 0
M  V30 43 C 6.4193 1.69498 -2.48377 0
M  V30 44 C 7.9673 1.81821 -2.54775 0
M  V30 45 C 8.4423 2.46315 -3.86126 0
M  V30 46 N 9.9333 2.53779 -3.87492 0
M  V30 47 C 10.6683 3.045 -4.85868 0
M  V30 48 N 10.1643 3.55499 -5.94637 0
M  V30 49 N 11.9573 3.03247 -4.73284 0
M  V30 50 H 4.1083 0.167264 -2.1174 0
M  V30 51 H 6.3713 0.13682 -0.938075 0
M  V30 52 H 6.0773 1.08571 -3.34522 0
M  V30 53 H 5.9513 2.6896 -2.64462 0
M  V30 54 H 8.3383 2.41884 -1.69045 0
M  V30 55 H 8.4193 0.811532 -2.42586 0
M  V30 56 H 8.0633 1.86895 -4.72263 0
M  V30 57 H 7.9933 3.47561 -3.95612 0
M  V30 58 H 10.4843 2.17672 -3.08913 0
M  V30 59 H 10.7973 3.92562 -6.65669 0
M  V30 60 H 9.1423 3.5364 -5.98301 0
M  V30 61 H 12.3333 2.62696 -3.87438 0
M  V30 62 H 12.5063 3.42467 -5.50109 0
M  V30 63 N 5.9124 1.20967 1.01018 0
M  V30 64 C 6.8424 0.988272 2.11555 0
M  V30 65 C 7.8234 -0.0849778 1.69888 0
M  V30 66 O 9.0084 0.0738202 1.9406 0
M  V30 67 C 6.1384 0.546528 3.42973 0
M  V30 68 C 5.0924 1.56375 3.9841 0
M  V30 69 C 4.4184 0.97842 5.25672 0
M  V30 70 C 5.7184 2.94922 4.31066 0
M  V30 71 H 7.4124 1.91276 2.30334 0
M  V30 72 H 4.9584 0.921073 1.1069 0
M  V30 73 H 6.9114 0.378839 4.19694 0
M  V30 74 H 5.6354 -0.413598 3.23971 0
M  V30 75 H 4.2944 1.71891 3.23804 0
M  V30 76 H 3.9424 0.0101688 5.02999 0
M  V30 77 H 3.6424 1.65784 5.63728 0
M  V30 78 H 5.1664 0.821939 6.05043 0
M  V30 79 H 6.5804 2.8288 4.9865 0
M  V30 80 H 4.9774 3.5983 4.80253 0
M  V30 81 H 6.0474 3.4616 3.39561 0
M  V30 82 N 7.3905 -1.2043 1.01659 0
M  V30 83 C 8.3205 -2.25466 0.607226 0
M  V30 84 C 9.3015 -1.65853 -0.377716 0
M  V30 85 O 10.4865 -1.92409 -0.263149 0
M  V30 86 C 7.6165 -3.47256 -0.0552949 0
M  V30 87 C 6.5705 -4.19462 0.850632 0
M  V30 88 C 5.8965 -5.34673 0.0538859 0
M  V30 89 C 7.1965 -4.75603 2.15868 0
M  V30 90 H 8.8905 -2.59962 1.48526 0
M  V30 91 H 6.4365 -1.2496 0.715605 0
M  V30 92 H 8.3895 -4.19917 -0.353233 0
M  V30 93 H 7.1135 -3.11924 -0.968045 0
M  V30 94 H 5.7725 -3.48667 1.13257 0
M  V30 95 H 5.4205 -4.95585 -0.860514 0
M  V30 96 H 5.1205 -5.83913 0.657192 0
M  V30 97 H 6.6445 -6.10138 -0.237598 0
M  V30 98 H 8.0585 -5.40083 1.92311 0
M  V30 99 H 6.4555 -5.3528 2.71284 0
M  V30 100 H 7.5255 -3.94346 2.82169 0
M  V30 101 N 8.8686 -0.792821 -1.36206 0
M  V30 102 C 9.8316 -0.199459 -2.2833 0
M  V30 103 C 10.8316 0.605189 -1.48977 0
M  V30 104 O 12.0216 0.425685 -1.68919 0
M  V30 105 C 9.1536 0.723523 -3.33134 0
M  V30 106 H 10.3466 -1.01181 -2.82316 0
M  V30 107 H 7.8996 -0.562485 -1.45828 0
M  V30 108 H 8.6346 1.56008 -2.84309 0
M  V30 109 H 8.4196 0.148436 -3.91819 0
M  V30 110 H 9.9096 1.13344 -4.01924 0
M  V30 111 N 10.3467 1.47872 -0.545128 0
M  V30 112 C 11.7577 1.86384 -0.108581 0
M  V30 113 C 12.1087 1.45309 1.31832 0
M  V30 114 O 11.2337 0.850641 1.9898 0
M  V30 115 C 11.8287 3.38265 -0.190274 0
M  V30 116 C 10.3877 3.75914 0.191164 0
M  V30 117 C 9.5347 2.71926 -0.543273 0
M  V30 118 H 12.4857 1.39561 -0.755537 0
M  V30 119 H 12.5067 3.75831 0.594217 0
M  V30 120 H 12.0187 3.6813 -1.2289 0
M  V30 121 H 10.1197 3.51665 1.23136 0
M  V30 122 H 10.2327 4.78836 -0.158987 0
M  V30 123 H 8.5967 2.54697 0.0122495 0
M  V30 124 H 9.3797 3.04634 -1.58282 0
M  V30 125 N 11.8248 0.280983 1.55075 0
M  V30 126 C 13.2358 -0.215629 1.85451 0
M  V30 127 C 13.5868 -1.54991 1.203 0
M  V30 128 O 12.7118 -2.10699 0.493435 0
M  V30 129 C 13.3068 -0.398026 3.36454 0
M  V30 130 C 11.8658 -0.838866 3.66933 0
M  V30 131 C 11.0128 0.064458 2.77225 0
M  V30 132 H 13.9638 0.502601 1.50531 0
M  V30 133 H 13.9848 -1.23569 3.59876 0
M  V30 134 H 13.4968 0.573241 3.83843 0
M  V30 135 H 11.5978 -1.8214 3.25048 0
M  V30 136 H 11.7108 -0.672123 4.74362 0
M  V30 137 H 10.0748 -0.452863 2.50642 0
M  V30 138 H 10.8578 1.03172 3.2743 0
M  V30 139 N 13.3029 -1.57598 0.00835791 0
M  V30 140 C 14.5509 -1.90551 -0.6734 0
M  V30 141 C 14.8719 -0.883301 -1.73847 0
M  V30 142 O 14.1419 0.0781442 -1.95744 0
M  V30 143 H 12.7219 -0.703312 -0.251717 0
M  V30 144 H 15.3839 -1.94833 0.0512592 0
M  V30 145 H 14.4799 -2.9056 -1.13935 0
M  V30 146 N 14.781 0.264519 -1.55364 0
M  V30 147 C 16.192 0.834936 -1.6699 0
M  V30 148 C 16.543 1.86718 -0.602552 0
M  V30 149 O 15.668 2.14899 0.254425 0
M  V30 150 C 16.263 1.5212 -3.02729 0
M  V30 151 C 14.822 2.03954 -3.16354 0
M  V30 152 C 13.969 0.884498 -2.62815 0
M  V30 153 H 16.92 0.0406869 -1.58648 0
M  V30 154 H 16.941 2.38853 -2.96191 0
M  V30 155 H 16.453 0.769668 -3.80392 0
M  V30 156 H 14.554 2.82041 -2.43482 0
M  V30 157 H 14.667 2.24902 -4.23032 0
M  V30 158 H 13.031 1.2802 -2.20188 0
M  V30 159 H 13.814 0.14634 -3.42988 0
M  V30 160 N 16.2591 1.48442 0.529413 0
M  V30 161 C 17.5361 1.46978 1.29062 0
M  V30 162 C 17.9161 0.181769 2.10316 0
M  V30 163 O 17.2641 -0.836481 2.12639 0
M  V30 164 C 17.4741 2.7321 2.17157 0
M  V30 165 C 18.8221 3.21562 2.77278 0
M  V30 166 O 19.8461 2.74131 2.27444 0
M  V30 167 O 18.7051 4.04094 3.67927 0
M  V30 168 H 15.7991 0.587003 0.582543 0
M  V30 169 H 18.3451 1.60676 0.546021 0
M  V30 170 H 17.1171 3.58465 1.56903 0
M  V30 171 H 16.7401 2.62235 2.98862 0
M  V30 172 N 17.7372 -0.778329 1.37039 0
M  V30 173 C 18.9622 -1.57248 1.35233 0
M  V30 174 C 19.3872 -1.87999 -0.0615568 0
M  V30 175 O 18.7452 -1.48734 -1.03672 0
M  V30 176 C 18.7932 -2.86353 2.19167 0
M  V30 177 O 17.8972 -3.80442 1.59178 0
M  V30 178 H 17.2382 -0.476569 0.462362 0
M  V30 179 H 19.7682 -0.963853 1.80474 0
M  V30 180 H 19.7782 -3.35519 2.32145 0
M  V30 181 H 18.4532 -2.63299 3.21942 0
M  V30 182 H 17.0302 -3.39067 1.55203 0
M  V30 183 N 19.2153 -1.21501 -1.00376 0
M  V30 184 C 20.4623 -1.03299 -1.74171 0
M  V30 185 C 20.7903 0.433326 -1.89612 0
M  V30 186 O 20.0453 1.33779 -1.42834 0
M  V30 187 C 20.3443 -1.67673 -3.15627 0
M  V30 188 C 20.0103 -3.17533 -3.2013 0
M  V30 189 C 18.6723 -3.58427 -3.21067 0
M  V30 190 C 21.0243 -4.13504 -3.17275 0
M  V30 191 C 18.3523 -4.93794 -3.16835 0
M  V30 192 C 20.7043 -5.48834 -3.14585 0
M  V30 193 C 19.3683 -5.89123 -3.13831 0
M  V30 194 H 18.6383 -0.377999 -0.637336 0
M  V30 195 H 21.2853 -1.51111 -1.17634 0
M  V30 196 H 19.5903 -1.12158 -3.75404 0
M  V30 197 H 21.2873 -1.51091 -3.71446 0
M  V30 198 H 17.8773 -2.84965 -3.20145 0
M  V30 199 H 22.0613 -3.82936 -3.15711 0
M  V30 200 H 17.3173 -5.24255 -3.1459 0
M  V30 201 H 21.4913 -6.22934 -3.1133 0
M  V30 202 H 19.1183 -6.93984 -3.10307 0
M  V30 203 N 20.6934 1.19889 -1.02296 0
M  V30 204 C 21.6404 2.22901 -0.598651 0
M  V30 205 C 22.6104 1.61588 0.384521 0
M  V30 206 O 23.7954 1.88697 0.282522 0
M  V30 207 C 20.9354 3.45063 0.0504476 0
M  V30 208 C 20.0484 4.20783 -0.978053 0
M  V30 209 C 19.1834 5.30356 -0.299338 0
M  V30 210 C 18.2224 5.97826 -1.31416 0
M  V30 211 N 17.3594 6.98975 -0.661667 0
M  V30 212 H 22.1994 2.58554 -1.48169 0
M  V30 213 H 19.7364 1.27039 -0.741584 0
M  V30 214 H 21.6944 4.14831 0.443971 0
M  V30 215 H 20.3244 3.10084 0.897097 0
M  V30 216 H 19.3764 3.50018 -1.48969 0
M  V30 217 H 20.6884 4.67109 -1.74958 0
M  V30 218 H 19.8424 6.06516 0.149347 0
M  V30 219 H 18.5814 4.85084 0.504445 0
M  V30 220 H 17.5864 5.20422 -1.77317 0
M  V30 221 H 18.8114 6.45183 -2.11933 0
M  V30 222 H 16.7574 6.55886 0.122132 0
M  V30 223 H 16.6744 7.43461 -1.37117 0
M  V30 224 H 17.9424 7.7914 -0.236785 0
M  V30 225 N 22.1715 0.800033 1.35784 0
M  V30 226 C 23.5825 0.439142 1.81462 0
M  V30 227 C 23.9335 -1.03813 1.66485 0
M  V30 228 O 23.0585 -1.80626 1.19177 0
M  V30 229 C 23.6535 0.790314 3.29453 0
M  V30 230 C 22.2125 0.482111 3.733 0
M  V30 231 C 21.3595 1.01938 2.57883 0
M  V30 232 H 24.3105 0.992254 1.23855 0
M  V30 233 H 24.3315 0.0853677 3.80404 0
M  V30 234 H 23.8435 1.86554 3.40322 0
M  V30 235 H 21.9445 -0.584652 3.67984 0
M  V30 236 H 22.0575 1.01015 4.6833 0
M  V30 237 H 20.4215 0.442043 2.50835 0
M  V30 238 H 21.2045 2.10059 2.71533 0
M  V30 239 N 23.6496 -1.47581 0.552962 0
M  V30 240 C 24.8966 -2.02482 0.0273243 0
M  V30 241 C 25.2246 -1.42776 -1.32081 0
M  V30 242 O 24.4796 -0.571393 -1.87173 0
M  V30 243 C 24.7786 -3.57199 -0.119728 0
M  V30 244 C 24.4446 -4.35804 1.15697 0
M  V30 245 C 23.1066 -4.57 1.50681 0
M  V30 246 C 25.4586 -4.81167 2.00319 0
M  V30 247 C 22.7866 -5.20807 2.70142 0
M  V30 248 C 25.1386 -5.46293 3.18978 0
M  V30 249 C 23.8026 -5.65722 3.54281 0
M  V30 250 H 23.0726 -0.740933 0.00999866 0
M  V30 251 H 25.7196 -1.77302 0.72362 0
M  V30 252 H 24.0246 -3.81348 -0.89896 0
M  V30 253 H 25.7216 -3.97324 -0.541718 0
M  V30 254 H 22.3116 -4.19582 0.874561 0
M  V30 255 H 26.4956 -4.64574 1.74599 0
M  V30 256 H 21.7516 -5.34045 2.97668 0
M  V30 257 H 25.9256 -5.80407 3.84838 0
M  V30 258 H 23.5526 -6.14936 4.46942 0
M  V30 259 N 25.1277 -0.289203 -1.54924 0
M  V30 260 C 26.3557 0.326463 -2.04308 0
M  V30 261 C 26.7707 1.48413 -1.16701 0
M  V30 262 O 26.1277 1.81507 -0.190087 0
M  V30 263 C 26.1787 0.794014 -3.52672 0
M  V30 264 O 25.8997 -0.317564 -4.36948 0
M  V30 265 C 27.4007 1.47605 -4.18004 0
M  V30 266 H 24.6207 0.0726272 -0.667058 0
M  V30 267 H 27.1647 -0.425401 -2.00026 0
M  V30 268 H 25.3197 1.49593 -3.57352 0
M  V30 269 H 25.7337 0.0443186 -5.24481 0
M  V30 270 H 27.2077 1.75447 -5.23376 0
M  V30 271 H 27.6847 2.41224 -3.67025 0
M  V30 272 H 28.2907 0.81762 -4.17367 0
M  V30 273 N 26.6058 1.57591 -0.0167156 0
M  V30 274 C 28.0168 1.79201 0.523834 0
M  V30 275 C 28.3678 0.925796 1.72984 0
M  V30 276 O 27.4928 0.132792 2.15992 0
M  V30 277 C 28.0878 3.25 0.957091 0
M  V30 278 C 26.6468 3.47648 1.44283 0
M  V30 279 C 25.7938 2.74374 0.401757 0
M  V30 280 H 28.7448 1.56831 -0.242816 0
M  V30 281 H 28.7658 3.34031 1.82219 0
M  V30 282 H 28.2778 3.88019 0.0791415 0
M  V30 283 H 26.3788 2.89866 2.34113 0
M  V30 284 H 26.4918 4.56352 1.45877 0
M  V30 285 H 24.8558 2.39485 0.867121 0
M  V30 286 H 25.6388 3.40102 -0.467513 0
M  V30 287 N 28.0839 -0.256276 1.55502 0
M  V30 288 C 28.9939 -1.33882 1.92647 0
M  V30 289 C 30.0099 -1.53159 0.825727 0
M  V30 290 O 31.1859 -1.66963 1.12629 0
M  V30 291 C 28.2509 -2.6751 2.20543 0
M  V30 292 C 27.3119 -2.56836 3.43997 0
M  V30 293 C 26.5449 -3.84092 3.70553 0
M  V30 294 O 26.7679 -4.85545 2.99336 0
M  V30 295 O 25.7019 -3.83288 4.64084 0
M  V30 296 H 29.5279 -1.05374 2.84833 0
M  V30 297 H 27.1129 -0.456237 1.42263 0
M  V30 298 H 28.9949 -3.46492 2.39835 0
M  V30 299 H 27.6699 -2.9577 1.31536 0
M  V30 300 H 26.5769 -1.76172 3.30021 0
M  V30 301 H 27.9099 -2.33523 4.33275 0
M  V30 302 N 29.562 -1.4872 -0.521534 0
M  V30 303 C 30.787 -1.61101 -1.30618 0
M  V30 304 C 31.212 -0.274611 -1.86085 0
M  V30 305 O 30.57 0.754937 -1.64834 0
M  V30 306 C 30.618 -2.66709 -2.4269 0
M  V30 307 O 29.722 -2.24456 -3.45967 0
M  V30 308 H 29.063 -0.539921 -0.386499 0
M  V30 309 H 31.593 -1.94767 -0.626645 0
M  V30 310 H 31.603 -2.88245 -2.88754 0
M  V30 311 H 30.278 -3.63727 -2.01682 0
M  V30 312 H 28.855 -2.13168 -3.05964 0
M  V30 313 N 31.0401 0.771051 -1.3745 0
M  V30 314 C 31.9701 1.89827 -1.3597 0
M  V30 315 C 32.9511 1.68562 -0.228216 0
M  V30 316 O 34.1361 1.8941 -0.428675 0
M  V30 317 C 31.2661 3.2712 -1.16662 0
M  V30 318 C 30.2201 3.6295 -2.2683 0
M  V30 319 C 29.5461 4.98791 -1.92644 0
M  V30 320 C 30.8461 3.69627 -3.69017 0
M  V30 321 H 32.5401 1.91323 -2.30295 0
M  V30 322 H 30.0861 0.919082 -1.10855 0
M  V30 323 H 32.0391 4.05615 -1.14256 0
M  V30 324 H 30.7631 3.26059 -0.187926 0
M  V30 325 H 29.4221 2.86763 -2.28392 0
M  V30 326 H 29.0701 4.94271 -0.933021 0
M  V30 327 H 28.7701 5.23733 -2.66416 0
M  V30 328 H 30.2941 5.79685 -1.91826 0
M  V30 329 H 31.7081 4.38273 -3.69581 0
M  V30 330 H 30.1051 4.06067 -4.41848 0
M  V30 331 H 31.1751 2.70273 -4.02592 0
M  V30 332 N 32.5182 1.22032 0.997298 0
M  V30 333 C 33.4812 0.987909 2.06816 0
M  V30 334 C 34.4812 -0.0440084 1.6074 0
M  V30 335 O 35.6712 0.194053 1.73116 0
M  V30 336 C 32.8032 0.49132 3.37341 0
M  V30 337 H 33.9962 1.93803 2.28868 0
M  V30 338 H 31.5492 1.03838 1.16822 0
M  V30 339 H 32.2842 -0.463364 3.20973 0
M  V30 340 H 32.0692 1.23575 3.72118 0
M  V30 341 H 33.5592 0.348824 4.16141 0
M  V30 342 N 33.9963 -1.19345 1.0293 0
M  V30 343 C 34.9443 -2.24621 0.604001 0
M  V30 344 C 35.9383 -1.65452 -0.363587 0
M  V30 345 O 37.1443 -1.78497 -0.23212 0
M  V30 346 H 33.5193 -0.730858 0.177061 0
M  V30 347 H 35.4903 -2.5781 1.50255 0
M  V30 348 C 34.2393 -3.47688 -0.0289127 0
M  V30 349 H 33.5623 -3.93505 0.706651 0
M  V30 350 H 35.0023 -4.23011 -0.289432 0
M  V30 351 C 33.4613 -3.11817 -1.2756 0
M  V30 352 O 33.9913 -3.2451 -2.36762 0
M  V30 353 N 32.1973 -2.66246 -1.16453 0
M  V30 354 H 31.7443 -2.56118 -0.275914 0
M  V30 355 H 31.7023 -2.42617 -1.99961 0
M  V30 356 N 35.4744 -0.807222 -1.35358 0
M  V30 357 C 36.7234 -0.384376 -1.98004 0
M  V30 358 C 37.0364 1.0543 -1.64754 0
M  V30 359 O 38.2424 1.58029 -2.20769 0
M  V30 360 C 36.6984 -0.636326 -3.5423 0
M  V30 361 C 36.3064 -2.08759 -3.96388 0
M  V30 362 C 38.0504 -0.278869 -4.23583 0
M  V30 363 C 35.9574 -2.28525 -5.45463 0
M  V30 364 H 34.8874 -0.139986 -0.740891 0
M  V30 365 H 37.5384 -0.991369 -1.54415 0
M  V30 366 H 35.9204 0.0406256 -3.95979 0
M  V30 367 H 37.0944 -2.8024 -3.6579 0
M  V30 368 H 35.4094 -2.40497 -3.39926 0
M  V30 369 H 38.0064 -0.404599 -5.33167 0
M  V30 370 H 38.3494 0.775012 -4.09022 0
M  V30 371 H 38.8824 -0.909764 -3.87257 0
M  V30 372 H 35.6214 -3.32361 -5.64992 0
M  V30 373 H 35.1414 -1.61569 -5.77629 0
M  V30 374 H 36.8204 -2.10109 -6.11934 0
M  V30 375 N 36.9525 1.47285 -0.560781 0
M  V30 376 C 37.8625 2.33846 0.187954 0
M  V30 377 C 38.8785 1.48412 0.908293 0
M  V30 378 O 40.0545 1.81332 0.876388 0
M  V30 379 C 37.1195 3.25178 1.2025 0
M  V30 380 C 36.1805 4.26504 0.489208 0
M  V30 381 C 35.4135 5.13472 1.45542 0
M  V30 382 O 35.6365 5.02959 2.6905 0
M  V30 383 O 34.5705 5.93902 0.977963 0
M  V30 384 H 38.3965 2.99177 -0.522177 0
M  V30 385 H 35.9815 1.45903 -0.321364 0
M  V30 386 H 37.8635 3.81584 1.78805 0
M  V30 387 H 36.5385 2.6247 1.89449 0
M  V30 388 H 35.4455 3.73847 -0.137627 0
M  V30 389 H 36.7785 4.91935 -0.161399 0
M  V30 390 N 38.4306 0.297415 1.54768 0
M  V30 391 C 39.8466 -0.0560823 1.59501 0
M  V30 392 C 40.0466 -1.52725 1.31444 0
M  V30 393 O 39.1026 -2.27947 1.08611 0
M  V30 394 C 40.4156 0.338631 2.98787 0
M  V30 395 C 41.9636 0.287097 3.11681 0
M  V30 396 C 42.4386 0.656579 4.53269 0
M  V30 397 N 43.9296 0.608977 4.59179 0
M  V30 398 C 44.6646 0.867385 5.66802 0
M  V30 399 N 44.1606 1.19157 6.82476 0
M  V30 400 N 45.9536 0.794687 5.56454 0
M  V30 401 H 38.1046 1.25624 1.71267 0
M  V30 402 H 40.3676 0.509057 0.799728 0
M  V30 403 H 40.0736 1.36263 3.2423 0
M  V30 404 H 39.9476 -0.309508 3.75928 0
M  V30 405 H 42.3346 -0.727649 2.85988 0
M  V30 406 H 42.4156 0.969809 2.36703 0
M  V30 407 H 42.0596 1.66912 4.7969 0
M  V30 408 H 41.9896 -0.0481649 5.26578 0
M  V30 409 H 44.4806 0.369198 3.76092 0
M  V30 410 H 44.7936 1.37482 7.60473 0
M  V30 411 H 43.1386 1.22958 6.84037 0
M  V30 412 H 46.3296 0.541098 4.64962 0
M  V30 413 H 46.5026 0.999445 6.40246 0
M  V30 414 N 39.9087 -1.5758 0.0250728 0
M  V30 415 C 41.3247 -1.56124 -0.331282 0
M  V30 416 C 41.5247 -1.03029 -1.73169 0
M  V30 417 O 40.5807 -0.675215 -2.43305 0
M  V30 418 C 41.8937 -3.00139 -0.183584 0
M  V30 419 C 43.4417 -3.11946 -0.256654 0
M  V30 420 C 43.9167 -4.57793 -0.137792 0
M  V30 421 N 45.4077 -4.6279 -0.194904 0
M  V30 422 C 46.1427 -5.7326 -0.126655 0
M  V30 423 N 45.6387 -6.928 -0.00755288 0
M  V30 424 N 47.4317 -5.61811 -0.180348 0
M  V30 425 H 39.5827 -1.90424 0.94087 0
M  V30 426 H 41.8457 -0.875761 0.362968 0
M  V30 427 H 41.5517 -3.4292 0.780927 0
M  V30 428 H 41.4257 -3.64899 -0.955448 0
M  V30 429 H 43.8127 -2.69079 -1.21162 0
M  V30 430 H 43.8937 -2.49915 0.545517 0
M  V30 431 H 43.5377 -5.01339 0.813739 0
M  V30 432 H 43.4677 -5.17798 -0.958775 0
M  V30 433 H 45.9587 -3.76807 -0.287267 0
M  V30 434 H 46.2717 -7.72791 0.0379428 0
M  V30 435 H 44.6167 -6.94995 0.0271731 0
M  V30 436 H 47.8077 -4.6731 -0.271767 0
M  V30 437 H 47.9807 -6.47882 -0.123697 0
M  V30 438 N 41.3868 0.248026 -1.55636 0
M  V30 439 C 42.6358 0.974134 -1.76617 0
M  V30 440 C 42.9488 1.86528 -0.588796 0
M  V30 441 O 44.1548 2.62805 -0.681594 0
M  V30 442 C 42.6108 1.78213 -3.12679 0
M  V30 443 C 42.2188 0.93843 -4.38061 0
M  V30 444 C 43.9628 2.50104 -3.42999 0
M  V30 445 C 41.8698 1.74225 -5.65155 0
M  V30 446 H 40.7998 0.36745 -0.658405 0
M  V30 447 H 43.4508 0.22884 -1.82067 0
M  V30 448 H 41.8328 2.56933 -3.01333 0
M  V30 449 H 43.0068 0.193635 -4.60393 0
M  V30 450 H 41.3218 0.332905 -4.15067 0
M  V30 451 H 43.9188 3.10694 -4.3517 0
M  V30 452 H 44.2618 3.21662 -2.64271 0
M  V30 453 H 44.7948 1.78395 -3.55556 0
M  V30 454 H 41.5338 1.07043 -6.46701 0
M  V30 455 H 41.0538 2.46235 -5.46926 0
M  V30 456 H 42.7328 2.30967 -6.0437 0
M  V30 457 N 42.8649 1.48995 0.513639 0
M  V30 458 C 43.8279 1.64229 1.59879 0
M  V30 459 C 44.8279 0.514696 1.5234 0
M  V30 460 O 46.0179 0.78087 1.55718 0
M  V30 461 C 43.1499 1.62783 2.99524 0
M  V30 462 H 44.3429 2.61004 1.47705 0
M  V30 463 H 41.8959 1.37837 0.736936 0
M  V30 464 H 42.6309 0.675461 3.17188 0
M  V30 465 H 42.4159 2.4466 3.06404 0
M  V30 466 H 43.9059 1.76669 3.78388 0
M  V30 467 N 44.343 -0.763751 1.37857 0
M  V30 468 C 45.253 -1.90817 1.36478 0
M  V30 469 C 46.269 -1.71997 0.263248 0
M  V30 470 O 47.445 -1.95095 0.499979 0
M  V30 471 C 44.51 -3.2605 1.17864 0
M  V30 472 C 43.571 -3.57467 2.3773 0
M  V30 473 C 42.804 -4.86249 2.19995 0
M  V30 474 O 43.027 -5.57884 1.18836 0
M  V30 475 O 41.961 -5.16911 3.08361 0
M  V30 476 H 45.787 -1.94933 2.32884 0
M  V30 477 H 43.372 -0.907619 1.1867 0
M  V30 478 H 45.254 -4.06924 1.09504 0
M  V30 479 H 43.929 -3.22769 0.245372 0
M  V30 480 H 42.836 -2.76796 2.51664 0
M  V30 481 H 44.169 -3.655 3.29652 0
M  V30 482 N 45.8211 -1.22559 -0.990812 0
M  V30 483 C 47.0461 -1.07862 -1.77145 0
M  V30 484 C 47.4711 0.366447 -1.84496 0
M  V30 485 O 46.8291 1.26478 -1.29896 0
M  V30 486 C 46.8771 -1.69686 -3.18181 0
M  V30 487 O 45.9811 -0.951946 -4.01263 0
M  V30 488 H 45.3221 -0.378712 -0.545411 0
M  V30 489 H 47.8521 -1.62399 -1.2445 0
M  V30 490 H 47.8621 -1.74496 -3.68802 0
M  V30 491 H 46.5371 -2.74841 -3.12146 0
M  V30 492 H 45.1141 -0.980011 -3.59792 0
M  V30 493 N 47.2992 1.18797 -1.03562 0
M  V30 494 C 48.2462 2.22253 -0.622259 0
M  V30 495 C 49.2162 1.61987 0.36736 0
M  V30 496 O 50.4012 1.88986 0.262492 0
M  V30 497 C 47.5412 3.45097 0.0138462 0
M  V30 498 C 46.6542 4.19722 -1.02263 0
M  V30 499 C 45.7892 5.30009 -0.355573 0
M  V30 500 C 44.8282 5.96399 -1.37749 0
M  V30 501 N 43.9652 6.98234 -0.735766 0
M  V30 502 H 48.8052 2.56968 -1.50903 0
M  V30 503 H 46.3422 1.26245 -0.755017 0
M  V30 504 H 48.3002 4.15279 0.399948 0
M  V30 505 H 46.9302 3.11018 0.864158 0
M  V30 506 H 45.9822 3.48418 -1.52673 0
M  V30 507 H 47.2942 4.65227 -1.79903 0
M  V30 508 H 46.4482 6.0664 0.0850095 0
M  V30 509 H 45.1872 4.85592 0.452967 0
M  V30 510 H 44.1922 5.18512 -1.82826 0
M  V30 511 H 45.4172 6.42899 -2.18764 0
M  V30 512 H 43.3632 6.55979 0.0525597 0
M  V30 513 H 43.2802 7.41965 -1.44995 0
M  V30 514 H 44.5482 7.78845 -0.31941 0
M  V30 515 N 48.7773 0.814389 1.34928 0
M  V30 516 C 49.7073 0.244827 2.32213 0
M  V30 517 C 50.6883 -0.634024 1.57842 0
M  V30 518 O 51.8733 -0.562676 1.8587 0
M  V30 519 C 49.0033 -0.601106 3.42058 0
M  V30 520 C 47.9573 0.179896 4.27622 0
M  V30 521 C 47.2833 -0.788237 5.28858 0
M  V30 522 C 48.5833 1.38329 5.03649 0
M  V30 523 H 50.2773 1.05763 2.80097 0
M  V30 524 H 47.8233 0.510029 1.34665 0
M  V30 525 H 49.7763 -1.00968 4.09125 0
M  V30 526 H 48.5003 -1.44688 2.92802 0
M  V30 527 H 47.1593 0.569739 3.62146 0
M  V30 528 H 46.8073 -1.62973 4.75866 0
M  V30 529 H 46.5073 -0.269942 5.8698 0
M  V30 530 H 48.0313 -1.19485 5.98795 0
M  V30 531 H 49.4453 1.04918 5.63618 0
M  V30 532 H 47.8423 1.83662 5.71304 0
M  V30 533 H 48.9123 2.16592 4.33839 0
M  V30 534 N 50.2554 -1.46986 0.568584 0
M  V30 535 C 51.2024 -2.30153 -0.172707 0
M  V30 536 C 52.1724 -1.39759 -0.897586 0
M  V30 537 O 53.3574 -1.68716 -0.891044 0
M  V30 538 C 50.4974 -3.23952 -1.1895 0
M  V30 539 C 49.6104 -4.29441 -0.469517 0
M  V30 540 C 48.7454 -5.1038 -1.47259 0
M  V30 541 C 47.7844 -6.07632 -0.738225 0
M  V30 542 N 46.9214 -6.8149 -1.68868 0
M  V30 543 H 51.7614 -2.93019 0.542596 0
M  V30 544 H 49.2984 -1.44422 0.279401 0
M  V30 545 H 51.2564 -3.76767 -1.79173 0
M  V30 546 H 49.8864 -2.62926 -1.87269 0
M  V30 547 H 48.9384 -3.79594 0.247467 0
M  V30 548 H 50.2504 -4.98689 0.105241 0
M  V30 549 H 49.4044 -5.67402 -2.14803 0
M  V30 550 H 48.1434 -4.4106 -2.08128 0
M  V30 551 H 47.1484 -5.49778 -0.0489293 0
M  V30 552 H 48.3734 -6.78966 -0.135129 0
M  V30 553 H 46.3194 -6.14891 -2.28573 0
M  V30 554 H 46.2364 -7.46948 -1.16636 0
M  V30 555 H 47.5044 -7.43078 -2.3549 0
M  V30 556 N 51.7335 -0.305618 -1.54608 0
M  V30 557 C 52.6805 0.568421 -2.23691 0
M  V30 558 C 53.6505 1.12592 -1.22116 0
M  V30 559 O 54.8355 1.16959 -1.50749 0
M  V30 560 C 51.9755 1.7322 -2.98477 0
M  V30 561 C 51.0885 1.20566 -4.14835 0
M  V30 562 C 50.2235 2.33368 -4.77193 0
M  V30 563 C 49.2625 1.7787 -5.85686 0
M  V30 564 N 48.3995 2.84263 -6.4198 0
M  V30 565 H 53.2395 -0.0272867 -2.97988 0
M  V30 566 H 50.7765 -0.0252363 -1.47078 0
M  V30 567 H 52.7345 2.41675 -3.40072 0
M  V30 568 H 51.3645 2.29947 -2.26548 0
M  V30 569 H 50.4165 0.413223 -3.78149 0
M  V30 570 H 51.7285 0.759417 -4.92985 0
M  V30 571 H 50.8825 3.09761 -5.21664 0
M  V30 572 H 49.6215 2.8132 -3.98385 0
M  V30 573 H 48.6265 0.99968 -5.40635 0
M  V30 574 H 49.8515 1.30816 -6.66381 0
M  V30 575 H 47.7975 3.31541 -5.66053 0
M  V30 576 H 47.7145 2.44149 -7.15491 0
M  V30 577 H 48.9825 3.6054 -6.91109 0
M  V30 578 N 53.2116 1.57565 -0.0334293 0
M  V30 579 C 54.6226 1.79746 0.504798 0
M  V30 580 C 54.9736 0.944091 1.71992 0
M  V30 581 O 54.0986 0.155694 2.15839 0
M  V30 582 C 54.6936 3.25997 0.922567 0
M  V30 583 C 53.2526 3.49159 1.40588 0
M  V30 584 C 52.3996 2.74785 0.372633 0
M  V30 585 H 55.3506 1.56565 -0.259436 0
M  V30 586 H 55.3716 3.35945 1.78666 0
M  V30 587 H 54.8836 3.88081 0.0379825 0
M  V30 588 H 52.9846 2.92332 2.31025 0
M  V30 589 H 53.0976 4.57873 1.41028 0
M  V30 590 H 51.4616 2.40391 0.841672 0
M  V30 591 H 52.2446 3.39587 -0.503559 0
M  V30 592 N 54.6897 -0.239769 1.55765 0
M  V30 593 C 56.1007 -0.808263 1.68297 0
M  V30 594 C 56.4517 -1.85736 0.632181 0
M  V30 595 O 55.5767 -2.15277 -0.220204 0
M  V30 596 C 56.1717 -1.47284 3.05111 0
M  V30 597 C 54.7307 -1.98895 3.19559 0
M  V30 598 C 53.8777 -0.842575 2.64189 0
M  V30 599 H 56.8287 -0.0154422 1.58692 0
M  V30 600 H 56.8497 -2.34111 2.99954 0
M  V30 601 H 56.3617 -0.709053 3.81568 0
M  V30 602 H 54.4627 -2.78132 2.47938 0
M  V30 603 H 54.5757 -2.18143 4.26556 0
M  V30 604 H 52.9397 -1.24501 2.22197 0
M  V30 605 H 53.7227 -0.0917552 3.43177 0
M  V30 606 N 56.1678 -1.49265 -0.50573 0
M  V30 607 C 57.1148 -1.65585 -1.6078 0
M  V30 608 C 58.0848 -0.497396 -1.58478 0
M  V30 609 O 59.2698 -0.72385 -1.76536 0
M  V30 610 C 56.4098 -1.72408 -2.98948 0
M  V30 611 C 55.5228 -2.99525 -3.11301 0
M  V30 612 C 54.6578 -2.97356 -4.40174 0
M  V30 613 C 53.6968 -4.19074 -4.46143 0
M  V30 614 N 52.8338 -4.14841 -5.66437 0
M  V30 615 H 57.6738 -2.59688 -1.46172 0
M  V30 616 H 55.2108 -1.28761 -0.711261 0
M  V30 617 H 57.1688 -1.74344 -3.79025 0
M  V30 618 H 55.7988 -0.817753 -3.1227 0
M  V30 619 H 54.8508 -3.07222 -2.24318 0
M  V30 620 H 56.1628 -3.89518 -3.11572 0
M  V30 621 H 55.3168 -2.97829 -5.28567 0
M  V30 622 H 54.0558 -2.05133 -4.42461 0
M  V30 623 H 53.0608 -4.1885 -3.56153 0
M  V30 624 H 54.2858 -5.12483 -4.45575 0
M  V30 625 H 52.2318 -3.25453 -5.69575 0
M  V30 626 H 52.1488 -4.98564 -5.68304 0
M  V30 627 H 53.4168 -4.1941 -6.57051 0
M  V30 628 N 57.6459 0.756429 -1.3826 0
M  V30 629 C 58.6089 1.85176 -1.35065 0
M  V30 630 C 59.6089 1.58818 -0.251703 0
M  V30 631 O 60.7989 1.66615 -0.508433 0
M  V30 632 C 57.9309 3.22596 -1.10201 0
M  V30 633 H 59.1239 1.89417 -2.3251 0
M  V30 634 H 56.6769 0.95783 -1.23512 0
M  V30 635 H 57.4119 3.24025 -0.133504 0
M  V30 636 H 57.1969 3.43122 -1.89762 0
M  V30 637 H 58.6869 4.02673 -1.10654 0
M  V30 638 N 59.124 1.23083 0.984299 0
M  V30 639 C 60.401 0.9689 1.69917 0
M  V30 640 C 60.781 -0.513604 2.04757 0
M  V30 641 O 60.129 -1.48383 1.73767 0
M  V30 642 C 60.339 1.87518 2.94343 0
M  V30 643 C 61.687 2.13636 3.6694 0
M  V30 644 O 62.711 1.85036 3.04368 0
M  V30 645 O 61.57 2.62119 4.79537 0
M  V30 646 H 58.664 0.365095 0.742048 0
M  V30 647 H 61.21 1.34107 1.03987 0
M  V30 648 H 59.982 2.87756 2.65164 0
M  V30 649 H 59.605 1.50514 3.6801 0
M  V30 650 N 60.6021 -1.18246 1.0419 0
M  V30 651 C 61.8501 -1.87886 0.744543 0
M  V30 652 C 62.1711 -1.8082 -0.730006 0
M  V30 653 O 61.4411 -1.22736 -1.52685 0
M  V30 654 H 60.0211 -0.695556 0.272417 0
M  V30 655 H 62.6831 -1.43494 1.31892 0
M  V30 656 H 61.7791 -2.9389 1.05049 0
M  V30 657 N 62.0802 -0.821533 -1.34494 0
M  V30 658 C 63.3052 -0.420873 -2.03085 0
M  V30 659 C 63.7302 0.964915 -1.61465 0
M  V30 660 O 63.0882 1.62763 -0.798607 0
M  V30 661 C 63.1362 -0.529414 -3.56693 0
M  V30 662 O 62.2402 0.451302 -4.09923 0
M  V30 663 H 61.5812 -0.173489 -0.640935 0
M  V30 664 H 64.1112 -1.11157 -1.71771 0
M  V30 665 H 64.1212 -0.404671 -4.05988 0
M  V30 666 H 62.7962 -1.54014 -3.86332 0
M  V30 667 H 61.3732 0.285558 -3.71805 0
M  V30 668 N 63.5583 1.46682 -0.576371 0
M  V30 669 C 64.5083 2.27278 0.181288 0
M  V30 670 C 65.4923 1.35497 0.867721 0
M  V30 671 O 66.6843 1.59717 0.762863 0
M  V30 672 C 63.8133 3.21703 1.19841 0
M  V30 673 C 62.8993 4.20969 0.51442 0
M  V30 674 N 63.2903 5.03999 -0.426407 0
M  V30 675 C 61.5883 4.39373 0.765963 0
M  V30 676 C 62.2893 5.75812 -0.825565 0
M  V30 677 N 61.2653 5.43315 -0.176116 0
M  V30 678 H 65.0673 2.88863 -0.541785 0
M  V30 679 H 62.5813 1.57455 -0.397697 0
M  V30 680 H 64.5783 3.78145 1.75533 0
M  V30 681 H 63.2383 2.61677 1.92238 0
M  V30 682 H 64.2493 5.11659 -0.8016 0
M  V30 683 H 60.9263 3.90502 1.47698 0
M  V30 684 H 62.3163 6.52577 -1.59976 0
M  V30 685 N 65.0364 0.313813 1.54444 0
M  V30 686 C 66.4524 -0.0391619 1.59552 0
M  V30 687 C 66.6524 -1.51322 1.33056 0
M  V30 688 O 65.7084 -2.26782 1.11022 0
M  V30 689 C 67.0214 0.370302 2.98411 0
M  V30 690 C 68.5694 0.320139 3.11358 0
M  V30 691 C 69.0444 0.704617 4.52547 0
M  V30 692 N 70.5354 0.657645 4.58508 0
M  V30 693 C 71.2704 0.927453 5.6585 0
M  V30 694 N 70.7664 1.26389 6.81174 0
M  V30 695 N 72.5594 0.853662 5.5558 0
M  V30 696 H 64.7104 1.27433 1.69925 0
M  V30 697 H 66.9734 0.517511 0.794284 0
M  V30 698 H 66.6794 1.39694 3.22767 0
M  V30 699 H 66.5534 -0.269619 3.76235 0
M  V30 700 H 68.9404 -0.697275 2.86744 0
M  V30 701 H 69.0214 0.99486 2.35661 0
M  V30 702 H 68.6654 1.7199 4.77893 0
M  V30 703 H 68.5954 0.00768843 5.26599 0
M  V30 704 H 71.0864 0.409067 3.75679 0
M  V30 705 H 71.3994 1.4554 7.58972 0
M  V30 706 H 69.7444 1.30206 6.82694 0
M  V30 707 H 72.9354 0.590383 4.64362 0
M  V30 708 H 73.1084 1.0673 6.3915 0
M  V30 709 N 66.5145 -1.57545 0.0417849 0
M  V30 710 C 67.4245 -2.14451 -0.951213 0
M  V30 711 C 68.4405 -1.09992 -1.34825 0
M  V30 712 O 69.6165 -1.42114 -1.42708 0
M  V30 713 C 66.6815 -2.67063 -2.21084 0
M  V30 714 C 65.7425 -3.86284 -1.87304 0
M  V30 715 C 64.9755 -4.36378 -3.07261 0
M  V30 716 O 65.1985 -3.85587 -4.20332 0
M  V30 717 O 64.1325 -5.28077 -2.88822 0
M  V30 718 H 67.9585 -2.99601 -0.497287 0
M  V30 719 H 65.5435 -1.48317 -0.179567 0
M  V30 720 H 67.4255 -3.00914 -2.95006 0
M  V30 721 H 66.1005 -1.84989 -2.65633 0
M  V30 722 H 65.0075 -3.57338 -1.10727 0
M  V30 723 H 66.3405 -4.6956 -1.47562 0
M  V30 724 N 67.9926 0.231505 -1.5589 0
M  V30 725 C 69.2696 0.981096 -1.69215 0
M  V30 726 C 69.6496 2.02799 -0.586164 0
M  V30 727 O 68.9976 2.24823 0.408253 0
M  V30 728 C 69.2076 1.60054 -3.10135 0
M  V30 729 C 70.5556 2.09658 -3.69227 0
M  V30 730 O 71.5796 1.69967 -3.13033 0
M  V30 731 O 70.4386 2.8258 -4.67772 0
M  V30 732 H 67.5326 0.457653 -0.688827 0
M  V30 733 H 70.0786 0.224073 -1.68214 0
M  V30 734 H 68.8506 0.844105 -3.82087 0
M  V30 735 H 68.4736 2.42336 -3.15212 0
M  V30 736 N 69.4707 1.49531 0.497807 0
M  V30 737 C 70.7477 1.49682 1.25915 0
M  V30 738 C 71.1277 0.226339 2.09883 0
M  V30 739 O 70.4757 -0.791189 2.14365 0
M  V30 740 C 70.6857 2.77755 2.11313 0
M  V30 741 C 72.0337 3.27371 2.70395 0
M  V30 742 O 73.0577 2.78894 2.21578 0
M  V30 743 O 71.9167 4.11808 3.59272 0
M  V30 744 H 69.0107 0.599228 0.56996 0
M  V30 745 H 71.5567 1.61798 0.511816 0
M  V30 746 H 70.3287 3.61713 1.49264 0
M  V30 747 H 69.9517 2.68515 2.93233 0
M  V30 748 N 70.9488 -0.749086 1.3866 0
M  V30 749 C 71.8588 -1.89358 1.38494 0
M  V30 750 C 72.8748 -1.71708 0.281476 0
M  V30 751 O 74.0508 -1.94554 0.520643 0
M  V30 752 C 71.1158 -3.24782 1.21316 0
M  V30 753 C 70.1768 -3.54926 2.41508 0
M  V30 754 C 69.4098 -4.83888 2.2514 0
M  V30 755 O 69.6328 -5.56592 1.24746 0
M  V30 756 O 68.5668 -5.13612 3.13826 0
M  V30 757 H 72.3928 -1.92452 2.34938 0
M  V30 758 H 69.9778 -0.894981 1.19626 0
M  V30 759 H 71.8598 -4.05739 1.13814 0
M  V30 760 H 70.5348 -3.2249 0.279592 0
M  V30 761 H 69.4418 -2.74112 2.54585 0
M  V30 762 H 70.7748 -3.61983 3.3351 0
M  V30 763 N 72.4269 -1.23603 -0.977757 0
M  V30 764 C 73.7039 -0.977897 -1.69401 0
M  V30 765 C 74.0839 0.502738 -2.05026 0
M  V30 766 O 73.4319 1.47459 -1.74551 0
M  V30 767 C 73.6419 -1.89077 -2.93345 0
M  V30 768 C 74.9899 -2.15579 -3.65802 0
M  V30 769 O 76.0139 -1.86648 -3.03383 0
M  V30 770 O 74.8729 -2.64658 -4.78141 0
M  V30 771 H 71.9669 -0.369025 -0.740101 0
M  V30 772 H 74.5129 -1.34657 -1.03274 0
M  V30 773 H 73.2849 -2.89158 -2.63634 0
M  V30 774 H 72.9079 -1.52463 -3.67207 0
M  V30 775 N 73.905 1.17692 -1.04816 0
M  V30 776 C 75.13 1.92327 -0.776207 0
M  V30 777 C 75.555 1.76082 0.661581 0
M  V30 778 O 74.913 1.076 1.45917 0
M  V30 779 C 74.961 3.41539 -1.15687 0
M  V30 780 O 74.065 4.11402 -0.286775 0
M  V30 781 H 73.406 0.599735 -0.284981 0
M  V30 782 H 75.936 1.49201 -1.4 0
M  V30 783 H 75.946 3.92269 -1.12202 0
M  V30 784 H 74.621 3.52684 -2.20425 0
M  V30 785 H 73.198 3.70939 -0.381903 0
M  V30 786 N 75.3831 0.828654 1.34056 0
M  V30 787 C 76.3301 0.252567 2.29414 0
M  V30 788 C 77.3001 -0.62588 1.53857 0
M  V30 789 O 78.4851 -0.566312 1.82202 0
M  V30 790 C 75.6251 -0.574831 3.40279 0
M  V30 791 C 74.7381 0.326499 4.30764 0
M  V30 792 C 73.8731 -0.511016 5.28736 0
M  V30 793 C 72.9121 0.389342 6.1086 0
M  V30 794 N 72.0491 -0.409439 7.00905 0
M  V30 795 H 76.8891 1.07108 2.78086 0
M  V30 796 H 74.4261 0.539677 1.36843 0
M  V30 797 H 76.3841 -1.06992 4.03248 0
M  V30 798 H 75.0141 -1.35841 2.92826 0
M  V30 799 H 74.0661 0.939837 3.68607 0
M  V30 800 H 75.3781 1.01857 4.88289 0
M  V30 801 H 74.5321 -1.07035 5.97184 0
M  V30 802 H 73.2711 -1.23657 4.71763 0
M  V30 803 H 72.2761 0.960769 5.4134 0
M  V30 804 H 73.5011 1.1131 6.69916 0
M  V30 805 H 71.4471 -1.11856 6.46393 0
M  V30 806 H 71.3641 0.224126 7.55668 0
M  V30 807 H 72.6321 -0.951336 7.73673 0
M  V30 808 N 76.8612 -1.46375 0.584142 0
M  V30 809 C 78.2722 -1.86031 0.157959 0
M  V30 810 C 78.6232 -1.48753 -1.27933 0
M  V30 811 O 77.7482 -0.903098 -1.96655 0
M  V30 812 C 78.3432 -3.37642 0.279892 0
M  V30 813 C 76.9022 -3.76289 -0.09143 0
M  V30 814 C 76.0492 -2.7039 0.615178 0
M  V30 815 H 79.0002 -1.37509 0.792274 0
M  V30 816 H 79.0212 -3.77275 -0.494364 0
M  V30 817 H 78.5332 -3.64742 1.32607 0
M  V30 818 H 76.6342 -3.54806 -1.13769 0
M  V30 819 H 76.7472 -4.78246 0.285886 0
M  V30 820 H 75.1112 -2.5464 0.0552833 0
M  V30 821 H 75.8942 -3.0033 1.66303 0
M  V30 822 N 78.3393 -0.321999 -1.54275 0
M  V30 823 C 79.2863 0.544664 -2.24281 0
M  V30 824 C 80.2563 1.1129 -1.23303 0
M  V30 825 O 81.4413 1.15354 -1.51981 0
M  V30 826 C 78.5813 1.70045 -3.00298 0
M  V30 827 C 77.6943 1.16159 -4.1609 0
M  V30 828 C 76.8293 2.28293 -4.79641 0
M  V30 829 C 75.8683 1.71648 -5.8754 0
M  V30 830 N 75.0053 2.77438 -6.44959 0
M  V30 831 H 79.8453 -0.0588907 -2.97942 0
M  V30 832 H 77.3823 -0.0408345 -1.47043 0
M  V30 833 H 79.3403 2.38054 -3.42616 0
M  V30 834 H 77.9703 2.27531 -2.28975 0
M  V30 835 H 77.0223 0.373092 -3.78566 0
M  V30 836 H 78.3343 0.707087 -4.93763 0
M  V30 837 H 77.4883 3.0421 -5.2492 0
M  V30 838 H 76.2273 2.77079 -4.01346 0
M  V30 839 H 75.2323 0.942282 -5.41665 0
M  V30 840 H 76.4573 1.23741 -6.67731 0
M  V30 841 H 74.4033 3.25519 -5.69538 0
M  V30 842 H 74.3203 2.36547 -7.1804 0
M  V30 843 H 75.5883 3.53189 -6.94894 0
M  V30 844 N 79.8174 1.5752 -0.0501392 0
M  V30 845 C 81.2284 1.80271 0.485705 0
M  V30 846 C 81.5794 0.96228 1.70981 0
M  V30 847 O 80.7044 0.178578 2.15662 0
M  V30 848 C 81.2994 3.26957 0.887938 0
M  V30 849 C 79.8584 3.5063 1.36877 0
M  V30 850 C 79.0054 2.75165 0.343468 0
M  V30 851 H 81.9564 1.56281 -0.276028 0
M  V30 852 H 81.9774 3.37821 1.75093 0
M  V30 853 H 81.4894 3.881 -0.0031809 0
M  V30 854 H 79.5904 2.94766 2.27911 0
M  V30 855 H 79.7034 4.59343 1.36164 0
M  V30 856 H 78.0674 2.4127 0.816128 0
M  V30 857 H 78.8504 3.39034 -0.539548 0
M  V30 858 N 81.2955 -0.223234 1.56011 0
M  V30 859 C 82.2435 -1.29627 1.93131 0
M  V30 860 C 83.2375 -1.48608 0.813146 0
M  V30 861 O 84.4435 -1.49802 0.997966 0
M  V30 862 H 80.8185 -0.434563 0.613726 0
M  V30 863 H 82.7895 -0.955995 2.82672 0
M  V30 864 C 81.5385 -2.63983 2.26292 0
M  V30 865 H 80.8615 -2.50185 3.11846 0
M  V30 866 H 82.3015 -3.3788 2.56151 0
M  V30 867 C 80.7605 -3.18866 1.08747 0
M  V30 868 O 81.2905 -4.00192 0.347727 0
M  V30 869 N 79.4965 -2.77217 0.871743 0
M  V30 870 H 79.0435 -2.1119 1.47501 0
M  V30 871 H 79.0015 -3.1428 0.0869905 0
M  V30 872 N 82.7736 -1.49793 -0.48987 0
M  V30 873 C 83.9986 -1.63836 -1.27172 0
M  V30 874 C 84.4236 -0.31402 -1.8546 0
M  V30 875 O 83.7816 0.719803 -1.66399 0
M  V30 876 C 83.8296 -2.71797 -2.36978 0
M  V30 877 O 82.9336 -2.31744 -3.41128 0
M  V30 878 H 82.2746 -0.547997 -0.37496 0
M  V30 879 H 84.8046 -1.96053 -0.585191 0
M  V30 880 H 84.8146 -2.94305 -2.82575 0
M  V30 881 H 83.4896 -3.67923 -1.93921 0
M  V30 882 H 82.0666 -2.1961 -3.01373 0
M  V30 883 N 84.2517 0.741722 -1.39055 0
M  V30 884 C 85.5287 1.49252 -1.26425 0
M  V30 885 C 85.9087 2.10705 0.129144 0
M  V30 886 O 85.2567 1.98045 1.13976 0
M  V30 887 C 85.4667 2.54934 -2.38347 0
M  V30 888 C 86.8147 3.21506 -2.77343 0
M  V30 889 O 87.8387 2.65245 -2.37747 0
M  V30 890 O 86.6977 4.23294 -3.45665 0
M  V30 891 H 83.7917 0.662451 -0.495064 0
M  V30 892 H 86.3377 0.776121 -1.50912 0
M  V30 893 H 85.1097 2.07857 -3.31529 0
M  V30 894 H 84.7327 3.34141 -2.15489 0
M  V30 895 N 85.7298 1.2412 0.971189 0
M  V30 896 C 86.6598 1.05508 2.08304 0
M  V30 897 C 87.6408 -0.0308864 1.70072 0
M  V30 898 O 88.8258 0.135521 1.93727 0
M  V30 899 C 85.9558 0.655365 3.4106 0
M  V30 900 C 84.9098 1.68971 3.93234 0
M  V30 901 C 84.2358 1.14516 5.22293 0
M  V30 902 C 85.5358 3.08487 4.21465 0
M  V30 903 H 87.2298 1.98507 2.24132 0
M  V30 904 H 84.7758 0.955821 1.07704 0
M  V30 905 H 86.7288 0.51217 4.18276 0
M  V30 906 H 85.4528 -0.31032 3.25122 0
M  V30 907 H 84.1118 1.82106 3.18171 0
M  V30 908 H 83.7598 0.170189 5.02712 0
M  V30 909 H 83.4598 1.83635 5.58168 0
M  V30 910 H 84.9838 1.01401 6.02121 0
M  V30 911 H 86.3978 2.98601 4.89398 0
M  V30 912 H 84.7948 3.74926 4.68562 0
M  V30 913 H 85.8648 3.56787 3.28376 0
M  V30 914 N 87.2079 -1.17134 1.05439 0
M  V30 915 C 88.1179 -2.24878 0.668365 0
M  V30 916 C 89.1339 -1.71186 -0.311687 0
M  V30 917 O 90.3099 -2.00738 -0.163161 0
M  V30 918 C 87.3749 -3.46662 0.051648 0
M  V30 919 C 86.4359 -4.15429 1.08246 0
M  V30 920 C 85.6689 -5.31399 0.495082 0
M  V30 921 O 85.8919 -5.66153 -0.694743 0
M  V30 922 O 84.8259 -5.89187 1.23056 0
M  V30 923 H 88.6519 -2.60189 1.56637 0
M  V30 924 H 86.2369 -1.24482 0.826104 0
M  V30 925 H 88.1189 -4.20394 -0.290966 0
M  V30 926 H 86.7939 -3.13142 -0.819971 0
M  V30 927 H 85.7009 -3.43704 1.47711 0
M  V30 928 H 87.0339 -4.52982 1.92532 0
M  V30 929 N 88.686 -0.835752 -1.33615 0
M  V30 930 C 89.649 -0.272 -2.2758 0
M  V30 931 C 90.649 0.557487 -1.50827 0
M  V30 932 O 91.839 0.37173 -1.70188 0
M  V30 933 C 88.971 0.617173 -3.35267 0
M  V30 934 H 90.164 -1.10111 -2.78954 0
M  V30 935 H 87.717 -0.608594 -1.43965 0
M  V30 936 H 88.452 1.46884 -2.89129 0
M  V30 937 H 88.237 0.0237066 -3.92093 0
M  V30 938 H 89.727 1.005 -4.05326 0
M  V30 939 N 90.1641 1.46063 -0.591896 0
M  V30 940 C 91.4121 2.01938 -0.0808391 0
M  V30 941 C 91.7331 1.46475 1.28725 0
M  V30 942 O 91.0031 0.652944 1.84698 0
M  V30 943 H 89.5831 0.746516 -0.0268938 0
M  V30 944 H 92.2451 1.79055 -0.769752 0
M  V30 945 H 91.3411 3.12094 -0.0187578 0
M  V30 946 N 91.6422 0.330177 1.54103 0
M  V30 947 C 92.5892 -0.532762 2.24567 0
M  V30 948 C 93.5592 -1.10635 1.23892 0
M  V30 949 O 94.7442 -1.14546 1.5259 0
M  V30 950 C 91.8842 -1.6845 3.01195 0
M  V30 951 C 90.9972 -1.13951 4.167 0
M  V30 952 C 90.1322 -2.25746 4.80845 0
M  V30 953 C 89.1712 -1.6853 5.88442 0
M  V30 954 N 88.3082 -2.74014 6.46421 0
M  V30 955 H 93.1482 0.0746905 2.97906 0
M  V30 956 H 90.6852 0.048632 1.4702 0
M  V30 957 H 92.6432 -2.36234 3.43874 0
M  V30 958 H 91.2732 -2.26314 2.30178 0
M  V30 959 H 90.3252 -0.35301 3.78758 0
M  V30 960 H 91.6372 -0.680892 4.94131 0
M  V30 961 H 90.7912 -3.01422 5.26526 0
M  V30 962 H 89.5302 -2.74947 4.0281 0
M  V30 963 H 88.5352 -0.913543 5.42157 0
M  V30 964 H 89.7602 -1.20198 6.68378 0
M  V30 965 H 87.7062 -3.22494 5.71256 0
M  V30 966 H 87.6232 -2.32735 7.19285 0
M  V30 967 H 88.8912 -3.49499 6.96757 0
M  V30 968 N 93.1203 -1.57491 0.0584922 0
M  V30 969 C 94.3453 -1.97711 -0.62652 0
M  V30 970 C 94.7703 -0.936132 -1.63151 0
M  V30 971 O 94.1283 0.099811 -1.81025 0
M  V30 972 C 94.1763 -3.36989 -1.28338 0
M  V30 973 O 93.2803 -3.35433 -2.39913 0
M  V30 974 H 92.6213 -0.643868 -0.162266 0
M  V30 975 H 95.1513 -2.04193 0.129064 0
M  V30 976 H 95.1613 -3.73879 -1.63335 0
M  V30 977 H 93.8363 -4.12289 -0.546889 0
M  V30 978 H 92.4133 -3.10298 -2.06809 0
M  V30 979 N 94.5984 0.214957 -1.56127 0
M  V30 980 C 95.5284 1.2695 -1.95974 0
M  V30 981 C 96.5094 1.48539 -0.828868 0
M  V30 982 O 97.6944 1.60611 -1.09168 0
M  V30 983 C 94.8244 2.61794 -2.28214 0
M  V30 984 C 93.7784 2.54851 -3.43853 0
M  V30 985 C 93.1044 3.93785 -3.61715 0
M  V30 986 C 94.4044 2.09065 -4.78632 0
M  V30 987 H 96.0984 0.93846 -2.84312 0
M  V30 988 H 93.6444 0.449996 -1.36788 0
M  V30 989 H 95.5974 3.35731 -2.54682 0
M  V30 990 H 94.3214 2.96599 -1.36736 0
M  V30 991 H 92.9804 1.8337 -3.17444 0
M  V30 992 H 92.6284 4.25908 -2.67602 0
M  V30 993 H 92.3284 3.90019 -4.39498 0
M  V30 994 H 93.8524 4.69374 -3.90539 0
M  V30 995 H 95.2664 2.7275 -5.04262 0
M  V30 996 H 93.6634 2.16346 -5.59745 0
M  V30 997 H 94.7334 1.04315 -4.73547 0
M  V30 998 N 96.0765 1.50051 0.48192 0
M  V30 999 C 97.4875 1.5348 1.06305 0
M  V30 1000 C 97.8385 0.331997 1.93371 0
M  V30 1001 O 96.9635 -0.556256 2.09129 0
M  V30 1002 C 97.5585 2.7813 1.93466 0
M  V30 1003 C 96.1175 2.84275 2.46707 0
M  V30 1004 C 95.2645 2.47637 1.24785 0
M  V30 1005 H 98.2155 1.56472 0.264995 0
M  V30 1006 H 98.2365 2.59372 2.78399 0
M  V30 1007 H 97.7485 3.65654 1.30072 0
M  V30 1008 H 95.8495 2.01077 3.13686 0
M  V30 1009 H 95.9625 3.8691 2.82555 0
M  V30 1010 H 94.3265 1.99835 1.57918 0
M  V30 1011 H 95.1095 3.37457 0.630694 0
M  V30 1012 N 97.5546 -0.734337 1.39446 0
M  V30 1013 C 98.8016 -1.49391 1.36706 0
M  V30 1014 C 99.1296 -1.94465 -0.0367813 0
M  V30 1015 O 98.3846 -1.67154 -1.01774 0
M  V30 1016 C 98.6836 -2.74711 2.28623 0
M  V30 1017 C 98.3496 -2.48501 3.76242 0
M  V30 1018 C 97.0116 -2.41062 4.16464 0
M  V30 1019 C 99.3636 -2.26098 4.69606 0
M  V30 1020 C 96.6916 -2.09262 5.48112 0
M  V30 1021 C 99.0436 -1.95814 6.01531 0
M  V30 1022 C 97.7076 -1.86845 6.40816 0
M  V30 1023 H 96.9776 -0.546661 0.500243 0
M  V30 1024 H 99.6246 -0.842788 1.71957 0
M  V30 1025 H 97.9296 -3.44569 1.86492 0
M  V30 1026 H 99.6266 -3.32741 2.23796 0
M  V30 1027 H 96.2166 -2.55169 3.44364 0
M  V30 1028 H 100.401 -2.30812 4.39363 0
M  V30 1029 H 95.6566 -2.00841 5.77471 0
M  V30 1030 H 99.8306 -1.77488 6.73403 0
M  V30 1031 H 97.4576 -1.6197 7.42745 0
M  V30 1032 N 99.0327 -1.24633 -0.964593 0
M  V30 1033 C 100.282 -1.08188 -1.7023 0
M  V30 1034 C 100.595 0.37873 -1.91898 0
M  V30 1035 O 101.801 0.663427 -2.6327 0
M  V30 1036 C 100.257 -1.88773 -3.06419 0
M  V30 1037 C 99.8647 -3.39263 -2.92582 0
M  V30 1038 C 101.609 -1.80867 -3.84041 0
M  V30 1039 C 99.5157 -4.1218 -4.24101 0
M  V30 1040 H 98.4457 -0.401245 -0.638372 0
M  V30 1041 H 101.097 -1.48742 -1.07462 0
M  V30 1042 H 99.4787 -1.41035 -3.70034 0
M  V30 1043 H 100.653 -3.94603 -2.37961 0
M  V30 1044 H 98.9677 -3.48154 -2.28424 0
M  V30 1045 H 101.565 -2.32646 -4.81435 0
M  V30 1046 H 101.908 -0.774543 -4.09031 0
M  V30 1047 H 102.441 -2.26301 -3.27159 0
M  V30 1048 H 99.1797 -5.15965 -4.04303 0
M  V30 1049 H 98.6997 -3.61626 -4.78526 0
M  V30 1050 H 100.379 -4.19349 -4.92702 0
M  V30 1051 N 100.511 1.16574 -1.06058 0
M  V30 1052 C 101.741 1.90675 -0.795397 0
M  V30 1053 C 102.149 1.77547 0.653735 0
M  V30 1054 O 101.492 1.11611 1.45907 0
M  V30 1055 C 101.554 3.42011 -1.10764 0
M  V30 1056 C 101.218 3.78924 -2.55471 0
M  V30 1057 C 102.215 3.81042 -3.53699 0
M  V30 1058 C 99.8998 4.09626 -2.90708 0
M  V30 1059 C 101.894 4.13346 -4.85205 0
M  V30 1060 C 99.5808 4.41597 -4.22416 0
M  V30 1061 C 100.579 4.43436 -5.19474 0
M  V30 1062 O 100.267 4.74649 -6.48817 0
M  V30 1063 H 99.9988 0.611554 -0.288058 0
M  V30 1064 H 102.553 1.48711 -1.41683 0
M  V30 1065 H 100.783 3.84312 -0.429128 0
M  V30 1066 H 102.472 3.97384 -0.827077 0
M  V30 1067 H 103.238 3.57437 -3.27817 0
M  V30 1068 H 99.1168 4.07361 -2.15819 0
M  V30 1069 H 102.661 4.14696 -5.60957 0
M  V30 1070 H 98.5578 4.64667 -4.48056 0
M  V30 1071 H 99.3258 4.9247 -6.5377 0
M  V30 1072 N 101.989 0.842826 1.3317 0
M  V30 1073 C 103.237 0.439577 1.97262 0
M  V30 1074 C 103.558 -1.00548 1.67078 0
M  V30 1075 O 102.828 -1.70098 0.971779 0
M  V30 1076 H 101.408 0.159558 0.72976 0
M  V30 1077 H 104.07 1.07665 1.62463 0
M  V30 1078 H 103.166 0.574886 3.0676 0
M  V30 1079 N 103.467 -1.45747 0.599634 0
M  V30 1080 C 104.744 -1.95585 0.0240846 0
M  V30 1081 C 105.124 -1.54217 -1.44154 0
M  V30 1082 O 104.472 -0.800903 -2.14004 0
M  V30 1083 C 104.682 -3.48344 0.21385 0
M  V30 1084 C 106.03 -4.24504 0.0904902 0
M  V30 1085 O 107.054 -3.55911 0.143558 0
M  V30 1086 O 105.913 -5.46491 -0.0310766 0
M  V30 1087 H 103.007 -0.82602 -0.0402478 0
M  V30 1088 H 105.553 -1.55951 0.669139 0
M  V30 1089 H 104.325 -3.71397 1.23206 0
M  V30 1090 H 103.948 -3.9485 -0.466842 0
M  V30 1091 N 104.945 -0.338344 -1.53925 0
M  V30 1092 C 106.194 0.260732 -2.00008 0
M  V30 1093 C 106.507 1.52073 -1.23017 0
M  V30 1094 O 107.713 2.19672 -1.5955 0
M  V30 1095 C 106.169 0.51515 -3.56194 0
M  V30 1096 C 105.777 -0.728645 -4.42035 0
M  V30 1097 C 107.521 1.07337 -4.10706 0
M  V30 1098 C 105.428 -0.445315 -5.89721 0
M  V30 1099 H 104.358 0.101205 -0.747177 0
M  V30 1100 H 107.009 -0.452866 -1.77824 0
M  V30 1101 H 105.391 1.28932 -3.74423 0
M  V30 1102 H 106.565 -1.50352 -4.35581 0
M  V30 1103 H 104.88 -1.20813 -3.98489 0
M  V30 1104 H 107.477 1.30022 -5.18651 0
M  V30 1105 H 107.82 2.0273 -3.63602 0
M  V30 1106 H 108.353 0.360034 -3.96167 0
M  V30 1107 H 105.092 -1.36883 -6.41049 0
M  V30 1108 H 104.612 0.291569 -5.99091 0
M  V30 1109 H 106.291 -0.0606218 -6.46972 0
M  V30 1110 N 106.423 1.57458 -0.0668435 0
M  V30 1111 C 107.834 1.80776 0.466558 0
M  V30 1112 C 108.185 0.980361 1.69951 0
M  V30 1113 O 107.31 0.201441 2.1546 0
M  V30 1114 C 107.905 3.27881 0.85321 0
M  V30 1115 C 106.464 3.52062 1.3315 0
M  V30 1116 C 105.611 2.75513 0.314264 0
M  V30 1117 H 108.562 1.5598 -0.292588 0
M  V30 1118 H 108.583 3.39659 1.715 0
M  V30 1119 H 108.095 3.88075 -0.0443439 0
M  V30 1120 H 106.196 2.97167 2.24772 0
M  V30 1121 H 106.309 4.60762 1.31285 0
M  V30 1122 H 104.673 2.42123 0.790492 0
M  V30 1123 H 105.456 3.38442 -0.575477 0
M  V30 1124 N 107.901 -0.206675 1.56239 0
M  V30 1125 C 108.833 -1.27997 1.9013 0
M  V30 1126 C 109.846 -1.42299 0.790883 0
M  V30 1127 O 111.035 -1.42931 1.06925 0
M  V30 1128 C 108.135 -2.65368 2.10792 0
M  V30 1129 C 107.308 -2.72824 3.41886 0
M  V30 1130 C 106.367 -3.9131 3.51799 0
M  V30 1131 O 105.393 -3.78953 4.24716 0
M  V30 1132 N 106.595 -5.06265 2.84035 0
M  V30 1133 H 109.36 -0.992444 2.82791 0
M  V30 1134 H 106.921 -0.396652 1.56966 0
M  V30 1135 H 108.913 -3.43039 2.14724 0
M  V30 1136 H 107.483 -2.86657 1.24685 0
M  V30 1137 H 106.703 -1.81515 3.49923 0
M  V30 1138 H 107.991 -2.74786 4.28217 0
M  V30 1139 H 107.389 -5.19203 2.246 0
M  V30 1140 H 105.946 -5.81925 2.93609 0
M  V30 1141 N 109.379 -1.50304 -0.473955 0
M  V30 1142 C 110.627 -1.60832 -1.22382 0
M  V30 1143 C 110.948 -0.30939 -1.9253 0
M  V30 1144 O 110.218 0.67296 -1.83978 0
M  V30 1145 H 108.798 -0.592652 -0.454723 0
M  V30 1146 H 111.46 -1.87068 -0.546968 0
M  V30 1147 H 110.556 -2.41803 -1.97327 0
M  V30 1148 N 110.857 0.726932 -1.39834 0
M  V30 1149 C 111.787 1.85405 -1.41941 0
M  V30 1150 C 112.768 1.67751 -0.281728 0
M  V30 1151 O 113.953 1.8795 -0.488717 0
M  V30 1152 C 111.083 3.23243 -1.2701 0
M  V30 1153 C 110.037 3.55549 -2.38262 0
M  V30 1154 C 109.363 4.9241 -2.08415 0
M  V30 1155 C 110.663 3.577 -3.80589 0
M  V30 1156 H 112.357 1.83899 -2.36266 0
M  V30 1157 H 109.903 0.883349 -1.13723 0
M  V30 1158 H 111.856 4.01775 -1.27103 0
M  V30 1159 H 110.58 3.25296 -0.291564 0
M  V30 1160 H 109.239 2.79351 -2.37399 0
M  V30 1161 H 108.887 4.91052 -1.0898 0
M  V30 1162 H 108.587 5.14992 -2.82943 0
M  V30 1163 H 110.111 5.73289 -2.10171 0
M  V30 1164 H 111.525 4.26293 -3.83337 0
M  V30 1165 H 109.922 3.91804 -4.54543 0
M  V30 1166 H 110.992 2.57328 -4.10987 0
M  V30 1167 N 112.336 1.25143 0.95797 0
M  V30 1168 C 113.582 1.09855 1.70469 0
M  V30 1169 C 113.915 -0.360187 1.90831 0
M  V30 1170 O 113.19 -1.26568 1.47685 0
M  V30 1171 C 113.473 1.8497 3.08963 0
M  V30 1172 C 113.326 3.38652 2.96032 0
M  V30 1173 C 114.645 1.63016 4.08795 0
M  V30 1174 H 111.764 0.400465 0.618706 0
M  V30 1175 H 114.406 1.53933 1.11376 0
M  V30 1176 H 112.556 1.47505 3.59409 0
M  V30 1177 H 114.228 3.85772 2.52938 0
M  V30 1178 H 112.471 3.66534 2.32025 0
M  V30 1179 H 113.142 3.8642 3.94187 0
M  V30 1180 H 115.618 1.95625 3.67247 0
M  V30 1181 H 114.494 2.18015 5.03747 0
M  V30 1182 H 114.755 0.570692 4.38401 0
M  V30 1183 N 113.814 -1.1601 1.06675 0
M  V30 1184 C 114.777 -2.18724 0.685001 0
M  V30 1185 C 115.777 -1.58496 -0.271246 0
M  V30 1186 O 116.967 -1.74119 -0.0531156 0
M  V30 1187 C 114.099 -3.40899 0.00853648 0
M  V30 1188 H 115.292 -2.54011 1.59431 0
M  V30 1189 H 112.845 -1.30352 0.862441 0
M  V30 1190 H 113.58 -3.11173 -0.913337 0
M  V30 1191 H 113.365 -3.8587 0.696204 0
M  V30 1192 H 114.855 -4.16886 -0.24414 0
M  V30 1193 N 115.292 -0.849877 -1.32721 0
M  V30 1194 C 116.538 -0.451591 -1.97708 0
M  V30 1195 C 116.871 0.989175 -1.6712 0
M  V30 1196 O 116.146 1.69334 -0.956891 0
M  V30 1197 C 116.429 -0.685598 -3.53513 0
M  V30 1198 C 116.282 -2.17444 -3.93749 0
M  V30 1199 C 117.601 -0.138874 -4.39881 0
M  V30 1200 H 114.72 -0.16555 -0.718166 0
M  V30 1201 H 117.362 -1.06742 -1.57182 0
M  V30 1202 H 115.512 -0.161416 -3.88165 0
M  V30 1203 H 117.184 -2.76433 -3.693 0
M  V30 1204 H 115.427 -2.65476 -3.43081 0
M  V30 1205 H 116.098 -2.28888 -5.02309 0
M  V30 1206 H 118.574 -0.587068 -4.11938 0
M  V30 1207 H 117.45 -0.332213 -5.47894 0
M  V30 1208 H 117.711 0.95806 -4.31594 0
M  V30 1209 N 116.77 1.45427 -0.607355 0
M  V30 1210 C 118.181 1.85756 -0.187535 0
M  V30 1211 C 118.532 1.5077 1.25551 0
M  V30 1212 O 117.657 0.93427 1.95193 0
M  V30 1213 C 118.252 3.37154 -0.333572 0
M  V30 1214 C 116.811 3.76387 0.0315542 0
M  V30 1215 C 115.958 2.69377 -0.658117 0
M  V30 1216 H 118.909 1.36231 -0.81405 0
M  V30 1217 H 118.93 3.78014 0.43428 0
M  V30 1218 H 118.442 3.62586 -1.38393 0
M  V30 1219 H 116.543 3.56571 1.0811 0
M  V30 1220 H 116.656 4.77731 -0.361935 0
M  V30 1221 H 115.02 2.5452 -0.0957873 0
M  V30 1222 H 115.803 2.97646 -1.7106 0
M  V30 1223 N 118.248 0.346503 1.53744 0
M  V30 1224 C 119.178 -0.501193 2.28058 0
M  V30 1225 C 120.159 -1.10014 1.29734 0
M  V30 1226 O 121.344 -1.12097 1.58581 0
M  V30 1227 C 118.474 -1.65078 3.05559 0
M  V30 1228 C 117.428 -1.18003 4.11411 0
M  V30 1229 C 116.754 -2.41837 4.76884 0
M  V30 1230 C 118.054 -0.278394 5.21558 0
M  V30 1231 H 119.748 0.11875 2.99164 0
M  V30 1232 H 117.294 0.0585531 1.43881 0
M  V30 1233 H 119.247 -2.25028 3.56287 0
M  V30 1234 H 117.971 -2.29767 2.32109 0
M  V30 1235 H 116.63 -0.603331 3.61601 0
M  V30 1236 H 116.278 -3.0494 4.00026 0
M  V30 1237 H 115.978 -2.1102 5.48402 0
M  V30 1238 H 117.502 -3.02508 5.30397 0
M  V30 1239 H 118.916 -0.784823 5.67903 0
M  V30 1240 H 117.313 -0.0619707 6.00068 0
M  V30 1241 H 118.383 0.684677 4.80042 0
M  V30 1242 N 119.726 -1.57421 0.075193 0
M  V30 1243 C 120.636 -2.1642 -0.905511 0
M  V30 1244 C 121.652 -1.12828 -1.32461 0
M  V30 1245 O 122.828 -1.45109 -1.39661 0
M  V30 1246 C 119.893 -2.71693 -2.15369 0
M  V30 1247 C 118.954 -3.90171 -1.79068 0
M  V30 1248 C 118.187 -4.42798 -2.97936 0
M  V30 1249 O 118.41 -3.94416 -4.12058 0
M  V30 1250 O 117.344 -5.34085 -2.77555 0
M  V30 1251 H 121.17 -3.00588 -0.433626 0
M  V30 1252 H 118.755 -1.48664 -0.148067 0
M  V30 1253 H 120.637 -3.07104 -2.88557 0
M  V30 1254 H 119.312 -1.90582 -2.61649 0
M  V30 1255 H 118.219 -3.59606 -1.03122 0
M  V30 1256 H 119.552 -4.72584 -1.37569 0
M  V30 1257 N 121.204 0.198386 -1.56346 0
M  V30 1258 C 122.481 0.944982 -1.71258 0
M  V30 1259 C 122.861 2.0151 -0.629048 0
M  V30 1260 O 122.209 2.25639 0.360473 0
M  V30 1261 C 122.419 1.5344 -3.1346 0
M  V30 1262 C 123.767 2.01778 -3.73591 0
M  V30 1263 O 124.791 1.63288 -3.16568 0
M  V30 1264 O 123.65 2.72594 -4.73661 0
M  V30 1265 H 120.744 0.442939 -0.69838 0
M  V30 1266 H 123.29 0.188342 -1.68652 0
M  V30 1267 H 122.062 0.762869 -3.83792 0
M  V30 1268 H 121.685 2.35596 -3.20282 0
M  V30 1269 N 122.682 1.50554 0.465978 0
M  V30 1270 C 123.929 1.61798 1.21768 0
M  V30 1271 C 124.257 0.320696 1.91838 0
M  V30 1272 O 123.512 -0.693724 1.82992 0
M  V30 1273 C 123.811 2.75152 2.28093 0
M  V30 1274 C 123.477 4.15454 1.75239 0
M  V30 1275 C 122.139 4.53628 1.60546 0
M  V30 1276 C 124.491 5.03121 1.36083 0
M  V30 1277 C 121.819 5.77204 1.05128 0
M  V30 1278 C 124.171 6.27249 0.821056 0
M  V30 1279 C 122.835 6.64221 0.660795 0
M  V30 1280 H 122.105 0.592063 0.445582 0
M  V30 1281 H 124.752 1.84503 0.512927 0
M  V30 1282 H 123.057 2.46556 3.04496 0
M  V30 1283 H 124.754 2.81055 2.86023 0
M  V30 1284 H 121.344 3.85341 1.87644 0
M  V30 1285 H 125.528 4.74257 1.46267 0
M  V30 1286 H 120.784 6.0452 0.91462 0
M  V30 1287 H 124.958 6.94537 0.509018 0
M  V30 1288 H 122.585 7.59854 0.229226 0
M  V30 1289 N 124.16 -0.719506 1.40217 0
M  V30 1290 C 125.437 -1.47221 1.28784 0
M  V30 1291 C 125.817 -2.10883 -0.0956067 0
M  V30 1292 O 125.165 -1.99833 -1.10811 0
M  V30 1293 C 125.375 -2.5111 2.42373 0
M  V30 1294 C 126.723 -3.17053 2.82423 0
M  V30 1295 O 127.747 -2.61429 2.41937 0
M  V30 1296 O 126.606 -4.17742 3.52355 0
M  V30 1297 H 123.7 -0.654491 0.50554 0
M  V30 1298 H 126.246 -0.752014 1.52128 0
M  V30 1299 H 125.018 -2.02556 3.34793 0
M  V30 1300 H 124.641 -3.3067 2.20778 0
M  V30 1301 N 125.638 -1.25649 -0.95132 0
M  V30 1302 C 127.049 -1.09654 -1.51106 0
M  V30 1303 C 127.4 0.326615 -1.93462 0
M  V30 1304 O 126.525 1.21697 -1.78938 0
M  V30 1305 C 127.12 -1.98437 -2.74605 0
M  V30 1306 C 125.679 -1.86618 -3.2688 0
M  V30 1307 C 124.826 -1.9239 -1.99703 0
M  V30 1308 H 127.777 -1.38887 -0.767865 0
M  V30 1309 H 127.798 -1.5263 -3.48546 0
M  V30 1310 H 127.31 -3.02009 -2.43746 0
M  V30 1311 H 125.411 -0.859421 -3.62553 0
M  V30 1312 H 125.524 -2.71607 -3.94673 0
M  V30 1313 H 123.888 -1.36317 -2.15151 0
M  V30 1314 H 124.671 -2.97573 -1.71188 0
M  V30 1315 N 127.117 1.15442 -1.07289 0
M  V30 1316 C 128.347 1.89821 -0.815576 0
M  V30 1317 C 128.755 1.7823 0.634867 0
M  V30 1318 O 128.098 1.13152 1.44715 0
M  V30 1319 C 128.16 3.40817 -1.14385 0
M  V30 1320 C 127.824 3.76193 -2.59476 0
M  V30 1321 C 128.821 3.77269 -3.57721 0
M  V30 1322 C 126.506 4.0652 -2.95037 0
M  V30 1323 C 128.5 4.08176 -4.89562 0
M  V30 1324 C 126.187 4.37092 -4.27076 0
M  V30 1325 C 127.185 4.37902 -5.24148 0
M  V30 1326 O 126.873 4.67741 -6.53815 0
M  V30 1327 H 126.605 0.608465 -0.294528 0
M  V30 1328 H 129.159 1.472 -1.43252 0
M  V30 1329 H 127.389 3.83835 -0.469865 0
M  V30 1330 H 129.078 3.96485 -0.869179 0
M  V30 1331 H 129.844 3.5394 -3.3159 0
M  V30 1332 H 125.723 4.05049 -2.20128 0
M  V30 1333 H 129.267 4.08723 -5.65324 0
M  V30 1334 H 125.164 4.59889 -4.5296 0
M  V30 1335 H 125.932 4.85509 -6.58957 0
M  V30 1336 N 128.595 0.856903 1.32268 0
M  V30 1337 C 129.825 0.47475 2.01071 0
M  V30 1338 C 130.233 -0.933746 1.64553 0
M  V30 1339 O 129.576 -1.62114 0.863989 0
M  V30 1340 C 129.638 0.536746 3.55471 0
M  V30 1341 C 129.302 1.90453 4.15423 0
M  V30 1342 C 130.299 2.87029 4.33486 0
M  V30 1343 C 127.984 2.20229 4.51447 0
M  V30 1344 C 129.978 4.11532 4.86744 0
M  V30 1345 C 127.665 3.44984 5.0441 0
M  V30 1346 C 128.663 4.40452 5.22007 0
M  V30 1347 O 128.351 5.62998 5.73837 0
M  V30 1348 H 128.083 0.184778 0.650256 0
M  V30 1349 H 130.637 1.15615 1.69771 0
M  V30 1350 H 128.867 -0.20152 3.86175 0
M  V30 1351 H 130.556 0.169875 4.05544 0
M  V30 1352 H 131.322 2.6533 4.05986 0
M  V30 1353 H 127.201 1.46705 4.37034 0
M  V30 1354 H 130.745 4.86056 5.00395 0
M  V30 1355 H 126.642 3.66532 5.31342 0
M  V30 1356 H 127.41 5.64987 5.92226 0
M  V30 1357 N 130.073 -1.45103 0.615059 0
M  V30 1358 C 131.003 -2.33339 -0.0865619 0
M  V30 1359 C 131.984 -1.4727 -0.851209 0
M  V30 1360 O 133.169 -1.76026 -0.820281 0
M  V30 1361 C 130.299 -3.30095 -1.07956 0
M  V30 1362 C 129.253 -4.25858 -0.427628 0
M  V30 1363 C 128.579 -5.12361 -1.5294 0
M  V30 1364 C 129.879 -5.18165 0.655944 0
M  V30 1365 H 131.573 -2.92254 0.650224 0
M  V30 1366 H 129.119 -1.40532 0.314138 0
M  V30 1367 H 131.072 -3.90698 -1.57901 0
M  V30 1368 H 129.796 -2.69355 -1.84703 0
M  V30 1369 H 128.455 -3.66564 0.0510292 0
M  V30 1370 H 128.103 -4.47984 -2.28734 0
M  V30 1371 H 127.803 -5.77238 -1.09865 0
M  V30 1372 H 129.327 -5.75833 -2.03098 0
M  V30 1373 H 130.741 -5.72796 0.240257 0
M  V30 1374 H 129.138 -5.91559 1.00888 0
M  V30 1375 H 130.208 -4.60144 1.52957 0
M  V30 1376 N 131.551 -0.354651 -1.53558 0
M  V30 1377 C 132.779 0.239515 -2.05509 0
M  V30 1378 C 133.194 1.4333 -1.2289 0
M  V30 1379 O 132.551 1.80538 -0.266899 0
M  V30 1380 C 132.602 0.643719 -3.55723 0
M  V30 1381 O 132.323 -0.502602 -4.35207 0
M  V30 1382 C 133.824 1.29743 -4.23889 0
M  V30 1383 H 131.044 0.0442697 -0.669538 0
M  V30 1384 H 133.588 -0.509856 -1.98042 0
M  V30 1385 H 131.743 1.34302 -3.63376 0
M  V30 1386 H 132.157 -0.178172 -5.24197 0
M  V30 1387 H 133.631 1.53091 -5.30346 0
M  V30 1388 H 134.108 2.25441 -3.76926 0
M  V30 1389 H 134.714 0.639865 -4.20459 0
M  V30 1390 N 133.029 1.57378 -0.0835403 0
M  V30 1391 C 133.961 2.10389 0.909338 0
M  V30 1392 C 134.974 1.03858 1.25369 0
M  V30 1393 O 136.163 1.31338 1.20882 0
M  V30 1394 C 133.263 2.55908 2.2218 0
M  V30 1395 C 132.436 3.86145 2.05453 0
M  V30 1396 C 131.495 4.17633 3.20108 0
M  V30 1397 O 130.521 4.87043 2.94581 0
M  V30 1398 N 131.723 3.72113 4.45547 0
M  V30 1399 H 134.488 2.962 0.456657 0
M  V30 1400 H 132.049 1.61579 0.101877 0
M  V30 1401 H 134.041 2.74027 2.97811 0
M  V30 1402 H 132.611 1.75171 2.58909 0
M  V30 1403 H 131.831 3.7729 1.1422 0
M  V30 1404 H 133.119 4.7137 1.91541 0
M  V30 1405 H 132.517 3.16062 4.69171 0
M  V30 1406 H 131.074 3.95409 5.18165 0
M  V30 1407 N 134.507 -0.190092 1.56449 0
M  V30 1408 C 135.454 -1.23557 1.94942 0
M  V30 1409 C 136.424 -1.44972 0.810696 0
M  V30 1410 O 137.609 -1.58023 1.06927 0
M  V30 1411 C 134.749 -2.57416 2.2985 0
M  V30 1412 C 133.862 -2.43537 3.5681 0
M  V30 1413 C 132.997 -3.70134 3.81017 0
M  V30 1414 C 132.036 -3.51109 5.01387 0
M  V30 1415 N 131.173 -4.6973 5.21822 0
M  V30 1416 H 136.013 -0.900304 2.84075 0
M  V30 1417 H 133.55 -0.43318 1.40577 0
M  V30 1418 H 135.508 -3.35409 2.48106 0
M  V30 1419 H 134.138 -2.88975 1.43852 0
M  V30 1420 H 133.19 -1.56816 3.46573 0
M  V30 1421 H 134.502 -2.25415 4.4496 0
M  V30 1422 H 133.656 -4.56566 3.9954 0
M  V30 1423 H 132.395 -3.91215 2.91207 0
M  V30 1424 H 131.4 -2.63063 4.82782 0
M  V30 1425 H 132.625 -3.31468 5.9271 0
M  V30 1426 H 130.571 -4.91065 4.34961 0
M  V30 1427 H 130.488 -4.54452 6.0416 0
M  V30 1428 H 131.756 -5.57499 5.44808 0
M  V30 1429 N 135.985 -1.50799 -0.457987 0
M  V30 1430 C 137.213 -1.66218 -1.23203 0
M  V30 1431 C 137.628 -0.350894 -1.85511 0
M  V30 1432 O 136.985 0.668546 -1.69814 0
M  V30 1433 C 137.036 -2.76291 -2.33121 0
M  V30 1434 O 136.757 -4.02338 -1.73366 0
M  V30 1435 C 138.258 -3.028 -3.2377 0
M  V30 1436 H 135.478 -0.558361 -0.372121 0
M  V30 1437 H 138.022 -1.97099 -0.545179 0
M  V30 1438 H 136.177 -2.48068 -2.97558 0
M  V30 1439 H 136.591 -4.63312 -2.4585 0
M  V30 1440 H 138.065 -3.8345 -3.97077 0
M  V30 1441 H 138.542 -2.14385 -3.83322 0
M  V30 1442 H 139.148 -3.32604 -2.65056 0
M  V30 1443 N 137.463 0.71206 -1.40597 0
M  V30 1444 C 138.71 1.47197 -1.39065 0
M  V30 1445 C 139.038 1.94499 0.00583891 0
M  V30 1446 O 138.293 1.68752 0.99102 0
M  V30 1447 C 138.592 2.71039 -2.32965 0
M  V30 1448 C 138.258 2.42484 -3.80148 0
M  V30 1449 C 136.92 2.34406 -4.20247 0
M  V30 1450 C 139.272 2.18598 -4.73143 0
M  V30 1451 C 136.6 2.00516 -5.51371 0
M  V30 1452 C 138.952 1.8622 -6.0457 0
M  V30 1453 C 137.616 1.76626 -6.43708 0
M  V30 1454 H 136.886 0.538634 -0.508876 0
M  V30 1455 H 139.533 0.815325 -1.73276 0
M  V30 1456 H 137.838 3.41558 -1.91951 0
M  V30 1457 H 139.535 3.29138 -2.29061 0
M  V30 1458 H 136.125 2.49659 -3.4838 0
M  V30 1459 H 140.309 2.23793 -4.42979 0
M  V30 1460 H 135.565 1.91628 -5.80593 0
M  V30 1461 H 139.739 1.66752 -6.76141 0
M  V30 1462 H 137.366 1.50133 -7.45228 0
M  V30 1463 N 138.941 1.26152 0.944643 0
M  V30 1464 C 140.187 1.11657 1.69294 0
M  V30 1465 C 140.52 -0.339926 1.91202 0
M  V30 1466 O 139.795 -1.24994 1.49019 0
M  V30 1467 C 140.078 1.88236 3.06984 0
M  V30 1468 C 139.931 3.41772 2.92424 0
M  V30 1469 C 141.25 1.67343 4.07043 0
M  V30 1470 H 138.369 0.407004 0.614424 0
M  V30 1471 H 141.011 1.55106 1.09737 0
M  V30 1472 H 139.161 1.51308 3.57824 0
M  V30 1473 H 140.833 3.88433 2.48832 0
M  V30 1474 H 139.076 3.68974 2.28124 0
M  V30 1475 H 139.747 3.90579 3.90067 0
M  V30 1476 H 142.223 1.99509 3.65151 0
M  V30 1477 H 141.099 2.23346 5.01406 0
M  V30 1478 H 141.36 0.617158 4.37771 0
M  V30 1479 N 140.419 -1.14872 1.07899 0
M  V30 1480 C 141.665 -1.86064 0.806725 0
M  V30 1481 C 141.998 -1.82434 -0.665706 0
M  V30 1482 O 141.273 -1.25138 -1.48899 0
M  V30 1483 C 141.556 -3.34929 1.32267 0
M  V30 1484 C 141.409 -3.47161 2.86006 0
M  V30 1485 C 142.728 -4.29863 0.943717 0
M  V30 1486 H 139.847 -0.675591 0.294526 0
M  V30 1487 H 142.489 -1.34925 1.33773 0
M  V30 1488 H 140.639 -3.78611 0.870974 0
M  V30 1489 H 142.311 -3.12302 3.39507 0
M  V30 1490 H 140.554 -2.88539 3.23925 0
M  V30 1491 H 141.225 -4.51777 3.17177 0
M  V30 1492 H 143.701 -3.9417 1.33302 0
M  V30 1493 H 142.577 -5.32494 1.33198 0
M  V30 1494 H 142.838 -4.41846 -0.149796 0
M  V30 1495 N 141.898 -0.863906 -1.31812 0
M  V30 1496 C 142.828 -0.330843 -2.31144 0
M  V30 1497 C 143.809 0.575005 -1.60087 0
M  V30 1498 O 144.994 0.493304 -1.8783 0
M  V30 1499 C 142.124 0.47374 -3.44054 0
M  V30 1500 C 141.078 -0.338481 -4.26659 0
M  V30 1501 C 140.404 0.591412 -5.31419 0
M  V30 1502 C 141.704 -1.56926 -4.98168 0
M  V30 1503 H 143.398 -1.16086 -2.75979 0
M  V30 1504 H 140.944 -0.559657 -1.32679 0
M  V30 1505 H 142.897 0.857143 -4.12591 0
M  V30 1506 H 141.621 1.33721 -2.9797 0
M  V30 1507 H 140.28 -0.703754 -3.59782 0
M  V30 1508 H 139.928 1.45199 -4.81587 0
M  V30 1509 H 139.628 0.0519022 -5.87577 0
M  V30 1510 H 141.152 0.97179 -6.02817 0
M  V30 1511 H 142.566 -1.25764 -5.59336 0
M  V30 1512 H 140.963 -2.04739 -5.64094 0
M  V30 1513 H 142.033 -2.32544 -4.25501 0
M  V30 1514 N 143.376 1.44774 -0.622745 0
M  V30 1515 C 144.324 2.32387 0.0994683 0
M  V30 1516 C 145.318 1.46859 0.844326 0
M  V30 1517 O 146.524 1.63254 0.758174 0
M  V30 1518 H 142.899 0.750273 0.0509291 0
M  V30 1519 H 144.87 2.91062 -0.65767 0
M  V30 1520 C 143.619 3.30723 1.07319 0
M  V30 1521 H 142.942 3.96541 0.509462 0
M  V30 1522 H 144.382 3.94725 1.54817 0
M  V30 1523 C 142.841 2.59021 2.15429 0
M  V30 1524 O 143.371 2.38286 3.23393 0
M  V30 1525 N 141.577 2.189 1.91131 0
M  V30 1526 H 141.124 2.35964 1.03337 0
M  V30 1527 H 141.082 1.71251 2.63668 0
M  V30 1528 N 144.854 0.36279 1.53368 0
M  V30 1529 C 146.27 0.0116182 1.59596 0
M  V30 1530 C 146.47 -1.47012 1.37803 0
M  V30 1531 O 145.526 -2.23136 1.18181 0
M  V30 1532 C 146.839 0.465052 2.97082 0
M  V30 1533 C 148.387 0.419033 3.10182 0
M  V30 1534 C 148.862 0.848235 4.50077 0
M  V30 1535 N 150.353 0.803183 4.56183 0
M  V30 1536 C 151.088 1.107 5.62613 0
M  V30 1537 N 150.584 1.47996 6.76808 0
M  V30 1538 N 152.377 1.02998 5.52583 0
M  V30 1539 H 144.528 1.32775 1.65785 0
M  V30 1540 H 146.791 0.542518 0.777417 0
M  V30 1541 H 146.497 1.49892 3.18159 0
M  V30 1542 H 146.371 -0.149786 3.76902 0
M  V30 1543 H 148.758 -0.605696 2.88817 0
M  V30 1544 H 148.839 1.06933 2.32377 0
M  V30 1545 H 148.483 1.87107 4.7218 0
M  V30 1546 H 148.413 0.175218 5.26308 0
M  V30 1547 H 150.904 0.52838 3.74188 0
M  V30 1548 H 151.217 1.69613 7.53957 0
M  V30 1549 H 149.562 1.51859 6.78206 0
M  V30 1550 H 152.753 0.737817 4.62249 0
M  V30 1551 H 152.926 1.2701 6.35431 0
M  V30 1552 N 146.332 -1.57332 0.0918853 0
M  V30 1553 C 147.58 -1.93853 -0.571446 0
M  V30 1554 C 147.901 -0.974212 -1.6892 0
M  V30 1555 O 147.171 -0.0257254 -1.95883 0
M  V30 1556 H 145.751 -0.715666 -0.214082 0
M  V30 1557 H 148.413 -1.94287 0.154464 0
M  V30 1558 H 147.509 -2.96191 -0.983729 0
M  V30 1559 N 147.81 0.181792 -1.56548 0
M  V30 1560 C 148.757 1.22521 -1.95595 0
M  V30 1561 C 149.727 1.4454 -0.818373 0
M  V30 1562 O 150.912 1.57454 -1.07763 0
M  V30 1563 C 148.052 2.56193 -2.31212 0
M  V30 1564 C 147.165 2.41641 -3.58097 0
M  V30 1565 C 146.3 3.68108 -3.82975 0
M  V30 1566 C 145.339 3.48445 -5.03242 0
M  V30 1567 N 144.476 4.66956 -5.24306 0
M  V30 1568 H 149.316 0.885226 -2.84548 0
M  V30 1569 H 146.853 0.425718 -1.40805 0
M  V30 1570 H 148.811 3.34088 -2.49882 0
M  V30 1571 H 147.441 2.88208 -1.45382 0
M  V30 1572 H 146.493 1.54976 -3.474 0
M  V30 1573 H 147.805 2.23052 -4.46149 0
M  V30 1574 H 146.959 4.54441 -4.01956 0
M  V30 1575 H 145.698 3.89666 -2.93278 0
M  V30 1576 H 144.703 2.60499 -4.8417 0
M  V30 1577 H 145.928 3.2832 -5.9446 0
M  V30 1578 H 143.874 4.88752 -4.37559 0
M  V30 1579 H 143.791 4.51242 -6.06561 0
M  V30 1580 H 145.059 5.54602 -5.47756 0
M  V30 1581 N 149.288 1.51039 0.449983 0
M  V30 1582 C 150.516 1.66869 1.2232 0
M  V30 1583 C 150.931 0.360727 1.85322 0
M  V30 1584 O 150.288 -0.659531 1.70166 0
M  V30 1585 C 150.339 2.77524 2.31652 0
M  V30 1586 O 150.06 4.03252 1.7123 0
M  V30 1587 C 151.561 3.04512 3.2216 0
M  V30 1588 H 148.781 0.560326 0.369155 0
M  V30 1589 H 151.325 1.97385 0.534719 0
M  V30 1590 H 149.48 2.49642 2.96239 0
M  V30 1591 H 149.894 4.64609 2.43389 0
M  V30 1592 H 151.368 3.85551 3.95038 0
M  V30 1593 H 151.845 2.16415 3.8218 0
M  V30 1594 H 152.451 3.34005 2.63288 0
M  V30 1595 N 150.766 -0.704594 1.40972 0
M  V30 1596 C 151.696 -1.83124 1.44872 0
M  V30 1597 C 152.677 -1.67281 0.30838 0
M  V30 1598 O 153.862 -1.87149 0.518556 0
M  V30 1599 C 150.992 -3.21181 1.32136 0
M  V30 1600 C 149.946 -3.51714 2.43888 0
M  V30 1601 C 149.272 -4.89032 2.16222 0
M  V30 1602 C 150.572 -3.516 3.86232 0
M  V30 1603 H 152.266 -1.80117 2.39161 0
M  V30 1604 H 149.812 -0.865145 1.15114 0
M  V30 1605 H 151.765 -3.99702 1.33479 0
M  V30 1606 H 150.489 -3.24791 0.343279 0
M  V30 1607 H 149.148 -2.75539 2.41813 0
M  V30 1608 H 148.796 -4.89256 1.16778 0
M  V30 1609 H 148.496 -5.10426 2.911 0
M  V30 1610 H 150.02 -5.69873 2.19265 0
M  V30 1611 H 151.434 -4.2014 3.9007 0
M  V30 1612 H 149.831 -3.84523 4.60719 0
M  V30 1613 H 150.901 -2.50757 4.15029 0
M  V30 1614 N 152.244 -1.26651 -0.937939 0
M  V30 1615 C 153.491 -1.12387 -1.6845 0
M  V30 1616 C 153.819 0.332208 -1.91642 0
M  V30 1617 O 153.074 1.2602 -1.49725 0
M  V30 1618 C 153.373 -1.84168 -3.06295 0
M  V30 1619 C 153.039 -3.34056 -3.02849 0
M  V30 1620 C 151.701 -3.74942 -3.01616 0
M  V30 1621 C 154.053 -4.29741 -2.9491 0
M  V30 1622 C 151.381 -5.09894 -2.90215 0
M  V30 1623 C 153.733 -5.64738 -2.8505 0
M  V30 1624 C 152.397 -6.0493 -2.82162 0
M  V30 1625 H 151.667 -0.411252 -0.616403 0
M  V30 1626 H 154.314 -1.57134 -1.09459 0
M  V30 1627 H 152.619 -1.319 -3.6893 0
M  V30 1628 H 154.316 -1.70569 -3.62915 0
M  V30 1629 H 150.906 -3.01534 -3.0459 0
M  V30 1630 H 155.09 -3.99133 -2.94969 0
M  V30 1631 H 150.346 -5.40194 -2.86358 0
M  V30 1632 H 154.52 -6.38561 -2.77872 0
M  V30 1633 H 152.147 -7.09457 -2.73084 0
M  V30 1634 N 153.722 1.14298 -1.08507 0
M  V30 1635 C 155.138 1.37347 -0.812901 0
M  V30 1636 C 155.338 1.93052 0.577325 0
M  V30 1637 O 154.394 2.14389 1.33393 0
M  V30 1638 C 155.707 2.33359 -1.89642 0
M  V30 1639 C 157.255 2.46996 -1.92255 0
M  V30 1640 C 157.73 3.46309 -2.99724 0
M  V30 1641 N 159.221 3.53853 -2.98902 0
M  V30 1642 C 159.956 4.3055 -3.787 0
M  V30 1643 N 159.452 5.10482 -4.6838 0
M  V30 1644 N 161.245 4.25757 -3.66998 0
M  V30 1645 H 153.396 0.764867 -1.9815 0
M  V30 1646 H 155.659 0.398966 -0.859959 0
M  V30 1647 H 155.365 1.99565 -2.89597 0
M  V30 1648 H 155.239 3.33274 -1.76659 0
M  V30 1649 H 157.626 2.80081 -0.929445 0
M  V30 1650 H 157.707 1.47039 -2.09316 0
M  V30 1651 H 157.351 3.13957 -3.99241 0
M  V30 1652 H 157.281 4.46049 -2.79907 0
M  V30 1653 H 159.772 2.96812 -2.33904 0
M  V30 1654 H 160.085 5.66284 -5.25873 0
M  V30 1655 H 158.43 5.09747 -4.72422 0
M  V30 1656 H 161.621 3.62383 -2.96304 0
M  V30 1657 H 161.794 4.85279 -4.29427 0
M  V30 1658 N 155.201 0.870884 1.31352 0
M  V30 1659 C 156.448 0.482273 1.96673 0
M  V30 1660 C 156.776 -0.965638 1.68836 0
M  V30 1661 O 156.031 -1.69514 0.977937 0
M  V30 1662 C 156.33 0.687157 3.50732 0
M  V30 1663 C 155.996 2.108 3.9859 0
M  V30 1664 C 154.658 2.49656 4.1137 0
M  V30 1665 C 157.01 3.03459 4.23748 0
M  V30 1666 C 154.338 3.80412 4.46659 0
M  V30 1667 C 156.69 4.3373 4.60501 0
M  V30 1668 C 155.354 4.725 4.71487 0
M  V30 1669 H 154.624 0.176476 0.719679 0
M  V30 1670 H 157.271 1.10405 1.56471 0
M  V30 1671 H 155.576 -0.0177476 3.91796 0
M  V30 1672 H 157.273 0.366284 3.99324 0
M  V30 1673 H 153.863 1.79633 3.8914 0
M  V30 1674 H 158.047 2.74665 4.13368 0
M  V30 1675 H 153.303 4.1021 4.53362 0
M  V30 1676 H 157.477 5.05578 4.78919 0
M  V30 1677 H 155.104 5.73859 4.98588 0
M  V30 1678 N 156.679 -1.44442 0.630414 0
M  V30 1679 C 157.904 -2.06927 0.139944 0
M  V30 1680 C 158.329 -1.46795 -1.17613 0
M  V30 1681 O 157.687 -0.569144 -1.72135 0
M  V30 1682 C 157.735 -3.6058 0.0379581 0
M  V30 1683 O 156.839 -3.99937 -1.0062 0
M  V30 1684 H 156.18 -0.658608 0.0844483 0
M  V30 1685 H 158.71 -1.85327 0.866891 0
M  V30 1686 H 158.72 -4.07714 -0.152856 0
M  V30 1687 H 157.395 -4.03728 0.998809 0
M  V30 1688 H 155.972 -3.64436 -0.79001 0
M  V30 1689 N 158.157 -0.370918 -1.53173 0
M  V30 1690 C 159.12 0.460778 -2.24521 0
M  V30 1691 C 160.12 1.00536 -1.25496 0
M  V30 1692 O 161.31 0.890266 -1.49733 0
M  V30 1693 C 158.442 1.64457 -2.98608 0
M  V30 1694 H 159.635 -0.163613 -2.99453 0
M  V30 1695 H 157.188 -0.122699 -1.55818 0
M  V30 1696 H 157.923 2.30691 -2.2793 0
M  V30 1697 H 157.708 1.26099 -3.7127 0
M  V30 1698 H 159.198 2.23384 -3.5283 0
M  V30 1699 N 159.635 1.57281 -0.100228 0
M  V30 1700 C 160.863 1.98879 0.570509 0
M  V30 1701 C 161.278 0.979476 1.61405 0
M  V30 1702 O 160.635 -0.0302288 1.82475 0
M  V30 1703 C 160.686 3.4052 1.2136 0
M  V30 1704 O 160.407 4.37588 0.211786 0
M  V30 1705 C 161.908 3.97149 1.96945 0
M  V30 1706 H 159.128 0.653428 0.152555 0
M  V30 1707 H 161.672 2.03697 -0.18103 0
M  V30 1708 H 159.827 3.367 1.91603 0
M  V30 1709 H 160.241 5.20118 0.676607 0
M  V30 1710 H 161.715 4.98393 2.37294 0
M  V30 1711 H 162.192 3.3525 2.83733 0
M  V30 1712 H 162.798 4.04458 1.31506 0
M  V30 1713 N 161.113 -0.173488 1.56642 0
M  V30 1714 C 162.524 -0.736155 1.71574 0
M  V30 1715 C 162.875 -1.82888 0.710389 0
M  V30 1716 O 162 -2.16017 -0.1287 0
M  V30 1717 C 162.595 -1.34211 3.11083 0
M  V30 1718 C 161.154 -1.85162 3.27707 0
M  V30 1719 C 160.301 -0.729765 2.67525 0
M  V30 1720 H 163.252 0.0518786 1.58615 0
M  V30 1721 H 163.273 -2.21178 3.09613 0
M  V30 1722 H 162.785 -0.546579 3.84232 0
M  V30 1723 H 160.886 -2.67366 2.59512 0
M  V30 1724 H 160.999 -1.99855 4.35425 0
M  V30 1725 H 159.363 -1.14965 2.27278 0
M  V30 1726 H 160.146 0.0538806 3.43258 0
M  V30 1727 N 162.591 -1.51276 -0.441967 0
M  V30 1728 C 163.554 -1.7167 -1.51862 0
M  V30 1729 C 164.554 -0.586793 -1.49711 0
M  V30 1730 O 165.744 -0.854276 -1.51815 0
M  V30 1731 C 162.876 -1.76889 -2.91416 0
M  V30 1732 H 164.069 -2.67754 -1.35084 0
M  V30 1733 H 161.622 -1.41196 -0.670333 0
M  V30 1734 H 162.357 -0.826026 -3.13604 0
M  V30 1735 H 162.142 -2.59001 -2.94382 0
M  V30 1736 H 163.632 -1.94522 -3.69528 0
M  V30 1737 N 164.069 0.697108 -1.41344 0
M  V30 1738 C 164.999 1.82353 -1.45841 0
M  V30 1739 C 165.98 1.67115 -0.317247 0
M  V30 1740 O 167.165 1.86871 -0.528474 0
M  V30 1741 C 164.295 3.20476 -1.33838 0
M  V30 1742 C 163.249 3.50415 -2.4575 0
M  V30 1743 C 162.575 4.87878 -2.18813 0
M  V30 1744 C 163.875 3.49546 -3.88091 0
M  V30 1745 H 165.569 1.78846 -2.40113 0
M  V30 1746 H 163.115 0.859028 -1.15571 0
M  V30 1747 H 165.068 3.98988 -1.35596 0
M  V30 1748 H 163.792 3.24604 -0.360498 0
M  V30 1749 H 162.451 2.74253 -2.43271 0
M  V30 1750 H 162.099 4.8863 -1.19371 0
M  V30 1751 H 161.799 5.08875 -2.93803 0
M  V30 1752 H 163.323 5.68702 -2.22284 0
M  V30 1753 H 164.737 4.18066 -3.92293 0
M  V30 1754 H 163.134 3.82075 -4.62751 0
M  V30 1755 H 164.204 2.48552 -4.16353 0
M  V30 1756 N 165.547 1.27147 0.931209 0
M  V30 1757 C 166.777 1.15914 1.71019 0
M  V30 1758 C 167.185 -0.287112 1.87009 0
M  V30 1759 O 166.528 -1.20761 1.38429 0
M  V30 1760 C 166.59 1.76647 3.13107 0
M  V30 1761 C 166.254 3.25807 3.20467 0
M  V30 1762 C 167.251 4.22489 3.02983 0
M  V30 1763 C 164.936 3.66452 3.43538 0
M  V30 1764 C 166.93 5.57794 3.08454 0
M  V30 1765 C 164.617 5.01888 3.48643 0
M  V30 1766 C 165.615 5.97369 3.31119 0
M  V30 1767 O 165.303 7.30337 3.35952 0
M  V30 1768 H 165.035 0.404062 0.54195 0
M  V30 1769 H 167.589 1.68457 1.17521 0
M  V30 1770 H 165.819 1.18578 3.68071 0
M  V30 1771 H 167.508 1.60179 3.72958 0
M  V30 1772 H 168.274 3.92425 2.85004 0
M  V30 1773 H 164.153 2.92611 3.5623 0
M  V30 1774 H 167.697 6.32298 2.94694 0
M  V30 1775 H 163.594 5.31609 3.66145 0
M  V30 1776 H 164.362 7.38739 3.5243 0
M  V30 1777 N 167.025 -1.13721 1.09112 0
M  V30 1778 C 168.274 -1.84275 0.82009 0
M  V30 1779 C 168.587 -1.84253 -0.656509 0
M  V30 1780 O 169.793 -2.50668 -1.04296 0
M  V30 1781 C 168.249 -3.30825 1.41714 0
M  V30 1782 C 167.857 -3.39244 2.92605 0
M  V30 1783 C 169.601 -4.06443 1.22492 0
M  V30 1784 C 167.508 -4.80047 3.45411 0
M  V30 1785 H 166.438 -0.690387 0.30312 0
M  V30 1786 H 169.089 -1.28146 1.31343 0
M  V30 1787 H 167.471 -3.86737 0.851498 0
M  V30 1788 H 168.645 -2.93344 3.55367 0
M  V30 1789 H 166.96 -2.77088 3.10823 0
M  V30 1790 H 169.557 -5.10387 1.59402 0
M  V30 1791 H 169.9 -4.15972 0.165299 0
M  V30 1792 H 170.433 -3.56852 1.75788 0
M  V30 1793 H 167.172 -4.75709 4.50978 0
M  V30 1794 H 166.692 -5.26455 2.87411 0
M  V30 1795 H 168.371 -5.48957 3.42425 0
M  V30 1796 N 168.503 -0.877838 -1.30888 0
M  V30 1797 C 169.433 -0.35534 -2.3078 0
M  V30 1798 C 170.414 0.557994 -1.60687 0
M  V30 1799 O 171.599 0.473355 -1.88343 0
M  V30 1800 C 168.729 0.437221 -3.44537 0
M  V30 1801 C 167.683 -0.383715 -4.26276 0
M  V30 1802 C 167.009 0.535014 -5.32017 0
M  V30 1803 C 168.309 -1.62201 -4.96476 0
M  V30 1804 H 170.003 -1.19007 -2.74732 0
M  V30 1805 H 167.549 -0.573698 -1.32078 0
M  V30 1806 H 169.502 0.813334 -4.13477 0
M  V30 1807 H 168.226 1.30553 -2.99372 0
M  V30 1808 H 166.885 -0.741874 -3.59015 0
M  V30 1809 H 166.533 1.40083 -4.831 0
M  V30 1810 H 166.233 -0.0104211 -5.87599 0
M  V30 1811 H 167.757 0.907799 -6.03814 0
M  V30 1812 H 169.171 -1.31689 -5.5797 0
M  V30 1813 H 167.568 -2.10711 -5.61891 0
M  V30 1814 H 168.638 -2.37044 -4.23011 0
M  V30 1815 N 169.982 1.44106 -0.638065 0
M  V30 1816 C 171.207 2.0685 -0.150916 0
M  V30 1817 C 171.632 1.47417 1.16833 0
M  V30 1818 O 170.99 0.578264 1.71831 0
M  V30 1819 C 171.038 3.60555 -0.05708 0
M  V30 1820 O 170.142 4.00465 0.984972 0
M  V30 1821 H 169.483 0.658151 -0.0879399 0
M  V30 1822 H 172.013 1.84865 -0.876707 0
M  V30 1823 H 172.023 4.07789 0.131232 0
M  V30 1824 H 170.698 4.03193 -1.02021 0
M  V30 1825 H 169.275 3.64849 0.770672 0
M  V30 1826 N 171.46 0.379036 1.52974 0
M  V30 1827 C 172.871 -0.0972525 1.86447 0
M  V30 1828 C 173.222 -1.47027 1.29914 0
M  V30 1829 O 172.347 -2.07135 0.626433 0
M  V30 1830 C 172.942 -0.183248 3.38304 0
M  V30 1831 C 171.501 -0.603812 3.71525 0
M  V30 1832 C 170.648 0.240632 2.76254 0
M  V30 1833 H 173.599 0.597316 1.4703 0
M  V30 1834 H 173.62 -1.00432 3.67006 0
M  V30 1835 H 173.132 0.816191 3.79421 0
M  V30 1836 H 171.233 -1.61099 3.35973 0
M  V30 1837 H 171.346 -0.369086 4.77676 0
M  V30 1838 H 169.71 -0.292548 2.53014 0
M  V30 1839 H 170.493 1.23786 3.20206 0
M  V30 1840 N 172.938 -1.57226 0.108567 0
M  V30 1841 C 174.185 -1.94833 -0.551943 0
M  V30 1842 C 174.513 -0.991204 -1.67348 0
M  V30 1843 O 173.768 -0.0131878 -1.95696 0
M  V30 1844 C 174.067 -3.38911 -1.13463 0
M  V30 1845 C 173.733 -4.50696 -0.135509 0
M  V30 1846 C 172.395 -4.80998 0.139252 0
M  V30 1847 C 174.747 -5.18333 0.545957 0
M  V30 1848 C 172.075 -5.76259 1.10194 0
M  V30 1849 C 174.427 -6.14627 1.49721 0
M  V30 1850 C 173.091 -6.43327 1.78006 0
M  V30 1851 H 172.361 -0.712944 -0.20197 0
M  V30 1852 H 175.008 -1.90582 0.18726 0
M  V30 1853 H 173.313 -3.39805 -1.95037 0
M  V30 1854 H 175.01 -3.65317 -1.65362 0
M  V30 1855 H 171.6 -4.27087 -0.359846 0
M  V30 1856 H 175.784 -4.95087 0.346842 0
M  V30 1857 H 171.04 -5.96804 1.32795 0
M  V30 1858 H 175.214 -6.66126 2.03099 0
M  V30 1859 H 172.841 -7.1695 2.52759 0
M  V30 1860 N 174.416 0.165178 -1.56732 0
M  V30 1861 C 175.364 1.22369 -1.97809 0
M  V30 1862 C 176.358 1.45488 -0.867741 0
M  V30 1863 O 177.564 1.45995 -1.05288 0
M  V30 1864 H 173.939 0.411486 -0.629431 0
M  V30 1865 H 175.91 0.850425 -2.86025 0
M  V30 1866 C 174.659 2.55403 -2.35934 0
M  V30 1867 H 173.982 2.38438 -3.20916 0
M  V30 1868 H 175.422 3.2814 -2.68514 0
M  V30 1869 C 173.881 3.14611 -1.20506 0
M  V30 1870 O 174.411 3.98626 -0.496016 0
M  V30 1871 N 172.617 2.7379 -0.97403 0
M  V30 1872 H 172.164 2.0557 -1.55238 0
M  V30 1873 H 172.122 3.1374 -0.203573 0
M  V30 1874 N 175.894 1.51508 0.433938 0
M  V30 1875 C 176.824 1.76016 1.53429 0
M  V30 1876 C 177.805 0.610112 1.58782 0
M  V30 1877 O 178.99 0.853177 1.74455 0
M  V30 1878 C 176.12 1.88831 2.9148 0
M  V30 1879 C 175.074 3.04288 3.00987 0
M  V30 1880 C 174.4 3.0229 4.4105 0
M  V30 1881 C 175.7 4.44193 2.74754 0
M  V30 1882 H 177.394 2.68152 1.33171 0
M  V30 1883 H 174.94 1.29035 0.639214 0
M  V30 1884 H 176.893 2.04559 3.6842 0
M  V30 1885 H 175.617 0.933455 3.12976 0
M  V30 1886 H 174.276 2.8827 2.26486 0
M  V30 1887 H 173.924 2.04576 4.59519 0
M  V30 1888 H 173.624 3.79822 4.4834 0
M  V30 1889 H 175.148 3.20116 5.1996 0
M  V30 1890 H 176.562 4.60544 3.41426 0
M  V30 1891 H 174.959 5.23457 2.9345 0
M  V30 1892 H 176.029 4.53996 1.70339 0
M  V30 1893 N 177.372 -0.689602 1.41712 0
M  V30 1894 C 178.621 -1.44534 1.40686 0
M  V30 1895 C 178.934 -1.95588 0.0213352 0
M  V30 1896 O 180.14 -2.71271 -0.111534 0
M  V30 1897 C 178.596 -2.61387 2.47396 0
M  V30 1898 C 178.204 -2.17094 3.91885 0
M  V30 1899 C 179.948 -3.38986 2.55517 0
M  V30 1900 C 177.855 -3.3094 4.90135 0
M  V30 1901 H 176.785 -0.542925 0.52321 0
M  V30 1902 H 179.436 -0.748054 1.6756 0
M  V30 1903 H 177.818 -3.33412 2.13664 0
M  V30 1904 H 178.992 -1.52318 4.34897 0
M  V30 1905 H 177.307 -1.52473 3.8748 0
M  V30 1906 H 179.904 -4.23747 3.26102 0
M  V30 1907 H 180.247 -3.84578 1.59391 0
M  V30 1908 H 180.78 -2.74021 2.8837 0
M  V30 1909 H 177.519 -2.90355 5.87685 0
M  V30 1910 H 177.039 -3.94546 4.51767 0
M  V30 1911 H 178.718 -3.9663 5.11169 0
M  V30 1912 N 178.85 -1.27639 -0.924453 0
M  V30 1913 C 180.266 -1.05113 -1.20097 0
M  V30 1914 C 180.466 0.213262 -2.00368 0
M  V30 1915 O 179.522 0.91787 -2.35226 0
M  V30 1916 C 180.835 -2.29244 -1.94596 0
M  V30 1917 C 182.383 -2.34315 -2.07522 0
M  V30 1918 C 182.858 -3.58183 -2.85427 0
M  V30 1919 N 184.349 -3.5876 -2.92994 0
M  V30 1920 C 185.084 -4.51277 -3.53746 0
M  V30 1921 N 184.58 -5.54102 -4.15863 0
M  V30 1922 N 186.373 -4.38894 -3.51181 0
M  V30 1923 H 178.524 -2.08821 -0.388264 0
M  V30 1924 H 180.787 -0.918568 -0.234385 0
M  V30 1925 H 180.493 -3.21301 -1.43034 0
M  V30 1926 H 180.367 -2.34816 -2.95197 0
M  V30 1927 H 182.754 -1.42762 -2.58269 0
M  V30 1928 H 182.835 -2.32744 -1.06131 0
M  V30 1929 H 182.479 -4.50074 -2.35363 0
M  V30 1930 H 182.409 -3.57006 -3.8711 0
M  V30 1931 H 184.9 -2.84398 -2.4885 0
M  V30 1932 H 185.213 -6.20859 -4.60168 0
M  V30 1933 H 183.558 -5.57941 -4.144 0
M  V30 1934 H 186.749 -3.57772 -3.01856 0
M  V30 1935 H 186.922 -5.11186 -3.98237 0
M  V30 1936 N 180.328 1.1314 -1.09713 0
M  V30 1937 C 181.744 1.36477 -0.827423 0
M  V30 1938 C 181.944 1.93654 0.556817 0
M  V30 1939 O 181 2.15791 1.31112 0
M  V30 1940 C 182.313 2.31334 -1.92106 0
M  V30 1941 C 183.861 2.44943 -1.94864 0
M  V30 1942 C 184.336 3.4311 -3.0338 0
M  V30 1943 N 185.827 3.50662 -3.02639 0
M  V30 1944 C 186.562 4.2651 -3.83246 0
M  V30 1945 N 186.058 5.05485 -4.73768 0
M  V30 1946 N 187.851 4.2184 -3.71493 0
M  V30 1947 H 180.002 0.743807 -1.9895 0
M  V30 1948 H 182.265 0.389823 -0.864143 0
M  V30 1949 H 181.971 1.96483 -2.91698 0
M  V30 1950 H 181.845 3.31381 -1.80184 0
M  V30 1951 H 184.232 2.79079 -0.959099 0
M  V30 1952 H 184.313 1.4481 -2.10864 0
M  V30 1953 H 183.957 3.09704 -4.02549 0
M  V30 1954 H 183.887 4.43055 -2.84622 0
M  V30 1955 H 186.378 2.94315 -2.37039 0
M  V30 1956 H 186.691 5.60675 -5.3185 0
M  V30 1957 H 185.036 5.04708 -4.77802 0
M  V30 1958 H 188.227 3.5922 -3.00131 0
M  V30 1959 H 188.4 4.80697 -4.3455 0
M  V30 1960 N 181.806 0.884767 1.30421 0
M  V30 1961 C 183.055 0.499164 1.95426 0
M  V30 1962 C 183.368 -0.95645 1.70621 0
M  V30 1963 O 184.574 -1.44889 2.29607 0
M  V30 1964 C 183.03 0.84177 3.49917 0
M  V30 1965 C 182.638 2.31514 3.83543 0
M  V30 1966 C 184.382 0.525355 4.21237 0
M  V30 1967 C 182.289 2.59939 5.31212 0
M  V30 1968 H 181.219 0.182944 0.73147 0
M  V30 1969 H 183.87 1.07971 1.48373 0
M  V30 1970 H 182.252 0.190311 3.95542 0
M  V30 1971 H 183.426 3.0109 3.48829 0
M  V30 1972 H 181.741 2.59907 3.25326 0
M  V30 1973 H 184.338 0.714762 5.29901 0
M  V30 1974 H 184.681 -0.535222 4.12845 0
M  V30 1975 H 185.214 1.134 3.81294 0
M  V30 1976 H 181.953 3.64736 5.44654 0
M  V30 1977 H 181.473 1.94972 5.67227 0
M  V30 1978 H 183.152 2.45429 5.98643 0
M  V30 1979 N 183.284 -1.43765 0.645699 0
M  V30 1980 C 184.247 -2.29163 -0.0409488 0
M  V30 1981 C 185.247 -1.41813 -0.757996 0
M  V30 1982 O 186.437 -1.63527 -0.600382 0
M  V30 1983 C 183.569 -3.23716 -1.06869 0
M  V30 1984 H 184.762 -2.91366 0.710345 0
M  V30 1985 H 182.315 -1.5092 0.406547 0
M  V30 1986 H 183.05 -2.66393 -1.84947 0
M  V30 1987 H 182.835 -3.88105 -0.558277 0
M  V30 1988 H 184.325 -3.87831 -1.54845 0
M  V30 1989 N 184.763 -0.387143 -1.52771 0
M  V30 1990 C 186.012 0.19697 -2.00736 0
M  V30 1991 C 186.325 1.48082 -1.27793 0
M  V30 1992 O 187.531 2.14485 -1.66458 0
M  V30 1993 C 185.987 0.401568 -3.57653 0
M  V30 1994 C 185.595 -0.868907 -4.39493 0
M  V30 1995 C 187.339 0.942164 -4.13912 0
M  V30 1996 C 185.246 -0.632705 -5.88006 0
M  V30 1997 H 184.176 0.0773827 -0.750019 0
M  V30 1998 H 186.827 -0.50921 -1.76293 0
M  V30 1999 H 185.209 1.16954 -3.78335 0
M  V30 2000 H 186.383 -1.64133 -4.30577 0
M  V30 2001 H 184.698 -1.33429 -3.94443 0
M  V30 2002 H 187.295 1.13455 -5.22525 0
M  V30 2003 H 187.638 1.9106 -3.69867 0
M  V30 2004 H 188.171 0.233814 -3.97112 0
M  V30 2005 H 184.91 -1.57208 -6.36369 0
M  V30 2006 H 184.43 0.100825 -5.99715 0
M  V30 2007 H 186.109 -0.26642 -6.46451 0
M  V30 2008 N 186.241 1.57166 -0.116904 0
M  V30 2009 C 187.188 2.15202 0.83408 0
M  V30 2010 C 188.158 1.07644 1.26499 0
M  V30 2011 O 189.343 1.35541 1.34288 0
M  V30 2012 C 186.483 2.75405 2.07957 0
M  V30 2013 C 185.596 3.97264 1.69721 0
M  V30 2014 C 184.731 4.45561 2.89221 0
M  V30 2015 C 183.77 5.59956 2.47215 0
M  V30 2016 N 182.907 6.03006 3.59622 0
M  V30 2017 H 187.747 2.96141 0.332335 0
M  V30 2018 H 185.284 1.46309 0.152349 0
M  V30 2019 H 187.242 3.08439 2.80929 0
M  V30 2020 H 185.872 1.97159 2.55594 0
M  V30 2021 H 184.924 3.70404 0.866316 0
M  V30 2022 H 186.236 4.80226 1.34849 0
M  V30 2023 H 185.39 4.80493 3.7042 0
M  V30 2024 H 184.129 3.61544 3.27318 0
M  V30 2025 H 183.134 5.2463 1.64448 0
M  V30 2026 H 184.359 6.45738 2.10238 0
M  V30 2027 H 182.305 5.21931 3.97396 0
M  V30 2028 H 182.222 6.80819 3.28667 0
M  V30 2029 H 183.49 6.42576 4.41267 0
M  V30 2030 N 187.719 -0.156864 1.56817 0
M  V30 2031 C 188.968 -0.869504 1.81996 0
M  V30 2032 C 189.281 -1.82777 0.696545 0
M  V30 2033 O 190.487 -2.58384 0.833658 0
M  V30 2034 C 188.943 -1.59679 3.22538 0
M  V30 2035 C 188.551 -0.681431 4.42787 0
M  V30 2036 C 190.295 -2.2968 3.56997 0
M  V30 2037 C 188.202 -1.40978 5.74351 0
M  V30 2038 H 187.132 -0.328438 0.678708 0
M  V30 2039 H 189.783 -0.1223 1.83092 0
M  V30 2040 H 188.165 -2.38927 3.158 0
M  V30 2041 H 189.339 0.0751166 4.60739 0
M  V30 2042 H 187.654 -0.0903431 4.16302 0
M  V30 2043 H 190.251 -2.84794 4.52544 0
M  V30 2044 H 190.594 -3.05707 2.82576 0
M  V30 2045 H 191.127 -1.57361 3.65352 0
M  V30 2046 H 187.866 -0.691561 6.51842 0
M  V30 2047 H 187.386 -2.13929 5.60352 0
M  V30 2048 H 189.065 -1.95337 6.16808 0
M  V30 2049 N 189.197 -1.51736 -0.425897 0
M  V30 2050 C 190.127 -1.76827 -1.52494 0
M  V30 2051 C 191.108 -0.618524 -1.58456 0
M  V30 2052 O 192.293 -0.862416 -1.74 0
M  V30 2053 C 189.423 -1.90374 -2.90474 0
M  V30 2054 C 188.377 -3.0588 -2.99369 0
M  V30 2055 C 187.703 -3.04625 -4.3944 0
M  V30 2056 C 189.003 -4.45644 -2.72394 0
M  V30 2057 H 190.697 -2.68855 -1.31748 0
M  V30 2058 H 188.243 -1.29372 -0.632362 0
M  V30 2059 H 190.196 -2.0651 -3.6733 0
M  V30 2060 H 188.92 -0.95004 -3.12477 0
M  V30 2061 H 187.579 -2.89467 -2.24954 0
M  V30 2062 H 187.227 -2.0701 -4.58428 0
M  V30 2063 H 186.927 -3.82195 -4.46319 0
M  V30 2064 H 188.451 -3.22869 -5.18255 0
M  V30 2065 H 189.865 -4.62348 -3.38979 0
M  V30 2066 H 188.262 -5.25006 -2.9067 0
M  V30 2067 H 189.332 -4.54893 -1.67929 0
M  V30 2068 N 190.675 0.682077 -1.42076 0
M  V30 2069 C 191.924 1.43786 -1.41451 0
M  V30 2070 C 192.237 1.95574 -0.0317074 0
M  V30 2071 O 193.443 2.71326 0.0971462 0
M  V30 2072 C 191.899 2.60071 -2.48779 0
M  V30 2073 C 191.507 2.15013 -3.93031 0
M  V30 2074 C 193.251 3.37626 -2.57311 0
M  V30 2075 C 191.158 3.28336 -4.91883 0
M  V30 2076 H 190.088 0.540143 -0.526082 0
M  V30 2077 H 192.739 0.739157 -1.67955 0
M  V30 2078 H 191.121 3.32275 -2.15429 0
M  V30 2079 H 192.295 1.5001 -4.35699 0
M  V30 2080 H 190.61 1.50416 -3.88284 0
M  V30 2081 H 193.207 4.22012 -3.28345 0
M  V30 2082 H 193.55 3.83727 -1.61429 0
M  V30 2083 H 194.083 2.72488 -2.89819 0
M  V30 2084 H 190.822 2.87234 -5.89217 0
M  V30 2085 H 190.342 3.92145 -4.53853 0
M  V30 2086 H 192.021 3.93913 -5.13265 0
M  V30 2087 N 192.153 1.28127 0.917671 0
M  V30 2088 C 193.103 1.08361 2.00604 0
M  V30 2089 C 194.087 0.00847518 1.60898 0
M  V30 2090 O 195.279 0.228167 1.75523 0
M  V30 2091 C 192.408 0.743376 3.35155 0
M  V30 2092 C 191.494 1.85716 3.81275 0
M  V30 2093 N 191.885 3.09822 3.99805 0
M  V30 2094 C 190.183 1.74612 4.10398 0
M  V30 2095 C 190.884 3.82368 4.38372 0
M  V30 2096 N 189.86 3.10192 4.4641 0
M  V30 2097 H 193.662 2.02531 2.12975 0
M  V30 2098 H 191.176 1.18989 1.10523 0
M  V30 2099 H 193.173 0.582859 4.12805 0
M  V30 2100 H 191.833 -0.190595 3.2414 0
M  V30 2101 H 192.844 3.45475 3.85833 0
M  V30 2102 H 189.521 0.883657 4.08041 0
M  V30 2103 H 190.911 4.89082 4.60704 0
M  V30 2104 N 193.631 -1.12557 1.10312 0
M  V30 2105 C 194.856 -1.88405 0.867085 0
M  V30 2106 C 195.281 -1.79038 -0.576817 0
M  V30 2107 O 194.639 -1.14439 -1.40618 0
M  V30 2108 C 194.687 -3.3563 1.31851 0
M  V30 2109 O 193.791 -4.09565 0.482734 0
M  V30 2110 H 193.132 -0.585455 0.313271 0
M  V30 2111 H 195.662 -1.42352 1.4696 0
M  V30 2112 H 195.672 -3.86469 1.3079 0
M  V30 2113 H 194.347 -3.41765 2.37001 0
M  V30 2114 H 192.924 -3.68695 0.558448 0
M  V30 2115 N 195.109 -0.891671 -1.2995 0
M  V30 2116 C 196.355 -0.514261 -1.96171 0
M  V30 2117 C 196.688 0.935506 -1.70182 0
M  V30 2118 O 195.963 1.66204 -1.01028 0
M  V30 2119 C 196.246 -0.797719 -3.51153 0
M  V30 2120 C 196.099 -2.2986 -3.86632 0
M  V30 2121 C 197.418 -0.278749 -4.39216 0
M  V30 2122 H 194.537 -0.188314 -0.712535 0
M  V30 2123 H 197.179 -1.11689 -1.53706 0
M  V30 2124 H 195.329 -0.284826 -3.87455 0
M  V30 2125 H 197.001 -2.88042 -3.60319 0
M  V30 2126 H 195.244 -2.76257 -3.34462 0
M  V30 2127 H 195.915 -2.44753 -4.94773 0
M  V30 2128 H 198.391 -0.717825 -4.09862 0
M  V30 2129 H 197.267 -0.506353 -5.46559 0
M  V30 2130 H 197.528 0.820266 -4.34424 0
M  V30 2131 N 196.587 1.43421 -0.653314 0
M  V30 2132 C 197.834 2.01812 -0.166745 0
M  V30 2133 C 198.162 1.51535 1.21931 0
M  V30 2134 O 197.417 0.698975 1.82792 0
M  V30 2135 C 197.716 3.57176 -0.126623 0
M  V30 2136 C 197.382 4.26798 -1.45444 0
M  V30 2137 C 196.044 4.45534 -1.81805 0
M  V30 2138 C 198.396 4.66225 -2.32989 0
M  V30 2139 C 195.724 5.00961 -3.05377 0
M  V30 2140 C 198.076 5.23021 -3.55853 0
M  V30 2141 C 196.74 5.39973 -3.9241 0
M  V30 2142 H 196.01 0.738484 -0.0610162 0
M  V30 2143 H 198.657 1.71896 -0.84404 0
M  V30 2144 H 196.962 3.86634 0.634123 0
M  V30 2145 H 198.659 4.00112 0.266723 0
M  V30 2146 H 195.249 4.12561 -1.16153 0
M  V30 2147 H 199.433 4.51443 -2.06187 0
M  V30 2148 H 194.689 5.12271 -3.3375 0
M  V30 2149 H 198.863 5.52518 -4.23907 0
M  V30 2150 H 196.49 5.82687 -4.88242 0
M  V30 2151 N 198.065 0.39524 1.52563 0
M  V30 2152 C 199.29 -0.187456 2.06551 0
M  V30 2153 C 199.715 -1.39249 1.26457 0
M  V30 2154 O 199.073 -1.78947 0.291151 0
M  V30 2155 C 199.121 -0.529985 3.56684 0
M  V30 2156 O 198.225 -1.62307 3.79118 0
M  V30 2157 H 197.566 -0.0202537 0.663691 0
M  V30 2158 H 200.096 0.564426 1.96661 0
M  V30 2159 H 200.106 -0.792598 4.00227 0
M  V30 2160 H 198.781 0.350987 4.14416 0
M  V30 2161 H 197.358 -1.3537 3.47461 0
M  V30 2162 N 199.544 -1.57102 0.125237 0
M  V30 2163 C 200.477 -2.11371 -0.860094 0
M  V30 2164 C 201.455 -1.03168 -1.25679 0
M  V30 2165 O 202.639 -1.30862 -1.35674 0
M  V30 2166 C 199.766 -2.61555 -2.1519 0
M  V30 2167 C 198.812 -3.81701 -1.9028 0
M  V30 2168 S 199.645 -5.23797 -1.11343 0
M  V30 2169 C 200.801 -5.77353 -2.41689 0
M  V30 2170 H 201.034 -2.94617 -0.39852 0
M  V30 2171 H 198.567 -1.54145 -0.0886555 0
M  V30 2172 H 200.525 -2.91122 -2.89411 0
M  V30 2173 H 199.186 -1.78479 -2.58465 0
M  V30 2174 H 198.379 -4.14985 -2.86014 0
M  V30 2175 H 197.981 -3.52783 -1.24178 0
M  V30 2176 H 200.273 -5.87458 -3.37489 0
M  V30 2177 H 201.216 -6.75323 -2.12942 0
M  V30 2178 H 201.624 -5.05457 -2.51342 0
M  V30 2179 N 201.022 0.148545 -1.56898 0
M  V30 2180 C 202.271 0.85984 -1.82454 0
M  V30 2181 C 202.584 1.82406 -0.706229 0
M  V30 2182 O 203.79 2.57938 -0.847349 0
M  V30 2183 C 202.246 1.57967 -3.2338 0
M  V30 2184 C 201.854 0.65794 -4.43142 0
M  V30 2185 C 203.598 2.27784 -3.58211 0
M  V30 2186 C 201.505 1.3793 -5.75091 0
M  V30 2187 H 200.435 0.324834 -0.68044 0
M  V30 2188 H 203.086 0.112588 -1.83154 0
M  V30 2189 H 201.468 2.37249 -3.17063 0
M  V30 2190 H 202.642 -0.0995497 -4.60692 0
M  V30 2191 H 200.957 0.0682643 -4.16344 0
M  V30 2192 H 203.554 2.8239 -4.54048 0
M  V30 2193 H 203.897 3.04204 -2.84193 0
M  V30 2194 H 204.43 1.55421 -3.66182 0
M  V30 2195 H 201.169 0.656982 -6.52199 0
M  V30 2196 H 200.689 2.10954 -5.61479 0
M  V30 2197 H 202.368 1.92063 -6.17835 0
M  V30 2198 N 202.5 1.5196 0.417844 0
M  V30 2199 C 203.749 1.6482 1.16264 0
M  V30 2200 C 204.062 0.379886 1.91876 0
M  V30 2201 O 205.268 0.388154 2.68711 0
M  V30 2202 C 203.724 2.91161 2.1155 0
M  V30 2203 C 203.332 4.25068 1.41495 0
M  V30 2204 C 205.076 3.13383 2.86341 0
M  V30 2205 C 202.983 5.42541 2.35379 0
M  V30 2206 H 201.913 0.613954 0.437694 0
M  V30 2207 H 204.564 1.78442 0.427871 0
M  V30 2208 H 202.946 2.71218 2.88543 0
M  V30 2209 H 204.12 4.55463 0.699263 0
M  V30 2210 H 202.435 4.0888 0.787792 0
M  V30 2211 H 205.032 3.98324 3.5671 0
M  V30 2212 H 205.375 2.27256 3.48798 0
M  V30 2213 H 205.908 3.33757 2.1645 0
M  V30 2214 H 202.647 6.30987 1.77582 0
M  V30 2215 H 202.167 5.16497 3.04945 0
M  V30 2216 H 203.846 5.75272 2.96093 0
M  V30 2217 N 203.978 -0.674533 1.42435 0
M  V30 2218 C 204.911 -1.79924 1.40366 0
M  V30 2219 C 205.889 -1.60378 0.267899 0
M  V30 2220 O 207.073 -1.82847 0.458159 0
M  V30 2221 C 204.2 -3.16927 1.19478 0
M  V30 2222 C 203.246 -3.55221 2.36051 0
M  V30 2223 S 204.079 -3.5762 3.98583 0
M  V30 2224 C 205.235 -4.97315 3.80038 0
M  V30 2225 H 205.468 -1.81405 2.35541 0
M  V30 2226 H 203.001 -0.845221 1.29211 0
M  V30 2227 H 204.959 -3.96007 1.08114 0
M  V30 2228 H 203.62 -3.13031 0.258883 0
M  V30 2229 H 202.813 -4.54804 2.17185 0
M  V30 2230 H 202.415 -2.83502 2.43932 0
M  V30 2231 H 204.707 -5.85401 3.41045 0
M  V30 2232 H 205.65 -5.21228 4.79298 0
M  V30 2233 H 206.058 -4.69845 3.12899 0
M  V30 2234 N 205.456 -1.28612 -0.910864 0
M  V30 2235 C 206.696 -1.1719 -1.67469 0
M  V30 2236 C 207.06 0.274441 -1.90028 0
M  V30 2237 O 208.261 0.511425 -2.6389 0
M  V30 2238 C 206.532 -1.95137 -2.99427 0
M  V30 2239 S 208.091 -2.00122 -3.90508 0
M  V30 2240 H 204.909 -0.41806 -0.575106 0
M  V30 2241 H 207.511 -1.6275 -1.08317 0
M  V30 2242 H 206.215 -2.99381 -2.80712 0
M  V30 2243 H 205.746 -1.50137 -3.63624 0
M  V30 2244 H 207.761 -1.10981 -4.8363 0
M  V30 2245 N 206.934 1.1197 -1.10907 0
M  V30 2246 C 208.162 1.87402 -0.876824 0
M  V30 2247 C 208.577 1.79894 0.573025 0
M  V30 2248 O 207.934 1.17629 1.39534 0
M  V30 2249 C 207.985 3.36428 -1.32282 0
M  V30 2250 O 207.706 3.43765 -2.71582 0
M  V30 2251 C 209.207 4.28783 -1.12518 0
M  V30 2252 H 206.427 0.592793 -0.314384 0
M  V30 2253 H 208.971 1.41649 -1.47499 0
M  V30 2254 H 207.126 3.79706 -0.768229 0
M  V30 2255 H 207.54 4.3652 -2.90776 0
M  V30 2256 H 209.014 5.31613 -1.48633 0
M  V30 2257 H 209.491 4.39153 -0.0642394 0
M  V30 2258 H 210.097 3.91291 -1.66648 0
M  V30 2259 N 208.412 0.89855 1.29475 0
M  V30 2260 C 209.661 0.519863 1.94885 0
M  V30 2261 C 209.974 -0.9383 1.71625 0
M  V30 2262 O 211.18 -1.42445 2.31131 0
M  V30 2263 C 209.636 0.878836 3.49005 0
M  V30 2264 C 209.244 2.35569 3.81066 0
M  V30 2265 C 210.988 0.570004 4.20656 0
M  V30 2266 C 208.895 2.65558 5.28425 0
M  V30 2267 H 207.825 0.190692 0.729488 0
M  V30 2268 H 210.476 1.09539 1.47219 0
M  V30 2269 H 208.858 0.232253 3.95318 0
M  V30 2270 H 210.032 3.04773 3.45616 0
M  V30 2271 H 208.347 2.63343 3.22552 0
M  V30 2272 H 210.944 0.770925 5.29113 0
M  V30 2273 H 211.287 -0.491404 4.1339 0
M  V30 2274 H 211.82 1.17438 3.8007 0
M  V30 2275 H 208.559 3.70493 5.40754 0
M  V30 2276 H 208.079 2.00977 5.65127 0
M  V30 2277 H 209.758 2.51765 5.96006 0
M  V30 2278 N 209.89 -1.43072 0.660911 0
M  V30 2279 C 210.82 -2.33497 -0.0122829 0
M  V30 2280 C 211.801 -1.49903 -0.803925 0
M  V30 2281 O 212.986 -1.78546 -0.763864 0
M  V30 2282 C 210.116 -3.33363 -0.973994 0
M  V30 2283 C 209.07 -4.27003 -0.291928 0
M  V30 2284 C 208.396 -5.16967 -1.36562 0
M  V30 2285 C 209.696 -5.15816 0.820462 0
M  V30 2286 H 211.39 -2.90038 0.742873 0
M  V30 2287 H 208.936 -1.39461 0.358688 0
M  V30 2288 H 210.889 -3.95524 -1.45392 0
M  V30 2289 H 209.613 -2.75095 -1.7604 0
M  V30 2290 H 208.272 -3.66217 0.167623 0
M  V30 2291 H 207.92 -4.55034 -2.14366 0
M  V30 2292 H 207.62 -5.80441 -0.914454 0
M  V30 2293 H 209.144 -5.82003 -1.84675 0
M  V30 2294 H 210.558 -5.71742 0.422366 0
M  V30 2295 H 208.955 -5.8805 1.19656 0
M  V30 2296 H 210.025 -4.55045 1.67518 0
M  V30 2297 N 211.368 -0.403325 -1.52352 0
M  V30 2298 C 212.596 0.174012 -2.06167 0
M  V30 2299 C 213.011 1.39347 -1.27388 0
M  V30 2300 O 212.368 1.79597 -0.324201 0
M  V30 2301 C 212.419 0.530223 -3.5759 0
M  V30 2302 O 212.14 -0.640806 -4.33388 0
M  V30 2303 C 213.641 1.16192 -4.27802 0
M  V30 2304 H 210.861 0.0229464 -0.670608 0
M  V30 2305 H 213.405 -0.572604 -1.9632 0
M  V30 2306 H 211.56 1.22673 -3.67464 0
M  V30 2307 H 211.974 -0.344851 -5.23365 0
M  V30 2308 H 213.448 1.36141 -5.34948 0
M  V30 2309 H 213.925 2.13335 -3.83907 0
M  V30 2310 H 214.531 0.505775 -4.22282 0
M  V30 2311 N 212.846 1.57033 -0.133567 0
M  V30 2312 C 213.794 2.17348 0.828412 0
M  V30 2313 C 214.788 1.12671 1.26498 0
M  V30 2314 O 215.994 1.30947 1.23502 0
M  V30 2315 H 212.369 0.695775 0.285309 0
M  V30 2316 H 214.34 2.96935 0.295372 0
M  V30 2317 C 213.089 2.79893 2.06289 0
M  V30 2318 H 212.412 3.60147 1.73592 0
M  V30 2319 H 213.852 3.25615 2.71572 0
M  V30 2320 C 212.311 1.77713 2.86216 0
M  V30 2321 O 212.841 1.23937 3.82103 0
M  V30 2322 N 211.047 1.47321 2.50489 0
M  V30 2323 H 210.594 1.91243 1.7258 0
M  V30 2324 H 210.552 0.79199 3.04261 0
M  V30 2325 N 214.325 -0.140222 1.56975 0
M  V30 2326 C 215.565 -0.857823 1.85528 0
M  V30 2327 C 215.929 -1.78039 0.718768 0
M  V30 2328 O 217.13 -2.53795 0.885521 0
M  V30 2329 C 215.401 -1.60615 3.19277 0
M  V30 2330 S 216.96 -2.36824 3.69405 0
M  V30 2331 H 213.778 -0.286727 0.650622 0
M  V30 2332 H 216.38 -0.117408 1.95147 0
M  V30 2333 H 215.084 -0.919994 3.99955 0
M  V30 2334 H 214.615 -2.38735 3.12681 0
M  V30 2335 H 216.63 -3.62148 3.3921 0
M  V30 2336 N 215.803 -1.52179 -0.40978 0
M  V30 2337 C 217.049 -1.66453 -1.15851 0
M  V30 2338 C 217.382 -0.392972 -1.90182 0
M  V30 2339 O 216.657 0.608579 -1.84734 0
M  V30 2340 C 216.94 -2.88612 -2.15349 0
M  V30 2341 C 216.793 -4.25815 -1.44918 0
M  V30 2342 C 218.112 -3.06294 -3.16026 0
M  V30 2343 H 215.231 -0.60575 -0.419805 0
M  V30 2344 H 217.873 -1.84732 -0.444314 0
M  V30 2345 H 216.023 -2.73158 -2.76255 0
M  V30 2346 H 217.695 -4.52995 -0.871365 0
M  V30 2347 H 215.938 -4.27247 -0.751159 0
M  V30 2348 H 216.609 -5.07337 -2.17516 0
M  V30 2349 H 219.085 -3.20641 -2.65195 0
M  V30 2350 H 217.961 -3.93283 -3.8291 0
M  V30 2351 H 218.222 -2.19579 -3.83715 0
M  V30 2352 N 217.281 0.66697 -1.42791 0
M  V30 2353 C 218.528 1.42699 -1.43678 0
M  V30 2354 C 218.856 1.94419 -0.0560425 0
M  V30 2355 O 218.111 1.7182 0.936831 0
M  V30 2356 C 218.41 2.6349 -2.4147 0
M  V30 2357 C 218.076 2.30267 -3.8767 0
M  V30 2358 C 216.738 2.20918 -4.27491 0
M  V30 2359 C 219.09 2.03435 -4.79858 0
M  V30 2360 C 216.418 1.82873 -5.57471 0
M  V30 2361 C 218.77 1.66892 -6.10188 0
M  V30 2362 C 217.434 1.56058 -6.49001 0
M  V30 2363 H 216.704 0.522171 -0.525755 0
M  V30 2364 H 219.351 0.759785 -1.75783 0
M  V30 2365 H 217.656 3.35279 -2.0272 0
M  V30 2366 H 219.353 3.21684 -2.39417 0
M  V30 2367 H 215.943 2.38449 -3.56146 0
M  V30 2368 H 220.127 2.09586 -4.49875 0
M  V30 2369 H 215.383 1.7306 -5.86396 0
M  V30 2370 H 219.557 1.45157 -6.81104 0
M  V30 2371 H 217.184 1.26348 -7.49627 0
M  V30 2372 N 218.759 1.29093 0.90403 0
M  V30 2373 C 219.692 1.08176 2.00931 0
M  V30 2374 C 220.67 -0.005083 1.62599 0
M  V30 2375 O 221.854 0.144765 1.87943 0
M  V30 2376 C 218.981 0.645897 3.32484 0
M  V30 2377 C 218.027 1.73081 3.89801 0
M  V30 2378 S 218.86 3.32905 4.19446 0
M  V30 2379 C 220.016 2.91176 5.54046 0
M  V30 2380 H 220.249 2.01752 2.18365 0
M  V30 2381 H 217.782 1.13191 1.0501 0
M  V30 2382 H 219.74 0.401131 4.08535 0
M  V30 2383 H 218.401 -0.270188 3.12936 0
M  V30 2384 H 217.594 1.37768 4.84805 0
M  V30 2385 H 217.196 1.92888 3.20422 0
M  V30 2386 H 219.488 2.37952 6.34338 0
M  V30 2387 H 220.431 3.85014 5.94281 0
M  V30 2388 H 220.839 2.296 5.15698 0
M  V30 2389 N 220.237 -1.11381 1.11499 0
M  V30 2390 C 221.465 -1.86934 0.88675 0
M  V30 2391 C 221.88 -1.80195 -0.563476 0
M  V30 2392 O 221.237 -1.18367 -1.38908 0
M  V30 2393 C 221.288 -3.35722 1.34064 0
M  V30 2394 O 221.009 -3.4232 2.73401 0
M  V30 2395 C 222.51 -4.2818 1.14791 0
M  V30 2396 H 219.73 -0.591117 0.317523 0
M  V30 2397 H 222.274 -1.40865 1.48248 0
M  V30 2398 H 220.429 -3.79294 0.788355 0
M  V30 2399 H 220.843 -4.34971 2.93087 0
M  V30 2400 H 222.317 -5.30817 1.5145 0
M  V30 2401 H 222.794 -4.39113 0.0875279 0
M  V30 2402 H 223.4 -3.90402 1.68721 0
M  V30 2403 N 221.715 -0.905404 -1.28997 0
M  V30 2404 C 222.962 -0.534248 -1.95325 0
M  V30 2405 C 223.29 0.920535 -1.71337 0
M  V30 2406 O 222.545 1.66861 -1.02254 0
M  V30 2407 C 222.844 -0.779906 -3.48787 0
M  V30 2408 C 222.51 -2.21293 -3.92861 0
M  V30 2409 C 221.172 -2.60475 -4.04606 0
M  V30 2410 C 223.524 -3.14587 -4.15553 0
M  V30 2411 C 220.852 -3.9212 -4.36416 0
M  V30 2412 C 223.204 -4.45787 -4.48839 0
M  V30 2413 C 221.868 -4.84834 -4.58794 0
M  V30 2414 H 221.138 -0.195495 -0.714747 0
M  V30 2415 H 223.785 -1.14514 -1.53488 0
M  V30 2416 H 222.09 -0.0861365 -3.91705 0
M  V30 2417 H 223.787 -0.472029 -3.98212 0
M  V30 2418 H 220.377 -1.89887 -3.84241 0
M  V30 2419 H 224.561 -2.85528 -4.0594 0
M  V30 2420 H 219.817 -4.22086 -4.42327 0
M  V30 2421 H 223.991 -5.18098 -4.65346 0
M  V30 2422 H 221.618 -5.86877 -4.83197 0
M  V30 2423 N 223.193 1.4272 -0.668489 0
M  V30 2424 C 224.418 2.06484 -0.194758 0
M  V30 2425 C 224.843 1.49862 1.13679 0
M  V30 2426 O 224.201 0.614582 1.70565 0
M  V30 2427 C 224.249 3.60353 -0.133546 0
M  V30 2428 O 223.353 4.02464 0.899806 0
M  V30 2429 H 222.694 0.656137 -0.10188 0
M  V30 2430 H 225.224 1.82964 -0.915722 0
M  V30 2431 H 225.234 4.07976 0.0447041 0
M  V30 2432 H 223.909 4.00938 -1.1055 0
M  V30 2433 H 222.486 3.66402 0.693109 0
M  V30 2434 N 224.671 0.411399 1.52136 0
M  V30 2435 C 225.619 -0.427633 2.28635 0
M  V30 2436 C 226.613 -1.04383 1.33419 0
M  V30 2437 O 227.819 -0.981772 1.50868 0
M  V30 2438 H 224.194 -0.156689 0.735495 0
M  V30 2439 H 226.165 0.238761 2.97443 0
M  V30 2440 C 224.914 -1.53082 3.12188 0
M  V30 2441 H 224.237 -1.06601 3.85326 0
M  V30 2442 H 225.677 -2.09167 3.68816 0
M  V30 2443 C 224.136 -2.49946 2.25895 0
M  V30 2444 O 224.666 -3.53884 1.90076 0
M  V30 2445 N 222.872 -2.2021 1.8962 0
M  V30 2446 H 222.419 -1.35719 2.18948 0
M  V30 2447 H 222.377 -2.85266 1.32176 0
M  V30 2448 N 226.149 -1.5696 0.141893 0
M  V30 2449 C 227.56 -1.82797 -0.379776 0
M  V30 2450 C 227.911 -1.06033 -1.6508 0
M  V30 2451 O 227.036 -0.304011 -2.14254 0
M  V30 2452 C 227.631 -3.31578 -0.695802 0
M  V30 2453 C 226.19 -3.58014 -1.16201 0
M  V30 2454 C 225.337 -2.76699 -0.182455 0
M  V30 2455 H 228.288 -1.54406 0.366675 0
M  V30 2456 H 228.309 -3.47454 -1.55099 0
M  V30 2457 H 227.821 -3.87421 0.229449 0
M  V30 2458 H 225.922 -3.07553 -2.10338 0
M  V30 2459 H 226.035 -4.66501 -1.09151 0
M  V30 2460 H 224.399 -2.45618 -0.674072 0
M  V30 2461 H 225.182 -3.35311 0.736297 0
M  V30 2462 N 227.627 0.131896 -1.57047 0
M  V30 2463 C 229.038 0.690407 -1.73465 0
M  V30 2464 C 229.389 1.8094 -0.758629 0
M  V30 2465 O 228.514 2.16282 0.0713813 0
M  V30 2466 C 229.109 1.25916 -3.14532 0
M  V30 2467 C 227.668 1.76409 -3.32501 0
M  V30 2468 C 226.815 0.658579 -2.69366 0
M  V30 2469 H 229.766 -0.0939144 -1.58422 0
M  V30 2470 H 229.787 2.12892 -3.15369 0
M  V30 2471 H 229.299 0.444515 -3.85546 0
M  V30 2472 H 227.4 2.60391 -2.66509 0
M  V30 2473 H 227.513 1.88241 -4.4057 0
M  V30 2474 H 225.877 1.08899 -2.30246 0
M  V30 2475 H 226.66 -0.14487 -3.42994 0
M  V30 2476 N 229.106 1.52395 0.401703 0
M  V30 2477 C 230.383 1.57387 1.16141 0
M  V30 2478 C 230.763 0.359359 2.08019 0
M  V30 2479 O 230.111 -0.65326 2.18963 0
M  V30 2480 C 230.321 2.90631 1.93221 0
M  V30 2481 C 231.669 3.43904 2.49028 0
M  V30 2482 O 232.693 2.92421 2.03393 0
M  V30 2483 O 231.552 4.33823 3.32356 0
M  V30 2484 H 228.646 0.634262 0.530698 0
M  V30 2485 H 231.192 1.64725 0.407883 0
M  V30 2486 H 229.964 3.70473 1.25958 0
M  V30 2487 H 229.587 2.8662 2.75563 0
M  V30 2488 N 230.584 -0.659388 1.43143 0
M  V30 2489 C 231.83 -1.41984 1.45644 0
M  V30 2490 C 232.185 -1.92245 0.0771718 0
M  V30 2491 O 231.478 -1.68976 -0.903205 0
M  V30 2492 C 231.672 -2.62206 2.42864 0
M  V30 2493 C 231.501 -2.23711 3.90107 0
M  V30 2494 C 230.271 -2.12332 4.58523 0
M  V30 2495 C 232.469 -1.84384 4.80112 0
M  V30 2496 N 230.451 -1.67102 5.9072 0
M  V30 2497 C 231.822 -1.5019 6.01534 0
M  V30 2498 C 233.877 -1.71512 4.67427 0
M  V30 2499 C 232.58 -1.04414 7.11681 0
M  V30 2500 C 234.606 -1.27142 5.77572 0
M  V30 2501 C 233.968 -0.938808 6.98116 0
M  V30 2502 H 230.067 -0.515448 0.588079 0
M  V30 2503 H 232.651 -0.759409 1.79279 0
M  V30 2504 H 230.822 -3.25917 2.11265 0
M  V30 2505 H 232.554 -3.28877 2.35843 0
M  V30 2506 H 229.309 -2.31893 4.12944 0
M  V30 2507 H 229.733 -1.46866 6.60878 0
M  V30 2508 H 234.375 -1.95868 3.74694 0
M  V30 2509 H 232.093 -0.788061 8.04248 0
M  V30 2510 H 235.679 -1.17681 5.69774 0
M  V30 2511 H 234.559 -0.6007 7.81896 0
M  V30 2512 N 232.062 -1.29571 -0.897171 0
M  V30 2513 C 233.287 -1.20705 -1.68656 0
M  V30 2514 C 233.712 0.228582 -1.86706 0
M  V30 2515 O 233.07 1.16494 -1.3892 0
M  V30 2516 C 233.118 -1.9282 -3.04717 0
M  V30 2517 O 232.222 -1.24697 -3.93096 0
M  V30 2518 H 231.563 -0.418126 -0.515816 0
M  V30 2519 H 234.093 -1.71183 -1.12061 0
M  V30 2520 H 234.103 -2.01372 -3.54843 0
M  V30 2521 H 232.778 -2.97239 -2.90899 0
M  V30 2522 H 231.355 -1.2442 -3.51531 0
M  V30 2523 N 233.54 1.10788 -1.12088 0
M  V30 2524 C 234.487 2.17025 -0.785407 0
M  V30 2525 C 235.457 1.64265 0.246191 0
M  V30 2526 O 236.642 1.90412 0.121584 0
M  V30 2527 C 233.782 3.44249 -0.242177 0
M  V30 2528 C 232.895 4.1098 -1.33115 0
M  V30 2529 C 232.03 5.25911 -0.747741 0
M  V30 2530 C 231.069 5.84538 -1.81609 0
M  V30 2531 N 230.206 6.90853 -1.25167 0
M  V30 2532 H 235.046 2.45066 -1.69548 0
M  V30 2533 H 232.583 1.20297 -0.846582 0
M  V30 2534 H 234.541 4.17101 0.0908026 0
M  V30 2535 H 233.171 3.16571 0.631072 0
M  V30 2536 H 232.223 3.36133 -1.78097 0
M  V30 2537 H 233.535 4.50601 -2.13917 0
M  V30 2538 H 232.689 6.056 -0.365216 0
M  V30 2539 H 231.428 4.87614 0.0915188 0
M  V30 2540 H 230.433 5.03522 -2.20785 0
M  V30 2541 H 231.658 6.249 -2.6585 0
M  V30 2542 H 229.604 6.54562 -0.434174 0
M  V30 2543 H 229.521 7.29166 -1.99633 0
M  V30 2544 H 230.789 7.7433 -0.896259 0
M  V30 2545 N 235.018 0.912232 1.28515 0
M  V30 2546 C 235.966 0.389597 2.29314 0
M  V30 2547 C 236.96 -0.517915 1.61289 0
M  V30 2548 O 238.166 -0.399328 1.75515 0
M  V30 2549 H 234.541 0.107386 0.744293 0
M  V30 2550 H 236.512 1.25286 2.70825 0
M  V30 2551 C 235.261 -0.356496 3.45868 0
M  V30 2552 H 234.584 0.332608 3.98414 0
M  V30 2553 H 236.024 -0.686851 4.184 0
M  V30 2554 C 234.483 -1.56383 2.98406 0
M  V30 2555 O 235.013 -2.66294 3.00749 0
M  V30 2556 N 233.219 -1.41029 2.54085 0
M  V30 2557 H 232.766 -0.516089 2.52377 0
M  V30 2558 H 232.724 -2.21939 2.22689 0
M  V30 2559 N 236.496 -1.42363 0.676048 0
M  V30 2560 C 237.742 -2.0182 0.199125 0
M  V30 2561 C 238.075 -1.53339 -1.19168 0
M  V30 2562 O 237.35 -0.736124 -1.80032 0
M  V30 2563 C 237.633 -3.59331 0.235144 0
M  V30 2564 C 237.486 -4.17989 1.66149 0
M  V30 2565 C 238.805 -4.3813 -0.41595 0
M  V30 2566 H 235.924 -0.733293 0.0738311 0
M  V30 2567 H 238.566 -1.69368 0.86107 0
M  V30 2568 H 236.716 -3.87109 -0.328487 0
M  V30 2569 H 238.388 -4.0116 2.27747 0
M  V30 2570 H 236.631 -3.7377 2.20178 0
M  V30 2571 H 237.302 -5.27126 1.63837 0
M  V30 2572 H 239.778 -4.16051 0.0638529 0
M  V30 2573 H 238.654 -5.47717 -0.360115 0
M  V30 2574 H 238.915 -4.16101 -1.49373 0
M  V30 2575 N 237.974 -0.419461 -1.51915 0
M  V30 2576 C 238.884 0.407528 -2.31033 0
M  V30 2577 C 239.9 1.04413 -1.3919 0
M  V30 2578 O 241.076 1.0434 -1.72265 0
M  V30 2579 C 238.141 1.50365 -3.12396 0
M  V30 2580 C 237.202 0.889029 -4.19994 0
M  V30 2581 C 236.435 1.93291 -4.97468 0
M  V30 2582 O 236.658 3.15259 -4.75361 0
M  V30 2583 O 235.592 1.53339 -5.8204 0
M  V30 2584 H 239.418 -0.237865 -3.02767 0
M  V30 2585 H 237.003 -0.182413 -1.48282 0
M  V30 2586 H 238.885 2.13975 -3.63032 0
M  V30 2587 H 237.56 2.13345 -2.43445 0
M  V30 2588 H 236.467 0.215353 -3.7348 0
M  V30 2589 H 237.8 0.302991 -4.91267 0
M  V30 2590 N 239.452 1.56882 -0.150215 0
M  V30 2591 C 240.682 2.00302 0.506213 0
M  V30 2592 C 241.09 1.02934 1.58749 0
M  V30 2593 O 240.433 0.0188384 1.8369 0
M  V30 2594 C 240.495 3.40156 1.16337 0
M  V30 2595 C 240.159 4.56439 0.226311 0
M  V30 2596 C 241.156 5.17012 -0.547265 0
M  V30 2597 C 238.841 5.02136 0.128279 0
M  V30 2598 C 240.835 6.21693 -1.40629 0
M  V30 2599 C 238.522 6.06672 -0.734345 0
M  V30 2600 C 239.52 6.6632 -1.50023 0
M  V30 2601 O 239.208 7.68831 -2.34848 0
M  V30 2602 H 238.94 0.662182 0.135984 0
M  V30 2603 H 241.494 2.03961 -0.242746 0
M  V30 2604 H 239.724 3.33346 1.96004 0
M  V30 2605 H 241.413 3.67663 1.71985 0
M  V30 2606 H 242.179 4.82603 -0.48158 0
M  V30 2607 H 238.058 4.55435 0.714157 0
M  V30 2608 H 241.602 6.68179 -2.00455 0
M  V30 2609 H 237.499 6.40507 -0.801309 0
M  V30 2610 H 238.267 7.86065 -2.28131 0
M  V30 2611 N 240.93 -0.123565 1.57115 0
M  V30 2612 C 242.158 -0.846461 1.88793 0
M  V30 2613 C 242.573 -1.73652 0.740976 0
M  V30 2614 O 241.93 -1.80207 -0.288393 0
M  V30 2615 C 241.981 -1.6837 3.19897 0
M  V30 2616 O 241.702 -0.829477 4.30176 0
M  V30 2617 C 243.203 -2.51214 3.65248 0
M  V30 2618 H 240.423 -0.243573 0.625231 0
M  V30 2619 H 242.967 -0.109324 2.04208 0
M  V30 2620 H 241.122 -2.37364 3.06165 0
M  V30 2621 H 241.536 -1.40651 5.0529 0
M  V30 2622 H 243.01 -3.05497 4.59756 0
M  V30 2623 H 243.487 -3.28359 2.9168 0
M  V30 2624 H 244.093 -1.8747 3.81752 0
M  V30 2625 N 242.408 -1.52605 -0.393616 0
M  V30 2626 C 243.655 -1.67424 -1.1391 0
M  V30 2627 C 243.983 -0.411859 -1.90089 0
M  V30 2628 O 243.238 0.605626 -1.86093 0
M  V30 2629 C 243.537 -2.85721 -2.14705 0
M  V30 2630 C 243.203 -4.23342 -1.55218 0
M  V30 2631 C 241.865 -4.60771 -1.3872 0
M  V30 2632 C 244.217 -5.09041 -1.11924 0
M  V30 2633 C 241.545 -5.81563 -0.774689 0
M  V30 2634 C 243.897 -6.30452 -0.520853 0
M  V30 2635 C 242.561 -6.66617 -0.343134 0
M  V30 2636 H 241.831 -0.612648 -0.416826 0
M  V30 2637 H 244.478 -1.8674 -0.424315 0
M  V30 2638 H 242.783 -2.60803 -2.92385 0
M  V30 2639 H 244.48 -2.94382 -2.72288 0
M  V30 2640 H 241.07 -3.93855 -1.69045 0
M  V30 2641 H 245.254 -4.80695 -1.23473 0
M  V30 2642 H 240.51 -6.08196 -0.625154 0
M  V30 2643 H 244.684 -6.96175 -0.177065 0
M  V30 2644 H 242.311 -7.60083 0.133571 0
M  V30 2645 N 243.887 0.651787 -1.4349 0
M  V30 2646 C 245.115 1.43937 -1.48626 0
M  V30 2647 C 245.53 1.8851 -0.104587 0
M  V30 2648 O 244.887 1.5958 0.885464 0
M  V30 2649 C 244.938 2.6734 -2.43334 0
M  V30 2650 O 244.659 2.24631 -3.76128 0
M  V30 2651 C 246.16 3.60683 -2.57726 0
M  V30 2652 H 243.38 0.44213 -0.504739 0
M  V30 2653 H 245.924 0.798944 -1.88248 0
M  V30 2654 H 244.079 3.2752 -2.06904 0
M  V30 2655 H 244.493 3.04485 -4.2707 0
M  V30 2656 H 245.967 4.43933 -3.28067 0
M  V30 2657 H 246.444 4.08126 -1.62265 0
M  V30 2658 H 247.05 3.06384 -2.94973 0
M  V30 2659 N 245.365 1.30045 0.890287 0
M  V30 2660 C 246.613 1.18327 1.63839 0
M  V30 2661 C 246.934 -0.263455 1.93212 0
M  V30 2662 O 246.204 -1.17856 1.56482 0
M  V30 2663 H 244.784 0.434933 0.607324 0
M  V30 2664 H 247.446 1.631 1.06698 0
M  V30 2665 H 246.542 1.74024 2.59079 0
M  V30 2666 N 246.843 -1.10192 1.12674 0
M  V30 2667 C 248.092 -1.81573 0.8783 0
M  V30 2668 C 248.405 -1.86249 -0.597557 0
M  V30 2669 O 249.611 -2.5386 -0.962681 0
M  V30 2670 C 248.067 -3.26149 1.52167 0
M  V30 2671 C 247.675 -3.29763 3.03249 0
M  V30 2672 C 249.419 -4.0234 1.3536 0
M  V30 2673 C 247.326 -4.68815 3.60508 0
M  V30 2674 H 246.256 -0.680394 0.324931 0
M  V30 2675 H 248.907 -1.23902 1.35353 0
M  V30 2676 H 247.289 -3.83832 0.974104 0
M  V30 2677 H 248.463 -2.8189 3.6452 0
M  V30 2678 H 246.778 -2.67059 3.19481 0
M  V30 2679 H 249.375 -5.05058 1.75559 0
M  V30 2680 H 249.718 -4.15235 0.297554 0
M  V30 2681 H 250.251 -3.51079 1.87052 0
M  V30 2682 H 246.99 -4.61121 4.65884 0
M  V30 2683 H 246.51 -5.17045 3.04014 0
M  V30 2684 H 248.189 -5.37785 3.59717 0
M  V30 2685 N 248.321 -0.919034 -1.28029 0
M  V30 2686 C 249.551 -0.570143 -1.98577 0
M  V30 2687 C 249.959 0.854172 -1.68821 0
M  V30 2688 O 249.302 1.57807 -0.940351 0
M  V30 2689 C 249.364 -0.705734 -3.52505 0
M  V30 2690 C 249.028 -2.10057 -4.05863 0
M  V30 2691 C 250.025 -3.07385 -4.19298 0
M  V30 2692 C 247.71 -2.41517 -4.40426 0
M  V30 2693 C 249.704 -4.34287 -4.66555 0
M  V30 2694 C 247.391 -3.68657 -4.87376 0
M  V30 2695 C 248.389 -4.64856 -5.00398 0
M  V30 2696 O 248.077 -5.89735 -5.46322 0
M  V30 2697 H 247.809 -0.215592 -0.6407 0
M  V30 2698 H 250.363 -1.23583 -1.64062 0
M  V30 2699 H 248.593 0.0170414 -3.86696 0
M  V30 2700 H 250.282 -0.363172 -4.04272 0
M  V30 2701 H 251.048 -2.84398 -3.92865 0
M  V30 2702 H 246.927 -1.67389 -4.29537 0
M  V30 2703 H 250.471 -5.09377 -4.76635 0
M  V30 2704 H 246.368 -3.91466 -5.13249 0
M  V30 2705 H 247.136 -5.92599 -5.64596 0
M  V30 2706 N 249.799 1.42003 -0.683588 0
M  V30 2707 C 251.027 2.05746 -0.218182 0
M  V30 2708 C 251.442 1.51396 1.12804 0
M  V30 2709 O 250.799 0.657303 1.70252 0
M  V30 2710 C 250.85 3.61171 -0.154131 0
M  V30 2711 O 250.571 4.13508 -1.44716 0
M  V30 2712 C 252.072 4.42042 0.333713 0
M  V30 2713 H 249.292 0.662888 -0.10402 0
M  V30 2714 H 251.836 1.81987 -0.9328 0
M  V30 2715 H 249.991 3.84012 0.511231 0
M  V30 2716 H 250.405 5.07453 -1.32632 0
M  V30 2717 H 251.879 5.51028 0.327423 0
M  V30 2718 H 252.356 4.17269 1.37053 0
M  V30 2719 H 252.962 4.24239 -0.300222 0
M  V30 2720 N 251.277 0.427512 1.51691 0
M  V30 2721 C 252.524 -0.142229 2.02 0
M  V30 2722 C 252.852 -1.43566 1.31221 0
M  V30 2723 O 252.107 -1.91298 0.412744 0
M  V30 2724 C 252.406 -0.418249 3.54944 0
M  V30 2725 C 252.072 0.788187 4.43958 0
M  V30 2726 C 250.734 1.11906 4.68007 0
M  V30 2727 C 253.086 1.59347 4.96244 0
M  V30 2728 C 250.414 2.25608 5.41588 0
M  V30 2729 C 252.766 2.7214 5.71072 0
M  V30 2730 C 251.43 3.05692 5.93387 0
M  V30 2731 H 250.7 -0.0520451 0.73917 0
M  V30 2732 H 253.347 0.572697 1.82736 0
M  V30 2733 H 251.652 -1.21496 3.72486 0
M  V30 2734 H 253.349 -0.872339 3.91397 0
M  V30 2735 H 249.939 0.520344 4.2543 0
M  V30 2736 H 254.123 1.35106 4.77556 0
M  V30 2737 H 249.379 2.51929 5.57083 0
M  V30 2738 H 253.553 3.34914 6.10578 0
M  V30 2739 H 251.18 3.9391 6.50184 0
M  V30 2740 N 252.755 -1.56801 0.158532 0
M  V30 2741 C 253.665 -2.20916 -0.789518 0
M  V30 2742 C 254.681 -1.1969 -1.26294 0
M  V30 2743 O 255.857 -1.52308 -1.31773 0
M  V30 2744 C 252.922 -2.82727 -2.00665 0
M  V30 2745 C 251.983 -3.99114 -1.58134 0
M  V30 2746 C 251.216 -4.57968 -2.74045 0
M  V30 2747 O 251.439 -4.15704 -3.90572 0
M  V30 2748 O 250.373 -5.48047 -2.48855 0
M  V30 2749 H 254.199 -3.02464 -0.273681 0
M  V30 2750 H 251.784 -1.4924 -0.0690548 0
M  V30 2751 H 253.666 -3.21968 -2.71872 0
M  V30 2752 H 252.341 -2.04184 -2.51179 0
M  V30 2753 H 251.248 -3.64567 -0.839155 0
M  V30 2754 H 252.581 -4.79212 -1.12325 0
M  V30 2755 N 254.233 0.115231 -1.57178 0
M  V30 2756 C 255.458 0.840354 -1.89612 0
M  V30 2757 C 255.883 1.72464 -0.750845 0
M  V30 2758 O 255.241 1.78826 0.298478 0
M  V30 2759 C 255.289 1.64654 -3.20814 0
M  V30 2760 O 254.393 2.7538 -3.06985 0
M  V30 2761 H 253.734 0.232158 -0.622092 0
M  V30 2762 H 256.264 0.0964977 -2.04372 0
M  V30 2763 H 256.274 2.03499 -3.53627 0
M  V30 2764 H 254.949 0.997416 -4.03763 0
M  V30 2765 H 253.526 2.3971 -2.85646 0
M  V30 2766 N 255.711 1.52812 0.385517 0
M  V30 2767 C 256.641 1.80808 1.47752 0
M  V30 2768 C 257.622 0.660318 1.5676 0
M  V30 2769 O 258.807 0.908246 1.71652 0
M  V30 2770 C 255.937 1.98008 2.85324 0
M  V30 2771 C 254.891 3.13709 2.91154 0
M  V30 2772 C 254.217 3.16169 4.31209 0
M  V30 2773 C 255.517 4.52709 2.60483 0
M  V30 2774 H 257.211 2.72253 1.24573 0
M  V30 2775 H 254.757 1.31003 0.597839 0
M  V30 2776 H 256.71 2.16176 3.61726 0
M  V30 2777 H 255.434 1.03255 3.09848 0
M  V30 2778 H 254.093 2.95329 2.17201 0
M  V30 2779 H 253.741 2.19092 4.52778 0
M  V30 2780 H 253.441 3.93894 4.36029 0
M  V30 2781 H 254.965 3.36496 5.09512 0
M  V30 2782 H 256.379 4.71173 3.26602 0
M  V30 2783 H 254.776 5.32528 2.76648 0
M  V30 2784 H 255.846 4.59186 1.55809 0
M  V30 2785 N 257.189 -0.644168 1.43834 0
M  V30 2786 C 258.435 -1.40603 1.46146 0
M  V30 2787 C 258.768 -1.93997 0.0887717 0
M  V30 2788 O 258.043 -1.72854 -0.891724 0
M  V30 2789 C 258.326 -2.58086 2.51124 0
M  V30 2790 C 258.179 -2.10126 3.97702 0
M  V30 2791 C 259.498 -3.60291 2.52742 0
M  V30 2792 H 256.617 -0.509905 0.532134 0
M  V30 2793 H 259.259 -0.729502 1.75437 0
M  V30 2794 H 257.409 -3.15801 2.26278 0
M  V30 2795 H 259.081 -1.57342 4.33637 0
M  V30 2796 H 257.324 -1.41419 4.10101 0
M  V30 2797 H 257.995 -2.94649 4.66783 0
M  V30 2798 H 260.471 -3.12352 2.7491 0
M  V30 2799 H 259.347 -4.40032 3.28121 0
M  V30 2800 H 259.608 -4.1349 1.56455 0
M  V30 2801 N 258.668 -1.30515 -0.883378 0
M  V30 2802 C 259.615 -1.17032 -1.98927 0
M  V30 2803 C 260.585 -0.0594241 -1.65994 0
M  V30 2804 O 261.77 -0.229895 -1.8941 0
M  V30 2805 C 258.91 -0.869777 -3.33959 0
M  V30 2806 C 258.023 -2.06271 -3.79574 0
M  V30 2807 C 257.158 -1.70011 -5.03259 0
M  V30 2808 C 256.197 -2.8579 -5.41286 0
M  V30 2809 N 255.334 -2.49816 -6.56153 0
M  V30 2810 H 260.174 -2.1164 -2.09792 0
M  V30 2811 H 257.711 -1.05296 -1.02719 0
M  V30 2812 H 259.669 -0.676138 -4.11685 0
M  V30 2813 H 258.299 0.0394332 -3.22776 0
M  V30 2814 H 257.351 -2.36755 -2.97744 0
M  V30 2815 H 258.663 -2.92971 -4.03694 0
M  V30 2816 H 257.817 -1.47032 -5.88614 0
M  V30 2817 H 256.556 -0.804829 -4.81013 0
M  V30 2818 H 255.561 -3.09434 -4.54456 0
M  V30 2819 H 256.786 -3.76008 -5.65504 0
M  V30 2820 H 254.732 -1.62795 -6.35479 0
M  V30 2821 H 254.649 -3.30048 -6.8015 0
M  V30 2822 H 255.917 -2.30197 -7.44735 0
M  V30 2823 N 260.146 1.09593 -1.13257 0
M  V30 2824 C 261.395 1.81105 -0.887917 0
M  V30 2825 C 261.708 1.86563 0.587672 0
M  V30 2826 O 262.914 2.54367 0.949204 0
M  V30 2827 C 261.37 3.25338 -1.53895 0
M  V30 2828 C 260.978 3.28151 -3.04994 0
M  V30 2829 C 262.722 4.01617 -1.37492 0
M  V30 2830 C 260.629 4.66897 -3.6299 0
M  V30 2831 H 259.559 0.678661 -0.328534 0
M  V30 2832 H 262.21 1.23183 -1.36008 0
M  V30 2833 H 260.592 3.8331 -0.994446 0
M  V30 2834 H 261.766 2.79953 -3.66009 0
M  V30 2835 H 260.081 2.65361 -3.20893 0
M  V30 2836 H 262.678 5.04119 -1.78235 0
M  V30 2837 H 263.021 4.15072 -0.31957 0
M  V30 2838 H 263.554 3.50082 -1.88912 0
M  V30 2839 H 260.293 4.58643 -4.68323 0
M  V30 2840 H 259.813 5.15426 -3.06752 0
M  V30 2841 H 261.492 5.3587 -3.62563 0
M  V30 2842 N 261.624 0.925811 1.2754 0
M  V30 2843 C 262.873 0.561084 1.93739 0
M  V30 2844 C 263.186 -0.901685 1.73577 0
M  V30 2845 O 264.392 -1.37511 2.34101 0
M  V30 2846 C 262.848 0.952668 3.47062 0
M  V30 2847 C 262.456 2.43599 3.75983 0
M  V30 2848 C 264.2 0.659103 4.19352 0
M  V30 2849 C 262.107 2.76707 5.22673 0
M  V30 2850 H 261.037 0.206122 0.725279 0
M  V30 2851 H 263.688 1.12637 1.44863 0
M  V30 2852 H 262.07 0.316053 3.94737 0
M  V30 2853 H 263.244 3.12035 3.39073 0
M  V30 2854 H 261.559 2.70125 3.16893 0
M  V30 2855 H 264.156 0.882985 5.27359 0
M  V30 2856 H 264.499 -0.403607 4.14339 0
M  V30 2857 H 265.032 1.25473 3.77494 0
M  V30 2858 H 261.771 3.8188 5.32774 0
M  V30 2859 H 261.291 2.12919 5.60737 0
M  V30 2860 H 262.97 2.6435 5.90532 0
M  V30 2861 N 263.102 -1.41638 0.69111 0
M  V30 2862 C 264.065 -2.29178 0.0319786 0
M  V30 2863 C 265.065 -1.44153 -0.712496 0
M  V30 2864 O 266.255 -1.65354 -0.548053 0
M  V30 2865 C 263.387 -3.26952 -0.965161 0
M  V30 2866 H 264.58 -2.88959 0.802681 0
M  V30 2867 H 262.133 -1.4955 0.454356 0
M  V30 2868 H 262.868 -2.72142 -1.76378 0
M  V30 2869 H 262.653 -3.89685 -0.434522 0
M  V30 2870 H 264.143 -3.92561 -1.42428 0
M  V30 2871 N 264.58 -0.43555 -1.51462 0
M  V30 2872 C 265.996 -0.0877501 -1.59359 0
M  V30 2873 C 266.196 1.4027 -1.4466 0
M  V30 2874 O 265.252 2.17243 -1.28693 0
M  V30 2875 C 266.565 -0.606264 -2.94525 0
M  V30 2876 C 268.113 -0.566548 -3.0783 0
M  V30 2877 C 268.588 -1.06201 -4.45517 0
M  V30 2878 N 270.079 -1.01992 -4.51832 0
M  V30 2879 C 270.814 -1.37417 -5.5669 0
M  V30 2880 N 270.31 -1.80119 -6.68976 0
M  V30 2881 N 272.103 -1.29245 -5.47039 0
M  V30 2882 H 264.254 -1.40533 -1.59261 0
M  V30 2883 H 266.517 -0.578992 -0.750648 0
M  V30 2884 H 266.223 -1.64901 -3.10645 0
M  V30 2885 H 266.097 -0.0302097 -3.77188 0
M  V30 2886 H 268.484 0.467208 -2.91378 0
M  V30 2887 H 268.565 -1.17898 -2.2701 0
M  V30 2888 H 268.209 -2.09422 -4.62715 0
M  V30 2889 H 268.139 -0.426127 -5.24873 0
M  V30 2890 H 270.63 -0.706308 -3.71241 0
M  V30 2891 H 270.943 -2.05392 -7.45006 0
M  V30 2892 H 269.288 -1.84044 -6.70189 0
M  V30 2893 H 272.479 -0.957522 -4.58202 0
M  V30 2894 H 272.652 -1.57182 -6.28648 0
M  V30 2895 N 266.058 1.56714 -0.166846 0
M  V30 2896 C 267.306 1.96358 0.478305 0
M  V30 2897 C 267.627 1.0537 1.6408 0
M  V30 2898 O 266.897 0.119154 1.95537 0
M  V30 2899 H 265.477 0.725065 0.179692 0
M  V30 2900 H 268.139 1.93329 -0.246985 0
M  V30 2901 H 267.235 3.00547 0.841292 0
M  V30 2902 N 267.536 -0.106894 1.57237 0
M  V30 2903 C 268.783 -0.812526 1.85484 0
M  V30 2904 C 269.111 -1.79304 0.753687 0
M  V30 2905 O 268.366 -1.94047 -0.253853 0
M  V30 2906 C 268.665 -1.58628 3.20268 0
M  V30 2907 C 268.331 -0.748967 4.44636 0
M  V30 2908 C 266.993 -0.518104 4.78403 0
M  V30 2909 C 269.345 -0.166122 5.20935 0
M  V30 2910 C 266.673 0.305659 5.85903 0
M  V30 2911 C 269.025 0.644899 6.29304 0
M  V30 2912 C 267.689 0.885965 6.61594 0
M  V30 2913 H 266.959 -0.297324 0.678734 0
M  V30 2914 H 269.606 -0.0744332 1.91355 0
M  V30 2915 H 267.911 -2.39562 3.10028 0
M  V30 2916 H 269.608 -2.13643 3.39349 0
M  V30 2917 H 266.198 -0.939006 4.18187 0
M  V30 2918 H 270.382 -0.33167 4.95191 0
M  V30 2919 H 265.638 0.501528 6.0934 0
M  V30 2920 H 269.812 1.10345 6.87602 0
M  V30 2921 H 267.439 1.52609 7.44725 0
M  V30 2922 N 269.014 -1.53014 -0.377408 0
M  V30 2923 C 270.254 -1.70318 -1.1301 0
M  V30 2924 C 270.618 -0.439538 -1.86901 0
M  V30 2925 O 271.819 -0.489095 -2.64313 0
M  V30 2926 C 270.09 -2.91125 -2.07319 0
M  V30 2927 S 271.649 -3.29075 -2.90268 0
M  V30 2928 H 268.467 -0.599426 -0.382374 0
M  V30 2929 H 271.069 -1.91089 -0.412933 0
M  V30 2930 H 269.773 -3.81303 -1.51777 0
M  V30 2931 H 269.304 -2.7272 -2.83526 0
M  V30 2932 H 271.319 -2.80165 -4.09539 0
M  V30 2933 N 270.492 0.636531 -1.44174 0
M  V30 2934 C 271.741 1.39213 -1.45954 0
M  V30 2935 C 272.054 1.95374 -0.0939119 0
M  V30 2936 O 273.26 2.71498 0.0107767 0
M  V30 2937 C 271.716 2.52025 -2.56927 0
M  V30 2938 C 271.324 2.024 -3.99673 0
M  V30 2939 C 273.068 3.29269 -2.67922 0
M  V30 2940 C 270.975 3.12521 -5.0208 0
M  V30 2941 H 269.905 0.523132 -0.542999 0
M  V30 2942 H 272.556 0.685349 -1.70221 0
M  V30 2943 H 270.938 3.25253 -2.25891 0
M  V30 2944 H 272.112 1.36073 -4.40251 0
M  V30 2945 H 270.427 1.37987 -3.92872 0
M  V30 2946 H 273.024 4.11352 -3.41605 0
M  V30 2947 H 273.367 3.78397 -1.73555 0
M  V30 2948 H 273.9 2.63129 -2.98342 0
M  V30 2949 H 270.639 2.68343 -5.98057 0
M  V30 2950 H 270.159 3.77507 -4.66099 0
M  V30 2951 H 271.838 3.77385 -5.25538 0
M  V30 2952 N 271.97 1.30982 0.876444 0
M  V30 2953 C 273.247 1.10942 1.61094 0
M  V30 2954 C 273.627 -0.338223 2.08373 0
M  V30 2955 O 272.975 -1.33122 1.85717 0
M  V30 2956 C 273.185 2.11789 2.77392 0
M  V30 2957 C 274.533 2.43965 3.47514 0
M  V30 2958 O 275.557 2.10166 2.87591 0
M  V30 2959 O 274.416 3.01817 4.55597 0
M  V30 2960 H 271.51 0.42667 0.708436 0
M  V30 2961 H 274.056 1.42438 0.922474 0
M  V30 2962 H 272.828 3.09194 2.39823 0
M  V30 2963 H 272.451 1.81161 3.5393 0
M  V30 2964 N 273.449 -1.08991 1.13837 0
M  V30 2965 C 274.697 -1.80899 0.901098 0
M  V30 2966 C 275.018 -1.86356 -0.574134 0
M  V30 2967 O 274.288 -1.35235 -1.41733 0
M  V30 2968 H 272.868 -0.669966 0.330386 0
M  V30 2969 H 275.53 -1.318 1.43578 0
M  V30 2970 H 274.626 -2.83929 1.29578 0
M  V30 2971 N 274.927 -0.932562 -1.27047 0
M  V30 2972 C 276.174 -0.575559 -1.94148 0
M  V30 2973 C 276.502 0.883984 -1.73251 0
M  V30 2974 O 275.757 1.64655 -1.0577 0
M  V30 2975 C 276.056 -0.853713 -3.47054 0
M  V30 2976 C 275.722 -2.29577 -3.88079 0
M  V30 2977 C 274.384 -2.68999 -3.9899 0
M  V30 2978 C 276.736 -3.23331 -4.08787 0
M  V30 2979 C 274.064 -4.01289 -4.28 0
M  V30 2980 C 276.416 -4.55207 -4.39282 0
M  V30 2981 C 275.08 -4.94457 -4.48407 0
M  V30 2982 H 274.35 -0.210612 -0.710439 0
M  V30 2983 H 276.997 -1.17744 -1.51025 0
M  V30 2984 H 275.302 -0.169204 -3.91434 0
M  V30 2985 H 276.999 -0.55639 -3.97121 0
M  V30 2986 H 273.589 -1.97994 -3.80127 0
M  V30 2987 H 277.773 -2.94074 -3.99793 0
M  V30 2988 H 273.029 -4.31374 -4.33275 0
M  V30 2989 H 277.203 -5.27852 -4.54252 0
M  V30 2990 H 274.83 -5.96994 -4.7064 0
M  V30 2991 N 276.405 1.4127 -0.698611 0
M  V30 2992 C 277.633 2.05503 -0.239992 0
M  V30 2993 C 278.048 1.52584 1.11191 0
M  V30 2994 O 277.405 0.675323 1.69545 0
M  V30 2995 C 277.456 3.60987 -0.192429 0
M  V30 2996 O 277.177 4.1195 -1.49094 0
M  V30 2997 C 278.678 4.42371 0.28681 0
M  V30 2998 H 275.898 0.661748 -0.111045 0
M  V30 2999 H 278.442 1.80987 -0.95205 0
M  V30 3000 H 276.597 3.84533 0.470472 0
M  V30 3001 H 277.011 5.06018 -1.38007 0
M  V30 3002 H 278.485 5.51344 0.26896 0
M  V30 3003 H 278.962 4.18699 1.32619 0
M  V30 3004 H 279.568 4.23897 -0.345201 0
M  V30 3005 N 277.883 0.443576 1.51229 0
M  V30 3006 C 279.13 -0.120796 2.02139 0
M  V30 3007 C 279.458 -1.42166 1.32736 0
M  V30 3008 O 278.713 -1.90849 0.43301 0
M  V30 3009 C 279.012 -0.380579 3.55368 0
M  V30 3010 C 278.678 0.83523 4.43097 0
M  V30 3011 C 277.34 1.16864 4.66794 0
M  V30 3012 C 279.692 1.64601 4.94526 0
M  V30 3013 C 277.02 2.31339 5.39165 0
M  V30 3014 C 279.372 2.78181 5.68153 0
M  V30 3015 C 278.036 3.11969 5.90112 0
M  V30 3016 H 277.306 -0.0442023 0.73968 0
M  V30 3017 H 279.953 0.592046 1.82118 0
M  V30 3018 H 278.258 -1.17538 3.73754 0
M  V30 3019 H 279.955 -0.830777 3.923 0
M  V30 3020 H 276.545 0.565437 4.24854 0
M  V30 3021 H 280.729 1.40163 4.76097 0
M  V30 3022 H 275.985 2.57823 5.5438 0
M  V30 3023 H 280.159 3.41371 6.06992 0
M  V30 3024 H 277.786 4.00784 6.45969 0
M  V30 3025 N 279.361 -1.56624 0.175154 0
M  V30 3026 C 280.291 -2.21155 -0.749195 0
M  V30 3027 C 281.272 -1.16836 -1.23626 0
M  V30 3028 O 282.457 -1.45277 -1.28873 0
M  V30 3029 C 279.587 -2.8553 -1.97711 0
M  V30 3030 C 278.541 -3.95921 -1.62575 0
M  V30 3031 C 277.867 -4.47365 -2.92864 0
M  V30 3032 C 279.167 -5.15323 -0.850838 0
M  V30 3033 H 280.861 -2.98653 -0.211295 0
M  V30 3034 H 278.407 -1.43651 -0.100188 0
M  V30 3035 H 280.36 -3.2935 -2.62881 0
M  V30 3036 H 279.084 -2.05406 -2.53921 0
M  V30 3037 H 277.743 -3.52762 -0.997719 0
M  V30 3038 H 277.391 -3.64027 -3.47122 0
M  V30 3039 H 277.091 -5.21839 -2.70106 0
M  V30 3040 H 278.615 -4.93873 -3.59056 0
M  V30 3041 H 280.029 -5.55812 -1.40521 0
M  V30 3042 H 278.426 -5.95739 -0.722154 0
M  V30 3043 H 279.496 -4.84661 0.152082 0
M  V30 3044 N 280.839 0.0985539 -1.57292 0
M  V30 3045 C 282.255 0.45267 -1.53046 0
M  V30 3046 C 282.455 1.80713 -0.891342 0
M  V30 3047 O 281.511 2.4785 -0.482375 0
M  V30 3048 C 282.824 0.418341 -2.97776 0
M  V30 3049 C 284.372 0.500443 -3.08973 0
M  V30 3050 C 284.847 0.496297 -4.55303 0
M  V30 3051 N 286.338 0.557151 -4.59837 0
M  V30 3052 C 287.073 0.575726 -5.70502 0
M  V30 3053 N 286.569 0.550714 -6.90608 0
M  V30 3054 N 288.362 0.620277 -5.58667 0
M  V30 3055 H 280.513 -0.788673 -1.97215 0
M  V30 3056 H 282.776 -0.293188 -0.901524 0
M  V30 3057 H 282.482 -0.509659 -3.47988 0
M  V30 3058 H 282.356 1.2386 -3.56284 0
M  V30 3059 H 284.743 1.41886 -2.58751 0
M  V30 3060 H 284.824 -0.347894 -2.53423 0
M  V30 3061 H 284.468 -0.418162 -5.06176 0
M  V30 3062 H 284.398 1.3618 -5.08687 0
M  V30 3063 H 286.889 0.581816 -3.73394 0
M  V30 3064 H 287.202 0.568075 -7.70709 0
M  V30 3065 H 285.547 0.517816 -6.93068 0
M  V30 3066 H 288.738 0.637322 -4.63741 0
M  V30 3067 H 288.911 0.631283 -6.44918 0
M  V30 3068 N 282.317 1.53212 0.369288 0
M  V30 3069 C 283.594 1.59815 1.12776 0
M  V30 3070 C 283.974 0.403402 2.0721 0
M  V30 3071 O 283.322 -0.606667 2.20299 0
M  V30 3072 C 283.532 2.94664 1.87013 0
M  V30 3073 C 284.88 3.49109 2.41677 0
M  V30 3074 O 285.904 2.96669 1.97144 0
M  V30 3075 O 284.763 4.40775 3.23079 0
M  V30 3076 H 281.857 0.645376 0.517125 0
M  V30 3077 H 284.403 1.65553 0.37285 0
M  V30 3078 H 283.175 3.73061 1.18071 0
M  V30 3079 H 282.798 2.92401 2.69421 0
M  V30 3080 N 283.795 -0.628877 1.44509 0
M  V30 3081 C 285.206 -1.21054 1.42137 0
M  V30 3082 C 285.557 -1.95715 0.137881 0
M  V30 3083 O 284.682 -2.02554 -0.761645 0
M  V30 3084 C 285.277 -2.20189 2.57493 0
M  V30 3085 C 283.836 -2.73777 2.58308 0
M  V30 3086 C 282.983 -1.48813 2.33987 0
M  V30 3087 H 285.934 -0.41942 1.53057 0
M  V30 3088 H 285.955 -3.02833 2.30375 0
M  V30 3089 H 285.467 -1.6582 3.50892 0
M  V30 3090 H 283.568 -3.32142 1.68856 0
M  V30 3091 H 283.681 -3.19662 3.56865 0
M  V30 3092 H 282.045 -1.77024 1.83124 0
M  V30 3093 H 282.828 -0.963442 3.29504 0
M  V30 3094 N 285.273 -1.31445 -0.869486 0
M  V30 3095 C 286.519 -1.22347 -1.62489 0
M  V30 3096 C 286.874 0.216204 -1.91181 0
M  V30 3097 O 286.167 1.14977 -1.53268 0
M  V30 3098 C 286.361 -2.00145 -2.96102 0
M  V30 3099 C 286.19 -3.51531 -2.80456 0
M  V30 3100 C 284.96 -4.20882 -2.79618 0
M  V30 3101 C 287.158 -4.46471 -2.5528 0
M  V30 3102 N 285.14 -5.58421 -2.55027 0
M  V30 3103 C 286.511 -5.71682 -2.39957 0
M  V30 3104 C 288.566 -4.35892 -2.40629 0
M  V30 3105 C 287.269 -6.87511 -2.11472 0
M  V30 3106 C 289.295 -5.51505 -2.13532 0
M  V30 3107 C 288.657 -6.75707 -1.98998 0
M  V30 3108 H 284.756 -0.502815 -0.598917 0
M  V30 3109 H 287.34 -1.65639 -1.02332 0
M  V30 3110 H 285.511 -1.59221 -3.54264 0
M  V30 3111 H 287.243 -1.83063 -3.60929 0
M  V30 3112 H 283.998 -3.72857 -2.92018 0
M  V30 3113 H 284.422 -6.30841 -2.45701 0
M  V30 3114 H 289.064 -3.40533 -2.50593 0
M  V30 3115 H 286.782 -7.82897 -2.00245 0
M  V30 3116 H 290.368 -5.45238 -2.02995 0
M  V30 3117 H 289.248 -7.63655 -1.78326 0
M  V30 3118 N 286.751 1.08385 -1.14413 0
M  V30 3119 C 287.699 2.17406 -0.826888 0
M  V30 3120 C 288.693 1.6827 0.195312 0
M  V30 3121 O 289.899 1.79927 0.0513892 0
M  V30 3122 H 286.274 0.70934 -0.249681 0
M  V30 3123 H 288.245 2.41388 -1.75426 0
M  V30 3124 C 286.994 3.46215 -0.320979 0
M  V30 3125 H 286.317 3.84401 -1.0989 0
M  V30 3126 H 287.757 4.23777 -0.137549 0
M  V30 3127 C 286.216 3.23067 0.955472 0
M  V30 3128 O 286.746 3.4668 2.02918 0
M  V30 3129 N 284.952 2.7661 0.890798 0
M  V30 3130 H 284.499 2.57594 0.0168815 0
M  V30 3131 H 284.457 2.61501 1.74542 0
M  V30 3132 N 288.23 0.939286 1.26551 0
M  V30 3133 C 289.476 0.596234 1.94465 0
M  V30 3134 C 289.831 -0.855013 1.72358 0
M  V30 3135 O 289.124 -1.6034 1.04889 0
M  V30 3136 C 289.318 0.872106 3.46596 0
M  V30 3137 C 289.147 2.34862 3.83497 0
M  V30 3138 C 287.917 3.00344 4.06352 0
M  V30 3139 C 290.115 3.32697 3.92195 0
M  V30 3140 N 288.097 4.38027 4.30123 0
M  V30 3141 C 289.468 4.55631 4.20476 0
M  V30 3142 C 291.523 3.27747 3.74815 0
M  V30 3143 C 290.226 5.74233 4.33185 0
M  V30 3144 C 292.252 4.45672 3.88755 0
M  V30 3145 C 291.614 5.67388 4.17433 0
M  V30 3146 H 287.713 0.268515 0.734455 0
M  V30 3147 H 290.297 1.2083 1.5267 0
M  V30 3148 H 288.468 0.289102 3.87323 0
M  V30 3149 H 290.2 0.490513 4.01716 0
M  V30 3150 H 286.955 2.50969 4.01636 0
M  V30 3151 H 287.379 5.09288 4.46044 0
M  V30 3152 H 292.021 2.34703 3.51673 0
M  V30 3153 H 289.739 6.67731 4.55149 0
M  V30 3154 H 293.325 4.43372 3.76713 0
M  V30 3155 H 292.205 6.57115 4.27983 0
M  V30 3156 N 289.708 -1.40897 0.706093 0
M  V30 3157 C 290.638 -2.33418 0.0620085 0
M  V30 3158 C 291.619 -1.52385 -0.755827 0
M  V30 3159 O 292.804 -1.80886 -0.706674 0
M  V30 3160 C 289.934 -3.36293 -0.867445 0
M  V30 3161 C 288.888 -4.27716 -0.155932 0
M  V30 3162 C 288.214 -5.2105 -1.20046 0
M  V30 3163 C 289.514 -5.12944 0.984149 0
M  V30 3164 H 291.208 -2.87527 0.83477 0
M  V30 3165 H 288.754 -1.38249 0.402875 0
M  V30 3166 H 290.707 -3.99949 -1.32735 0
M  V30 3167 H 289.431 -2.80556 -1.67199 0
M  V30 3168 H 288.09 -3.65498 0.284047 0
M  V30 3169 H 287.738 -4.61624 -1.99781 0
M  V30 3170 H 287.438 -5.83056 -0.729328 0
M  V30 3171 H 288.962 -5.87584 -1.66066 0
M  V30 3172 H 290.376 -5.70109 0.604048 0
M  V30 3173 H 288.773 -5.83945 1.38304 0
M  V30 3174 H 289.843 -4.49485 1.81911 0
M  V30 3175 N 291.186 -0.45159 -1.50991 0
M  V30 3176 C 292.463 0.170707 -1.94854 0
M  V30 3177 C 292.843 1.58788 -1.39103 0
M  V30 3178 O 292.191 2.20913 -0.583921 0
M  V30 3179 C 292.401 0.133929 -3.48743 0
M  V30 3180 C 293.749 0.33248 -4.23296 0
M  V30 3181 O 294.773 0.211403 -3.55572 0
M  V30 3182 O 293.632 0.57486 -5.43468 0
M  V30 3183 H 290.726 0.122264 -0.817912 0
M  V30 3184 H 293.272 -0.510594 -1.61836 0
M  V30 3185 H 292.044 -0.856283 -3.81816 0
M  V30 3186 H 291.667 0.857529 -3.88242 0
M  V30 3187 N 292.664 1.56529 -0.183458 0
M  V30 3188 C 293.911 1.97244 0.458357 0
M  V30 3189 C 294.239 1.06992 1.62428 0
M  V30 3190 O 293.494 0.106542 1.9541 0
M  V30 3191 C 293.793 3.43939 0.971637 0
M  V30 3192 C 293.459 4.5083 -0.0796784 0
M  V30 3193 C 292.121 4.79786 -0.368584 0
M  V30 3194 C 294.473 5.15138 -0.792638 0
M  V30 3195 C 291.801 5.70345 -1.37563 0
M  V30 3196 C 294.153 6.06784 -1.78875 0
M  V30 3197 C 292.817 6.34102 -2.08497 0
M  V30 3198 H 292.087 0.721768 0.167725 0
M  V30 3199 H 294.734 1.89472 -0.277976 0
M  V30 3200 H 293.039 3.48724 1.78602 0
M  V30 3201 H 294.736 3.72791 1.47744 0
M  V30 3202 H 291.326 4.28317 0.155668 0
M  V30 3203 H 295.51 4.92868 -0.582659 0
M  V30 3204 H 290.766 5.89789 -1.61118 0
M  V30 3205 H 294.94 6.55677 -2.3465 0
M  V30 3206 H 292.567 7.04074 -2.86678 0
M  V30 3207 N 294.142 -0.090211 1.57342 0
M  V30 3208 C 295.367 -0.810082 1.90925 0
M  V30 3209 C 295.792 -1.71248 0.778187 0
M  V30 3210 O 295.15 -1.79278 -0.269991 0
M  V30 3211 C 295.198 -1.59529 3.23393 0
M  V30 3212 O 294.302 -2.70461 3.11327 0
M  V30 3213 H 293.643 -0.222231 0.625707 0
M  V30 3214 H 296.173 -0.0639716 2.045 0
M  V30 3215 H 296.183 -1.97847 3.5682 0
M  V30 3216 H 294.858 -0.933055 4.05299 0
M  V30 3217 H 293.435 -2.35135 2.89423 0
M  V30 3218 N 295.62 -1.53406 -0.361157 0
M  V30 3219 C 296.866 -1.70054 -1.10496 0
M  V30 3220 C 297.199 -0.453278 -1.88836 0
M  V30 3221 O 296.474 0.5495 -1.86576 0
M  V30 3222 C 296.757 -2.95317 -2.06058 0
M  V30 3223 C 296.61 -4.3021 -1.31298 0
M  V30 3224 C 297.929 -3.16193 -3.06121 0
M  V30 3225 H 295.048 -0.618799 -0.400321 0
M  V30 3226 H 297.69 -1.86052 -0.385318 0
M  V30 3227 H 295.84 -2.81809 -2.67425 0
M  V30 3228 H 297.512 -4.55538 -0.726807 0
M  V30 3229 H 295.755 -4.29421 -0.614853 0
M  V30 3230 H 296.426 -5.14 -2.01265 0
M  V30 3231 H 298.902 -3.28916 -2.5486 0
M  V30 3232 H 297.778 -4.05266 -3.70204 0
M  V30 3233 H 298.039 -2.31676 -3.76535 0
M  V30 3234 N 297.098 0.621204 -1.44841 0
M  V30 3235 C 298.347 1.37658 -1.47422 0
M  V30 3236 C 298.66 1.95264 -0.114629 0
M  V30 3237 O 299.866 2.71494 -0.0180199 0
M  V30 3238 C 298.322 2.49285 -2.59586 0
M  V30 3239 C 297.93 1.98149 -4.01797 0
M  V30 3240 C 299.674 3.26409 -2.71399 0
M  V30 3241 C 297.581 3.07178 -5.05367 0
M  V30 3242 H 296.511 0.517344 -0.548517 0
M  V30 3243 H 299.162 0.667257 -1.70938 0
M  V30 3244 H 297.544 3.22839 -2.29328 0
M  V30 3245 H 298.718 1.31395 -4.41669 0
M  V30 3246 H 297.033 1.33812 -3.94314 0
M  V30 3247 H 299.63 4.07706 -3.45948 0
M  V30 3248 H 299.973 3.76535 -1.77559 0
M  V30 3249 H 300.506 2.5995 -3.01116 0
M  V30 3250 H 297.245 2.61985 -6.00869 0
M  V30 3251 H 296.765 3.72542 -4.70077 0
M  V30 3252 H 298.444 3.71789 -5.29511 0
M  V30 3253 N 298.576 1.31904 0.862503 0
M  V30 3254 C 299.509 1.14514 1.97388 0
M  V30 3255 C 300.487 0.0466493 1.62533 0
M  V30 3256 O 301.671 0.204484 1.87388 0
M  V30 3257 C 298.798 0.751347 3.30261 0
M  V30 3258 C 297.844 1.85395 3.84098 0
M  V30 3259 S 298.677 3.46081 4.08642 0
M  V30 3260 C 299.833 3.08655 5.44502 0
M  V30 3261 H 300.066 2.08597 2.11836 0
M  V30 3262 H 297.599 1.16475 1.01356 0
M  V30 3263 H 299.557 0.530901 4.07052 0
M  V30 3264 H 298.218 -0.170493 3.13637 0
M  V30 3265 H 297.411 1.53122 4.80177 0
M  V30 3266 H 297.013 2.02984 3.14123 0
M  V30 3267 H 299.305 2.58012 6.26447 0
M  V30 3268 H 300.248 4.03726 5.81731 0
M  V30 3269 H 300.656 2.45891 5.08132 0
M  V30 3270 N 300.054 -1.07777 1.14986 0
M  V30 3271 C 300.987 -2.14228 0.786243 0
M  V30 3272 C 301.965 -1.60888 -0.235347 0
M  V30 3273 O 303.149 -1.88099 -0.122909 0
M  V30 3274 C 300.276 -3.38281 0.168433 0
M  V30 3275 C 299.322 -4.10387 1.16123 0
M  V30 3276 S 300.155 -4.62371 2.70135 0
M  V30 3277 C 301.311 -5.89704 2.09762 0
M  V30 3278 H 301.544 -2.44741 1.68787 0
M  V30 3279 H 299.077 -1.19984 0.971756 0
M  V30 3280 H 301.035 -4.10098 -0.181588 0
M  V30 3281 H 299.696 -3.05953 -0.710725 0
M  V30 3282 H 298.889 -4.99431 0.677086 0
M  V30 3283 H 298.491 -3.44513 1.45556 0
M  V30 3284 H 300.783 -6.61648 1.45701 0
M  V30 3285 H 301.726 -6.42824 2.96955 0
M  V30 3286 H 302.134 -5.4302 1.54239 0
M  V30 3287 N 301.532 -0.945985 -1.26051 0
M  V30 3288 C 302.495 -0.463897 -2.24456 0
M  V30 3289 C 303.495 0.427655 -1.55009 0
M  V30 3290 O 304.685 0.226157 -1.72726 0
M  V30 3291 C 301.817 0.330812 -3.39291 0
M  V30 3292 H 303.01 -1.33357 -2.68619 0
M  V30 3293 H 300.563 -0.728416 -1.38289 0
M  V30 3294 H 301.298 1.21852 -3.00537 0
M  V30 3295 H 301.083 -0.308679 -3.90883 0
M  V30 3296 H 302.573 0.657865 -4.12386 0
M  V30 3297 N 303.011 1.40521 -0.713556 0
M  V30 3298 C 304.241 2.0494 -0.261395 0
M  V30 3299 C 304.649 1.53861 1.10107 0
M  V30 3300 O 303.992 0.689321 1.70276 0
M  V30 3301 C 304.054 3.59138 -0.161227 0
M  V30 3302 C 303.718 4.33096 -1.45865 0
M  V30 3303 C 304.715 4.61182 -2.40016 0
M  V30 3304 C 302.4 4.72043 -1.71701 0
M  V30 3305 C 304.394 5.27196 -3.58251 0
M  V30 3306 C 302.081 5.37789 -2.90218 0
M  V30 3307 C 303.079 5.65295 -3.83315 0
M  V30 3308 O 302.767 6.29683 -4.99754 0
M  V30 3309 H 302.499 0.666041 -0.115608 0
M  V30 3310 H 305.053 1.80954 -0.971849 0
M  V30 3311 H 303.283 3.81936 0.605153 0
M  V30 3312 H 304.972 4.05091 0.256105 0
M  V30 3313 H 305.738 4.31559 -2.21318 0
M  V30 3314 H 301.617 4.50003 -1.00092 0
M  V30 3315 H 305.161 5.48582 -4.30934 0
M  V30 3316 H 301.058 5.66831 -3.08825 0
M  V30 3317 H 301.826 6.4818 -4.99805 0
M  V30 3318 N 304.489 0.459591 1.5075 0
M  V30 3319 C 305.738 -0.100971 2.01447 0
M  V30 3320 C 306.051 -1.41816 1.34713 0
M  V30 3321 O 307.257 -2.06299 1.76502 0
M  V30 3322 C 305.713 -0.23047 3.59161 0
M  V30 3323 C 305.321 1.0776 4.34847 0
M  V30 3324 C 307.065 -0.743608 4.17936 0
M  V30 3325 C 304.972 0.91253 5.84317 0
M  V30 3326 H 303.902 -0.0415102 0.752856 0
M  V30 3327 H 306.553 0.592742 1.73663 0
M  V30 3328 H 304.935 -0.987703 3.83485 0
M  V30 3329 H 306.109 1.8449 4.22256 0
M  V30 3330 H 304.424 1.52097 3.87628 0
M  V30 3331 H 307.021 -0.883959 5.27343 0
M  V30 3332 H 307.364 -1.73196 3.78562 0
M  V30 3333 H 307.897 -0.04408 3.97776 0
M  V30 3334 H 304.636 1.87391 6.28144 0
M  V30 3335 H 304.156 0.185422 5.99513 0
M  V30 3336 H 305.835 0.574547 6.44444 0
M  V30 3337 N 305.967 -1.56429 0.191757 0
M  V30 3338 C 307.195 -2.01867 -0.453586 0
M  V30 3339 C 307.61 -1.07191 -1.5542 0
M  V30 3340 O 306.967 -0.0762108 -1.82341 0
M  V30 3341 C 307.018 -3.47017 -1.013 0
M  V30 3342 O 306.739 -4.38078 0.0437005 0
M  V30 3343 C 308.24 -4.07956 -1.73456 0
M  V30 3344 H 305.46 -0.661211 -0.114199 0
M  V30 3345 H 308.004 -2.02295 0.299483 0
M  V30 3346 H 306.159 -3.47298 -1.71647 0
M  V30 3347 H 306.573 -5.23178 -0.372212 0
M  V30 3348 H 308.047 -5.1138 -2.07833 0
M  V30 3349 H 308.524 -3.51222 -2.63704 0
M  V30 3350 H 309.13 -4.11437 -1.07702 0
M  V30 3351 N 307.445 0.0818655 -1.57387 0
M  V30 3352 C 308.355 1.11642 -2.06333 0
M  V30 3353 C 309.371 1.43033 -0.99083 0
M  V30 3354 O 310.547 1.53411 -1.30488 0
M  V30 3355 C 307.612 2.41342 -2.48907 0
M  V30 3356 C 306.673 2.17014 -3.7041 0
M  V30 3357 C 305.906 3.4053 -4.10944 0
M  V30 3358 O 306.129 4.4927 -3.51444 0
M  V30 3359 O 305.063 3.29336 -5.03807 0
M  V30 3360 H 308.889 0.730657 -2.9478 0
M  V30 3361 H 306.474 0.295301 -1.46452 0
M  V30 3362 H 308.356 3.17691 -2.76858 0
M  V30 3363 H 307.031 2.79319 -1.63593 0
M  V30 3364 H 305.938 1.38403 -3.47556 0
M  V30 3365 H 307.271 1.83923 -4.56545 0
M  V30 3366 N 308.923 1.53595 0.353017 0
M  V30 3367 C 310.17 1.70385 1.09431 0
M  V30 3368 C 310.498 0.462113 1.88931 0
M  V30 3369 O 309.753 -0.556074 1.87633 0
M  V30 3370 C 310.052 2.91313 2.07054 0
M  V30 3371 C 309.718 4.27308 1.43939 0
M  V30 3372 C 308.38 4.64287 1.26454 0
M  V30 3373 C 310.732 5.11829 0.983883 0
M  V30 3374 C 308.06 5.83412 0.620226 0
M  V30 3375 C 310.412 6.31611 0.353516 0
M  V30 3376 C 309.076 6.67293 0.166272 0
M  V30 3377 H 308.346 0.623484 0.400436 0
M  V30 3378 H 310.993 1.87799 0.374655 0
M  V30 3379 H 309.298 2.68463 2.85368 0
M  V30 3380 H 310.995 3.01497 2.64387 0
M  V30 3381 H 307.585 3.98198 1.58543 0
M  V30 3382 H 311.769 4.838 1.10685 0
M  V30 3383 H 307.025 6.09639 0.463681 0
M  V30 3384 H 311.199 6.964 -0.00757555 0
M  V30 3385 H 308.826 7.59461 -0.335047 0
M  V30 3386 N 310.401 -0.613514 1.45168 0
M  V30 3387 C 311.647 -1.37471 1.49096 0
M  V30 3388 C 311.98 -1.93765 0.129901 0
M  V30 3389 O 311.255 -1.74707 -0.854858 0
M  V30 3390 C 311.538 -2.52701 2.56542 0
M  V30 3391 C 311.391 -2.01643 4.0207 0
M  V30 3392 C 312.71 -3.54849 2.60327 0
M  V30 3393 H 309.829 -0.498502 0.54283 0
M  V30 3394 H 312.471 -0.692125 1.76945 0
M  V30 3395 H 310.621 -3.10931 2.32926 0
M  V30 3396 H 312.293 -1.48108 4.36877 0
M  V30 3397 H 310.536 -1.32688 4.13009 0
M  V30 3398 H 311.207 -2.84681 4.72928 0
M  V30 3399 H 313.683 -3.0645 2.81474 0
M  V30 3400 H 312.559 -4.32973 3.37381 0
M  V30 3401 H 312.82 -4.10079 1.6519 0
M  V30 3402 N 311.879 -1.3236 -0.855495 0
M  V30 3403 C 312.827 -1.2118 -1.9854 0
M  V30 3404 C 313.821 -0.116788 -1.68997 0
M  V30 3405 O 315.027 -0.279657 -1.77814 0
M  V30 3406 H 311.402 -0.375608 -0.651477 0
M  V30 3407 H 313.373 -2.16743 -2.05098 0
M  V30 3408 C 312.122 -0.950849 -3.34446 0
M  V30 3409 H 311.445 -1.78563 -3.57708 0
M  V30 3410 H 312.885 -0.912863 -4.14057 0
M  V30 3411 C 311.344 0.346404 -3.35114 0
M  V30 3412 O 311.874 1.35855 -3.7803 0
M  V30 3413 N 310.08 0.36808 -2.88259 0
M  V30 3414 H 309.627 -0.456102 -2.5353 0
M  V30 3415 H 309.585 1.23591 -2.89089 0
M  V30 3416 N 313.357 1.07166 -1.15556 0
M  V30 3417 C 314.287 2.16403 -0.877046 0
M  V30 3418 C 315.268 1.69217 0.173111 0
M  V30 3419 O 316.453 1.94181 0.027084 0
M  V30 3420 C 313.583 3.45349 -0.367632 0
M  V30 3421 C 312.537 4.05995 -1.35468 0
M  V30 3422 C 311.863 5.30045 -0.704038 0
M  V30 3423 C 313.163 4.45804 -2.72132 0
M  V30 3424 H 314.857 2.39959 -1.79053 0
M  V30 3425 H 312.403 1.15325 -0.862331 0
M  V30 3426 H 314.356 4.21095 -0.160317 0
M  V30 3427 H 313.08 3.21385 0.581326 0
M  V30 3428 H 311.739 3.32296 -1.54839 0
M  V30 3429 H 311.387 5.02373 0.251128 0
M  V30 3430 H 311.087 5.71579 -1.36277 0
M  V30 3431 H 312.611 6.08495 -0.50654 0
M  V30 3432 H 314.025 5.12671 -2.56595 0
M  V30 3433 H 312.422 4.98296 -3.34397 0
M  V30 3434 H 313.492 3.57083 -3.28054 0
M  V30 3435 N 314.835 0.952656 1.25548 0
M  V30 3436 C 316.083 0.605176 1.92826 0
M  V30 3437 C 316.404 -0.860261 1.74999 0
M  V30 3438 O 315.674 -1.6125 1.11244 0
M  V30 3439 H 314.254 0.220832 0.713612 0
M  V30 3440 H 316.916 1.21047 1.52754 0
M  V30 3441 H 316.012 0.832798 3.00784 0
M  V30 3442 N 316.313 -1.40141 0.720998 0
M  V30 3443 C 317.261 -2.3252 0.0608547 0
M  V30 3444 C 318.255 -1.52326 -0.741152 0
M  V30 3445 O 319.461 -1.68089 -0.643911 0
M  V30 3446 H 315.836 -0.751999 0.000876664 0
M  V30 3447 H 317.807 -2.8584 0.856614 0
M  V30 3448 C 316.556 -3.37331 -0.842809 0
M  V30 3449 H 315.879 -3.99108 -0.235084 0
M  V30 3450 H 317.319 -4.04452 -1.27257 0
M  V30 3451 C 315.778 -2.73246 -1.97074 0
M  V30 3452 O 316.308 -2.59998 -3.06209 0
M  V30 3453 N 314.514 -2.31547 -1.75597 0
M  V30 3454 H 314.061 -2.42522 -0.868368 0
M  V30 3455 H 314.019 -1.89007 -2.51244 0
M  V30 3456 N 317.792 -0.46758 -1.50504 0
M  V30 3457 C 319.038 0.0887532 -2.02606 0
M  V30 3458 C 319.371 1.39686 -1.34913 0
M  V30 3459 O 318.646 1.88644 -0.473694 0
M  V30 3460 C 318.929 0.276206 -3.59039 0
M  V30 3461 C 318.782 -1.05267 -4.37309 0
M  V30 3462 C 320.101 1.03235 -4.27821 0
M  V30 3463 H 317.22 0.0307814 -0.736357 0
M  V30 3464 H 319.862 -0.612485 -1.79857 0
M  V30 3465 H 318.012 0.8735 -3.78553 0
M  V30 3466 H 319.684 -1.68628 -4.29374 0
M  V30 3467 H 317.927 -1.65015 -4.01189 0
M  V30 3468 H 318.598 -0.875197 -5.45018 0
M  V30 3469 H 321.074 0.526111 -4.12761 0
M  V30 3470 H 319.95 1.1323 -5.37094 0
M  V30 3471 H 320.211 2.06806 -3.90748 0
M  V30 3472 N 319.27 1.56325 -0.20005 0
M  V30 3473 C 320.495 2.02548 0.44597 0
M  V30 3474 C 320.92 1.07922 1.5406 0
M  V30 3475 O 320.278 0.0635775 1.81188 0
M  V30 3476 C 320.326 3.47175 0.974761 0
M  V30 3477 O 319.43 3.55671 2.08739 0
M  V30 3478 H 318.771 0.655862 0.103638 0
M  V30 3479 H 321.301 2.02201 -0.312381 0
M  V30 3480 H 321.311 3.87067 1.2901 0
M  V30 3481 H 319.986 4.15538 0.17347 0
M  V30 3482 H 318.563 3.27657 1.78032 0
M  V30 3483 N 320.748 -0.0735177 1.57428 0
M  V30 3484 C 321.711 -1.07192 2.02589 0
M  V30 3485 C 322.711 -1.31695 0.922661 0
M  V30 3486 O 323.901 -1.27445 1.18758 0
M  V30 3487 C 321.033 -2.41599 2.40506 0
M  V30 3488 H 322.226 -0.682727 2.92025 0
M  V30 3489 H 319.779 -0.319193 1.53006 0
M  V30 3490 H 320.514 -2.85354 1.5409 0
M  V30 3491 H 320.299 -2.25156 3.21009 0
M  V30 3492 H 321.789 -3.13367 2.76027 0
M  V30 3493 N 322.226 -1.5378 -0.344866 0
M  V30 3494 C 323.156 -1.84662 -1.42906 0
M  V30 3495 C 324.137 -0.701648 -1.54955 0
M  V30 3496 O 325.322 -0.953438 -1.69184 0
M  V30 3497 C 322.452 -2.05503 -2.79974 0
M  V30 3498 C 321.406 -3.21318 -2.82734 0
M  V30 3499 C 320.732 -3.2749 -4.22675 0
M  V30 3500 C 322.032 -4.59456 -2.48389 0
M  V30 3501 H 323.726 -2.75461 -1.17311 0
M  V30 3502 H 321.272 -1.32542 -0.562896 0
M  V30 3503 H 323.225 -2.25691 -3.55867 0
M  V30 3504 H 321.949 -1.11434 -3.07002 0
M  V30 3505 H 320.608 -3.00984 -2.09294 0
M  V30 3506 H 320.256 -2.31019 -4.4681 0
M  V30 3507 H 319.956 -4.05316 -4.25433 0
M  V30 3508 H 321.48 -3.49887 -5.00412 0
M  V30 3509 H 322.894 -4.79667 -3.13995 0
M  V30 3510 H 321.291 -5.39675 -2.62432 0
M  V30 3511 H 322.361 -4.63155 -1.4358 0
M  V30 3512 N 323.704 0.605807 -1.45491 0
M  V30 3513 C 325.12 0.926751 -1.29936 0
M  V30 3514 C 325.32 1.99896 -0.253706 0
M  V30 3515 O 324.376 2.50038 0.351737 0
M  V30 3516 C 325.689 1.36599 -2.67883 0
M  V30 3517 C 327.237 1.4801 -2.75793 0
M  V30 3518 C 327.712 1.95309 -4.14268 0
M  V30 3519 N 329.203 2.0254 -4.16571 0
M  V30 3520 C 329.938 2.40363 -5.20589 0
M  V30 3521 N 329.434 2.77143 -6.34952 0
M  V30 3522 N 331.227 2.40718 -5.07948 0
M  V30 3523 H 323.378 -0.102862 -2.12151 0
M  V30 3524 H 325.641 0.016639 -0.947854 0
M  V30 3525 H 325.347 0.652306 -3.45598 0
M  V30 3526 H 325.221 2.33215 -2.96463 0
M  V30 3527 H 327.608 2.1847 -1.98381 0
M  V30 3528 H 327.689 0.497041 -2.50925 0
M  V30 3529 H 327.333 1.25436 -4.92167 0
M  V30 3530 H 327.263 2.94532 -4.3653 0
M  V30 3531 H 329.754 1.76699 -3.34045 0
M  V30 3532 H 330.067 3.0489 -7.10114 0
M  V30 3533 H 328.412 2.74834 -6.3835 0
M  V30 3534 H 331.603 2.11392 -4.1765 0
M  V30 3535 H 331.776 2.69869 -5.89131 0
M  V30 3536 N 325.182 1.32811 0.848464 0
M  V30 3537 C 326.41 1.26739 1.63538 0
M  V30 3538 C 326.825 -0.163484 1.88091 0
M  V30 3539 O 326.182 -1.10258 1.45429 0
M  V30 3540 C 326.233 2.03013 2.99112 0
M  V30 3541 O 325.954 3.40518 2.75643 0
M  V30 3542 C 327.455 2.04038 3.93552 0
M  V30 3543 H 324.675 0.437024 0.509167 0
M  V30 3544 H 327.219 1.75033 1.05753 0
M  V30 3545 H 325.374 1.58426 3.53525 0
M  V30 3546 H 325.788 3.79635 3.61908 0
M  V30 3547 H 327.262 2.61877 4.85926 0
M  V30 3548 H 327.739 1.0282 4.26995 0
M  V30 3549 H 328.345 2.486 3.45077 0
M  V30 3550 N 326.66 -1.06551 1.16123 0
M  V30 3551 C 327.907 -1.79302 0.941126 0
M  V30 3552 C 328.235 -1.87105 -0.531235 0
M  V30 3553 O 327.49 -1.35692 -1.41018 0
M  V30 3554 C 327.789 -3.23911 1.51052 0
M  V30 3555 C 327.455 -3.36193 3.00475 0
M  V30 3556 C 326.117 -3.39252 3.41265 0
M  V30 3557 C 328.469 -3.38326 3.96465 0
M  V30 3558 C 325.797 -3.42057 4.76669 0
M  V30 3559 C 328.149 -3.4267 5.31752 0
M  V30 3560 C 326.813 -3.4401 5.72026 0
M  V30 3561 H 326.083 -0.656111 0.344382 0
M  V30 3562 H 328.73 -1.25325 1.44796 0
M  V30 3563 H 327.035 -3.80723 0.925063 0
M  V30 3564 H 328.732 -3.78793 1.31593 0
M  V30 3565 H 325.322 -3.34516 2.6795 0
M  V30 3566 H 329.506 -3.35176 3.6602 0
M  V30 3567 H 324.762 -3.41398 5.07206 0
M  V30 3568 H 328.936 -3.43268 6.05921 0
M  V30 3569 H 326.563 -3.45937 6.76928 0
M  V30 3570 N 328.138 -0.959301 -1.25041 0
M  V30 3571 C 329.554 -0.664474 -1.4511 0
M  V30 3572 C 329.754 0.776481 -1.85938 0
M  V30 3573 O 328.81 1.55128 -1.99227 0
M  V30 3574 C 330.123 -1.64139 -2.5195 0
M  V30 3575 C 331.671 -1.65309 -2.65786 0
M  V30 3576 C 332.146 -2.61777 -3.75815 0
M  V30 3577 N 333.637 -2.60169 -3.83231 0
M  V30 3578 C 334.372 -3.31489 -4.6787 0
M  V30 3579 N 333.868 -4.12298 -5.56761 0
M  V30 3580 N 335.661 -3.20354 -4.61876 0
M  V30 3581 H 327.812 -1.89043 -0.968332 0
M  V30 3582 H 330.075 -0.813408 -0.4869 0
M  V30 3583 H 329.781 -2.67086 -2.28819 0
M  V30 3584 H 329.655 -1.40756 -3.49954 0
M  V30 3585 H 332.042 -0.630778 -2.8828 0
M  V30 3586 H 332.123 -1.92753 -1.68167 0
M  V30 3587 H 331.767 -3.64137 -3.54071 0
M  V30 3588 H 331.697 -2.31616 -4.72929 0
M  V30 3589 H 334.188 -2.01507 -3.19692 0
M  V30 3590 H 334.501 -4.63625 -6.18281 0
M  V30 3591 H 332.846 -4.16395 -5.56454 0
M  V30 3592 H 336.037 -2.56692 -3.91442 0
M  V30 3593 H 336.21 -3.76201 -5.27614 0
M  V30 3594 N 329.616 1.39756 -0.72842 0
M  V30 3595 C 330.862 2.00942 -0.273892 0
M  V30 3596 C 331.195 1.57656 1.13394 0
M  V30 3597 O 330.47 0.802434 1.77176 0
M  V30 3598 C 330.753 3.58211 -0.368346 0
M  V30 3599 C 330.606 4.11534 -1.81548 0
M  V30 3600 C 331.925 4.39372 0.253054 0
M  V30 3601 H 329.044 0.730047 -0.100996 0
M  V30 3602 H 331.686 1.66056 -0.923337 0
M  V30 3603 H 329.836 3.88061 0.184588 0
M  V30 3604 H 331.508 3.92431 -2.42478 0
M  V30 3605 H 329.751 3.65341 -2.33898 0
M  V30 3606 H 330.422 5.20682 -1.83288 0
M  V30 3607 H 332.898 4.15527 -0.218224 0
M  V30 3608 H 331.774 5.48677 0.156585 0
M  V30 3609 H 332.035 4.21358 1.33826 0
M  V30 3610 N 331.094 0.475555 1.50254 0
M  V30 3611 C 332.024 -0.30611 2.31485 0
M  V30 3612 C 333.005 -0.986228 1.38591 0
M  V30 3613 O 334.19 -0.982541 1.67511 0
M  V30 3614 C 331.32 -1.38588 3.1845 0
M  V30 3615 C 330.274 -0.827115 4.19932 0
M  V30 3616 C 329.6 -2.00551 4.95665 0
M  V30 3617 C 330.9 0.16463 5.2204 0
M  V30 3618 H 332.594 0.371866 2.97082 0
M  V30 3619 H 330.14 0.180282 1.42867 0
M  V30 3620 H 332.093 -1.94023 3.74076 0
M  V30 3621 H 330.817 -2.09269 2.50747 0
M  V30 3622 H 329.476 -0.294702 3.65414 0
M  V30 3623 H 329.124 -2.6994 4.2443 0
M  V30 3624 H 328.824 -1.63784 5.64313 0
M  V30 3625 H 330.348 -2.56468 5.54127 0
M  V30 3626 H 331.762 -0.300699 5.72511 0
M  V30 3627 H 330.159 0.446813 5.98434 0
M  V30 3628 H 331.229 1.08905 4.72512 0
M  V30 3629 N 332.573 -1.56217 0.208337 0
M  V30 3630 C 333.989 -1.58919 -0.14729 0
M  V30 3631 C 334.189 -1.22486 -1.59998 0
M  V30 3632 O 333.245 -0.953849 -2.3379 0
M  V30 3633 C 334.558 -3.00236 0.167048 0
M  V30 3634 C 336.106 -3.12813 0.108219 0
M  V30 3635 C 336.581 -4.56284 0.396049 0
M  V30 3636 N 338.072 -4.61912 0.345142 0
M  V30 3637 C 338.807 -5.70837 0.541523 0
M  V30 3638 N 338.303 -6.88178 0.798968 0
M  V30 3639 N 340.096 -5.60091 0.474867 0
M  V30 3640 H 332.247 -1.78177 1.15614 0
M  V30 3641 H 334.51 -0.827555 0.462446 0
M  V30 3642 H 334.216 -3.31499 1.1748 0
M  V30 3643 H 334.09 -3.7354 -0.524184 0
M  V30 3644 H 336.477 -2.81354 -0.890157 0
M  V30 3645 H 336.558 -2.41866 0.832729 0
M  V30 3646 H 336.202 -4.88458 1.3918 0
M  V30 3647 H 336.132 -5.25439 -0.349502 0
M  V30 3648 H 338.623 -3.77589 0.153316 0
M  V30 3649 H 338.936 -7.67095 0.93727 0
M  V30 3650 H 337.281 -6.89953 0.836013 0
M  V30 3651 H 340.472 -4.67297 0.274064 0
M  V30 3652 H 340.645 -6.44917 0.631326 0
M  V30 3653 N 334.051 0.0651679 -1.57465 0
M  V30 3654 C 335.014 1.06117 -2.03155 0
M  V30 3655 C 336.014 1.31204 -0.929632 0
M  V30 3656 O 337.204 1.26813 -1.19432 0
M  V30 3657 C 334.336 2.4032 -2.41783 0
M  V30 3658 H 335.529 0.667231 -2.92383 0
M  V30 3659 H 333.082 0.311075 -1.53173 0
M  V30 3660 H 333.817 2.84532 -1.55601 0
M  V30 3661 H 333.602 2.23451 -3.22199 0
M  V30 3662 H 335.092 3.11898 -2.77685 0
M  V30 3663 N 335.529 1.53961 0.336706 0
M  V30 3664 C 336.459 1.85417 1.41925 0
M  V30 3665 C 337.44 0.709856 1.5458 0
M  V30 3666 O 338.625 0.962396 1.68676 0
M  V30 3667 C 335.755 2.06985 2.78881 0
M  V30 3668 C 334.709 3.22813 2.81026 0
M  V30 3669 C 334.035 3.29727 4.20932 0
M  V30 3670 C 335.335 4.60767 2.45949 0
M  V30 3671 H 337.029 2.76079 1.15848 0
M  V30 3672 H 334.575 1.32839 0.555859 0
M  V30 3673 H 336.528 2.27575 3.54665 0
M  V30 3674 H 335.252 1.13061 3.06406 0
M  V30 3675 H 333.911 3.0209 2.07695 0
M  V30 3676 H 333.559 2.33385 4.45579 0
M  V30 3677 H 333.259 4.07566 4.23277 0
M  V30 3678 H 334.783 3.52536 4.98549 0
M  V30 3679 H 336.197 4.81325 3.11446 0
M  V30 3680 H 334.594 5.4106 2.59566 0
M  V30 3681 H 335.664 4.6391 1.41122 0
M  V30 3682 N 337.007 -0.598083 1.45811 0
M  V30 3683 C 337.954 -1.7082 1.55207 0
M  V30 3684 C 338.924 -1.61278 0.39732 0
M  V30 3685 O 340.109 -1.80717 0.612038 0
M  V30 3686 C 337.249 -3.09144 1.53376 0
M  V30 3687 C 336.362 -3.29423 2.79472 0
M  V30 3688 C 335.497 -4.57907 2.69248 0
M  V30 3689 C 334.536 -4.71476 3.90354 0
M  V30 3690 N 333.673 -5.9127 3.78608 0
M  V30 3691 H 338.513 -1.62125 2.50039 0
M  V30 3692 H 336.05 -0.790389 1.24062 0
M  V30 3693 H 338.008 -3.89186 1.50301 0
M  V30 3694 H 336.638 -3.16773 0.620876 0
M  V30 3695 H 335.69 -2.43091 2.92594 0
M  V30 3696 H 337.002 -3.3532 3.69272 0
M  V30 3697 H 336.156 -5.46157 2.64192 0
M  V30 3698 H 334.895 -4.54423 1.77063 0
M  V30 3699 H 333.9 -3.81648 3.95759 0
M  V30 3700 H 335.125 -4.76751 4.83617 0
M  V30 3701 H 333.071 -5.88813 2.89199 0
M  V30 3702 H 332.988 -5.98369 4.6205 0
M  V30 3703 H 334.256 -6.81992 3.77501 0
M  V30 3704 N 338.485 -1.33259 -0.841409 0
M  V30 3705 C 339.713 -1.27605 -1.62864 0
M  V30 3706 C 340.128 0.153507 -1.88175 0
M  V30 3707 O 339.485 1.09485 -1.46011 0
M  V30 3708 C 339.536 -2.04596 -2.98031 0
M  V30 3709 O 339.257 -3.41975 -2.73834 0
M  V30 3710 C 340.758 -2.06122 -3.92465 0
M  V30 3711 H 337.978 -0.439718 -0.506842 0
M  V30 3712 H 340.522 -1.75591 -1.04824 0
M  V30 3713 H 338.677 -1.60299 -3.5268 0
M  V30 3714 H 339.091 -3.81549 -3.59889 0
M  V30 3715 H 340.565 -2.64451 -4.84531 0
M  V30 3716 H 341.042 -1.05083 -4.26444 0
M  V30 3717 H 341.648 -2.50427 -3.43753 0
M  V30 3718 N 339.963 1.05934 -1.16686 0
M  V30 3719 C 341.212 1.78188 -0.945085 0
M  V30 3720 C 341.525 1.88338 0.528021 0
M  V30 3721 O 342.731 2.57258 0.867799 0
M  V30 3722 C 341.187 3.20277 -1.64167 0
M  V30 3723 C 340.795 3.18281 -3.15279 0
M  V30 3724 C 342.539 3.97039 -1.502 0
M  V30 3725 C 340.446 4.55112 -3.7766 0
M  V30 3726 H 339.376 0.667866 -0.349959 0
M  V30 3727 H 342.027 1.18794 -1.39858 0
M  V30 3728 H 340.409 3.79952 -1.11589 0
M  V30 3729 H 341.583 2.68167 -3.74731 0
M  V30 3730 H 339.898 2.55018 -3.29173 0
M  V30 3731 H 342.495 4.98194 -1.94183 0
M  V30 3732 H 342.838 4.13845 -0.451461 0
M  V30 3733 H 343.371 3.43894 -1.99954 0
M  V30 3734 H 340.11 4.43512 -4.82677 0
M  V30 3735 H 339.63 5.05406 -3.22994 0
M  V30 3736 H 341.309 5.24064 -3.79428 0
M  V30 3737 N 341.441 0.965919 1.2453 0
M  V30 3738 C 342.666 0.643971 1.97149 0
M  V30 3739 C 343.091 -0.779487 1.71189 0
M  V30 3740 O 342.449 -1.5288 0.974553 0
M  V30 3741 C 342.497 0.922557 3.48599 0
M  V30 3742 O 341.601 0.00707672 4.12399 0
M  V30 3743 H 340.942 0.243647 0.617683 0
M  V30 3744 H 343.472 1.29558 1.58353 0
M  V30 3745 H 343.482 0.853373 3.98976 0
M  V30 3746 H 342.157 1.95996 3.66822 0
M  V30 3747 H 340.734 0.12943 3.72675 0
M  V30 3748 N 342.919 -1.39368 0.735821 0
M  V30 3749 C 344.165 -2.00794 0.284544 0
M  V30 3750 C 344.498 -1.58255 -1.12557 0
M  V30 3751 O 343.773 -0.811819 -1.76748 0
M  V30 3752 C 344.056 -3.58011 0.387337 0
M  V30 3753 C 343.909 -4.10566 1.83728 0
M  V30 3754 C 345.228 -4.395 -0.22975 0
M  V30 3755 H 342.347 -0.729501 0.104866 0
M  V30 3756 H 344.989 -1.65564 0.93213 0
M  V30 3757 H 343.139 -3.88154 -0.164006 0
M  V30 3758 H 344.811 -3.91139 2.44556 0
M  V30 3759 H 343.054 -3.64095 2.35833 0
M  V30 3760 H 343.725 -5.19702 1.86047 0
M  V30 3761 H 346.201 -4.15406 0.240257 0
M  V30 3762 H 345.077 -5.48752 -0.127485 0
M  V30 3763 H 345.338 -4.22062 -1.3159 0
M  V30 3764 N 344.397 -0.483516 -1.5 0
M  V30 3765 C 345.646 0.0689102 -2.01582 0
M  V30 3766 C 345.959 1.39655 -1.36952 0
M  V30 3767 O 347.165 2.03465 -1.79762 0
M  V30 3768 C 345.621 0.173302 -3.59483 0
M  V30 3769 C 345.229 -1.14665 -4.33077 0
M  V30 3770 C 346.973 0.677024 -4.19066 0
M  V30 3771 C 344.88 -1.00537 -5.82792 0
M  V30 3772 H 343.81 0.0295277 -0.753422 0
M  V30 3773 H 346.461 -0.620295 -1.72698 0
M  V30 3774 H 344.843 0.926569 -3.85007 0
M  V30 3775 H 346.017 -1.91184 -4.19268 0
M  V30 3776 H 344.332 -1.58244 -3.85159 0
M  V30 3777 H 346.929 0.799952 -5.28682 0
M  V30 3778 H 347.272 1.67151 -3.81269 0
M  V30 3779 H 347.805 -0.0192083 -3.97795 0
M  V30 3780 H 344.544 -1.9736 -6.25083 0
M  V30 3781 H 344.064 -0.280776 -5.99142 0
M  V30 3782 H 345.743 -0.677 -6.43448 0
M  V30 3783 N 345.875 1.56104 -0.216619 0
M  V30 3784 C 347.286 1.844 0.292128 0
M  V30 3785 C 347.637 1.13788 1.59833 0
M  V30 3786 O 346.762 0.405888 2.12559 0
M  V30 3787 C 347.357 3.3452 0.53681 0
M  V30 3788 C 345.916 3.63151 0.989876 0
M  V30 3789 C 345.063 2.77255 0.0502302 0
M  V30 3790 H 348.014 1.52481 -0.439926 0
M  V30 3791 H 348.035 3.54459 1.38345 0
M  V30 3792 H 347.547 3.85885 -0.414031 0
M  V30 3793 H 345.648 3.17238 1.95425 0
M  V30 3794 H 345.761 4.71177 0.867698 0
M  V30 3795 H 344.125 2.48555 0.556117 0
M  V30 3796 H 344.908 3.31416 -0.89544 0
M  V30 3797 N 347.353 -0.0568162 1.57498 0
M  V30 3798 C 348.601 -0.751617 1.87604 0
M  V30 3799 C 348.922 -1.77351 0.81066 0
M  V30 3800 O 348.192 -1.95254 -0.159018 0
M  V30 3801 H 346.772 -0.280583 0.692302 0
M  V30 3802 H 349.434 -0.0293483 1.94878 0
M  V30 3803 H 348.53 -1.25852 2.856 0
M  V30 3804 N 348.832 -1.54138 -0.328536 0
M  V30 3805 C 349.762 -1.86167 -1.40939 0
M  V30 3806 C 350.743 -0.718044 -1.54202 0
M  V30 3807 O 351.928 -0.971328 -1.68163 0
M  V30 3808 C 349.058 -2.08461 -2.77779 0
M  V30 3809 C 348.012 -3.24299 -2.7931 0
M  V30 3810 C 347.338 -3.31955 -4.19178 0
M  V30 3811 C 348.638 -4.62065 -2.43502 0
M  V30 3812 H 350.332 -2.76689 -1.14383 0
M  V30 3813 H 347.878 -1.33132 -0.548806 0
M  V30 3814 H 349.831 -2.29453 -3.53454 0
M  V30 3815 H 348.555 -1.14684 -3.05802 0
M  V30 3816 H 347.214 -3.03187 -2.0609 0
M  V30 3817 H 346.862 -2.35745 -4.44335 0
M  V30 3818 H 346.562 -4.09805 -4.2111 0
M  V30 3819 H 348.086 -3.55175 -4.96672 0
M  V30 3820 H 349.5 -4.8297 -3.08889 0
M  V30 3821 H 347.897 -5.42429 -2.56693 0
M  V30 3822 H 348.967 -4.64652 -1.38659 0
M  V30 3823 N 350.31 0.590341 -1.46126 0
M  V30 3824 C 351.257 1.69994 -1.56111 0
M  V30 3825 C 352.227 1.61065 -0.405867 0
M  V30 3826 O 353.412 1.8039 -0.621613 0
M  V30 3827 C 350.552 3.08326 -1.55013 0
M  V30 3828 C 349.665 3.27936 -2.81215 0
M  V30 3829 C 348.8 4.56473 -2.71673 0
M  V30 3830 C 347.839 4.694 -3.92849 0
M  V30 3831 N 346.976 5.89254 -3.81738 0
M  V30 3832 H 351.816 1.60797 -2.50895 0
M  V30 3833 H 349.353 0.783799 -1.24479 0
M  V30 3834 H 351.311 3.88383 -1.52362 0
M  V30 3835 H 349.941 3.16439 -0.637667 0
M  V30 3836 H 348.993 2.41536 -2.93879 0
M  V30 3837 H 350.305 3.33357 -3.71045 0
M  V30 3838 H 349.459 5.44748 -2.67085 0
M  V30 3839 H 348.198 4.53477 -1.7947 0
M  V30 3840 H 347.203 3.79544 -3.97777 0
M  V30 3841 H 348.428 4.7418 -4.86138 0
M  V30 3842 H 346.374 5.87271 -2.92317 0
M  V30 3843 H 346.291 5.95911 -4.65217 0
M  V30 3844 H 347.559 6.79981 -3.81112 0
M  V30 3845 N 351.788 1.33704 0.83433 0
M  V30 3846 C 353.016 1.28467 1.62185 0
M  V30 3847 C 353.431 -0.143526 1.88254 0
M  V30 3848 O 352.788 -1.08709 1.4659 0
M  V30 3849 C 352.839 2.06174 2.96942 0
M  V30 3850 O 352.56 3.43422 2.72016 0
M  V30 3851 C 354.061 2.08201 3.91366 0
M  V30 3852 H 351.281 0.4424 0.504503 0
M  V30 3853 H 353.825 1.76145 1.03891 0
M  V30 3854 H 351.98 1.62167 3.51825 0
M  V30 3855 H 352.394 3.83453 3.57861 0
M  V30 3856 H 353.868 2.67017 4.83121 0
M  V30 3857 H 354.345 1.07343 4.2588 0
M  V30 3858 H 354.951 2.52246 3.42421 0
M  V30 3859 N 353.266 -1.05314 1.17247 0
M  V30 3860 C 354.515 -1.77685 0.954521 0
M  V30 3861 C 354.828 -1.88616 -0.518025 0
M  V30 3862 O 356.034 -2.57714 -0.854144 0
M  V30 3863 C 354.49 -3.19402 1.65863 0
M  V30 3864 C 354.098 -3.16605 3.16963 0
M  V30 3865 C 355.842 -3.96237 1.52303 0
M  V30 3866 C 353.749 -4.53103 3.80068 0
M  V30 3867 H 352.679 -0.666 0.353496 0
M  V30 3868 H 355.33 -1.1805 1.40486 0
M  V30 3869 H 353.712 -3.79355 1.13602 0
M  V30 3870 H 354.886 -2.66176 3.76148 0
M  V30 3871 H 353.201 -2.53268 3.30521 0
M  V30 3872 H 355.798 -4.97157 1.96822 0
M  V30 3873 H 356.141 -4.136 0.473401 0
M  V30 3874 H 356.674 -3.42829 2.01775 0
M  V30 3875 H 353.413 -4.40946 4.85023 0
M  V30 3876 H 352.933 -5.03686 3.2567 0
M  V30 3877 H 354.612 -5.22045 3.82202 0
M  V30 3878 N 354.744 -0.972509 -1.24016 0
M  V30 3879 C 355.99 -0.637978 -1.92504 0
M  V30 3880 C 356.323 0.825383 -1.75787 0
M  V30 3881 O 355.598 1.59442 -1.11393 0
M  V30 3882 C 355.881 -1.01942 -3.45369 0
M  V30 3883 C 355.734 -2.53983 -3.71231 0
M  V30 3884 C 357.053 -0.55751 -4.36555 0
M  V30 3885 H 354.172 -0.233248 -0.699117 0
M  V30 3886 H 356.814 -1.21238 -1.46292 0
M  V30 3887 H 354.964 -0.530656 -3.84859 0
M  V30 3888 H 356.636 -3.10374 -3.41271 0
M  V30 3889 H 354.879 -2.96968 -3.16216 0
M  V30 3890 H 355.55 -2.75723 -4.78206 0
M  V30 3891 H 358.026 -0.977029 -4.04467 0
M  V30 3892 H 356.902 -0.85292 -5.42233 0
M  V30 3893 H 357.163 0.542328 -4.38761 0
M  V30 3894 N 356.222 1.38976 -0.743202 0
M  V30 3895 C 357.47 1.99948 -0.29417 0
M  V30 3896 C 357.791 1.59279 1.12495 0
M  V30 3897 O 357.061 0.844808 1.76748 0
M  V30 3898 H 355.641 0.739473 -0.105774 0
M  V30 3899 H 358.303 1.699 -0.954986 0
M  V30 3900 H 357.399 3.10142 -0.349056 0
M  V30 3901 N 357.7 0.491464 1.49741 0
M  V30 3902 C 358.663 -0.280906 2.27472 0
M  V30 3903 C 359.663 -0.902454 1.33088 0
M  V30 3904 O 360.853 -0.768465 1.56334 0
M  V30 3905 C 357.985 -1.40209 3.10732 0
M  V30 3906 H 359.178 0.401056 2.97206 0
M  V30 3907 H 356.731 0.246131 1.5435 0
M  V30 3908 H 357.466 -2.11849 2.45541 0
M  V30 3909 H 357.251 -0.961969 3.80117 0
M  V30 3910 H 358.741 -1.9464 3.69466 0
M  V30 3911 N 359.178 -1.55987 0.224894 0
M  V30 3912 C 360.108 -2.23426 -0.678457 0
M  V30 3913 C 361.089 -1.20709 -1.19847 0
M  V30 3914 O 362.274 -1.49304 -1.24186 0
M  V30 3915 C 359.404 -2.91676 -1.88527 0
M  V30 3916 C 358.358 -4.00893 -1.49896 0
M  V30 3917 C 357.684 -4.56455 -2.78483 0
M  V30 3918 C 358.984 -5.17769 -0.686461 0
M  V30 3919 H 360.678 -2.99175 -0.116173 0
M  V30 3920 H 358.224 -1.43897 -0.054436 0
M  V30 3921 H 360.177 -3.37547 -2.5227 0
M  V30 3922 H 358.901 -2.1338 -2.47258 0
M  V30 3923 H 357.56 -3.55758 -0.884985 0
M  V30 3924 H 357.208 -3.74886 -3.35365 0
M  V30 3925 H 356.908 -5.30169 -2.53368 0
M  V30 3926 H 358.432 -5.05047 -3.43162 0
M  V30 3927 H 359.846 -5.60001 -1.22767 0
M  V30 3928 H 358.243 -5.97735 -0.532259 0
M  V30 3929 H 359.313 -4.83932 0.306196 0
M  V30 3930 N 360.656 0.0484629 -1.57525 0
M  V30 3931 C 361.905 0.742065 -1.87553 0
M  V30 3932 C 362.218 1.77545 -0.820802 0
M  V30 3933 O 363.424 2.52027 -1.00967 0
M  V30 3934 C 361.88 1.37081 -3.32771 0
M  V30 3935 C 361.488 0.374786 -4.4643 0
M  V30 3936 C 363.232 2.04542 -3.71972 0
M  V30 3937 C 361.139 1.01077 -5.82698 0
M  V30 3938 H 360.069 0.280903 -0.699721 0
M  V30 3939 H 362.72 -0.00411877 -1.835 0
M  V30 3940 H 361.102 2.16605 -3.31509 0
M  V30 3941 H 362.276 -0.392331 -4.59127 0
M  V30 3942 H 360.591 -0.196653 -4.15935 0
M  V30 3943 H 363.188 2.52943 -4.71088 0
M  V30 3944 H 363.531 2.85515 -3.02964 0
M  V30 3945 H 364.064 1.31819 -3.75325 0
M  V30 3946 H 360.803 0.240878 -6.55057 0
M  V30 3947 H 360.323 1.74819 -5.73758 0
M  V30 3948 H 362.002 1.52383 -6.28799 0
M  V30 3949 N 362.134 1.5431 0.320358 0
M  V30 3950 C 363.066 1.80262 1.41556 0
M  V30 3951 C 364.079 0.684723 1.477 0
M  V30 3952 O 365.268 0.961886 1.50366 0
M  V30 3953 C 362.368 1.90825 2.8007 0
M  V30 3954 C 361.541 3.21023 2.97091 0
M  V30 3955 C 360.6 3.22247 4.15985 0
M  V30 3956 O 359.626 3.95871 4.08992 0
M  V30 3957 N 360.828 2.46258 5.25678 0
M  V30 3958 H 363.593 2.74778 1.19655 0
M  V30 3959 H 361.154 1.53646 0.510358 0
M  V30 3960 H 363.146 1.89067 3.57821 0
M  V30 3961 H 361.716 1.03392 2.95006 0
M  V30 3962 H 360.936 3.35715 2.06614 0
M  V30 3963 H 362.224 4.0698 3.05361 0
M  V30 3964 H 361.622 1.86037 5.34235 0
M  V30 3965 H 360.179 2.50275 6.01835 0
M  V30 3966 N 363.613 -0.582584 1.46437 0
M  V30 3967 C 364.838 -1.37168 1.55563 0
M  V30 3968 C 365.263 -1.87061 0.19743 0
M  V30 3969 O 364.621 -1.61572 -0.822451 0
M  V30 3970 C 364.669 -2.53511 2.56446 0
M  V30 3971 O 363.773 -3.54953 2.09958 0
M  V30 3972 H 363.114 -0.408494 0.523477 0
M  V30 3973 H 365.644 -0.706646 1.9201 0
M  V30 3974 H 365.654 -3.00426 2.76058 0
M  V30 3975 H 364.329 -2.16549 3.55076 0
M  V30 3976 H 362.906 -3.14516 2.00334 0
M  V30 3977 N 365.091 -1.34144 -0.827227 0
M  V30 3978 C 366.337 -1.26446 -1.58554 0
M  V30 3979 C 366.67 0.1664 -1.93486 0
M  V30 3980 O 365.945 1.1107 -1.59667 0
M  V30 3981 C 366.228 -2.15111 -2.8879 0
M  V30 3982 C 366.081 -3.66712 -2.60465 0
M  V30 3983 C 367.4 -2.03311 -3.90324 0
M  V30 3984 H 364.519 -0.46067 -0.575284 0
M  V30 3985 H 367.161 -1.64356 -0.953269 0
M  V30 3986 H 365.311 -1.8291 -3.42748 0
M  V30 3987 H 366.983 -4.09259 -2.1285 0
M  V30 3988 H 365.226 -3.88014 -1.93978 0
M  V30 3989 H 365.897 -4.24112 -3.53317 0
M  V30 3990 H 368.373 -2.31574 -3.45706 0
M  V30 3991 H 367.249 -2.67582 -4.79261 0
M  V30 3992 H 367.51 -1.00879 -4.30437 0
M  V30 3993 N 366.569 1.04691 -1.17803 0
M  V30 3994 C 367.516 2.12557 -0.899343 0
M  V30 3995 C 368.486 1.65339 0.158771 0
M  V30 3996 O 369.671 1.90789 0.0204797 0
M  V30 3997 C 366.811 3.42481 -0.424315 0
M  V30 3998 C 365.924 4.03346 -1.54713 0
M  V30 3999 C 365.059 5.21208 -1.02546 0
M  V30 4000 C 364.098 5.74089 -2.12339 0
M  V30 4001 N 363.235 6.83247 -1.61612 0
M  V30 4002 H 368.075 2.35734 -1.823 0
M  V30 4003 H 365.612 1.1564 -0.909159 0
M  V30 4004 H 367.57 4.16996 -0.130421 0
M  V30 4005 H 366.2 3.19471 0.462377 0
M  V30 4006 H 365.252 3.2622 -1.95664 0
M  V30 4007 H 366.564 4.38628 -2.37501 0
M  V30 4008 H 365.718 6.02812 -0.685718 0
M  V30 4009 H 364.457 4.87414 -0.167084 0
M  V30 4010 H 363.462 4.91111 -2.47165 0
M  V30 4011 H 364.687 6.0993 -2.98601 0
M  V30 4012 H 362.633 6.5134 -0.780533 0
M  V30 4013 H 362.55 7.17559 -2.38003 0
M  V30 4014 H 363.818 7.68491 -1.30545 0
M  V30 4015 N 368.047 0.979072 1.23499 0
M  V30 4016 C 368.994 0.517904 2.24914 0
M  V30 4017 C 369.964 -0.442525 1.60097 0
M  V30 4018 O 371.149 -0.350365 1.87556 0
M  V30 4019 C 368.289 -0.174813 3.44657 0
M  V30 4020 C 367.402 0.825721 4.24035 0
M  V30 4021 C 366.537 0.107946 5.3109 0
M  V30 4022 C 365.576 1.09778 6.02175 0
M  V30 4023 N 364.713 0.40925 7.00906 0
M  V30 4024 H 369.553 1.38751 2.63727 0
M  V30 4025 H 367.09 0.695303 1.2963 0
M  V30 4026 H 369.048 -0.593233 4.12961 0
M  V30 4027 H 367.678 -1.0083 3.06648 0
M  V30 4028 H 366.73 1.36253 3.55161 0
M  V30 4029 H 368.042 1.58005 4.73113 0
M  V30 4030 H 367.196 -0.367904 6.05583 0
M  V30 4031 H 365.935 -0.678994 4.8295 0
M  V30 4032 H 364.94 1.5844 5.26476 0
M  V30 4033 H 366.165 1.88536 6.52404 0
M  V30 4034 H 364.111 -0.358506 6.5502 0
M  V30 4035 H 364.028 1.10226 7.47921 0
M  V30 4036 H 365.296 -0.0442557 7.79487 0
M  V30 4037 N 369.525 -1.3858 0.750561 0
M  V30 4038 C 370.455 -2.33102 0.136237 0
M  V30 4039 C 371.436 -1.54713 -0.706965 0
M  V30 4040 O 372.621 -1.83043 -0.648769 0
M  V30 4041 C 369.751 -3.38882 -0.760017 0
M  V30 4042 C 368.705 -4.27995 -0.0197785 0
M  V30 4043 C 368.031 -5.24605 -1.03408 0
M  V30 4044 C 369.331 -5.09554 1.14684 0
M  V30 4045 H 371.025 -2.84726 0.925822 0
M  V30 4046 H 368.571 -1.36898 0.446654 0
M  V30 4047 H 370.524 -4.0397 -1.19943 0
M  V30 4048 H 369.248 -2.85734 -1.58189 0
M  V30 4049 H 367.907 -3.64409 0.400184 0
M  V30 4050 H 367.555 -4.67746 -1.84994 0
M  V30 4051 H 367.255 -5.85081 -0.543464 0
M  V30 4052 H 368.779 -5.9257 -1.47288 0
M  V30 4053 H 370.193 -5.67899 0.785118 0
M  V30 4054 H 368.59 -5.7925 1.56812 0
M  V30 4055 H 369.66 -4.4347 1.96118 0
M  V30 4056 N 371.003 -0.499398 -1.49478 0
M  V30 4057 C 372.228 0.044722 -2.07352 0
M  V30 4058 C 372.653 1.30207 -1.35749 0
M  V30 4059 O 372.011 1.76516 -0.413732 0
M  V30 4060 C 372.059 0.283013 -3.59488 0
M  V30 4061 O 371.163 1.35804 -3.89398 0
M  V30 4062 H 370.504 -0.0255147 -0.66351 0
M  V30 4063 H 373.034 -0.698561 -1.92305 0
M  V30 4064 H 373.044 0.515007 -4.04737 0
M  V30 4065 H 371.719 -0.635636 -4.11014 0
M  V30 4066 H 370.296 1.11113 -3.55961 0
M  V30 4067 N 372.481 1.55866 -0.233164 0
M  V30 4068 C 373.758 1.90471 0.444988 0
M  V30 4069 C 374.138 1.15209 1.7689 0
M  V30 4070 O 373.486 0.265119 2.26957 0
M  V30 4071 C 373.696 3.4333 0.626559 0
M  V30 4072 C 375.044 4.14319 0.92871 0
M  V30 4073 O 376.068 3.48993 0.712926 0
M  V30 4074 O 374.927 5.29846 1.33887 0
M  V30 4075 H 372.021 0.792347 0.236885 0
M  V30 4076 H 374.567 1.67437 -0.276211 0
M  V30 4077 H 373.339 3.90095 -0.306822 0
M  V30 4078 H 372.962 3.72181 1.39881 0
M  V30 4079 N 373.959 -0.0401083 1.57549 0
M  V30 4080 C 375.205 -0.734211 1.89043 0
M  V30 4081 C 375.538 -1.75591 0.829535 0
M  V30 4082 O 374.813 -1.93868 -0.156706 0
M  V30 4083 C 375.096 -1.41374 3.31188 0
M  V30 4084 C 374.949 -0.406299 4.47961 0
M  V30 4085 C 376.268 -2.35061 3.72068 0
M  V30 4086 H 373.387 -0.265447 0.687537 0
M  V30 4087 H 376.029 0.00294087 1.9 0
M  V30 4088 H 374.179 -2.04206 3.30503 0
M  V30 4089 H 375.851 0.219255 4.60779 0
M  V30 4090 H 374.094 0.275485 4.32924 0
M  V30 4091 H 374.765 -0.920022 5.44279 0
M  V30 4092 H 377.241 -1.82282 3.74049 0
M  V30 4093 H 376.117 -2.79593 4.72355 0
M  V30 4094 H 376.378 -3.21258 3.0372 0
M  V30 4095 N 375.437 -1.54477 -0.31217 0
M  V30 4096 C 376.37 -1.79519 -1.40884 0
M  V30 4097 C 377.348 -0.645753 -1.49227 0
M  V30 4098 O 378.532 -0.884468 -1.66461 0
M  V30 4099 C 375.659 -1.92194 -2.78889 0
M  V30 4100 C 374.705 -3.14555 -2.88023 0
M  V30 4101 S 375.538 -4.72893 -2.51262 0
M  V30 4102 C 376.694 -4.8849 -3.91317 0
M  V30 4103 H 376.927 -2.72256 -1.19432 0
M  V30 4104 H 374.46 -1.45746 -0.509654 0
M  V30 4105 H 376.418 -2.00182 -3.58382 0
M  V30 4106 H 375.079 -1.00414 -2.97617 0
M  V30 4107 H 374.272 -3.20193 -3.89221 0
M  V30 4108 H 373.874 -3.04955 -2.16514 0
M  V30 4109 H 376.166 -4.71826 -4.86196 0
M  V30 4110 H 377.109 -5.90588 -3.90656 0
M  V30 4111 H 377.517 -4.16715 -3.80801 0
M  V30 4112 N 376.915 0.57481 -1.46744 0
M  V30 4113 C 378.164 1.32898 -1.51727 0
M  V30 4114 C 378.477 1.948 -0.176692 0
M  V30 4115 O 379.683 2.71299 -0.104385 0
M  V30 4116 C 378.139 2.40901 -2.67385 0
M  V30 4117 C 377.747 1.85266 -4.07898 0
M  V30 4118 C 379.491 3.17609 -2.81646 0
M  V30 4119 C 377.398 2.90945 -5.14883 0
M  V30 4120 H 376.328 0.499631 -0.564699 0
M  V30 4121 H 378.979 0.612536 -1.72975 0
M  V30 4122 H 377.361 3.15379 -2.39483 0
M  V30 4123 H 378.535 1.17278 -4.45626 0
M  V30 4124 H 376.85 1.21199 -3.98371 0
M  V30 4125 H 379.447 3.96493 -3.58744 0
M  V30 4126 H 379.79 3.70696 -1.89448 0
M  V30 4127 H 380.323 2.50239 -3.09233 0
M  V30 4128 H 377.062 2.42736 -6.089 0
M  V30 4129 H 376.582 3.57398 -4.81691 0
M  V30 4130 H 378.261 3.54755 -5.41071 0
M  V30 4131 N 378.394 1.34581 0.820102 0
M  V30 4132 C 379.324 1.29038 1.94606 0
M  V30 4133 C 380.305 0.1673 1.69275 0
M  V30 4134 O 381.49 0.360112 1.90832 0
M  V30 4135 C 378.62 1.04793 3.31113 0
M  V30 4136 C 377.574 2.13597 3.70891 0
M  V30 4137 C 376.9 1.74537 5.05412 0
M  V30 4138 C 378.2 3.55451 3.8269 0
M  V30 4139 H 379.894 2.23248 1.99501 0
M  V30 4140 H 377.44 1.0747 0.958449 0
M  V30 4141 H 379.393 0.995592 4.0947 0
M  V30 4142 H 378.117 0.0702565 3.26524 0
M  V30 4143 H 376.776 2.17905 2.9481 0
M  V30 4144 H 376.424 0.754226 4.97313 0
M  V30 4145 H 376.124 2.47361 5.32997 0
M  V30 4146 H 377.648 1.70803 5.86224 0
M  V30 4147 H 379.062 3.5354 4.51312 0
M  V30 4148 H 377.459 4.26922 4.21732 0
M  V30 4149 H 378.529 3.92587 2.84611 0
M  V30 4150 N 379.872 -1.04064 1.18357 0
M  V30 4151 C 381.1 -1.80916 1.00384 0
M  V30 4152 C 381.515 -1.83414 -0.447738 0
M  V30 4153 O 380.872 -1.26962 -1.31099 0
M  V30 4154 C 380.923 -3.26516 1.55144 0
M  V30 4155 O 380.644 -3.2424 2.94618 0
M  V30 4156 C 382.145 -4.20013 1.41789 0
M  V30 4157 H 379.365 -0.569728 0.354474 0
M  V30 4158 H 381.909 -1.31151 1.56906 0
M  V30 4159 H 380.064 -3.73512 1.02798 0
M  V30 4160 H 380.478 -4.15452 3.20156 0
M  V30 4161 H 381.952 -5.20111 1.84901 0
M  V30 4162 H 382.429 -4.37667 0.36661 0
M  V30 4163 H 383.035 -3.78881 1.93207 0
M  V30 4164 N 381.35 -0.985608 -1.22978 0
M  V30 4165 C 382.596 -0.65836 -1.91816 0
M  V30 4166 C 382.929 0.806692 -1.76653 0
M  V30 4167 O 382.204 1.58252 -1.13078 0
M  V30 4168 C 382.487 -1.056 -3.44268 0
M  V30 4169 C 382.34 -2.57906 -3.68516 0
M  V30 4170 C 383.659 -0.603781 -4.35939 0
M  V30 4171 H 380.778 -0.24065 -0.696604 0
M  V30 4172 H 383.42 -1.22783 -1.44998 0
M  V30 4173 H 381.57 -0.571445 -3.84274 0
M  V30 4174 H 383.242 -3.13976 -3.3796 0
M  V30 4175 H 381.485 -3.00305 -3.13048 0
M  V30 4176 H 382.156 -2.80779 -4.75255 0
M  V30 4177 H 384.632 -1.01987 -4.03408 0
M  V30 4178 H 383.508 -0.910383 -5.41298 0
M  V30 4179 H 383.769 0.495761 -4.39312 0
M  V30 4180 N 382.828 1.3818 -0.7579 0
M  V30 4181 C 384.075 2.00019 -0.315985 0
M  V30 4182 C 384.403 1.60163 1.10355 0
M  V30 4183 O 383.658 0.83264 1.77103 0
M  V30 4184 C 383.957 3.55252 -0.391218 0
M  V30 4185 C 383.623 4.14834 -1.76702 0
M  V30 4186 C 382.285 4.30821 -2.14353 0
M  V30 4187 C 384.637 4.47658 -2.66931 0
M  V30 4188 C 381.965 4.76928 -3.41696 0
M  V30 4189 C 384.317 4.95184 -3.93669 0
M  V30 4190 C 382.981 5.09377 -4.31383 0
M  V30 4191 H 382.251 0.731923 -0.115627 0
M  V30 4192 H 384.898 1.65161 -0.969223 0
M  V30 4193 H 383.203 3.90273 0.34558 0
M  V30 4194 H 384.9 4.00988 -0.030805 0
M  V30 4195 H 381.49 4.02808 -1.46435 0
M  V30 4196 H 385.674 4.34904 -2.39106 0
M  V30 4197 H 380.93 4.86103 -3.70829 0
M  V30 4198 H 385.104 5.19551 -4.63724 0
M  V30 4199 H 382.731 5.44865 -5.30119 0
M  V30 4200 N 384.306 0.507319 1.49211 0
M  V30 4201 C 385.546 -0.0332372 2.04373 0
M  V30 4202 C 385.91 -1.33694 1.37804 0
M  V30 4203 O 387.111 -1.96213 1.83722 0
M  V30 4204 C 385.382 -0.17599 3.56966 0
M  V30 4205 S 386.941 -0.669882 4.33657 0
M  V30 4206 H 383.759 0.00123603 0.710999 0
M  V30 4207 H 386.361 0.682725 1.83191 0
M  V30 4208 H 385.065 0.778053 4.02957 0
M  V30 4209 H 384.596 -0.917005 3.82563 0
M  V30 4210 H 386.611 -1.93806 4.56786 0
M  V30 4211 N 385.784 -1.5574 0.241426 0
M  V30 4212 C 386.714 -2.24133 -0.654722 0
M  V30 4213 C 387.695 -1.21974 -1.1856 0
M  V30 4214 O 388.88 -1.50612 -1.22595 0
M  V30 4215 C 386.01 -2.93659 -1.85423 0
M  V30 4216 C 384.964 -4.0246 -1.45636 0
M  V30 4217 C 384.29 -4.59383 -2.73626 0
M  V30 4218 C 385.59 -5.18468 -0.631506 0
M  V30 4219 H 387.284 -2.99281 -0.0844353 0
M  V30 4220 H 384.83 -1.43947 -0.0391707 0
M  V30 4221 H 386.783 -3.40203 -2.48676 0
M  V30 4222 H 385.507 -2.15991 -2.44981 0
M  V30 4223 H 384.166 -3.56676 -0.847202 0
M  V30 4224 H 383.814 -3.78422 -3.3137 0
M  V30 4225 H 383.514 -5.32826 -2.4773 0
M  V30 4226 H 385.038 -5.08658 -3.37786 0
M  V30 4227 H 386.452 -5.61272 -1.1682 0
M  V30 4228 H 384.849 -5.98266 -0.468831 0
M  V30 4229 H 385.919 -4.8358 0.357506 0
M  V30 4230 N 387.262 0.0317525 -1.57568 0
M  V30 4231 C 388.487 0.738664 -1.938 0
M  V30 4232 C 388.912 1.68242 -0.841208 0
M  V30 4233 O 388.27 1.80157 0.203267 0
M  V30 4234 C 388.318 1.47417 -3.29091 0
M  V30 4235 O 387.422 2.5872 -3.2115 0
M  V30 4236 H 386.763 0.198856 -0.633524 0
M  V30 4237 H 389.293 -0.0119713 -2.04596 0
M  V30 4238 H 389.303 1.84468 -3.63917 0
M  V30 4239 H 387.978 0.781988 -4.08482 0
M  V30 4240 H 386.555 2.24231 -2.97951 0
M  V30 4241 N 388.74 1.54641 0.303973 0
M  V30 4242 C 389.986 1.74038 1.04109 0
M  V30 4243 C 390.319 0.523051 1.87024 0
M  V30 4244 O 389.594 -0.479874 1.88487 0
M  V30 4245 C 389.877 3.02761 1.94955 0
M  V30 4246 C 389.73 4.34787 1.1524 0
M  V30 4247 C 391.049 3.27336 2.94175 0
M  V30 4248 H 388.168 0.63323 0.377079 0
M  V30 4249 H 390.81 1.87354 0.316001 0
M  V30 4250 H 388.96 2.9154 2.56782 0
M  V30 4251 H 390.632 4.57922 0.557236 0
M  V30 4252 H 388.875 4.31407 0.455053 0
M  V30 4253 H 389.546 5.21116 1.8205 0
M  V30 4254 H 392.022 3.38148 2.42477 0
M  V30 4255 H 390.898 4.18726 3.54908 0
M  V30 4256 H 391.159 2.45491 3.67677 0
M  V30 4257 N 390.218 -0.567019 1.47046 0
M  V30 4258 C 391.465 -1.32462 1.53167 0
M  V30 4259 C 391.793 -1.93571 0.189841 0
M  V30 4260 O 391.048 -1.77865 -0.816243 0
M  V30 4261 C 391.347 -2.4623 2.59047 0
M  V30 4262 C 391.013 -2.03014 4.02612 0
M  V30 4263 C 389.675 -1.90944 4.41694 0
M  V30 4264 C 392.027 -1.69895 4.92732 0
M  V30 4265 C 389.355 -1.44035 5.68745 0
M  V30 4266 C 391.707 -1.2446 6.20236 0
M  V30 4267 C 390.371 -1.10979 6.5821 0
M  V30 4268 H 389.641 -0.484713 0.560477 0
M  V30 4269 H 392.288 -0.636888 1.80599 0
M  V30 4270 H 390.593 -3.20517 2.25335 0
M  V30 4271 H 392.29 -3.04427 2.61008 0
M  V30 4272 H 388.88 -2.13348 3.71726 0
M  V30 4273 H 393.064 -1.78098 4.63244 0
M  V30 4274 H 388.32 -1.32254 5.96925 0
M  V30 4275 H 392.494 -0.978924 6.89485 0
M  V30 4276 H 390.121 -0.744078 7.5655 0
M  V30 4277 N 391.696 -1.35014 -0.812953 0
M  V30 4278 C 392.659 -1.27292 -1.90602 0
M  V30 4279 C 393.659 -0.185817 -1.59723 0
M  V30 4280 O 394.849 -0.439102 -1.68575 0
M  V30 4281 C 391.981 -0.967676 -3.26877 0
M  V30 4282 H 393.174 -2.24479 -1.9887 0
M  V30 4283 H 390.727 -1.19446 -1.00808 0
M  V30 4284 H 391.462 0.0005954 -3.243 0
M  V30 4285 H 391.247 -1.75412 -3.50675 0
M  V30 4286 H 392.737 -0.939085 -4.06904 0
M  V30 4287 N 393.175 1.03435 -1.18907 0
M  V30 4288 C 394.105 2.13503 -0.945448 0
M  V30 4289 C 395.086 1.69682 0.119189 0
M  V30 4290 O 396.271 1.94169 -0.034707 0
M  V30 4291 C 393.401 3.44004 -0.477316 0
M  V30 4292 C 392.355 4.0148 -1.48316 0
M  V30 4293 C 391.681 5.27537 -0.872311 0
M  V30 4294 C 392.981 4.36921 -2.86177 0
M  V30 4295 H 394.675 2.34141 -1.86597 0
M  V30 4296 H 392.221 1.12523 -0.898584 0
M  V30 4297 H 394.174 4.20372 -0.294204 0
M  V30 4298 H 392.898 3.23072 0.478786 0
M  V30 4299 H 391.557 3.27201 -1.65332 0
M  V30 4300 H 391.205 5.02917 0.0911752 0
M  V30 4301 H 390.905 5.66954 -1.54393 0
M  V30 4302 H 392.429 6.06576 -0.699871 0
M  V30 4303 H 393.843 5.04248 -2.72776 0
M  V30 4304 H 392.24 4.87405 -3.50081 0
M  V30 4305 H 393.31 3.46466 -3.39248 0
M  V30 4306 N 394.653 0.992116 1.22453 0
M  V30 4307 C 395.902 0.662992 1.90492 0
M  V30 4308 C 396.215 -0.808407 1.78113 0
M  V30 4309 O 397.421 -1.24908 2.41061 0
M  V30 4310 C 395.877 1.1353 3.41524 0
M  V30 4311 C 395.485 2.63187 3.62542 0
M  V30 4312 C 397.229 0.880465 4.15269 0
M  V30 4313 C 395.136 3.04024 5.0727 0
M  V30 4314 H 394.066 0.244278 0.713333 0
M  V30 4315 H 396.717 1.20157 1.38688 0
M  V30 4316 H 395.099 0.52485 3.92506 0
M  V30 4317 H 396.273 3.2957 3.22056 0
M  V30 4318 H 394.588 2.86543 3.02129 0
M  V30 4319 H 397.185 1.16128 5.21937 0
M  V30 4320 H 397.528 -0.183408 4.15896 0
M  V30 4321 H 398.061 1.45307 3.70312 0
M  V30 4322 H 394.8 4.09584 5.11782 0
M  V30 4323 H 394.32 2.42343 5.48662 0
M  V30 4324 H 395.999 2.95282 5.75689 0
M  V30 4325 N 396.131 -1.37776 0.765217 0
M  V30 4326 C 397.379 -1.99454 0.325943 0
M  V30 4327 C 397.7 -1.61049 -1.09947 0
M  V30 4328 O 396.97 -0.872821 -1.75381 0
M  V30 4329 H 395.55 -0.737697 0.117525 0
M  V30 4330 H 398.212 -1.68359 0.981895 0
M  V30 4331 H 397.308 -3.09547 0.398353 0
M  V30 4332 N 397.609 -0.515225 -1.4894 0
M  V30 4333 C 398.539 0.244628 -2.32215 0
M  V30 4334 C 399.52 0.949136 -1.41157 0
M  V30 4335 O 400.705 0.937783 -1.70057 0
M  V30 4336 C 397.835 1.30096 -3.22013 0
M  V30 4337 C 396.789 0.715486 -4.21977 0
M  V30 4338 C 396.115 1.87339 -5.00808 0
M  V30 4339 C 397.415 -0.302982 -5.2142 0
M  V30 4340 H 399.109 -0.450501 -2.95991 0
M  V30 4341 H 396.655 -0.218098 -1.42339 0
M  V30 4342 H 398.608 1.84037 -3.79089 0
M  V30 4343 H 397.332 2.02547 -2.56207 0
M  V30 4344 H 395.991 0.197715 -3.66066 0
M  V30 4345 H 395.639 2.58592 -4.31438 0
M  V30 4346 H 395.339 1.48764 -5.68457 0
M  V30 4347 H 396.863 2.41686 -5.60732 0
M  V30 4348 H 398.277 0.148802 -5.73107 0
M  V30 4349 H 396.674 -0.60532 -5.97039 0
M  V30 4350 H 397.744 -1.21395 -4.69459 0
M  V30 4351 N 399.087 1.5561 -0.249682 0
M  V30 4352 C 400.019 2.18834 0.681496 0
M  V30 4353 C 401.032 1.16546 1.1367 0
M  V30 4354 O 402.221 1.43397 1.06299 0
M  V30 4355 C 399.321 2.77992 1.9384 0
M  V30 4356 C 398.494 4.05725 1.63419 0
M  V30 4357 C 397.553 4.49174 2.74096 0
M  V30 4358 O 396.579 5.15492 2.41364 0
M  V30 4359 N 397.781 4.17191 4.03649 0
M  V30 4360 H 400.546 2.9937 0.140514 0
M  V30 4361 H 398.107 1.6175 -0.0697541 0
M  V30 4362 H 400.099 3.04015 2.67127 0
M  V30 4363 H 398.669 2.01596 2.38909 0
M  V30 4364 H 397.889 3.87261 0.736358 0
M  V30 4365 H 399.177 4.88999 1.40562 0
M  V30 4366 H 398.575 3.63955 4.33074 0
M  V30 4367 H 397.132 4.48043 4.73393 0
M  V30 4368 N 400.565 -0.0233959 1.57583 0
M  V30 4369 C 401.495 -1.02162 2.09965 0
M  V30 4370 C 402.476 -1.3735 1.00344 0
M  V30 4371 O 403.661 -1.46135 1.27899 0
M  V30 4372 C 400.791 -2.32081 2.58371 0
M  V30 4373 C 399.745 -2.1112 3.72307 0
M  V30 4374 C 399.071 -3.46848 4.06941 0
M  V30 4375 C 400.371 -1.49276 5.00514 0
M  V30 4376 H 402.065 -0.585557 2.93618 0
M  V30 4377 H 399.611 -0.280218 1.41247 0
M  V30 4378 H 401.564 -3.02249 2.93639 0
M  V30 4379 H 400.288 -2.77758 1.71808 0
M  V30 4380 H 398.947 -1.43384 3.37397 0
M  V30 4381 H 398.595 -3.90184 3.17436 0
M  V30 4382 H 398.295 -3.33646 4.83688 0
M  V30 4383 H 399.819 -4.18369 4.44747 0
M  V30 4384 H 401.233 -2.09368 5.33702 0
M  V30 4385 H 399.63 -1.46632 5.8191 0
M  V30 4386 H 400.7 -0.459217 4.82721 0
M  V30 4387 N 402.043 -1.548 -0.295768 0
M  V30 4388 C 403.29 -1.74329 -1.03032 0
M  V30 4389 C 403.618 -0.531915 -1.87085 0
M  V30 4390 O 402.873 0.486052 -1.89568 0
M  V30 4391 C 403.172 -2.98797 -1.961 0
M  V30 4392 C 402.838 -4.32356 -1.2798 0
M  V30 4393 C 401.5 -4.68661 -1.09135 0
M  V30 4394 C 403.852 -5.15128 -0.793243 0
M  V30 4395 C 401.18 -5.85312 -0.403269 0
M  V30 4396 C 403.532 -6.32488 -0.118854 0
M  V30 4397 C 402.196 -6.6745 0.0815043 0
M  V30 4398 H 401.466 -0.637916 -0.37702 0
M  V30 4399 H 404.113 -1.8906 -0.304696 0
M  V30 4400 H 402.418 -2.78869 -2.75207 0
M  V30 4401 H 404.115 -3.11102 -2.53015 0
M  V30 4402 H 400.705 -4.03808 -1.43655 0
M  V30 4403 H 404.889 -4.87575 -0.92653 0
M  V30 4404 H 400.145 -6.1094 -0.237098 0
M  V30 4405 H 404.319 -6.95892 0.266035 0
M  V30 4406 H 401.946 -7.57695 0.616685 0
M  V30 4407 N 403.521 0.559213 -1.47345 0
M  V30 4408 C 404.454 1.68201 -1.5422 0
M  V30 4409 C 405.432 1.57742 -0.394497 0
M  V30 4410 O 406.616 1.78628 -0.60201 0
M  V30 4411 C 403.743 3.0643 -1.44285 0
M  V30 4412 C 402.789 3.3534 -2.63532 0
M  V30 4413 S 403.622 3.24816 -4.25741 0
M  V30 4414 C 404.778 4.65542 -4.18355 0
M  V30 4415 H 405.011 1.62114 -2.49211 0
M  V30 4416 H 402.544 0.739871 -1.35519 0
M  V30 4417 H 404.502 3.86164 -1.3924 0
M  V30 4418 H 403.163 3.09984 -0.506816 0
M  V30 4419 H 402.356 4.36107 -2.52639 0
M  V30 4420 H 401.958 2.63221 -2.65689 0
M  V30 4421 H 404.25 5.56449 -3.86485 0
M  V30 4422 H 405.193 4.81493 -5.19202 0
M  V30 4423 H 405.601 4.43495 -3.49246 0
M  V30 4424 N 404.999 1.35443 0.805782 0
M  V30 4425 C 406.247 1.28507 1.55982 0
M  V30 4426 C 406.568 -0.140046 1.94496 0
M  V30 4427 O 405.838 -1.07666 1.63661 0
M  V30 4428 H 404.418 0.472676 0.578434 0
M  V30 4429 H 407.08 1.69555 0.961098 0
M  V30 4430 H 406.176 1.90148 2.47488 0
M  V30 4431 N 406.477 -1.02803 1.19454 0
M  V30 4432 C 407.425 -2.13213 0.929673 0
M  V30 4433 C 408.419 -1.69011 -0.114806 0
M  V30 4434 O 409.625 -1.79967 0.0345147 0
M  V30 4435 H 406 -0.69662 0.28324 0
M  V30 4436 H 407.971 -2.32744 1.86743 0
M  V30 4437 C 406.72 -3.4429 0.485797 0
M  V30 4438 H 406.043 -3.7872 1.28105 0
M  V30 4439 H 407.483 -4.22638 0.339582 0
M  V30 4440 C 405.942 -3.27258 -0.800244 0
M  V30 4441 O 406.472 -3.55967 -1.86146 0
M  V30 4442 N 404.678 -2.80545 -0.75781 0
M  V30 4443 H 404.225 -2.57382 0.106039 0
M  V30 4444 H 404.183 -2.6953 -1.61867 0
M  V30 4445 N 407.956 -0.998596 -1.21925 0
M  V30 4446 C 408.886 -0.573688 -2.26343 0
M  V30 4447 C 409.867 0.402296 -1.65274 0
M  V30 4448 O 411.052 0.291683 -1.91997 0
M  V30 4449 C 408.182 0.106839 -3.47136 0
M  V30 4450 C 407.136 -0.788269 -4.20678 0
M  V30 4451 C 406.462 0.0254927 -5.34694 0
M  V30 4452 C 407.762 -2.08784 -4.78755 0
M  V30 4453 H 409.456 -1.44651 -2.62138 0
M  V30 4454 H 407.002 -0.696975 -1.26009 0
M  V30 4455 H 408.955 0.415531 -4.19346 0
M  V30 4456 H 407.679 1.01424 -3.10452 0
M  V30 4457 H 406.338 -1.08069 -3.50309 0
M  V30 4458 H 405.986 0.933989 -4.94253 0
M  V30 4459 H 405.686 -0.570437 -5.84825 0
M  V30 4460 H 407.21 0.328147 -6.09718 0
M  V30 4461 H 408.624 -1.84272 -5.42878 0
M  V30 4462 H 407.021 -2.63307 -5.39249 0
M  V30 4463 H 408.091 -2.76284 -3.98491 0
M  V30 4464 N 409.434 1.37368 -0.772513 0
M  V30 4465 C 410.85 1.53059 -0.452231 0
M  V30 4466 C 411.05 1.73065 1.03203 0
M  V30 4467 O 410.106 1.75245 1.81784 0
M  V30 4468 C 411.419 2.72659 -1.26797 0
M  V30 4469 C 412.967 2.86521 -1.25995 0
M  V30 4470 C 413.442 4.09105 -2.05905 0
M  V30 4471 N 414.933 4.16219 -2.03263 0
M  V30 4472 C 415.668 5.10107 -2.61875 0
M  V30 4473 N 415.164 6.09547 -3.29278 0
M  V30 4474 N 416.957 5.02596 -2.51701 0
M  V30 4475 H 409.108 1.22634 -1.7342 0
M  V30 4476 H 411.371 0.597206 -0.736239 0
M  V30 4477 H 411.077 2.64343 -2.31982 0
M  V30 4478 H 410.951 3.66363 -0.897672 0
M  V30 4479 H 413.338 2.94308 -0.216081 0
M  V30 4480 H 413.419 1.93774 -1.66989 0
M  V30 4481 H 413.063 4.0208 -3.10313 0
M  V30 4482 H 412.993 5.00968 -1.62292 0
M  V30 4483 H 415.484 3.45012 -1.54192 0
M  V30 4484 H 415.797 6.77718 -3.71374 0
M  V30 4485 H 414.142 6.09824 -3.33377 0
M  V30 4486 H 417.333 4.23855 -1.98657 0
M  V30 4487 H 417.506 5.75582 -2.97673 0
M  V30 4488 N 410.912 0.523116 1.48665 0
M  V30 4489 C 411.86 -0.256859 2.31177 0
M  V30 4490 C 412.854 -0.94199 1.40794 0
M  V30 4491 O 414.06 -0.867157 1.57735 0
M  V30 4492 H 410.435 -0.1017 0.745091 0
M  V30 4493 H 412.406 0.458739 2.94853 0
M  V30 4494 C 411.155 -1.29503 3.22683 0
M  V30 4495 H 410.478 -0.777248 3.92172 0
M  V30 4496 H 411.918 -1.81233 3.83315 0
M  V30 4497 C 410.377 -2.32501 2.43813 0
M  V30 4498 O 410.907 -3.3881 2.15803 0
M  V30 4499 N 409.113 -2.05538 2.05432 0
M  V30 4500 H 408.66 -1.19104 2.28412 0
M  V30 4501 H 408.618 -2.74676 1.52973 0
M  V30 4502 N 412.39 -1.55475 0.257931 0
M  V30 4503 C 413.337 -2.21837 -0.636939 0
M  V30 4504 C 414.307 -1.18596 -1.16294 0
M  V30 4505 O 415.492 -1.47081 -1.21539 0
M  V30 4506 C 412.632 -2.9301 -1.82317 0
M  V30 4507 C 411.745 -4.10931 -1.33265 0
M  V30 4508 C 410.88 -4.69791 -2.47931 0
M  V30 4509 C 409.919 -5.7994 -1.95796 0
M  V30 4510 N 409.056 -6.32935 -3.0387 0
M  V30 4511 H 413.896 -2.9793 -0.0643591 0
M  V30 4512 H 411.433 -1.47086 -0.0200031 0
M  V30 4513 H 413.391 -3.3248 -2.52018 0
M  V30 4514 H 412.021 -2.1937 -2.36805 0
M  V30 4515 H 411.073 -3.76699 -0.52931 0
M  V30 4516 H 412.385 -4.90417 -0.910654 0
M  V30 4517 H 411.539 -5.11892 -3.25656 0
M  V30 4518 H 410.278 -3.89545 -2.93438 0
M  V30 4519 H 409.283 -5.37305 -1.16546 0
M  V30 4520 H 410.508 -6.62043 -1.51246 0
M  V30 4521 H 408.454 -5.55591 -3.48791 0
M  V30 4522 H 408.371 -7.07645 -2.66035 0
M  V30 4523 H 409.639 -6.79695 -3.81621 0
M  V30 4524 N 413.868 0.0150385 -1.57593 0
M  V30 4525 C 415.108 0.70768 -1.91758 0
M  V30 4526 C 415.472 1.71764 -0.857974 0
M  V30 4527 O 416.673 2.45956 -1.0844 0
M  V30 4528 C 414.944 1.34736 -3.3103 0
M  V30 4529 S 416.503 2.06721 -3.87056 0
M  V30 4530 H 413.321 0.234119 -0.671349 0
M  V30 4531 H 415.923 -0.0380373 -1.95463 0
M  V30 4532 H 414.627 0.59926 -4.06001 0
M  V30 4533 H 414.158 2.13133 -3.30663 0
M  V30 4534 H 416.173 3.34047 -3.66915 0
M  V30 4535 N 415.346 1.54954 0.287554 0
M  V30 4536 C 416.592 1.75132 1.02257 0
M  V30 4537 C 416.925 0.542858 1.86458 0
M  V30 4538 O 416.2 -0.459856 1.88986 0
M  V30 4539 C 416.483 3.04812 1.91733 0
M  V30 4540 C 416.336 4.35985 1.10622 0
M  V30 4541 C 417.655 3.30438 2.90687 0
M  V30 4542 H 414.774 0.637194 0.370341 0
M  V30 4543 H 417.416 1.87678 0.296111 0
M  V30 4544 H 415.566 2.94247 2.53675 0
M  V30 4545 H 417.238 4.58487 0.508636 0
M  V30 4546 H 415.481 4.31865 0.409271 0
M  V30 4547 H 416.152 5.23017 1.76513 0
M  V30 4548 H 418.628 3.40701 2.38877 0
M  V30 4549 H 417.504 4.22467 3.50447 0
M  V30 4550 H 417.765 2.49377 3.65053 0
M  V30 4551 N 416.824 -0.551391 1.4764 0
M  V30 4552 C 418.07 -1.31024 1.54792 0
M  V30 4553 C 418.403 -1.9304 0.211967 0
M  V30 4554 O 417.678 -1.78175 -0.77999 0
M  V30 4555 C 417.961 -2.41593 2.67029 0
M  V30 4556 C 417.814 -1.84408 4.10261 0
M  V30 4557 C 419.133 -3.43488 2.75143 0
M  V30 4558 H 416.252 -0.475031 0.563485 0
M  V30 4559 H 418.894 -0.616454 1.79722 0
M  V30 4560 H 417.044 -3.00772 2.45904 0
M  V30 4561 H 418.716 -1.29445 4.42766 0
M  V30 4562 H 416.959 -1.15051 4.18265 0
M  V30 4563 H 417.63 -2.64367 4.84576 0
M  V30 4564 H 420.106 -2.94236 2.94218 0
M  V30 4565 H 418.982 -4.18274 3.55441 0
M  V30 4566 H 419.243 -4.02703 1.82435 0
M  V30 4567 N 418.302 -1.35869 -0.798587 0
M  V30 4568 C 419.548 -1.30788 -1.55775 0
M  V30 4569 C 419.903 0.114558 -1.92059 0
M  V30 4570 O 419.196 1.06691 -1.59147 0
M  V30 4571 C 419.39 -2.1556 -2.85077 0
M  V30 4572 C 419.219 -3.65904 -2.61428 0
M  V30 4573 C 417.989 -4.35112 -2.56915 0
M  V30 4574 C 420.187 -4.59375 -2.31255 0
M  V30 4575 N 418.169 -5.71155 -2.25068 0
M  V30 4576 C 419.54 -5.83598 -2.09316 0
M  V30 4577 C 421.595 -4.48035 -2.17185 0
M  V30 4578 C 420.298 -6.97755 -1.74731 0
M  V30 4579 C 422.324 -5.62049 -1.83998 0
M  V30 4580 C 421.686 -6.85305 -1.629 0
M  V30 4581 H 417.785 -0.533855 -0.571422 0
M  V30 4582 H 420.369 -1.7083 -0.934079 0
M  V30 4583 H 418.54 -1.77776 -3.45326 0
M  V30 4584 H 420.272 -2.01938 -3.50718 0
M  V30 4585 H 417.027 -3.87812 -2.71843 0
M  V30 4586 H 417.451 -6.42978 -2.11916 0
M  V30 4587 H 422.093 -3.53338 -2.3219 0
M  V30 4588 H 419.811 -7.92411 -1.58464 0
M  V30 4589 H 423.397 -5.55232 -1.73808 0
M  V30 4590 H 422.277 -7.72034 -1.37596 0
M  V30 4591 N 419.78 1.02168 -1.19998 0
M  V30 4592 C 421.191 1.57135 -1.00825 0
M  V30 4593 C 421.542 1.91276 0.436818 0
M  V30 4594 O 420.667 1.71679 1.3174 0
M  V30 4595 C 421.262 2.85514 -1.82393 0
M  V30 4596 C 419.821 3.37027 -1.67601 0
M  V30 4597 C 418.968 2.10388 -1.80644 0
M  V30 4598 H 421.919 0.846106 -1.34264 0
M  V30 4599 H 421.94 3.56711 -1.32429 0
M  V30 4600 H 421.452 2.60634 -2.87561 0
M  V30 4601 H 419.553 3.66878 -0.650485 0
M  V30 4602 H 419.666 4.09572 -2.4857 0
M  V30 4603 H 418.03 2.22601 -1.23778 0
M  V30 4604 H 418.813 1.8794 -2.87286 0
M  V30 4605 N 421.258 1.00505 1.21394 0
M  V30 4606 C 422.507 0.683159 1.89778 0
M  V30 4607 C 422.82 -0.789471 1.7896 0
M  V30 4608 O 424.026 -1.22344 2.42372 0
M  V30 4609 C 422.482 1.17146 3.40301 0
M  V30 4610 C 422.09 2.67017 3.5973 0
M  V30 4611 C 423.834 0.924461 4.14311 0
M  V30 4612 C 421.741 3.09387 5.04017 0
M  V30 4613 H 420.671 0.25183 0.710702 0
M  V30 4614 H 423.322 1.21622 1.37406 0
M  V30 4615 H 421.704 0.566451 3.91928 0
M  V30 4616 H 422.878 3.32968 3.18542 0
M  V30 4617 H 421.193 2.89732 2.99073 0
M  V30 4618 H 423.79 1.21658 5.20676 0
M  V30 4619 H 424.133 -0.139286 4.16067 0
M  V30 4620 H 424.666 1.49226 3.6875 0
M  V30 4621 H 421.405 4.14989 5.07409 0
M  V30 4622 H 420.925 2.48149 5.46061 0
M  V30 4623 H 422.604 3.01371 5.72525 0
M  V30 4624 N 422.737 -1.36956 0.779787 0
M  V30 4625 C 423.685 -2.32053 0.15942 0
M  V30 4626 C 424.679 -1.55333 -0.675878 0
M  V30 4627 O 425.885 -1.70668 -0.57204 0
M  V30 4628 H 422.26 -0.751286 0.0327707 0
M  V30 4629 H 424.231 -2.8195 0.977078 0
M  V30 4630 C 422.98 -3.40602 -0.698977 0
M  V30 4631 H 422.303 -3.99746 -0.0655966 0
M  V30 4632 H 423.743 -4.09486 -1.09989 0
M  V30 4633 C 422.202 -2.81359 -1.85307 0
M  V30 4634 O 422.732 -2.72751 -2.94906 0
M  V30 4635 N 420.938 -2.38786 -1.65619 0
M  V30 4636 H 420.485 -2.45987 -0.764725 0
M  V30 4637 H 420.443 -1.99493 -2.43002 0
M  V30 4638 N 424.215 -0.530993 -1.48385 0
M  V30 4639 C 425.462 0.0027373 -2.025 0
M  V30 4640 C 425.79 1.34186 -1.40799 0
M  V30 4641 O 425.045 1.88 -0.543544 0
M  V30 4642 C 425.344 0.172742 -3.56982 0
M  V30 4643 C 425.01 -1.09215 -4.37473 0
M  V30 4644 C 423.672 -1.43881 -4.59186 0
M  V30 4645 C 426.024 -1.93153 -4.84088 0
M  V30 4646 C 423.352 -2.62381 -5.2476 0
M  V30 4647 C 425.704 -3.10833 -5.50968 0
M  V30 4648 C 424.368 -3.45843 -5.70919 0
M  V30 4649 H 423.638 0.00100165 -0.740999 0
M  V30 4650 H 426.285 -0.697219 -1.78357 0
M  V30 4651 H 424.59 0.955473 -3.79971 0
M  V30 4652 H 426.287 0.600642 -3.96476 0
M  V30 4653 H 422.877 -0.812177 -4.20834 0
M  V30 4654 H 427.061 -1.67683 -4.67115 0
M  V30 4655 H 422.317 -2.89707 -5.38405 0
M  V30 4656 H 426.491 -3.7618 -5.86056 0
M  V30 4657 H 424.118 -4.37764 -6.21503 0
M  V30 4658 N 425.693 1.55336 -0.266172 0
M  V30 4659 C 426.641 2.23587 0.641228 0
M  V30 4660 C 427.635 1.22986 1.16494 0
M  V30 4661 O 428.841 1.40943 1.1196 0
M  V30 4662 H 425.216 0.717452 0.225315 0
M  V30 4663 H 427.187 2.9837 0.0426561 0
M  V30 4664 C 425.936 2.96369 1.81826 0
M  V30 4665 H 425.259 3.73563 1.42445 0
M  V30 4666 H 426.699 3.47459 2.42998 0
M  V30 4667 C 425.158 2.0133 2.70125 0
M  V30 4668 O 425.688 1.55875 3.70224 0
M  V30 4669 N 423.894 1.6802 2.37102 0
M  V30 4670 H 423.441 2.05181 1.55751 0
M  V30 4671 H 423.399 1.047 2.96454 0
M  V30 4672 N 427.171 -0.0066808 1.57599 0
M  V30 4673 C 428.081 -1.01671 2.11424 0
M  V30 4674 C 429.097 -1.38143 1.05795 0
M  V30 4675 O 430.273 -1.47011 1.37658 0
M  V30 4676 C 427.338 -2.29192 2.60139 0
M  V30 4677 C 426.399 -1.99094 3.80342 0
M  V30 4678 C 425.632 -3.20535 4.26724 0
M  V30 4679 O 425.855 -4.3199 3.72479 0
M  V30 4680 O 424.789 -3.04924 5.18946 0
M  V30 4681 H 428.615 -0.589181 2.9793 0
M  V30 4682 H 426.2 -0.225091 1.47695 0
M  V30 4683 H 428.082 -3.0412 2.917 0
M  V30 4684 H 426.757 -2.71195 1.76733 0
M  V30 4685 H 425.664 -1.21663 3.53764 0
M  V30 4686 H 426.997 -1.61931 4.648 0
M  V30 4687 N 428.649 -1.55105 -0.279332 0
M  V30 4688 C 429.874 -1.7976 -1.03446 0
M  V30 4689 C 430.299 -0.565952 -1.79384 0
M  V30 4690 O 429.657 0.484259 -1.74713 0
M  V30 4691 C 429.705 -3.0179 -1.97371 0
M  V30 4692 O 428.809 -2.76432 -3.06038 0
M  V30 4693 H 428.15 -0.594334 -0.29608 0
M  V30 4694 H 430.68 -2.02235 -0.310165 0
M  V30 4695 H 430.69 -3.30351 -2.39441 0
M  V30 4696 H 429.365 -3.91085 -1.4151 0
M  V30 4697 H 427.942 -2.58949 -2.68328 0
M  V30 4698 N 430.127 0.543554 -1.4793 0
M  V30 4699 C 431.357 1.32324 -1.58663 0
M  V30 4700 C 431.765 1.8766 -0.240896 0
M  V30 4701 O 431.108 1.66411 0.778011 0
M  V30 4702 C 431.17 2.52094 -2.56299 0
M  V30 4703 C 430.834 2.17944 -4.01683 0
M  V30 4704 C 431.831 1.74422 -4.89768 0
M  V30 4705 C 429.516 2.28884 -4.47121 0
M  V30 4706 C 431.51 1.42287 -6.21316 0
M  V30 4707 C 429.197 1.96361 -5.78693 0
M  V30 4708 C 430.195 1.53132 -6.65612 0
M  V30 4709 O 429.883 1.21029 -7.94737 0
M  V30 4710 H 429.615 0.409174 -0.538101 0
M  V30 4711 H 432.169 0.663887 -1.94375 0
M  V30 4712 H 430.399 3.20965 -2.15681 0
M  V30 4713 H 432.088 3.14165 -2.57012 0
M  V30 4714 H 432.854 1.65452 -4.55907 0
M  V30 4715 H 428.733 2.61488 -3.79664 0
M  V30 4716 H 432.277 1.08472 -6.89115 0
M  V30 4717 H 428.174 2.04967 -6.12094 0
M  V30 4718 H 428.942 1.34543 -8.07366 0
M  V30 4719 N 431.605 1.3629 0.791371 0
M  V30 4720 C 432.535 1.33137 1.91825 0
M  V30 4721 C 433.516 0.203168 1.68882 0
M  V30 4722 O 434.701 0.400509 1.90025 0
M  V30 4723 C 431.831 1.11793 3.28816 0
M  V30 4724 C 430.785 2.21417 3.66277 0
M  V30 4725 C 430.111 1.85218 5.01596 0
M  V30 4726 C 431.411 3.63489 3.75064 0
M  V30 4727 H 433.105 2.2743 1.9472 0
M  V30 4728 H 430.651 1.09479 0.935437 0
M  V30 4729 H 432.604 1.08222 4.07266 0
M  V30 4730 H 431.328 0.139501 3.26302 0
M  V30 4731 H 429.987 2.2411 2.90121 0
M  V30 4732 H 429.635 0.859544 4.95602 0
M  V30 4733 H 429.335 2.58611 5.27631 0
M  V30 4734 H 430.859 1.832 5.82469 0
M  V30 4735 H 432.273 3.63034 4.43711 0
M  V30 4736 H 430.67 4.35771 4.12582 0
M  V30 4737 H 431.74 3.98536 2.76219 0
M  V30 4738 N 433.083 -1.0153 1.20538 0
M  V30 4739 C 433.993 -2.13557 0.971113 0
M  V30 4740 C 435.009 -1.73845 -0.0734366 0
M  V30 4741 O 436.185 -2.01075 0.114299 0
M  V30 4742 C 433.25 -3.42661 0.527639 0
M  V30 4743 C 432.311 -3.96608 1.64319 0
M  V30 4744 C 431.544 -5.1955 1.22078 0
M  V30 4745 O 431.767 -5.70329 0.0900198 0
M  V30 4746 O 430.701 -5.66681 2.02871 0
M  V30 4747 H 434.527 -2.3619 1.90913 0
M  V30 4748 H 432.112 -1.11946 0.989362 0
M  V30 4749 H 433.994 -4.20404 0.289621 0
M  V30 4750 H 432.669 -3.21441 -0.381779 0
M  V30 4751 H 431.576 -3.20139 1.93551 0
M  V30 4752 H 432.909 -4.22219 2.52966 0
M  V30 4753 N 434.561 -1.01147 -1.20859 0
M  V30 4754 C 435.509 -0.57059 -2.25493 0
M  V30 4755 C 436.503 0.388109 -1.64894 0
M  V30 4756 O 437.709 0.258592 -1.78133 0
M  V30 4757 H 434.084 -0.166191 -0.733406 0
M  V30 4758 H 436.055 -1.46411 -2.60012 0
M  V30 4759 C 434.804 0.0805241 -3.47607 0
M  V30 4760 H 434.127 -0.648156 -3.94511 0
M  V30 4761 H 435.567 0.352197 -4.22535 0
M  V30 4762 C 434.026 1.32175 -3.09889 0
M  V30 4763 O 434.556 2.41553 -3.20959 0
M  V30 4764 N 432.762 1.20392 -2.64488 0
M  V30 4765 H 432.309 0.313905 -2.5568 0
M  V30 4766 H 432.267 2.03541 -2.39621 0
M  V30 4767 N 436.039 1.36541 -0.78704 0
M  V30 4768 C 437.287 1.98911 -0.357633 0
M  V30 4769 C 437.608 1.62778 1.07371 0
M  V30 4770 O 436.878 0.900612 1.73971 0
M  V30 4771 H 435.458 0.735734 -0.129246 0
M  V30 4772 H 438.12 1.66776 -1.00855 0
M  V30 4773 H 437.216 3.08874 -0.447549 0
M  V30 4774 N 437.518 0.538854 1.48102 0
M  V30 4775 C 438.746 0.0123136 2.06896 0
M  V30 4776 C 439.161 -1.27312 1.39417 0
M  V30 4777 O 438.518 -1.75949 0.484582 0
M  V30 4778 C 438.569 -0.206118 3.60912 0
M  V30 4779 O 438.29 1.0284 4.25859 0
M  V30 4780 C 439.791 -0.772033 4.36526 0
M  V30 4781 H 437.011 0.0375239 0.66995 0
M  V30 4782 H 439.555 0.747032 1.90367 0
M  V30 4783 H 437.71 -0.89091 3.77017 0
M  V30 4784 H 438.124 0.814654 5.18135 0
M  V30 4785 H 439.598 -0.874251 5.45033 0
M  V30 4786 H 440.075 -1.77904 4.01555 0
M  V30 4787 H 440.681 -0.123526 4.25121 0
M  V30 4788 N 438.996 -1.55193 0.274407 0
M  V30 4789 C 439.943 -2.225 -0.613374 0
M  V30 4790 C 440.913 -1.19823 -1.15029 0
M  V30 4791 O 442.098 -1.48362 -1.19973 0
M  V30 4792 C 439.238 -2.94927 -1.79199 0
M  V30 4793 C 438.351 -4.12322 -1.28899 0
M  V30 4794 C 437.486 -4.72394 -2.42934 0
M  V30 4795 C 436.525 -5.81984 -1.89634 0
M  V30 4796 N 435.662 -6.36123 -2.9714 0
M  V30 4797 H 440.502 -2.97982 -0.032756 0
M  V30 4798 H 438.039 -1.47099 -0.00440146 0
M  V30 4799 H 439.997 -3.35134 -2.48478 0
M  V30 4800 H 438.627 -2.2187 -2.34465 0
M  V30 4801 H 437.679 -3.7724 -0.489327 0
M  V30 4802 H 438.991 -4.91355 -0.858587 0
M  V30 4803 H 438.145 -5.15317 -3.20208 0
M  V30 4804 H 436.884 -3.92636 -2.8929 0
M  V30 4805 H 435.889 -5.38511 -1.1084 0
M  V30 4806 H 437.114 -6.6361 -1.44215 0
M  V30 4807 H 435.06 -5.59259 -3.42878 0
M  V30 4808 H 434.977 -7.10427 -2.58515 0
M  V30 4809 H 436.245 -6.83704 -3.74391 0
M  V30 4810 N 440.474 -0.00167713 -1.576 0
M  V30 4811 C 441.722 0.681471 -1.90264 0
M  V30 4812 C 442.043 1.7422 -0.875924 0
M  V30 4813 O 441.313 1.95709 0.0864412 0
M  V30 4814 H 439.893 0.254696 -0.702239 0
M  V30 4815 H 442.555 -0.0429996 -1.94853 0
M  V30 4816 H 441.651 1.15166 -2.90075 0
M  V30 4817 N 441.952 1.55251 0.271103 0
M  V30 4818 C 443.199 1.75946 1.00245 0
M  V30 4819 C 443.527 0.561611 1.86215 0
M  V30 4820 O 442.782 -0.455832 1.90317 0
M  V30 4821 C 443.081 3.01879 1.91321 0
M  V30 4822 C 442.747 4.34337 1.21086 0
M  V30 4823 C 441.409 4.70338 1.01666 0
M  V30 4824 C 443.761 5.16325 0.71119 0
M  V30 4825 C 441.089 5.8588 0.310099 0
M  V30 4826 C 443.441 6.32597 0.0182157 0
M  V30 4827 C 442.105 6.67236 -0.18768 0
M  V30 4828 H 441.375 0.643833 0.366824 0
M  V30 4829 H 444.022 1.89521 0.27458 0
M  V30 4830 H 442.327 2.83212 2.70736 0
M  V30 4831 H 444.024 3.15088 2.48033 0
M  V30 4832 H 440.614 4.06043 1.37213 0
M  V30 4833 H 444.798 4.88987 0.848844 0
M  V30 4834 H 440.054 6.1124 0.139873 0
M  V30 4835 H 444.228 6.9538 -0.376711 0
M  V30 4836 H 441.855 7.56618 -0.73715 0
M  V30 4837 N 443.43 -0.535701 1.48216 0
M  V30 4838 C 444.707 -1.29683 1.46429 0
M  V30 4839 C 445.087 -2.10391 0.172852 0
M  V30 4840 O 444.435 -2.12282 -0.845488 0
M  V30 4841 C 444.645 -2.18313 2.72287 0
M  V30 4842 C 445.993 -2.78639 3.20383 0
M  V30 4843 O 447.017 -2.28604 2.73164 0
M  V30 4844 O 445.876 -3.69636 4.02531 0
M  V30 4845 H 442.97 -0.585026 0.584529 0
M  V30 4846 H 445.516 -0.552827 1.60443 0
M  V30 4847 H 444.288 -1.58421 3.57797 0
M  V30 4848 H 443.911 -2.99971 2.60966 0
M  V30 4849 N 444.908 -1.36708 -0.784132 0
M  V30 4850 C 446.154 -1.32433 -1.54379 0
M  V30 4851 C 446.509 0.0941816 -1.92169 0
M  V30 4852 O 445.802 1.04997 -1.60269 0
M  V30 4853 C 445.996 -2.18571 -2.82774 0
M  V30 4854 C 445.825 -3.68656 -2.57533 0
M  V30 4855 C 444.595 -4.37813 -2.52286 0
M  V30 4856 C 446.793 -4.61802 -2.2637 0
M  V30 4857 N 444.775 -5.7351 -2.18997 0
M  V30 4858 C 446.146 -5.85785 -2.03115 0
M  V30 4859 C 448.201 -4.50313 -2.12421 0
M  V30 4860 C 446.904 -6.99569 -1.67321 0
M  V30 4861 C 448.93 -5.63969 -1.78026 0
M  V30 4862 C 448.292 -6.86994 -1.55622 0
M  V30 4863 H 444.391 -0.539886 -0.565727 0
M  V30 4864 H 446.975 -1.71812 -0.915908 0
M  V30 4865 H 445.146 -1.81429 -3.43421 0
M  V30 4866 H 446.878 -2.05646 -3.48557 0
M  V30 4867 H 443.633 -3.90674 -2.67714 0
M  V30 4868 H 444.057 -6.45189 -2.05084 0
M  V30 4869 H 448.699 -3.55781 -2.28429 0
M  V30 4870 H 446.417 -7.94047 -1.5005 0
M  V30 4871 H 450.003 -5.57044 -1.67909 0
M  V30 4872 H 448.883 -7.7345 -1.294 0
M  V30 4873 N 446.386 1.0089 -1.21074 0
M  V30 4874 C 447.296 2.13039 -0.982425 0
M  V30 4875 C 448.312 1.73881 0.0642161 0
M  V30 4876 O 449.488 2.01012 -0.12496 0
M  V30 4877 C 446.553 3.42377 -0.545803 0
M  V30 4878 C 445.614 3.95731 -1.6642 0
M  V30 4879 C 444.847 5.18896 -1.24832 0
M  V30 4880 O 445.07 5.70273 -0.120265 0
M  V30 4881 O 444.004 5.65597 -2.05873 0
M  V30 4882 H 447.83 2.35175 -1.92163 0
M  V30 4883 H 445.415 1.1142 -0.995285 0
M  V30 4884 H 447.297 4.20244 -0.311912 0
M  V30 4885 H 445.972 3.21639 0.364727 0
M  V30 4886 H 444.879 3.19108 -1.95246 0
M  V30 4887 H 446.212 4.20872 -2.55201 0
M  V30 4888 N 447.864 1.01787 1.20321 0
M  V30 4889 C 448.774 0.598898 2.26827 0
M  V30 4890 C 449.79 -0.36418 1.70146 0
M  V30 4891 O 450.966 -0.224812 2.00141 0
M  V30 4892 C 448.031 -0.0549769 3.46656 0
M  V30 4893 C 447.092 0.954205 4.18561 0
M  V30 4894 C 446.325 0.331439 5.3267 0
M  V30 4895 O 446.548 -0.86851 5.63749 0
M  V30 4896 O 445.482 1.0488 5.92692 0
M  V30 4897 H 449.308 1.48562 2.64883 0
M  V30 4898 H 446.893 0.787434 1.26964 0
M  V30 4899 H 448.775 -0.420102 4.19301 0
M  V30 4900 H 447.45 -0.915876 3.10473 0
M  V30 4901 H 446.357 1.37072 3.48083 0
M  V30 4902 H 447.69 1.78511 4.58688 0
M  V30 4903 N 449.342 -1.36122 0.79427 0
M  V30 4904 C 450.572 -2.03067 0.380437 0
M  V30 4905 C 450.98 -1.60018 -1.00949 0
M  V30 4906 O 450.323 -0.787425 -1.65968 0
M  V30 4907 C 450.385 -3.57587 0.37034 0
M  V30 4908 C 450.049 -4.23855 1.70867 0
M  V30 4909 C 451.046 -4.46404 2.66496 0
M  V30 4910 C 448.731 -4.61229 1.9893 0
M  V30 4911 C 450.725 -5.05412 3.88378 0
M  V30 4912 C 448.412 -5.19953 3.21079 0
M  V30 4913 C 449.41 -5.41985 4.15621 0
M  V30 4914 O 449.098 -5.99475 5.35616 0
M  V30 4915 H 448.83 -0.658168 0.154243 0
M  V30 4916 H 451.384 -1.7498 1.0757 0
M  V30 4917 H 449.614 -3.84814 -0.381444 0
M  V30 4918 H 451.303 -4.05895 -0.0194894 0
M  V30 4919 H 452.069 -4.17921 2.46103 0
M  V30 4920 H 447.948 -4.43402 1.26158 0
M  V30 4921 H 451.492 -5.22524 4.62185 0
M  V30 4922 H 447.389 -5.47862 3.41347 0
M  V30 4923 H 448.157 -6.17937 5.36745 0
M  V30 4924 N 450.82 -0.546701 -1.47814 0
M  V30 4925 C 452.069 -0.0166497 -2.01693 0
M  V30 4926 C 452.382 1.33721 -1.42752 0
M  V30 4927 O 453.588 1.95658 -1.8823 0
M  V30 4928 C 452.044 0.0206769 -3.59894 0
M  V30 4929 C 451.652 -1.3293 -4.27824 0
M  V30 4930 C 453.396 0.498674 -4.21561 0
M  V30 4931 C 451.303 -1.25165 -5.78003 0
M  V30 4932 H 450.233 -0.0024541 -0.753996 0
M  V30 4933 H 452.884 -0.692984 -1.69912 0
M  V30 4934 H 451.266 0.76244 -3.88591 0
M  V30 4935 H 452.44 -2.08795 -4.10781 0
M  V30 4936 H 450.755 -1.74438 -3.78101 0
M  V30 4937 H 453.352 0.575 -5.31599 0
M  V30 4938 H 453.695 1.5083 -3.88016 0
M  V30 4939 H 454.228 -0.18791 -3.97356 0
M  V30 4940 H 450.967 -2.23695 -6.1615 0
M  V30 4941 H 450.487 -0.53464 -5.97412 0
M  V30 4942 H 452.166 -0.949299 -6.39998 0
M  V30 4943 N 452.299 1.55045 -0.282633 0
M  V30 4944 C 453.247 2.24254 0.617478 0
M  V30 4945 C 454.241 1.24215 1.15183 0
M  V30 4946 O 455.447 1.42123 1.10459 0
M  V30 4947 H 451.822 0.719801 0.217693 0
M  V30 4948 H 453.793 2.98398 0.0110076 0
M  V30 4949 C 452.542 2.98281 1.78672 0
M  V30 4950 H 451.865 3.75053 1.38475 0
M  V30 4951 H 453.305 3.50017 2.393 0
M  V30 4952 C 451.764 2.04184 2.67975 0
M  V30 4953 O 452.294 1.59792 3.6855 0
M  V30 4954 N 450.5 1.70526 2.35307 0
M  V30 4955 H 450.047 2.06821 1.53567 0
M  V30 4956 H 450.005 1.07839 2.95327 0
M  V30 4957 N 453.777 0.010035 1.57597 0
M  V30 4958 C 454.725 -0.996272 2.10184 0
M  V30 4959 C 455.719 -1.34942 1.02406 0
M  V30 4960 O 456.925 -1.33389 1.20861 0
M  V30 4961 H 453.3 -0.338982 0.671264 0
M  V30 4962 H 455.271 -0.527272 2.93705 0
M  V30 4963 C 454.02 -2.27599 2.62857 0
M  V30 4964 H 453.343 -2.01295 3.45428 0
M  V30 4965 H 454.783 -2.96265 3.0332 0
M  V30 4966 C 453.242 -2.99269 1.54725 0
M  V30 4967 O 453.772 -3.90644 0.93597 0
M  V30 4968 N 451.978 -2.61269 1.27228 0
M  V30 4969 H 451.525 -1.87043 1.77123 0
M  V30 4970 H 451.483 -3.09534 0.550999 0
M  V30 4971 N 455.255 -1.55392 -0.262866 0
M  V30 4972 C 456.202 -1.88966 -1.32516 0
M  V30 4973 C 457.172 -0.742187 -1.48596 0
M  V30 4974 O 458.357 -0.99439 -1.62839 0
M  V30 4975 C 455.497 -2.17592 -2.67858 0
M  V30 4976 C 454.61 -3.45061 -2.59917 0
M  V30 4977 C 453.745 -3.63336 -3.87505 0
M  V30 4978 C 452.784 -4.84462 -3.74116 0
M  V30 4979 N 451.921 -4.99342 -4.93561 0
M  V30 4980 H 456.761 -2.79566 -1.03184 0
M  V30 4981 H 454.298 -1.38404 -0.498285 0
M  V30 4982 H 456.256 -2.3219 -3.46617 0
M  V30 4983 H 454.886 -1.30215 -2.95371 0
M  V30 4984 H 453.938 -3.38881 -1.72812 0
M  V30 4985 H 455.25 -4.3396 -2.45926 0
M  V30 4986 H 454.404 -3.77807 -4.74707 0
M  V30 4987 H 453.143 -2.72641 -4.04374 0
M  V30 4988 H 452.148 -4.69985 -2.85297 0
M  V30 4989 H 453.373 -5.76603 -3.58757 0
M  V30 4990 H 451.319 -4.1158 -5.10821 0
M  V30 4991 H 451.236 -5.82303 -4.82141 0
M  V30 4992 H 452.504 -5.18208 -5.82306 0
M  V30 4993 N 456.733 0.527833 -1.48498 0
M  V30 4994 C 457.961 1.30823 -1.6029 0
M  V30 4995 C 458.376 1.86945 -0.263974 0
M  V30 4996 O 457.733 1.6651 0.747034 0
M  V30 4997 C 457.784 2.45756 -2.65116 0
M  V30 4998 O 457.505 1.91946 -3.93813 0
M  V30 4999 C 459.006 3.37543 -2.87367 0
M  V30 5000 H 456.226 0.397763 -0.540394 0
M  V30 5001 H 458.77 0.636529 -1.94341 0
M  V30 5002 H 456.925 3.08806 -2.33917 0
M  V30 5003 H 457.339 2.67195 -4.51339 0
M  V30 5004 H 458.813 4.14532 -3.6451 0
M  V30 5005 H 459.29 3.92905 -1.9627 0
M  V30 5006 H 459.896 2.80283 -3.19878 0
M  V30 5007 N 458.211 1.37122 0.776871 0
M  V30 5008 C 459.159 1.32549 1.91138 0
M  V30 5009 C 460.153 0.215119 1.68029 0
M  V30 5010 O 461.359 0.382852 1.75881 0
M  V30 5011 H 457.734 0.412952 0.62847 0
M  V30 5012 H 459.705 2.28332 1.92112 0
M  V30 5013 C 458.454 1.14422 3.28333 0
M  V30 5014 H 457.777 1.99115 3.46689 0
M  V30 5015 H 459.217 1.15272 4.0803 0
M  V30 5016 C 457.676 -0.150434 3.36564 0
M  V30 5017 O 458.206 -1.13584 3.85307 0
M  V30 5018 N 456.412 -0.19939 2.89915 0
M  V30 5019 H 455.959 0.603142 2.5044 0
M  V30 5020 H 455.917 -1.06526 2.95803 0
M  V30 5021 N 459.689 -1.00246 1.21608 0
M  V30 5022 C 460.936 -1.74061 1.03485 0
M  V30 5023 C 461.264 -1.89658 -0.431308 0
M  V30 5024 O 460.519 -1.42976 -1.33627 0
M  V30 5025 C 460.818 -3.15448 1.68009 0
M  V30 5026 C 460.484 -3.19792 3.17874 0
M  V30 5027 C 459.146 -3.20685 3.58768 0
M  V30 5028 C 461.498 -3.16835 4.13842 0
M  V30 5029 C 458.826 -3.16309 4.94131 0
M  V30 5030 C 461.178 -3.14001 5.49169 0
M  V30 5031 C 459.842 -3.13204 5.89457 0
M  V30 5032 H 459.112 -0.636934 0.378677 0
M  V30 5033 H 461.759 -1.17473 1.51236 0
M  V30 5034 H 460.064 -3.75284 1.12557 0
M  V30 5035 H 461.761 -3.71285 1.51487 0
M  V30 5036 H 458.351 -3.19842 2.85305 0
M  V30 5037 H 462.535 -3.15303 3.83272 0
M  V30 5038 H 457.791 -3.14032 5.24589 0
M  V30 5039 H 461.965 -3.10667 6.23265 0
M  V30 5040 H 459.592 -3.09568 6.94314 0
M  V30 5041 N 461.167 -1.02423 -1.1978 0
M  V30 5042 C 462.397 -0.736387 -1.93031 0
M  V30 5043 C 462.805 0.708023 -1.75453 0
M  V30 5044 O 462.148 1.4927 -1.07071 0
M  V30 5045 C 462.21 -1.00194 -3.45255 0
M  V30 5046 C 461.874 -2.43698 -3.86601 0
M  V30 5047 C 462.871 -3.41814 -3.91738 0
M  V30 5048 C 460.556 -2.77975 -4.18372 0
M  V30 5049 C 462.55 -4.72265 -4.28071 0
M  V30 5050 C 460.237 -4.08636 -4.54378 0
M  V30 5051 C 461.235 -5.05592 -4.59201 0
M  V30 5052 O 460.923 -6.33914 -4.94376 0
M  V30 5053 H 460.655 -0.269116 -0.620123 0
M  V30 5054 H 463.209 -1.37043 -1.52998 0
M  V30 5055 H 461.439 -0.310747 -3.85449 0
M  V30 5056 H 463.128 -0.704488 -3.9974 0
M  V30 5057 H 463.894 -3.16671 -3.67348 0
M  V30 5058 H 459.773 -2.0319 -4.13805 0
M  V30 5059 H 463.317 -5.4794 -4.3175 0
M  V30 5060 H 459.214 -4.33556 -4.78226 0
M  V30 5061 H 459.982 -6.38317 -5.12341 0
M  V30 5062 N 462.645 1.35699 -0.801477 0
M  V30 5063 C 463.873 2.03157 -0.391768 0
M  V30 5064 C 464.288 1.60412 0.995668 0
M  V30 5065 O 463.645 0.799228 1.64069 0
M  V30 5066 C 463.696 3.58566 -0.459671 0
M  V30 5067 O 463.417 3.99756 -1.7924 0
M  V30 5068 C 464.918 4.4328 -0.0421205 0
M  V30 5069 H 462.138 0.651688 -0.159825 0
M  V30 5070 H 464.682 1.73426 -1.08368 0
M  V30 5071 H 462.837 3.86963 0.183939 0
M  V30 5072 H 463.251 4.94387 -1.75162 0
M  V30 5073 H 464.725 5.51821 -0.140754 0
M  V30 5074 H 465.202 4.27383 1.01196 0
M  V30 5075 H 465.808 4.20168 -0.658687 0
M  V30 5076 N 464.123 0.554532 1.47522 0
M  V30 5077 C 465.369 0.0295227 2.02779 0
M  V30 5078 C 465.702 -1.31582 1.42828 0
M  V30 5079 O 464.977 -1.85561 0.582872 0
M  V30 5080 C 465.26 -0.0664057 3.60039 0
M  V30 5081 C 465.113 1.30585 4.30427 0
M  V30 5082 C 466.432 -0.781162 4.33112 0
M  V30 5083 H 463.551 0.0122027 0.736899 0
M  V30 5084 H 466.193 0.716305 1.7598 0
M  V30 5085 H 464.343 -0.651307 3.83002 0
M  V30 5086 H 466.015 1.93374 4.18813 0
M  V30 5087 H 464.258 1.88125 3.90886 0
M  V30 5088 H 464.929 1.19147 5.38988 0
M  V30 5089 H 467.405 -0.284565 4.15126 0
M  V30 5090 H 466.281 -0.817237 5.42782 0
M  V30 5091 H 466.542 -1.83672 4.0214 0
M  V30 5092 N 465.601 -1.54893 0.290851 0
M  V30 5093 C 467.012 -1.85584 -0.203816 0
M  V30 5094 C 467.363 -1.21285 -1.54222 0
M  V30 5095 O 466.488 -0.506841 -2.10381 0
M  V30 5096 C 467.083 -3.367 -0.376595 0
M  V30 5097 C 465.642 -3.6746 -0.815485 0
M  V30 5098 C 464.789 -2.77178 0.0821087 0
M  V30 5099 H 467.74 -1.50208 0.512175 0
M  V30 5100 H 467.761 -3.60656 -1.21275 0
M  V30 5101 H 467.273 -3.8347 0.59767 0
M  V30 5102 H 465.374 -3.26201 -1.80066 0
M  V30 5103 H 465.487 -4.7478 -0.641905 0
M  V30 5104 H 463.851 -2.50925 -0.436895 0
M  V30 5105 H 464.634 -3.26767 1.05254 0
M  V30 5106 N 467.08 -0.0183926 -1.57589 0
M  V30 5107 C 468.328 0.661253 -1.90976 0
M  V30 5108 C 468.649 1.73281 -0.894353 0
M  V30 5109 O 467.919 1.9579 0.0656788 0
M  V30 5110 H 466.499 0.247233 -0.704901 0
M  V30 5111 H 469.161 -0.0636639 -1.94796 0
M  V30 5112 H 468.257 1.12083 -2.9128 0
M  V30 5113 N 468.558 1.5553 0.254621 0
M  V30 5114 C 469.491 1.84624 1.34124 0
M  V30 5115 C 470.469 0.700693 1.46728 0
M  V30 5116 O 471.653 0.94564 1.63064 0
M  V30 5117 C 468.78 2.02412 2.71564 0
M  V30 5118 C 467.826 3.25028 2.7615 0
M  V30 5119 S 468.659 4.81893 2.33538 0
M  V30 5120 C 469.815 5.02677 3.72917 0
M  V30 5121 H 470.048 2.76501 1.09245 0
M  V30 5122 H 467.581 1.47537 0.455211 0
M  V30 5123 H 469.539 2.13345 3.50705 0
M  V30 5124 H 468.2 1.11391 2.93685 0
M  V30 5125 H 467.393 3.34418 3.77069 0
M  V30 5126 H 466.995 3.12781 2.05046 0
M  V30 5127 H 469.287 4.89546 4.68349 0
M  V30 5128 H 470.23 6.0468 3.68467 0
M  V30 5129 H 470.638 4.30561 3.65072 0
M  V30 5130 N 470.036 -0.519951 1.48776 0
M  V30 5131 C 470.966 -1.63253 1.66945 0
M  V30 5132 C 471.947 -1.62014 0.518224 0
M  V30 5133 O 473.132 -1.79053 0.751919 0
M  V30 5134 C 470.262 -3.0181 1.71836 0
M  V30 5135 C 469.216 -3.17911 2.8656 0
M  V30 5136 C 468.542 -4.5763 2.76548 0
M  V30 5137 C 469.842 -2.99729 4.27738 0
M  V30 5138 H 471.536 -1.48302 2.6009 0
M  V30 5139 H 469.082 -0.712026 1.25165 0
M  V30 5140 H 471.035 -3.79525 1.83135 0
M  V30 5141 H 469.759 -3.17806 0.752775 0
M  V30 5142 H 468.418 -2.42616 2.74833 0
M  V30 5143 H 468.066 -4.70476 1.77937 0
M  V30 5144 H 467.766 -4.69346 3.53536 0
M  V30 5145 H 469.29 -5.37431 2.89828 0
M  V30 5146 H 470.704 -3.67228 4.40246 0
M  V30 5147 H 469.101 -3.22932 5.05801 0
M  V30 5148 H 470.171 -1.96047 4.43502 0
M  V30 5149 N 471.514 -1.37532 -0.769588 0
M  V30 5150 C 472.424 -1.35668 -1.91393 0
M  V30 5151 C 473.44 -0.255954 -1.72107 0
M  V30 5152 O 474.616 -0.491704 -1.95305 0
M  V30 5153 C 471.681 -1.16481 -3.26547 0
M  V30 5154 C 470.742 -2.36212 -3.58472 0
M  V30 5155 C 469.975 -2.17932 -4.87177 0
M  V30 5156 O 470.198 -1.1647 -5.58382 0
M  V30 5157 O 469.132 -3.06167 -5.18214 0
M  V30 5158 H 472.958 -2.32055 -1.95918 0
M  V30 5159 H 470.543 -1.18284 -0.912641 0
M  V30 5160 H 472.425 -1.07778 -4.07384 0
M  V30 5161 H 471.1 -0.231687 -3.2287 0
M  V30 5162 H 470.007 -2.50488 -2.77861 0
M  V30 5163 H 471.34 -3.281 -3.66894 0
M  V30 5164 N 472.992 0.995999 -1.22138 0
M  V30 5165 C 474.403 1.54961 -1.04135 0
M  V30 5166 C 474.754 1.92159 0.396147 0
M  V30 5167 O 473.879 1.74435 1.28069 0
M  V30 5168 C 474.474 2.81581 -1.88408 0
M  V30 5169 C 473.033 3.33396 -1.74712 0
M  V30 5170 C 472.18 2.06509 -1.85066 0
M  V30 5171 H 475.131 0.817436 -1.36028 0
M  V30 5172 H 475.152 3.53822 -1.39966 0
M  V30 5173 H 474.664 2.54476 -2.93025 0
M  V30 5174 H 472.765 3.65416 -0.728159 0
M  V30 5175 H 472.878 4.04208 -2.57202 0
M  V30 5176 H 471.242 2.19925 -1.28472 0
M  V30 5177 H 472.025 1.81804 -2.91208 0
M  V30 5178 N 474.47 1.03057 1.19235 0
M  V30 5179 C 475.4 0.633497 2.24742 0
M  V30 5180 C 476.381 -0.358335 1.66283 0
M  V30 5181 O 477.566 -0.240676 1.92703 0
M  V30 5182 C 474.696 -0.0147648 3.47297 0
M  V30 5183 C 473.65 0.899527 4.18441 0
M  V30 5184 C 472.976 0.116281 5.34574 0
M  V30 5185 C 474.276 2.21404 4.73051 0
M  V30 5186 H 475.97 1.5155 2.58211 0
M  V30 5187 H 473.516 0.73014 1.24117 0
M  V30 5188 H 475.469 -0.304202 4.20301 0
M  V30 5189 H 474.193 -0.931577 3.13032 0
M  V30 5190 H 472.852 1.17319 3.47321 0
M  V30 5191 H 472.5 -0.802619 4.96555 0
M  V30 5192 H 472.2 0.725293 5.83107 0
M  V30 5193 H 473.724 -0.166376 6.10373 0
M  V30 5194 H 475.138 1.98601 5.37802 0
M  V30 5195 H 473.535 2.77512 5.32078 0
M  V30 5196 H 474.605 2.86752 3.91026 0
M  V30 5197 N 475.948 -1.35272 0.808662 0
M  V30 5198 C 476.878 -2.32315 0.234981 0
M  V30 5199 C 477.859 -1.57572 -0.64071 0
M  V30 5200 O 479.044 -1.8563 -0.570551 0
M  V30 5201 C 476.174 -3.41801 -0.615601 0
M  V30 5202 C 475.128 -4.27694 0.161767 0
M  V30 5203 C 474.454 -5.28519 -0.810649 0
M  V30 5204 C 475.754 -5.04231 1.36193 0
M  V30 5205 H 477.448 -2.80543 1.04575 0
M  V30 5206 H 474.994 -1.3488 0.504315 0
M  V30 5207 H 476.947 -4.08693 -1.02702 0
M  V30 5208 H 475.671 -2.92186 -1.45928 0
M  V30 5209 H 474.33 -3.62384 0.554382 0
M  V30 5210 H 473.978 -4.75171 -1.64988 0
M  V30 5211 H 473.678 -5.8686 -0.294822 0
M  V30 5212 H 475.202 -5.98283 -1.22023 0
M  V30 5213 H 476.616 -5.64058 1.02528 0
M  V30 5214 H 475.013 -5.72077 1.81239 0
M  V30 5215 H 476.083 -4.34753 2.14751 0
M  V30 5216 N 477.426 -0.562348 -1.47226 0
M  V30 5217 C 478.666 -0.0426374 -2.04356 0
M  V30 5218 C 479.03 1.28487 -1.42671 0
M  V30 5219 O 480.231 1.89259 -1.90878 0
M  V30 5220 C 478.502 0.0433826 -3.57374 0
M  V30 5221 S 480.061 0.508472 -4.35844 0
M  V30 5222 H 476.879 -0.0276234 -0.710463 0
M  V30 5223 H 479.481 -0.750245 -1.80531 0
M  V30 5224 H 478.185 -0.927072 -3.99792 0
M  V30 5225 H 477.716 0.774387 -3.85703 0
M  V30 5226 H 479.731 1.76719 -4.63665 0
M  V30 5227 N 478.904 1.54736 -0.299062 0
M  V30 5228 C 480.152 1.99706 0.31017 0
M  V30 5229 C 480.473 1.18896 1.54559 0
M  V30 5230 O 479.743 0.284445 1.93824 0
M  V30 5231 H 478.323 0.737686 0.117596 0
M  V30 5232 H 480.985 1.9054 -0.409943 0
M  V30 5233 H 480.081 3.06596 0.58355 0
M  V30 5234 N 480.382 0.0267497 1.57577 0
M  V30 5235 C 481.33 -0.973923 2.11229 0
M  V30 5236 C 482.324 -1.33849 1.03831 0
M  V30 5237 O 483.53 -1.321 1.22269 0
M  V30 5238 H 479.905 -0.331844 0.674821 0
M  V30 5239 H 481.876 -0.496092 2.94247 0
M  V30 5240 C 480.625 -2.24798 2.65257 0
M  V30 5241 H 479.948 -1.9762 3.47543 0
M  V30 5242 H 481.388 -2.93031 3.06445 0
M  V30 5243 C 479.847 -2.97611 1.57891 0
M  V30 5244 O 480.377 -3.89629 0.97735 0
M  V30 5245 N 478.583 -2.59905 1.29992 0
M  V30 5246 H 478.13 -1.85154 1.79097 0
M  V30 5247 H 478.088 -3.08932 0.583798 0
M  V30 5248 N 481.861 -1.55662 -0.24637 0
M  V30 5249 C 483.086 -1.81914 -0.996093 0
M  V30 5250 C 483.511 -0.603875 -1.78143 0
M  V30 5251 O 482.869 0.447091 -1.75701 0
M  V30 5252 C 482.917 -3.05908 -1.90925 0
M  V30 5253 O 482.021 -2.82861 -3.00105 0
M  V30 5254 H 481.362 -0.600481 -0.283406 0
M  V30 5255 H 483.892 -2.02848 -0.267199 0
M  V30 5256 H 483.902 -3.35356 -2.3238 0
M  V30 5257 H 482.577 -3.93999 -1.33183 0
M  V30 5258 H 481.154 -2.64583 -2.62775 0
M  V30 5259 N 483.339 0.512053 -1.4905 0
M  V30 5260 C 484.564 1.2959 -1.6193 0
M  V30 5261 C 484.989 1.85906 -0.286454 0
M  V30 5262 O 484.347 1.65312 0.744426 0
M  V30 5263 C 484.395 2.40987 -2.68249 0
M  V30 5264 O 483.499 3.44531 -2.26654 0
M  V30 5265 H 482.84 0.383053 -0.542371 0
M  V30 5266 H 485.37 0.614231 -1.95162 0
M  V30 5267 H 485.38 2.86913 -2.90078 0
M  V30 5268 H 484.055 1.99361 -3.65004 0
M  V30 5269 H 482.632 3.046 -2.15112 0
M  V30 5270 N 484.817 1.37938 0.762283 0
M  V30 5271 C 486.094 1.24196 1.51112 0
M  V30 5272 C 486.474 -0.160409 2.1049 0
M  V30 5273 O 485.822 -1.16904 1.96331 0
M  V30 5274 C 486.032 2.34537 2.58445 0
M  V30 5275 C 487.38 2.7254 3.25588 0
M  V30 5276 O 488.404 2.33783 2.68745 0
M  V30 5277 O 487.263 3.39343 4.28379 0
M  V30 5278 H 484.357 0.485175 0.669727 0
M  V30 5279 H 486.903 1.49743 0.798438 0
M  V30 5280 H 485.675 3.28406 2.12756 0
M  V30 5281 H 485.298 2.10505 3.37303 0
M  V30 5282 N 486.295 -0.989507 1.22664 0
M  V30 5283 C 487.258 -2.06183 1.00106 0
M  V30 5284 C 488.258 -1.60765 -0.0337726 0
M  V30 5285 O 489.448 -1.72989 0.205072 0
M  V30 5286 C 486.58 -3.37021 0.51279 0
M  V30 5287 H 487.773 -2.27629 1.95256 0
M  V30 5288 H 485.326 -1.16158 1.0458 0
M  V30 5289 H 486.061 -3.21261 -0.442917 0
M  V30 5290 H 485.846 -3.71323 1.25942 0
M  V30 5291 H 487.336 -4.1591 0.375315 0
M  V30 5292 N 487.773 -1.03688 -1.18687 0
M  V30 5293 C 489.021 -0.736572 -1.88199 0
M  V30 5294 C 489.342 0.737665 -1.80509 0
M  V30 5295 O 488.612 1.53204 -1.22088 0
M  V30 5296 H 487.192 -0.269466 -0.696704 0
M  V30 5297 H 489.854 -1.31282 -1.44052 0
M  V30 5298 H 488.95 -1.03802 -2.94332 0
M  V30 5299 N 489.251 1.34841 -0.815825 0
M  V30 5300 C 490.183 2.28409 -0.190265 0
M  V30 5301 C 491.196 1.50705 0.615771 0
M  V30 5302 O 492.385 1.72822 0.446616 0
M  V30 5303 C 489.485 3.30441 0.752446 0
M  V30 5304 C 488.658 4.37399 -0.00922152 0
M  V30 5305 C 487.717 5.19234 0.853351 0
M  V30 5306 O 486.743 5.68404 0.300919 0
M  V30 5307 N 487.945 5.38248 2.17416 0
M  V30 5308 H 490.71 2.82732 -0.994114 0
M  V30 5309 H 488.271 1.47289 -0.672129 0
M  V30 5310 H 490.263 3.82084 1.33394 0
M  V30 5311 H 488.833 2.76565 1.45707 0
M  V30 5312 H 488.053 3.86567 -0.771979 0
M  V30 5313 H 489.341 5.05992 -0.533807 0
M  V30 5314 H 488.739 4.99961 2.6468 0
M  V30 5315 H 487.296 5.93035 2.70467 0
M  V30 5316 N 490.729 0.570148 1.46925 0
M  V30 5317 C 491.969 0.0534743 2.0433 0
M  V30 5318 C 492.333 -1.27729 1.4335 0
M  V30 5319 O 493.534 -1.88244 1.91879 0
M  V30 5320 C 491.805 -0.0244296 3.57392 0
M  V30 5321 S 493.364 -0.485351 4.36108 0
M  V30 5322 H 490.182 0.0313908 0.710307 0
M  V30 5323 H 492.784 0.759808 1.80131 0
M  V30 5324 H 491.488 0.948261 3.99295 0
M  V30 5325 H 491.019 -0.753922 3.86108 0
M  V30 5326 H 493.034 -1.74258 4.64595 0
M  V30 5327 N 492.207 -1.54576 0.307264 0
M  V30 5328 C 493.618 -1.8579 -0.184121 0
M  V30 5329 C 493.969 -1.22914 -1.52927 0
M  V30 5330 O 493.094 -0.529126 -2.09831 0
M  V30 5331 C 493.689 -3.37081 -0.340862 0
M  V30 5332 C 492.248 -3.68304 -0.776465 0
M  V30 5333 C 491.395 -2.77076 0.111503 0
M  V30 5334 H 494.346 -1.49656 0.528078 0
M  V30 5335 H 494.367 -3.61922 -1.17443 0
M  V30 5336 H 493.879 -3.82815 0.638309 0
M  V30 5337 H 491.98 -3.28092 -1.76596 0
M  V30 5338 H 492.093 -4.75434 -0.591512 0
M  V30 5339 H 490.457 -2.51374 -0.410256 0
M  V30 5340 H 491.24 -3.25632 1.08714 0
M  V30 5341 N 493.685 -0.035106 -1.57561 0
M  V30 5342 C 494.595 0.960295 -2.14046 0
M  V30 5343 C 495.611 1.3529 -1.0942 0
M  V30 5344 O 496.787 1.43309 -1.41508 0
M  V30 5345 C 493.852 2.22214 -2.66124 0
M  V30 5346 C 492.913 1.8894 -3.85487 0
M  V30 5347 C 492.146 3.09109 -4.35072 0
M  V30 5348 O 492.369 4.21963 -3.83802 0
M  V30 5349 O 491.303 2.91058 -5.26848 0
M  V30 5350 H 495.129 0.509983 -2.99387 0
M  V30 5351 H 492.714 0.185853 -1.48239 0
M  V30 5352 H 494.596 2.96279 -2.99661 0
M  V30 5353 H 493.271 2.66414 -1.83862 0
M  V30 5354 H 492.178 1.12241 -3.56865 0
M  V30 5355 H 493.511 1.49551 -4.6893 0
M  V30 5356 N 495.163 1.55791 0.238111 0
M  V30 5357 C 496.411 1.77681 0.963001 0
M  V30 5358 C 496.732 0.600674 1.85518 0
M  V30 5359 O 496.002 -0.383182 1.92116 0
M  V30 5360 H 494.582 0.655315 0.358568 0
M  V30 5361 H 497.244 1.93239 0.253945 0
M  V30 5362 H 496.34 2.69177 1.57956 0
M  V30 5363 N 496.642 -0.504142 1.49319 0
M  V30 5364 C 497.872 -1.28071 1.62116 0
M  V30 5365 C 498.28 -1.86955 0.290566 0
M  V30 5366 O 497.623 -1.68415 -0.733616 0
M  V30 5367 C 497.685 -2.4521 2.62893 0
M  V30 5368 C 497.349 -2.07218 4.0732 0
M  V30 5369 C 498.346 -1.61375 4.94221 0
M  V30 5370 C 496.031 -2.16949 4.53033 0
M  V30 5371 C 498.025 -1.25763 6.2487 0
M  V30 5372 C 495.712 -1.80949 5.83696 0
M  V30 5373 C 496.71 -1.3543 6.69438 0
M  V30 5374 O 496.398 -0.99915 7.97667 0
M  V30 5375 H 496.13 -0.394763 0.54876 0
M  V30 5376 H 498.684 -0.612118 1.96067 0
M  V30 5377 H 496.914 -3.15134 2.24115 0
M  V30 5378 H 498.603 -3.0724 2.65252 0
M  V30 5379 H 499.369 -1.53306 4.60133 0
M  V30 5380 H 495.248 -2.5133 3.86463 0
M  V30 5381 H 498.792 -0.901631 6.91749 0
M  V30 5382 H 494.689 -1.88667 6.17313 0
M  V30 5383 H 495.457 -1.13089 8.1065 0
M  V30 5384 N 498.12 -1.38341 -0.754957 0
M  V30 5385 C 499.052 -1.31347 -1.87831 0
M  V30 5386 C 500.065 -0.225955 -1.61224 0
M  V30 5387 O 501.254 -0.48341 -1.7183 0
M  V30 5388 C 498.354 -1.01201 -3.23437 0
M  V30 5389 C 497.527 -2.20834 -3.77559 0
M  V30 5390 C 496.586 -1.87454 -4.91678 0
M  V30 5391 O 495.612 -2.59934 -5.06382 0
M  V30 5392 N 496.814 -0.828682 -5.74555 0
M  V30 5393 H 499.579 -2.28147 -1.94342 0
M  V30 5394 H 497.14 -1.32184 -0.934828 0
M  V30 5395 H 499.132 -0.769249 -3.97322 0
M  V30 5396 H 497.702 -0.132011 -3.12321 0
M  V30 5397 H 496.922 -2.61184 -2.95256 0
M  V30 5398 H 498.21 -3.00678 -4.10451 0
M  V30 5399 H 497.608 -0.227591 -5.65242 0
M  V30 5400 H 496.165 -0.645802 -6.48593 0
M  V30 5401 N 499.598 0.982988 -1.23187 0
M  V30 5402 C 500.838 1.73903 -1.07412 0
M  V30 5403 C 501.202 1.88146 0.382764 0
M  V30 5404 O 502.403 2.6053 0.661638 0
M  V30 5405 C 500.674 3.10105 -1.77678 0
M  V30 5406 S 502.233 4.01323 -1.77441 0
M  V30 5407 H 499.051 0.598093 -0.384456 0
M  V30 5408 H 501.653 1.17456 -1.56283 0
M  V30 5409 H 500.357 2.97388 -2.82822 0
M  V30 5410 H 499.888 3.71622 -1.29077 0
M  V30 5411 H 501.903 4.89189 -0.831162 0
M  V30 5412 N 501.076 1.04316 1.18135 0
M  V30 5413 C 502.009 0.580823 2.20685 0
M  V30 5414 C 502.987 -0.385943 1.57953 0
M  V30 5415 O 504.171 -0.299654 1.86103 0
M  V30 5416 C 501.298 -0.151162 3.38363 0
M  V30 5417 C 500.344 0.769247 4.19505 0
M  V30 5418 S 501.177 2.25352 4.85774 0
M  V30 5419 C 502.333 1.53246 6.0685 0
M  V30 5420 H 502.566 1.44968 2.5956 0
M  V30 5421 H 500.099 0.85434 1.28609 0
M  V30 5422 H 502.057 -0.567315 4.06561 0
M  V30 5423 H 500.718 -0.995936 2.97892 0
M  V30 5424 H 499.911 0.203335 5.0359 0
M  V30 5425 H 499.513 1.12436 3.56699 0
M  V30 5426 H 501.805 0.82689 6.72435 0
M  V30 5427 H 502.748 2.35044 6.67952 0
M  V30 5428 H 503.156 1.0237 5.5514 0
M  V30 5429 N 502.554 -1.34406 0.822964 0
M  V30 5430 C 503.501 -2.29519 0.24284 0
M  V30 5431 C 504.471 -1.5359 -0.632397 0
M  V30 5432 O 505.656 -1.8196 -0.57403 0
M  V30 5433 C 502.796 -3.40032 -0.58925 0
M  V30 5434 C 501.909 -4.30899 0.308236 0
M  V30 5435 C 501.044 -5.28515 -0.533425 0
M  V30 5436 C 500.083 -6.1102 0.363444 0
M  V30 5437 N 499.22 -7.00725 -0.439147 0
M  V30 5438 H 504.06 -2.78537 1.05929 0
M  V30 5439 H 501.597 -1.3707 0.533872 0
M  V30 5440 H 503.555 -4.0279 -1.087 0
M  V30 5441 H 502.185 -2.92248 -1.37081 0
M  V30 5442 H 501.237 -3.69002 0.924203 0
M  V30 5443 H 502.549 -4.88717 0.997862 0
M  V30 5444 H 501.703 -5.96725 -1.09565 0
M  V30 5445 H 500.442 -4.71235 -1.25656 0
M  V30 5446 H 499.447 -5.41743 0.937812 0
M  V30 5447 H 500.672 -6.70381 1.08469 0
M  V30 5448 H 498.618 -6.45913 -1.14595 0
M  V30 5449 H 498.535 -7.55756 0.19209 0
M  V30 5450 H 499.803 -7.73263 -0.984124 0
M  V30 5451 N 504.032 -0.577932 -1.46621 0
M  V30 5452 C 504.995 0.147805 -2.28723 0
M  V30 5453 C 505.995 0.823325 -1.38123 0
M  V30 5454 O 507.185 0.676011 -1.60548 0
M  V30 5455 C 504.317 1.21853 -3.18378 0
M  V30 5456 H 505.51 -0.573654 -2.94362 0
M  V30 5457 H 503.063 -0.335703 -1.52652 0
M  V30 5458 H 503.798 1.97173 -2.57475 0
M  V30 5459 H 503.583 0.738714 -3.85078 0
M  V30 5460 H 505.073 1.72768 -3.80186 0
M  V30 5461 N 505.51 1.54411 -0.315457 0
M  V30 5462 C 506.758 2.00023 0.288971 0
M  V30 5463 C 507.079 1.20529 1.5329 0
M  V30 5464 O 506.349 0.304986 1.93511 0
M  V30 5465 H 504.929 0.738891 0.109766 0
M  V30 5466 H 507.591 1.90094 -0.430129 0
M  V30 5467 H 506.687 3.07198 0.550999 0
M  V30 5468 N 506.988 0.0434614 1.5754 0
M  V30 5469 C 508.404 -0.313039 1.565 0
M  V30 5470 C 508.604 -1.71954 1.05043 0
M  V30 5471 O 507.66 -2.425 0.703564 0
M  V30 5472 C 508.973 -0.148544 3.00333 0
M  V30 5473 C 510.521 -0.220231 3.12224 0
M  V30 5474 C 510.996 -0.0843565 4.57922 0
M  V30 5475 N 512.487 -0.140881 4.62986 0
M  V30 5476 C 513.222 -0.0597443 5.73369 0
M  V30 5477 N 512.718 0.0733004 6.92761 0
M  V30 5478 N 514.511 -0.11477 5.61983 0
M  V30 5479 H 506.662 0.96303 1.89313 0
M  V30 5480 H 508.925 0.373164 0.871466 0
M  V30 5481 H 508.631 0.820894 3.41986 0
M  V30 5482 H 508.505 -0.912798 3.65989 0
M  V30 5483 H 510.892 -1.18014 2.70475 0
M  V30 5484 H 510.973 0.574646 2.49262 0
M  V30 5485 H 510.617 0.872192 5.00355 0
M  V30 5486 H 510.547 -0.898281 5.18882 0
M  V30 5487 H 513.038 -0.243273 3.77116 0
M  V30 5488 H 513.351 0.128128 7.72694 0
M  V30 5489 H 511.696 0.10828 6.94916 0
M  V30 5490 H 514.887 -0.217212 4.67596 0
M  V30 5491 H 515.06 -0.0480779 6.47982 0
M  V30 5492 N 508.466 -1.55915 -0.229846 0
M  V30 5493 C 509.414 -1.9258 -1.30444 0
M  V30 5494 C 510.408 -0.806839 -1.48951 0
M  V30 5495 O 511.614 -0.991606 -1.50224 0
M  V30 5496 H 507.989 -0.611878 -0.437161 0
M  V30 5497 H 509.96 -2.82264 -0.96797 0
M  V30 5498 C 508.709 -2.25171 -2.6494 0
M  V30 5499 H 508.032 -3.10782 -2.51504 0
M  V30 5500 H 509.472 -2.54716 -3.38963 0
M  V30 5501 C 507.931 -1.07394 -3.19324 0
M  V30 5502 O 508.461 -0.330759 -4.00336 0
M  V30 5503 N 506.667 -0.859984 -2.77584 0
M  V30 5504 H 506.214 -1.46605 -2.11813 0
M  V30 5505 H 506.172 -0.0736671 -3.14314 0
M  V30 5506 N 509.944 0.496216 -1.49584 0
M  V30 5507 C 511.355 1.07765 -1.52459 0
M  V30 5508 C 511.706 1.93679 -0.31353 0
M  V30 5509 O 510.831 2.08588 0.576186 0
M  V30 5510 C 511.426 1.96111 -2.76271 0
M  V30 5511 C 509.985 2.49409 -2.81908 0
M  V30 5512 C 509.132 1.27142 -2.46435 0
M  V30 5513 H 512.083 0.279914 -1.56212 0
M  V30 5514 H 512.104 2.80862 -2.56704 0
M  V30 5515 H 511.616 1.33555 -3.64396 0
M  V30 5516 H 509.717 3.1559 -1.98074 0
M  V30 5517 H 509.83 2.86234 -3.84196 0
M  V30 5518 H 508.194 1.59818 -1.98319 0
M  V30 5519 H 508.977 0.662866 -3.3684 0
M  V30 5520 N 511.423 1.38739 0.74761 0
M  V30 5521 C 512.371 1.36573 1.88283 0
M  V30 5522 C 513.365 0.250712 1.67534 0
M  V30 5523 O 514.571 0.420073 1.7503 0
M  V30 5524 H 510.946 0.42619 0.619569 0
M  V30 5525 H 512.917 2.32356 1.87226 0
M  V30 5526 C 511.666 1.21361 3.25832 0
M  V30 5527 H 510.989 2.06424 3.42388 0
M  V30 5528 H 512.429 1.23901 4.05493 0
M  V30 5529 C 510.888 -0.0790099 3.36807 0
M  V30 5530 O 511.418 -1.05385 3.8763 0
M  V30 5531 N 509.624 -0.13785 2.90273 0
M  V30 5532 H 509.171 0.656128 2.49104 0
M  V30 5533 H 509.129 -1.00228 2.97996 0
M  V30 5534 N 512.901 -0.976442 1.23707 0
M  V30 5535 C 514.131 -1.75087 1.09673 0
M  V30 5536 C 514.539 -1.85852 -0.354344 0
M  V30 5537 O 513.882 -1.33985 -1.25673 0
M  V30 5538 C 513.944 -3.19272 1.65245 0
M  V30 5539 C 513.608 -3.32004 3.14042 0
M  V30 5540 C 514.605 -3.18017 4.11292 0
M  V30 5541 C 512.29 -3.56525 3.53829 0
M  V30 5542 C 514.284 -3.28363 5.46312 0
M  V30 5543 C 511.971 -3.6651 4.88993 0
M  V30 5544 C 512.969 -3.52439 5.85043 0
M  V30 5545 O 512.657 -3.62063 7.1775 0
M  V30 5546 H 512.389 -0.556164 0.384262 0
M  V30 5547 H 514.943 -1.23518 1.64111 0
M  V30 5548 H 513.173 -3.72107 1.05231 0
M  V30 5549 H 514.862 -3.7849 1.46629 0
M  V30 5550 H 515.628 -2.98966 3.81896 0
M  V30 5551 H 511.507 -3.66547 2.79579 0
M  V30 5552 H 515.051 -3.17297 6.21263 0
M  V30 5553 H 510.948 -3.85072 5.18063 0
M  V30 5554 H 511.716 -3.78833 7.25553 0
M  V30 5555 N 514.379 -1.04941 -1.1758 0
M  V30 5556 C 515.627 -0.756492 -1.87408 0
M  V30 5557 C 515.948 0.718478 -1.81281 0
M  V30 5558 O 515.218 1.519 -1.23706 0
M  V30 5559 H 513.798 -0.276841 -0.693807 0
M  V30 5560 H 516.46 -1.32803 -1.42652 0
M  V30 5561 H 515.556 -1.06918 -2.93215 0
M  V30 5562 N 515.857 1.33968 -0.830081 0
M  V30 5563 C 517.087 2.01987 -0.434142 0
M  V30 5564 C 517.495 1.62639 0.96671 0
M  V30 5565 O 516.838 0.831151 1.63822 0
M  V30 5566 C 516.9 3.5648 -0.465018 0
M  V30 5567 C 516.564 4.19176 -1.82045 0
M  V30 5568 C 517.561 4.39181 -2.78237 0
M  V30 5569 C 515.246 4.55792 -2.11089 0
M  V30 5570 C 517.24 4.94937 -4.01642 0
M  V30 5571 C 514.927 5.11258 -3.34752 0
M  V30 5572 C 515.925 5.30775 -4.29845 0
M  V30 5573 O 515.613 5.85064 -5.51322 0
M  V30 5574 H 515.345 0.653847 -0.171639 0
M  V30 5575 H 517.899 1.72066 -1.12171 0
M  V30 5576 H 516.129 3.8569 0.279284 0
M  V30 5577 H 517.818 4.05804 -0.0881334 0
M  V30 5578 H 518.584 4.11249 -2.57097 0
M  V30 5579 H 514.463 4.39901 -1.3787 0
M  V30 5580 H 518.007 5.10086 -4.75876 0
M  V30 5581 H 513.904 5.38619 -3.55753 0
M  V30 5582 H 514.672 6.03489 -5.5294 0
M  V30 5583 N 517.335 0.585699 1.46312 0
M  V30 5584 C 518.563 0.0781299 2.06752 0
M  V30 5585 C 518.978 -1.22812 1.43396 0
M  V30 5586 O 518.335 -1.74318 0.540314 0
M  V30 5587 C 518.386 -0.0911927 3.61385 0
M  V30 5588 O 518.107 1.16336 4.22371 0
M  V30 5589 C 519.608 -0.632765 4.38761 0
M  V30 5590 H 516.828 0.0588188 0.668417 0
M  V30 5591 H 519.372 0.807218 1.87894 0
M  V30 5592 H 517.527 -0.770514 3.7966 0
M  V30 5593 H 517.941 0.979082 5.15281 0
M  V30 5594 H 519.415 -0.70041 5.47538 0
M  V30 5595 H 519.892 -1.65039 4.07012 0
M  V30 5596 H 520.498 0.0117856 4.25298 0
M  V30 5597 N 518.813 -1.54241 0.323641 0
M  V30 5598 C 520.038 -2.05452 -0.283605 0
M  V30 5599 C 520.463 -1.19823 -1.44997 0
M  V30 5600 O 519.821 -0.207358 -1.8011 0
M  V30 5601 C 519.869 -3.53823 -0.695795 0
M  V30 5602 O 518.973 -3.71134 -1.79815 0
M  V30 5603 H 518.314 -0.662024 -0.0511917 0
M  V30 5604 H 520.844 -1.99079 0.472073 0
M  V30 5605 H 520.854 -3.96094 -0.978434 0
M  V30 5606 H 519.529 -4.15602 0.157287 0
M  V30 5607 H 518.106 -3.40768 -1.51431 0
M  V30 5608 N 520.291 -0.0518155 -1.57515 0
M  V30 5609 C 521.538 0.621823 -1.92716 0
M  V30 5610 C 521.866 1.70813 -0.930229 0
M  V30 5611 O 521.121 1.95616 0.0573708 0
M  V30 5612 C 521.42 1.25607 -3.34601 0
M  V30 5613 C 521.086 0.297901 -4.49915 0
M  V30 5614 C 519.748 0.034243 -4.81188 0
M  V30 5615 C 522.1 -0.358738 -5.19964 0
M  V30 5616 C 519.428 -0.893479 -5.79857 0
M  V30 5617 C 521.78 -1.27466 -6.19625 0
M  V30 5618 C 520.444 -1.54698 -6.49326 0
M  V30 5619 H 519.714 0.227541 -0.705199 0
M  V30 5620 H 522.361 -0.118432 -1.91133 0
M  V30 5621 H 520.666 2.07161 -3.32553 0
M  V30 5622 H 522.363 1.78424 -3.59118 0
M  V30 5623 H 518.953 0.513581 -4.25512 0
M  V30 5624 H 523.137 -0.168133 -4.96015 0
M  V30 5625 H 518.393 -1.11193 -6.01204 0
M  V30 5626 H 522.567 -1.78953 -6.73015 0
M  V30 5627 H 520.194 -2.26748 -7.25596 0
M  V30 5628 N 521.769 1.56035 0.221574 0
M  V30 5629 C 523.046 1.69837 0.970301 0
M  V30 5630 C 523.426 0.599065 2.02421 0
M  V30 5631 O 522.774 -0.393929 2.25079 0
M  V30 5632 C 522.984 3.11148 1.58076 0
M  V30 5633 C 524.332 3.70555 2.07302 0
M  V30 5634 O 525.356 3.14109 1.6797 0
M  V30 5635 O 524.215 4.69562 2.79596 0
M  V30 5636 H 521.309 0.691727 0.453257 0
M  V30 5637 H 523.855 1.68353 0.213358 0
M  V30 5638 H 522.627 3.82617 0.819759 0
M  V30 5639 H 522.25 3.16749 2.40324 0
M  V30 5640 N 523.247 -0.488276 1.49845 0
M  V30 5641 C 524.475 -1.26527 1.63702 0
M  V30 5642 C 524.89 -1.8618 0.313447 0
M  V30 5643 O 524.247 -1.68432 -0.702624 0
M  V30 5644 C 524.298 -2.3864 2.71538 0
M  V30 5645 O 524.019 -1.81437 3.98763 0
M  V30 5646 C 525.52 -3.29805 2.96215 0
M  V30 5647 H 522.74 -0.383295 0.55075 0
M  V30 5648 H 525.284 -0.584779 1.95961 0
M  V30 5649 H 523.439 -3.02496 2.42023 0
M  V30 5650 H 523.853 -2.55135 4.58265 0
M  V30 5651 H 525.327 -4.04722 3.75372 0
M  V30 5652 H 525.804 -3.87563 2.06619 0
M  V30 5653 H 526.41 -2.71703 3.27196 0
M  V30 5654 N 524.725 -1.39134 -0.740242 0
M  V30 5655 C 525.972 -1.36071 -1.49969 0
M  V30 5656 C 526.3 0.0450245 -1.94448 0
M  V30 5657 O 525.555 1.02482 -1.66721 0
M  V30 5658 C 525.854 -2.27457 -2.75678 0
M  V30 5659 C 525.52 -3.75185 -2.50094 0
M  V30 5660 C 524.182 -4.15439 -2.42825 0
M  V30 5661 C 526.534 -4.68643 -2.28086 0
M  V30 5662 C 523.862 -5.4722 -2.11584 0
M  V30 5663 C 526.214 -6.00695 -1.98363 0
M  V30 5664 C 524.878 -6.40018 -1.8956 0
M  V30 5665 H 524.148 -0.497921 -0.548777 0
M  V30 5666 H 526.795 -1.71599 -0.85007 0
M  V30 5667 H 525.1 -1.8503 -3.45356 0
M  V30 5668 H 526.797 -2.22384 -3.33686 0
M  V30 5669 H 523.387 -3.43279 -2.56627 0
M  V30 5670 H 527.571 -4.3838 -2.32672 0
M  V30 5671 H 522.827 -5.76615 -2.03287 0
M  V30 5672 H 527.001 -6.72644 -1.80341 0
M  V30 5673 H 524.628 -7.42051 -1.65117 0
M  V30 5674 N 526.204 0.969867 -1.24223 0
M  V30 5675 C 527.429 1.75289 -1.10853 0
M  V30 5676 C 527.854 1.85091 0.335079 0
M  V30 5677 O 527.212 1.32024 1.24255 0
M  V30 5678 C 527.26 3.15255 -1.75062 0
M  V30 5679 O 526.364 3.99589 -1.01992 0
M  V30 5680 H 525.705 0.538904 -0.387915 0
M  V30 5681 H 528.235 1.21675 -1.64488 0
M  V30 5682 H 528.245 3.65787 -1.80731 0
M  V30 5683 H 526.92 3.07436 -2.801 0
M  V30 5684 H 525.497 3.58077 -1.04094 0
M  V30 5685 N 527.682 1.05563 1.17022 0
M  V30 5686 C 528.928 0.778872 1.87897 0
M  V30 5687 C 529.283 -0.686839 1.79723 0
M  V30 5688 O 528.576 -1.49612 1.19694 0
M  V30 5689 C 528.77 1.19849 3.36706 0
M  V30 5690 C 528.599 2.70345 3.59366 0
M  V30 5691 C 527.369 3.37707 3.75875 0
M  V30 5692 C 529.567 3.68564 3.58699 0
M  V30 5693 N 527.549 4.7703 3.86414 0
M  V30 5694 C 528.92 4.93634 3.75134 0
M  V30 5695 C 530.975 3.6198 3.4187 0
M  V30 5696 C 529.678 6.12907 3.76481 0
M  V30 5697 C 531.704 4.80697 3.44507 0
M  V30 5698 C 531.066 6.04592 3.61453 0
M  V30 5699 H 527.165 0.337297 0.705517 0
M  V30 5700 H 529.749 1.34832 1.40458 0
M  V30 5701 H 527.92 0.656958 3.82804 0
M  V30 5702 H 529.652 0.871172 3.95212 0
M  V30 5703 H 526.407 2.88108 3.75887 0
M  V30 5704 H 526.831 5.49483 3.95471 0
M  V30 5705 H 531.473 2.67154 3.27702 0
M  V30 5706 H 529.191 7.08073 3.89432 0
M  V30 5707 H 532.777 4.77259 3.32738 0
M  V30 5708 H 531.657 6.94916 3.63403 0
M  V30 5709 N 529.16 -1.33526 0.837174 0
M  V30 5710 C 530.123 -2.27551 0.274421 0
M  V30 5711 C 531.123 -1.50886 -0.555881 0
M  V30 5712 O 532.313 -1.70227 -0.369918 0
M  V30 5713 C 529.445 -3.35332 -0.613605 0
M  V30 5714 H 530.638 -2.78837 1.10408 0
M  V30 5715 H 528.191 -1.439 0.610126 0
M  V30 5716 H 528.926 -2.89285 -1.46577 0
M  V30 5717 H 528.711 -3.92095 -0.0195341 0
M  V30 5718 H 530.201 -4.05433 -1.00068 0
M  V30 5719 N 530.638 -0.59345 -1.46 0
M  V30 5720 C 531.885 -0.0831523 -2.02329 0
M  V30 5721 C 532.213 1.28093 -1.46364 0
M  V30 5722 O 531.468 1.85526 -0.622793 0
M  V30 5723 C 531.767 0.021178 -3.57394 0
M  V30 5724 C 531.433 -1.27671 -4.32448 0
M  V30 5725 C 530.095 -1.63227 -4.5267 0
M  V30 5726 C 532.447 -2.13511 -4.7546 0
M  V30 5727 C 529.775 -2.84401 -5.1316 0
M  V30 5728 C 532.127 -3.33922 -5.37289 0
M  V30 5729 C 530.791 -3.69747 -5.55737 0
M  V30 5730 H 530.061 -0.0304276 -0.740375 0
M  V30 5731 H 532.708 -0.772239 -1.75239 0
M  V30 5732 H 531.013 0.793454 -3.83682 0
M  V30 5733 H 532.71 0.431942 -3.98667 0
M  V30 5734 H 529.3 -0.989937 -4.17011 0
M  V30 5735 H 533.484 -1.87344 -4.59582 0
M  V30 5736 H 528.74 -3.12282 -5.25633 0
M  V30 5737 H 532.914 -4.00698 -5.69574 0
M  V30 5738 H 530.541 -4.6373 -6.02377 0
M  V30 5739 N 532.116 1.54067 -0.331816 0
M  V30 5740 C 533.046 2.27569 0.522932 0
M  V30 5741 C 534.027 1.28679 1.11247 0
M  V30 5742 O 535.212 1.57504 1.13605 0
M  V30 5743 C 532.342 3.0397 1.67987 0
M  V30 5744 C 531.296 4.10267 1.21924 0
M  V30 5745 C 530.622 4.74555 2.46377 0
M  V30 5746 C 531.922 5.21268 0.32815 0
M  V30 5747 H 533.616 2.99264 -0.0901977 0
M  V30 5748 H 531.162 1.4393 -0.044821 0
M  V30 5749 H 533.115 3.54123 2.28418 0
M  V30 5750 H 531.839 2.29906 2.31971 0
M  V30 5751 H 530.498 3.61009 0.637809 0
M  V30 5752 H 530.146 3.97098 3.08743 0
M  V30 5753 H 529.846 5.46363 2.16243 0
M  V30 5754 H 531.37 5.27487 3.07555 0
M  V30 5755 H 532.784 5.67128 0.838978 0
M  V30 5756 H 531.181 5.99982 0.119228 0
M  V30 5757 H 532.251 4.80673 -0.638839 0
M  V30 5758 N 533.594 0.0601682 1.57485 0
M  V30 5759 C 534.557 -0.896373 2.10945 0
M  V30 5760 C 535.557 -1.23402 1.03095 0
M  V30 5761 O 536.747 -1.16921 1.29132 0
M  V30 5762 C 533.879 -2.20346 2.60116 0
M  V30 5763 H 535.072 -0.432778 2.96761 0
M  V30 5764 H 532.625 -0.188372 1.55161 0
M  V30 5765 H 533.36 -2.71268 1.7772 0
M  V30 5766 H 533.145 -1.9714 3.38937 0
M  V30 5767 H 534.635 -2.88846 3.01592 0
M  V30 5768 N 535.072 -1.5615 -0.213296 0
M  V30 5769 C 536.002 -1.96109 -1.26742 0
M  V30 5770 C 536.983 -0.830448 -1.48451 0
M  V30 5771 O 538.168 -1.09339 -1.60495 0
M  V30 5772 C 535.298 -2.28492 -2.61551 0
M  V30 5773 C 534.252 -3.44124 -2.54485 0
M  V30 5774 C 533.578 -3.62134 -3.93399 0
M  V30 5775 C 534.878 -4.78855 -2.08556 0
M  V30 5776 H 536.572 -2.84412 -0.935434 0
M  V30 5777 H 534.118 -1.36836 -0.44854 0
M  V30 5778 H 536.071 -2.55039 -3.3546 0
M  V30 5779 H 534.795 -1.37052 -2.96453 0
M  V30 5780 H 533.454 -3.17639 -1.83033 0
M  V30 5781 H 533.102 -2.68055 -4.25623 0
M  V30 5782 H 532.802 -4.39913 -3.89551 0
M  V30 5783 H 534.326 -3.91038 -4.68958 0
M  V30 5784 H 535.74 -5.04552 -2.72213 0
M  V30 5785 H 534.137 -5.59975 -2.1575 0
M  V30 5786 H 535.207 -4.73657 -1.03811 0
M  V30 5787 N 536.55 0.480323 -1.50102 0
M  V30 5788 C 537.797 1.23307 -1.60629 0
M  V30 5789 C 538.125 1.92135 -0.302375 0
M  V30 5790 O 537.38 1.82321 0.711154 0
M  V30 5791 C 537.679 2.30708 -2.72963 0
M  V30 5792 C 537.345 1.79195 -4.13763 0
M  V30 5793 C 536.007 1.64867 -4.52076 0
M  V30 5794 C 538.359 1.40878 -5.018 0
M  V30 5795 C 535.687 1.10631 -5.76175 0
M  V30 5796 C 538.039 0.880872 -6.26437 0
M  V30 5797 C 536.703 0.724146 -6.6356 0
M  V30 5798 H 535.973 0.451211 -0.587784 0
M  V30 5799 H 538.62 0.53051 -1.84005 0
M  V30 5800 H 536.925 3.06834 -2.43639 0
M  V30 5801 H 538.622 2.88692 -2.78313 0
M  V30 5802 H 535.212 1.91313 -3.83533 0
M  V30 5803 H 539.396 1.50786 -4.7284 0
M  V30 5804 H 534.652 0.972263 -6.0362 0
M  V30 5805 H 538.826 0.575269 -6.9402 0
M  V30 5806 H 536.453 0.301722 -7.59601 0
M  V30 5807 N 538.028 1.39524 0.732853 0
M  V30 5808 C 539.444 1.21176 1.03868 0
M  V30 5809 C 539.644 0.0748448 2.01361 0
M  V30 5810 O 538.7 -0.57281 2.45917 0
M  V30 5811 C 540.013 2.54667 1.59892 0
M  V30 5812 C 541.561 2.6153 1.71962 0
M  V30 5813 C 542.036 3.95248 2.31394 0
M  V30 5814 N 543.527 3.96899 2.38801 0
M  V30 5815 C 544.262 4.97138 2.85729 0
M  V30 5816 N 543.758 6.07775 3.32537 0
M  V30 5817 N 545.551 4.84516 2.84957 0
M  V30 5818 H 537.702 2.12225 0.086304 0
M  V30 5819 H 539.965 0.942614 0.100907 0
M  V30 5820 H 539.671 3.38423 0.95721 0
M  V30 5821 H 539.545 2.74538 2.58668 0
M  V30 5822 H 541.932 1.78156 2.35254 0
M  V30 5823 H 542.013 2.45507 0.718327 0
M  V30 5824 H 541.657 4.79054 1.68729 0
M  V30 5825 H 541.587 4.08593 3.32204 0
M  V30 5826 H 544.078 3.16998 2.05719 0
M  V30 5827 H 544.391 6.8017 3.66862 0
M  V30 5828 H 542.736 6.11366 3.30541 0
M  V30 5829 H 545.927 3.97185 2.47713 0
M  V30 5830 H 546.1 5.62783 3.21215 0
M  V30 5831 N 539.506 -0.963266 1.24736 0
M  V30 5832 C 540.436 -2.07628 1.06832 0
M  V30 5833 C 541.417 -1.70088 -0.0200566 0
M  V30 5834 O 542.602 -1.93636 0.147854 0
M  V30 5835 C 539.732 -3.40636 0.677069 0
M  V30 5836 C 538.686 -3.9215 1.71471 0
M  V30 5837 C 538.012 -5.21553 1.1784 0
M  V30 5838 C 539.312 -4.19493 3.11164 0
M  V30 5839 H 541.006 -2.22864 1.9993 0
M  V30 5840 H 538.552 -1.07093 0.96266 0
M  V30 5841 H 540.505 -4.17941 0.538792 0
M  V30 5842 H 539.229 -3.25313 -0.289612 0
M  V30 5843 H 537.888 -3.17005 1.84128 0
M  V30 5844 H 537.536 -5.02593 0.202195 0
M  V30 5845 H 537.236 -5.56988 1.87185 0
M  V30 5846 H 538.76 -6.01463 1.05233 0
M  V30 5847 H 540.174 -4.87487 3.01711 0
M  V30 5848 H 538.571 -4.66165 3.77902 0
M  V30 5849 H 539.641 -3.26097 3.58871 0
M  V30 5850 N 540.985 -1.06182 -1.16461 0
M  V30 5851 C 541.918 -0.615859 -2.19733 0
M  V30 5852 C 542.896 0.360766 -1.58547 0
M  V30 5853 O 544.08 0.270009 -1.86556 0
M  V30 5854 C 541.207 0.097312 -3.3856 0
M  V30 5855 C 540.253 -0.835889 -4.18229 0
M  V30 5856 S 541.086 -2.33052 -4.82128 0
M  V30 5857 C 542.242 -1.62881 -6.04335 0
M  V30 5858 H 542.475 -1.49079 -2.57221 0
M  V30 5859 H 540.008 -0.874692 -1.27234 0
M  V30 5860 H 541.966 0.502563 -4.07412 0
M  V30 5861 H 540.627 0.948418 -2.99439 0
M  V30 5862 H 539.82 -0.283426 -5.03202 0
M  V30 5863 H 539.422 -1.18097 -3.54865 0
M  V30 5864 H 541.714 -0.933764 -6.71034 0
M  V30 5865 H 542.657 -2.45641 -6.64128 0
M  V30 5866 H 543.065 -1.11189 -5.53441 0
M  V30 5867 N 542.463 1.3308 -0.844243 0
M  V30 5868 C 543.691 2.01808 -0.456203 0
M  V30 5869 C 544.106 1.63498 0.944131 0
M  V30 5870 O 543.463 0.85102 1.61443 0
M  V30 5871 C 543.514 3.56922 -0.573513 0
M  V30 5872 O 543.235 3.93851 -1.91868 0
M  V30 5873 C 544.736 4.42922 -0.183125 0
M  V30 5874 H 541.956 0.646273 -0.180477 0
M  V30 5875 H 544.5 1.69891 -1.1383 0
M  V30 5876 H 542.655 3.87352 0.0607367 0
M  V30 5877 H 543.069 4.88564 -1.90802 0
M  V30 5878 H 544.543 5.51093 -0.316241 0
M  V30 5879 H 545.02 4.30386 0.875477 0
M  V30 5880 H 545.626 4.1786 -0.792027 0
M  V30 5881 N 543.941 0.601185 1.45683 0
M  V30 5882 C 544.873 -0.159446 2.28645 0
M  V30 5883 C 545.886 -0.837882 1.39583 0
M  V30 5884 O 547.075 -0.704344 1.64016 0
M  V30 5885 C 544.175 -1.24641 3.15147 0
M  V30 5886 C 543.348 -0.656334 4.32448 0
M  V30 5887 C 542.407 -1.63337 5.00208 0
M  V30 5888 O 541.433 -1.16217 5.57209 0
M  V30 5889 N 542.635 -2.96773 4.98905 0
M  V30 5890 H 545.4 0.5524 2.94565 0
M  V30 5891 H 542.961 0.440223 1.558 0
M  V30 5892 H 544.953 -1.8997 3.57342 0
M  V30 5893 H 543.523 -1.86087 2.51178 0
M  V30 5894 H 542.743 0.174879 3.93812 0
M  V30 5895 H 544.031 -0.242211 5.08223 0
M  V30 5896 H 543.429 -3.37662 4.53873 0
M  V30 5897 H 541.986 -3.57541 5.44984 0
M  V30 5898 N 545.419 -1.53889 0.339982 0
M  V30 5899 C 546.696 -1.93084 -0.312719 0
M  V30 5900 C 547.076 -1.2712 -1.68534 0
M  V30 5901 O 546.424 -0.420835 -2.24591 0
M  V30 5902 C 546.634 -3.4683 -0.388558 0
M  V30 5903 C 547.982 -4.19732 -0.641088 0
M  V30 5904 O 549.006 -3.53075 -0.470818 0
M  V30 5905 O 547.865 -5.3781 -0.970685 0
M  V30 5906 H 544.959 -0.806784 -0.18174 0
M  V30 5907 H 547.505 -1.65137 0.390898 0
M  V30 5908 H 546.277 -3.87055 0.574821 0
M  V30 5909 H 545.9 -3.80933 -1.1391 0
M  V30 5910 N 546.897 -0.0685191 -1.57451 0
M  V30 5911 C 548.127 0.609577 -1.97402 0
M  V30 5912 C 548.535 1.63882 -0.945489 0
M  V30 5913 O 547.878 1.8354 0.0766052 0
M  V30 5914 C 547.94 1.3385 -3.33653 0
M  V30 5915 C 547.604 0.463103 -4.54648 0
M  V30 5916 C 548.601 -0.277964 -5.19156 0
M  V30 5917 C 546.286 0.388941 -5.00792 0
M  V30 5918 C 548.28 -1.08145 -6.28159 0
M  V30 5919 C 545.967 -0.418217 -6.09667 0
M  V30 5920 C 546.965 -1.15208 -6.73213 0
M  V30 5921 O 546.653 -1.94594 -7.79993 0
M  V30 5922 H 546.385 0.170197 -0.654224 0
M  V30 5923 H 548.939 -0.13647 -2.04946 0
M  V30 5924 H 547.169 2.13055 -3.22714 0
M  V30 5925 H 548.858 1.90851 -3.58233 0
M  V30 5926 H 549.624 -0.230241 -4.84453 0
M  V30 5927 H 545.503 0.949769 -4.5111 0
M  V30 5928 H 549.047 -1.65476 -6.7769 0
M  V30 5929 H 544.944 -0.467515 -6.43805 0
M  V30 5930 H 545.712 -1.8699 -7.96854 0
M  V30 5931 N 548.375 1.56261 0.205012 0
M  V30 5932 C 549.621 1.81211 0.923805 0
M  V30 5933 C 549.976 0.644065 1.813 0
M  V30 5934 O 549.269 -0.361208 1.88164 0
M  V30 5935 C 549.463 3.09722 1.78345 0
M  V30 5936 C 549.292 4.38915 0.978979 0
M  V30 5937 C 548.062 5.00874 0.667332 0
M  V30 5938 C 550.26 5.13199 0.336386 0
M  V30 5939 N 548.242 6.137 -0.156814 0
M  V30 5940 C 549.613 6.19009 -0.350402 0
M  V30 5941 C 551.668 4.97266 0.251101 0
M  V30 5942 C 550.371 7.10616 -1.11434 0
M  V30 5943 C 552.397 5.89288 -0.499413 0
M  V30 5944 C 551.759 6.94536 -1.17468 0
M  V30 5945 H 547.858 0.714528 0.317764 0
M  V30 5946 H 550.442 1.93738 0.193317 0
M  V30 5947 H 548.613 2.98448 2.48563 0
M  V30 5948 H 550.345 3.22798 2.44098 0
M  V30 5949 H 547.1 4.63151 0.989366 0
M  V30 5950 H 547.524 6.74695 -0.558206 0
M  V30 5951 H 552.166 4.15935 0.758823 0
M  V30 5952 H 549.884 7.91417 -1.63353 0
M  V30 5953 H 553.47 5.79034 -0.566627 0
M  V30 5954 H 552.35 7.64513 -1.74613 0
M  V30 5955 N 549.853 -0.472356 1.50355 0
M  V30 5956 C 550.763 -1.59637 1.7191 0
M  V30 5957 C 551.779 -1.63247 0.602195 0
M  V30 5958 O 552.955 -1.81139 0.880369 0
M  V30 5959 C 550.02 -2.9586 1.80742 0
M  V30 5960 C 549.081 -3.02649 3.04471 0
M  V30 5961 C 548.314 -4.32374 3.12872 0
M  V30 5962 O 548.537 -5.22807 2.28099 0
M  V30 5963 O 547.471 -4.44728 4.05587 0
M  V30 5964 H 551.297 -1.44373 2.67189 0
M  V30 5965 H 548.882 -0.651717 1.34436 0
M  V30 5966 H 550.764 -3.7677 1.88739 0
M  V30 5967 H 549.439 -3.11325 0.88647 0
M  V30 5968 H 548.346 -2.20821 3.01975 0
M  V30 5969 H 549.679 -2.92119 3.9614 0
M  V30 5970 N 551.331 -1.39911 -0.725443 0
M  V30 5971 C 552.279 -1.39552 -1.86086 0
M  V30 5972 C 553.273 -0.277334 -1.67114 0
M  V30 5973 O 554.479 -0.447865 -1.74339 0
M  V30 5974 H 550.854 -0.435993 -0.612711 0
M  V30 5975 H 552.825 -2.35305 -1.83505 0
M  V30 5976 C 551.574 -1.26529 -3.2386 0
M  V30 5977 H 550.897 -2.11845 -3.3906 0
M  V30 5978 H 552.337 -1.30336 -4.03471 0
M  V30 5979 C 550.796 0.0254168 -3.3689 0
M  V30 5980 O 551.326 0.992048 -3.89257 0
M  V30 5981 N 549.532 0.0916528 -2.90455 0
M  V30 5982 H 549.079 -0.695675 -2.48028 0
M  V30 5983 H 549.037 0.954745 -2.99553 0
M  V30 5984 N 552.809 0.956637 -1.25245 0
M  V30 5985 C 553.739 2.07058 -1.07931 0
M  V30 5986 C 554.72 1.70096 0.0110361 0
M  V30 5987 O 555.905 1.93555 -0.158121 0
M  V30 5988 C 553.035 3.40272 -0.695124 0
M  V30 5989 C 551.989 3.91235 -1.73549 0
M  V30 5990 C 551.315 5.20921 -1.20604 0
M  V30 5991 C 552.615 4.17837 -3.13385 0
M  V30 5992 H 554.309 2.218 -2.01109 0
M  V30 5993 H 551.855 1.06581 -0.968326 0
M  V30 5994 H 553.808 4.1765 -0.560949 0
M  V30 5995 H 552.532 3.25462 0.272355 0
M  V30 5996 H 551.191 3.16025 -1.85807 0
M  V30 5997 H 550.839 5.02479 -0.228846 0
M  V30 5998 H 550.539 5.55987 -1.90136 0
M  V30 5999 H 552.063 6.00897 -1.08421 0
M  V30 6000 H 553.477 4.8588 -3.04292 0
M  V30 6001 H 551.874 4.64154 -3.80369 0
M  V30 6002 H 552.944 3.2419 -3.60595 0
M  V30 6003 N 554.287 1.06798 1.15896 0
M  V30 6004 C 555.517 0.807522 1.90165 0
M  V30 6005 C 555.925 -0.642417 1.7796 0
M  V30 6006 O 555.268 -1.45193 1.12537 0
M  V30 6007 C 555.33 1.12939 3.41299 0
M  V30 6008 C 554.994 2.57879 3.7729 0
M  V30 6009 C 555.991 3.56118 3.78782 0
M  V30 6010 C 553.676 2.93311 4.07767 0
M  V30 6011 C 555.67 4.87827 4.10248 0
M  V30 6012 C 553.357 4.25219 4.38899 0
M  V30 6013 C 554.355 5.22287 4.4012 0
M  V30 6014 O 554.043 6.51826 4.70508 0
M  V30 6015 H 553.775 0.291946 0.609708 0
M  V30 6016 H 556.329 1.42627 1.47806 0
M  V30 6017 H 554.559 0.45359 3.84031 0
M  V30 6018 H 556.248 0.852363 3.9685 0
M  V30 6019 H 557.014 3.30086 3.55342 0
M  V30 6020 H 552.893 2.18409 4.05979 0
M  V30 6021 H 556.437 5.63586 4.11116 0
M  V30 6022 H 552.334 4.51006 4.61805 0
M  V30 6023 H 553.102 6.56893 4.88298 0
M  V30 6024 N 555.766 -1.3263 0.851289 0
M  V30 6025 C 556.698 -2.27824 0.250757 0
M  V30 6026 C 557.711 -1.52285 -0.575598 0
M  V30 6027 O 558.9 -1.73946 -0.400638 0
M  V30 6028 C 556 -3.3232 -0.664571 0
M  V30 6029 C 555.173 -4.37221 0.125187 0
M  V30 6030 C 554.232 -5.21314 -0.715385 0
M  V30 6031 O 553.258 -5.69002 -0.150111 0
M  V30 6032 N 554.46 -5.43823 -2.03069 0
M  V30 6033 H 557.225 -2.79997 1.06873 0
M  V30 6034 H 554.786 -1.45455 0.710943 0
M  V30 6035 H 556.778 -3.85486 -1.23216 0
M  V30 6036 H 555.348 -2.80331 -1.38323 0
M  V30 6037 H 554.568 -3.84384 0.874199 0
M  V30 6038 H 555.856 -5.04399 0.667774 0
M  V30 6039 H 555.254 -5.06803 -2.51332 0
M  V30 6040 H 553.811 -5.99998 -2.54648 0
M  V30 6041 N 557.244 -0.608902 -1.45362 0
M  V30 6042 C 558.174 0.0964526 -2.33301 0
M  V30 6043 C 559.155 0.857444 -1.46908 0
M  V30 6044 O 560.34 0.827735 -1.75676 0
M  V30 6045 C 557.47 1.09354 -3.29635 0
M  V30 6046 C 556.424 0.445676 -4.25673 0
M  V30 6047 C 555.75 1.5511 -5.11708 0
M  V30 6048 C 557.05 -0.633972 -5.18438 0
M  V30 6049 H 558.744 -0.637829 -2.92527 0
M  V30 6050 H 556.29 -0.308178 -1.40664 0
M  V30 6051 H 558.243 1.59556 -3.90025 0
M  V30 6052 H 556.967 1.85843 -2.6857 0
M  V30 6053 H 555.626 -0.0354897 -3.66583 0
M  V30 6054 H 555.274 2.30631 -4.4701 0
M  V30 6055 H 554.974 1.12311 -5.76767 0
M  V30 6056 H 556.498 2.05537 -5.74967 0
M  V30 6057 H 557.912 -0.215974 -5.72893 0
M  V30 6058 H 556.309 -0.983789 -5.91981 0
M  V30 6059 H 557.379 -1.51005 -4.60788 0
M  V30 6060 N 558.722 1.53707 -0.348139 0
M  V30 6061 C 559.95 2.05406 0.248224 0
M  V30 6062 C 560.365 1.22282 1.43849 0
M  V30 6063 O 559.722 0.259244 1.80649 0
M  V30 6064 C 559.773 3.55446 0.658793 0
M  V30 6065 O 559.494 4.35417 -0.484149 0
M  V30 6066 C 560.995 4.23335 1.31539 0
M  V30 6067 H 558.215 0.669344 0.0471075 0
M  V30 6068 H 560.759 1.98257 -0.501456 0
M  V30 6069 H 558.914 3.62803 1.35841 0
M  V30 6070 H 559.328 5.24268 -0.155949 0
M  V30 6071 H 560.802 5.29692 1.55338 0
M  V30 6072 H 561.279 3.75967 2.27036 0
M  V30 6073 H 561.885 4.20184 0.657683 0
M  V30 6074 N 560.2 0.0768682 1.57412 0
M  V30 6075 C 561.13 -0.886026 2.16037 0
M  V30 6076 C 562.111 -1.30691 1.08876 0
M  V30 6077 O 563.296 -1.37705 1.36934 0
M  V30 6078 C 560.426 -2.1518 2.72608 0
M  V30 6079 C 559.38 -1.87015 3.8498 0
M  V30 6080 C 558.706 -3.20266 4.28175 0
M  V30 6081 C 560.006 -1.17143 5.08994 0
M  V30 6082 H 561.7 -0.397642 2.96748 0
M  V30 6083 H 559.246 -0.189823 1.42743 0
M  V30 6084 H 561.199 -2.82962 3.12266 0
M  V30 6085 H 559.923 -2.66269 1.89125 0
M  V30 6086 H 558.582 -1.21636 3.45833 0
M  V30 6087 H 558.23 -3.69207 3.41607 0
M  V30 6088 H 557.93 -3.0221 5.03927 0
M  V30 6089 H 559.454 -3.89237 4.70454 0
M  V30 6090 H 560.868 -1.75003 5.45937 0
M  V30 6091 H 559.265 -1.09328 5.90057 0
M  V30 6092 H 560.335 -0.151295 4.84664 0
M  V30 6093 N 561.678 -1.56367 -0.196722 0
M  V30 6094 C 563.094 -1.49916 -0.54749 0
M  V30 6095 C 563.294 -0.77659 -1.85934 0
M  V30 6096 O 562.35 -0.32644 -2.50381 0
M  V30 6097 C 563.663 -2.94577 -0.603734 0
M  V30 6098 C 565.211 -3.05239 -0.692677 0
M  V30 6099 C 565.686 -4.51308 -0.780046 0
M  V30 6100 N 567.177 -4.55453 -0.843616 0
M  V30 6101 C 567.912 -5.65786 -0.931358 0
M  V30 6102 N 567.408 -6.85812 -0.981503 0
M  V30 6103 N 569.201 -5.53695 -0.968421 0
M  V30 6104 H 561.352 -2.01761 0.663803 0
M  V30 6105 H 563.615 -0.918094 0.236238 0
M  V30 6106 H 563.321 -3.50494 0.29105 0
M  V30 6107 H 563.195 -3.47841 -1.45898 0
M  V30 6108 H 565.582 -2.49372 -1.57789 0
M  V30 6109 H 565.663 -2.55103 0.188736 0
M  V30 6110 H 565.307 -5.078 0.100811 0
M  V30 6111 H 565.237 -4.99176 -1.67724 0
M  V30 6112 H 567.728 -3.69025 -0.814176 0
M  V30 6113 H 568.041 -7.65648 -1.04892 0
M  V30 6114 H 566.386 -6.88474 -0.950208 0
M  V30 6115 H 569.577 -4.58848 -0.926072 0
M  V30 6116 H 569.75 -6.39708 -1.03334 0
M  V30 6117 N 563.156 0.464375 -1.50603 0
M  V30 6118 C 564.119 1.54393 -1.69397 0
M  V30 6119 C 565.119 1.50566 -0.564504 0
M  V30 6120 O 566.309 1.53066 -0.831645 0
M  V30 6121 C 563.441 2.9401 -1.72543 0
M  V30 6122 H 564.634 1.39044 -2.65719 0
M  V30 6123 H 562.187 0.69122 -1.40185 0
M  V30 6124 H 562.922 3.14795 -0.77938 0
M  V30 6125 H 562.707 2.98195 -2.54602 0
M  V30 6126 H 564.197 3.72375 -1.89015 0
M  V30 6127 N 564.634 1.40294 0.718013 0
M  V30 6128 C 565.597 1.4012 1.81381 0
M  V30 6129 C 566.597 0.295405 1.58063 0
M  V30 6130 O 567.787 0.554187 1.6515 0
M  V30 6131 C 564.919 1.19056 3.19435 0
M  V30 6132 H 566.112 2.37645 1.82933 0
M  V30 6133 H 563.665 1.26107 0.923405 0
M  V30 6134 H 564.4 0.222809 3.23534 0
M  V30 6135 H 564.185 1.99152 3.37758 0
M  V30 6136 H 565.675 1.21716 3.99468 0
M  V30 6137 N 566.112 -0.949982 1.2575 0
M  V30 6138 C 567.36 -1.6918 1.10555 0
M  V30 6139 C 567.681 -1.91773 -0.353298 0
M  V30 6140 O 566.951 -1.50814 -1.25027 0
M  V30 6141 H 565.531 -0.626952 0.406129 0
M  V30 6142 H 568.193 -1.1419 1.57945 0
M  V30 6143 H 567.289 -2.66915 1.61749 0
M  V30 6144 N 567.59 -1.07411 -1.15328 0
M  V30 6145 C 568.537 -0.694995 -2.20087 0
M  V30 6146 C 569.507 0.313904 -1.63107 0
M  V30 6147 O 570.692 0.200216 -1.89747 0
M  V30 6148 C 567.832 -0.0996218 -3.44956 0
M  V30 6149 C 566.945 -1.16007 -4.16133 0
M  V30 6150 C 566.08 -0.529636 -5.28553 0
M  V30 6151 C 565.119 -1.57283 -5.91548 0
M  V30 6152 N 564.256 -0.964932 -6.95438 0
M  V30 6153 H 569.096 -1.5927 -2.51867 0
M  V30 6154 H 566.633 -0.796115 -1.23695 0
M  V30 6155 H 568.591 0.263197 -4.16369 0
M  V30 6156 H 567.221 0.761435 -3.13691 0
M  V30 6157 H 566.273 -1.64045 -3.4321 0
M  V30 6158 H 567.585 -1.95101 -4.59061 0
M  V30 6159 H 566.739 -0.114487 -6.06592 0
M  V30 6160 H 565.478 0.29307 -4.86819 0
M  V30 6161 H 564.483 -1.99775 -5.12221 0
M  V30 6162 H 565.708 -2.39783 -6.35359 0
M  V30 6163 H 563.654 -0.16314 -6.55797 0
M  V30 6164 H 563.571 -1.69311 -7.36797 0
M  V30 6165 H 564.839 -0.575305 -7.77374 0
M  V30 6166 N 569.068 1.32177 -0.85831 0
M  V30 6167 C 570.296 2.01313 -0.477582 0
M  V30 6168 C 570.711 1.6449 0.926736 0
M  V30 6169 O 570.068 0.868096 1.60531 0
M  V30 6170 C 570.119 3.56293 -0.611337 0
M  V30 6171 O 569.84 3.91794 -1.96034 0
M  V30 6172 C 571.341 4.42702 -0.230093 0
M  V30 6173 H 568.561 0.644323 -0.187322 0
M  V30 6174 H 571.105 1.68674 -1.15626 0
M  V30 6175 H 569.26 3.87395 0.0196494 0
M  V30 6176 H 569.674 4.86513 -1.95973 0
M  V30 6177 H 571.148 5.50727 -0.374674 0
M  V30 6178 H 571.625 4.3129 0.829779 0
M  V30 6179 H 572.231 4.16997 -0.836302 0
M  V30 6180 N 570.547 0.616602 1.45037 0
M  V30 6181 C 571.777 0.121791 2.06241 0
M  V30 6182 C 572.185 -1.20289 1.46038 0
M  V30 6183 O 571.528 -1.7456 0.572242 0
M  V30 6184 C 571.59 -0.0827345 3.59405 0
M  V30 6185 C 571.254 1.16153 4.41993 0
M  V30 6186 C 572.251 2.08183 4.76399 0
M  V30 6187 C 569.936 1.39288 4.82601 0
M  V30 6188 C 571.93 3.21668 5.5028 0
M  V30 6189 C 569.617 2.53073 5.56235 0
M  V30 6190 C 570.615 3.44091 5.89992 0
M  V30 6191 O 570.303 4.55894 6.6213 0
M  V30 6192 H 570.035 0.0701667 0.672349 0
M  V30 6193 H 572.589 0.846877 1.87129 0
M  V30 6194 H 570.819 -0.862812 3.76952 0
M  V30 6195 H 572.508 -0.530273 4.02421 0
M  V30 6196 H 573.274 1.91538 4.45576 0
M  V30 6197 H 569.153 0.693396 4.55755 0
M  V30 6198 H 572.697 3.92733 5.76547 0
M  V30 6199 H 568.594 2.69667 5.86472 0
M  V30 6200 H 569.362 4.5469 6.80587 0
M  V30 6201 N 572.025 -1.5352 0.356285 0
M  V30 6202 C 572.958 -2.2177 -0.537913 0
M  V30 6203 C 573.936 -1.20626 -1.09033 0
M  V30 6204 O 575.12 -1.49494 -1.1482 0
M  V30 6205 C 572.247 -2.90513 -1.74126 0
M  V30 6206 C 571.293 -4.05652 -1.31715 0
M  V30 6207 S 572.126 -5.34505 -0.326236 0
M  V30 6208 C 573.282 -6.06757 -1.53612 0
M  V30 6209 H 573.515 -2.97271 0.0417411 0
M  V30 6210 H 571.048 -1.53761 0.140372 0
M  V30 6211 H 573.006 -3.30735 -2.43155 0
M  V30 6212 H 571.667 -2.14754 -2.29215 0
M  V30 6213 H 570.86 -4.52733 -2.21471 0
M  V30 6214 H 570.462 -3.67272 -0.706183 0
M  V30 6215 H 572.754 -6.30924 -2.46863 0
M  V30 6216 H 573.697 -6.99395 -1.10687 0
M  V30 6217 H 574.105 -5.3708 -1.73796 0
M  V30 6218 N 573.503 -0.0852151 -1.57369 0
M  V30 6219 C 574.752 0.580443 -1.93168 0
M  V30 6220 C 575.065 1.6995 -0.968319 0
M  V30 6221 O 576.271 2.42564 -1.21963 0
M  V30 6222 C 574.727 1.08386 -3.43192 0
M  V30 6223 C 574.335 -0.00491388 -4.48 0
M  V30 6224 C 576.079 1.72281 -3.87968 0
M  V30 6225 C 573.986 0.513299 -5.89168 0
M  V30 6226 H 572.916 0.22059 -0.72101 0
M  V30 6227 H 575.567 -0.159621 -1.82804 0
M  V30 6228 H 573.949 1.8773 -3.48674 0
M  V30 6229 H 575.123 -0.780032 -4.5415 0
M  V30 6230 H 573.438 -0.548453 -4.12772 0
M  V30 6231 H 576.035 2.12108 -4.9083 0
M  V30 6232 H 576.378 2.58811 -3.26071 0
M  V30 6233 H 576.911 0.995359 -3.85146 0
M  V30 6234 H 573.65 -0.315153 -6.54742 0
M  V30 6235 H 573.17 1.25564 -5.8651 0
M  V30 6236 H 574.849 0.985433 -6.39451 0
M  V30 6237 N 574.981 1.5647 0.188427 0
M  V30 6238 C 576.228 1.81013 0.907779 0
M  V30 6239 C 576.556 0.65953 1.82977 0
M  V30 6240 O 575.811 -0.354308 1.92466 0
M  V30 6241 C 576.11 3.11596 1.7505 0
M  V30 6242 C 575.776 4.40145 0.978922 0
M  V30 6243 C 574.438 4.75066 0.765912 0
M  V30 6244 C 576.79 5.19369 0.436498 0
M  V30 6245 C 574.118 5.867 -0.00089868 0
M  V30 6246 C 576.47 6.31805 -0.317136 0
M  V30 6247 C 575.134 6.65303 -0.541103 0
M  V30 6248 H 574.404 0.662373 0.33218 0
M  V30 6249 H 577.051 1.9071 0.173732 0
M  V30 6250 H 575.356 2.97165 2.55343 0
M  V30 6251 H 577.053 3.27793 2.30983 0
M  V30 6252 H 573.643 4.12745 1.15497 0
M  V30 6253 H 577.827 4.92799 0.588449 0
M  V30 6254 H 573.083 6.11122 -0.184329 0
M  V30 6255 H 577.257 6.92406 -0.744788 0
M  V30 6256 H 574.884 7.51646 -1.13718 0
M  V30 6257 N 576.459 -0.456382 1.50847 0
M  V30 6258 C 577.706 -1.20736 1.62571 0
M  V30 6259 C 578.034 -1.9163 0.332904 0
M  V30 6260 O 577.289 -1.8343 -0.682058 0
M  V30 6261 C 577.588 -2.26336 2.76599 0
M  V30 6262 C 577.254 -1.7259 4.16562 0
M  V30 6263 C 575.916 -1.57654 4.54641 0
M  V30 6264 C 578.268 -1.32877 5.03977 0
M  V30 6265 C 575.596 -1.0145 5.77862 0
M  V30 6266 C 577.948 -0.7811 6.27759 0
M  V30 6267 C 576.612 -0.618488 6.64628 0
M  V30 6268 H 575.882 -0.441803 0.594888 0
M  V30 6269 H 578.529 -0.501169 1.84826 0
M  V30 6270 H 576.834 -3.0292 2.48489 0
M  V30 6271 H 578.531 -2.84227 2.82871 0
M  V30 6272 H 575.121 -1.85187 3.86528 0
M  V30 6273 H 579.305 -1.43245 4.75179 0
M  V30 6274 H 574.561 -0.876109 6.0509 0
M  V30 6275 H 578.735 -0.464783 6.94847 0
M  V30 6276 H 576.362 -0.180838 7.59985 0
M  V30 6277 N 577.937 -1.40673 -0.710563 0
M  V30 6278 C 579.183 -1.39428 -1.47267 0
M  V30 6279 C 579.516 0.00182129 -1.942 0
M  V30 6280 O 578.791 0.971387 -1.68506 0
M  V30 6281 C 579.074 -2.38812 -2.6952 0
M  V30 6282 C 578.927 -3.87467 -2.28449 0
M  V30 6283 C 580.246 -2.3566 -3.71689 0
M  V30 6284 H 577.365 -0.507768 -0.534173 0
M  V30 6285 H 580.007 -1.71843 -0.810547 0
M  V30 6286 H 578.157 -2.113 -3.26013 0
M  V30 6287 H 579.829 -4.25825 -1.77399 0
M  V30 6288 H 578.072 -4.03058 -1.60395 0
M  V30 6289 H 578.743 -4.5253 -3.16103 0
M  V30 6290 H 581.219 -2.6004 -3.24836 0
M  V30 6291 H 580.095 -3.07237 -4.54859 0
M  V30 6292 H 580.356 -1.36996 -4.20339 0
M  V30 6293 N 579.415 0.9433 -1.26252 0
M  V30 6294 C 580.345 2.05902 -1.10122 0
M  V30 6295 C 581.326 1.70099 -0.00700552 0
M  V30 6296 O 582.511 1.93377 -0.178641 0
M  V30 6297 C 579.641 3.39516 -0.731175 0
M  V30 6298 C 578.595 3.89372 -1.77688 0
M  V30 6299 C 577.921 5.19613 -1.26122 0
M  V30 6300 C 579.221 4.14489 -3.17799 0
M  V30 6301 H 580.915 2.19655 -2.03451 0
M  V30 6302 H 578.461 1.05548 -0.979576 0
M  V30 6303 H 580.414 4.17031 -0.605215 0
M  V30 6304 H 579.138 3.25733 0.23782 0
M  V30 6305 H 577.797 3.14036 -1.89148 0
M  V30 6306 H 577.445 5.02208 -0.282128 0
M  V30 6307 H 577.145 5.53939 -1.96023 0
M  V30 6308 H 578.669 5.99713 -1.14789 0
M  V30 6309 H 580.083 4.82625 -3.09428 0
M  V30 6310 H 578.48 4.60094 -3.85271 0
M  V30 6311 H 579.55 3.20347 -3.64014 0
M  V30 6312 N 580.893 1.08022 1.14757 0
M  V30 6313 C 582.139 0.808705 1.85978 0
M  V30 6314 C 582.472 -0.663764 1.82504 0
M  V30 6315 O 581.747 -1.48765 1.25296 0
M  V30 6316 C 582.03 1.32623 3.34788 0
M  V30 6317 C 581.883 2.86375 3.46856 0
M  V30 6318 C 583.202 0.948291 4.29762 0
M  V30 6319 H 580.321 0.295244 0.675278 0
M  V30 6320 H 582.963 1.33917 1.34783 0
M  V30 6321 H 581.113 0.875002 3.78518 0
M  V30 6322 H 582.785 3.39839 3.11941 0
M  V30 6323 H 581.028 3.24232 2.88194 0
M  V30 6324 H 581.699 3.17658 4.51439 0
M  V30 6325 H 584.175 1.33722 3.94028 0
M  V30 6326 H 583.051 1.33765 5.32352 0
M  V30 6327 H 583.312 -0.145094 4.41862 0
M  V30 6328 N 582.371 -1.3172 0.865308 0
M  V30 6329 C 583.62 -1.96145 0.470098 0
M  V30 6330 C 583.933 -1.69182 -0.981674 0
M  V30 6331 O 585.139 -2.27431 -1.48281 0
M  V30 6332 C 583.595 -3.51129 0.789732 0
M  V30 6333 C 583.203 -3.86938 2.25795 0
M  V30 6334 C 584.947 -4.2197 0.462765 0
M  V30 6335 C 582.854 -5.35012 2.52024 0
M  V30 6336 H 581.784 -0.734105 0.172065 0
M  V30 6337 H 584.435 -1.49959 1.05757 0
M  V30 6338 H 582.817 -3.95781 0.131571 0
M  V30 6339 H 583.991 -3.5326 2.95879 0
M  V30 6340 H 582.306 -3.29149 2.55049 0
M  V30 6341 H 584.903 -5.30904 0.636019 0
M  V30 6342 H 585.246 -4.12005 -0.59645 0
M  V30 6343 H 585.779 -3.82936 1.07727 0
M  V30 6344 H 582.518 -5.50008 3.56611 0
M  V30 6345 H 582.038 -5.70058 1.8653 0
M  V30 6346 H 583.717 -6.0222 2.36515 0
M  V30 6347 N 583.85 -0.624285 -1.44708 0
M  V30 6348 C 585.096 -0.126051 -2.02107 0
M  V30 6349 C 585.425 1.2496 -1.49048 0
M  V30 6350 O 584.68 1.84163 -0.662005 0
M  V30 6351 C 584.979 -0.0546353 -3.57358 0
M  V30 6352 C 584.644 -1.36815 -4.29642 0
M  V30 6353 C 583.307 -1.72792 -4.49106 0
M  V30 6354 C 585.659 -2.23549 -4.70824 0
M  V30 6355 C 582.986 -2.95222 -5.07012 0
M  V30 6356 C 585.339 -3.45243 -5.30085 0
M  V30 6357 C 584.003 -3.81452 -5.47769 0
M  V30 6358 H 583.273 -0.0461252 -0.739563 0
M  V30 6359 H 585.92 -0.809236 -1.73562 0
M  V30 6360 H 584.225 0.711891 -3.85278 0
M  V30 6361 H 585.922 0.347282 -3.99493 0
M  V30 6362 H 582.512 -1.07817 -4.14817 0
M  V30 6363 H 586.696 -1.9705 -4.55505 0
M  V30 6364 H 581.952 -3.23361 -5.18891 0
M  V30 6365 H 586.125 -4.12689 -5.60946 0
M  V30 6366 H 583.753 -4.76403 -5.92405 0
M  V30 6367 N 585.328 1.53329 -0.364422 0
M  V30 6368 C 586.574 2.01537 0.225969 0
M  V30 6369 C 586.907 1.25128 1.48515 0
M  V30 6370 O 586.182 0.344653 1.91422 0
M  V30 6371 C 586.465 3.56339 0.519092 0
M  V30 6372 C 586.318 4.43441 -0.753639 0
M  V30 6373 C 587.637 4.19833 1.32015 0
M  V30 6374 H 584.756 0.732573 0.0806548 0
M  V30 6375 H 587.398 1.83597 -0.489084 0
M  V30 6376 H 585.548 3.71756 1.12825 0
M  V30 6377 H 587.22 4.39823 -1.39116 0
M  V30 6378 H 585.463 4.11457 -1.37424 0
M  V30 6379 H 586.134 5.49699 -0.503517 0
M  V30 6380 H 588.61 4.08242 0.804859 0
M  V30 6381 H 587.486 5.28177 1.49399 0
M  V30 6382 H 587.747 3.75821 2.32832 0
M  V30 6383 N 586.806 0.0935595 1.57322 0
M  V30 6384 C 588.054 -0.569383 1.93913 0
M  V30 6385 C 588.375 -1.68817 0.976009 0
M  V30 6386 O 587.645 -1.9588 0.0278099 0
M  V30 6387 H 586.225 -0.21332 0.715894 0
M  V30 6388 H 588.887 0.156531 1.9427 0
M  V30 6389 H 587.983 -0.980577 2.96296 0
M  V30 6390 N 588.284 -1.56567 -0.180126 0
M  V30 6391 C 589.509 -1.85975 -0.918041 0
M  V30 6392 C 589.934 -0.678888 -1.75422 0
M  V30 6393 O 589.292 0.372168 -1.77439 0
M  V30 6394 C 589.34 -3.13731 -1.77779 0
M  V30 6395 O 588.444 -2.95335 -2.87838 0
M  V30 6396 H 587.785 -0.61196 -0.257683 0
M  V30 6397 H 590.315 -2.03798 -0.180923 0
M  V30 6398 H 590.325 -3.4491 -2.17948 0
M  V30 6399 H 589 -3.99293 -1.16352 0
M  V30 6400 H 587.577 -2.7549 -2.51316 0
M  V30 6401 N 589.762 0.448376 -1.51087 0
M  V30 6402 C 591.009 1.19872 -1.63209 0
M  V30 6403 C 591.337 1.91451 -0.343062 0
M  V30 6404 O 590.592 1.83789 0.672321 0
M  V30 6405 C 590.891 2.24866 -2.77795 0
M  V30 6406 C 590.557 1.70378 -4.17471 0
M  V30 6407 C 589.219 1.55241 -4.55471 0
M  V30 6408 C 591.571 1.30203 -5.04675 0
M  V30 6409 C 588.899 0.983844 -5.78392 0
M  V30 6410 C 591.251 0.747798 -6.28165 0
M  V30 6411 C 589.915 0.583233 -6.64947 0
M  V30 6412 H 589.185 0.438642 -0.597222 0
M  V30 6413 H 591.832 0.49136 -1.85089 0
M  V30 6414 H 590.137 3.01598 -2.50092 0
M  V30 6415 H 591.834 2.82723 -2.84374 0
M  V30 6416 H 588.424 1.83134 -3.87505 0
M  V30 6417 H 592.608 1.40723 -4.75932 0
M  V30 6418 H 587.864 0.844007 -6.05546 0
M  V30 6419 H 592.038 0.427927 -6.95084 0
M  V30 6420 H 589.665 0.140532 -7.6007 0
M  V30 6421 N 591.24 1.41047 0.703093 0
M  V30 6422 C 592.47 1.43133 1.48985 0
M  V30 6423 C 592.878 0.0328537 1.89171 0
M  V30 6424 O 592.221 -0.956469 1.56835 0
M  V30 6425 C 592.283 2.26991 2.78775 0
M  V30 6426 C 591.947 3.7525 2.60837 0
M  V30 6427 C 592.944 4.67591 2.27276 0
M  V30 6428 C 590.629 4.19208 2.76712 0
M  V30 6429 C 592.623 6.01877 2.09817 0
M  V30 6430 C 590.31 5.53561 2.5887 0
M  V30 6431 C 591.308 6.4471 2.25472 0
M  V30 6432 O 590.996 7.76584 2.07778 0
M  V30 6433 H 590.728 0.489788 0.465922 0
M  V30 6434 H 593.282 1.85886 0.873822 0
M  V30 6435 H 591.512 1.79038 3.42757 0
M  V30 6436 H 593.201 2.20867 3.40547 0
M  V30 6437 H 593.967 4.34923 2.14633 0
M  V30 6438 H 589.846 3.48572 3.01693 0
M  V30 6439 H 593.39 6.72986 1.83671 0
M  V30 6440 H 589.287 5.85811 2.71102 0
M  V30 6441 H 590.055 7.87649 2.22601 0
M  V30 6442 N 592.718 -0.936591 1.26751 0
M  V30 6443 C 593.648 -2.05315 1.11212 0
M  V30 6444 C 594.629 -1.70092 0.0160262 0
M  V30 6445 O 595.814 -1.93279 0.188894 0
M  V30 6446 C 592.944 -3.39123 0.749171 0
M  V30 6447 C 591.898 -3.88425 1.79751 0
M  V30 6448 C 591.224 -5.18936 1.28876 0
M  V30 6449 C 592.524 -4.12798 3.19992 0
M  V30 6450 H 594.218 -2.18573 2.04613 0
M  V30 6451 H 591.764 -1.05027 0.985159 0
M  V30 6452 H 593.717 -4.16704 0.627323 0
M  V30 6453 H 592.441 -3.25855 -0.220543 0
M  V30 6454 H 591.1 -3.13028 1.90811 0
M  V30 6455 H 590.748 -5.02051 0.308757 0
M  V30 6456 H 590.448 -5.52892 1.98958 0
M  V30 6457 H 591.972 -5.99096 1.17967 0
M  V30 6458 H 593.386 -4.80977 3.11983 0
M  V30 6459 H 591.783 -4.58044 3.87705 0
M  V30 6460 H 592.853 -3.18412 3.65707 0
M  V30 6461 N 594.196 -1.08629 -1.14182 0
M  V30 6462 C 595.442 -0.818556 -1.85546 0
M  V30 6463 C 595.775 0.654076 -1.82854 0
M  V30 6464 O 595.05 1.48099 -1.26083 0
M  V30 6465 C 595.333 -1.34397 -3.3408 0
M  V30 6466 C 595.186 -2.8821 -3.45333 0
M  V30 6467 C 596.505 -0.971069 -4.29253 0
M  V30 6468 H 593.624 -0.298821 -0.673702 0
M  V30 6469 H 596.266 -1.34629 -1.34071 0
M  V30 6470 H 594.416 -0.895064 -3.78049 0
M  V30 6471 H 596.088 -3.41488 -3.10134 0
M  V30 6472 H 594.331 -3.25756 -2.86471 0
M  V30 6473 H 595.002 -3.20047 -4.49749 0
M  V30 6474 H 597.478 -1.35809 -3.93313 0
M  V30 6475 H 596.354 -1.36586 -5.31635 0
M  V30 6476 H 596.615 0.121659 -4.41933 0
M  V30 6477 N 595.674 1.31259 -0.872281 0
M  V30 6478 C 596.622 2.30404 -0.318897 0
M  V30 6479 C 597.616 1.5962 0.567267 0
M  V30 6480 O 598.822 1.74204 0.453111 0
M  V30 6481 H 595.197 0.747243 -0.0844474 0
M  V30 6482 H 597.168 2.74549 -1.16899 0
M  V30 6483 C 595.917 3.44608 0.462683 0
M  V30 6484 H 595.24 3.99248 -0.209936 0
M  V30 6485 H 596.68 4.1609 0.815187 0
M  V30 6486 C 595.139 2.93456 1.65485 0
M  V30 6487 O 595.669 2.92418 2.75417 0
M  V30 6488 N 593.875 2.49628 1.48776 0
M  V30 6489 H 593.422 2.50671 0.593452 0
M  V30 6490 H 593.38 2.15759 2.28682 0
M  V30 6491 N 597.152 0.631951 1.44375 0
M  V30 6492 C 598.082 -0.0593243 2.33425 0
M  V30 6493 C 599.063 -0.833964 1.48253 0
M  V30 6494 O 600.248 -0.799682 1.76971 0
M  V30 6495 C 597.378 -1.04096 3.31333 0
M  V30 6496 C 596.332 -0.377899 4.26328 0
M  V30 6497 C 595.658 -1.4695 5.14111 0
M  V30 6498 C 596.958 0.716371 5.17364 0
M  V30 6499 H 598.652 0.684287 2.91475 0
M  V30 6500 H 596.198 0.330518 1.40156 0
M  V30 6501 H 598.151 -1.53331 3.92514 0
M  V30 6502 H 596.875 -1.81547 2.71493 0
M  V30 6503 H 595.534 0.0938054 3.6648 0
M  V30 6504 H 595.182 -2.2349 4.50623 0
M  V30 6505 H 594.882 -1.03121 5.78481 0
M  V30 6506 H 596.406 -1.96363 5.78164 0
M  V30 6507 H 597.82 0.307089 5.72477 0
M  V30 6508 H 596.217 1.07784 5.90341 0
M  V30 6509 H 597.287 1.58316 4.58327 0
M  V30 6510 N 598.631 -1.53133 0.372548 0
M  V30 6511 C 599.88 -2.00539 -0.216115 0
M  V30 6512 C 600.193 -1.26374 -1.49295 0
M  V30 6513 O 601.399 -1.64404 -2.16064 0
M  V30 6514 C 599.855 -3.57253 -0.435678 0
M  V30 6515 C 599.463 -4.40302 0.82693 0
M  V30 6516 C 601.207 -4.12995 -0.981618 0
M  V30 6517 C 599.114 -5.88583 0.576567 0
M  V30 6518 H 598.044 -0.749246 -0.084536 0
M  V30 6519 H 600.695 -1.76771 0.492364 0
M  V30 6520 H 599.077 -3.77202 -1.20559 0
M  V30 6521 H 600.251 -4.32124 1.60017 0
M  V30 6522 H 598.566 -3.95699 1.29659 0
M  V30 6523 H 601.163 -5.21418 -1.18436 0
M  V30 6524 H 601.506 -3.68027 -1.94581 0
M  V30 6525 H 602.039 -3.96871 -0.271696 0
M  V30 6526 H 598.778 -6.37841 1.51128 0
M  V30 6527 H 598.298 -5.99592 -0.158047 0
M  V30 6528 H 599.977 -6.46676 0.204722 0
M  V30 6529 N 600.109 -0.101901 -1.5727 0
M  V30 6530 C 601.039 0.851544 -2.17419 0
M  V30 6531 C 602.02 1.28942 -1.10941 0
M  V30 6532 O 603.205 1.35509 -1.39107 0
M  V30 6533 C 600.335 2.10816 -2.75996 0
M  V30 6534 C 599.289 1.80867 -3.87906 0
M  V30 6535 C 598.615 3.13413 -4.33216 0
M  V30 6536 C 599.915 1.0903 -5.10793 0
M  V30 6537 H 601.609 0.350381 -2.97343 0
M  V30 6538 H 599.155 0.16709 -1.43027 0
M  V30 6539 H 601.108 2.77959 -3.16729 0
M  V30 6540 H 599.832 2.63227 -1.93337 0
M  V30 6541 H 598.491 1.16119 -3.47724 0
M  V30 6542 H 598.139 3.63725 -3.47438 0
M  V30 6543 H 597.839 2.94155 -5.08671 0
M  V30 6544 H 599.363 3.81704 -4.76586 0
M  V30 6545 H 600.777 1.66295 -5.48652 0
M  V30 6546 H 599.174 0.99927 -5.91722 0
M  V30 6547 H 600.244 0.0741704 -4.84843 0
M  V30 6548 N 601.587 1.56661 0.17182 0
M  V30 6549 C 602.55 1.9549 1.19651 0
M  V30 6550 C 603.55 0.838501 1.37207 0
M  V30 6551 O 604.74 1.10556 1.34622 0
M  V30 6552 C 601.872 2.24927 2.56166 0
M  V30 6553 H 603.065 2.87184 0.864007 0
M  V30 6554 H 600.618 1.50711 0.41425 0
M  V30 6555 H 601.353 1.35944 2.94431 0
M  V30 6556 H 601.138 3.06301 2.4479 0
M  V30 6557 H 602.628 2.55891 3.30014 0
M  V30 6558 N 603.065 -0.440357 1.51323 0
M  V30 6559 C 604.311 -1.19181 1.64085 0
M  V30 6560 C 604.644 -1.90936 0.354575 0
M  V30 6561 O 603.919 -1.8347 -0.645675 0
M  V30 6562 C 604.202 -2.2112 2.84215 0
M  V30 6563 C 604.055 -1.53468 4.22809 0
M  V30 6564 C 605.374 -3.22133 2.99864 0
M  V30 6565 H 602.493 -0.431924 0.597169 0
M  V30 6566 H 605.135 -0.481443 1.83799 0
M  V30 6567 H 603.285 -2.81703 2.67537 0
M  V30 6568 H 604.957 -0.962455 4.51148 0
M  V30 6569 H 603.2 -0.837086 4.25647 0
M  V30 6570 H 603.871 -2.27694 5.02852 0
M  V30 6571 H 606.347 -2.71601 3.15233 0
M  V30 6572 H 605.223 -3.90756 3.85488 0
M  V30 6573 H 605.484 -3.88061 2.11804 0
M  V30 6574 N 604.543 -1.41418 -0.695603 0
M  V30 6575 C 605.789 -1.40982 -1.4578 0
M  V30 6576 C 606.122 -0.0187763 -1.94191 0
M  V30 6577 O 605.397 0.95346 -1.69527 0
M  V30 6578 C 605.68 -2.41657 -2.66972 0
M  V30 6579 C 605.533 -3.89869 -2.24327 0
M  V30 6580 C 606.852 -2.39589 -3.69168 0
M  V30 6581 H 603.971 -0.513405 -0.528757 0
M  V30 6582 H 606.613 -1.72693 -0.792275 0
M  V30 6583 H 604.763 -2.14746 -3.23754 0
M  V30 6584 H 606.435 -4.27683 -1.72872 0
M  V30 6585 H 604.678 -4.04737 -1.56111 0
M  V30 6586 H 605.349 -4.55857 -3.11285 0
M  V30 6587 H 607.825 -2.63471 -3.2206 0
M  V30 6588 H 606.701 -3.12044 -4.51575 0
M  V30 6589 H 606.962 -1.41447 -4.18862 0
M  V30 6590 N 606.021 0.929856 -1.27246 0
M  V30 6591 C 606.984 2.01172 -1.09829 0
M  V30 6592 C 607.984 1.60743 -0.0429687 0
M  V30 6593 O 609.174 1.71813 -0.287373 0
M  V30 6594 C 606.306 3.34191 -0.673003 0
M  V30 6595 H 607.499 2.18054 -2.05895 0
M  V30 6596 H 605.052 1.11036 -1.10003 0
M  V30 6597 H 605.787 3.23009 0.289134 0
M  V30 6598 H 605.572 3.64892 -1.43515 0
M  V30 6599 H 607.062 4.13646 -0.573323 0
M  V30 6600 N 607.499 1.09233 1.13605 0
M  V30 6601 C 608.432 0.6739 2.18023 0
M  V30 6602 C 609.41 -0.318603 1.59448 0
M  V30 6603 O 610.594 -0.220452 1.87206 0
M  V30 6604 C 607.721 -0.00751458 3.38699 0
M  V30 6605 C 606.767 0.946481 4.15865 0
M  V30 6606 S 607.6 2.45753 4.75779 0
M  V30 6607 C 608.756 1.78846 5.99804 0
M  V30 6608 H 608.989 1.55846 2.53178 0
M  V30 6609 H 606.522 0.908118 1.2487 0
M  V30 6610 H 608.48 -0.394368 4.08601 0
M  V30 6611 H 607.141 -0.868693 3.01849 0
M  V30 6612 H 606.334 0.416742 5.02274 0
M  V30 6613 H 605.936 1.27464 3.51609 0
M  V30 6614 H 608.228 1.11135 6.68323 0
M  V30 6615 H 609.171 2.63163 6.57382 0
M  V30 6616 H 609.579 1.25823 5.50299 0
M  V30 6617 N 608.977 -1.30795 0.87923 0
M  V30 6618 C 609.94 -2.26563 0.346676 0
M  V30 6619 C 610.94 -1.52578 -0.507597 0
M  V30 6620 O 612.13 -1.71318 -0.315575 0
M  V30 6621 C 609.262 -3.37115 -0.506611 0
M  V30 6622 H 610.455 -2.75183 1.19223 0
M  V30 6623 H 608.008 -1.41886 0.655598 0
M  V30 6624 H 608.743 -2.93802 -1.37299 0
M  V30 6625 H 608.528 -3.91959 0.105218 0
M  V30 6626 H 610.018 -4.08412 -0.871192 0
M  V30 6627 N 610.455 -0.639598 -1.44038 0
M  V30 6628 C 611.685 -0.154586 -2.06021 0
M  V30 6629 C 612.093 1.17951 -1.47933 0
M  V30 6630 O 611.436 1.73627 -0.59994 0
M  V30 6631 C 611.498 0.0255459 -3.59491 0
M  V30 6632 C 611.162 -1.2317 -4.40089 0
M  V30 6633 C 612.159 -2.15735 -4.73027 0
M  V30 6634 C 609.844 -1.46949 -4.80324 0
M  V30 6635 C 611.838 -3.30382 -5.45093 0
M  V30 6636 C 609.525 -2.61891 -5.52138 0
M  V30 6637 C 610.523 -3.53433 -5.84443 0
M  V30 6638 O 610.211 -4.6637 -6.54793 0
M  V30 6639 H 609.943 -0.0808543 -0.671147 0
M  V30 6640 H 612.497 -0.876541 -1.85758 0
M  V30 6641 H 610.727 0.802733 -3.78276 0
M  V30 6642 H 612.416 0.466184 -4.03214 0
M  V30 6643 H 613.182 -1.98602 -4.42473 0
M  V30 6644 H 609.061 -0.765815 -4.54595 0
M  V30 6645 H 612.605 -4.01856 -5.70226 0
M  V30 6646 H 608.502 -2.78964 -5.82108 0
M  V30 6647 H 609.27 -4.6546 -6.73267 0
M  V30 6648 N 611.933 1.52934 -0.380664 0
M  V30 6649 C 612.843 2.29921 0.466192 0
M  V30 6650 C 613.859 1.36488 1.07922 0
M  V30 6651 O 615.035 1.69553 1.0869 0
M  V30 6652 C 612.1 3.08468 1.58266 0
M  V30 6653 C 611.161 4.17595 0.995627 0
M  V30 6654 C 610.394 4.92387 2.05889 0
M  V30 6655 O 610.617 4.67184 3.27254 0
M  V30 6656 O 609.551 5.77949 1.68102 0
M  V30 6657 H 613.377 3.03274 -0.160735 0
M  V30 6658 H 610.962 1.48698 -0.144617 0
M  V30 6659 H 612.844 3.57469 2.23145 0
M  V30 6660 H 611.519 2.37937 2.19471 0
M  V30 6661 H 610.426 3.72811 0.310332 0
M  V30 6662 H 611.759 4.90336 0.427918 0
M  V30 6663 N 613.412 0.11024 1.57214 0
M  V30 6664 C 614.322 -0.857077 2.18383 0
M  V30 6665 C 615.338 -1.29915 1.1575 0
M  V30 6666 O 616.514 -1.36394 1.48184 0
M  V30 6667 C 613.579 -2.09264 2.76423 0
M  V30 6668 C 612.64 -1.70333 3.94063 0
M  V30 6669 C 611.873 -2.87999 4.49324 0
M  V30 6670 O 612.096 -4.0317 4.03497 0
M  V30 6671 O 611.03 -2.6559 5.40135 0
M  V30 6672 H 614.856 -0.366561 3.0148 0
M  V30 6673 H 612.441 -0.114914 1.48957 0
M  V30 6674 H 614.323 -2.81644 3.13456 0
M  V30 6675 H 612.998 -2.57339 1.96363 0
M  V30 6676 H 611.905 -0.950864 3.61814 0
M  V30 6677 H 613.238 -1.27007 4.75531 0
M  V30 6678 N 614.89 -1.56749 -0.16351 0
M  V30 6679 C 615.822 -1.93587 -1.22705 0
M  V30 6680 C 616.835 -0.829824 -1.40063 0
M  V30 6681 O 618.024 -1.10826 -1.39928 0
M  V30 6682 C 615.124 -2.1803 -2.59454 0
M  V30 6683 C 614.297 -3.4928 -2.63292 0
M  V30 6684 C 613.356 -3.62457 -3.8146 0
M  V30 6685 O 612.382 -4.35004 -3.67096 0
M  V30 6686 N 613.584 -2.97888 -4.9824 0
M  V30 6687 H 616.349 -2.8542 -0.914081 0
M  V30 6688 H 613.91 -1.58 -0.353214 0
M  V30 6689 H 615.902 -2.24102 -3.36987 0
M  V30 6690 H 614.472 -1.32543 -2.8311 0
M  V30 6691 H 613.692 -3.54795 -1.71796 0
M  V30 6692 H 614.98 -4.35632 -2.62873 0
M  V30 6693 H 614.378 -2.38833 -5.12811 0
M  V30 6694 H 612.935 -3.09545 -5.73607 0
M  V30 6695 N 616.368 0.432326 -1.51554 0
M  V30 6696 C 617.316 1.54572 -1.73811 0
M  V30 6697 C 618.31 1.58246 -0.604539 0
M  V30 6698 O 619.516 1.6193 -0.786041 0
M  V30 6699 H 615.891 0.513626 -0.549265 0
M  V30 6700 H 617.862 1.32977 -2.67132 0
M  V30 6701 C 616.611 2.92181 -1.88483 0
M  V30 6702 H 615.934 2.90088 -2.75116 0
M  V30 6703 H 617.374 3.69439 -2.08065 0
M  V30 6704 C 615.833 3.3065 -0.645909 0
M  V30 6705 O 616.363 4.01216 0.197093 0
M  V30 6706 N 614.569 2.86464 -0.488538 0
M  V30 6707 H 614.116 2.29209 -1.17562 0
M  V30 6708 H 614.074 3.12565 0.339156 0
M  V30 6709 N 617.846 1.41785 0.688094 0
M  V30 6710 C 618.778 1.40159 1.81351 0
M  V30 6711 C 619.791 0.30262 1.59963 0
M  V30 6712 O 620.98 0.564841 1.69327 0
M  V30 6713 C 618.08 1.16517 3.1824 0
M  V30 6714 C 617.253 2.38597 3.66593 0
M  V30 6715 C 616.312 2.10699 4.82174 0
M  V30 6716 O 615.338 2.83798 4.93404 0
M  V30 6717 N 616.54 1.10187 5.69947 0
M  V30 6718 H 619.305 2.3716 1.83236 0
M  V30 6719 H 616.866 1.36494 0.870697 0
M  V30 6720 H 618.858 0.957941 3.93199 0
M  V30 6721 H 617.428 0.280873 3.11336 0
M  V30 6722 H 616.648 2.74974 2.82459 0
M  V30 6723 H 617.936 3.19919 3.95638 0
M  V30 6724 H 617.334 0.497016 5.63512 0
M  V30 6725 H 615.891 0.954518 6.44773 0
M  V30 6726 N 619.324 -0.923095 1.27737 0
M  V30 6727 C 620.287 -2.00587 1.10894 0
M  V30 6728 C 621.287 -1.60718 0.0514927 0
M  V30 6729 O 622.477 -1.71658 0.296481 0
M  V30 6730 C 619.609 -3.33829 0.690717 0
M  V30 6731 H 620.802 -2.16959 2.07048 0
M  V30 6732 H 618.355 -1.10451 1.1059 0
M  V30 6733 H 619.09 -3.23157 -0.272 0
M  V30 6734 H 618.875 -3.64125 1.45448 0
M  V30 6735 H 620.365 -4.13336 0.595252 0
M  V30 6736 N 620.802 -1.09834 -1.13024 0
M  V30 6737 C 622.03 -0.858902 -1.8823 0
M  V30 6738 C 622.445 0.590164 -1.79339 0
M  V30 6739 O 621.802 1.4065 -1.16292 0
M  V30 6740 C 621.853 -1.29066 -3.37675 0
M  V30 6741 O 621.574 -2.6829 -3.46341 0
M  V30 6742 C 623.075 -1.08421 -4.29837 0
M  V30 6743 H 620.295 -0.308713 -0.595766 0
M  V30 6744 H 622.839 -1.4614 -1.4305 0
M  V30 6745 H 620.994 -0.731961 -3.80422 0
M  V30 6746 H 621.408 -2.86598 -4.39274 0
M  V30 6747 H 622.882 -1.43553 -5.33007 0
M  V30 6748 H 623.359 -0.0223315 -4.39194 0
M  V30 6749 H 623.965 -1.62907 -3.92863 0
M  V30 6750 N 622.28 1.30327 -0.886154 0
M  V30 6751 C 623.21 2.30549 -0.370028 0
M  V30 6752 C 624.191 1.61039 0.547751 0
M  V30 6753 O 625.376 1.8864 0.461353 0
M  V30 6754 C 622.506 3.44808 0.415275 0
M  V30 6755 C 621.46 4.26024 -0.41085 0
M  V30 6756 C 620.786 5.32347 0.501128 0
M  V30 6757 C 622.086 4.95433 -1.65359 0
M  V30 6758 H 623.78 2.73969 -1.20754 0
M  V30 6759 H 621.326 1.3171 -0.582097 0
M  V30 6760 H 623.279 4.13986 0.78699 0
M  V30 6761 H 622.003 3.00197 1.28644 0
M  V30 6762 H 620.662 3.58535 -0.764719 0
M  V30 6763 H 620.31 4.83982 1.37004 0
M  V30 6764 H 620.01 5.87581 -0.0478356 0
M  V30 6765 H 621.534 6.0438 0.869333 0
M  V30 6766 H 622.948 5.5712 -1.35239 0
M  V30 6767 H 621.345 5.60537 -2.14284 0
M  V30 6768 H 622.415 4.21493 -2.39733 0
M  V30 6769 N 623.758 0.647228 1.43697 0
M  V30 6770 C 624.668 -0.0487997 2.34549 0
M  V30 6771 C 625.684 -0.818586 1.53542 0
M  V30 6772 O 626.86 -0.767195 1.86215 0
M  V30 6773 C 623.925 -1.00734 3.31743 0
M  V30 6774 C 622.986 -0.23515 4.28655 0
M  V30 6775 C 622.219 -1.14803 5.21206 0
M  V30 6776 O 622.442 -2.38717 5.18045 0
M  V30 6777 O 621.376 -0.623667 5.9866 0
M  V30 6778 H 625.202 0.698863 2.9555 0
M  V30 6779 H 622.787 0.407412 1.43738 0
M  V30 6780 H 624.669 -1.55837 3.91526 0
M  V30 6781 H 623.344 -1.73534 2.73254 0
M  V30 6782 H 622.251 0.359319 3.7237 0
M  V30 6783 H 623.584 0.453152 4.9011 0
M  V30 6784 N 625.236 -1.5273 0.388769 0
M  V30 6785 C 626.146 -2.30165 -0.453993 0
M  V30 6786 C 627.162 -1.37058 -1.07197 0
M  V30 6787 O 628.338 -1.70127 -1.0779 0
M  V30 6788 C 625.403 -3.09303 -1.56628 0
M  V30 6789 C 624.464 -4.18117 -0.973467 0
M  V30 6790 C 623.697 -4.93472 -2.03275 0
M  V30 6791 O 623.92 -4.68913 -3.24772 0
M  V30 6792 O 622.854 -5.78833 -1.65034 0
M  V30 6793 H 626.68 -3.03185 0.176816 0
M  V30 6794 H 624.265 -1.4862 0.152501 0
M  V30 6795 H 626.147 -3.58648 -2.21246 0
M  V30 6796 H 624.822 -2.39098 -2.18206 0
M  V30 6797 H 623.729 -3.7297 -0.290556 0
M  V30 6798 H 625.062 -4.90556 -0.401908 0
M  V30 6799 N 626.714 -0.118576 -1.57153 0
M  V30 6800 C 627.677 0.817464 -2.14127 0
M  V30 6801 C 628.677 1.1949 -1.07604 0
M  V30 6802 O 629.867 1.12048 -1.33382 0
M  V30 6803 C 626.999 2.10541 -2.68115 0
M  V30 6804 H 628.192 0.322339 -2.98163 0
M  V30 6805 H 625.745 0.130655 -1.55753 0
M  V30 6806 H 626.48 2.64485 -1.87665 0
M  V30 6807 H 626.265 1.84425 -3.4602 0
M  V30 6808 H 627.755 2.77453 -3.12105 0
M  V30 6809 N 628.193 1.56834 0.155195 0
M  V30 6810 C 629.103 2.009 1.21146 0
M  V30 6811 C 630.119 0.923029 1.475 0
M  V30 6812 O 631.295 1.23189 1.59331 0
M  V30 6813 C 628.36 2.37378 2.52691 0
M  V30 6814 C 627.421 3.59883 2.34057 0
M  V30 6815 C 626.654 3.94612 3.59329 0
M  V30 6816 O 626.877 3.30104 4.65175 0
M  V30 6817 O 625.811 4.87895 3.52479 0
M  V30 6818 H 629.637 2.9105 0.867371 0
M  V30 6819 H 627.222 1.44916 0.363298 0
M  V30 6820 H 629.104 2.61737 3.3026 0
M  V30 6821 H 627.779 1.50385 2.86646 0
M  V30 6822 H 626.686 3.40722 1.54465 0
M  V30 6823 H 628.019 4.47468 2.0502 0
M  V30 6824 N 629.671 -0.424282 1.51781 0
M  V30 6825 C 630.603 -1.53457 1.70246 0
M  V30 6826 C 631.616 -1.52004 0.582967 0
M  V30 6827 O 632.805 -1.56544 0.857683 0
M  V30 6828 C 629.905 -2.92368 1.71389 0
M  V30 6829 C 629.078 -3.1818 3.00133 0
M  V30 6830 C 628.137 -4.36884 2.9329 0
M  V30 6831 O 627.163 -4.34901 3.67219 0
M  V30 6832 N 628.365 -5.4117 2.10036 0
M  V30 6833 H 631.13 -1.38017 2.66029 0
M  V30 6834 H 628.691 -0.613394 1.4983 0
M  V30 6835 H 630.683 -3.6982 1.64362 0
M  V30 6836 H 629.253 -3.0134 0.831449 0
M  V30 6837 H 628.473 -2.28908 3.20928 0
M  V30 6838 H 629.761 -3.32261 3.85331 0
M  V30 6839 H 629.159 -5.45623 1.49373 0
M  V30 6840 H 627.716 -6.17425 2.08878 0
M  V30 6841 N 631.149 -1.42148 -0.680565 0
M  V30 6842 C 632.096 -1.45175 -1.79424 0
M  V30 6843 C 633.066 -0.304352 -1.63288 0
M  V30 6844 O 634.251 -0.507591 -1.83924 0
M  V30 6845 C 631.391 -1.35429 -3.17416 0
M  V30 6846 C 630.504 -2.60158 -3.4488 0
M  V30 6847 C 629.639 -2.42596 -4.72568 0
M  V30 6848 C 628.678 -3.62727 -4.93047 0
M  V30 6849 N 627.815 -3.44143 -6.11973 0
M  V30 6850 H 632.655 -2.40349 -1.76172 0
M  V30 6851 H 630.192 -1.19334 -0.860107 0
M  V30 6852 H 632.15 -1.27777 -3.97151 0
M  V30 6853 H 630.78 -0.438536 -3.19807 0
M  V30 6854 H 629.832 -2.78199 -2.5944 0
M  V30 6855 H 631.144 -3.49473 -3.55908 0
M  V30 6856 H 630.298 -2.32497 -5.60384 0
M  V30 6857 H 629.037 -1.50761 -4.63813 0
M  V30 6858 H 628.042 -3.73264 -4.03676 0
M  V30 6859 H 629.267 -4.55534 -5.03652 0
M  V30 6860 H 627.213 -2.5502 -6.04401 0
M  V30 6861 H 627.13 -4.27041 -6.23836 0
M  V30 6862 H 628.398 -3.37845 -7.02482 0
M  V30 6863 N 632.627 0.916307 -1.28225 0
M  V30 6864 C 633.537 2.05165 -1.13775 0
M  V30 6865 C 634.553 1.73879 -0.0649418 0
M  V30 6866 O 635.729 1.99531 -0.273722 0
M  V30 6867 C 632.794 3.37385 -0.798267 0
M  V30 6868 C 631.855 3.82296 -1.95316 0
M  V30 6869 C 631.088 5.08206 -1.62978 0
M  V30 6870 O 631.311 5.6781 -0.542948 0
M  V30 6871 O 630.245 5.48768 -2.47261 0
M  V30 6872 H 634.071 2.20273 -2.09078 0
M  V30 6873 H 631.656 1.0373 -1.07519 0
M  V30 6874 H 633.538 4.16773 -0.62278 0
M  V30 6875 H 632.213 3.23458 0.125139 0
M  V30 6876 H 631.12 3.03746 -2.18378 0
M  V30 6877 H 632.453 4.00782 -2.85718 0
M  V30 6878 N 634.105 1.10431 1.1244 0
M  V30 6879 C 635.068 0.756542 2.16354 0
M  V30 6880 C 636.068 -0.21899 1.59302 0
M  V30 6881 O 637.258 0.00415969 1.742 0
M  V30 6882 C 634.39 0.120612 3.40687 0
M  V30 6883 H 635.583 1.67696 2.48632 0
M  V30 6884 H 633.136 0.904832 1.27446 0
M  V30 6885 H 633.871 -0.810536 3.14008 0
M  V30 6886 H 633.656 0.822693 3.83372 0
M  V30 6887 H 635.146 -0.106945 4.17463 0
M  V30 6888 N 635.583 -1.29855 0.893053 0
M  V30 6889 C 636.493 -2.31661 0.370157 0
M  V30 6890 C 637.509 -1.65677 -0.531723 0
M  V30 6891 O 638.685 -1.9691 -0.422902 0
M  V30 6892 C 635.75 -3.44388 -0.399741 0
M  V30 6893 C 634.811 -4.2598 0.532861 0
M  V30 6894 C 634.044 -5.33324 -0.200388 0
M  V30 6895 O 634.267 -5.52305 -1.42531 0
M  V30 6896 O 633.201 -6.00188 0.453668 0
M  V30 6897 H 637.027 -2.78354 1.2146 0
M  V30 6898 H 634.612 -1.34171 0.657153 0
M  V30 6899 H 636.494 -4.13037 -0.835358 0
M  V30 6900 H 635.169 -2.99815 -1.22035 0
M  V30 6901 H 634.076 -3.59998 1.01746 0
M  V30 6902 H 635.409 -4.74178 1.3197 0
M  V30 6903 N 637.061 -0.65484 -1.43351 0
M  V30 6904 C 638.308 -0.168892 -2.01794 0
M  V30 6905 C 638.636 1.2177 -1.51665 0
M  V30 6906 O 637.891 1.82717 -0.70092 0
M  V30 6907 C 638.19 -0.130424 -3.57162 0
M  V30 6908 C 637.856 -1.45898 -4.26643 0
M  V30 6909 C 636.518 -1.82279 -4.4534 0
M  V30 6910 C 638.87 -2.33485 -4.65976 0
M  V30 6911 C 636.198 -3.0591 -5.00635 0
M  V30 6912 C 638.55 -3.5641 -5.22642 0
M  V30 6913 C 637.214 -3.92985 -5.39555 0
M  V30 6914 H 636.484 -0.061802 -0.738418 0
M  V30 6915 H 639.131 -0.845869 -1.71806 0
M  V30 6916 H 637.436 0.630008 -3.86702 0
M  V30 6917 H 639.133 0.262465 -4.0014 0
M  V30 6918 H 635.723 -1.16591 -4.12437 0
M  V30 6919 H 639.907 -2.06668 -4.51223 0
M  V30 6920 H 635.163 -3.34295 -5.11915 0
M  V30 6921 H 639.337 -4.24495 -5.52066 0
M  V30 6922 H 636.964 -4.88862 -5.82167 0
M  V30 6923 N 638.539 1.52521 -0.396863 0
M  V30 6924 C 639.486 2.26671 0.434624 0
M  V30 6925 C 640.456 1.28584 1.05144 0
M  V30 6926 O 641.641 1.57426 1.07804 0
M  V30 6927 C 638.781 3.08234 1.55196 0
M  V30 6928 C 637.894 4.21261 0.957262 0
M  V30 6929 C 637.029 4.90205 2.04627 0
M  V30 6930 C 636.068 5.95213 1.42787 0
M  V30 6931 N 635.205 6.57723 2.45651 0
M  V30 6932 H 640.045 2.973 -0.204139 0
M  V30 6933 H 637.582 1.46669 -0.112505 0
M  V30 6934 H 639.54 3.53819 2.2106 0
M  V30 6935 H 638.17 2.398 2.16092 0
M  V30 6936 H 637.222 3.79935 0.188005 0
M  V30 6937 H 638.534 4.96624 0.465416 0
M  V30 6938 H 637.688 5.39133 2.78246 0
M  V30 6939 H 636.427 4.14383 2.57174 0
M  V30 6940 H 635.432 5.45616 0.676968 0
M  V30 6941 H 636.657 6.72972 0.910255 0
M  V30 6942 H 634.603 5.84737 2.97353 0
M  V30 6943 H 634.52 7.28723 2.01243 0
M  V30 6944 H 635.788 7.11293 3.18876 0
M  V30 6945 N 640.017 0.126909 1.57088 0
M  V30 6946 C 640.98 -0.806097 2.14557 0
M  V30 6947 C 641.98 -1.18918 1.08236 0
M  V30 6948 O 643.17 -1.11339 1.33975 0
M  V30 6949 C 640.302 -2.09116 2.69227 0
M  V30 6950 H 641.495 -0.306522 2.98329 0
M  V30 6951 H 639.048 -0.122393 1.5582 0
M  V30 6952 H 639.783 -2.63486 1.89065 0
M  V30 6953 H 639.568 -1.82588 3.46993 0
M  V30 6954 H 641.058 -2.75794 3.13572 0
M  V30 6955 N 641.495 -1.56914 -0.146875 0
M  V30 6956 C 642.428 -1.93425 -1.21087 0
M  V30 6957 C 643.406 -0.800106 -1.41552 0
M  V30 6958 O 644.59 -1.05572 -1.56162 0
M  V30 6959 C 641.717 -2.20639 -2.56975 0
M  V30 6960 C 640.763 -3.43279 -2.53104 0
M  V30 6961 S 641.596 -4.96836 -1.99786 0
M  V30 6962 C 642.752 -5.27172 -3.37403 0
M  V30 6963 H 642.985 -2.8337 -0.899378 0
M  V30 6964 H 640.518 -1.50322 -0.352494 0
M  V30 6965 H 642.476 -2.36998 -3.35175 0
M  V30 6966 H 641.137 -1.31357 -2.85314 0
M  V30 6967 H 640.33 -3.59599 -3.53136 0
M  V30 6968 H 639.932 -3.26163 -1.83012 0
M  V30 6969 H 642.224 -5.20647 -4.33513 0
M  V30 6970 H 643.167 -6.28626 -3.25937 0
M  V30 6971 H 643.575 -4.54687 -3.34544 0
M  V30 6972 N 642.974 0.416227 -1.52004 0
M  V30 6973 C 643.904 1.51365 -1.77795 0
M  V30 6974 C 644.885 1.58059 -0.628601 0
M  V30 6975 O 646.07 1.73447 -0.873478 0
M  V30 6976 C 643.2 2.89256 -1.92219 0
M  V30 6977 C 642.154 2.97415 -3.0778 0
M  V30 6978 C 641.48 4.37492 -3.07417 0
M  V30 6979 C 642.78 2.69551 -4.47369 0
M  V30 6980 H 644.474 1.30033 -2.69688 0
M  V30 6981 H 642.02 0.624112 -1.29772 0
M  V30 6982 H 643.973 3.66008 -2.08845 0
M  V30 6983 H 642.697 3.11866 -0.969917 0
M  V30 6984 H 641.356 2.23107 -2.90893 0
M  V30 6985 H 641.004 4.571 -2.09925 0
M  V30 6986 H 640.704 4.43877 -3.85029 0
M  V30 6987 H 642.228 5.16188 -3.26162 0
M  V30 6988 H 643.642 3.36028 -4.64497 0
M  V30 6989 H 642.039 2.87321 -5.26846 0
M  V30 6990 H 643.109 1.65029 -4.55953 0
M  V30 6991 N 644.452 1.42507 0.673017 0
M  V30 6992 C 645.362 1.4853 1.81593 0
M  V30 6993 C 646.378 0.373907 1.69935 0
M  V30 6994 O 647.554 0.625078 1.91454 0
M  V30 6995 C 644.619 1.387 3.17747 0
M  V30 6996 C 643.68 2.60346 3.41348 0
M  V30 6997 C 642.913 2.50975 4.71007 0
M  V30 6998 O 643.136 1.54659 5.49033 0
M  V30 6999 O 642.07 3.41138 4.95892 0
M  V30 7000 H 645.896 2.45001 1.79467 0
M  V30 7001 H 643.481 1.2429 0.82899 0
M  V30 7002 H 645.363 1.35586 3.98992 0
M  V30 7003 H 644.038 0.453555 3.20507 0
M  V30 7004 H 642.945 2.69034 2.59945 0
M  V30 7005 H 644.278 3.52595 3.43421 0
M  V30 7006 N 645.93 -0.909495 1.28709 0
M  V30 7007 C 646.862 -2.01729 1.08804 0
M  V30 7008 C 647.875 -1.62755 0.0384739 0
M  V30 7009 O 649.064 -1.76259 0.281977 0
M  V30 7010 C 646.164 -3.32952 0.63217 0
M  V30 7011 C 645.337 -4.00512 1.75809 0
M  V30 7012 C 644.396 -5.10019 1.29488 0
M  V30 7013 O 643.422 -5.32986 1.99787 0
M  V30 7014 N 644.624 -5.80278 0.1604 0
M  V30 7015 H 647.389 -2.19362 2.04207 0
M  V30 7016 H 644.95 -1.08106 1.20518 0
M  V30 7017 H 646.942 -4.03543 0.305802 0
M  V30 7018 H 645.512 -3.11759 -0.229134 0
M  V30 7019 H 644.732 -3.23413 2.25383 0
M  V30 7020 H 646.02 -4.42395 2.51325 0
M  V30 7021 H 645.418 -5.64094 -0.425937 0
M  V30 7022 H 643.975 -6.51713 -0.106663 0
M  V30 7023 N 647.408 -1.11026 -1.11852 0
M  V30 7024 C 648.338 -0.786812 -2.19844 0
M  V30 7025 C 649.319 0.242935 -1.68356 0
M  V30 7026 O 650.504 0.107355 -1.93903 0
M  V30 7027 C 647.634 -0.224516 -3.46574 0
M  V30 7028 C 646.588 -1.18564 -4.1125 0
M  V30 7029 C 645.914 -0.484261 -5.32503 0
M  V30 7030 C 647.214 -2.53465 -4.56676 0
M  V30 7031 H 648.908 -1.68978 -2.47158 0
M  V30 7032 H 646.454 -0.813906 -1.18792 0
M  V30 7033 H 648.407 0.0139435 -4.21398 0
M  V30 7034 H 647.131 0.713722 -3.18706 0
M  V30 7035 H 645.79 -1.40966 -3.38414 0
M  V30 7036 H 645.438 0.458646 -5.00905 0
M  V30 7037 H 645.138 -1.12526 -5.76725 0
M  V30 7038 H 646.662 -0.254492 -6.10069 0
M  V30 7039 H 648.076 -2.35177 -5.22843 0
M  V30 7040 H 646.473 -3.13507 -5.11697 0
M  V30 7041 H 647.543 -3.13008 -3.70343 0
M  V30 7042 N 648.886 1.2938 -0.899927 0
M  V30 7043 C 649.833 2.27713 -0.376243 0
M  V30 7044 C 650.803 1.57016 0.541774 0
M  V30 7045 O 651.988 1.84997 0.466966 0
M  V30 7046 C 649.128 3.42889 0.39 0
M  V30 7047 C 648.241 4.28369 -0.558938 0
M  V30 7048 C 647.376 5.30726 0.224379 0
M  V30 7049 C 646.415 6.07862 -0.719068 0
M  V30 7050 N 645.552 7.02094 0.0298569 0
M  V30 7051 H 650.392 2.71888 -1.21988 0
M  V30 7052 H 647.929 1.33724 -0.612879 0
M  V30 7053 H 649.887 4.08443 0.850314 0
M  V30 7054 H 648.517 2.99743 1.19809 0
M  V30 7055 H 647.569 3.62986 -1.13777 0
M  V30 7056 H 648.881 4.82068 -1.2811 0
M  V30 7057 H 648.035 6.02098 0.745881 0
M  V30 7058 H 646.774 4.77759 0.979674 0
M  V30 7059 H 645.779 5.35353 -1.25207 0
M  V30 7060 H 647.004 6.62917 -1.4737 0
M  V30 7061 H 644.95 6.51496 0.767415 0
M  V30 7062 H 644.867 7.5335 -0.632391 0
M  V30 7063 H 646.135 7.77685 0.531615 0
M  V30 7064 N 650.364 0.662433 1.43002 0
M  V30 7065 C 651.311 -0.0235324 2.30788 0
M  V30 7066 C 652.281 -0.805342 1.4527 0
M  V30 7067 O 653.466 -0.78009 1.74124 0
M  V30 7068 C 650.606 -0.977545 3.30965 0
M  V30 7069 C 649.719 -0.190865 4.31578 0
M  V30 7070 C 648.854 -1.13951 5.18834 0
M  V30 7071 C 647.893 -0.343796 6.11134 0
M  V30 7072 N 647.03 -1.2445 6.90982 0
M  V30 7073 H 651.87 0.730921 2.88897 0
M  V30 7074 H 649.407 0.372197 1.42313 0
M  V30 7075 H 651.365 -1.54437 3.87563 0
M  V30 7076 H 649.995 -1.69877 2.74484 0
M  V30 7077 H 649.047 0.492388 3.772 0
M  V30 7078 H 650.359 0.427464 4.96965 0
M  V30 7079 H 649.513 -1.77666 5.80103 0
M  V30 7080 H 648.252 -1.79174 4.53595 0
M  V30 7081 H 647.257 0.30665 5.48944 0
M  V30 7082 H 648.482 0.304161 6.78419 0
M  V30 7083 H 646.428 -1.88336 6.28383 0
M  V30 7084 H 646.345 -0.680959 7.52927 0
M  V30 7085 H 647.613 -1.86952 7.56749 0
M  V30 7086 N 651.842 -1.52309 0.404946 0
M  V30 7087 C 652.774 -2.24579 -0.45791 0
M  V30 7088 C 653.787 -1.2739 -1.01369 0
M  V30 7089 O 654.976 -1.53363 -0.91335 0
M  V30 7090 C 652.076 -2.9608 -1.64893 0
M  V30 7091 C 651.249 -4.20106 -1.21777 0
M  V30 7092 C 650.308 -4.74468 -2.27523 0
M  V30 7093 O 649.334 -5.37157 -1.88285 0
M  V30 7094 N 650.536 -4.55678 -3.59635 0
M  V30 7095 H 653.301 -2.99265 0.161341 0
M  V30 7096 H 650.862 -1.60228 0.232107 0
M  V30 7097 H 652.854 -3.29344 -2.35191 0
M  V30 7098 H 651.424 -2.24606 -2.17419 0
M  V30 7099 H 650.644 -3.92704 -0.343071 0
M  V30 7100 H 651.932 -5.00658 -0.906596 0
M  V30 7101 H 651.33 -4.05673 -3.94266 0
M  V30 7102 H 649.887 -4.9339 -4.25922 0
M  V30 7103 N 653.32 -0.135238 -1.57019 0
M  V30 7104 C 654.252 0.839675 -2.13265 0
M  V30 7105 C 655.265 1.21887 -1.07923 0
M  V30 7106 O 656.454 1.16499 -1.35241 0
M  V30 7107 C 653.554 2.13647 -2.63075 0
M  V30 7108 C 652.727 1.92646 -3.92691 0
M  V30 7109 C 651.786 3.06205 -4.27931 0
M  V30 7110 O 650.812 2.78409 -4.96465 0
M  V30 7111 N 652.014 4.33072 -3.86561 0
M  V30 7112 H 654.779 0.359026 -2.97542 0
M  V30 7113 H 652.34 0.0486979 -1.61827 0
M  V30 7114 H 654.332 2.88641 -2.8367 0
M  V30 7115 H 652.902 2.5301 -1.83588 0
M  V30 7116 H 652.122 1.01754 -3.80841 0
M  V30 7117 H 653.41 1.75939 -4.77413 0
M  V30 7118 H 652.808 4.58526 -3.31316 0
M  V30 7119 H 651.365 5.04885 -4.12231 0
M  V30 7120 N 654.798 1.5699 0.138552 0
M  V30 7121 C 655.708 2.02174 1.19008 0
M  V30 7122 C 656.724 0.938622 1.46512 0
M  V30 7123 O 657.9 1.24872 1.58016 0
M  V30 7124 C 654.965 2.40045 2.50159 0
M  V30 7125 C 654.026 3.62346 2.30226 0
M  V30 7126 C 653.259 3.98401 3.55123 0
M  V30 7127 O 653.482 3.35019 4.61647 0
M  V30 7128 O 652.416 4.91606 3.47285 0
M  V30 7129 H 656.242 2.91954 0.836452 0
M  V30 7130 H 653.827 1.45293 0.347907 0
M  V30 7131 H 655.709 2.65225 3.27465 0
M  V30 7132 H 654.384 1.53417 2.85035 0
M  V30 7133 H 653.291 3.42341 1.50843 0
M  V30 7134 H 654.624 4.49617 2.00262 0
M  V30 7135 N 656.276 -0.40816 1.52223 0
M  V30 7136 C 657.186 -1.52202 1.78526 0
M  V30 7137 C 658.202 -1.60546 0.670892 0
M  V30 7138 O 659.378 -1.77242 0.956404 0
M  V30 7139 C 656.443 -2.87928 1.93128 0
M  V30 7140 C 655.504 -2.89463 3.17033 0
M  V30 7141 C 654.737 -4.18715 3.30929 0
M  V30 7142 O 654.96 -5.12662 2.50067 0
M  V30 7143 O 653.894 -4.27125 4.24084 0
M  V30 7144 H 657.72 -1.32911 2.73072 0
M  V30 7145 H 655.305 -0.594112 1.37079 0
M  V30 7146 H 657.187 -3.68426 2.04549 0
M  V30 7147 H 655.862 -3.07285 1.01772 0
M  V30 7148 H 654.769 -2.07815 3.11069 0
M  V30 7149 H 656.102 -2.75055 4.08174 0
M  V30 7150 N 657.755 -1.42862 -0.66545 0
M  V30 7151 C 658.718 -1.46756 -1.76055 0
M  V30 7152 C 659.718 -0.353866 -1.56858 0
M  V30 7153 O 660.908 -0.615099 -1.62979 0
M  V30 7154 C 658.04 -1.30829 -3.14796 0
M  V30 7155 H 659.233 -2.44271 -1.73987 0
M  V30 7156 H 656.786 -1.29447 -0.875965 0
M  V30 7157 H 657.521 -0.342733 -3.22484 0
M  V30 7158 H 657.306 -2.11551 -3.30134 0
M  V30 7159 H 658.796 -1.36458 -3.94676 0
M  V30 7160 N 659.233 0.902656 -1.29189 0
M  V30 7161 C 660.165 2.01149 -1.09872 0
M  V30 7162 C 661.178 1.62732 -0.0471046 0
M  V30 7163 O 662.367 1.76107 -0.29132 0
M  V30 7164 C 659.467 3.32612 -0.649818 0
M  V30 7165 C 658.64 3.99574 -1.7793 0
M  V30 7166 C 657.699 5.09325 -1.32191 0
M  V30 7167 O 656.725 5.31919 -2.02611 0
M  V30 7168 N 657.927 5.80185 -0.191171 0
M  V30 7169 H 660.692 2.18276 -2.05368 0
M  V30 7170 H 658.253 1.07466 -1.2109 0
M  V30 7171 H 660.245 4.03375 -0.327199 0
M  V30 7172 H 658.815 3.11876 0.212597 0
M  V30 7173 H 658.035 3.22213 -2.27095 0
M  V30 7174 H 659.323 4.41056 -2.53668 0
M  V30 7175 H 658.721 5.64312 0.396016 0
M  V30 7176 H 657.278 6.5176 0.0721001 0
M  V30 7177 N 660.711 1.11618 1.11262 0
M  V30 7178 C 661.674 0.779447 2.15539 0
M  V30 7179 C 662.674 -0.202081 1.59525 0
M  V30 7180 O 663.864 0.0226356 1.74185 0
M  V30 7181 C 660.996 0.15674 3.40539 0
M  V30 7182 H 662.189 1.70324 2.4684 0
M  V30 7183 H 659.742 0.918298 1.26479 0
M  V30 7184 H 660.477 -0.777186 3.1485 0
M  V30 7185 H 660.262 0.863308 3.82478 0
M  V30 7186 H 661.752 -0.062661 4.17553 0
M  V30 7187 N 662.189 -1.289 0.906776 0
M  V30 7188 C 663.152 -2.25777 0.394656 0
M  V30 7189 C 664.152 -1.53621 -0.475119 0
M  V30 7190 O 665.342 -1.71949 -0.279165 0
M  V30 7191 C 662.474 -3.38113 -0.43499 0
M  V30 7192 H 663.667 -2.72592 1.25033 0
M  V30 7193 H 661.22 -1.40463 0.685547 0
M  V30 7194 H 661.955 -2.96648 -1.31036 0
M  V30 7195 H 661.74 -3.91647 0.188334 0
M  V30 7196 H 663.23 -4.10168 -0.784365 0
M  V30 7197 N 663.667 -0.670007 -1.42649 0
M  V30 7198 C 664.63 0.00204659 -2.292 0
M  V30 7199 C 665.63 0.733817 -1.4308 0
M  V30 7200 O 666.82 0.57254 -1.64522 0
M  V30 7201 C 663.952 1.01359 -3.25483 0
M  V30 7202 H 665.145 -0.759696 -2.90118 0
M  V30 7203 H 662.698 -0.432105 -1.50208 0
M  V30 7204 H 663.433 1.80399 -2.69493 0
M  V30 7205 H 663.218 0.492323 -3.88997 0
M  V30 7206 H 664.708 1.4824 -3.90403 0
M  V30 7207 N 665.145 1.52092 -0.413018 0
M  V30 7208 C 666.078 2.23613 0.455234 0
M  V30 7209 C 667.056 1.2459 1.04481 0
M  V30 7210 O 668.24 1.53653 1.09193 0
M  V30 7211 C 665.367 2.96775 1.63224 0
M  V30 7212 C 664.413 4.10261 1.16568 0
M  V30 7213 S 665.246 5.35348 0.127633 0
M  V30 7214 C 666.402 6.1204 1.30987 0
M  V30 7215 H 666.635 2.96911 -0.152042 0
M  V30 7216 H 664.168 1.53134 -0.197343 0
M  V30 7217 H 666.126 3.39532 2.30713 0
M  V30 7218 H 664.787 2.23113 2.21087 0
M  V30 7219 H 663.98 4.6064 2.04515 0
M  V30 7220 H 663.582 3.6964 0.569386 0
M  V30 7221 H 665.874 6.39651 2.23276 0
M  V30 7222 H 666.817 7.03022 0.846533 0
M  V30 7223 H 667.225 5.43161 1.53743 0
M  V30 7224 N 666.623 0.143563 1.56945 0
M  V30 7225 C 667.586 -0.783295 2.154 0
M  V30 7226 C 668.586 -1.17763 1.09492 0
M  V30 7227 O 669.776 -1.09912 1.35148 0
M  V30 7228 C 666.908 -2.06248 2.7143 0
M  V30 7229 H 668.101 -0.274863 2.98638 0
M  V30 7230 H 665.654 -0.105859 1.55941 0
M  V30 7231 H 666.389 -2.61466 1.91849 0
M  V30 7232 H 666.174 -1.78897 3.4891 0
M  V30 7233 H 667.664 -2.72453 3.16479 0
M  V30 7234 N 668.101 -1.57061 -0.130224 0
M  V30 7235 C 669.329 -1.88432 -0.854456 0
M  V30 7236 C 669.744 -0.733608 -1.73964 0
M  V30 7237 O 669.101 0.296029 -1.80083 0
M  V30 7238 C 669.152 -3.1918 -1.69724 0
M  V30 7239 O 668.873 -4.2982 -0.847705 0
M  V30 7240 C 670.374 -3.6418 -2.5276 0
M  V30 7241 H 667.594 -0.624193 -0.246221 0
M  V30 7242 H 670.138 -2.04159 -0.11798 0
M  V30 7243 H 668.293 -3.05156 -2.3866 0
M  V30 7244 H 668.707 -5.04689 -1.42792 0
M  V30 7245 H 670.181 -4.58457 -3.07443 0
M  V30 7246 H 670.658 -2.90285 -3.29592 0
M  V30 7247 H 671.264 -3.80954 -1.89087 0
M  V30 7248 N 669.579 0.400081 -1.52437 0
M  V30 7249 C 670.804 1.17221 -1.71096 0
M  V30 7250 C 671.229 1.83269 -0.423565 0
M  V30 7251 O 670.587 1.70378 0.619751 0
M  V30 7252 C 670.635 2.20425 -2.85386 0
M  V30 7253 O 669.739 3.26769 -2.51586 0
M  V30 7254 H 669.08 0.341766 -0.569291 0
M  V30 7255 H 671.61 0.467772 -1.99181 0
M  V30 7256 H 671.62 2.64605 -3.10561 0
M  V30 7257 H 670.295 1.71737 -3.78786 0
M  V30 7258 H 668.872 2.87804 -2.37114 0
M  V30 7259 N 671.057 1.43213 0.657864 0
M  V30 7260 C 672.02 1.47687 1.75275 0
M  V30 7261 C 673.02 0.362179 1.56668 0
M  V30 7262 O 674.21 0.623734 1.62651 0
M  V30 7263 C 671.342 1.32497 3.14098 0
M  V30 7264 H 672.535 2.4519 1.7269 0
M  V30 7265 H 670.088 1.2991 0.869087 0
M  V30 7266 H 670.823 0.359831 3.22298 0
M  V30 7267 H 670.608 2.13299 3.29008 0
M  V30 7268 H 672.098 1.38549 3.93946 0
M  V30 7269 N 672.536 -0.895792 1.29666 0
M  V30 7270 C 673.784 -1.64339 1.17631 0
M  V30 7271 C 674.105 -1.93099 -0.271643 0
M  V30 7272 O 673.375 -1.55981 -1.18518 0
M  V30 7273 H 671.955 -0.609162 0.432354 0
M  V30 7274 H 674.617 -1.07389 1.62646 0
M  V30 7275 H 673.713 -2.59815 1.72924 0
M  V30 7276 N 674.014 -1.12206 -1.10668 0
M  V30 7277 C 675.242 -0.898635 -1.86366 0
M  V30 7278 C 675.657 0.551991 -1.80551 0
M  V30 7279 O 675.014 1.38152 -1.19249 0
M  V30 7280 C 675.065 -1.36199 -3.34861 0
M  V30 7281 O 674.786 -2.75576 -3.40573 0
M  V30 7282 C 676.287 -1.17515 -4.2744 0
M  V30 7283 H 673.507 -0.321281 -0.589084 0
M  V30 7284 H 676.051 -1.49142 -1.39918 0
M  V30 7285 H 674.206 -0.81249 -3.78784 0
M  V30 7286 H 674.62 -2.95851 -4.33096 0
M  V30 7287 H 676.094 -1.54827 -5.29842 0
M  V30 7288 H 676.571 -0.115486 -4.39048 0
M  V30 7289 H 677.177 -1.71203 -3.89319 0
M  V30 7290 N 675.492 1.28418 -0.913599 0
M  V30 7291 C 676.738 1.9527 -0.547484 0
M  V30 7292 C 677.071 1.71745 0.906486 0
M  V30 7293 O 676.346 1.03834 1.64465 0
M  V30 7294 C 676.629 3.49748 -0.857205 0
M  V30 7295 C 676.482 3.82675 -2.3639 0
M  V30 7296 C 677.801 4.3868 -0.353258 0
M  V30 7297 H 674.92 0.709236 -0.200381 0
M  V30 7298 H 677.562 1.51789 -1.14281 0
M  V30 7299 H 675.712 3.86915 -0.350548 0
M  V30 7300 H 677.384 3.55378 -2.94116 0
M  V30 7301 H 675.627 3.29724 -2.81894 0
M  V30 7302 H 676.298 4.90547 -2.53115 0
M  V30 7303 H 678.774 4.08584 -0.787288 0
M  V30 7304 H 677.65 5.45621 -0.599049 0
M  V30 7305 H 677.911 4.35753 0.746413 0
M  V30 7306 N 676.97 0.677563 1.42291 0
M  V30 7307 C 678.195 0.207901 2.06355 0
M  V30 7308 C 678.62 -1.12723 1.50583 0
M  V30 7309 O 677.978 -1.70171 0.62543 0
M  V30 7310 C 678.026 0.156489 3.6026 0
M  V30 7311 O 677.13 -0.874162 4.03029 0
M  V30 7312 H 676.471 0.106056 0.655475 0
M  V30 7313 H 679.001 0.927354 1.82377 0
M  V30 7314 H 679.011 -0.0187258 4.07996 0
M  V30 7315 H 677.686 1.13101 4.00226 0
M  V30 7316 H 676.263 -0.669764 3.66836 0
M  V30 7317 N 678.448 -1.51871 0.421078 0
M  V30 7318 C 679.358 -2.31077 -0.405069 0
M  V30 7319 C 680.374 -1.39301 -1.04265 0
M  V30 7320 O 681.55 -1.72376 -1.04157 0
M  V30 7321 C 678.615 -3.12556 -1.50032 0
M  V30 7322 C 677.676 -4.20088 -0.884559 0
M  V30 7323 C 676.909 -4.97673 -1.92762 0
M  V30 7324 O 677.132 -4.75696 -3.14753 0
M  V30 7325 O 676.066 -5.82203 -1.52719 0
M  V30 7326 H 679.892 -3.02742 0.241086 0
M  V30 7327 H 677.477 -1.48263 0.183991 0
M  V30 7328 H 679.359 -3.6326 -2.13589 0
M  V30 7329 H 678.034 -2.43672 -2.13086 0
M  V30 7330 H 676.941 -3.73502 -0.211379 0
M  V30 7331 H 678.274 -4.91298 -0.297763 0
M  V30 7332 N 679.926 -0.151884 -1.56866 0
M  V30 7333 C 681.203 0.543328 -1.87902 0
M  V30 7334 C 681.583 1.82636 -1.05864 0
M  V30 7335 O 680.931 2.28028 -0.146868 0
M  V30 7336 C 681.141 0.804056 -3.39611 0
M  V30 7337 C 682.489 1.14267 -4.08935 0
M  V30 7338 O 683.513 0.893248 -3.44818 0
M  V30 7339 O 682.372 1.61229 -5.22176 0
M  V30 7340 H 679.466 0.277724 -0.778973 0
M  V30 7341 H 682.012 -0.188862 -1.68646 0
M  V30 7342 H 680.784 -0.103772 -3.91162 0
M  V30 7343 H 680.407 1.59025 -3.64413 0
M  V30 7344 N 681.404 1.57128 0.121893 0
M  V30 7345 C 682.367 1.99197 1.13372 0
M  V30 7346 C 683.367 0.881728 1.3447 0
M  V30 7347 O 684.557 1.14783 1.31036 0
M  V30 7348 C 681.689 2.32963 2.4888 0
M  V30 7349 H 682.882 2.89788 0.772204 0
M  V30 7350 H 680.435 1.51952 0.366093 0
M  V30 7351 H 681.17 1.45243 2.89957 0
M  V30 7352 H 680.955 3.13934 2.34921 0
M  V30 7353 H 682.445 2.66261 3.21706 0
M  V30 7354 N 682.882 -0.391992 1.52647 0
M  V30 7355 C 684.131 -1.13449 1.6677 0
M  V30 7356 C 684.444 -1.91203 0.412399 0
M  V30 7357 O 685.65 -2.68013 0.433707 0
M  V30 7358 C 684.106 -2.06577 2.9471 0
M  V30 7359 C 683.714 -1.3426 4.27409 0
M  V30 7360 C 685.458 -2.80981 3.18198 0
M  V30 7361 C 683.365 -2.26136 5.46458 0
M  V30 7362 H 682.295 -0.427211 0.621295 0
M  V30 7363 H 684.946 -0.397522 1.79142 0
M  V30 7364 H 683.328 -2.83898 2.76076 0
M  V30 7365 H 684.502 -0.621856 4.56585 0
M  V30 7366 H 682.817 -0.718279 4.10158 0
M  V30 7367 H 685.414 -3.49898 4.04321 0
M  V30 7368 H 685.757 -3.44891 2.33144 0
M  V30 7369 H 686.29 -2.10754 3.37383 0
M  V30 7370 H 683.029 -1.66846 6.33911 0
M  V30 7371 H 682.549 -2.96134 5.21598 0
M  V30 7372 H 684.228 -2.86286 5.80215 0
M  V30 7373 N 684.36 -1.4356 -0.65026 0
M  V30 7374 C 685.27 -1.514 -1.79207 0
M  V30 7375 C 686.286 -0.400895 -1.69319 0
M  V30 7376 O 687.462 -0.655458 -1.90436 0
M  V30 7377 C 684.527 -1.43737 -3.155 0
M  V30 7378 C 683.588 -2.65743 -3.37163 0
M  V30 7379 C 682.821 -2.58436 -4.66954 0
M  V30 7380 O 683.044 -1.63374 -5.46503 0
M  V30 7381 O 681.978 -3.48984 -4.90402 0
M  V30 7382 H 685.804 -2.47825 -1.75547 0
M  V30 7383 H 683.389 -1.25594 -0.809111 0
M  V30 7384 H 685.271 -1.41916 -3.96784 0
M  V30 7385 H 683.946 -0.504488 -3.19745 0
M  V30 7386 H 682.853 -2.73136 -2.55632 0
M  V30 7387 H 684.186 -3.58014 -3.37768 0
M  V30 7388 N 685.838 0.888903 -1.30139 0
M  V30 7389 C 686.748 2.02705 -1.18101 0
M  V30 7390 C 687.764 1.73702 -0.101809 0
M  V30 7391 O 688.94 1.98906 -0.315984 0
M  V30 7392 C 686.005 3.35616 -0.869651 0
M  V30 7393 C 685.066 3.78067 -2.03381 0
M  V30 7394 C 684.299 5.04635 -1.73721 0
M  V30 7395 O 684.522 5.66531 -0.663267 0
M  V30 7396 O 683.456 5.43399 -2.58845 0
M  V30 7397 H 687.282 2.15788 -2.13704 0
M  V30 7398 H 684.867 1.01426 -1.09695 0
M  V30 7399 H 686.749 4.15358 -0.711043 0
M  V30 7400 H 685.424 3.23651 0.0565002 0
M  V30 7401 H 684.331 2.99046 -2.24772 0
M  V30 7402 H 685.664 3.94631 -2.94155 0
M  V30 7403 N 687.317 1.12792 1.10072 0
M  V30 7404 C 688.227 0.812369 2.20086 0
M  V30 7405 C 689.243 -0.200349 1.72843 0
M  V30 7406 O 690.419 -0.0330262 2.01373 0
M  V30 7407 C 687.484 0.275685 3.45602 0
M  V30 7408 C 686.545 1.34881 4.07561 0
M  V30 7409 C 685.778 0.837639 5.27086 0
M  V30 7410 O 686.001 -0.327224 5.69461 0
M  V30 7411 O 684.935 1.60894 5.79997 0
M  V30 7412 H 688.761 1.73133 2.49517 0
M  V30 7413 H 686.346 0.904863 1.18881 0
M  V30 7414 H 688.228 -0.0185375 4.21396 0
M  V30 7415 H 686.903 -0.615783 3.17789 0
M  V30 7416 H 685.81 1.69625 3.33434 0
M  V30 7417 H 687.143 2.21418 4.39585 0
M  V30 7418 N 688.795 -1.27931 0.920396 0
M  V30 7419 C 690.043 -1.94304 0.555906 0
M  V30 7420 C 690.364 -1.72753 -0.904519 0
M  V30 7421 O 689.634 -1.07104 -1.64029 0
M  V30 7422 H 688.214 -0.719001 0.202599 0
M  V30 7423 H 690.876 -1.55785 1.1712 0
M  V30 7424 H 689.972 -3.02806 0.755981 0
M  V30 7425 N 690.273 -0.685099 -1.4193 0
M  V30 7426 C 691.183 -0.013404 -2.34596 0
M  V30 7427 C 692.199 0.777589 -1.55658 0
M  V30 7428 O 693.375 0.717553 -1.88184 0
M  V30 7429 C 690.44 0.919031 -3.34297 0
M  V30 7430 C 689.501 0.121417 -4.29128 0
M  V30 7431 C 688.734 1.00944 -5.24067 0
M  V30 7432 O 688.957 2.24898 -5.24192 0
M  V30 7433 O 687.891 0.464724 -6.00103 0
M  V30 7434 H 691.717 -0.776978 -2.93593 0
M  V30 7435 H 689.302 -0.445379 -1.42607 0
M  V30 7436 H 691.184 1.45402 -3.9552 0
M  V30 7437 H 689.859 1.66228 -2.77759 0
M  V30 7438 H 688.766 -0.45792 -3.71287 0
M  V30 7439 H 690.099 -0.582937 -4.88736 0
M  V30 7440 N 691.751 1.51645 -0.429126 0
M  V30 7441 C 692.661 2.31288 0.392809 0
M  V30 7442 C 693.677 1.39852 1.03525 0
M  V30 7443 O 694.853 1.72926 1.03241 0
M  V30 7444 C 691.918 3.13347 1.48372 0
M  V30 7445 C 690.979 4.20551 0.862268 0
M  V30 7446 C 690.212 4.98688 1.9012 0
M  V30 7447 O 690.435 4.77359 3.12225 0
M  V30 7448 O 689.369 5.83005 1.4963 0
M  V30 7449 H 693.195 3.02609 -0.257138 0
M  V30 7450 H 690.78 1.48163 -0.191851 0
M  V30 7451 H 692.662 3.64387 2.1166 0
M  V30 7452 H 691.337 2.44799 2.1179 0
M  V30 7453 H 690.244 3.73609 0.191568 0
M  V30 7454 H 691.577 4.91449 0.271704 0
M  V30 7455 N 693.229 0.160201 1.56784 0
M  V30 7456 C 694.477 -0.486625 1.96154 0
M  V30 7457 C 694.798 -1.64525 1.04673 0
M  V30 7458 O 694.068 -1.95586 0.110864 0
M  V30 7459 H 692.648 -0.182764 0.724297 0
M  V30 7460 H 695.31 0.238787 1.93432 0
M  V30 7461 H 694.406 -0.854025 3.00188 0
M  V30 7462 N 694.707 -1.5719 -0.113559 0
M  V30 7463 C 695.955 -1.84772 -0.818761 0
M  V30 7464 C 696.276 -0.746196 -1.80158 0
M  V30 7465 O 695.546 0.229305 -1.94553 0
M  V30 7466 H 694.126 -0.681737 -0.305359 0
M  V30 7467 H 696.788 -1.94645 -0.0995845 0
M  V30 7468 H 695.884 -2.80878 -1.36067 0
M  V30 7469 N 696.185 0.383891 -1.52853 0
M  V30 7470 C 697.433 1.12619 -1.67814 0
M  V30 7471 C 697.754 1.90354 -0.423141 0
M  V30 7472 O 697.024 1.87649 0.562554 0
M  V30 7473 H 695.604 0.418738 -0.618601 0
M  V30 7474 H 698.266 0.43495 -1.89985 0
M  V30 7475 H 697.362 1.82624 -2.5309 0
M  V30 7476 N 697.663 1.43903 0.642637 0
M  V30 7477 C 698.888 1.49758 1.43483 0
M  V30 7478 C 699.313 0.119911 1.87717 0
M  V30 7479 O 698.671 -0.888558 1.58033 0
M  V30 7480 C 698.719 2.45744 2.63898 0
M  V30 7481 O 697.823 1.95101 3.63331 0
M  V30 7482 H 697.164 0.506138 0.429791 0
M  V30 7483 H 699.694 1.88923 0.785438 0
M  V30 7484 H 699.704 2.63399 3.11584 0
M  V30 7485 H 698.379 3.45818 2.31046 0
M  V30 7486 H 696.956 1.87158 3.22531 0
M  V30 7487 N 699.141 -0.881989 1.30609 0
M  V30 7488 C 700.552 -1.44956 1.17664 0
M  V30 7489 C 700.903 -1.94945 -0.221531 0
M  V30 7490 O 700.028 -1.85257 -1.11844 0
M  V30 7491 C 700.623 -2.63474 2.12995 0
M  V30 7492 C 699.182 -3.16312 2.04019 0
M  V30 7493 C 698.329 -1.89008 2.02907 0
M  V30 7494 H 701.28 -0.691645 1.42835 0
M  V30 7495 H 701.301 -3.39783 1.71253 0
M  V30 7496 H 700.813 -2.2706 3.14746 0
M  V30 7497 H 698.914 -3.57376 1.0542 0
M  V30 7498 H 699.027 -3.79409 2.9255 0
M  V30 7499 H 697.391 -2.07465 1.47751 0
M  V30 7500 H 698.174 -1.54848 3.06394 0
M  V30 7501 N 700.619 -1.13374 -1.09472 0
M  V30 7502 C 702.035 -0.871846 -1.33682 0
M  V30 7503 C 702.235 0.492847 -1.9538 0
M  V30 7504 O 701.291 1.23946 -2.19985 0
M  V30 7505 C 702.604 -1.99608 -2.24893 0
M  V30 7506 C 704.152 -2.02812 -2.38404 0
M  V30 7507 C 704.627 -3.14497 -3.3295 0
M  V30 7508 N 706.118 -3.14004 -3.40523 0
M  V30 7509 C 706.853 -3.97061 -4.13679 0
M  V30 7510 N 706.349 -4.90131 -4.89636 0
M  V30 7511 N 708.142 -3.85162 -4.09398 0
M  V30 7512 H 700.293 -2.01288 -0.677995 0
M  V30 7513 H 702.556 -0.876492 -0.361201 0
M  V30 7514 H 702.262 -2.98 -1.86786 0
M  V30 7515 H 702.136 -1.90981 -3.25278 0
M  V30 7516 H 704.523 -1.05034 -2.75775 0
M  V30 7517 H 704.604 -2.15511 -1.37799 0
M  V30 7518 H 704.248 -4.12514 -2.96302 0
M  V30 7519 H 704.178 -2.99035 -4.33458 0
M  V30 7520 H 706.669 -2.46587 -2.86362 0
M  V30 7521 H 706.982 -5.49996 -5.42885 0
M  V30 7522 H 705.327 -4.94138 -4.88726 0
M  V30 7523 H 708.518 -3.11779 -3.49158 0
M  V30 7524 H 708.691 -4.5012 -4.6615 0
M  V30 7525 N 702.098 1.27442 -0.927168 0
M  V30 7526 C 703.323 1.99036 -0.583042 0
M  V30 7527 C 703.748 1.68711 0.83176 0
M  V30 7528 O 703.106 0.927081 1.55804 0
M  V30 7529 C 703.154 3.51271 -0.814925 0
M  V30 7530 O 702.258 4.12226 0.119742 0
M  V30 7531 H 701.599 0.624883 -0.224538 0
M  V30 7532 H 704.129 1.62263 -1.24628 0
M  V30 7533 H 704.139 4.01411 -0.730282 0
M  V30 7534 H 702.814 3.72676 -1.84623 0
M  V30 7535 H 701.391 3.72897 -0.0147688 0
M  V30 7536 N 703.576 0.692616 1.41565 0
M  V30 7537 C 704.801 0.229776 2.06123 0
M  V30 7538 C 705.226 -1.11119 1.5177 0
M  V30 7539 O 704.584 -1.69498 0.643444 0
M  V30 7540 C 704.632 0.19469 3.60074 0
M  V30 7541 O 703.736 -0.831366 4.03933 0
M  V30 7542 H 703.077 0.113002 0.654314 0
M  V30 7543 H 705.607 0.946645 1.81383 0
M  V30 7544 H 705.617 0.0245487 4.07993 0
M  V30 7545 H 704.292 1.17339 3.99004 0
M  V30 7546 H 702.869 -0.630819 3.67526 0
M  V30 7547 N 705.054 -1.51416 0.437162 0
M  V30 7548 C 706.279 -2.0699 -0.130424 0
M  V30 7549 C 706.704 -1.30249 -1.35709 0
M  V30 7550 O 706.062 -0.340388 -1.78076 0
M  V30 7551 C 706.11 -3.5801 -0.43142 0
M  V30 7552 O 705.214 -3.8345 -1.5179 0
M  V30 7553 H 704.555 -0.663997 -0.00194339 0
M  V30 7554 H 707.085 -1.95029 0.618445 0
M  V30 7555 H 707.095 -4.02261 -0.681926 0
M  V30 7556 H 705.77 -4.13291 0.465137 0
M  V30 7557 H 704.347 -3.51062 -1.25737 0
M  V30 7558 N 706.532 -0.168513 -1.56696 0
M  V30 7559 C 707.442 0.775435 -2.21414 0
M  V30 7560 C 708.458 1.25529 -1.20492 0
M  V30 7561 O 709.634 1.30801 -1.53144 0
M  V30 7562 C 706.699 1.9886 -2.83999 0
M  V30 7563 C 705.76 1.5559 -4.00113 0
M  V30 7564 C 704.993 2.71124 -4.59704 0
M  V30 7565 O 705.216 3.87917 -4.18182 0
M  V30 7566 O 704.15 2.4536 -5.4962 0
M  V30 7567 H 707.976 0.254416 -3.02632 0
M  V30 7568 H 705.561 0.0595507 -1.49281 0
M  V30 7569 H 707.443 2.69816 -3.23693 0
M  V30 7570 H 706.118 2.49874 -2.05779 0
M  V30 7571 H 705.025 0.815924 -3.65094 0
M  V30 7572 H 706.358 1.09271 -4.79917 0
M  V30 7573 N 708.01 1.57248 0.105221 0
M  V30 7574 C 709.259 1.84756 0.809198 0
M  V30 7575 C 709.572 0.756262 1.80389 0
M  V30 7576 O 710.778 0.918158 2.55504 0
M  V30 7577 C 709.234 3.27613 1.48989 0
M  V30 7578 C 708.842 4.44788 0.535484 0
M  V30 7579 C 710.586 3.64356 2.17819 0
M  V30 7580 C 708.493 5.78676 1.22019 0
M  V30 7581 H 707.423 0.689139 0.305946 0
M  V30 7582 H 710.074 1.83395 0.0620371 0
M  V30 7583 H 708.456 3.23485 2.28415 0
M  V30 7584 H 709.63 4.60243 -0.226557 0
M  V30 7585 H 707.945 4.16374 -0.0465769 0
M  V30 7586 H 710.542 4.61663 2.69761 0
M  V30 7587 H 710.885 2.92474 2.96251 0
M  V30 7588 H 711.418 3.70328 1.45264 0
M  V30 7589 H 708.157 6.53763 0.476875 0
M  V30 7590 H 707.677 5.67083 1.9539 0
M  V30 7591 H 709.356 6.22897 1.74952 0
M  V30 7592 N 709.488 -0.375779 1.53054 0
M  V30 7593 C 710.713 -1.14484 1.7294 0
M  V30 7594 C 711.138 -1.82572 0.452668 0
M  V30 7595 O 710.496 -1.71343 -0.592567 0
M  V30 7596 C 710.544 -2.15857 2.88857 0
M  V30 7597 O 709.648 -3.22725 2.56753 0
M  V30 7598 H 708.989 -0.332666 0.574656 0
M  V30 7599 H 711.519 -0.436025 1.999 0
M  V30 7600 H 711.529 -2.59631 3.14731 0
M  V30 7601 H 710.204 -1.65689 3.81471 0
M  V30 7602 H 708.781 -2.83996 2.41663 0
M  V30 7603 N 710.966 -1.44241 -0.634997 0
M  V30 7604 C 711.913 -1.5081 -1.74714 0
M  V30 7605 C 712.883 -0.356147 -1.62237 0
M  V30 7606 O 714.068 -0.565848 -1.82216 0
M  V30 7607 C 711.208 -1.45458 -3.12947 0
M  V30 7608 C 710.321 -2.70998 -3.36428 0
M  V30 7609 C 709.456 -2.57507 -4.64611 0
M  V30 7610 C 708.495 -3.78229 -4.81258 0
M  V30 7611 N 707.632 -3.63438 -6.00714 0
M  V30 7612 H 712.472 -2.45832 -1.68436 0
M  V30 7613 H 710.009 -1.2201 -0.821706 0
M  V30 7614 H 711.967 -1.40347 -3.92885 0
M  V30 7615 H 710.597 -0.540058 -3.1825 0
M  V30 7616 H 709.649 -2.86312 -2.50458 0
M  V30 7617 H 710.961 -3.60619 -3.44609 0
M  V30 7618 H 710.115 -2.50207 -5.52703 0
M  V30 7619 H 708.854 -1.65441 -4.58782 0
M  V30 7620 H 707.859 -3.85918 -3.91596 0
M  V30 7621 H 709.084 -4.71327 -4.88904 0
M  V30 7622 H 707.03 -2.7412 -5.95982 0
M  V30 7623 H 706.947 -4.46672 -6.09934 0
M  V30 7624 H 708.215 -3.60022 -6.91378 0
M  V30 7625 N 712.444 0.87505 -1.31075 0
M  V30 7626 C 713.374 1.99775 -1.20881 0
M  V30 7627 C 714.355 1.69822 -0.0971612 0
M  V30 7628 O 715.54 1.92158 -0.280895 0
M  V30 7629 C 712.67 3.35163 -0.910118 0
M  V30 7630 C 711.624 3.79406 -1.98078 0
M  V30 7631 C 710.95 5.12197 -1.53488 0
M  V30 7632 C 712.25 3.97061 -3.39323 0
M  V30 7633 H 713.944 2.08562 -2.14808 0
M  V30 7634 H 711.49 1.00207 -1.03415 0
M  V30 7635 H 713.443 4.13237 -0.825423 0
M  V30 7636 H 712.167 3.26536 0.064822 0
M  V30 7637 H 710.826 3.03568 -2.05528 0
M  V30 7638 H 710.474 5.00007 -0.547941 0
M  V30 7639 H 710.174 5.4277 -2.2511 0
M  V30 7640 H 711.698 5.92785 -1.46417 0
M  V30 7641 H 713.112 4.65545 -3.34576 0
M  V30 7642 H 711.509 4.39025 -4.09118 0
M  V30 7643 H 712.579 3.00601 -3.80483 0
M  V30 7644 N 713.922 1.13953 1.08869 0
M  V30 7645 C 715.147 0.928559 1.85452 0
M  V30 7646 C 715.572 -0.517642 1.80837 0
M  V30 7647 O 714.93 -1.36779 1.19001 0
M  V30 7648 C 714.978 1.42814 3.31114 0
M  V30 7649 O 714.082 0.617129 4.07756 0
M  V30 7650 H 713.423 0.33235 0.574839 0
M  V30 7651 H 715.953 1.5156 1.37443 0
M  V30 7652 H 715.963 1.43425 3.8196 0
M  V30 7653 H 714.638 2.48109 3.33788 0
M  V30 7654 H 713.215 0.679365 3.66659 0
M  V30 7655 N 715.4 -1.26948 0.933913 0
M  V30 7656 C 716.625 -1.98724 0.593589 0
M  V30 7657 C 717.05 -1.6915 -0.822801 0
M  V30 7658 O 716.408 -0.93533 -1.5531 0
M  V30 7659 C 716.456 -3.50834 0.833542 0
M  V30 7660 O 715.56 -4.12284 -0.0978788 0
M  V30 7661 H 714.901 -0.623683 0.227849 0
M  V30 7662 H 717.431 -1.61599 1.25486 0
M  V30 7663 H 717.441 -4.01018 0.75156 0
M  V30 7664 H 716.116 -3.71691 1.86597 0
M  V30 7665 H 714.693 -3.72884 0.0345443 0
M  V30 7666 N 716.879 -0.700114 -1.41195 0
M  V30 7667 C 717.826 -0.0376652 -2.30769 0
M  V30 7668 C 718.796 0.766544 -1.47354 0
M  V30 7669 O 719.981 0.73365 -1.76131 0
M  V30 7670 C 717.121 0.889452 -3.33441 0
M  V30 7671 C 716.234 0.076373 -4.31932 0
M  V30 7672 C 715.369 1.00155 -5.21673 0
M  V30 7673 C 714.408 0.181644 -6.1183 0
M  V30 7674 N 713.545 1.06087 -6.94039 0
M  V30 7675 H 718.385 -0.80726 -2.86858 0
M  V30 7676 H 715.922 -0.409798 -1.41277 0
M  V30 7677 H 717.88 1.44107 -3.91522 0
M  V30 7678 H 716.51 1.6254 -2.78892 0
M  V30 7679 H 715.562 -0.592223 -3.75762 0
M  V30 7680 H 716.874 -0.559076 -4.95657 0
M  V30 7681 H 716.028 1.62223 -5.8461 0
M  V30 7682 H 714.767 1.67085 -4.58186 0
M  V30 7683 H 713.772 -0.452085 -5.47938 0
M  V30 7684 H 714.997 -0.483925 -6.77374 0
M  V30 7685 H 712.943 1.7161 -6.33156 0
M  V30 7686 H 712.86 0.481094 -7.54468 0
M  V30 7687 H 714.128 1.66822 -7.6144 0
M  V30 7688 N 718.357 1.51182 -0.445186 0
M  V30 7689 C 719.582 2.07056 0.119445 0
M  V30 7690 C 720.007 1.30966 1.35016 0
M  V30 7691 O 719.365 0.349827 1.77893 0
M  V30 7692 C 719.413 3.58234 0.412428 0
M  V30 7693 O 718.517 3.84249 1.49754 0
M  V30 7694 H 717.858 0.663998 -0.00157797 0
M  V30 7695 H 720.388 1.94699 -0.628779 0
M  V30 7696 H 720.398 4.02617 0.660583 0
M  V30 7697 H 719.073 4.13038 -0.487049 0
M  V30 7698 H 717.65 3.51724 1.23873 0
M  V30 7699 N 719.835 0.176821 1.56605 0
M  V30 7700 C 720.798 -0.737429 2.17013 0
M  V30 7701 C 721.798 -1.15414 1.11965 0
M  V30 7702 O 722.988 -1.0702 1.37449 0
M  V30 7703 C 720.12 -2.00445 2.75744 0
M  V30 7704 H 721.313 -0.211455 2.99154 0
M  V30 7705 H 718.866 -0.0727582 1.56131 0
M  V30 7706 H 719.601 -2.57338 1.97352 0
M  V30 7707 H 719.386 -1.71456 3.52626 0
M  V30 7708 H 720.876 -2.65679 3.22187 0
M  V30 7709 N 721.313 -1.57302 -0.09688 0
M  V30 7710 C 722.26 -2.01933 -1.11766 0
M  V30 7711 C 723.23 -0.895329 -1.39904 0
M  V30 7712 O 724.415 -1.16119 -1.51397 0
M  V30 7713 C 721.555 -2.44726 -2.43317 0
M  V30 7714 C 720.668 -3.70639 -2.21925 0
M  V30 7715 C 719.803 -4.02318 -3.46862 0
M  V30 7716 C 718.842 -5.21346 -3.20725 0
M  V30 7717 N 717.979 -5.48787 -4.37924 0
M  V30 7718 H 722.819 -2.88919 -0.730075 0
M  V30 7719 H 720.356 -1.42901 -0.348962 0
M  V30 7720 H 722.314 -2.6758 -3.20088 0
M  V30 7721 H 720.944 -1.60753 -2.79926 0
M  V30 7722 H 719.996 -3.55271 -1.35965 0
M  V30 7723 H 721.308 -4.57557 -1.98603 0
M  V30 7724 H 720.462 -4.25939 -4.32042 0
M  V30 7725 H 719.201 -3.13918 -3.73238 0
M  V30 7726 H 718.206 -4.97547 -2.33938 0
M  V30 7727 H 719.431 -6.11343 -2.95697 0
M  V30 7728 H 717.377 -4.63346 -4.64378 0
M  V30 7729 H 717.294 -6.30073 -4.17785 0
M  V30 7730 H 718.562 -5.76943 -5.24173 0
M  V30 7731 N 722.791 0.367657 -1.53252 0
M  V30 7732 C 723.701 1.47415 -1.82499 0
M  V30 7733 C 724.717 1.58711 -0.713222 0
M  V30 7734 O 725.893 1.74644 -1.00306 0
M  V30 7735 C 722.958 2.82706 -2.00694 0
M  V30 7736 C 722.019 2.80955 -3.24596 0
M  V30 7737 C 721.252 4.09793 -3.41914 0
M  V30 7738 O 721.475 5.05852 -2.63572 0
M  V30 7739 O 720.409 4.15731 -4.3526 0
M  V30 7740 H 724.235 1.25624 -2.765 0
M  V30 7741 H 721.82 0.557559 -1.38606 0
M  V30 7742 H 723.702 3.62873 -2.14246 0
M  V30 7743 H 722.377 3.04479 -1.09883 0
M  V30 7744 H 721.284 1.99494 -3.16469 0
M  V30 7745 H 722.617 2.64136 -4.15323 0
M  V30 7746 N 724.269 1.44576 0.627338 0
M  V30 7747 C 725.685 1.28546 0.945938 0
M  V30 7748 C 725.885 0.224003 2.00251 0
M  V30 7749 O 724.941 -0.388817 2.49488 0
M  V30 7750 C 726.254 2.65825 1.40561 0
M  V30 7751 C 727.802 2.73566 1.52088 0
M  V30 7752 C 728.277 4.11323 2.01438 0
M  V30 7753 N 729.768 4.13519 2.08702 0
M  V30 7754 C 730.503 5.16964 2.48065 0
M  V30 7755 N 729.999 6.30768 2.86538 0
M  V30 7756 N 731.792 5.04319 2.48232 0
M  V30 7757 H 723.943 2.1228 -0.0713567 0
M  V30 7758 H 726.206 0.947503 0.0307081 0
M  V30 7759 H 725.912 3.44591 0.703539 0
M  V30 7760 H 725.786 2.92969 2.37591 0
M  V30 7761 H 728.173 1.95116 2.21391 0
M  V30 7762 H 728.254 2.50159 0.534237 0
M  V30 7763 H 727.898 4.9025 1.32729 0
M  V30 7764 H 727.828 4.32109 3.0098 0
M  V30 7765 H 730.319 3.31385 1.81638 0
M  V30 7766 H 730.632 7.0551 3.15398 0
M  V30 7767 H 728.977 6.342 2.84281 0
M  V30 7768 H 732.168 4.14465 2.17569 0
M  V30 7769 H 732.341 5.85059 2.78585 0
M  V30 7770 N 725.747 -0.868086 1.31537 0
M  V30 7771 C 727.163 -1.15414 1.10235 0
M  V30 7772 C 727.363 -2.01106 -0.125947 0
M  V30 7773 O 726.419 -2.38994 -0.814734 0
M  V30 7774 C 727.732 -1.84445 2.37488 0
M  V30 7775 C 729.28 -1.97139 2.43116 0
M  V30 7776 C 729.755 -2.69585 3.70254 0
M  V30 7777 N 731.246 -2.77119 3.71159 0
M  V30 7778 C 731.981 -3.33791 4.6623 0
M  V30 7779 N 731.477 -3.9138 5.71659 0
M  V30 7780 N 733.27 -3.31767 4.53747 0
M  V30 7781 H 725.421 -0.297109 2.10312 0
M  V30 7782 H 727.684 -0.194227 0.92789 0
M  V30 7783 H 727.39 -1.2893 3.27215 0
M  V30 7784 H 727.264 -2.84709 2.47428 0
M  V30 7785 H 729.651 -2.51818 1.53856 0
M  V30 7786 H 729.732 -0.95912 2.37138 0
M  V30 7787 H 729.376 -2.15572 4.59881 0
M  V30 7788 H 729.306 -3.71223 3.73499 0
M  V30 7789 H 731.797 -2.3625 2.94948 0
M  V30 7790 H 732.11 -4.3274 6.40278 0
M  V30 7791 H 730.455 -3.8975 5.7543 0
M  V30 7792 H 733.646 -2.86016 3.70557 0
M  V30 7793 H 733.819 -3.75636 5.28017 0
M  V30 7794 N 727.225 -1.14528 -1.08264 0
M  V30 7795 C 728.173 -0.829201 -2.17318 0
M  V30 7796 C 729.167 0.193521 -1.68291 0
M  V30 7797 O 730.373 0.0494744 -1.79932 0
M  V30 7798 H 726.748 -0.250435 -0.709074 0
M  V30 7799 H 728.719 -1.75683 -2.41201 0
M  V30 7800 C 727.468 -0.324663 -3.46181 0
M  V30 7801 H 726.791 -1.10299 -3.84284 0
M  V30 7802 H 728.231 -0.142059 -4.23762 0
M  V30 7803 C 726.69 0.952033 -3.23169 0
M  V30 7804 O 727.22 2.02549 -3.46896 0
M  V30 7805 N 725.426 0.887854 -2.76705 0
M  V30 7806 H 724.973 0.0141402 -2.57596 0
M  V30 7807 H 724.931 1.74263 -2.61686 0
M  V30 7808 N 728.703 1.26451 -0.940633 0
M  V30 7809 C 730.119 1.4608 -0.642859 0
M  V30 7810 C 730.319 1.84765 0.803998 0
M  V30 7811 O 729.375 1.96902 1.58069 0
M  V30 7812 C 730.688 2.54359 -1.60381 0
M  V30 7813 C 732.236 2.6821 -1.61345 0
M  V30 7814 C 732.711 3.79659 -2.56169 0
M  V30 7815 N 734.202 3.87051 -2.54452 0
M  V30 7816 C 734.937 4.72739 -3.24507 0
M  V30 7817 N 734.433 5.6282 -4.03987 0
M  V30 7818 N 736.226 4.66581 -3.13462 0
M  V30 7819 H 728.377 0.996289 -1.87584 0
M  V30 7820 H 730.64 0.498921 -0.80609 0
M  V30 7821 H 730.346 2.32758 -2.6366 0
M  V30 7822 H 730.22 3.52005 -1.35545 0
M  V30 7823 H 732.607 2.89184 -0.587913 0
M  V30 7824 H 732.688 1.7101 -1.90235 0
M  V30 7825 H 732.332 3.59438 -3.58841 0
M  V30 7826 H 732.262 4.76315 -2.2457 0
M  V30 7827 H 734.753 3.22649 -1.96739 0
M  V30 7828 H 735.066 6.25095 -4.54396 0
M  V30 7829 H 733.411 5.62574 -4.08088 0
M  V30 7830 H 736.602 3.9521 -2.50852 0
M  V30 7831 H 736.775 5.33141 -3.68327 0
M  V30 7832 N 730.181 0.707592 1.40822 0
M  V30 7833 C 731.597 0.38034 1.55002 0
M  V30 7834 C 731.797 -1.11163 1.68062 0
M  V30 7835 O 730.853 -1.89761 1.66574 0
M  V30 7836 C 732.166 1.1394 2.78277 0
M  V30 7837 C 733.714 1.12492 2.92087 0
M  V30 7838 C 734.189 1.86597 4.18265 0
M  V30 7839 N 735.68 1.83626 4.25248 0
M  V30 7840 C 736.415 2.37794 5.21768 0
M  V30 7841 N 735.911 3.00485 6.24244 0
M  V30 7842 N 737.704 2.27982 5.13791 0
M  V30 7843 H 729.855 1.67511 1.3059 0
M  V30 7844 H 732.118 0.707579 0.630901 0
M  V30 7845 H 731.824 2.19398 2.74877 0
M  V30 7846 H 731.698 0.725793 3.70151 0
M  V30 7847 H 734.085 0.0785564 2.94995 0
M  V30 7848 H 734.166 1.57768 2.01353 0
M  V30 7849 H 733.81 2.91219 4.16118 0
M  V30 7850 H 733.74 1.38746 5.07993 0
M  V30 7851 H 736.231 1.3793 3.51829 0
M  V30 7852 H 736.544 3.39355 6.94304 0
M  V30 7853 H 734.889 3.04567 6.24711 0
M  V30 7854 H 738.08 1.78669 4.3266 0
M  V30 7855 H 738.253 2.70499 5.88841 0
M  V30 7856 N 731.66 -1.50943 0.453197 0
M  V30 7857 C 732.607 -2.28128 -0.350197 0
M  V30 7858 C 733.577 -1.32398 -1.00299 0
M  V30 7859 O 734.762 -1.61319 -1.01887 0
M  V30 7860 C 731.902 -3.13782 -1.43649 0
M  V30 7861 C 731.015 -4.24523 -0.800255 0
M  V30 7862 C 730.15 -4.97462 -1.86293 0
M  V30 7863 C 729.189 -6.00102 -1.20598 0
M  V30 7864 N 728.326 -6.66387 -2.21071 0
M  V30 7865 H 733.166 -2.96337 0.31434 0
M  V30 7866 H 730.703 -1.46151 0.166863 0
M  V30 7867 H 732.661 -3.6178 -2.07776 0
M  V30 7868 H 731.291 -2.47655 -2.07044 0
M  V30 7869 H 730.343 -3.80371 -0.0468651 0
M  V30 7870 H 731.655 -4.98009 -0.280777 0
M  V30 7871 H 730.809 -5.49088 -2.58044 0
M  V30 7872 H 729.548 -4.23642 -2.41617 0
M  V30 7873 H 728.553 -5.47753 -0.474 0
M  V30 7874 H 729.778 -6.75887 -0.659859 0
M  V30 7875 H 727.724 -5.9537 -2.75446 0
M  V30 7876 H 727.641 -7.3569 -1.74058 0
M  V30 7877 H 728.909 -7.22638 -2.92257 0
M  V30 7878 N 733.138 -0.185124 -1.56509 0
M  V30 7879 C 734.085 0.739729 -2.18624 0
M  V30 7880 C 735.055 1.217 -1.13042 0
M  V30 7881 O 736.24 1.28268 -1.41251 0
M  V30 7882 C 733.38 1.95787 -2.84186 0
M  V30 7883 C 732.493 1.52289 -4.04267 0
M  V30 7884 C 731.628 2.69576 -4.57714 0
M  V30 7885 C 730.667 2.22636 -5.70175 0
M  V30 7886 N 729.804 3.33065 -6.18071 0
M  V30 7887 H 734.644 0.203269 -2.97306 0
M  V30 7888 H 732.181 0.0885946 -1.46833 0
M  V30 7889 H 734.139 2.67253 -3.20361 0
M  V30 7890 H 732.769 2.4678 -2.08085 0
M  V30 7891 H 731.821 0.704458 -3.7382 0
M  V30 7892 H 733.133 1.13843 -4.85635 0
M  V30 7893 H 732.287 3.4918 -4.96143 0
M  V30 7894 H 731.026 3.1129 -3.75433 0
M  V30 7895 H 730.031 1.41483 -5.31284 0
M  V30 7896 H 731.256 1.81964 -6.54267 0
M  V30 7897 H 729.202 3.74328 -5.38715 0
M  V30 7898 H 729.119 2.98756 -6.94464 0
M  V30 7899 H 730.387 4.12912 -6.61153 0
M  V30 7900 N 734.616 1.57351 0.0885366 0
M  V30 7901 C 736.032 1.53331 0.442916 0
M  V30 7902 C 736.232 0.902831 1.80142 0
M  V30 7903 O 735.288 0.498147 2.47537 0
M  V30 7904 C 736.601 2.98036 0.399372 0
M  V30 7905 C 738.149 3.09286 0.480759 0
M  V30 7906 C 738.624 4.5561 0.467296 0
M  V30 7907 N 740.115 4.60182 0.52786 0
M  V30 7908 C 740.85 5.70857 0.539388 0
M  V30 7909 N 740.346 6.90944 0.506729 0
M  V30 7910 N 742.139 5.59051 0.584691 0
M  V30 7911 H 734.29 1.96709 -0.801215 0
M  V30 7912 H 736.553 0.899639 -0.298922 0
M  V30 7913 H 736.259 3.47656 -0.531806 0
M  V30 7914 H 736.133 3.57066 1.21589 0
M  V30 7915 H 738.52 2.5965 1.40236 0
M  V30 7916 H 738.601 2.53197 -0.364023 0
M  V30 7917 H 738.245 5.05899 -0.450384 0
M  V30 7918 H 738.175 5.09544 1.32938 0
M  V30 7919 H 740.666 3.73757 0.558028 0
M  V30 7920 H 740.979 7.71055 0.518989 0
M  V30 7921 H 739.324 6.93384 0.473675 0
M  V30 7922 H 742.515 4.64138 0.607781 0
M  V30 7923 H 742.688 6.45307 0.590206 0
M  V30 7924 N 736.094 -0.359525 1.53444 0
M  V30 7925 C 737.041 -1.44073 1.8031 0
M  V30 7926 C 738.011 -1.52946 0.647811 0
M  V30 7927 O 739.196 -1.68739 0.890614 0
M  V30 7928 C 736.336 -2.80941 2.00416 0
M  V30 7929 C 735.449 -2.80986 3.28132 0
M  V30 7930 C 734.584 -4.09468 3.38393 0
M  V30 7931 C 733.623 -4.03679 4.60119 0
M  V30 7932 N 732.76 -5.23821 4.675 0
M  V30 7933 H 737.6 -1.20464 2.72566 0
M  V30 7934 H 735.137 -0.583859 1.35017 0
M  V30 7935 H 737.095 -3.60459 2.1006 0
M  V30 7936 H 735.725 -3.02936 1.11489 0
M  V30 7937 H 734.777 -1.93666 3.27411 0
M  V30 7938 H 736.089 -2.72583 4.17732 0
M  V30 7939 H 735.243 -4.97404 3.47382 0
M  V30 7940 H 733.982 -4.20632 2.4682 0
M  V30 7941 H 732.987 -3.14129 4.51224 0
M  V30 7942 H 734.212 -3.94112 5.5304 0
M  V30 7943 H 732.158 -5.35559 3.7883 0
M  V30 7944 H 732.075 -5.17611 5.51013 0
M  V30 7945 H 733.343 -6.13572 4.8078 0
M  V30 7946 N 737.572 -1.44907 -0.619662 0
M  V30 7947 C 738.504 -1.48652 -1.74457 0
M  V30 7948 C 739.517 -0.378596 -1.58337 0
M  V30 7949 O 740.706 -0.644987 -1.6644 0
M  V30 7950 C 737.806 -1.31568 -3.12319 0
M  V30 7951 C 736.979 -2.55816 -3.54792 0
M  V30 7952 C 736.038 -2.33465 -4.71573 0
M  V30 7953 O 735.064 -3.07015 -4.79302 0
M  V30 7954 N 736.266 -1.37254 -5.6404 0
M  V30 7955 H 739.031 -2.45632 -1.71712 0
M  V30 7956 H 736.592 -1.40492 -0.804582 0
M  V30 7957 H 738.584 -1.14445 -3.88181 0
M  V30 7958 H 737.154 -0.429095 -3.09641 0
M  V30 7959 H 736.374 -2.88137 -2.69018 0
M  V30 7960 H 737.662 -3.38431 -3.79924 0
M  V30 7961 H 737.06 -0.765309 -5.60499 0
M  V30 7962 H 735.617 -1.26106 -6.39485 0
M  V30 7963 N 739.05 0.861098 -1.31996 0
M  V30 7964 C 739.997 1.96912 -1.20392 0
M  V30 7965 C 740.967 1.65869 -0.0875899 0
M  V30 7966 O 742.152 1.88992 -0.262011 0
M  V30 7967 C 739.292 3.32435 -0.926335 0
M  V30 7968 C 738.405 3.76018 -2.12684 0
M  V30 7969 C 737.54 5.00301 -1.78529 0
M  V30 7970 C 736.579 5.36357 -2.94937 0
M  V30 7971 N 735.716 6.51818 -2.60917 0
M  V30 7972 H 740.556 2.06169 -2.1517 0
M  V30 7973 H 738.093 1.00917 -1.07024 0
M  V30 7974 H 740.051 4.10478 -0.745917 0
M  V30 7975 H 738.681 3.22796 -0.0153578 0
M  V30 7976 H 737.733 2.93683 -2.41774 0
M  V30 7977 H 739.045 3.98664 -2.99781 0
M  V30 7978 H 738.199 5.86034 -1.57001 0
M  V30 7979 H 736.938 4.79578 -0.886356 0
M  V30 7980 H 735.943 4.49139 -3.17103 0
M  V30 7981 H 737.168 5.59041 -3.85552 0
M  V30 7982 H 735.114 6.32624 -1.73558 0
M  V30 7983 H 735.031 6.7445 -3.41544 0
M  V30 7984 H 736.299 7.4072 -2.42804 0
M  V30 7985 N 740.528 1.15101 1.07655 0
M  V30 7986 C 741.438 0.858869 2.18313 0
M  V30 7987 C 742.454 -0.163641 1.73229 0
M  V30 7988 O 743.63 0.00969541 2.01398 0
M  V30 7989 C 740.695 0.34893 3.4494 0
M  V30 7990 C 739.756 1.43495 4.04608 0
M  V30 7991 C 738.989 0.949253 5.2519 0
M  V30 7992 O 739.212 -0.20636 5.70027 0
M  V30 7993 O 738.146 1.73161 5.76454 0
M  V30 7994 H 741.972 1.78386 2.45788 0
M  V30 7995 H 739.557 0.929876 1.16934 0
M  V30 7996 H 741.439 0.070851 4.2134 0
M  V30 7997 H 740.114 -0.548237 3.19024 0
M  V30 7998 H 739.021 1.7666 3.29761 0
M  V30 7999 H 740.354 2.30692 4.3479 0
M  V30 8000 N 742.006 -1.2595 0.947325 0
M  V30 8001 C 742.936 -2.28521 0.479604 0
M  V30 8002 C 743.917 -1.63469 -0.470293 0
M  V30 8003 O 745.102 -1.90627 -0.370824 0
M  V30 8004 C 742.232 -3.46397 -0.250289 0
M  V30 8005 C 741.186 -4.23578 0.613643 0
M  V30 8006 C 740.512 -5.34131 -0.246568 0
M  V30 8007 C 741.812 -4.86979 1.88809 0
M  V30 8008 H 743.506 -2.67895 1.33688 0
M  V30 8009 H 741.052 -1.28783 0.644274 0
M  V30 8010 H 743.005 -4.17269 -0.588576 0
M  V30 8011 H 741.729 -3.05993 -1.14175 0
M  V30 8012 H 740.388 -3.54478 0.93491 0
M  V30 8013 H 740.036 -4.89968 -1.13756 0
M  V30 8014 H 739.736 -5.86683 0.328123 0
M  V30 8015 H 741.26 -6.07839 -0.579986 0
M  V30 8016 H 742.674 -5.50034 1.61666 0
M  V30 8017 H 741.071 -5.49675 2.40784 0
M  V30 8018 H 742.141 -4.09575 2.5957 0
M  V30 8019 N 743.484 -0.715051 -1.40445 0
M  V30 8020 C 744.709 -0.26254 -2.05732 0
M  V30 8021 C 745.134 1.08691 -1.53519 0
M  V30 8022 O 744.492 1.68453 -0.670328 0
M  V30 8023 C 744.54 -0.25195 -3.59719 0
M  V30 8024 O 743.644 0.766998 -4.05205 0
M  V30 8025 H 742.985 -0.123398 -0.652433 0
M  V30 8026 H 745.515 -0.975382 -1.79854 0
M  V30 8027 H 745.525 -0.0894537 -4.07902 0
M  V30 8028 H 744.2 -1.23672 -3.97087 0
M  V30 8029 H 742.777 0.572269 -3.68483 0
M  V30 8030 N 744.962 1.50701 -0.461195 0
M  V30 8031 C 745.872 2.32069 0.343661 0
M  V30 8032 C 746.888 1.42016 1.00535 0
M  V30 8033 O 748.064 1.75077 0.995498 0
M  V30 8034 C 745.129 3.16424 1.41692 0
M  V30 8035 C 744.19 4.22286 0.772869 0
M  V30 8036 C 743.423 5.02609 1.79499 0
M  V30 8037 O 743.646 4.83874 3.0203 0
M  V30 8038 O 742.58 5.86047 1.3723 0
M  V30 8039 H 746.406 3.01996 -0.321268 0
M  V30 8040 H 743.991 1.47723 -0.223235 0
M  V30 8041 H 745.873 3.68795 2.03883 0
M  V30 8042 H 744.548 2.49236 2.0655 0
M  V30 8043 H 743.455 3.73931 0.112277 0
M  V30 8044 H 744.788 4.91915 0.167399 0
M  V30 8045 N 746.441 0.193421 1.56409 0
M  V30 8046 C 747.689 -0.444908 1.97142 0
M  V30 8047 C 748.01 -1.62268 1.08139 0
M  V30 8048 O 747.28 -1.95307 0.152326 0
M  V30 8049 H 745.86 -0.16736 0.728011 0
M  V30 8050 H 748.522 0.279763 1.92882 0
M  V30 8051 H 747.618 -0.790159 3.01932 0
M  V30 8052 N 747.919 -1.57396 -0.0801906 0
M  V30 8053 C 748.829 -2.06451 -1.11423 0
M  V30 8054 C 749.845 -0.992352 -1.42928 0
M  V30 8055 O 751.021 -1.30651 -1.53272 0
M  V30 8056 C 748.086 -2.49164 -2.41077 0
M  V30 8057 C 747.147 -3.70641 -2.16619 0
M  V30 8058 C 746.38 -4.11307 -3.40092 0
M  V30 8059 O 746.603 -3.51922 -4.48895 0
M  V30 8060 O 745.537 -5.04157 -3.288 0
M  V30 8061 H 749.363 -2.94857 -0.727519 0
M  V30 8062 H 746.948 -1.46484 -0.293743 0
M  V30 8063 H 748.83 -2.77196 -3.17396 0
M  V30 8064 H 747.505 -1.6389 -2.79145 0
M  V30 8065 H 746.412 -3.47703 -1.38033 0
M  V30 8066 H 747.745 -4.5674 -1.83437 0
M  V30 8067 N 749.397 0.351382 -1.53633 0
M  V30 8068 C 750.307 1.45471 -1.84052 0
M  V30 8069 C 751.323 1.57945 -0.730015 0
M  V30 8070 O 752.499 1.73571 -1.02153 0
M  V30 8071 C 749.564 2.80562 -2.03681 0
M  V30 8072 C 748.625 2.77497 -3.27558 0
M  V30 8073 C 747.858 4.06144 -3.46241 0
M  V30 8074 O 748.081 5.03028 -2.68922 0
M  V30 8075 O 747.015 4.11092 -4.39645 0
M  V30 8076 H 750.841 1.22684 -2.77817 0
M  V30 8077 H 748.426 0.542827 -1.3919 0
M  V30 8078 H 750.308 3.6058 -2.18082 0
M  V30 8079 H 748.983 3.03296 -1.13106 0
M  V30 8080 H 747.89 1.96126 -3.18568 0
M  V30 8081 H 749.223 2.59716 -4.18101 0
M  V30 8082 N 750.875 1.45233 0.611969 0
M  V30 8083 C 751.822 1.5357 1.72293 0
M  V30 8084 C 752.792 0.381912 1.6165 0
M  V30 8085 O 753.977 0.594765 1.81293 0
M  V30 8086 C 751.117 1.50419 3.10593 0
M  V30 8087 C 750.23 2.76316 3.32074 0
M  V30 8088 C 749.365 2.64866 4.60456 0
M  V30 8089 C 748.404 3.85838 4.7518 0
M  V30 8090 N 747.541 3.72949 5.94856 0
M  V30 8091 H 752.381 2.4848 1.64504 0
M  V30 8092 H 749.918 1.23302 0.802191 0
M  V30 8093 H 751.876 1.4658 3.90602 0
M  V30 8094 H 750.506 0.590621 3.17351 0
M  V30 8095 H 749.558 2.90261 2.45872 0
M  V30 8096 H 750.87 3.66055 3.38829 0
M  V30 8097 H 750.024 2.58969 5.48653 0
M  V30 8098 H 748.763 1.72719 4.56092 0
M  V30 8099 H 747.768 3.92099 3.85407 0
M  V30 8100 H 748.993 4.79045 4.81344 0
M  V30 8101 H 746.939 2.83567 5.91545 0
M  V30 8102 H 746.856 4.56319 6.02751 0
M  V30 8103 H 748.124 3.70976 6.85563 0
M  V30 8104 N 752.353 -0.854086 1.3245 0
M  V30 8105 C 753.601 -1.60513 1.228 0
M  V30 8106 C 753.922 -1.93865 -0.210073 0
M  V30 8107 O 753.192 -1.59673 -1.13496 0
M  V30 8108 H 751.772 -0.595099 0.451516 0
M  V30 8109 H 754.434 -1.0216 1.6598 0
M  V30 8110 H 753.53 -2.54182 1.81102 0
M  V30 8111 N 753.831 -1.1567 -1.07043 0
M  V30 8112 C 755.108 -0.843948 -1.76456 0
M  V30 8113 C 755.488 0.659806 -2.00524 0
M  V30 8114 O 754.836 1.60518 -1.62623 0
M  V30 8115 C 755.046 -1.65822 -3.0709 0
M  V30 8116 C 756.394 -1.8664 -3.8138 0
M  V30 8117 O 757.418 -1.62624 -3.1691 0
M  V30 8118 O 756.277 -2.26884 -4.97178 0
M  V30 8119 H 753.371 -0.310677 -0.766426 0
M  V30 8120 H 755.917 -1.26266 -1.1338 0
M  V30 8121 H 754.689 -2.67902 -2.85209 0
M  V30 8122 H 754.312 -1.23605 -3.77899 0
M  V30 8123 N 755.309 1.25446 -0.953992 0
M  V30 8124 C 756.72 1.75047 -0.649255 0
M  V30 8125 C 757.071 1.77527 0.835385 0
M  V30 8126 O 756.196 1.39569 1.65377 0
M  V30 8127 C 756.791 3.17889 -1.17183 0
M  V30 8128 C 755.35 3.65052 -0.917267 0
M  V30 8129 C 754.497 2.44124 -1.31525 0
M  V30 8130 H 757.448 1.11342 -1.13087 0
M  V30 8131 H 757.469 3.76768 -0.531616 0
M  V30 8132 H 756.981 3.16052 -2.25239 0
M  V30 8133 H 755.082 3.72305 0.148354 0
M  V30 8134 H 755.195 4.53222 -1.55328 0
M  V30 8135 H 753.559 2.43906 -0.733624 0
M  V30 8136 H 754.342 2.44979 -2.405 0
M  V30 8137 N 756.787 0.722489 1.40064 0
M  V30 8138 C 757.697 0.0755984 2.34478 0
M  V30 8139 C 758.713 -0.736046 1.57665 0
M  V30 8140 O 759.889 -0.667407 1.9002 0
M  V30 8141 C 756.954 -0.830075 3.36616 0
M  V30 8142 C 756.015 -0.00759884 4.29299 0
M  V30 8143 C 755.248 -0.870139 5.26559 0
M  V30 8144 O 755.471 -2.10921 5.2997 0
M  V30 8145 O 754.405 -0.305454 6.01124 0
M  V30 8146 H 758.231 0.854545 2.9143 0
M  V30 8147 H 755.816 0.483032 1.41376 0
M  V30 8148 H 757.698 -1.34864 3.99236 0
M  V30 8149 H 756.373 -1.58805 2.82069 0
M  V30 8150 H 755.28 0.556199 3.69942 0
M  V30 8151 H 756.613 0.712312 4.87018 0
M  V30 8152 N 758.265 -1.50454 0.469181 0
M  V30 8153 C 759.212 -2.28486 -0.325982 0
M  V30 8154 C 760.182 -1.33455 -0.988893 0
M  V30 8155 O 761.367 -1.6239 -1.0017 0
M  V30 8156 C 758.507 -3.15288 -1.40313 0
M  V30 8157 C 757.62 -4.25348 -0.755183 0
M  V30 8158 C 756.755 -4.9941 -1.81006 0
M  V30 8159 C 755.794 -6.01348 -1.14226 0
M  V30 8160 N 754.931 -6.68695 -2.1399 0
M  V30 8161 H 759.771 -2.95987 0.345753 0
M  V30 8162 H 757.308 -1.45965 0.182355 0
M  V30 8163 H 759.266 -3.63964 -2.03927 0
M  V30 8164 H 757.896 -2.49837 -2.04405 0
M  V30 8165 H 756.948 -3.80399 -0.00651901 0
M  V30 8166 H 758.26 -4.98279 -0.227941 0
M  V30 8167 H 757.414 -5.51794 -2.52206 0
M  V30 8168 H 756.153 -4.26181 -2.3711 0
M  V30 8169 H 755.158 -5.48225 -0.415876 0
M  V30 8170 H 756.383 -6.76548 -0.588135 0
M  V30 8171 H 754.329 -5.98258 -2.69115 0
M  V30 8172 H 754.246 -7.37495 -1.66246 0
M  V30 8173 H 755.514 -7.25697 -2.84576 0
M  V30 8174 N 759.743 -0.201713 -1.56304 0
M  V30 8175 C 760.989 0.435952 -1.98059 0
M  V30 8176 C 761.322 1.60811 -1.08873 0
M  V30 8177 O 760.597 1.9398 -0.142128 0
M  V30 8178 C 760.88 0.889706 -3.48936 0
M  V30 8179 C 760.733 -0.284725 -4.48898 0
M  V30 8180 C 762.052 1.7529 -4.03685 0
M  V30 8181 H 759.171 0.15699 -0.720085 0
M  V30 8182 H 761.813 -0.293965 -1.87712 0
M  V30 8183 H 759.963 1.51166 -3.57884 0
M  V30 8184 H 761.635 -0.922531 -4.51981 0
M  V30 8185 H 759.878 -0.935427 -4.23594 0
M  V30 8186 H 760.549 0.0753865 -5.51949 0
M  V30 8187 H 763.025 1.2283 -3.97558 0
M  V30 8188 H 761.901 2.03933 -5.0961 0
M  V30 8189 H 762.162 2.70939 -3.49348 0
M  V30 8190 N 761.222 1.57436 0.0718424 0
M  V30 8191 C 762.469 1.87248 0.771007 0
M  V30 8192 C 762.797 0.793441 1.7758 0
M  V30 8193 O 762.052 -0.210565 1.94564 0
M  V30 8194 C 762.351 3.23723 1.51455 0
M  V30 8195 C 762.017 4.46194 0.649736 0
M  V30 8196 C 760.679 4.79438 0.411409 0
M  V30 8197 C 763.031 5.21176 0.05004 0
M  V30 8198 C 760.359 5.85077 -0.436096 0
M  V30 8199 C 762.711 6.27712 -0.784919 0
M  V30 8200 C 761.375 6.59457 -1.03312 0
M  V30 8201 H 760.645 0.685188 0.282132 0
M  V30 8202 H 763.292 1.91474 0.0317896 0
M  V30 8203 H 761.597 3.15287 2.32597 0
M  V30 8204 H 763.294 3.44023 2.06031 0
M  V30 8205 H 759.884 4.20175 0.84562 0
M  V30 8206 H 764.068 4.95806 0.221282 0
M  V30 8207 H 759.324 6.08071 -0.637136 0
M  V30 8208 H 763.498 6.84974 -1.25635 0
M  V30 8209 H 761.125 7.4114 -1.6916 0
M  V30 8210 N 762.7 -0.34323 1.53817 0
M  V30 8211 C 763.647 -1.42153 1.81827 0
M  V30 8212 C 764.617 -1.52251 0.663996 0
M  V30 8213 O 765.802 -1.67784 0.908461 0
M  V30 8214 C 762.942 -2.78799 2.03384 0
M  V30 8215 C 762.055 -2.7749 3.31094 0
M  V30 8216 C 761.19 -4.05856 3.42717 0
M  V30 8217 C 760.229 -3.98776 4.64375 0
M  V30 8218 N 759.366 -5.18833 4.73029 0
M  V30 8219 H 764.206 -1.17567 2.73829 0
M  V30 8220 H 761.743 -0.569506 1.35628 0
M  V30 8221 H 763.701 -3.58211 2.13872 0
M  V30 8222 H 762.331 -3.01736 1.14696 0
M  V30 8223 H 761.383 -1.90182 3.29446 0
M  V30 8224 H 762.695 -2.68137 4.206 0
M  V30 8225 H 761.849 -4.93691 3.52638 0
M  V30 8226 H 760.588 -4.1799 2.51267 0
M  V30 8227 H 759.593 -3.09325 4.5453 0
M  V30 8228 H 760.818 -3.88224 5.57189 0
M  V30 8229 H 758.764 -5.31511 3.84489 0
M  V30 8230 H 758.681 -5.11737 5.56472 0
M  V30 8231 H 759.949 -6.08439 4.87261 0
M  V30 8232 N 764.178 -1.45556 -0.604258 0
M  V30 8233 C 765.403 -1.53509 -1.39462 0
M  V30 8234 C 765.828 -0.169638 -1.87333 0
M  V30 8235 O 765.186 0.846346 -1.60333 0
M  V30 8236 C 765.234 -2.52654 -2.5729 0
M  V30 8237 O 764.338 -2.04666 -3.5803 0
M  V30 8238 H 763.679 -0.517355 -0.416221 0
M  V30 8239 H 766.209 -1.90939 -0.735072 0
M  V30 8240 H 766.219 -2.71568 -3.04491 0
M  V30 8241 H 764.894 -3.51823 -2.21797 0
M  V30 8242 H 763.471 -1.95643 -3.17456 0
M  V30 8243 N 765.656 0.84705 -1.32902 0
M  V30 8244 C 766.566 1.98845 -1.2449 0
M  V30 8245 C 767.582 1.7329 -0.15702 0
M  V30 8246 O 768.758 1.978 -0.379104 0
M  V30 8247 C 765.823 3.32679 -0.975985 0
M  V30 8248 C 764.884 3.71405 -2.15306 0
M  V30 8249 C 764.117 4.98853 -1.89688 0
M  V30 8250 O 764.34 5.64134 -0.843168 0
M  V30 8251 O 763.274 5.34889 -2.76002 0
M  V30 8252 H 767.1 2.0888 -2.2046 0
M  V30 8253 H 764.685 0.978852 -1.12867 0
M  V30 8254 H 766.567 4.12885 -0.842826 0
M  V30 8255 H 765.242 3.23667 -0.0464954 0
M  V30 8256 H 764.149 2.91743 -2.34172 0
M  V30 8257 H 765.482 3.85073 -3.06561 0
M  V30 8258 N 767.134 1.16236 1.06428 0
M  V30 8259 C 768.359 0.967688 1.83441 0
M  V30 8260 C 768.784 -0.479167 1.81894 0
M  V30 8261 O 768.142 -1.34224 1.21875 0
M  V30 8262 C 768.19 1.49806 3.2801 0
M  V30 8263 O 767.294 0.703481 4.06356 0
M  V30 8264 H 766.635 0.344468 0.56766 0
M  V30 8265 H 769.165 1.54442 1.34197 0
M  V30 8266 H 769.175 1.51495 3.78831 0
M  V30 8267 H 767.85 2.55133 3.2845 0
M  V30 8268 H 766.427 0.756986 3.65136 0
M  V30 8269 N 768.612 -1.24939 0.960631 0
M  V30 8270 C 769.522 -2.29374 0.492435 0
M  V30 8271 C 770.538 -1.68262 -0.443154 0
M  V30 8272 O 771.714 -1.98875 -0.31793 0
M  V30 8273 C 768.779 -3.46023 -0.216626 0
M  V30 8274 C 767.84 -4.22557 0.757915 0
M  V30 8275 C 767.073 -5.33636 0.0825969 0
M  V30 8276 O 767.296 -5.59084 -1.13054 0
M  V30 8277 O 766.23 -5.96939 0.771177 0
M  V30 8278 H 770.056 -2.71525 1.36044 0
M  V30 8279 H 767.641 -1.30499 0.72735 0
M  V30 8280 H 769.523 -4.16885 -0.615241 0
M  V30 8281 H 768.198 -3.05862 -1.05971 0
M  V30 8282 H 767.105 -3.54099 1.20685 0
M  V30 8283 H 768.438 -4.66516 1.5692 0
M  V30 8284 N 770.09 -0.729906 -1.39679 0
M  V30 8285 C 771.367 -0.202149 -1.94553 0
M  V30 8286 C 771.747 1.29507 -1.66707 0
M  V30 8287 O 771.095 2.05819 -0.992517 0
M  V30 8288 C 771.305 -0.530279 -3.44948 0
M  V30 8289 C 772.653 -0.476808 -4.21914 0
M  V30 8290 O 773.677 -0.467171 -3.53123 0
M  V30 8291 O 772.536 -0.466869 -5.44502 0
M  V30 8292 H 769.63 -0.0351644 -0.826252 0
M  V30 8293 H 772.176 -0.808417 -1.49207 0
M  V30 8294 H 770.948 -1.56526 -3.5863 0
M  V30 8295 H 770.571 0.10522 -3.97461 0
M  V30 8296 N 771.568 1.50203 -0.477153 0
M  V30 8297 C 772.816 2.01959 0.0755889 0
M  V30 8298 C 773.137 1.3608 1.39668 0
M  V30 8299 O 772.407 0.508136 1.89195 0
M  V30 8300 H 770.987 0.74636 0.0309248 0
M  V30 8301 H 773.649 1.84473 -0.628959 0
M  V30 8302 H 772.745 3.11305 0.222683 0
M  V30 8303 N 773.046 0.209999 1.56195 0
M  V30 8304 C 773.979 -0.744546 2.15712 0
M  V30 8305 C 774.957 -1.19917 1.09812 0
M  V30 8306 O 776.141 -1.284 1.38006 0
M  V30 8307 C 773.268 -2.00733 2.72807 0
M  V30 8308 C 772.314 -1.69363 3.91431 0
M  V30 8309 S 773.147 -0.828579 5.29051 0
M  V30 8310 C 774.303 -2.10118 5.89577 0
M  V30 8311 H 774.536 -0.238636 2.96341 0
M  V30 8312 H 772.069 -0.00517877 1.54399 0
M  V30 8313 H 774.027 -2.73246 3.06344 0
M  V30 8314 H 772.688 -2.48436 1.92193 0
M  V30 8315 H 771.881 -2.63157 4.29842 0
M  V30 8316 H 771.483 -1.04921 3.58981 0
M  V30 8317 H 773.775 -3.05231 6.04847 0
M  V30 8318 H 774.718 -1.76116 6.85849 0
M  V30 8319 H 775.126 -2.23644 5.18308 0
M  V30 8320 N 774.524 -1.57472 -0.0634922 0
M  V30 8321 C 775.94 -1.54016 -0.418466 0
M  V30 8322 C 776.14 -0.931376 -1.78683 0
M  V30 8323 O 775.196 -0.537465 -2.46714 0
M  V30 8324 C 776.509 -2.98634 -0.351906 0
M  V30 8325 C 778.057 -3.10012 -0.431494 0
M  V30 8326 C 778.532 -4.56296 -0.394754 0
M  V30 8327 N 780.023 -4.60964 -0.454583 0
M  V30 8328 C 780.758 -5.71643 -0.448501 0
M  V30 8329 N 780.254 -6.91663 -0.396742 0
M  V30 8330 N 782.047 -5.5991 -0.495677 0
M  V30 8331 H 774.198 -1.95409 0.832408 0
M  V30 8332 H 776.461 -0.894769 0.313197 0
M  V30 8333 H 776.167 -3.46766 0.587048 0
M  V30 8334 H 776.041 -3.58955 -1.15893 0
M  V30 8335 H 778.428 -2.61848 -1.36087 0
M  V30 8336 H 778.509 -2.52585 0.404258 0
M  V30 8337 H 778.153 -5.05119 0.530811 0
M  V30 8338 H 778.083 -5.11594 -1.24815 0
M  V30 8339 H 780.574 -3.74598 -0.498496 0
M  V30 8340 H 780.887 -7.71783 -0.396256 0
M  V30 8341 H 779.232 -6.9405 -0.363304 0
M  V30 8342 H 782.423 -4.65046 -0.533864 0
M  V30 8343 H 782.596 -6.46164 -0.487469 0
M  V30 8344 N 776.003 0.335068 -1.53997 0
M  V30 8345 C 777.419 0.678704 -1.4445 0
M  V30 8346 C 777.619 1.92106 -0.608078 0
M  V30 8347 O 776.675 2.52292 -0.102373 0
M  V30 8348 C 777.988 0.863435 -2.88037 0
M  V30 8349 C 779.536 0.961513 -2.97866 0
M  V30 8350 C 780.011 1.1785 -4.42578 0
M  V30 8351 N 781.502 1.2455 -4.46141 0
M  V30 8352 C 782.237 1.43106 -5.55255 0
M  V30 8353 N 781.733 1.5878 -6.74359 0
M  V30 8354 N 783.526 1.45722 -5.42883 0
M  V30 8355 H 775.677 -0.481656 -2.06867 0
M  V30 8356 H 777.94 -0.153615 -0.935471 0
M  V30 8357 H 777.646 0.0219511 -3.51693 0
M  V30 8358 H 777.52 1.76268 -3.33481 0
M  V30 8359 H 779.907 1.79351 -2.34344 0
M  V30 8360 H 779.988 0.0389862 -2.5577 0
M  V30 8361 H 779.632 0.351397 -5.06683 0
M  V30 8362 H 779.562 2.11472 -4.82273 0
M  V30 8363 H 782.053 1.13928 -3.60318 0
M  V30 8364 H 782.366 1.72599 -7.53279 0
M  V30 8365 H 780.711 1.559 -6.77289 0
M  V30 8366 H 783.902 1.33065 -4.48789 0
M  V30 8367 H 784.075 1.59841 -6.27977 0
M  V30 8368 N 777.481 1.45874 0.596531 0
M  V30 8369 C 778.428 1.55389 1.70655 0
M  V30 8370 C 779.398 0.399036 1.61236 0
M  V30 8371 O 780.583 0.61396 1.80652 0
M  V30 8372 C 777.723 1.53705 3.0898 0
M  V30 8373 C 776.836 2.79823 3.29125 0
M  V30 8374 C 775.971 2.69735 4.5762 0
M  V30 8375 C 775.01 3.90856 4.71061 0
M  V30 8376 N 774.147 3.79237 5.90867 0
M  V30 8377 H 778.987 2.50211 1.61859 0
M  V30 8378 H 776.524 1.24146 0.789069 0
M  V30 8379 H 778.482 1.50715 3.89026 0
M  V30 8380 H 777.112 0.624247 3.16706 0
M  V30 8381 H 776.164 2.92852 2.42779 0
M  V30 8382 H 777.476 3.69628 3.34927 0
M  V30 8383 H 776.63 2.64773 5.45875 0
M  V30 8384 H 775.369 1.77547 4.54234 0
M  V30 8385 H 774.374 3.96164 3.81227 0
M  V30 8386 H 775.599 4.84124 4.76236 0
M  V30 8387 H 773.545 2.89825 5.88504 0
M  V30 8388 H 773.462 4.62686 5.97877 0
M  V30 8389 H 774.73 3.78227 6.8159 0
M  V30 8390 N 778.959 -0.83999 1.33349 0
M  V30 8391 C 779.922 -1.93128 1.23426 0
M  V30 8392 C 780.922 -1.60065 0.153599 0
M  V30 8393 O 782.112 -1.69425 0.405049 0
M  V30 8394 C 779.244 -3.28761 0.901622 0
M  V30 8395 H 780.437 -2.03352 2.20427 0
M  V30 8396 H 777.99 -1.03194 1.17391 0
M  V30 8397 H 778.725 -3.24233 -0.0659337 0
M  V30 8398 H 778.51 -3.54138 1.68311 0
M  V30 8399 H 780 -4.08714 0.856913 0
M  V30 8400 N 780.437 -1.16799 -1.0581 0
M  V30 8401 C 781.684 -0.952524 -1.78699 0
M  V30 8402 C 782.012 0.51931 -1.87439 0
M  V30 8403 O 781.267 1.40151 -1.36587 0
M  V30 8404 C 781.566 -1.53111 -3.22942 0
M  V30 8405 C 781.232 -3.0261 -3.34273 0
M  V30 8406 C 779.894 -3.43418 -3.37072 0
M  V30 8407 C 782.246 -3.98611 -3.35795 0
M  V30 8408 C 779.574 -4.78838 -3.39015 0
M  V30 8409 C 781.926 -5.33923 -3.39277 0
M  V30 8410 C 780.59 -5.74205 -3.40361 0
M  V30 8411 H 779.86 -0.348553 -0.653905 0
M  V30 8412 H 782.507 -1.45591 -1.244 0
M  V30 8413 H 780.812 -0.949286 -3.80126 0
M  V30 8414 H 782.509 -1.34002 -3.77948 0
M  V30 8415 H 779.099 -2.70075 -3.32803 0
M  V30 8416 H 783.283 -3.68146 -3.32839 0
M  V30 8417 H 778.539 -5.09369 -3.38161 0
M  V30 8418 H 782.713 -6.08094 -3.39403 0
M  V30 8419 H 780.34 -6.79117 -3.4162 0
M  V30 8420 N 781.915 1.24427 -0.967243 0
M  V30 8421 C 783.331 1.44684 -0.6737 0
M  V30 8422 C 783.531 1.86429 0.764625 0
M  V30 8423 O 782.587 2.00211 1.53857 0
M  V30 8424 C 783.9 2.509 -1.6574 0
M  V30 8425 C 785.448 2.64728 -1.66998 0
M  V30 8426 C 785.923 3.7414 -2.64165 0
M  V30 8427 N 787.414 3.81567 -2.62604 0
M  V30 8428 C 788.149 4.6575 -3.34462 0
M  V30 8429 N 787.645 5.54124 -4.15835 0
M  V30 8430 N 789.438 4.59827 -3.23288 0
M  V30 8431 H 781.589 0.956276 -1.89655 0
M  V30 8432 H 783.852 0.48171 -0.816492 0
M  V30 8433 H 783.558 2.27113 -2.68538 0
M  V30 8434 H 783.432 3.4905 -1.42981 0
M  V30 8435 H 785.819 2.87872 -0.649121 0
M  V30 8436 H 785.9 1.66936 -1.93819 0
M  V30 8437 H 785.544 3.51745 -3.66384 0
M  V30 8438 H 785.474 4.71444 -2.34623 0
M  V30 8439 H 787.965 3.18403 -2.03539 0
M  V30 8440 H 788.278 6.15316 -4.67553 0
M  V30 8441 H 786.623 5.53791 -4.19929 0
M  V30 8442 H 789.814 3.898 -2.59179 0
M  V30 8443 H 789.987 5.25208 -3.79553 0
M  V30 8444 N 783.393 0.737304 1.3929 0
M  V30 8445 C 784.323 0.113988 2.33222 0
M  V30 8446 C 785.304 -0.721695 1.54031 0
M  V30 8447 O 786.489 -0.666206 1.82415 0
M  V30 8448 C 783.619 -0.792319 3.38141 0
M  V30 8449 C 782.573 -0.0606178 4.27957 0
M  V30 8450 C 781.899 -1.08409 5.23595 0
M  V30 8451 C 783.199 1.09817 5.10625 0
M  V30 8452 H 784.893 0.898611 2.85596 0
M  V30 8453 H 782.439 0.433571 1.37318 0
M  V30 8454 H 784.392 -1.23793 4.02807 0
M  V30 8455 H 783.116 -1.60908 2.84211 0
M  V30 8456 H 781.775 0.365393 3.64775 0
M  V30 8457 H 781.423 -1.89449 4.6596 0
M  V30 8458 H 781.123 -0.599269 5.84536 0
M  V30 8459 H 782.647 -1.52936 5.91137 0
M  V30 8460 H 784.061 0.730892 5.68622 0
M  V30 8461 H 782.458 1.51278 5.80719 0
M  V30 8462 H 783.528 1.91878 4.45321 0
M  V30 8463 N 784.871 -1.49948 0.485112 0
M  V30 8464 C 786.282 -1.8667 0.0334041 0
M  V30 8465 C 786.633 -1.3988 -1.37579 0
M  V30 8466 O 785.758 -0.769788 -2.02245 0
M  V30 8467 C 786.353 -3.38757 0.0538426 0
M  V30 8468 C 784.912 -3.74839 -0.342453 0
M  V30 8469 C 784.059 -2.73894 0.433281 0
M  V30 8470 H 787.01 -1.42492 0.698699 0
M  V30 8471 H 787.031 -3.73132 -0.745146 0
M  V30 8472 H 786.543 -3.72782 1.07959 0
M  V30 8473 H 784.644 -3.46419 -1.37203 0
M  V30 8474 H 784.757 -4.79088 -0.0340503 0
M  V30 8475 H 783.121 -2.54441 -0.114849 0
M  V30 8476 H 783.904 -3.10763 1.45881 0
M  V30 8477 N 786.349 -0.21828 -1.56081 0
M  V30 8478 C 787.626 0.463143 -1.90038 0
M  V30 8479 C 788.006 1.77982 -1.13515 0
M  V30 8480 O 787.354 2.27199 -0.24345 0
M  V30 8481 C 787.564 0.659292 -3.42716 0
M  V30 8482 C 788.912 0.968203 -4.13414 0
M  V30 8483 O 789.936 0.746195 -3.48296 0
M  V30 8484 O 788.795 1.38936 -5.28544 0
M  V30 8485 H 785.889 0.244435 -0.790051 0
M  V30 8486 H 788.435 -0.260221 -1.67693 0
M  V30 8487 H 787.207 -0.269584 -3.9037 0
M  V30 8488 H 786.83 1.43426 -3.7083 0
M  V30 8489 N 787.827 1.57504 0.0551401 0
M  V30 8490 C 788.775 2.05884 1.08233 0
M  V30 8491 C 789.769 0.967383 1.39061 0
M  V30 8492 O 790.975 1.15242 1.38273 0
M  V30 8493 H 787.35 0.656673 0.366449 0
M  V30 8494 H 789.321 2.91273 0.648269 0
M  V30 8495 C 788.07 2.53221 2.38273 0
M  V30 8496 H 787.393 3.36809 2.15406 0
M  V30 8497 H 788.833 2.9081 3.08554 0
M  V30 8498 C 787.292 1.42218 3.05411 0
M  V30 8499 O 787.822 0.773638 3.9418 0
M  V30 8500 N 786.028 1.16316 2.66306 0
M  V30 8501 H 785.575 1.69237 1.94207 0
M  V30 8502 H 785.533 0.422534 3.11548 0
M  V30 8503 N 789.305 -0.326896 1.54172 0
M  V30 8504 C 790.721 -0.671034 1.44808 0
M  V30 8505 C 790.921 -1.91781 0.618258 0
M  V30 8506 O 789.977 -2.52235 0.115751 0
M  V30 8507 C 791.29 -0.848147 2.88491 0
M  V30 8508 C 792.838 -0.945702 2.98371 0
M  V30 8509 C 793.313 -1.15501 4.43197 0
M  V30 8510 N 794.804 -1.22183 4.46795 0
M  V30 8511 C 795.539 -1.4016 5.56006 0
M  V30 8512 N 795.035 -1.55202 6.75192 0
M  V30 8513 N 796.828 -1.42841 5.43648 0
M  V30 8514 H 788.979 0.49262 2.06608 0
M  V30 8515 H 791.242 0.158574 0.934643 0
M  V30 8516 H 790.948 -0.00329969 3.517 0
M  V30 8517 H 790.822 -1.74497 3.34411 0
M  V30 8518 H 793.209 -1.78106 2.35292 0
M  V30 8519 H 793.29 -0.0254215 2.55787 0
M  V30 8520 H 792.934 -0.324521 5.06862 0
M  V30 8521 H 792.864 -2.08911 4.83388 0
M  V30 8522 H 795.355 -1.12016 3.60917 0
M  V30 8523 H 795.668 -1.68601 7.54184 0
M  V30 8524 H 794.013 -1.52306 6.78106 0
M  V30 8525 H 797.204 -1.30683 4.49488 0
M  V30 8526 H 797.377 -1.56509 6.28816 0
M  V30 8527 N 790.784 -1.46188 -0.588786 0
M  V30 8528 C 792.033 -1.50452 -1.34339 0
M  V30 8529 C 792.346 -0.158096 -1.9496 0
M  V30 8530 O 793.552 -0.0784918 -2.71387 0
M  V30 8531 C 792.008 -2.65074 -2.43441 0
M  V30 8532 C 791.616 -4.06111 -1.8915 0
M  V30 8533 C 793.36 -2.78603 -3.20282 0
M  V30 8534 C 791.267 -5.12084 -2.95845 0
M  V30 8535 H 790.197 -0.559905 -0.504997 0
M  V30 8536 H 792.848 -1.72382 -0.629014 0
M  V30 8537 H 791.23 -2.36462 -3.1765 0
M  V30 8538 H 792.404 -4.44487 -1.21524 0
M  V30 8539 H 790.719 -3.97197 -1.24995 0
M  V30 8540 H 793.316 -3.54944 -3.99898 0
M  V30 8541 H 793.659 -1.85902 -3.72486 0
M  V30 8542 H 794.192 -3.06832 -2.53178 0
M  V30 8543 H 790.931 -6.06556 -2.48535 0
M  V30 8544 H 790.451 -4.78259 -3.61979 0
M  V30 8545 H 792.13 -5.37661 -3.59902 0
M  V30 8546 N 792.262 0.832906 -1.33792 0
M  V30 8547 C 793.51 1.58539 -1.25338 0
M  V30 8548 C 793.831 1.94175 0.179204 0
M  V30 8549 O 793.101 1.61458 1.10941 0
M  V30 8550 H 791.681 0.58784 -0.460926 0
M  V30 8551 H 794.343 0.995064 -1.67584 0
M  V30 8552 H 793.439 2.51268 -1.85123 0
M  V30 8553 N 793.74 1.17359 1.05189 0
M  V30 8554 C 795.156 0.920861 1.30355 0
M  V30 8555 C 795.356 -0.419993 1.97074 0
M  V30 8556 O 794.412 -1.15696 2.24434 0
M  V30 8557 C 795.725 2.07818 2.1733 0
M  V30 8558 C 797.273 2.1152 2.30712 0
M  V30 8559 C 797.748 3.26637 3.21048 0
M  V30 8560 N 799.239 3.26426 3.28634 0
M  V30 8561 C 799.974 4.12141 3.98657 0
M  V30 8562 N 799.47 5.07966 4.71107 0
M  V30 8563 N 801.263 4.00091 3.94821 0
M  V30 8564 H 793.414 2.03666 0.602821 0
M  V30 8565 H 795.677 0.889294 0.328421 0
M  V30 8566 H 795.383 3.04727 1.75597 0
M  V30 8567 H 795.257 2.02922 3.17966 0
M  V30 8568 H 797.644 1.15196 2.71687 0
M  V30 8569 H 797.725 2.20477 1.29706 0
M  V30 8570 H 797.369 4.23227 2.80788 0
M  V30 8571 H 797.299 3.14917 4.2206 0
M  V30 8572 H 799.79 2.57045 2.77013 0
M  V30 8573 H 800.103 5.69766 5.22099 0
M  V30 8574 H 798.448 5.11936 4.7005 0
M  V30 8575 H 801.639 3.24523 3.37346 0
M  V30 8576 H 801.812 4.6711 4.49123 0
M  V30 8577 N 795.218 -1.23913 0.973828 0
M  V30 8578 C 796.165 -2.25132 0.508366 0
M  V30 8579 C 797.135 -1.59908 -0.449307 0
M  V30 8580 O 798.32 -1.87405 -0.358313 0
M  V30 8581 C 795.46 -3.4458 -0.189422 0
M  V30 8582 C 794.573 -4.24381 0.807738 0
M  V30 8583 C 793.708 -5.31131 0.0854315 0
M  V30 8584 C 792.747 -6.02635 1.07225 0
M  V30 8585 N 791.884 -7.01073 0.379535 0
M  V30 8586 H 796.724 -2.64313 1.37632 0
M  V30 8587 H 794.261 -1.29924 0.689802 0
M  V30 8588 H 796.219 -4.12706 -0.610733 0
M  V30 8589 H 794.849 -3.06218 -1.02129 0
M  V30 8590 H 793.901 -3.55735 1.34747 0
M  V30 8591 H 795.213 -4.73778 1.55998 0
M  V30 8592 H 794.367 -6.05422 -0.393572 0
M  V30 8593 H 793.106 -4.82658 -0.699461 0
M  V30 8594 H 792.111 -5.27143 1.56207 0
M  V30 8595 H 793.336 -6.53197 1.85769 0
M  V30 8596 H 791.282 -6.54862 -0.386269 0
M  V30 8597 H 791.199 -7.48382 1.07054 0
M  V30 8598 H 792.467 -7.79462 -0.0772984 0
M  V30 8599 N 796.696 -0.74468 -1.38897 0
M  V30 8600 C 797.943 -0.296884 -2.00312 0
M  V30 8601 C 798.271 1.11878 -1.59102 0
M  V30 8602 O 797.526 1.7789 -0.815702 0
M  V30 8603 C 797.825 -0.357302 -3.55609 0
M  V30 8604 C 797.491 -1.72736 -4.16501 0
M  V30 8605 C 796.153 -2.10232 -4.32846 0
M  V30 8606 C 798.505 -2.62647 -4.50184 0
M  V30 8607 C 795.833 -3.3713 -4.80167 0
M  V30 8608 C 798.185 -3.88926 -4.98918 0
M  V30 8609 C 796.849 -4.26503 -5.1347 0
M  V30 8610 H 796.119 -0.108638 -0.732993 0
M  V30 8611 H 798.766 -0.953419 -1.66079 0
M  V30 8612 H 797.071 0.382805 -3.89925 0
M  V30 8613 H 798.768 0.0074596 -4.00999 0
M  V30 8614 H 795.358 -1.42585 -4.04187 0
M  V30 8615 H 799.542 -2.34945 -4.37166 0
M  V30 8616 H 794.798 -3.66174 -4.89619 0
M  V30 8617 H 798.972 -4.58745 -5.23952 0
M  V30 8618 H 796.599 -5.24896 -5.49898 0
M  V30 8619 N 798.174 1.49689 -0.493057 0
M  V30 8620 C 799.399 2.07331 0.0535114 0
M  V30 8621 C 799.824 1.35196 1.30781 0
M  V30 8622 O 799.182 0.406246 1.7669 0
M  V30 8623 C 799.23 3.59364 0.29825 0
M  V30 8624 O 798.334 3.88819 1.37454 0
M  V30 8625 H 797.675 0.663612 -0.0227018 0
M  V30 8626 H 800.205 1.926 -0.690402 0
M  V30 8627 H 800.215 4.04515 0.532159 0
M  V30 8628 H 798.89 4.1128 -0.618207 0
M  V30 8629 H 797.467 3.55487 1.12621 0
M  V30 8630 N 799.652 0.226554 1.55963 0
M  V30 8631 C 800.901 -0.40417 1.97609 0
M  V30 8632 C 801.214 -1.60541 1.1174 0
M  V30 8633 O 802.42 -2.30598 1.43307 0
M  V30 8634 C 800.876 -0.770466 3.51556 0
M  V30 8635 C 800.484 0.408244 4.46136 0
M  V30 8636 C 802.228 -1.36651 4.01904 0
M  V30 8637 C 800.135 0.0192347 5.91397 0
M  V30 8638 H 799.065 -0.15478 0.737943 0
M  V30 8639 H 801.716 0.323558 1.80625 0
M  V30 8640 H 800.098 -1.55575 3.6416 0
M  V30 8641 H 801.272 1.18575 4.45283 0
M  V30 8642 H 799.587 0.917859 4.06158 0
M  V30 8643 H 802.184 -1.67055 5.07934 0
M  V30 8644 H 802.527 -2.28403 3.48049 0
M  V30 8645 H 803.06 -0.644556 3.92543 0
M  V30 8646 H 799.799 0.90336 6.49245 0
M  V30 8647 H 799.319 -0.722485 5.95433 0
M  V30 8648 H 800.998 -0.405711 6.45727 0
M  V30 8649 N 801.13 -1.57531 -0.0467866 0
M  V30 8650 C 802.063 -2.00734 -1.08541 0
M  V30 8651 C 803.041 -0.888508 -1.36177 0
M  V30 8652 O 804.225 -1.1529 -1.49132 0
M  V30 8653 C 801.352 -2.36535 -2.42423 0
M  V30 8654 C 800.398 -3.58681 -2.3076 0
M  V30 8655 S 801.231 -5.08536 -1.67785 0
M  V30 8656 C 802.387 -5.47562 -3.03194 0
M  V30 8657 H 802.62 -2.88516 -0.717345 0
M  V30 8658 H 800.153 -1.5226 -0.256181 0
M  V30 8659 H 802.111 -2.57834 -3.19424 0
M  V30 8660 H 800.772 -1.49236 -2.76382 0
M  V30 8661 H 799.965 -3.81329 -3.29552 0
M  V30 8662 H 799.567 -3.37142 -1.61899 0
M  V30 8663 H 801.859 -5.47163 -3.99524 0
M  V30 8664 H 802.802 -6.48082 -2.85299 0
M  V30 8665 H 803.21 -4.75042 -3.04951 0
M  V30 8666 N 802.608 0.318715 -1.54344 0
M  V30 8667 C 803.556 1.41254 -1.84798 0
M  V30 8668 C 804.55 1.53325 -0.720256 0
M  V30 8669 O 805.756 1.55653 -0.903992 0
M  V30 8670 H 802.131 0.471468 -0.585851 0
M  V30 8671 H 804.102 1.12795 -2.7626 0
M  V30 8672 C 802.851 2.77395 -2.09637 0
M  V30 8673 H 802.174 2.68881 -2.95876 0
M  V30 8674 H 803.614 3.52987 -2.34896 0
M  V30 8675 C 802.073 3.24948 -0.889398 0
M  V30 8676 O 802.603 4.01573 -0.101063 0
M  V30 8677 N 800.809 2.82051 -0.699684 0
M  V30 8678 H 800.356 2.19858 -1.3424 0
M  V30 8679 H 800.314 3.1422 0.106368 0
M  V30 8680 N 804.086 1.46499 0.581025 0
M  V30 8681 C 805.018 1.53225 1.70455 0
M  V30 8682 C 806.031 0.420443 1.57277 0
M  V30 8683 O 807.22 0.688888 1.64671 0
M  V30 8684 C 804.32 1.39803 3.08721 0
M  V30 8685 C 803.493 2.65132 3.47884 0
M  V30 8686 C 802.552 2.45886 4.65217 0
M  V30 8687 O 801.578 3.19615 4.70993 0
M  V30 8688 N 802.78 1.5216 5.60203 0
M  V30 8689 H 805.545 2.50098 1.65139 0
M  V30 8690 H 803.106 1.42576 0.76705 0
M  V30 8691 H 805.098 1.24697 3.8501 0
M  V30 8692 H 803.668 0.51104 3.08394 0
M  V30 8693 H 802.888 2.95169 2.61284 0
M  V30 8694 H 804.176 3.48385 3.70817 0
M  V30 8695 H 803.574 0.913646 5.58273 0
M  V30 8696 H 802.131 1.43017 6.35916 0
M  V30 8697 N 805.565 -0.825799 1.34232 0
M  V30 8698 C 806.79 -1.61883 1.29648 0
M  V30 8699 C 807.215 -1.87669 -0.127295 0
M  V30 8700 O 806.573 -1.45016 -1.08813 0
M  V30 8701 C 806.621 -2.93846 2.09014 0
M  V30 8702 O 805.725 -3.85778 1.4577 0
M  V30 8703 H 805.066 -0.492454 0.445405 0
M  V30 8704 H 807.596 -1.02641 1.76992 0
M  V30 8705 H 807.606 -3.43435 2.20264 0
M  V30 8706 H 806.281 -2.74401 3.12533 0
M  V30 8707 H 804.858 -3.4429 1.43245 0
M  V30 8708 N 807.043 -1.17915 -1.04565 0
M  V30 8709 C 807.973 -0.925033 -2.14395 0
M  V30 8710 C 808.954 0.135375 -1.6956 0
M  V30 8711 O 810.139 -0.0161774 -1.94193 0
M  V30 8712 C 807.269 -0.444469 -3.44444 0
M  V30 8713 C 806.223 -1.44478 -4.02877 0
M  V30 8714 C 805.549 -0.821933 -5.28345 0
M  V30 8715 C 806.849 -2.81995 -4.39632 0
M  V30 8716 H 808.543 -1.84354 -2.35911 0
M  V30 8717 H 806.089 -0.887806 -1.13375 0
M  V30 8718 H 808.042 -0.254078 -4.20633 0
M  V30 8719 H 806.766 0.509592 -3.226 0
M  V30 8720 H 805.425 -1.62203 -3.28764 0
M  V30 8721 H 805.073 0.139161 -5.02807 0
M  V30 8722 H 804.773 -1.48976 -5.68401 0
M  V30 8723 H 806.297 -0.641959 -6.07216 0
M  V30 8724 H 807.711 -2.67952 -5.06828 0
M  V30 8725 H 806.108 -3.45414 -4.90723 0
M  V30 8726 H 807.178 -3.35927 -3.49687 0
M  V30 8727 N 808.521 1.23394 -0.980386 0
M  V30 8728 C 809.451 2.2717 -0.540024 0
M  V30 8729 C 810.432 1.64659 0.426787 0
M  V30 8730 O 811.617 1.91543 0.320153 0
M  V30 8731 C 808.747 3.46939 0.15836 0
M  V30 8732 C 807.701 4.21802 -0.725732 0
M  V30 8733 C 807.027 5.34597 0.104866 0
M  V30 8734 C 808.327 4.81802 -2.01654 0
M  V30 8735 H 810.021 2.64257 -1.40743 0
M  V30 8736 H 807.567 1.2703 -0.678193 0
M  V30 8737 H 809.52 4.18683 0.477737 0
M  V30 8738 H 808.244 3.08912 1.06022 0
M  V30 8739 H 806.903 3.51875 -1.02857 0
M  V30 8740 H 806.551 4.92812 1.00726 0
M  V30 8741 H 806.251 5.85607 -0.483557 0
M  V30 8742 H 807.775 6.09163 0.418624 0
M  V30 8743 H 809.189 5.45554 -1.76193 0
M  V30 8744 H 807.586 5.43098 -2.55273 0
M  V30 8745 H 808.656 4.02549 -2.70338 0
M  V30 8746 N 809.999 0.752036 1.385 0
M  V30 8747 C 811.224 0.316993 2.04963 0
M  V30 8748 C 811.649 -1.04582 1.56346 0
M  V30 8749 O 811.007 -1.66616 0.714755 0
M  V30 8750 C 811.055 0.347235 3.58924 0
M  V30 8751 O 810.159 -0.659296 4.07096 0
M  V30 8752 H 809.5 0.140652 0.648932 0
M  V30 8753 H 812.03 1.02272 1.77205 0
M  V30 8754 H 812.04 0.19757 4.07521 0
M  V30 8755 H 810.715 1.34157 3.93668 0
M  V30 8756 H 809.292 -0.474371 3.6987 0
M  V30 8757 N 811.477 -1.49425 0.500989 0
M  V30 8758 C 812.726 -2.01649 -0.04538 0
M  V30 8759 C 813.039 -1.38572 -1.38047 0
M  V30 8760 O 814.245 -1.82124 -2.01353 0
M  V30 8761 C 812.701 -3.5966 -0.131337 0
M  V30 8762 C 812.309 -4.3171 1.19711 0
M  V30 8763 C 814.053 -4.19828 -0.628071 0
M  V30 8764 C 811.96 -5.81579 1.07332 0
M  V30 8765 H 810.89 -0.753715 -0.0207329 0
M  V30 8766 H 813.541 -1.71962 0.640407 0
M  V30 8767 H 811.923 -3.86063 -0.881574 0
M  V30 8768 H 813.097 -4.17008 1.96064 0
M  V30 8769 H 811.412 -3.83286 1.62729 0
M  V30 8770 H 814.009 -5.2958 -0.738198 0
M  V30 8771 H 814.352 -3.83194 -1.6269 0
M  V30 8772 H 814.885 -3.97746 0.0656314 0
M  V30 8773 H 811.624 -6.22738 2.04642 0
M  V30 8774 H 811.144 -5.98774 0.350679 0
M  V30 8775 H 812.823 -6.42614 0.752047 0
M  V30 8776 N 812.955 -0.234822 -1.55841 0
M  V30 8777 C 814.366 0.270588 -1.84729 0
M  V30 8778 C 814.717 1.58494 -1.15646 0
M  V30 8779 O 813.842 2.12071 -0.430667 0
M  V30 8780 C 814.437 0.497733 -3.35124 0
M  V30 8781 C 812.996 0.947428 -3.64281 0
M  V30 8782 C 812.143 0.01787 -2.77294 0
M  V30 8783 H 815.094 -0.457691 -1.51957 0
M  V30 8784 H 815.115 1.34199 -3.56049 0
M  V30 8785 H 814.627 -0.459037 -3.85376 0
M  V30 8786 H 812.728 1.91709 -3.19497 0
M  V30 8787 H 812.841 0.812651 -4.72158 0
M  V30 8788 H 811.205 0.527071 -2.49187 0
M  V30 8789 H 811.988 -0.934056 -3.30349 0
M  V30 8790 N 814.433 1.57553 0.0384317 0
M  V30 8791 C 815.681 1.88468 0.729672 0
M  V30 8792 C 816.002 0.831302 1.76393 0
M  V30 8793 O 815.272 -0.13622 1.95426 0
M  V30 8794 H 813.852 0.695529 0.272485 0
M  V30 8795 H 816.514 1.94899 0.0066032 0
M  V30 8796 H 815.61 2.8705 1.22511 0
M  V30 8797 N 815.911 -0.310526 1.54511 0
M  V30 8798 C 817.136 -1.07046 1.7764 0
M  V30 8799 C 817.561 -1.80488 0.529696 0
M  V30 8800 O 816.919 -1.73702 -0.519361 0
M  V30 8801 C 816.967 -2.03411 2.97752 0
M  V30 8802 O 816.071 -3.11545 2.7021 0
M  V30 8803 H 815.412 -0.307994 0.588248 0
M  V30 8804 H 817.942 -0.350848 2.01569 0
M  V30 8805 H 817.952 -2.46048 3.2546 0
M  V30 8806 H 816.627 -1.49361 3.88155 0
M  V30 8807 H 815.204 -2.7349 2.53491 0
M  V30 8808 N 817.389 -1.46805 -0.573248 0
M  V30 8809 C 818.8 -1.46655 -1.15539 0
M  V30 8810 C 819.151 -0.2125 -1.95046 0
M  V30 8811 O 818.276 0.683759 -2.05314 0
M  V30 8812 C 818.871 -2.65711 -2.10198 0
M  V30 8813 C 817.43 -2.68572 -2.63716 0
M  V30 8814 C 816.577 -2.39498 -1.39772 0
M  V30 8815 H 819.528 -1.54547 -0.36068 0
M  V30 8816 H 819.549 -2.41768 -2.93817 0
M  V30 8817 H 819.061 -3.56967 -1.52303 0
M  V30 8818 H 817.162 -1.81414 -3.25453 0
M  V30 8819 H 817.275 -3.68809 -3.05805 0
M  V30 8820 H 815.639 -1.89749 -1.69904 0
M  V30 8821 H 816.422 -3.32942 -0.836943 0
M  V30 8822 N 818.867 0.818669 -1.34668 0
M  V30 8823 C 820.114 1.57512 -1.27264 0
M  V30 8824 C 820.442 1.93871 0.156254 0
M  V30 8825 O 819.697 1.60582 1.11857 0
M  V30 8826 C 819.996 2.88245 -2.11304 0
M  V30 8827 C 819.662 2.71159 -3.60255 0
M  V30 8828 C 818.324 2.66207 -4.00858 0
M  V30 8829 C 820.676 2.54538 -4.54819 0
M  V30 8830 C 818.004 2.4256 -5.34211 0
M  V30 8831 C 820.356 2.32421 -5.88356 0
M  V30 8832 C 819.02 2.25884 -6.28118 0
M  V30 8833 H 818.29 0.576378 -0.465692 0
M  V30 8834 H 820.937 0.9469 -1.66451 0
M  V30 8835 H 819.242 3.55381 -1.64958 0
M  V30 8836 H 820.939 3.45869 -2.02919 0
M  V30 8837 H 817.529 2.75856 -3.28027 0
M  V30 8838 H 821.713 2.57384 -4.24343 0
M  V30 8839 H 816.969 2.35959 -5.64033 0
M  V30 8840 H 821.143 2.18548 -6.61218 0
M  V30 8841 H 818.77 2.07322 -7.31383 0
M  V30 8842 N 820.346 1.18468 1.03938 0
M  V30 8843 C 821.276 0.936389 2.13902 0
M  V30 8844 C 822.257 -0.126381 1.6963 0
M  V30 8845 O 823.442 0.0264757 1.94182 0
M  V30 8846 C 820.572 0.462729 3.44204 0
M  V30 8847 C 819.526 1.46613 4.02105 0
M  V30 8848 C 818.852 0.84994 5.27902 0
M  V30 8849 C 820.152 2.84323 4.3813 0
M  V30 8850 H 821.846 1.85602 2.3493 0
M  V30 8851 H 819.392 0.893806 1.12903 0
M  V30 8852 H 821.345 0.276382 4.20493 0
M  V30 8853 H 820.069 -0.492477 3.22866 0
M  V30 8854 H 818.728 1.63944 3.27899 0
M  V30 8855 H 818.376 -0.112493 5.02874 0
M  V30 8856 H 818.076 1.51988 5.67603 0
M  V30 8857 H 819.6 0.674152 6.06867 0
M  V30 8858 H 821.014 2.70636 5.054 0
M  V30 8859 H 819.411 3.48012 4.88884 0
M  V30 8860 H 820.481 3.37776 3.47901 0
M  V30 8861 N 821.824 -1.22873 0.986916 0
M  V30 8862 C 823.049 -1.96028 0.677341 0
M  V30 8863 C 823.474 -1.72487 -0.750319 0
M  V30 8864 O 822.832 -1.00036 -1.51203 0
M  V30 8865 C 822.88 -3.46983 0.981593 0
M  V30 8866 O 821.984 -4.12328 0.0770729 0
M  V30 8867 H 821.325 -0.613458 0.254096 0
M  V30 8868 H 823.855 -1.56132 1.32227 0
M  V30 8869 H 823.865 -3.9747 0.920969 0
M  V30 8870 H 822.54 -3.63442 2.02194 0
M  V30 8871 H 821.117 -3.72402 0.192666 0
M  V30 8872 N 823.302 -0.75937 -1.38099 0
M  V30 8873 C 824.718 -0.437606 -1.53483 0
M  V30 8874 C 824.918 1.04849 -1.72072 0
M  V30 8875 O 823.974 1.83448 -1.73502 0
M  V30 8876 C 825.287 -1.24189 -2.73857 0
M  V30 8877 C 826.835 -1.23255 -2.8771 0
M  V30 8878 C 827.31 -2.01992 -4.11051 0
M  V30 8879 N 828.801 -1.99282 -4.1814 0
M  V30 8880 C 829.536 -2.56996 -5.12583 0
M  V30 8881 N 829.032 -3.23446 -6.12662 0
M  V30 8882 N 830.825 -2.46894 -5.04975 0
M  V30 8883 H 822.976 -1.72242 -1.24283 0
M  V30 8884 H 825.239 -0.730507 -0.604205 0
M  V30 8885 H 824.945 -2.29449 -2.66545 0
M  V30 8886 H 824.819 -0.862672 -3.67203 0
M  V30 8887 H 827.206 -0.187988 -2.94501 0
M  V30 8888 H 827.287 -1.65132 -1.95359 0
M  V30 8889 H 826.931 -3.06462 -4.05023 0
M  V30 8890 H 826.861 -1.57505 -5.02494 0
M  V30 8891 H 829.352 -1.50893 -3.46467 0
M  V30 8892 H 829.665 -3.6489 -6.81231 0
M  V30 8893 H 828.01 -3.27543 -6.12977 0
M  V30 8894 H 831.201 -1.94604 -4.25731 0
M  V30 8895 H 831.374 -2.92168 -5.78396 0
M  V30 8896 N 824.78 1.49157 -0.508906 0
M  V30 8897 C 825.73 2.26215 0.284705 0
M  V30 8898 C 826.714 1.31401 0.928586 0
M  V30 8899 O 827.906 1.56073 0.834877 0
M  V30 8900 C 825.035 3.15906 1.34382 0
M  V30 8901 C 824.121 4.18186 0.705785 0
M  V30 8902 N 824.512 5.05419 -0.196214 0
M  V30 8903 C 822.81 4.35425 0.965457 0
M  V30 8904 C 823.511 5.78977 -0.562222 0
M  V30 8905 N 822.487 5.43553 0.0717389 0
M  V30 8906 H 826.289 2.91033 -0.409543 0
M  V30 8907 H 823.803 1.59104 -0.325508 0
M  V30 8908 H 825.8 3.6975 1.92589 0
M  V30 8909 H 824.46 2.52642 2.03966 0
M  V30 8910 H 825.471 5.14781 -0.567526 0
M  V30 8911 H 822.148 3.83363 1.65346 0
M  V30 8912 H 823.538 6.59192 -1.30062 0
M  V30 8913 N 826.258 0.243083 1.55714 0
M  V30 8914 C 827.206 -0.674349 2.2261 0
M  V30 8915 C 828.2 -1.18307 1.21243 0
M  V30 8916 O 829.406 -1.1404 1.39265 0
M  V30 8917 H 825.781 -0.235941 0.714028 0
M  V30 8918 H 827.752 -0.0869446 2.98273 0
M  V30 8919 C 826.501 -1.86206 2.93637 0
M  V30 8920 H 825.824 -1.47975 3.71407 0
M  V30 8921 H 827.264 -2.4813 3.43813 0
M  V30 8922 C 825.723 -2.73084 1.97298 0
M  V30 8923 O 826.253 -3.72497 1.50361 0
M  V30 8924 N 824.459 -2.39571 1.64482 0
M  V30 8925 H 824.006 -1.5878 2.02846 0
M  V30 8926 H 823.964 -2.97976 1.00288 0
M  V30 8927 N 827.736 -1.57571 -0.0300757 0
M  V30 8928 C 828.961 -1.93879 -0.736601 0
M  V30 8929 C 829.386 -0.842998 -1.68152 0
M  V30 8930 O 828.744 0.20135 -1.80178 0
M  V30 8931 C 828.792 -3.29247 -1.47066 0
M  V30 8932 O 827.896 -3.21426 -2.58378 0
M  V30 8933 H 827.237 -0.633735 -0.198181 0
M  V30 8934 H 829.767 -2.04595 0.0141485 0
M  V30 8935 H 829.777 -3.64113 -1.84081 0
M  V30 8936 H 828.452 -4.08565 -0.77764 0
M  V30 8937 H 827.029 -2.98189 -2.23914 0
M  V30 8938 N 829.214 0.302327 -1.54673 0
M  V30 8939 C 830.161 1.37282 -1.85532 0
M  V30 8940 C 831.131 1.50437 -0.704129 0
M  V30 8941 O 832.316 1.65317 -0.952627 0
M  V30 8942 C 829.456 2.73309 -2.10704 0
M  V30 8943 C 828.569 2.68614 -3.38335 0
M  V30 8944 C 827.704 3.96626 -3.53357 0
M  V30 8945 C 826.743 3.86324 -4.74784 0
M  V30 8946 N 825.88 5.06109 -4.86619 0
M  V30 8947 H 830.72 1.10265 -2.76849 0
M  V30 8948 H 828.257 0.533346 -1.37091 0
M  V30 8949 H 830.215 3.52414 -2.23294 0
M  V30 8950 H 828.845 2.98589 -1.22656 0
M  V30 8951 H 827.897 1.81381 -3.34373 0
M  V30 8952 H 829.209 2.56891 -4.27561 0
M  V30 8953 H 828.363 4.84168 -3.65604 0
M  V30 8954 H 827.102 4.11182 -2.62261 0
M  V30 8955 H 826.107 2.97166 -4.62572 0
M  V30 8956 H 827.332 3.73315 -5.67286 0
M  V30 8957 H 825.278 5.2113 -3.98446 0
M  V30 8958 H 825.195 4.96804 -5.69844 0
M  V30 8959 H 826.463 5.95306 -5.03221 0
M  V30 8960 N 830.692 1.47107 0.565454 0
M  V30 8961 C 831.917 1.57153 1.35343 0
M  V30 8962 C 832.342 0.219247 1.86818 0
M  V30 8963 O 831.7 -0.803539 1.62521 0
M  V30 8964 C 831.748 2.59387 2.50501 0
M  V30 8965 O 830.852 2.14086 3.52478 0
M  V30 8966 H 830.193 0.528209 0.402357 0
M  V30 8967 H 832.723 1.92821 0.684189 0
M  V30 8968 H 832.733 2.79546 2.97184 0
M  V30 8969 H 831.408 3.57579 2.12391 0
M  V30 8970 H 829.985 2.03991 3.12157 0
M  V30 8971 N 832.17 -0.811516 1.35101 0
M  V30 8972 C 833.395 -1.60499 1.31358 0
M  V30 8973 C 833.82 -1.87793 -0.107383 0
M  V30 8974 O 833.178 -1.46161 -1.07268 0
M  V30 8975 C 833.226 -2.91612 2.12119 0
M  V30 8976 O 832.33 -3.84211 1.49853 0
M  V30 8977 H 831.671 -0.487702 0.450603 0
M  V30 8978 H 834.201 -1.00758 1.7807 0
M  V30 8979 H 834.211 -3.4108 2.23894 0
M  V30 8980 H 832.886 -2.71071 3.15426 0
M  V30 8981 H 831.463 -3.42751 1.46889 0
M  V30 8982 N 833.648 -1.19017 -1.03309 0
M  V30 8983 C 834.897 -0.984542 -1.76039 0
M  V30 8984 C 835.21 0.485937 -1.89468 0
M  V30 8985 O 836.416 0.810278 -2.59127 0
M  V30 8986 C 834.872 -1.71261 -3.1654 0
M  V30 8987 C 834.48 -3.22291 -3.11179 0
M  V30 8988 C 836.224 -1.59007 -3.93595 0
M  V30 8989 C 834.131 -3.87704 -4.46587 0
M  V30 8990 H 833.061 -0.364749 -0.659905 0
M  V30 8991 H 835.712 -1.4247 -1.15649 0
M  V30 8992 H 834.094 -1.20025 -3.77373 0
M  V30 8993 H 835.268 -3.80611 -2.59753 0
M  V30 8994 H 833.583 -3.34772 -2.47622 0
M  V30 8995 H 836.18 -2.05232 -4.93745 0
M  V30 8996 H 836.523 -0.543534 -4.12736 0
M  V30 8997 H 837.056 -2.07564 -3.39355 0
M  V30 8998 H 833.795 -4.92437 -4.3265 0
M  V30 8999 H 833.315 -3.34172 -4.98085 0
M  V30 9000 H 834.994 -3.91008 -5.15482 0
M  V30 9001 N 835.127 1.22348 -0.993418 0
M  V30 9002 C 836.374 1.9111 -0.669568 0
M  V30 9003 C 836.702 1.77357 0.79843 0
M  V30 9004 O 835.957 1.13675 1.593 0
M  V30 9005 C 836.256 3.42477 -1.02197 0
M  V30 9006 C 835.922 3.7642 -2.48232 0
M  V30 9007 C 834.584 3.85395 -2.88139 0
M  V30 9008 C 836.936 3.9253 -3.42884 0
M  V30 9009 C 834.264 4.07918 -4.21687 0
M  V30 9010 C 836.616 4.16557 -4.76091 0
M  V30 9011 C 835.28 4.23757 -5.15739 0
M  V30 9012 H 834.55 0.699321 -0.245012 0
M  V30 9013 H 837.197 1.45102 -1.2497 0
M  V30 9014 H 835.502 3.90143 -0.359921 0
M  V30 9015 H 837.199 3.93935 -0.74942 0
M  V30 9016 H 833.789 3.70017 -2.16299 0
M  V30 9017 H 837.973 3.84974 -3.13224 0
M  V30 9018 H 833.229 4.11719 -4.51993 0
M  V30 9019 H 837.403 4.27966 -5.4938 0
M  V30 9020 H 835.03 4.40962 -6.19239 0
M  V30 9021 N 836.605 0.766683 1.37694 0
M  V30 9022 C 837.83 0.338715 2.04615 0
M  V30 9023 C 838.255 -1.02918 1.57447 0
M  V30 9024 O 837.613 -1.65849 0.732386 0
M  V30 9025 C 837.661 0.385284 3.58536 0
M  V30 9026 O 836.765 -0.616081 4.07772 0
M  V30 9027 H 836.106 0.147527 0.647404 0
M  V30 9028 H 838.636 1.04146 1.7611 0
M  V30 9029 H 838.646 0.240782 4.07289 0
M  V30 9030 H 837.321 1.38325 3.92223 0
M  V30 9031 H 835.898 -0.435115 3.70353 0
M  V30 9032 N 838.083 -1.48885 0.516809 0
M  V30 9033 C 839.33 -2.02488 -0.0220602 0
M  V30 9034 C 839.658 -1.39513 -1.35523 0
M  V30 9035 O 838.913 -0.52558 -1.8851 0
M  V30 9036 C 839.212 -3.56801 -0.206798 0
M  V30 9037 C 838.878 -4.38496 1.05035 0
M  V30 9038 C 837.54 -4.60538 1.39492 0
M  V30 9039 C 839.892 -4.85909 1.88525 0
M  V30 9040 C 837.22 -5.2724 2.57361 0
M  V30 9041 C 839.572 -5.53909 3.05561 0
M  V30 9042 C 838.236 -5.74193 3.4038 0
M  V30 9043 H 837.506 -0.740956 -0.00807238 0
M  V30 9044 H 840.153 -1.79014 0.680168 0
M  V30 9045 H 838.458 -3.79042 -0.991687 0
M  V30 9046 H 840.155 -3.95885 -0.638447 0
M  V30 9047 H 836.745 -4.2159 0.771984 0
M  V30 9048 H 840.929 -4.68694 1.63218 0
M  V30 9049 H 836.185 -5.41145 2.84556 0
M  V30 9050 H 840.359 -5.89619 3.7057 0
M  V30 9051 H 837.986 -6.25652 4.31814 0
M  V30 9052 N 839.561 -0.251338 -1.55583 0
M  V30 9053 C 840.977 0.103409 -1.59265 0
M  V30 9054 C 841.177 1.56559 -1.26852 0
M  V30 9055 O 840.233 2.31071 -1.01796 0
M  V30 9056 C 841.546 -0.249781 -2.99661 0
M  V30 9057 C 843.094 -0.194442 -3.12395 0
M  V30 9058 C 843.569 -0.521728 -4.55019 0
M  V30 9059 N 845.06 -0.472393 -4.60785 0
M  V30 9060 C 845.795 -0.698737 -5.69127 0
M  V30 9061 N 845.291 -0.988443 -6.85713 0
M  V30 9062 N 847.084 -0.629143 -5.58568 0
M  V30 9063 H 839.235 -1.20484 -1.74921 0
M  V30 9064 H 841.498 -0.485092 -0.814488 0
M  V30 9065 H 841.204 -1.26577 -3.28133 0
M  V30 9066 H 841.078 0.420973 -3.74844 0
M  V30 9067 H 843.465 0.812229 -2.83702 0
M  V30 9068 H 843.546 -0.899111 -2.39478 0
M  V30 9069 H 843.19 -1.52597 -4.84434 0
M  V30 9070 H 843.12 0.204468 -5.26203 0
M  V30 9071 H 845.611 -0.257386 -3.77022 0
M  V30 9072 H 845.924 -1.14846 -7.64219 0
M  V30 9073 H 844.269 -1.02596 -6.87386 0
M  V30 9074 H 847.46 -0.402826 -4.66364 0
M  V30 9075 H 847.633 -0.808935 -6.42931 0
M  V30 9076 N 841.039 1.57585 0.0217189 0
M  V30 9077 C 842.287 1.89231 0.709641 0
M  V30 9078 C 842.608 0.849964 1.75501 0
M  V30 9079 O 841.878 -0.115485 1.95559 0
M  V30 9080 H 840.458 0.69838 0.265092 0
M  V30 9081 H 843.12 1.94895 -0.0140688 0
M  V30 9082 H 842.216 2.88333 1.19459 0
M  V30 9083 N 842.517 -0.29412 1.54831 0
M  V30 9084 C 843.928 -0.866651 1.65366 0
M  V30 9085 C 844.279 -1.87834 0.56681 0
M  V30 9086 O 843.404 -2.14374 -0.295389 0
M  V30 9087 C 843.999 -1.57869 2.99771 0
M  V30 9088 C 842.558 -2.09954 3.12404 0
M  V30 9089 C 841.705 -0.934492 2.6108 0
M  V30 9090 H 844.656 -0.0709551 1.58541 0
M  V30 9091 H 844.677 -2.44462 2.91579 0
M  V30 9092 H 844.189 -0.84212 3.78853 0
M  V30 9093 H 842.29 -2.86637 2.38055 0
M  V30 9094 H 842.403 -2.32934 4.18663 0
M  V30 9095 H 840.767 -1.32199 2.17705 0
M  V30 9096 H 841.55 -0.211768 3.42646 0
M  V30 9097 N 843.995 -1.47404 -0.557645 0
M  V30 9098 C 845.243 -1.53703 -1.31224 0
M  V30 9099 C 845.564 -0.200742 -1.93964 0
M  V30 9100 O 844.834 0.775253 -1.79907 0
M  V30 9101 H 843.414 -0.566171 -0.487299 0
M  V30 9102 H 846.076 -1.83699 -0.651195 0
M  V30 9103 H 845.172 -2.30335 -2.10599 0
M  V30 9104 N 845.473 0.80434 -1.35529 0
M  V30 9105 C 846.889 1.10023 -1.15616 0
M  V30 9106 C 847.089 2.01478 0.0298535 0
M  V30 9107 O 846.145 2.42609 0.699778 0
M  V30 9108 C 847.458 1.72905 -2.46017 0
M  V30 9109 C 849.006 1.85315 -2.52245 0
M  V30 9110 C 849.481 2.51612 -3.82695 0
M  V30 9111 N 850.972 2.59095 -3.83958 0
M  V30 9112 C 851.707 3.11167 -4.81625 0
M  V30 9113 N 851.203 3.63659 -5.89681 0
M  V30 9114 N 852.996 3.09741 -4.6906 0
M  V30 9115 H 845.147 0.196428 -2.1149 0
M  V30 9116 H 847.41 0.149735 -0.9361 0
M  V30 9117 H 847.116 1.13171 -3.32994 0
M  V30 9118 H 846.99 2.72579 -2.6073 0
M  V30 9119 H 849.377 2.44191 -1.65695 0
M  V30 9120 H 849.458 0.844886 -2.41444 0
M  V30 9121 H 849.102 1.93385 -4.69643 0
M  V30 9122 H 849.032 3.5298 -3.90785 0
M  V30 9123 H 851.523 2.21908 -3.05884 0
M  V30 9124 H 851.836 4.01699 -6.60195 0
M  V30 9125 H 850.181 3.61852 -5.9337 0
M  V30 9126 H 853.372 2.68011 -3.83781 0
M  V30 9127 H 853.545 3.50016 -5.45338 0
M  V30 9128 N 846.951 1.19563 1.02676 0
M  V30 9129 C 848.198 0.999568 1.7611 0
M  V30 9130 C 848.526 -0.469432 1.8875 0
M  V30 9131 O 847.781 -1.36481 1.40255 0
M  V30 9132 C 848.08 1.61619 3.18769 0
M  V30 9133 C 847.746 3.11366 3.26132 0
M  V30 9134 C 846.408 3.52234 3.27848 0
M  V30 9135 C 848.76 4.07374 3.25109 0
M  V30 9136 C 846.088 4.87658 3.26201 0
M  V30 9137 C 848.44 5.42731 3.25002 0
M  V30 9138 C 847.104 5.83027 3.25017 0
M  V30 9139 H 846.374 0.365768 0.644434 0
M  V30 9140 H 849.021 1.48838 1.20497 0
M  V30 9141 H 847.326 1.04974 3.77476 0
M  V30 9142 H 849.023 1.43975 3.74262 0
M  V30 9143 H 845.613 2.78804 3.25525 0
M  V30 9144 H 849.797 3.76842 3.22961 0
M  V30 9145 H 845.053 5.18156 3.24537 0
M  V30 9146 H 849.227 6.16879 3.23161 0
M  V30 9147 H 846.854 6.87936 3.23494 0
M  V30 9148 N 848.429 -1.21819 0.999893 0
M  V30 9149 C 849.845 -1.42847 0.711824 0
M  V30 9150 C 850.045 -1.88391 -0.714928 0
M  V30 9151 O 849.101 -2.0422 -1.48494 0
M  V30 9152 C 850.414 -2.46417 1.72334 0
M  V30 9153 C 851.962 -2.60207 1.73958 0
M  V30 9154 C 852.437 -3.67005 2.73992 0
M  V30 9155 N 853.928 -3.7447 2.72628 0
M  V30 9156 C 854.663 -4.56718 3.46693 0
M  V30 9157 N 854.159 -5.42904 4.3038 0
M  V30 9158 N 855.952 -4.51094 3.35366 0
M  V30 9159 H 848.103 -0.905656 1.92124 0
M  V30 9160 H 850.366 -0.459893 0.828977 0
M  V30 9161 H 850.072 -2.19914 2.74465 0
M  V30 9162 H 849.946 -3.45137 1.52186 0
M  V30 9163 H 852.333 -2.8605 0.725217 0
M  V30 9164 H 852.414 -1.61739 1.98177 0
M  V30 9165 H 852.058 -3.41908 3.75582 0
M  V30 9166 H 851.988 -4.65058 2.4704 0
M  V30 9167 H 854.479 -3.12895 2.11909 0
M  V30 9168 H 854.792 -6.02704 4.83702 0
M  V30 9169 H 853.137 -5.42463 4.34464 0
M  V30 9170 H 856.328 -3.82791 2.69423 0
M  V30 9171 H 856.501 -5.1496 3.93344 0
M  V30 9172 N 849.908 -0.773975 -1.37286 0
M  V30 9173 C 851.185 -0.263942 -1.93811 0
M  V30 9174 C 851.565 1.24138 -1.70743 0
M  V30 9175 O 850.913 2.02557 -1.05749 0
M  V30 9176 C 851.123 -0.639753 -3.43086 0
M  V30 9177 C 852.471 -0.610796 -4.20184 0
M  V30 9178 O 853.495 -0.579278 -3.51458 0
M  V30 9179 O 852.354 -0.639862 -5.42741 0
M  V30 9180 H 849.448 -0.0614331 -0.824715 0
M  V30 9181 H 851.994 -0.855477 -1.46559 0
M  V30 9182 H 850.766 -1.67856 -3.53469 0
M  V30 9183 H 850.389 -0.0212827 -3.97594 0
M  V30 9184 N 851.386 1.48609 -0.524698 0
M  V30 9185 C 852.797 1.86516 -0.0828846 0
M  V30 9186 C 853.148 1.43478 1.33822 0
M  V30 9187 O 852.273 0.823139 2.00133 0
M  V30 9188 C 852.868 3.38495 -0.143639 0
M  V30 9189 C 851.427 3.75615 0.242951 0
M  V30 9190 C 850.574 2.72649 -0.505747 0
M  V30 9191 H 853.525 1.40589 -0.736233 0
M  V30 9192 H 853.546 3.74977 0.645955 0
M  V30 9193 H 853.058 3.69789 -1.17805 0
M  V30 9194 H 851.159 3.49935 1.27971 0
M  V30 9195 H 851.272 4.7901 -0.0929834 0
M  V30 9196 H 849.636 2.54656 0.0473482 0
M  V30 9197 H 850.419 3.06786 -1.54069 0
M  V30 9198 N 852.864 0.259585 1.55447 0
M  V30 9199 C 854.112 -0.360893 1.98852 0
M  V30 9200 C 854.433 -1.57535 1.14924 0
M  V30 9201 O 853.703 -1.94485 0.235025 0
M  V30 9202 H 852.283 -0.136332 0.734454 0
M  V30 9203 H 854.945 0.361319 1.91522 0
M  V30 9204 H 854.041 -0.661388 3.05012 0
M  V30 9205 N 854.342 -1.57594 -0.0133615 0
M  V30 9206 C 855.567 -1.94649 -0.715996 0
M  V30 9207 C 855.992 -0.860786 -1.67249 0
M  V30 9208 O 855.35 0.182228 -1.80382 0
M  V30 9209 C 855.398 -3.30789 -1.43566 0
M  V30 9210 O 854.502 -3.24148 -2.54955 0
M  V30 9211 H 853.843 -0.635801 -0.191449 0
M  V30 9212 H 856.373 -2.04569 0.0358478 0
M  V30 9213 H 856.383 -3.66045 -1.80208 0
M  V30 9214 H 855.058 -4.09367 -0.734263 0
M  V30 9215 H 853.635 -3.00548 -2.20739 0
M  V30 9216 N 855.82 0.285905 -1.54985 0
M  V30 9217 C 856.73 1.37534 -1.90057 0
M  V30 9218 C 857.746 1.54707 -0.796348 0
M  V30 9219 O 858.922 1.69082 -1.09423 0
M  V30 9220 C 855.987 2.7167 -2.15398 0
M  V30 9221 C 855.048 2.63354 -3.39033 0
M  V30 9222 C 854.281 3.91093 -3.63155 0
M  V30 9223 O 854.504 4.91169 -2.90015 0
M  V30 9224 O 853.438 3.92075 -4.56685 0
M  V30 9225 H 857.264 1.10791 -2.8277 0
M  V30 9226 H 854.849 0.483303 -1.41367 0
M  V30 9227 H 856.731 3.51006 -2.33179 0
M  V30 9228 H 855.406 2.98226 -1.25868 0
M  V30 9229 H 854.313 1.82438 -3.26599 0
M  V30 9230 H 855.646 2.41749 -4.2874 0
M  V30 9231 N 857.298 1.47698 0.54982 0
M  V30 9232 C 858.246 1.61156 1.67724 0
M  V30 9233 C 859.24 0.478606 1.62498 0
M  V30 9234 O 860.446 0.656661 1.67595 0
M  V30 9235 H 856.821 0.507304 0.55511 0
M  V30 9236 H 858.792 2.55884 1.53512 0
M  V30 9237 C 857.541 1.64994 3.06059 0
M  V30 9238 H 856.864 2.51525 3.10765 0
M  V30 9239 H 858.304 1.78459 3.84615 0
M  V30 9240 C 856.763 0.384677 3.34697 0
M  V30 9241 O 857.293 -0.511057 3.98436 0
M  V30 9242 N 855.499 0.262434 2.89413 0
M  V30 9243 H 855.046 0.99229 2.37721 0
M  V30 9244 H 855.004 -0.583177 3.08944 0
M  V30 9245 N 858.776 -0.797141 1.35954 0
M  V30 9246 C 859.686 -1.94088 1.31784 0
M  V30 9247 C 860.702 -1.72588 0.221227 0
M  V30 9248 O 861.878 -1.96256 0.452255 0
M  V30 9249 C 858.943 -3.28828 1.09878 0
M  V30 9250 C 858.004 -3.63158 2.28942 0
M  V30 9251 C 857.237 -4.91469 2.08072 0
M  V30 9252 O 857.46 -5.60616 1.05196 0
M  V30 9253 O 856.394 -5.24277 2.95664 0
M  V30 9254 H 860.22 -2.00554 2.28061 0
M  V30 9255 H 857.805 -0.936288 1.16422 0
M  V30 9256 H 859.687 -4.09473 0.995485 0
M  V30 9257 H 858.362 -3.23271 0.16659 0
M  V30 9258 H 857.269 -2.82851 2.44839 0
M  V30 9259 H 858.602 -3.7343 3.20641 0
M  V30 9260 N 860.254 -1.20106 -1.0204 0
M  V30 9261 C 861.501 -1.00889 -1.75578 0
M  V30 9262 C 861.829 0.459415 -1.88996 0
M  V30 9263 O 861.084 1.35735 -1.40977 0
M  V30 9264 C 861.383 -1.63308 -3.17908 0
M  V30 9265 C 861.049 -3.13091 -3.24476 0
M  V30 9266 C 859.711 -3.53968 -3.25976 0
M  V30 9267 C 862.063 -4.09093 -3.22944 0
M  V30 9268 C 859.391 -4.89381 -3.2361 0
M  V30 9269 C 861.743 -5.44447 -3.22119 0
M  V30 9270 C 860.407 -5.84742 -3.2192 0
M  V30 9271 H 859.677 -0.36918 -0.642485 0
M  V30 9272 H 862.324 -1.49475 -1.19706 0
M  V30 9273 H 860.629 -1.06974 -3.76914 0
M  V30 9274 H 862.326 -1.45958 -3.73493 0
M  V30 9275 H 858.916 -2.80526 -3.24042 0
M  V30 9276 H 863.1 -3.78549 -3.20958 0
M  V30 9277 H 858.356 -5.1987 -3.21785 0
M  V30 9278 H 862.53 -6.18584 -3.19885 0
M  V30 9279 H 860.157 -6.89642 -3.19841 0
M  V30 9280 N 861.732 1.21287 -1.00634 0
M  V30 9281 C 862.695 2.21927 -0.572821 0
M  V30 9282 C 863.695 1.5691 0.351541 0
M  V30 9283 O 864.885 1.73623 0.141643 0
M  V30 9284 C 862.017 3.40501 0.164932 0
M  V30 9285 H 863.21 2.61795 -1.463 0
M  V30 9286 H 860.763 1.34571 -0.794998 0
M  V30 9287 H 861.498 3.06123 1.07049 0
M  V30 9288 H 861.283 3.88912 -0.498962 0
M  V30 9289 H 862.773 4.15103 0.455945 0
M  V30 9290 N 863.21 0.781244 1.36873 0
M  V30 9291 C 864.487 0.274217 1.93668 0
M  V30 9292 C 864.867 -1.2323 1.71399 0
M  V30 9293 O 864.215 -2.01993 1.06822 0
M  V30 9294 C 864.425 0.657939 3.42742 0
M  V30 9295 C 865.773 0.63307 4.19854 0
M  V30 9296 O 866.797 0.597909 3.51146 0
M  V30 9297 O 865.656 0.668636 5.42394 0
M  V30 9298 H 862.75 0.0658059 0.824378 0
M  V30 9299 H 865.296 0.863238 1.46104 0
M  V30 9300 H 864.068 1.69728 3.52573 0
M  V30 9301 H 863.691 0.0423678 3.97577 0
M  V30 9302 N 864.689 -1.48329 0.532571 0
M  V30 9303 C 865.966 -1.95492 -0.0650985 0
M  V30 9304 C 866.346 -1.47485 -1.51034 0
M  V30 9305 O 865.694 -0.702516 -2.17433 0
M  V30 9306 C 865.904 -3.48957 0.0548341 0
M  V30 9307 C 867.252 -4.24475 -0.103115 0
M  V30 9308 O 868.276 -3.56195 -0.0188343 0
M  V30 9309 O 867.135 -5.45781 -0.280164 0
M  V30 9310 H 864.229 -0.823327 -0.0778603 0
M  V30 9311 H 866.775 -1.58839 0.597353 0
M  V30 9312 H 865.547 -3.76628 1.06148 0
M  V30 9313 H 865.17 -3.92311 -0.64635 0
M  V30 9314 N 866.167 -0.267825 -1.55308 0
M  V30 9315 C 867.077 0.633055 -2.25897 0
M  V30 9316 C 868.093 1.17613 -1.28231 0
M  V30 9317 O 869.269 1.20797 -1.61153 0
M  V30 9318 C 866.334 1.80397 -2.96071 0
M  V30 9319 C 865.395 1.29829 -4.09198 0
M  V30 9320 C 864.628 2.4134 -4.76016 0
M  V30 9321 O 864.851 3.60537 -4.42006 0
M  V30 9322 O 863.785 2.09909 -5.64111 0
M  V30 9323 H 867.611 0.0614381 -3.03638 0
M  V30 9324 H 865.196 -0.0355072 -1.49358 0
M  V30 9325 H 867.078 2.48685 -3.40197 0
M  V30 9326 H 865.753 2.36281 -2.21253 0
M  V30 9327 H 864.66 0.582086 -3.69544 0
M  V30 9328 H 865.993 0.785288 -4.85895 0
M  V30 9329 N 867.645 1.57599 0.00500368 0
M  V30 9330 C 868.595 2.04585 1.00643 0
M  V30 9331 C 869.579 0.939622 1.30614 0
M  V30 9332 O 870.771 1.20342 1.29796 0
M  V30 9333 C 867.9 2.5486 2.30002 0
M  V30 9334 C 866.986 3.7235 2.03017 0
M  V30 9335 N 867.377 4.84218 1.46173 0
M  V30 9336 C 865.675 3.80185 2.33185 0
M  V30 9337 C 866.376 5.65688 1.35544 0
M  V30 9338 N 865.352 5.11536 1.83933 0
M  V30 9339 H 869.154 2.8849 0.561332 0
M  V30 9340 H 866.668 1.61026 0.210808 0
M  V30 9341 H 868.665 2.86794 3.0258 0
M  V30 9342 H 867.325 1.72372 2.75169 0
M  V30 9343 H 868.336 5.0517 1.1412 0
M  V30 9344 H 865.013 3.08543 2.81261 0
M  V30 9345 H 866.403 6.65588 0.918791 0
M  V30 9346 N 869.123 -0.277682 1.55134 0
M  V30 9347 C 870.348 -1.03254 1.7987 0
M  V30 9348 C 870.773 -1.79324 0.567861 0
M  V30 9349 O 870.131 -1.74764 -0.4824 0
M  V30 9350 C 870.179 -1.9705 3.02 0
M  V30 9351 O 869.283 -3.05744 2.76757 0
M  V30 9352 H 868.624 -0.295447 0.594649 0
M  V30 9353 H 871.154 -0.308013 2.02268 0
M  V30 9354 H 871.164 -2.3909 3.30606 0
M  V30 9355 H 869.839 -1.41094 3.91236 0
M  V30 9356 H 868.416 -2.68052 2.59235 0
M  V30 9357 N 870.601 -1.47988 -0.541979 0
M  V30 9358 C 871.829 -1.59034 -1.32347 0
M  V30 9359 C 872.244 -0.246123 -1.87189 0
M  V30 9360 O 871.601 0.762889 -1.6579 0
M  V30 9361 C 871.652 -2.62759 -2.48274 0
M  V30 9362 O 871.373 -3.91963 -1.95695 0
M  V30 9363 C 872.874 -2.84133 -3.4027 0
M  V30 9364 H 870.094 -0.536574 -0.402901 0
M  V30 9365 H 872.638 -1.93725 -0.655045 0
M  V30 9366 H 870.793 -2.3096 -3.11025 0
M  V30 9367 H 871.207 -4.48769 -2.7149 0
M  V30 9368 H 872.681 -3.60538 -4.17991 0
M  V30 9369 H 873.158 -1.92512 -3.9476 0
M  V30 9370 H 873.764 -3.17188 -2.83322 0
M  V30 9371 N 872.079 0.78992 -1.36375 0
M  V30 9372 C 873.325 1.55007 -1.3077 0
M  V30 9373 C 873.658 1.93871 0.112979 0
M  V30 9374 O 872.933 1.6267 1.06625 0
M  V30 9375 C 873.216 2.82748 -2.22993 0
M  V30 9376 C 873.069 2.50253 -3.73756 0
M  V30 9377 C 874.388 3.84569 -2.13998 0
M  V30 9378 H 871.507 0.562362 -0.476359 0
M  V30 9379 H 874.149 0.907582 -1.66922 0
M  V30 9380 H 872.299 3.37573 -1.92292 0
M  V30 9381 H 873.971 2.01482 -4.14973 0
M  V30 9382 H 872.214 1.83203 -3.93216 0
M  V30 9383 H 872.885 3.41487 -4.33694 0
M  V30 9384 H 875.361 3.39188 -2.4102 0
M  V30 9385 H 874.237 4.717 -2.80697 0
M  V30 9386 H 874.498 4.27491 -1.12711 0
M  V30 9387 N 873.557 1.20646 1.01402 0
M  V30 9388 C 874.467 0.973385 2.13453 0
M  V30 9389 C 875.483 -0.0715865 1.73853 0
M  V30 9390 O 876.659 0.116438 2.01063 0
M  V30 9391 C 873.724 0.531285 3.42605 0
M  V30 9392 C 872.785 1.64741 3.96433 0
M  V30 9393 C 872.018 1.22631 5.1942 0
M  V30 9394 O 872.241 0.0960891 5.70319 0
M  V30 9395 O 871.175 2.03474 5.66465 0
M  V30 9396 H 875.001 1.91164 2.35987 0
M  V30 9397 H 872.586 0.990553 1.11841 0
M  V30 9398 H 874.468 0.294095 4.20373 0
M  V30 9399 H 873.143 -0.378358 3.21481 0
M  V30 9400 H 872.05 1.93891 3.19933 0
M  V30 9401 H 873.383 2.53415 4.2195 0
M  V30 9402 N 875.035 -1.20752 1.01276 0
M  V30 9403 C 875.945 -2.27079 0.589277 0
M  V30 9404 C 876.961 -1.6999 -0.371389 0
M  V30 9405 O 878.137 -2.00044 -0.233294 0
M  V30 9406 C 875.202 -3.4663 -0.0696715 0
M  V30 9407 C 874.263 -4.18962 0.936454 0
M  V30 9408 C 873.496 -5.32806 0.308856 0
M  V30 9409 O 873.719 -5.63376 -0.8924 0
M  V30 9410 O 872.653 -5.93131 1.02367 0
M  V30 9411 H 876.479 -2.6551 1.47438 0
M  V30 9412 H 874.064 -1.27297 0.782045 0
M  V30 9413 H 875.946 -4.19119 -0.437873 0
M  V30 9414 H 874.621 -3.10082 -0.929029 0
M  V30 9415 H 873.528 -3.48661 1.35595 0
M  V30 9416 H 874.861 -4.59441 1.76565 0
M  V30 9417 N 876.513 -0.788492 -1.36457 0
M  V30 9418 C 877.738 -0.371224 -2.04051 0
M  V30 9419 C 878.163 1.004 -1.59064 0
M  V30 9420 O 877.521 1.64663 -0.758679 0
M  V30 9421 C 877.569 -0.442275 -3.57877 0
M  V30 9422 O 876.673 0.55113 -4.08701 0
M  V30 9423 H 876.014 -0.157808 -0.644975 0
M  V30 9424 H 878.544 -1.06935 -1.74431 0
M  V30 9425 H 878.554 -0.305548 -4.06854 0
M  V30 9426 H 877.229 -1.44547 -3.89973 0
M  V30 9427 H 875.806 0.37614 -3.70998 0
M  V30 9428 N 877.991 1.48044 -0.54043 0
M  V30 9429 C 878.901 2.33565 0.220163 0
M  V30 9430 C 879.917 1.47146 0.928659 0
M  V30 9431 O 881.093 1.80107 0.901295 0
M  V30 9432 C 878.158 3.2349 1.2472 0
M  V30 9433 C 877.219 4.25789 0.547938 0
M  V30 9434 C 876.452 5.11417 1.52605 0
M  V30 9435 O 876.675 4.99204 2.75956 0
M  V30 9436 O 875.609 5.92498 1.05972 0
M  V30 9437 H 879.435 2.99868 -0.480898 0
M  V30 9438 H 877.02 1.46332 -0.301226 0
M  V30 9439 H 878.902 3.79084 1.84047 0
M  V30 9440 H 877.577 2.59835 1.93048 0
M  V30 9441 H 876.484 3.74001 -0.0860941 0
M  V30 9442 H 877.817 4.92111 -0.0935896 0
M  V30 9443 N 879.47 0.276058 1.55163 0
M  V30 9444 C 880.718 -0.339782 1.99223 0
M  V30 9445 C 881.039 -1.56307 1.16589 0
M  V30 9446 O 880.309 -1.94225 0.25564 0
M  V30 9447 H 878.889 -0.128534 0.735859 0
M  V30 9448 H 881.551 0.381612 1.91128 0
M  V30 9449 H 880.647 -0.629 3.05696 0
M  V30 9450 N 880.948 -1.576 0.00335426 0
M  V30 9451 C 882.364 -1.55653 -0.352766 0
M  V30 9452 C 882.564 -1.00632 -1.74572 0
M  V30 9453 O 881.62 -0.641621 -2.44212 0
M  V30 9454 C 882.933 -2.99858 -0.224929 0
M  V30 9455 C 884.481 -3.11563 -0.299619 0
M  V30 9456 C 884.956 -4.57559 -0.200868 0
M  V30 9457 N 886.447 -4.62477 -0.258663 0
M  V30 9458 C 887.182 -5.73031 -0.205644 0
M  V30 9459 N 886.678 -6.92723 -0.103027 0
M  V30 9460 N 888.471 -5.61509 -0.257754 0
M  V30 9461 H 880.622 -1.91703 0.914539 0
M  V30 9462 H 882.885 -0.88068 0.350865 0
M  V30 9463 H 882.591 -3.43964 0.733595 0
M  V30 9464 H 882.465 -3.63547 -1.00564 0
M  V30 9465 H 884.852 -2.67384 -1.24859 0
M  V30 9466 H 884.933 -2.50644 0.511025 0
M  V30 9467 H 884.577 -5.02413 0.744572 0
M  V30 9468 H 884.507 -5.16428 -1.03004 0
M  V30 9469 H 886.998 -3.76375 -0.339168 0
M  V30 9470 H 887.311 -7.7277 -0.0685593 0
M  V30 9471 H 885.656 -6.94966 -0.0686069 0
M  V30 9472 H 888.847 -4.66892 -0.336142 0
M  V30 9473 H 889.02 -6.4765 -0.21297 0
M  V30 9474 N 882.426 0.269451 -1.5528 0
M  V30 9475 C 883.842 0.616827 -1.47199 0
M  V30 9476 C 884.042 1.89354 -0.68901 0
M  V30 9477 O 883.098 2.51631 -0.209287 0
M  V30 9478 C 884.411 0.740492 -2.9144 0
M  V30 9479 C 885.959 0.834312 -3.01676 0
M  V30 9480 C 886.434 0.989725 -4.47178 0
M  V30 9481 N 887.925 1.05516 -4.51022 0
M  V30 9482 C 888.66 1.19427 -5.60825 0
M  V30 9483 N 888.156 1.30035 -6.80487 0
M  V30 9484 N 889.949 1.22566 -5.48575 0
M  V30 9485 H 882.1 -0.568962 -2.04638 0
M  V30 9486 H 884.363 -0.193153 -0.928114 0
M  V30 9487 H 884.069 -0.127234 -3.5147 0
M  V30 9488 H 883.943 1.61965 -3.40657 0
M  V30 9489 H 886.33 1.6925 -2.4174 0
M  V30 9490 H 886.411 -0.0695298 -2.55705 0
M  V30 9491 H 886.055 0.136179 -5.07717 0
M  V30 9492 H 885.985 1.90827 -4.90808 0
M  V30 9493 H 888.476 0.985434 -3.64825 0
M  V30 9494 H 888.789 1.40494 -7.59922 0
M  V30 9495 H 887.134 1.27033 -6.83292 0
M  V30 9496 H 890.325 1.13911 -4.54029 0
M  V30 9497 H 890.498 1.33063 -6.34191 0
M  V30 9498 N 883.904 1.48273 0.534124 0
M  V30 9499 C 885.181 1.46567 1.29528 0
M  V30 9500 C 885.561 0.17509 2.10373 0
M  V30 9501 O 884.909 -0.843228 2.12372 0
M  V30 9502 C 885.119 2.72519 2.18023 0
M  V30 9503 C 886.467 3.2068 2.78298 0
M  V30 9504 O 887.491 2.73408 2.28313 0
M  V30 9505 O 886.35 4.02924 3.69208 0
M  V30 9506 H 883.444 0.585151 0.584403 0
M  V30 9507 H 885.99 1.60502 0.551119 0
M  V30 9508 H 884.762 3.57965 1.5804 0
M  V30 9509 H 884.385 2.61285 2.99693 0
M  V30 9510 N 885.382 -0.782676 1.36792 0
M  V30 9511 C 886.607 -1.57676 1.34733 0
M  V30 9512 C 887.032 -1.87979 -0.0675253 0
M  V30 9513 O 886.39 -1.48404 -1.04144 0
M  V30 9514 C 886.438 -2.87047 2.18257 0
M  V30 9515 O 885.542 -3.80946 1.57969 0
M  V30 9516 H 884.883 -0.478034 0.460846 0
M  V30 9517 H 887.413 -0.969578 1.80168 0
M  V30 9518 H 887.423 -3.36254 2.31079 0
M  V30 9519 H 886.098 -2.64319 3.21104 0
M  V30 9520 H 884.675 -3.39558 1.54126 0
M  V30 9521 N 886.86 -1.21182 -1.00761 0
M  V30 9522 C 887.79 -0.992773 -2.11344 0
M  V30 9523 C 888.771 0.0813618 -1.69905 0
M  V30 9524 O 889.956 -0.0779503 -1.94043 0
M  V30 9525 C 887.086 -0.553826 -3.42856 0
M  V30 9526 C 886.04 -1.57223 -3.98077 0
M  V30 9527 C 885.366 -0.989605 -5.25463 0
M  V30 9528 C 886.666 -2.95839 -4.30438 0
M  V30 9529 H 888.36 -1.91766 -2.29927 0
M  V30 9530 H 885.906 -0.923426 -1.10494 0
M  V30 9531 H 887.859 -0.387771 -4.19612 0
M  V30 9532 H 886.583 0.406702 -3.24058 0
M  V30 9533 H 885.242 -1.7258 -3.23437 0
M  V30 9534 H 884.89 -0.0208743 -5.02996 0
M  V30 9535 H 884.59 -1.66984 -5.63374 0
M  V30 9536 H 886.114 -0.834815 -6.04866 0
M  V30 9537 H 887.528 -2.8394 -4.98047 0
M  V30 9538 H 885.925 -3.60851 -4.79486 0
M  V30 9539 H 886.995 -3.46882 -3.38823 0
M  V30 9540 N 888.338 1.20213 -1.01915 0
M  V30 9541 C 889.585 1.89647 -0.709955 0
M  V30 9542 C 889.913 1.7901 0.760631 0
M  V30 9543 O 889.168 1.17028 1.56853 0
M  V30 9544 C 889.467 3.40232 -1.09438 0
M  V30 9545 C 889.133 3.7107 -2.5616 0
M  V30 9546 C 887.795 3.79196 -2.96249 0
M  V30 9547 C 890.147 3.85169 -3.51133 0
M  V30 9548 C 887.475 3.98882 -4.30244 0
M  V30 9549 C 889.827 4.06365 -4.8482 0
M  V30 9550 C 888.491 4.12722 -5.24611 0
M  V30 9551 H 887.761 0.693967 -0.259791 0
M  V30 9552 H 890.408 1.42419 -1.2802 0
M  V30 9553 H 888.713 3.89292 -0.442596 0
M  V30 9554 H 890.41 3.92257 -0.832811 0
M  V30 9555 H 887 3.65346 -2.24099 0
M  V30 9556 H 891.184 3.78243 -3.21319 0
M  V30 9557 H 886.44 4.02039 -4.60624 0
M  V30 9558 H 890.614 4.16216 -5.58334 0
M  V30 9559 H 888.241 4.27728 -6.28453 0
M  V30 9560 N 889.816 0.795718 1.36037 0
M  V30 9561 C 891.065 0.367575 1.98322 0
M  V30 9562 C 891.378 -1.06823 1.63854 0
M  V30 9563 O 892.584 -1.59895 2.19421 0
M  V30 9564 C 891.04 0.606272 3.54757 0
M  V30 9565 C 890.648 2.0539 3.98144 0
M  V30 9566 C 892.392 0.242947 4.23804 0
M  V30 9567 C 890.299 2.23893 5.47381 0
M  V30 9568 H 889.229 0.133699 0.742052 0
M  V30 9569 H 891.88 0.978242 1.5525 0
M  V30 9570 H 890.262 -0.0741957 3.9593 0
M  V30 9571 H 891.436 2.77129 3.68152 0
M  V30 9572 H 889.751 2.37607 3.41953 0
M  V30 9573 H 892.348 0.359382 5.33491 0
M  V30 9574 H 892.691 -0.809661 4.08351 0
M  V30 9575 H 893.224 0.876899 3.88015 0
M  V30 9576 H 889.963 3.27559 5.6779 0
M  V30 9577 H 889.483 1.56666 5.78978 0
M  V30 9578 H 891.162 2.04914 6.13693 0
M  V30 9579 N 891.294 -1.47756 0.548274 0
M  V30 9580 C 892.705 -1.8636 0.112547 0
M  V30 9581 C 893.056 -1.45589 -1.31523 0
M  V30 9582 O 892.181 -0.854874 -1.98799 0
M  V30 9583 C 892.776 -3.38224 0.197473 0
M  V30 9584 C 891.335 -3.75954 -0.183163 0
M  V30 9585 C 890.482 -2.7181 0.549059 0
M  V30 9586 H 893.433 -1.394 0.758506 0
M  V30 9587 H 893.454 -3.75957 -0.586217 0
M  V30 9588 H 892.966 -3.67868 1.23673 0
M  V30 9589 H 891.067 -3.51926 -1.22387 0
M  V30 9590 H 891.18 -4.78801 0.169178 0
M  V30 9591 H 889.544 -2.54699 -0.00682862 0
M  V30 9592 H 890.327 -3.04296 1.5893 0
M  V30 9593 N 892.772 -0.284283 -1.55015 0
M  V30 9594 C 894.021 0.33055 -1.98973 0
M  V30 9595 C 894.334 1.56284 -1.17621 0
M  V30 9596 O 895.54 2.2512 -1.51767 0
M  V30 9597 C 893.996 0.639457 -3.54174 0
M  V30 9598 C 893.604 -0.573543 -4.44313 0
M  V30 9599 C 895.348 1.21641 -4.06699 0
M  V30 9600 C 893.255 -0.238715 -5.90918 0
M  V30 9601 H 892.185 0.127285 -0.743179 0
M  V30 9602 H 894.836 -0.390372 -1.793 0
M  V30 9603 H 893.218 1.41953 -3.69683 0
M  V30 9604 H 894.392 -1.3502 -4.40575 0
M  V30 9605 H 892.707 -1.06797 -4.02472 0
M  V30 9606 H 895.304 1.48088 -5.13784 0
M  V30 9607 H 895.647 2.15328 -3.56286 0
M  V30 9608 H 896.18 0.498422 -3.94665 0
M  V30 9609 H 892.919 -1.1437 -6.45445 0
M  V30 9610 H 892.439 0.500997 -5.97704 0
M  V30 9611 H 894.118 0.165774 -6.46788 0
M  V30 9612 N 894.251 1.57596 -0.0117121 0
M  V30 9613 C 895.667 1.55837 0.344506 0
M  V30 9614 C 895.867 1.01557 1.74036 0
M  V30 9615 O 894.923 0.654563 2.43868 0
M  V30 9616 C 896.236 2.99973 0.209023 0
M  V30 9617 C 897.784 3.11717 0.283092 0
M  V30 9618 C 898.259 4.57659 0.176599 0
M  V30 9619 N 899.75 4.62608 0.234133 0
M  V30 9620 C 900.485 5.73132 0.175252 0
M  V30 9621 N 899.981 6.92768 0.0662888 0
M  V30 9622 N 901.774 5.61638 0.227972 0
M  V30 9623 H 893.925 1.91215 -0.924692 0
M  V30 9624 H 896.188 0.878807 -0.355531 0
M  V30 9625 H 895.894 3.4357 -0.751826 0
M  V30 9626 H 895.768 3.64075 0.98635 0
M  V30 9627 H 898.155 2.68043 1.23439 0
M  V30 9628 H 898.236 2.50369 -0.52431 0
M  V30 9629 H 897.88 5.02011 -0.771205 0
M  V30 9630 H 897.81 5.16967 1.00264 0
M  V30 9631 H 900.301 3.76549 0.319203 0
M  V30 9632 H 900.614 7.72795 0.0275765 0
M  V30 9633 H 898.959 6.94993 0.0317502 0
M  V30 9634 H 902.15 4.67063 0.311377 0
M  V30 9635 H 902.323 6.47754 0.178621 0
M  V30 9636 N 895.729 -0.261212 1.5542 0
M  V30 9637 C 896.692 -1.30645 1.8832 0
M  V30 9638 C 897.692 -1.41782 0.758588 0
M  V30 9639 O 898.882 -1.40729 1.02669 0
M  V30 9640 C 896.014 -2.6862 2.09895 0
M  V30 9641 H 897.207 -1.02698 2.81768 0
M  V30 9642 H 894.76 -0.499838 1.48092 0
M  V30 9643 H 895.495 -3.0173 1.18868 0
M  V30 9644 H 895.28 -2.61921 2.91787 0
M  V30 9645 H 896.77 -3.44121 2.36581 0
M  V30 9646 N 897.207 -1.48554 -0.526253 0
M  V30 9647 C 898.623 -1.34757 -0.855138 0
M  V30 9648 C 898.823 -0.36142 -1.98232 0
M  V30 9649 O 897.879 0.216026 -2.51574 0
M  V30 9650 C 899.192 -2.74877 -1.21915 0
M  V30 9651 C 900.74 -2.83393 -1.32882 0
M  V30 9652 C 901.215 -4.24223 -1.72624 0
M  V30 9653 N 902.706 -4.26913 -1.7972 0
M  V30 9654 C 903.441 -5.32824 -2.11863 0
M  V30 9655 N 902.937 -6.49008 -2.42405 0
M  V30 9656 N 904.73 -5.20221 -2.12901 0
M  V30 9657 H 896.881 -2.11284 0.217422 0
M  V30 9658 H 899.144 -0.947367 0.0346362 0
M  V30 9659 H 898.85 -3.48619 -0.464486 0
M  V30 9660 H 898.724 -3.0864 -2.16844 0
M  V30 9661 H 901.111 -2.09904 -2.07424 0
M  V30 9662 H 901.192 -2.53245 -0.360638 0
M  V30 9663 H 900.836 -4.98229 -0.986411 0
M  V30 9664 H 900.766 -4.51817 -2.70498 0
M  V30 9665 H 903.257 -3.4311 -1.58379 0
M  V30 9666 H 903.57 -7.25561 -2.66048 0
M  V30 9667 H 901.915 -6.52277 -2.39917 0
M  V30 9668 H 905.106 -4.28469 -1.885 0
M  V30 9669 H 905.279 -6.02861 -2.37619 0
M  V30 9670 N 898.685 0.775411 -1.37205 0
M  V30 9671 C 899.595 1.91967 -1.34855 0
M  V30 9672 C 900.611 1.72214 -0.248656 0
M  V30 9673 O 901.787 1.95512 -0.483421 0
M  V30 9674 C 898.852 3.27038 -1.15096 0
M  V30 9675 C 897.913 3.5947 -2.34691 0
M  V30 9676 C 897.146 4.88097 -2.15865 0
M  V30 9677 O 897.369 5.58871 -1.14102 0
M  V30 9678 O 896.303 5.19507 -3.03967 0
M  V30 9679 H 900.129 1.969 -2.31223 0
M  V30 9680 H 897.714 0.917647 -1.17897 0
M  V30 9681 H 899.596 4.07837 -1.0605 0
M  V30 9682 H 898.271 3.22965 -0.217999 0
M  V30 9683 H 897.178 2.7892 -2.49308 0
M  V30 9684 H 898.511 3.68282 -3.26541 0
M  V30 9685 N 900.163 1.21714 1.00117 0
M  V30 9686 C 901.579 0.97532 1.26332 0
M  V30 9687 C 901.779 -0.336029 1.98678 0
M  V30 9688 O 900.835 -1.06073 2.29139 0
M  V30 9689 C 902.148 2.16848 2.0832 0
M  V30 9690 C 903.696 2.21115 2.21533 0
M  V30 9691 C 904.171 3.3996 3.06906 0
M  V30 9692 N 905.662 3.40071 3.14494 0
M  V30 9693 C 906.397 4.28678 3.80818 0
M  V30 9694 N 905.893 5.2749 4.49139 0
M  V30 9695 N 907.686 4.16476 3.77497 0
M  V30 9696 H 899.837 2.06039 0.515897 0
M  V30 9697 H 902.1 0.902423 0.290408 0
M  V30 9698 H 901.806 3.119 1.62515 0
M  V30 9699 H 901.68 2.16226 3.09073 0
M  V30 9700 H 904.067 1.26616 2.66557 0
M  V30 9701 H 904.148 2.2578 1.20238 0
M  V30 9702 H 903.792 4.34755 2.62585 0
M  V30 9703 H 903.722 3.32534 4.08324 0
M  V30 9704 H 906.213 2.68563 2.65861 0
M  V30 9705 H 906.526 5.91397 4.97463 0
M  V30 9706 H 904.871 5.31412 4.47914 0
M  V30 9707 H 908.062 3.38539 3.23278 0
M  V30 9708 H 908.235 4.85739 4.28908 0
M  V30 9709 N 901.641 -1.19671 1.02551 0
M  V30 9710 C 903.057 -1.41305 0.741963 0
M  V30 9711 C 903.257 -1.89865 -0.674807 0
M  V30 9712 O 902.313 -2.07323 -1.44129 0
M  V30 9713 C 903.626 -2.42706 1.77522 0
M  V30 9714 C 905.174 -2.56458 1.79438 0
M  V30 9715 C 905.649 -3.61111 2.81715 0
M  V30 9716 N 907.14 -3.68603 2.8051 0
M  V30 9717 C 907.875 -4.49262 3.56302 0
M  V30 9718 N 907.371 -5.33653 4.41799 0
M  V30 9719 N 909.164 -4.43879 3.44859 0
M  V30 9720 H 901.315 -0.8647 1.94002 0
M  V30 9721 H 903.578 -0.442206 0.838545 0
M  V30 9722 H 903.284 -2.14042 2.79068 0
M  V30 9723 H 903.158 -3.41831 1.59472 0
M  V30 9724 H 905.545 -2.84447 0.78573 0
M  V30 9725 H 905.626 -1.57499 2.01563 0
M  V30 9726 H 905.27 -3.33864 3.82749 0
M  V30 9727 H 905.2 -4.59713 2.56849 0
M  V30 9728 H 907.691 -3.08329 2.18498 0
M  V30 9729 H 908.004 -5.92308 4.96378 0
M  V30 9730 H 906.349 -5.33125 4.45873 0
M  V30 9731 H 909.54 -3.7699 2.77482 0
M  V30 9732 H 909.713 -5.06501 4.04179 0
M  V30 9733 N 903.119 -0.802921 -1.35613 0
M  V30 9734 C 904.344 -0.392846 -2.03645 0
M  V30 9735 C 904.769 0.987075 -1.6012 0
M  V30 9736 O 904.127 1.63849 -0.776101 0
M  V30 9737 C 904.175 -0.480208 -3.57388 0
M  V30 9738 O 903.279 0.507751 -4.09262 0
M  V30 9739 H 902.62 -0.16464 -0.643265 0
M  V30 9740 H 905.15 -1.08779 -1.73287 0
M  V30 9741 H 905.16 -0.348683 -4.06507 0
M  V30 9742 H 903.835 -1.48675 -3.88418 0
M  V30 9743 H 902.412 0.336769 -3.71376 0
M  V30 9744 N 904.597 1.47463 -0.556102 0
M  V30 9745 C 905.822 2.07371 -0.0344729 0
M  V30 9746 C 906.247 1.40621 1.2493 0
M  V30 9747 O 905.605 0.48082 1.74808 0
M  V30 9748 C 905.653 3.60306 0.145563 0
M  V30 9749 O 904.757 3.94299 1.20839 0
M  V30 9750 H 904.098 0.662052 -0.0508274 0
M  V30 9751 H 906.628 1.89498 -0.771469 0
M  V30 9752 H 906.638 4.06408 0.360112 0
M  V30 9753 H 905.313 4.08288 -0.792089 0
M  V30 9754 H 903.89 3.59944 0.97442 0
M  V30 9755 N 906.075 0.2925 1.54862 0
M  V30 9756 C 907.305 -0.321646 2.04081 0
M  V30 9757 C 907.713 -1.48712 1.16967 0
M  V30 9758 O 907.056 -1.82755 0.18609 0
M  V30 9759 C 907.118 -0.848678 3.49339 0
M  V30 9760 C 906.782 0.190416 4.56603 0
M  V30 9761 C 907.779 1.01595 5.09877 0
M  V30 9762 C 905.464 0.329666 5.01217 0
M  V30 9763 C 907.458 1.96676 6.06298 0
M  V30 9764 C 905.145 1.28393 5.9746 0
M  V30 9765 C 906.143 2.10097 6.49883 0
M  V30 9766 O 905.831 3.03907 7.44242 0
M  V30 9767 H 905.563 -0.075098 0.671816 0
M  V30 9768 H 908.117 0.427531 2.00901 0
M  V30 9769 H 906.347 -1.64823 3.49815 0
M  V30 9770 H 908.036 -1.37779 3.81801 0
M  V30 9771 H 908.802 0.919197 4.7621 0
M  V30 9772 H 904.681 -0.296317 4.60047 0
M  V30 9773 H 908.225 2.60488 6.47141 0
M  V30 9774 H 904.122 1.38144 6.30545 0
M  V30 9775 H 904.89 2.98787 7.62016 0
M  V30 9776 N 907.553 -1.57587 0.0200696 0
M  V30 9777 C 908.778 -1.96124 -0.674547 0
M  V30 9778 C 909.203 -0.896068 -1.65385 0
M  V30 9779 O 908.561 0.143925 -1.80728 0
M  V30 9780 C 908.609 -3.3376 -1.36517 0
M  V30 9781 O 907.713 -3.29483 -2.48022 0
M  V30 9782 H 907.054 -0.639719 -0.177919 0
M  V30 9783 H 909.584 -2.04447 0.0792317 0
M  V30 9784 H 909.594 -3.69785 -1.72403 0
M  V30 9785 H 908.269 -4.10832 -0.647265 0
M  V30 9786 H 906.846 -3.05162 -2.14314 0
M  V30 9787 N 909.032 0.252966 -1.55557 0
M  V30 9788 C 910.28 0.979912 -1.76754 0
M  V30 9789 C 910.601 1.86083 -0.582944 0
M  V30 9790 O 909.871 1.91742 0.401497 0
M  V30 9791 H 908.451 0.364805 -0.651864 0
M  V30 9792 H 911.113 0.272372 -1.92987 0
M  V30 9793 H 910.209 1.60518 -2.67657 0
M  V30 9794 N 910.51 1.48831 0.518367 0
M  V30 9795 C 911.74 1.60886 1.29612 0
M  V30 9796 C 912.148 0.272713 1.87224 0
M  V30 9797 O 911.491 -0.749653 1.67708 0
M  V30 9798 C 911.553 2.60541 2.47707 0
M  V30 9799 C 911.217 4.05324 2.11095 0
M  V30 9800 C 912.214 4.92658 1.66084 0
M  V30 9801 C 909.899 4.50942 2.21262 0
M  V30 9802 C 911.893 6.23641 1.3172 0
M  V30 9803 C 909.58 5.81943 1.8651 0
M  V30 9804 C 910.578 6.68116 1.41812 0
M  V30 9805 O 910.266 7.96677 1.07522 0
M  V30 9806 H 909.998 0.544968 0.399982 0
M  V30 9807 H 912.552 1.95474 0.630799 0
M  V30 9808 H 910.782 2.21098 3.17258 0
M  V30 9809 H 912.471 2.62308 3.09757 0
M  V30 9810 H 913.237 4.58649 1.5769 0
M  V30 9811 H 909.116 3.84048 2.55007 0
M  V30 9812 H 912.66 6.90857 0.967598 0
M  V30 9813 H 908.557 6.15484 1.94549 0
M  V30 9814 H 909.325 8.09534 1.2082 0
M  V30 9815 N 911.988 -0.768124 1.37614 0
M  V30 9816 C 913.213 -1.56239 1.36397 0
M  V30 9817 C 913.638 -1.8804 -0.0475839 0
M  V30 9818 O 912.996 -1.495 -1.02564 0
M  V30 9819 C 913.044 -2.84716 2.21289 0
M  V30 9820 O 912.148 -3.79249 1.62001 0
M  V30 9821 H 911.489 -0.473119 0.465891 0
M  V30 9822 H 914.019 -0.950415 1.81186 0
M  V30 9823 H 914.029 -3.33784 2.34632 0
M  V30 9824 H 912.704 -2.60899 3.2389 0
M  V30 9825 H 911.281 -3.37904 1.57719 0
M  V30 9826 N 913.466 -1.22244 -0.994698 0
M  V30 9827 C 914.714 -1.04384 -1.73056 0
M  V30 9828 C 915.035 0.422204 -1.90374 0
M  V30 9829 O 914.305 1.30383 -1.46209 0
M  V30 9830 H 912.885 -0.383263 -0.641185 0
M  V30 9831 H 915.547 -1.53725 -1.1981 0
M  V30 9832 H 914.643 -1.52021 -2.72573 0
M  V30 9833 N 914.944 1.19125 -1.03184 0
M  V30 9834 C 916.174 1.92558 -0.748663 0
M  V30 9835 C 916.582 1.759 0.696837 0
M  V30 9836 O 915.925 1.08019 1.48585 0
M  V30 9837 C 915.987 3.4461 -1.02391 0
M  V30 9838 C 915.651 3.85041 -2.46155 0
M  V30 9839 C 916.648 3.89554 -3.44302 0
M  V30 9840 C 914.333 4.16594 -2.80633 0
M  V30 9841 C 916.327 4.25055 -4.74981 0
M  V30 9842 C 914.014 4.51767 -4.11521 0
M  V30 9843 C 915.012 4.55972 -5.08506 0
M  V30 9844 O 914.7 4.9033 -6.37049 0
M  V30 9845 H 914.432 0.618397 -0.273059 0
M  V30 9846 H 916.986 1.52122 -1.38015 0
M  V30 9847 H 915.216 3.85244 -0.335284 0
M  V30 9848 H 916.905 3.99283 -0.729927 0
M  V30 9849 H 917.671 3.65324 -3.19003 0
M  V30 9850 H 913.55 4.12503 -2.05821 0
M  V30 9851 H 917.094 4.28252 -5.50678 0
M  V30 9852 H 912.991 4.75455 -4.36592 0
M  V30 9853 H 913.759 5.08266 -6.41566 0
M  V30 9854 N 916.422 0.810101 1.35185 0
M  V30 9855 C 917.647 0.40364 2.03434 0
M  V30 9856 C 918.072 -0.97857 1.60641 0
M  V30 9857 O 917.43 -1.63435 0.784779 0
M  V30 9858 C 917.478 0.499154 3.57129 0
M  V30 9859 O 916.582 -0.486039 4.09526 0
M  V30 9860 H 915.923 0.168049 0.642383 0
M  V30 9861 H 918.453 1.09696 1.72708 0
M  V30 9862 H 918.463 0.370236 4.06317 0
M  V30 9863 H 917.138 1.50733 3.87624 0
M  V30 9864 H 915.715 -0.31707 3.7155 0
M  V30 9865 N 917.9 -1.47166 0.563914 0
M  V30 9866 C 918.832 -2.28165 -0.217583 0
M  V30 9867 C 919.845 -1.37405 -0.873134 0
M  V30 9868 O 921.034 -1.6217 -0.745857 0
M  V30 9869 C 918.134 -3.11873 -1.32621 0
M  V30 9870 C 917.307 -4.30637 -0.766177 0
M  V30 9871 C 916.366 -4.95889 -1.76014 0
M  V30 9872 O 915.392 -5.54071 -1.3036 0
M  V30 9873 N 916.594 -4.91191 -3.09373 0
M  V30 9874 H 919.359 -2.95876 0.477256 0
M  V30 9875 H 916.92 -1.5687 0.40043 0
M  V30 9876 H 918.912 -3.52392 -1.99003 0
M  V30 9877 H 917.482 -2.46361 -1.92419 0
M  V30 9878 H 916.702 -3.94129 0.0745998 0
M  V30 9879 H 917.99 -5.07442 -0.371472 0
M  V30 9880 H 917.388 -4.45133 -3.49104 0
M  V30 9881 H 915.945 -5.35708 -3.71295 0
M  V30 9882 N 919.378 -0.300708 -1.54705 0
M  V30 9883 C 920.626 0.308044 -1.99739 0
M  V30 9884 C 920.947 1.54433 -1.19061 0
M  V30 9885 O 920.217 1.93794 -0.286507 0
M  V30 9886 H 918.797 0.116811 -0.73781 0
M  V30 9887 H 921.459 -0.41197 -1.90496 0
M  V30 9888 H 920.555 0.580287 -3.06658 0
M  V30 9889 N 920.856 1.57574 -0.0284266 0
M  V30 9890 C 922.081 1.96479 0.664137 0
M  V30 9891 C 922.506 0.904826 1.64908 0
M  V30 9892 O 921.864 -0.134339 1.80802 0
M  V30 9893 C 921.912 3.34479 1.34745 0
M  V30 9894 O 921.016 3.30794 2.46271 0
M  V30 9895 H 920.357 0.640654 0.174524 0
M  V30 9896 H 922.887 2.04402 -0.0900729 0
M  V30 9897 H 922.897 3.70694 1.7044 0
M  V30 9898 H 921.572 4.1117 0.625468 0
M  V30 9899 H 920.149 3.06294 2.12693 0
M  V30 9900 N 922.334 -0.244713 1.55689 0
M  V30 9901 C 923.75 -0.593331 1.48161 0
M  V30 9902 C 923.95 -1.88234 0.719047 0
M  V30 9903 O 923.006 -2.51266 0.249292 0
M  V30 9904 C 924.319 -0.694032 2.92581 0
M  V30 9905 C 925.867 -0.786213 3.02965 0
M  V30 9906 C 926.342 -0.918457 4.48696 0
M  V30 9907 N 927.833 -0.983272 4.52643 0
M  V30 9908 C 928.568 -1.1049 5.62654 0
M  V30 9909 N 928.064 -1.19193 6.8247 0
M  V30 9910 N 929.857 -1.13823 5.50455 0
M  V30 9911 H 922.008 0.601446 2.03707 0
M  V30 9912 H 924.271 0.207894 0.924924 0
M  V30 9913 H 923.977 0.183133 3.51223 0
M  V30 9914 H 923.851 -1.56525 3.4319 0
M  V30 9915 H 926.238 -1.65383 2.44402 0
M  V30 9916 H 926.319 0.110202 2.55563 0
M  V30 9917 H 925.963 -0.0553881 5.0787 0
M  V30 9918 H 925.893 -1.82994 4.93782 0
M  V30 9919 H 928.384 -0.927269 3.66347 0
M  V30 9920 H 928.697 -1.28387 7.62061 0
M  V30 9921 H 927.042 -1.16147 6.85226 0
M  V30 9922 H 930.233 -1.06673 4.55783 0
M  V30 9923 H 930.406 -1.22957 6.36228 0
M  V30 9924 N 923.813 -1.49104 -0.510467 0
M  V30 9925 C 925.038 -1.62068 -1.29417 0
M  V30 9926 C 925.463 -0.288432 -1.85875 0
M  V30 9927 O 924.821 0.742667 -1.65391 0
M  V30 9928 C 924.869 -2.68506 -2.40701 0
M  V30 9929 O 923.973 -2.27021 -3.4429 0
M  V30 9930 H 923.314 -0.542778 -0.382476 0
M  V30 9931 H 925.844 -1.95228 -0.612154 0
M  V30 9932 H 925.854 -2.90383 -2.86604 0
M  V30 9933 H 924.529 -3.65216 -1.98973 0
M  V30 9934 H 923.106 -2.15436 -3.04371 0
M  V30 9935 N 925.291 0.760815 -1.38019 0
M  V30 9936 C 926.516 1.55513 -1.37224 0
M  V30 9937 C 926.941 1.88062 0.037611 0
M  V30 9938 O 926.299 1.50042 1.0177 0
M  V30 9939 C 926.347 2.83539 -2.22796 0
M  V30 9940 O 925.451 3.78384 -1.64009 0
M  V30 9941 H 924.792 0.470642 -0.468393 0
M  V30 9942 H 927.322 0.940792 -1.81687 0
M  V30 9943 H 927.332 3.32535 -2.36399 0
M  V30 9944 H 926.007 2.59178 -3.25269 0
M  V30 9945 H 924.584 3.37063 -1.59508 0
M  V30 9946 N 926.769 1.22769 0.988202 0
M  V30 9947 C 928.185 0.988665 1.2529 0
M  V30 9948 C 928.385 -0.314938 1.99024 0
M  V30 9949 O 927.441 -1.03637 2.30251 0
M  V30 9950 C 928.754 2.19046 2.06009 0
M  V30 9951 C 930.302 2.23452 2.19176 0
M  V30 9952 C 930.777 3.43196 3.03283 0
M  V30 9953 N 932.268 3.43387 3.10869 0
M  V30 9954 C 933.003 4.32693 3.7625 0
M  V30 9955 N 932.499 5.32224 4.43519 0
M  V30 9956 N 934.292 4.20457 3.73058 0
M  V30 9957 H 926.443 2.06575 0.494014 0
M  V30 9958 H 928.706 0.905452 0.28082 0
M  V30 9959 H 928.412 3.13607 1.59197 0
M  V30 9960 H 928.286 2.19492 3.06763 0
M  V30 9961 H 930.673 1.29436 2.65199 0
M  V30 9962 H 930.754 2.27042 1.17836 0
M  V30 9963 H 930.398 4.37515 2.57959 0
M  V30 9964 H 930.328 3.36847 4.04774 0
M  V30 9965 H 932.819 2.71368 2.62998 0
M  V30 9966 H 933.132 5.9664 4.91163 0
M  V30 9967 H 931.477 5.36133 4.42252 0
M  V30 9968 H 934.668 3.41949 3.19669 0
M  V30 9969 H 934.841 4.90261 4.23731 0
M  V30 9970 N 928.247 -1.18576 1.03814 0
M  V30 9971 C 929.496 -1.87822 0.735235 0
M  V30 9972 C 929.809 -1.81069 -0.739819 0
M  V30 9973 O 931.015 -2.45654 -1.15614 0
M  V30 9974 C 929.471 -3.36941 1.26486 0
M  V30 9975 C 929.079 -3.5223 2.76836 0
M  V30 9976 C 930.823 -4.11604 1.03836 0
M  V30 9977 C 928.73 -4.95294 3.23169 0
M  V30 9978 H 927.66 -0.703487 0.271333 0
M  V30 9979 H 930.311 -1.34 1.25365 0
M  V30 9980 H 928.693 -3.90217 0.674318 0
M  V30 9981 H 929.867 -3.09239 3.41625 0
M  V30 9982 H 928.182 -2.90969 2.97869 0
M  V30 9983 H 930.779 -5.17123 1.3597 0
M  V30 9984 H 931.122 -4.16293 -0.0244945 0
M  V30 9985 H 931.655 -3.64494 1.59338 0
M  V30 9986 H 928.394 -4.95772 4.28824 0
M  V30 9987 H 927.914 -5.3901 2.63113 0
M  V30 9988 H 929.593 -5.63996 3.17045 0
M  V30 9989 N 929.725 -0.817259 -1.34754 0
M  V30 9990 C 930.972 -0.402648 -1.98457 0
M  V30 9991 C 931.3 1.03287 -1.64809 0
M  V30 9992 O 930.555 1.73316 -0.908851 0
M  V30 9993 C 930.854 -0.5453 -3.53216 0
M  V30 9994 C 930.52 -1.9457 -4.06759 0
M  V30 9995 C 929.182 -2.32881 -4.21094 0
M  V30 9996 C 931.534 -2.86141 -4.35629 0
M  V30 9997 C 928.862 -3.62108 -4.61622 0
M  V30 9998 C 931.214 -4.14826 -4.776 0
M  V30 9999 C 929.878 -4.53121 -4.9014 0
M  V30 10000 H 929.148 -0.147339 -0.726204 0
M  V30 10001 H 931.795 -1.04011 -1.60791 0
M  V30 10002 H 930.1 0.175576 -3.91406 0
M  V30 10003 H 931.797 -0.205112 -4.00475 0
M  V30 10004 H 928.387 -1.6381 -3.96061 0
M  V30 10005 H 932.571 -2.57788 -4.24098 0
M  V30 10006 H 927.827 -3.91613 -4.69521 0
M  V30 10007 H 932.001 -4.85874 -4.98899 0
M  V30 10008 H 929.628 -5.53307 -5.21302 0
M  V30 10009 N 931.203 1.46865 -0.571711 0
M  V30 10010 C 932.614 1.86158 -0.142181 0
M  V30 10011 C 932.965 1.47663 1.2919 0
M  V30 10012 O 932.09 0.886393 1.97413 0
M  V30 10013 C 932.685 3.37867 -0.251256 0
M  V30 10014 C 931.244 3.76198 0.123329 0
M  V30 10015 C 930.391 2.70902 -0.592232 0
M  V30 10016 H 933.342 1.38176 -0.780587 0
M  V30 10017 H 933.363 3.76842 0.526331 0
M  V30 10018 H 932.875 3.65853 -1.2951 0
M  V30 10019 H 930.976 3.53829 1.16773 0
M  V30 10020 H 931.089 4.78471 -0.24533 0
M  V30 10021 H 929.453 2.54678 -0.0336927 0
M  V30 10022 H 930.236 3.01729 -1.63751 0
M  V30 10023 N 932.681 0.308908 1.54543 0
M  V30 10024 C 933.906 -0.303196 2.05172 0
M  V30 10025 C 934.331 -1.46133 1.18434 0
M  V30 10026 O 933.689 -1.803 0.190162 0
M  V30 10027 C 933.737 -0.729526 3.53143 0
M  V30 10028 O 932.841 -1.83348 3.69401 0
M  V30 10029 H 932.182 -0.0575066 0.661505 0
M  V30 10030 H 934.712 0.453055 1.99521 0
M  V30 10031 H 934.722 -1.01619 3.95143 0
M  V30 10032 H 933.397 0.117622 4.15734 0
M  V30 10033 H 931.974 -1.54676 3.39308 0
M  V30 10034 N 934.159 -1.57557 0.0367827 0
M  V30 10035 C 935.089 -2.13712 -0.940719 0
M  V30 10036 C 936.07 -1.05515 -1.33419 0
M  V30 10037 O 937.255 -1.33385 -1.41146 0
M  V30 10038 C 934.385 -2.67043 -2.22048 0
M  V30 10039 C 933.339 -3.80096 -1.96752 0
M  V30 10040 C 932.665 -4.19886 -3.31059 0
M  V30 10041 C 933.965 -5.05848 -1.30058 0
M  V30 10042 H 935.659 -2.9564 -0.473033 0
M  V30 10043 H 933.205 -1.42214 -0.226089 0
M  V30 10044 H 935.158 -3.04964 -2.90818 0
M  V30 10045 H 933.882 -1.82287 -2.70996 0
M  V30 10046 H 932.541 -3.42625 -1.30398 0
M  V30 10047 H 932.189 -3.32101 -3.77781 0
M  V30 10048 H 931.889 -4.96073 -3.14937 0
M  V30 10049 H 933.413 -4.60395 -4.01084 0
M  V30 10050 H 934.827 -5.41306 -1.8884 0
M  V30 10051 H 933.224 -5.87084 -1.24309 0
M  V30 10052 H 934.294 -4.84122 -0.274591 0
M  V30 10053 N 935.637 0.236453 -1.55816 0
M  V30 10054 C 937.053 0.585465 -1.48474 0
M  V30 10055 C 937.253 1.8785 -0.72902 0
M  V30 10056 O 936.309 2.51131 -0.262614 0
M  V30 10057 C 937.622 0.678506 -2.92945 0
M  V30 10058 C 939.17 0.770135 -3.03378 0
M  V30 10059 C 939.645 0.894649 -4.49177 0
M  V30 10060 N 941.136 0.959253 -4.53158 0
M  V30 10061 C 941.871 1.07505 -5.63232 0
M  V30 10062 N 941.367 1.15572 -6.83092 0
M  V30 10063 N 943.16 1.10902 -5.51051 0
M  V30 10064 H 935.311 -0.612241 -2.03385 0
M  V30 10065 H 937.574 -0.212796 -0.923808 0
M  V30 10066 H 937.28 -0.201757 -3.51121 0
M  V30 10067 H 937.154 1.54703 -3.44016 0
M  V30 10068 H 939.541 1.64085 -2.45276 0
M  V30 10069 H 939.622 -0.123753 -2.555 0
M  V30 10070 H 939.266 0.0284537 -5.07892 0
M  V30 10071 H 939.196 1.80373 -4.94745 0
M  V30 10072 H 941.687 0.907827 -3.66834 0
M  V30 10073 H 942 1.24343 -7.62731 0
M  V30 10074 H 940.345 1.12511 -6.85833 0
M  V30 10075 H 943.536 1.04255 -4.56343 0
M  V30 10076 H 943.709 1.19581 -6.36871 0
M  V30 10077 N 937.115 1.49373 0.502552 0
M  V30 10078 C 938.531 1.36101 0.833591 0
M  V30 10079 C 938.731 0.392911 1.97632 0
M  V30 10080 O 937.787 -0.175975 2.51886 0
M  V30 10081 C 939.1 2.76782 1.17526 0
M  V30 10082 C 940.648 2.85471 1.28356 0
M  V30 10083 C 941.123 4.26915 1.65853 0
M  V30 10084 N 942.614 4.29719 1.72905 0
M  V30 10085 C 943.349 5.36127 2.0336 0
M  V30 10086 N 942.845 6.52782 2.32049 0
M  V30 10087 N 944.638 5.23542 2.04598 0
M  V30 10088 H 936.789 2.10912 -0.251008 0
M  V30 10089 H 939.052 0.946696 -0.0497037 0
M  V30 10090 H 938.758 3.49314 0.408965 0
M  V30 10091 H 938.632 3.1205 2.11907 0
M  V30 10092 H 941.019 2.13177 2.04058 0
M  V30 10093 H 941.1 2.53787 0.320304 0
M  V30 10094 H 940.744 4.99735 0.907022 0
M  V30 10095 H 940.674 4.56063 2.63276 0
M  V30 10096 H 943.165 3.45586 1.529 0
M  V30 10097 H 943.478 7.29701 2.54471 0
M  V30 10098 H 941.823 6.56011 2.29509 0
M  V30 10099 H 945.014 4.31413 1.8166 0
M  V30 10100 H 945.187 6.06565 2.27998 0
M  V30 10101 N 938.594 -0.753485 1.38421 0
M  V30 10102 C 939.819 -1.54783 1.38047 0
M  V30 10103 C 940.244 -1.8808 -0.0276371 0
M  V30 10104 O 939.602 -1.5058 -1.00973 0
M  V30 10105 C 939.65 -2.82353 2.24297 0
M  V30 10106 O 938.754 -3.77509 1.66014 0
M  V30 10107 H 938.095 -0.468151 0.470883 0
M  V30 10108 H 940.625 -0.931144 1.82184 0
M  V30 10109 H 940.635 -3.31277 2.38159 0
M  V30 10110 H 939.31 -2.57449 3.26639 0
M  V30 10111 H 937.887 -3.36212 1.61294 0
M  V30 10112 N 940.072 -1.23292 -0.981677 0
M  V30 10113 C 941.318 -1.06582 -1.72535 0
M  V30 10114 C 941.651 0.396538 -1.90108 0
M  V30 10115 O 940.926 1.29363 -1.45243 0
M  V30 10116 C 941.209 -1.7904 -3.12437 0
M  V30 10117 C 941.062 -3.32941 -3.02441 0
M  V30 10118 C 942.381 -1.55185 -4.11832 0
M  V30 10119 H 939.5 -0.388585 -0.626236 0
M  V30 10120 H 942.142 -1.51779 -1.14293 0
M  V30 10121 H 940.292 -1.40619 -3.62158 0
M  V30 10122 H 941.964 -3.80875 -2.60254 0
M  V30 10123 H 940.207 -3.62039 -2.38977 0
M  V30 10124 H 940.878 -3.78827 -4.0149 0
M  V30 10125 H 943.354 -1.88581 -3.70913 0
M  V30 10126 H 942.23 -2.08362 -5.07815 0
M  V30 10127 H 942.491 -0.486925 -4.3941 0
M  V30 10128 N 941.55 1.18024 -1.04442 0
M  V30 10129 C 942.497 2.21785 -0.638759 0
M  V30 10130 C 943.467 1.62255 0.355312 0
M  V30 10131 O 944.652 1.89176 0.24844 0
M  V30 10132 C 941.792 3.45098 -0.0118002 0
M  V30 10133 C 940.905 4.1895 -1.05379 0
M  V30 10134 C 940.04 5.2973 -0.394951 0
M  V30 10135 C 939.079 5.95359 -1.42178 0
M  V30 10136 N 938.216 6.97668 -0.787635 0
M  V30 10137 H 943.056 2.55839 -1.52808 0
M  V30 10138 H 940.593 1.25681 -0.764378 0
M  V30 10139 H 942.551 4.15564 0.369075 0
M  V30 10140 H 941.181 3.11652 0.84102 0
M  V30 10141 H 940.233 3.47274 -1.55258 0
M  V30 10142 H 941.545 4.63877 -1.83355 0
M  V30 10143 H 940.699 6.06687 0.0399244 0
M  V30 10144 H 939.438 4.85915 0.416867 0
M  V30 10145 H 938.443 5.17139 -1.86675 0
M  V30 10146 H 939.668 6.41255 -2.23536 0
M  V30 10147 H 937.614 6.56 0.00380893 0
M  V30 10148 H 937.531 7.40867 -1.50505 0
M  V30 10149 H 938.799 7.78586 -0.377282 0
M  V30 10150 N 943.028 0.824394 1.34319 0
M  V30 10151 C 944.444 0.510336 1.51221 0
M  V30 10152 C 944.644 -0.965201 1.76879 0
M  V30 10153 O 943.7 -1.74961 1.82057 0
M  V30 10154 C 945.013 1.37114 2.6762 0
M  V30 10155 C 946.561 1.36842 2.81502 0
M  V30 10156 C 947.036 2.21374 4.00946 0
M  V30 10157 N 948.527 2.19005 4.08156 0
M  V30 10158 C 949.262 2.81159 4.99737 0
M  V30 10159 N 948.758 3.52309 5.96532 0
M  V30 10160 N 950.551 2.70706 4.9262 0
M  V30 10161 H 942.702 1.77976 1.15924 0
M  V30 10162 H 944.965 0.758503 0.568663 0
M  V30 10163 H 944.671 2.41905 2.55294 0
M  V30 10164 H 944.545 1.03689 3.62669 0
M  V30 10165 H 946.932 0.328284 2.93268 0
M  V30 10166 H 947.013 1.74265 1.87257 0
M  V30 10167 H 946.657 3.25437 3.8994 0
M  V30 10168 H 946.587 1.813 4.94407 0
M  V30 10169 H 949.078 1.67252 3.38874 0
M  V30 10170 H 949.391 3.96977 6.63045 0
M  V30 10171 H 947.736 3.56415 5.96652 0
M  V30 10172 H 950.927 2.14694 4.15962 0
M  V30 10173 H 951.1 3.19431 5.63798 0
M  V30 10174 N 944.506 -1.46559 0.579492 0
M  V30 10175 C 945.454 -2.3199 -0.168413 0
M  V30 10176 C 946.448 -1.44288 -0.887551 0
M  V30 10177 O 947.654 -1.60931 -0.806305 0
M  V30 10178 H 944.029 -0.748431 -0.0731799 0
M  V30 10179 H 946 -2.92886 0.570973 0
M  V30 10180 C 944.749 -3.27392 -1.1709 0
M  V30 10181 H 944.072 -3.94853 -0.626958 0
M  V30 10182 H 945.512 -3.89955 -1.66467 0
M  V30 10183 C 943.971 -2.52511 -2.23024 0
M  V30 10184 O 944.501 -2.2858 -3.30324 0
M  V30 10185 N 942.707 -2.1313 -1.97545 0
M  V30 10186 H 942.254 -2.32793 -1.10297 0
M  V30 10187 H 942.212 -1.63348 -2.68635 0
M  V30 10188 N 945.984 -0.3171 -1.54377 0
M  V30 10189 C 947.209 0.292311 -2.0533 0
M  V30 10190 C 947.634 1.45503 -1.19207 0
M  V30 10191 O 946.992 1.80197 -0.199721 0
M  V30 10192 C 947.04 0.710787 -3.53525 0
M  V30 10193 O 946.144 1.81387 -3.70368 0
M  V30 10194 H 945.485 0.0539976 -0.661801 0
M  V30 10195 H 948.015 -0.463629 -1.99278 0
M  V30 10196 H 948.025 0.995216 -3.95676 0
M  V30 10197 H 946.7 -0.139668 -4.15665 0
M  V30 10198 H 945.277 1.52875 -3.40123 0
M  V30 10199 N 947.462 1.57535 -0.0451378 0
M  V30 10200 C 948.69 1.96761 0.639742 0
M  V30 10201 C 949.105 0.922405 1.64734 0
M  V30 10202 O 948.462 -0.0940535 1.82257 0
M  V30 10203 C 948.513 3.36066 1.33199 0
M  V30 10204 O 948.234 4.36579 0.364757 0
M  V30 10205 C 949.735 3.90015 2.1072 0
M  V30 10206 H 946.955 0.64769 0.175324 0
M  V30 10207 H 949.499 2.04206 -0.109651 0
M  V30 10208 H 947.654 3.2979 2.03266 0
M  V30 10209 H 948.068 5.17432 0.858168 0
M  V30 10210 H 949.542 4.89785 2.54586 0
M  V30 10211 H 950.019 3.25117 2.95288 0
M  V30 10212 H 950.625 3.99609 1.45577 0
M  V30 10213 N 948.94 -0.228186 1.55939 0
M  V30 10214 C 950.186 -0.954964 1.78909 0
M  V30 10215 C 950.519 -1.8425 0.613648 0
M  V30 10216 O 949.794 -1.90604 -0.38737 0
M  V30 10217 C 950.077 -1.79957 3.1191 0
M  V30 10218 C 949.93 -0.938968 4.3989 0
M  V30 10219 C 951.249 -2.77859 3.41295 0
M  V30 10220 H 948.368 -0.345745 0.650868 0
M  V30 10221 H 951.01 -0.224244 1.88672 0
M  V30 10222 H 949.16 -2.42256 3.03717 0
M  V30 10223 H 950.832 -0.333225 4.60095 0
M  V30 10224 H 949.075 -0.244096 4.33113 0
M  V30 10225 H 949.746 -1.56416 5.29375 0
M  V30 10226 H 952.222 -2.25695 3.49572 0
M  V30 10227 H 951.098 -3.34062 4.35538 0
M  V30 10228 H 951.359 -3.55266 2.63132 0
M  V30 10229 N 950.418 -1.49637 -0.494624 0
M  V30 10230 C 951.695 -1.4995 -1.25596 0
M  V30 10231 C 952.075 -0.230805 -2.09834 0
M  V30 10232 O 951.423 0.786625 -2.14533 0
M  V30 10233 C 951.633 -2.78204 -2.10721 0
M  V30 10234 C 952.981 -3.27946 -2.69698 0
M  V30 10235 O 954.005 -2.79365 -2.20984 0
M  V30 10236 O 952.864 -4.12571 -3.58395 0
M  V30 10237 H 949.958 -0.60044 -0.568684 0
M  V30 10238 H 952.504 -1.61906 -0.508371 0
M  V30 10239 H 951.276 -3.62029 -1.48494 0
M  V30 10240 H 950.899 -2.69139 -2.92661 0
M  V30 10241 N 951.896 0.746133 -1.38819 0
M  V30 10242 C 953.136 1.51821 -1.36857 0
M  V30 10243 C 953.5 1.9196 0.0391461 0
M  V30 10244 O 954.701 2.68172 0.183689 0
M  V30 10245 C 952.972 2.73214 -2.3041 0
M  V30 10246 S 954.531 3.62995 -2.46536 0
M  V30 10247 H 951.349 0.51945 -0.485482 0
M  V30 10248 H 953.951 0.875244 -1.74813 0
M  V30 10249 H 952.655 2.41847 -3.31569 0
M  V30 10250 H 952.186 3.42449 -1.9363 0
M  V30 10251 H 954.201 4.66353 -1.69498 0
M  V30 10252 N 953.375 1.23811 0.975125 0
M  V30 10253 C 954.323 1.02149 2.0897 0
M  V30 10254 C 955.317 -0.0412172 1.6935 0
M  V30 10255 O 956.523 0.112726 1.79647 0
M  V30 10256 H 952.898 0.313259 0.683647 0
M  V30 10257 H 954.869 1.96686 2.24404 0
M  V30 10258 C 953.618 0.635023 3.41852 0
M  V30 10259 H 952.941 1.44449 3.72793 0
M  V30 10260 H 954.381 0.52301 4.20762 0
M  V30 10261 C 952.84 -0.657207 3.30428 0
M  V30 10262 O 953.37 -1.70494 3.63723 0
M  V30 10263 N 951.576 -0.635122 2.83575 0
M  V30 10264 H 951.123 0.21784 2.56677 0
M  V30 10265 H 951.081 -1.49995 2.76313 0
M  V30 10266 N 954.853 -1.17469 1.05066 0
M  V30 10267 C 956.101 -1.87327 0.758485 0
M  V30 10268 C 956.422 -1.81358 -0.716549 0
M  V30 10269 O 955.692 -1.23868 -1.51768 0
M  V30 10270 H 954.272 -0.693512 0.277579 0
M  V30 10271 H 956.934 -1.4251 1.32954 0
M  V30 10272 H 956.03 -2.93101 1.0723 0
M  V30 10273 N 956.331 -0.831506 -1.3388 0
M  V30 10274 C 957.577 -0.424302 -1.98312 0
M  V30 10275 C 957.91 1.01211 -1.65741 0
M  V30 10276 O 957.185 1.70636 -0.933464 0
M  V30 10277 C 957.468 -0.636815 -3.54424 0
M  V30 10278 C 957.321 -2.11997 -3.96708 0
M  V30 10279 C 958.64 -0.0782411 -4.4003 0
M  V30 10280 H 955.759 -0.155637 -0.720379 0
M  V30 10281 H 958.401 -1.04566 -1.58638 0
M  V30 10282 H 956.551 -0.107907 -3.8835 0
M  V30 10283 H 958.223 -2.71317 -3.73075 0
M  V30 10284 H 956.466 -2.60723 -3.46707 0
M  V30 10285 H 957.137 -2.21944 -5.05416 0
M  V30 10286 H 959.613 -0.530243 -4.12708 0
M  V30 10287 H 958.489 -0.256676 -5.483 0
M  V30 10288 H 958.75 1.01745 -4.30233 0
M  V30 10289 N 957.809 1.4625 -0.587256 0
M  V30 10290 C 959.055 2.02662 -0.0746851 0
M  V30 10291 C 959.388 1.45723 1.28368 0
M  V30 10292 O 958.663 0.624062 1.84216 0
M  V30 10293 C 958.946 3.60097 -0.0138109 0
M  V30 10294 C 958.799 4.27412 -1.4014 0
M  V30 10295 C 960.118 4.34744 0.684491 0
M  V30 10296 H 957.237 0.736444 -0.0286144 0
M  V30 10297 H 959.879 1.74341 -0.755328 0
M  V30 10298 H 958.029 3.84357 0.56583 0
M  V30 10299 H 959.701 4.14401 -2.02656 0
M  V30 10300 H 957.944 3.86598 -1.96785 0
M  V30 10301 H 958.615 5.362 -1.31124 0
M  V30 10302 H 961.091 4.15657 0.192023 0
M  V30 10303 H 959.967 5.44468 0.696127 0
M  V30 10304 H 960.228 4.06132 1.74669 0
M  V30 10305 N 959.287 0.325282 1.54207 0
M  V30 10306 C 960.512 -0.281418 2.05482 0
M  V30 10307 C 960.937 -1.44869 1.19977 0
M  V30 10308 O 960.295 -1.80088 0.209275 0
M  V30 10309 C 960.343 -0.692029 3.53897 0
M  V30 10310 O 959.447 -1.7942 3.71325 0
M  V30 10311 H 958.788 -0.0504872 0.662078 0
M  V30 10312 H 961.318 0.474191 1.99029 0
M  V30 10313 H 961.328 -0.974219 3.96198 0
M  V30 10314 H 960.003 0.161709 4.15586 0
M  V30 10315 H 958.58 -1.51069 3.40929 0
M  V30 10316 N 960.765 -1.57509 0.0534917 0
M  V30 10317 C 961.695 -2.14698 -0.917999 0
M  V30 10318 C 962.676 -1.06924 -1.32292 0
M  V30 10319 O 963.861 -1.34875 -1.39723 0
M  V30 10320 C 960.991 -2.69383 -2.19203 0
M  V30 10321 C 959.945 -3.82161 -1.9271 0
M  V30 10322 C 959.271 -4.23373 -3.26587 0
M  V30 10323 C 960.571 -5.07199 -1.24686 0
M  V30 10324 H 962.265 -2.96125 -0.44165 0
M  V30 10325 H 959.811 -1.42446 -0.210993 0
M  V30 10326 H 961.764 -3.08031 -2.87567 0
M  V30 10327 H 960.488 -1.85151 -2.69048 0
M  V30 10328 H 959.147 -3.43989 -1.26757 0
M  V30 10329 H 958.795 -3.36089 -3.74237 0
M  V30 10330 H 958.495 -4.99385 -3.09658 0
M  V30 10331 H 960.019 -4.64623 -3.96178 0
M  V30 10332 H 961.433 -5.43279 -1.83088 0
M  V30 10333 H 959.83 -5.88369 -1.18076 0
M  V30 10334 H 960.9 -4.84386 -0.223227 0
M  V30 10335 N 962.243 0.219913 -1.56058 0
M  V30 10336 C 963.492 0.942119 -1.78345 0
M  V30 10337 C 963.805 1.85435 -0.622344 0
M  V30 10338 O 965.011 2.61533 -0.728886 0
M  V30 10339 C 963.467 1.72544 -3.15843 0
M  V30 10340 C 963.075 0.859263 -4.39682 0
M  V30 10341 C 964.819 2.43876 -3.47455 0
M  V30 10342 C 962.726 1.64003 -5.68205 0
M  V30 10343 H 961.656 0.355514 -0.664925 0
M  V30 10344 H 964.307 0.195963 -1.82451 0
M  V30 10345 H 962.689 2.51456 -3.05918 0
M  V30 10346 H 963.863 0.110562 -4.60667 0
M  V30 10347 H 962.178 0.257985 -4.156 0
M  V30 10348 H 964.775 3.02794 -4.40704 0
M  V30 10349 H 965.118 3.16843 -2.7003 0
M  V30 10350 H 965.651 1.71952 -3.58716 0
M  V30 10351 H 962.39 0.953606 -6.48526 0
M  V30 10352 H 961.91 2.3633 -5.51279 0
M  V30 10353 H 963.589 2.20028 -6.08438 0
M  V30 10354 N 963.721 1.49897 0.486681 0
M  V30 10355 C 964.969 1.59789 1.23742 0
M  V30 10356 C 965.29 0.293056 1.92785 0
M  V30 10357 O 964.56 -0.688534 1.83401 0
M  V30 10358 H 963.14 0.588775 0.459731 0
M  V30 10359 H 965.802 1.86597 0.562808 0
M  V30 10360 H 964.898 2.40121 1.9937 0
M  V30 10361 N 965.199 -0.738761 1.39212 0
M  V30 10362 C 966.447 -1.49529 1.35962 0
M  V30 10363 C 966.768 -1.94948 -0.0450152 0
M  V30 10364 O 966.038 -1.68717 -0.995552 0
M  V30 10365 H 964.618 -0.554692 0.500326 0
M  V30 10366 H 967.28 -0.877255 1.74041 0
M  V30 10367 H 966.376 -2.37919 2.01993 0
M  V30 10368 N 966.677 -1.24326 -0.968545 0
M  V30 10369 C 968.088 -1.07561 -1.52603 0
M  V30 10370 C 968.439 0.353245 -1.92994 0
M  V30 10371 O 967.564 1.24151 -1.77244 0
M  V30 10372 C 968.159 -1.94634 -2.77314 0
M  V30 10373 C 966.718 -1.82095 -3.29421 0
M  V30 10374 C 965.865 -1.8962 -2.02335 0
M  V30 10375 H 968.816 -1.37815 -0.786932 0
M  V30 10376 H 968.837 -1.47812 -3.50616 0
M  V30 10377 H 968.349 -2.98621 -2.47885 0
M  V30 10378 H 966.45 -0.809376 -3.63703 0
M  V30 10379 H 966.563 -2.66142 -3.98378 0
M  V30 10380 H 964.927 -1.33339 -2.17009 0
M  V30 10381 H 965.71 -2.95185 -1.75273 0
M  V30 10382 N 968.156 1.1691 -1.05688 0
M  V30 10383 C 969.404 1.86922 -0.768409 0
M  V30 10384 C 969.725 1.81735 0.706921 0
M  V30 10385 O 968.995 1.24671 1.51109 0
M  V30 10386 H 967.575 0.69203 -0.281253 0
M  V30 10387 H 970.237 1.41803 -1.33708 0
M  V30 10388 H 969.333 2.92528 -1.08783 0
M  V30 10389 N 969.634 0.838594 1.33437 0
M  V30 10390 C 970.859 0.446701 2.02532 0
M  V30 10391 C 971.284 -0.944275 1.62681 0
M  V30 10392 O 970.642 -1.61733 0.81927 0
M  V30 10393 C 970.69 0.574794 3.55989 0
M  V30 10394 O 969.794 -0.399063 4.10465 0
M  V30 10395 H 969.135 0.181637 0.638674 0
M  V30 10396 H 971.665 1.13335 1.70342 0
M  V30 10397 H 971.675 0.456339 4.0544 0
M  V30 10398 H 970.35 1.58921 3.8434 0
M  V30 10399 H 968.927 -0.238187 3.72139 0
M  V30 10400 N 971.112 -1.45937 0.595003 0
M  V30 10401 C 972.062 -2.27491 -0.152331 0
M  V30 10402 C 973.046 -1.36591 -0.850396 0
M  V30 10403 O 974.238 -1.60675 -0.742462 0
M  V30 10404 C 971.367 -3.23203 -1.15735 0
M  V30 10405 C 970.453 -4.2159 -0.46077 0
M  V30 10406 N 970.844 -5.03416 0.490555 0
M  V30 10407 C 969.142 -4.40313 -0.709949 0
M  V30 10408 C 969.843 -5.74714 0.898825 0
M  V30 10409 N 968.819 -5.43046 0.24529 0
M  V30 10410 H 972.621 -2.8815 0.578526 0
M  V30 10411 H 970.135 -1.56936 0.417716 0
M  V30 10412 H 972.132 -3.8035 -1.70704 0
M  V30 10413 H 970.792 -2.64104 -1.8889 0
M  V30 10414 H 971.803 -5.10597 0.866692 0
M  V30 10415 H 968.48 -3.92351 -1.42713 0
M  V30 10416 H 969.87 -6.50487 1.68273 0
M  V30 10417 N 972.59 -0.333456 -1.54032 0
M  V30 10418 C 973.839 0.267081 -1.99924 0
M  V30 10419 C 974.152 1.52463 -1.22534 0
M  V30 10420 O 975.358 2.20178 -1.58852 0
M  V30 10421 C 973.814 0.526456 -3.56029 0
M  V30 10422 C 973.422 -0.714607 -4.42264 0
M  V30 10423 C 975.166 1.0864 -4.10363 0
M  V30 10424 C 973.073 -0.42659 -5.89859 0
M  V30 10425 H 972.003 0.103577 -0.746852 0
M  V30 10426 H 974.654 -0.447218 -1.77967 0
M  V30 10427 H 973.036 1.3012 -3.74012 0
M  V30 10428 H 974.21 -1.48968 -4.36056 0
M  V30 10429 H 972.525 -1.19547 -3.9887 0
M  V30 10430 H 975.122 1.31668 -5.18235 0
M  V30 10431 H 975.465 2.03884 -3.62956 0
M  V30 10432 H 975.998 0.37261 -3.96051 0
M  V30 10433 H 972.737 -1.34847 -6.4148 0
M  V30 10434 H 972.257 0.310588 -5.98995 0
M  V30 10435 H 973.936 -0.0400807 -6.46988 0
M  V30 10436 N 974.068 1.57479 -0.061844 0
M  V30 10437 C 975.316 1.92727 0.608336 0
M  V30 10438 C 975.637 0.941799 1.70749 0
M  V30 10439 O 974.907 -0.0116608 1.95897 0
M  V30 10440 H 973.487 0.71145 0.2277 0
M  V30 10441 H 976.149 1.94546 -0.117359 0
M  V30 10442 H 975.245 2.9426 1.04007 0
M  V30 10443 N 975.546 -0.211634 1.56173 0
M  V30 10444 C 976.794 -0.932704 1.7929 0
M  V30 10445 C 977.115 -1.84472 0.632076 0
M  V30 10446 O 976.385 -1.92739 -0.350519 0
M  V30 10447 H 974.965 -0.347393 0.661307 0
M  V30 10448 H 977.627 -0.22111 1.93642 0
M  V30 10449 H 976.723 -1.53365 2.71819 0
M  V30 10450 N 977.024 -1.50153 -0.478725 0
M  V30 10451 C 978.44 -1.3741 -0.811833 0
M  V30 10452 C 978.64 -0.424303 -1.96982 0
M  V30 10453 O 977.696 0.13588 -2.52134 0
M  V30 10454 C 979.009 -2.78616 -1.13108 0
M  V30 10455 C 980.557 -2.87477 -1.23798 0
M  V30 10456 C 981.032 -4.295 -1.5904 0
M  V30 10457 N 982.523 -4.32415 -1.66047 0
M  V30 10458 C 983.258 -5.39295 -1.94805 0
M  V30 10459 N 982.754 -6.56392 -2.21635 0
M  V30 10460 N 984.547 -5.26731 -1.96243 0
M  V30 10461 H 976.698 -2.10486 0.284531 0
M  V30 10462 H 978.961 -0.945786 0.0647585 0
M  V30 10463 H 978.667 -3.49921 -0.35334 0
M  V30 10464 H 978.541 -3.15382 -2.06915 0
M  V30 10465 H 980.928 -2.16396 -2.00641 0
M  V30 10466 H 981.009 -2.54264 -0.279888 0
M  V30 10467 H 980.653 -5.01115 -0.827404 0
M  V30 10468 H 980.583 -4.60194 -2.55987 0
M  V30 10469 H 983.074 -3.47975 -1.47383 0
M  V30 10470 H 983.387 -7.33658 -2.4283 0
M  V30 10471 H 981.732 -6.59579 -2.19043 0
M  V30 10472 H 984.923 -4.34249 -1.74773 0
M  V30 10473 H 985.096 -6.10115 -2.1832 0
M  V30 10474 N 978.502 0.731368 -1.39602 0
M  V30 10475 C 979.432 1.85855 -1.41351 0
M  V30 10476 C 980.413 1.67839 -0.2764 0
M  V30 10477 O 981.598 1.88104 -0.482747 0
M  V30 10478 C 978.728 3.23644 -1.25983 0
M  V30 10479 C 977.682 3.56304 -2.37132 0
M  V30 10480 C 977.008 4.93069 -2.0685 0
M  V30 10481 C 978.308 3.58906 -3.79452 0
M  V30 10482 H 980.002 1.84648 -2.3568 0
M  V30 10483 H 977.548 0.886955 -1.13442 0
M  V30 10484 H 979.501 4.02176 -1.25826 0
M  V30 10485 H 978.225 3.25387 -0.281234 0
M  V30 10486 H 976.884 2.80104 -2.36511 0
M  V30 10487 H 976.532 4.91396 -1.0742 0
M  V30 10488 H 976.232 5.15888 -2.81306 0
M  V30 10489 H 977.756 5.73953 -2.0835 0
M  V30 10490 H 979.17 4.27508 -3.81982 0
M  V30 10491 H 977.567 3.93246 -4.53297 0
M  V30 10492 H 978.637 2.58631 -4.10168 0
M  V30 10493 N 979.98 1.24838 0.961938 0
M  V30 10494 C 980.91 1.07053 2.07514 0
M  V30 10495 C 981.891 -0.0182465 1.7009 0
M  V30 10496 O 983.076 0.149915 1.9362 0
M  V30 10497 C 980.206 0.680693 3.40564 0
M  V30 10498 C 979.16 1.71889 3.91967 0
M  V30 10499 C 978.486 1.18395 5.21428 0
M  V30 10500 C 979.786 3.1161 4.19161 0
M  V30 10501 H 981.48 2.00167 2.22651 0
M  V30 10502 H 979.026 0.963799 1.0699 0
M  V30 10503 H 980.979 0.54324 4.17884 0
M  V30 10504 H 979.703 -0.28615 3.25344 0
M  V30 10505 H 978.362 1.84465 3.16809 0
M  V30 10506 H 978.01 0.207543 5.02572 0
M  V30 10507 H 977.71 1.87778 5.56788 0
M  V30 10508 H 979.234 1.05873 6.01351 0
M  V30 10509 H 980.648 3.0223 4.87165 0
M  V30 10510 H 979.045 3.78398 4.65763 0
M  V30 10511 H 980.115 3.59218 3.25715 0
M  V30 10512 N 981.458 -1.16348 1.06306 0
M  V30 10513 C 982.869 -1.68491 0.80422 0
M  V30 10514 C 983.22 -1.84327 -0.672159 0
M  V30 10515 O 982.345 -1.53892 -1.52139 0
M  V30 10516 C 982.94 -3.06048 1.45328 0
M  V30 10517 C 981.499 -3.55311 1.24221 0
M  V30 10518 C 980.646 -2.31291 1.5297 0
M  V30 10519 H 983.597 -1.00708 1.22652 0
M  V30 10520 H 983.618 -3.70451 0.868674 0
M  V30 10521 H 983.13 -2.9449 2.52779 0
M  V30 10522 H 981.231 -3.72128 0.187447 0
M  V30 10523 H 981.344 -4.37397 1.95502 0
M  V30 10524 H 979.708 -2.3631 0.950241 0
M  V30 10525 H 980.491 -2.22331 2.6158 0
M  V30 10526 N 982.937 -0.845659 -1.3299 0
M  V30 10527 C 983.847 -0.2864 -2.32845 0
M  V30 10528 C 984.863 0.591105 -1.63652 0
M  V30 10529 O 986.039 0.493615 -1.95257 0
M  V30 10530 C 983.104 0.523636 -3.42723 0
M  V30 10531 C 982.165 -0.378945 -4.27624 0
M  V30 10532 C 981.398 0.392526 -5.32255 0
M  V30 10533 O 981.621 1.6235 -5.46808 0
M  V30 10534 O 980.555 -0.237 -6.01433 0
M  V30 10535 H 984.381 -1.11346 -2.82552 0
M  V30 10536 H 981.966 -0.608356 -1.36453 0
M  V30 10537 H 983.848 0.983718 -4.09757 0
M  V30 10538 H 982.523 1.32764 -2.95221 0
M  V30 10539 H 981.43 -0.887012 -3.63432 0
M  V30 10540 H 982.763 -1.1479 -4.78627 0
M  V30 10541 N 984.415 1.45619 -0.602734 0
M  V30 10542 C 985.378 2.28941 0.108962 0
M  V30 10543 C 986.378 1.39501 0.799762 0
M  V30 10544 O 987.568 1.61673 0.648663 0
M  V30 10545 C 984.7 3.204 1.16432 0
M  V30 10546 H 985.893 2.93346 -0.623534 0
M  V30 10547 H 983.446 1.52061 -0.361565 0
M  V30 10548 H 984.181 2.60785 1.92774 0
M  V30 10549 H 983.966 3.86277 0.673248 0
M  V30 10550 H 985.456 3.83063 1.6629 0
M  V30 10551 N 985.893 0.34162 1.53853 0
M  V30 10552 C 987.121 -0.256929 2.05299 0
M  V30 10553 C 987.536 -1.44366 1.21671 0
M  V30 10554 O 986.893 -1.80758 0.251584 0
M  V30 10555 C 986.944 -0.673854 3.55164 0
M  V30 10556 O 986.665 0.465687 4.35618 0
M  V30 10557 C 988.166 -1.33332 4.22773 0
M  V30 10558 H 985.386 -0.0499445 0.669139 0
M  V30 10559 H 987.93 0.493048 1.98467 0
M  V30 10560 H 986.085 -1.37378 3.62224 0
M  V30 10561 H 986.499 0.133723 5.2433 0
M  V30 10562 H 987.973 -1.57582 5.29029 0
M  V30 10563 H 988.45 -2.28628 3.75001 0
M  V30 10564 H 989.056 -0.675489 4.19901 0
M  V30 10565 N 987.371 -1.57444 0.0701946 0
M  V30 10566 C 988.599 -1.97754 -0.608358 0
M  V30 10567 C 989.014 -0.948496 -1.63245 0
M  V30 10568 O 988.371 0.065046 -1.82384 0
M  V30 10569 C 988.422 -3.38142 -1.27836 0
M  V30 10570 O 988.143 -4.37104 -0.295255 0
M  V30 10571 C 989.644 -3.93318 -2.04489 0
M  V30 10572 H 986.864 -0.650398 -0.164997 0
M  V30 10573 H 989.408 -2.04006 0.142124 0
M  V30 10574 H 987.563 -3.32982 -1.97994 0
M  V30 10575 H 987.977 -5.18732 -0.77574 0
M  V30 10576 H 989.451 -4.93774 -2.46762 0
M  V30 10577 H 989.928 -3.29774 -2.90079 0
M  V30 10578 H 990.534 -4.01875 -1.39201 0
M  V30 10579 N 988.849 0.203349 -1.56283 0
M  V30 10580 C 989.759 1.27266 -1.9708 0
M  V30 10581 C 990.775 1.50268 -0.877236 0
M  V30 10582 O 991.951 1.63044 -1.18231 0
M  V30 10583 C 989.016 2.59871 -2.29495 0
M  V30 10584 C 988.077 2.45012 -3.52516 0
M  V30 10585 C 987.31 3.71293 -3.83376 0
M  V30 10586 O 987.533 4.75106 -3.15643 0
M  V30 10587 O 986.467 3.67316 -4.76826 0
M  V30 10588 H 990.293 0.956461 -2.88246 0
M  V30 10589 H 987.878 0.407688 -1.4373 0
M  V30 10590 H 989.76 3.38152 -2.51458 0
M  V30 10591 H 988.435 2.91135 -1.415 0
M  V30 10592 H 987.342 1.6487 -3.35811 0
M  V30 10593 H 988.675 2.18683 -4.40952 0
M  V30 10594 N 990.327 1.50405 0.470755 0
M  V30 10595 C 991.573 1.6165 1.22462 0
M  V30 10596 C 991.906 0.316034 1.91611 0
M  V30 10597 O 991.181 -0.682509 1.82132 0
M  V30 10598 C 991.464 2.79702 2.26801 0
M  V30 10599 C 991.317 4.19631 1.61955 0
M  V30 10600 C 992.636 2.93313 3.28109 0
M  V30 10601 H 989.755 0.588345 0.443868 0
M  V30 10602 H 992.397 1.82792 0.518376 0
M  V30 10603 H 990.547 2.61807 2.87036 0
M  V30 10604 H 992.219 4.49117 1.05316 0
M  V30 10605 H 990.462 4.23874 0.922674 0
M  V30 10606 H 991.133 4.98162 2.37779 0
M  V30 10607 H 993.609 3.09697 2.77897 0
M  V30 10608 H 992.485 3.77537 3.98443 0
M  V30 10609 H 992.746 2.03942 3.9225 0
M  V30 10610 N 991.805 -0.723954 1.39988 0
M  V30 10611 C 992.715 -1.86829 1.41887 0
M  V30 10612 C 993.731 -1.71173 0.312401 0
M  V30 10613 O 994.907 -1.93583 0.555651 0
M  V30 10614 C 991.972 -3.22541 1.27154 0
M  V30 10615 C 991.033 -3.50512 2.47871 0
M  V30 10616 C 990.266 -4.79749 2.33831 0
M  V30 10617 O 990.489 -5.54251 1.34765 0
M  V30 10618 O 989.423 -5.07868 3.23039 0
M  V30 10619 H 993.249 -1.88183 2.38371 0
M  V30 10620 H 990.834 -0.873259 1.21221 0
M  V30 10621 H 992.716 -4.0362 1.21114 0
M  V30 10622 H 991.391 -3.21933 0.337715 0
M  V30 10623 H 990.298 -2.69475 2.59488 0
M  V30 10624 H 991.631 -3.55909 3.39985 0
M  V30 10625 N 993.283 -1.25346 -0.955304 0
M  V30 10626 C 994.532 -1.0945 -1.69421 0
M  V30 10627 C 994.845 0.364459 -1.92175 0
M  V30 10628 O 996.051 0.643843 -2.63755 0
M  V30 10629 C 994.507 -1.91045 -3.05008 0
M  V30 10630 C 994.115 -3.41428 -2.90053 0
M  V30 10631 C 995.859 -1.83716 -3.82686 0
M  V30 10632 C 993.766 -4.1532 -4.21026 0
M  V30 10633 H 992.696 -0.405978 -0.635372 0
M  V30 10634 H 995.347 -1.49536 -1.06354 0
M  V30 10635 H 993.729 -1.43781 -3.68975 0
M  V30 10636 H 994.903 -3.9636 -2.35022 0
M  V30 10637 H 993.218 -3.49842 -2.25831 0
M  V30 10638 H 995.815 -2.36217 -4.79693 0
M  V30 10639 H 996.158 -0.804919 -4.08444 0
M  V30 10640 H 996.691 -2.28726 -3.25468 0
M  V30 10641 H 993.43 -5.18955 -4.00457 0
M  V30 10642 H 992.95 -3.65172 -4.75825 0
M  V30 10643 H 994.629 -4.22999 -4.89572 0
M  V30 10644 N 994.761 1.15782 -1.06922 0
M  V30 10645 C 995.708 2.2038 -0.685659 0
M  V30 10646 C 996.678 1.62972 0.320816 0
M  V30 10647 O 997.863 1.8966 0.208258 0
M  V30 10648 C 995.003 3.44995 -0.084998 0
M  V30 10649 C 994.116 4.16621 -1.14242 0
M  V30 10650 C 993.251 5.28773 -0.507226 0
M  V30 10651 C 992.29 5.92209 -1.54774 0
M  V30 10652 N 991.427 6.9584 -0.935443 0
M  V30 10653 H 996.267 2.5254 -1.58201 0
M  V30 10654 H 993.804 1.24031 -0.790864 0
M  V30 10655 H 995.762 4.16254 0.280845 0
M  V30 10656 H 994.392 3.13365 0.774725 0
M  V30 10657 H 993.444 3.43903 -1.62589 0
M  V30 10658 H 994.756 4.59884 -1.93154 0
M  V30 10659 H 993.91 6.06635 -0.0887719 0
M  V30 10660 H 992.649 4.8669 0.313704 0
M  V30 10661 H 991.654 5.13063 -1.97602 0
M  V30 10662 H 992.879 6.3637 -2.37088 0
M  V30 10663 H 990.825 6.5586 -0.135339 0
M  V30 10664 H 990.742 7.37508 -1.66186 0
M  V30 10665 H 992.01 7.77611 -0.542346 0
M  V30 10666 N 996.239 0.8527 1.3254 0
M  V30 10667 C 997.186 0.293905 2.28921 0
M  V30 10668 C 998.156 -0.598027 1.54961 0
M  V30 10669 O 999.341 -0.533355 1.83194 0
M  V30 10670 C 996.481 -0.513361 3.4126 0
M  V30 10671 C 995.594 0.404144 4.30105 0
M  V30 10672 C 994.729 -0.415564 5.29572 0
M  V30 10673 C 993.768 0.499461 6.10059 0
M  V30 10674 N 992.905 -0.282949 7.0153 0
M  V30 10675 H 997.745 1.12107 2.76109 0
M  V30 10676 H 995.282 0.564272 1.35847 0
M  V30 10677 H 997.24 -0.997008 4.05112 0
M  V30 10678 H 995.87 -1.30537 2.95229 0
M  V30 10679 H 994.922 1.00617 3.66852 0
M  V30 10680 H 996.234 1.10648 4.86373 0
M  V30 10681 H 995.388 -0.962458 5.99017 0
M  V30 10682 H 994.127 -1.15127 4.73917 0
M  V30 10683 H 993.132 1.05825 5.39519 0
M  V30 10684 H 994.357 1.23375 6.67799 0
M  V30 10685 H 992.303 -1.00179 6.48306 0
M  V30 10686 H 992.22 0.36039 7.55141 0
M  V30 10687 H 993.488 -0.811632 7.75263 0
M  V30 10688 N 997.718 -1.45297 0.610449 0
M  V30 10689 C 998.665 -2.30553 -0.106718 0
M  V30 10690 C 999.635 -1.42272 -0.85719 0
M  V30 10691 O 1000.82 -1.71199 -0.842357 0
M  V30 10692 C 997.96 -3.27226 -1.09623 0
M  V30 10693 C 997.073 -4.3061 -0.346329 0
M  V30 10694 C 996.208 -5.14389 -1.32581 0
M  V30 10695 C 995.247 -6.09497 -0.563892 0
M  V30 10696 N 994.384 -6.86047 -1.4928 0
M  V30 10697 H 999.224 -2.91344 0.626296 0
M  V30 10698 H 996.761 -1.43563 0.32065 0
M  V30 10699 H 998.719 -3.81744 -1.68308 0
M  V30 10700 H 997.349 -2.68182 -1.79662 0
M  V30 10701 H 996.401 -3.7873 0.356084 0
M  V30 10702 H 997.713 -4.98183 0.248026 0
M  V30 10703 H 996.867 -5.73321 -1.98464 0
M  V30 10704 H 995.606 -4.4684 -1.9541 0
M  V30 10705 H 994.611 -5.49693 0.108551 0
M  V30 10706 H 995.836 -6.79074 0.0593872 0
M  V30 10707 H 993.782 -6.21185 -2.10868 0
M  V30 10708 H 993.699 -7.49983 -0.951953 0
M  V30 10709 H 994.967 -7.49518 -2.14112 0
M  V30 10710 N 999.196 -0.349774 -1.5367 0
M  V30 10711 C 1000.44 0.244343 -2.00617 0
M  V30 10712 C 1000.76 1.50567 -1.23914 0
M  V30 10713 O 1000.03 1.92784 -0.348016 0
M  V30 10714 H 998.615 0.0932792 -0.741153 0
M  V30 10715 H 1001.28 -0.472367 -1.89089 0
M  V30 10716 H 1000.37 0.482433 -3.08349 0
M  V30 10717 N 1000.67 1.57404 -0.0785433 0
M  V30 10718 C 1002.08 1.81118 0.45311 0
M  V30 10719 C 1002.44 0.992963 1.69218 0
M  V30 10720 O 1001.56 0.217448 2.15305 0
M  V30 10721 C 1002.16 3.28506 0.82882 0
M  V30 10722 C 1000.71 3.53042 1.3053 0
M  V30 10723 C 999.862 2.75739 0.29378 0
M  V30 10724 H 1002.81 1.55758 -0.304171 0
M  V30 10725 H 1002.83 3.40924 1.68971 0
M  V30 10726 H 1002.35 3.88031 -0.0731826 0
M  V30 10727 H 1000.45 2.98829 2.22558 0
M  V30 10728 H 1000.56 4.61724 1.27857 0
M  V30 10729 H 998.924 2.42703 0.772477 0
M  V30 10730 H 999.707 3.38005 -0.600613 0
M  V30 10731 N 1002.15 -0.195058 1.56388 0
M  V30 10732 C 1003.4 -0.913636 1.8027 0
M  V30 10733 C 1003.72 -1.83791 0.651606 0
M  V30 10734 O 1002.99 -1.931 -0.330057 0
M  V30 10735 H 1001.57 -0.34036 0.664954 0
M  V30 10736 H 1004.23 -0.200559 1.93865 0
M  V30 10737 H 1003.33 -1.50473 2.7343 0
M  V30 10738 N 1003.63 -1.50653 -0.462772 0
M  V30 10739 C 1004.85 -1.66103 -1.24196 0
M  V30 10740 C 1005.28 -0.347421 -1.84864 0
M  V30 10741 O 1004.64 0.689673 -1.6767 0
M  V30 10742 C 1004.69 -2.76027 -2.32037 0
M  V30 10743 O 1003.79 -2.37859 -3.36893 0
M  V30 10744 H 1003.13 -0.554672 -0.365014 0
M  V30 10745 H 1005.66 -1.97076 -0.549734 0
M  V30 10746 H 1005.67 -2.99354 -2.77221 0
M  V30 10747 H 1004.35 -3.71361 -1.87253 0
M  V30 10748 H 1002.92 -2.2501 -2.97363 0
M  V30 10749 N 1005.11 0.71652 -1.4037 0
M  V30 10750 C 1006.04 1.84345 -1.43315 0
M  V30 10751 C 1007.02 1.67537 -0.294186 0
M  V30 10752 O 1008.2 1.87582 -0.502671 0
M  V30 10753 C 1005.33 3.2229 -1.29408 0
M  V30 10754 C 1004.29 3.53769 -2.40897 0
M  V30 10755 C 1003.61 4.90847 -2.12068 0
M  V30 10756 C 1004.91 3.54862 -3.83237 0
M  V30 10757 H 1006.61 1.82138 -2.37626 0
M  V30 10758 H 1004.15 0.874873 -1.14376 0
M  V30 10759 H 1006.11 4.00819 -1.30085 0
M  V30 10760 H 1004.83 3.2507 -0.31573 0
M  V30 10761 H 1003.49 2.77579 -2.39469 0
M  V30 10762 H 1003.14 4.90229 -1.12626 0
M  V30 10763 H 1002.84 5.12875 -2.86762 0
M  V30 10764 H 1004.36 5.71711 -2.14426 0
M  V30 10765 H 1005.78 4.23432 -3.86494 0
M  V30 10766 H 1004.17 3.88416 -4.57442 0
M  V30 10767 H 1005.24 2.54266 -4.12888 0
M  V30 10768 N 1006.59 1.25851 0.948643 0
M  V30 10769 C 1007.52 1.09248 2.06367 0
M  V30 10770 C 1008.5 -0.000205168 1.701 0
M  V30 10771 O 1009.68 0.170442 1.93451 0
M  V30 10772 C 1006.81 0.716777 3.39823 0
M  V30 10773 C 1005.77 1.76036 3.90122 0
M  V30 10774 C 1005.09 1.23918 5.20143 0
M  V30 10775 C 1006.39 3.16039 4.15833 0
M  V30 10776 H 1008.09 2.02518 2.20515 0
M  V30 10777 H 1005.63 0.975093 1.05962 0
M  V30 10778 H 1007.59 0.587531 4.17284 0
M  V30 10779 H 1006.31 -0.251626 3.25629 0
M  V30 10780 H 1004.97 1.87815 3.14835 0
M  V30 10781 H 1004.62 0.260836 5.02323 0
M  V30 10782 H 1004.32 1.93673 5.54765 0
M  V30 10783 H 1005.84 1.12245 6.00194 0
M  V30 10784 H 1007.25 3.0738 4.83933 0
M  V30 10785 H 1005.65 3.83317 4.61723 0
M  V30 10786 H 1006.72 3.62652 3.21887 0
M  V30 10787 N 1008.06 -1.15214 1.07534 0
M  V30 10788 C 1009.31 -1.86319 0.800814 0
M  V30 10789 C 1009.64 -1.82221 -0.671494 0
M  V30 10790 O 1008.92 -1.24664 -1.49295 0
M  V30 10791 C 1009.2 -3.35347 1.31203 0
M  V30 10792 C 1009.05 -3.48067 2.84902 0
M  V30 10793 C 1010.37 -4.3016 0.930064 0
M  V30 10794 H 1007.49 -0.676523 0.292379 0
M  V30 10795 H 1010.13 -1.35349 1.33344 0
M  V30 10796 H 1008.28 -3.78886 0.858949 0
M  V30 10797 H 1009.96 -3.13379 3.38514 0
M  V30 10798 H 1008.2 -2.89566 3.23008 0
M  V30 10799 H 1008.87 -4.52782 3.15741 0
M  V30 10800 H 1011.35 -3.94591 1.3205 0
M  V30 10801 H 1010.22 -5.32914 1.31507 0
M  V30 10802 H 1010.48 -4.41796 -0.163824 0
M  V30 10803 N 1009.54 -0.859717 -1.32086 0
M  V30 10804 C 1010.77 -0.478865 -2.01796 0
M  V30 10805 C 1011.19 0.918274 -1.64163 0
M  V30 10806 O 1010.55 1.60409 -0.844896 0
M  V30 10807 C 1010.6 -0.631356 -3.5503 0
M  V30 10808 O 1009.7 0.333712 -4.11048 0
M  V30 10809 H 1009.04 -0.191775 -0.635703 0
M  V30 10810 H 1011.57 -1.16031 -1.68517 0
M  V30 10811 H 1011.58 -0.520783 -4.04663 0
M  V30 10812 H 1010.26 -1.65015 -3.81763 0
M  V30 10813 H 1008.84 0.178953 -3.7247 0
M  V30 10814 N 1011.02 1.44971 -0.618145 0
M  V30 10815 C 1011.95 2.27748 0.143561 0
M  V30 10816 C 1012.93 1.37768 0.863642 0
M  V30 10817 O 1014.12 1.67203 0.870373 0
M  V30 10818 C 1011.24 3.16394 1.20883 0
M  V30 10819 C 1010.29 4.22389 0.590724 0
M  V30 10820 S 1011.12 5.32021 -0.609406 0
M  V30 10821 C 1012.28 6.24235 0.456199 0
M  V30 10822 H 1012.51 2.92003 -0.558699 0
M  V30 10823 H 1010.04 1.48968 -0.40595 0
M  V30 10824 H 1012 3.6802 1.81855 0
M  V30 10825 H 1010.66 2.51384 1.88322 0
M  V30 10826 H 1009.86 4.84379 1.3926 0
M  V30 10827 H 1009.46 3.73958 0.055917 0
M  V30 10828 H 1011.75 6.64269 1.33238 0
M  V30 10829 H 1012.69 7.07985 -0.127794 0
M  V30 10830 H 1013.1 5.59137 0.776269 0
M  V30 10831 N 1012.5 0.357919 1.53482 0
M  V30 10832 C 1013.78 -0.290164 1.93436 0
M  V30 10833 C 1014.16 -1.67039 1.29079 0
M  V30 10834 O 1013.5 -2.24085 0.447017 0
M  V30 10835 C 1013.71 -0.348055 3.4726 0
M  V30 10836 C 1015.06 -0.59206 4.20452 0
M  V30 10837 O 1016.09 -0.429581 3.536 0
M  V30 10838 O 1014.94 -0.907855 5.38907 0
M  V30 10839 H 1012.04 -0.172312 0.80885 0
M  V30 10840 H 1014.58 0.410144 1.64669 0
M  V30 10841 H 1013.36 0.619953 3.86358 0
M  V30 10842 H 1012.98 -1.09457 3.82237 0
M  V30 10843 N 1013.98 -1.5736 0.0868897 0
M  V30 10844 C 1014.91 -2.10582 -0.904858 0
M  V30 10845 C 1015.92 -1.04124 -1.25148 0
M  V30 10846 O 1017.11 -1.31595 -1.20603 0
M  V30 10847 C 1014.21 -2.56381 -2.21635 0
M  V30 10848 C 1013.38 -3.86581 -2.04631 0
M  V30 10849 C 1012.44 -4.18313 -3.19219 0
M  V30 10850 O 1011.47 -4.87669 -2.93544 0
M  V30 10851 N 1012.67 -3.73061 -4.44754 0
M  V30 10852 H 1015.44 -2.96297 -0.450352 0
M  V30 10853 H 1013 -1.616 -0.0984376 0
M  V30 10854 H 1014.99 -2.7466 -2.97227 0
M  V30 10855 H 1013.56 -1.75721 -2.58536 0
M  V30 10856 H 1012.78 -3.77532 -1.13417 0
M  V30 10857 H 1014.07 -4.71777 -1.90537 0
M  V30 10858 H 1013.46 -3.1706 -4.68497 0
M  V30 10859 H 1012.02 -3.96511 -5.17322 0
M  V30 10860 N 1015.45 0.186762 -1.56489 0
M  V30 10861 C 1016.38 1.23395 -1.98232 0
M  V30 10862 C 1017.37 1.4702 -0.855526 0
M  V30 10863 O 1018.55 1.58616 -1.12048 0
M  V30 10864 C 1015.68 2.57635 -2.32898 0
M  V30 10865 C 1014.63 2.48607 -3.48394 0
M  V30 10866 C 1013.96 3.87196 -3.68759 0
M  V30 10867 C 1015.26 2.00398 -4.82325 0
M  V30 10868 H 1016.95 0.887026 -2.85958 0
M  V30 10869 H 1014.5 0.42525 -1.37578 0
M  V30 10870 H 1016.45 3.31082 -2.60696 0
M  V30 10871 H 1015.18 2.94084 -1.42064 0
M  V30 10872 H 1013.84 1.77615 -3.207 0
M  V30 10873 H 1013.48 4.21012 -2.75241 0
M  V30 10874 H 1013.18 3.82029 -4.46462 0
M  V30 10875 H 1014.71 4.62253 -3.98941 0
M  V30 10876 H 1016.12 2.6361 -5.091 0
M  V30 10877 H 1014.52 2.06214 -5.63556 0
M  V30 10878 H 1015.59 0.957562 -4.75351 0
M  V30 10879 N 1016.93 1.50896 0.454776 0
M  V30 10880 C 1017.9 1.70377 1.53312 0
M  V30 10881 C 1018.9 0.57408 1.50203 0
M  V30 10882 O 1020.09 0.841374 1.52534 0
M  V30 10883 C 1017.22 1.74411 2.92905 0
M  V30 10884 H 1018.41 2.66599 1.37349 0
M  V30 10885 H 1015.96 1.40622 0.68228 0
M  V30 10886 H 1016.7 0.799408 3.14293 0
M  V30 10887 H 1016.48 2.56496 2.96568 0
M  V30 10888 H 1017.97 1.91382 3.71164 0
M  V30 10889 N 1018.41 -0.709066 1.40748 0
M  V30 10890 C 1019.64 -1.50313 1.42901 0
M  V30 10891 C 1020.06 -1.88072 0.032213 0
M  V30 10892 O 1019.42 -1.53716 -0.96131 0
M  V30 10893 C 1019.47 -2.75074 2.33166 0
M  V30 10894 O 1018.57 -3.72036 1.7794 0
M  V30 10895 H 1017.91 -0.452934 0.485538 0
M  V30 10896 H 1020.44 -0.872712 1.85054 0
M  V30 10897 H 1020.45 -3.23532 2.48578 0
M  V30 10898 H 1019.13 -2.46927 3.34664 0
M  V30 10899 H 1017.7 -3.30911 1.71908 0
M  V30 10900 N 1019.89 -1.26353 -0.941956 0
M  V30 10901 C 1021.12 -1.1446 -1.71996 0
M  V30 10902 C 1021.53 0.302957 -1.86759 0
M  V30 10903 O 1020.87 1.2193 -1.374 0
M  V30 10904 C 1020.93 -1.73986 -3.14593 0
M  V30 10905 C 1020.6 -3.23078 -3.23217 0
M  V30 10906 C 1021.59 -4.19905 -3.06554 0
M  V30 10907 C 1019.28 -3.63526 -3.46632 0
M  V30 10908 C 1021.27 -5.55159 -3.13172 0
M  V30 10909 C 1018.96 -4.98914 -3.52886 0
M  V30 10910 C 1019.96 -5.9454 -3.36172 0
M  V30 10911 O 1019.65 -7.27462 -3.42132 0
M  V30 10912 H 1019.38 -0.399453 -0.545356 0
M  V30 10913 H 1021.93 -1.67455 -1.18945 0
M  V30 10914 H 1020.16 -1.15453 -3.69063 0
M  V30 10915 H 1021.85 -1.57011 -3.74302 0
M  V30 10916 H 1022.62 -3.89995 -2.88321 0
M  V30 10917 H 1018.5 -2.8958 -3.58698 0
M  V30 10918 H 1022.04 -6.29777 -3.00044 0
M  V30 10919 H 1017.94 -5.28485 -3.70639 0
M  V30 10920 H 1018.7 -7.35725 -3.5868 0
M  V30 10921 N 1021.37 1.14642 -1.08144 0
M  V30 10922 C 1022.62 1.8525 -0.807885 0
M  V30 10923 C 1022.94 1.83194 0.668213 0
M  V30 10924 O 1022.21 1.27848 1.48431 0
M  V30 10925 H 1020.79 0.685909 -0.295868 0
M  V30 10926 H 1023.45 1.38935 -1.36686 0
M  V30 10927 H 1022.54 2.90155 -1.14964 0
M  V30 10928 N 1022.85 0.866709 1.31628 0
M  V30 10929 C 1024.26 0.558188 1.49521 0
M  V30 10930 C 1024.46 -0.90844 1.7986 0
M  V30 10931 O 1023.52 -1.6908 1.87531 0
M  V30 10932 C 1024.83 1.45559 2.63122 0
M  V30 10933 C 1026.38 1.45728 2.77006 0
M  V30 10934 C 1026.85 2.34017 3.937 0
M  V30 10935 N 1028.34 2.31879 4.00982 0
M  V30 10936 C 1029.08 2.96915 4.90539 0
M  V30 10937 N 1028.58 3.71109 5.85021 0
M  V30 10938 N 1030.37 2.86241 4.83759 0
M  V30 10939 H 1022.52 1.81574 1.10203 0
M  V30 10940 H 1024.78 0.77621 0.544244 0
M  V30 10941 H 1024.49 2.49904 2.47469 0
M  V30 10942 H 1024.36 1.15174 3.59186 0
M  V30 10943 H 1026.75 0.421419 2.92075 0
M  V30 10944 H 1026.83 1.80134 1.81619 0
M  V30 10945 H 1026.47 3.37678 3.79389 0
M  V30 10946 H 1026.4 1.96937 4.88388 0
M  V30 10947 H 1028.9 1.77948 3.33381 0
M  V30 10948 H 1029.21 4.1787 6.5008 0
M  V30 10949 H 1027.55 3.75217 5.8501 0
M  V30 10950 H 1030.74 2.27819 4.08921 0
M  V30 10951 H 1030.92 3.37206 5.5335 0
M  V30 10952 N 1024.32 -1.44642 0.625825 0
M  V30 10953 C 1025.27 -2.30653 -0.082259 0
M  V30 10954 C 1026.24 -1.43174 -0.842052 0
M  V30 10955 O 1027.43 -1.72082 -0.824151 0
M  V30 10956 C 1024.57 -3.2837 -1.06146 0
M  V30 10957 C 1023.68 -4.30953 -0.300638 0
M  V30 10958 C 1022.81 -5.15766 -1.27118 0
M  V30 10959 C 1021.85 -6.10061 -0.499215 0
M  V30 10960 N 1020.99 -6.87591 -1.41995 0
M  V30 10961 H 1025.83 -2.90664 0.657161 0
M  V30 10962 H 1023.37 -1.43215 0.335859 0
M  V30 10963 H 1025.32 -3.83507 -1.6425 0
M  V30 10964 H 1023.95 -2.70072 -1.76807 0
M  V30 10965 H 1023.01 -3.78331 0.396234 0
M  V30 10966 H 1024.32 -4.97892 0.300851 0
M  V30 10967 H 1023.47 -5.75394 -1.92372 0
M  V30 10968 H 1022.21 -4.48888 -1.9066 0
M  V30 10969 H 1021.22 -5.49547 0.166848 0
M  V30 10970 H 1022.44 -6.78973 0.131409 0
M  V30 10971 H 1020.39 -6.23387 -2.04267 0
M  V30 10972 H 1020.3 -7.5095 -0.872354 0
M  V30 10973 H 1021.57 -7.51746 -2.0615 0
M  V30 10974 N 1025.8 -0.366053 -1.5329 0
M  V30 10975 C 1027.08 0.279902 -1.93587 0
M  V30 10976 C 1027.46 1.66352 -1.29963 0
M  V30 10977 O 1026.81 2.23845 -0.458895 0
M  V30 10978 C 1027.02 0.329634 -3.4744 0
M  V30 10979 C 1028.36 0.569754 -4.2076 0
M  V30 10980 O 1029.39 0.410823 -3.53823 0
M  V30 10981 O 1028.25 0.879262 -5.3938 0
M  V30 10982 H 1025.34 0.16802 -0.809752 0
M  V30 10983 H 1027.89 -0.418871 -1.64449 0
M  V30 10984 H 1026.66 -0.640434 -3.86023 0
M  V30 10985 H 1026.28 1.07428 -3.82812 0
M  V30 10986 N 1027.28 1.57312 -0.0952337 0
M  V30 10987 C 1028.7 1.57445 0.261416 0
M  V30 10988 C 1028.9 1.10639 1.68408 0
M  V30 10989 O 1027.95 0.782912 2.40056 0
M  V30 10990 C 1029.26 3.00659 0.0497206 0
M  V30 10991 C 1030.81 3.1278 0.117459 0
M  V30 10992 C 1031.29 4.57952 -0.0662441 0
M  V30 10993 N 1032.78 4.63199 -0.0114146 0
M  V30 10994 C 1033.51 5.73255 -0.128799 0
M  V30 10995 N 1033.01 6.92146 -0.301026 0
M  V30 10996 N 1034.8 5.62056 -0.0700599 0
M  V30 10997 H 1026.95 1.86045 -1.02475 0
M  V30 10998 H 1029.22 0.858726 -0.401614 0
M  V30 10999 H 1028.92 3.39102 -0.932888 0
M  V30 11000 H 1028.8 3.68792 0.791975 0
M  V30 11001 H 1031.18 2.74209 1.09057 0
M  V30 11002 H 1031.26 2.47238 -0.656288 0
M  V30 11003 H 1030.91 4.97217 -1.03623 0
M  V30 11004 H 1030.84 5.21555 0.727198 0
M  V30 11005 H 1033.33 3.77712 0.119154 0
M  V30 11006 H 1033.64 7.71855 -0.382104 0
M  V30 11007 H 1031.99 6.94184 -0.336695 0
M  V30 11008 H 1035.18 4.68057 0.0633587 0
M  V30 11009 H 1035.35 6.4779 -0.164991 0
M  V30 11010 N 1028.76 -0.17846 1.56586 0
M  V30 11011 C 1030.01 -0.894502 1.8078 0
M  V30 11012 C 1030.32 -1.8372 0.67129 0
M  V30 11013 O 1031.53 -2.59509 0.797971 0
M  V30 11014 C 1029.98 -1.64109 3.20306 0
M  V30 11015 C 1029.59 -0.742387 4.41806 0
M  V30 11016 C 1031.33 -2.34578 3.53798 0
M  V30 11017 C 1029.24 -1.4888 5.72354 0
M  V30 11018 H 1028.17 -0.33776 0.674117 0
M  V30 11019 H 1030.82 -0.14752 1.82906 0
M  V30 11020 H 1029.2 -2.43257 3.12477 0
M  V30 11021 H 1030.38 0.011615 4.60799 0
M  V30 11022 H 1028.69 -0.147705 4.16138 0
M  V30 11023 H 1031.29 -2.91004 4.48577 0
M  V30 11024 H 1031.63 -3.09572 2.78336 0
M  V30 11025 H 1032.17 -1.62381 3.63149 0
M  V30 11026 H 1028.9 -0.781325 6.50827 0
M  V30 11027 H 1028.42 -2.21631 5.57351 0
M  V30 11028 H 1030.1 -2.03819 6.14058 0
M  V30 11029 N 1030.24 -1.51135 -0.446768 0
M  V30 11030 C 1031.18 -1.72328 -1.56224 0
M  V30 11031 C 1032.18 -0.589411 -1.58815 0
M  V30 11032 O 1033.38 -0.770554 -1.62673 0
M  V30 11033 H 1029.76 -0.544339 -0.518844 0
M  V30 11034 H 1031.73 -2.65851 -1.3552 0
M  V30 11035 C 1030.48 -1.85686 -2.93966 0
M  V30 11036 H 1029.8 -2.72336 -2.927 0
M  V30 11037 H 1031.24 -2.0453 -3.71407 0
M  V30 11038 C 1029.7 -0.614328 -3.31252 0
M  V30 11039 O 1030.23 0.235369 -4.0101 0
M  V30 11040 N 1028.44 -0.461181 -2.86917 0
M  V30 11041 H 1027.98 -1.15369 -2.30321 0
M  V30 11042 H 1027.94 0.368966 -3.12227 0
M  V30 11043 N 1031.71 0.701592 -1.41122 0
M  V30 11044 C 1032.94 1.49553 -1.43696 0
M  V30 11045 C 1033.36 1.88053 -0.0421865 0
M  V30 11046 O 1032.72 1.54223 0.953144 0
M  V30 11047 C 1032.77 2.73834 -2.34622 0
M  V30 11048 O 1031.87 3.71088 -1.7991 0
M  V30 11049 H 1031.21 0.450352 -0.487933 0
M  V30 11050 H 1033.74 0.862886 -1.85514 0
M  V30 11051 H 1033.75 3.22209 -2.5029 0
M  V30 11052 H 1032.43 2.45149 -3.35969 0
M  V30 11053 H 1031.01 3.29994 -1.73661 0
M  V30 11054 N 1033.19 1.2685 0.935242 0
M  V30 11055 C 1034.44 1.12132 1.67658 0
M  V30 11056 C 1034.75 -0.333839 1.9273 0
M  V30 11057 O 1035.96 -0.601801 2.64746 0
M  V30 11058 C 1034.42 1.95873 3.0193 0
M  V30 11059 C 1034.02 3.46 2.84584 0
M  V30 11060 C 1035.77 1.89781 3.79715 0
M  V30 11061 C 1033.67 4.21966 4.14365 0
M  V30 11062 H 1032.6 0.416035 0.628833 0
M  V30 11063 H 1035.26 1.51209 1.03962 0
M  V30 11064 H 1033.64 1.49633 3.66641 0
M  V30 11065 H 1034.81 4.00049 2.28687 0
M  V30 11066 H 1033.13 3.53391 2.20236 0
M  V30 11067 H 1035.72 2.43819 4.75875 0
M  V30 11068 H 1036.07 0.869797 4.07112 0
M  V30 11069 H 1036.6 2.33875 3.21788 0
M  V30 11070 H 1033.34 5.2526 3.9215 0
M  V30 11071 H 1032.86 3.72696 4.69955 0
M  V30 11072 H 1034.54 4.30734 4.82781 0
M  V30 11073 N 1034.67 -1.14067 1.0875 0
M  V30 11074 C 1035.6 -2.18306 0.664652 0
M  V30 11075 C 1036.58 -1.59312 -0.325359 0
M  V30 11076 O 1037.77 -1.87111 -0.228385 0
M  V30 11077 C 1034.89 -3.38693 -0.0218723 0
M  V30 11078 C 1033.94 -4.16263 0.928844 0
M  V30 11079 S 1034.77 -4.76817 2.43734 0
M  V30 11080 C 1035.93 -6.00557 1.76302 0
M  V30 11081 H 1036.16 -2.53837 1.54772 0
M  V30 11082 H 1033.69 -1.25254 0.902817 0
M  V30 11083 H 1035.65 -4.0843 -0.411686 0
M  V30 11084 H 1034.31 -3.01478 -0.881481 0
M  V30 11085 H 1033.51 -5.02446 0.395446 0
M  V30 11086 H 1033.11 -3.52146 1.25972 0
M  V30 11087 H 1035.4 -6.68788 1.08301 0
M  V30 11088 H 1036.34 -6.58492 2.60373 0
M  V30 11089 H 1036.75 -5.50827 1.23489 0
M  V30 11090 N 1036.15 -0.873678 -1.31166 0
M  V30 11091 C 1037.37 -0.500242 -2.01277 0
M  V30 11092 C 1037.8 0.900811 -1.65127 0
M  V30 11093 O 1037.16 1.59504 -0.861862 0
M  V30 11094 C 1037.2 -0.668976 -3.5434 0
M  V30 11095 O 1036.31 0.290096 -4.11378 0
M  V30 11096 H 1035.65 -0.198507 -0.633633 0
M  V30 11097 H 1038.18 -1.17811 -1.67277 0
M  V30 11098 H 1038.19 -0.563673 -4.04088 0
M  V30 11099 H 1036.86 -1.69055 -3.79991 0
M  V30 11100 H 1035.44 0.139437 -3.72639 0
M  V30 11101 N 1037.63 1.44308 -0.633487 0
M  V30 11102 C 1038.87 2.02322 -0.139123 0
M  V30 11103 C 1039.21 1.49733 1.23667 0
M  V30 11104 O 1038.48 0.682353 1.82138 0
M  V30 11105 C 1038.76 3.59871 -0.128366 0
M  V30 11106 C 1038.62 4.22737 -1.53667 0
M  V30 11107 C 1039.94 4.36702 0.545834 0
M  V30 11108 H 1037.05 0.735161 -0.0520293 0
M  V30 11109 H 1039.7 1.7185 -0.810411 0
M  V30 11110 H 1037.85 3.85963 0.443263 0
M  V30 11111 H 1039.52 4.07744 -2.15737 0
M  V30 11112 H 1037.76 3.80142 -2.08985 0
M  V30 11113 H 1038.43 5.31757 -1.48116 0
M  V30 11114 H 1040.91 4.16057 0.0596879 0
M  V30 11115 H 1039.78 5.46407 0.522557 0
M  V30 11116 H 1040.05 4.11483 1.6166 0
M  V30 11117 N 1039.1 0.374177 1.53094 0
M  V30 11118 C 1040.35 -0.213131 2.01677 0
M  V30 11119 C 1040.68 -1.47715 1.26071 0
M  V30 11120 O 1039.96 -1.91199 0.356834 0
M  V30 11121 C 1040.24 -0.496392 3.56662 0
M  V30 11122 C 1040.09 0.781859 4.42953 0
M  V30 11123 C 1041.41 -1.29339 4.20666 0
M  V30 11124 H 1038.53 -0.0759885 0.733072 0
M  V30 11125 H 1041.17 0.500765 1.83282 0
M  V30 11126 H 1039.32 -1.10455 3.72467 0
M  V30 11127 H 1041 1.41914 4.38928 0
M  V30 11128 H 1039.24 1.40041 4.10574 0
M  V30 11129 H 1039.91 0.538508 5.49367 0
M  V30 11130 H 1042.39 -0.778848 4.08746 0
M  V30 11131 H 1041.26 -1.46033 5.29118 0
M  V30 11132 H 1041.52 -2.30435 3.77296 0
M  V30 11133 N 1040.58 -1.57259 0.103575 0
M  V30 11134 C 1041.81 -1.99 -0.566275 0
M  V30 11135 C 1042.23 -0.982909 -1.61197 0
M  V30 11136 O 1041.58 0.026345 -1.82481 0
M  V30 11137 C 1041.63 -3.40778 -1.20635 0
M  V30 11138 O 1041.35 -4.37632 -0.202472 0
M  V30 11139 C 1042.86 -3.97567 -1.961 0
M  V30 11140 H 1040.08 -0.653751 -0.151164 0
M  V30 11141 H 1042.62 -2.03658 0.185365 0
M  V30 11142 H 1040.77 -3.37107 -1.90886 0
M  V30 11143 H 1041.19 -5.2026 -0.665535 0
M  V30 11144 H 1042.66 -4.98897 -2.36233 0
M  V30 11145 H 1043.14 -3.35853 -2.83018 0
M  V30 11146 H 1043.75 -4.04737 -1.30645 0
M  V30 11147 N 1042.06 0.170153 -1.56679 0
M  V30 11148 C 1043.01 1.22997 -1.9742 0
M  V30 11149 C 1044 1.45762 -0.863117 0
M  V30 11150 O 1045.21 1.46328 -1.04824 0
M  V30 11151 H 1041.58 0.413482 -0.628122 0
M  V30 11152 H 1043.55 0.859502 -2.85754 0
M  V30 11153 C 1042.3 2.5615 -2.35122 0
M  V30 11154 H 1041.63 2.39456 -3.20158 0
M  V30 11155 H 1043.07 3.28991 -2.67471 0
M  V30 11156 C 1041.53 3.14992 -1.19507 0
M  V30 11157 O 1042.06 3.98781 -0.483357 0
M  V30 11158 N 1040.26 2.74098 -0.965332 0
M  V30 11159 H 1039.81 2.06062 -1.54585 0
M  V30 11160 H 1039.77 3.13803 -0.193611 0
M  V30 11161 N 1043.54 1.5137 0.438746 0
M  V30 11162 C 1044.77 1.67774 1.21077 0
M  V30 11163 C 1045.18 0.374489 1.85049 0
M  V30 11164 O 1044.54 -0.646867 1.70651 0
M  V30 11165 C 1044.59 2.79238 2.29584 0
M  V30 11166 O 1044.31 4.04513 1.68228 0
M  V30 11167 C 1045.81 3.06898 3.19888 0
M  V30 11168 H 1043.03 0.563054 0.364981 0
M  V30 11169 H 1045.58 1.97777 0.520035 0
M  V30 11170 H 1043.73 2.51837 2.94375 0
M  V30 11171 H 1044.14 4.66405 2.3993 0
M  V30 11172 H 1045.62 3.88476 3.92162 0
M  V30 11173 H 1046.1 2.19249 3.80561 0
M  V30 11174 H 1046.7 3.35952 2.60799 0
M  V30 11175 N 1045.02 -0.694098 1.41492 0
M  V30 11176 C 1045.95 -1.82042 1.46229 0
M  V30 11177 C 1046.93 -1.67047 0.320803 0
M  V30 11178 O 1048.11 -1.86758 0.53245 0
M  V30 11179 C 1045.24 -3.2019 1.34519 0
M  V30 11180 C 1044.2 -3.49892 2.46495 0
M  V30 11181 C 1043.52 -4.87411 2.1985 0
M  V30 11182 C 1044.82 -3.4872 3.88834 0
M  V30 11183 H 1046.52 -1.78335 2.40493 0
M  V30 11184 H 1044.06 -0.856566 1.15754 0
M  V30 11185 H 1046.02 -3.98699 1.36445 0
M  V30 11186 H 1044.74 -3.24527 0.367406 0
M  V30 11187 H 1043.4 -2.73734 2.43854 0
M  V30 11188 H 1043.05 -4.88375 1.20411 0
M  V30 11189 H 1042.75 -5.08248 2.94885 0
M  V30 11190 H 1044.27 -5.68228 2.23494 0
M  V30 11191 H 1045.68 -4.1723 3.93182 0
M  V30 11192 H 1044.08 -3.81089 4.63564 0
M  V30 11193 H 1045.15 -2.47665 4.16881 0
M  V30 11194 N 1046.49 -1.27344 -0.928501 0
M  V30 11195 C 1047.74 -1.13804 -1.67859 0
M  V30 11196 C 1048.07 0.31555 -1.91619 0
M  V30 11197 O 1047.35 1.23087 -1.50599 0
M  V30 11198 C 1047.63 -1.9213 -3.04562 0
M  V30 11199 C 1047.48 -3.45468 -2.88048 0
M  V30 11200 C 1048.8 -1.72513 -4.04879 0
M  V30 11201 H 1045.92 -0.414796 -0.609191 0
M  V30 11202 H 1048.56 -1.5649 -1.07753 0
M  V30 11203 H 1046.71 -1.55853 -3.55868 0
M  V30 11204 H 1048.39 -3.9157 -2.43865 0
M  V30 11205 H 1046.63 -3.71849 -2.23407 0
M  V30 11206 H 1047.3 -3.95515 -3.85061 0
M  V30 11207 H 1049.78 -2.04143 -3.62581 0
M  V30 11208 H 1048.65 -2.29713 -4.98521 0
M  V30 11209 H 1048.91 -0.672856 -4.3695 0
M  V30 11210 N 1047.97 1.13488 -1.09353 0
M  V30 11211 C 1048.88 2.2248 -0.744307 0
M  V30 11212 C 1049.9 1.72145 0.253404 0
M  V30 11213 O 1051.07 2.01176 0.0949339 0
M  V30 11214 C 1048.14 3.46286 -0.16928 0
M  V30 11215 C 1047.2 4.11516 -1.22284 0
M  V30 11216 C 1046.43 5.29412 -0.675161 0
M  V30 11217 O 1046.66 5.68185 0.502182 0
M  V30 11218 O 1045.59 5.8467 -1.42983 0
M  V30 11219 H 1049.42 2.54723 -1.65378 0
M  V30 11220 H 1047 1.21607 -0.867879 0
M  V30 11221 H 1048.88 4.2114 0.14811 0
M  V30 11222 H 1047.56 3.15745 0.713214 0
M  V30 11223 H 1046.47 3.38492 -1.59292 0
M  V30 11224 H 1047.8 4.46186 -2.07796 0
M  V30 11225 N 1049.45 0.880621 1.30701 0
M  V30 11226 C 1050.36 0.348034 2.32004 0
M  V30 11227 C 1051.38 -0.547508 1.65162 0
M  V30 11228 O 1052.55 -0.441673 1.96497 0
M  V30 11229 C 1049.62 -0.432585 3.43991 0
M  V30 11230 C 1048.68 0.492189 4.26469 0
M  V30 11231 C 1047.91 -0.25127 5.33108 0
M  V30 11232 O 1048.14 -1.47795 5.5092 0
M  V30 11233 O 1047.07 0.396376 6.00593 0
M  V30 11234 H 1050.9 1.18798 2.79501 0
M  V30 11235 H 1048.48 0.64432 1.34792 0
M  V30 11236 H 1050.36 -0.874733 4.12221 0
M  V30 11237 H 1049.04 -1.2489 2.98637 0
M  V30 11238 H 1047.94 0.983058 3.60953 0
M  V30 11239 H 1049.28 1.27439 4.75416 0
M  V30 11240 N 1050.93 -1.4397 0.641131 0
M  V30 11241 C 1051.86 -2.33458 -0.04446 0
M  V30 11242 C 1052.84 -1.48781 -0.824507 0
M  V30 11243 O 1054.03 -1.77477 -0.788397 0
M  V30 11244 C 1051.16 -3.31989 -1.01984 0
M  V30 11245 C 1050.11 -4.2656 -0.350745 0
M  V30 11246 C 1049.44 -5.15036 -1.43673 0
M  V30 11247 C 1050.74 -5.16897 0.749299 0
M  V30 11248 H 1052.43 -2.91034 0.702832 0
M  V30 11249 H 1049.98 -1.39942 0.339435 0
M  V30 11250 H 1051.93 -3.93483 -1.50828 0
M  V30 11251 H 1050.65 -2.72643 -1.79815 0
M  V30 11252 H 1049.31 -3.66413 0.117139 0
M  V30 11253 H 1048.96 -4.52037 -2.20617 0
M  V30 11254 H 1048.66 -5.79125 -0.994358 0
M  V30 11255 H 1050.18 -5.79403 -1.92678 0
M  V30 11256 H 1051.6 -5.7227 0.343534 0
M  V30 11257 H 1049.99 -5.89643 1.11541 0
M  V30 11258 H 1051.06 -4.5731 1.61232 0
M  V30 11259 N 1052.41 -0.382291 -1.52893 0
M  V30 11260 C 1053.32 0.463745 -2.29971 0
M  V30 11261 C 1054.33 1.07777 -1.36602 0
M  V30 11262 O 1055.51 1.0851 -1.69669 0
M  V30 11263 C 1052.57 1.57938 -3.08637 0
M  V30 11264 C 1051.64 0.991182 -4.17701 0
M  V30 11265 C 1050.87 2.05365 -4.92606 0
M  V30 11266 O 1051.09 3.26757 -4.67532 0
M  V30 11267 O 1050.03 1.67487 -5.78128 0
M  V30 11268 H 1053.85 -0.163962 -3.03257 0
M  V30 11269 H 1051.44 -0.146199 -1.48683 0
M  V30 11270 H 1053.32 2.22765 -3.57706 0
M  V30 11271 H 1051.99 2.19218 -2.3817 0
M  V30 11272 H 1050.9 0.306364 -3.72843 0
M  V30 11273 H 1052.23 0.422699 -4.90382 0
M  V30 11274 N 1053.89 1.57202 -0.111913 0
M  V30 11275 C 1054.8 2.18475 0.854753 0
M  V30 11276 C 1055.81 1.15888 1.29792 0
M  V30 11277 O 1056.99 1.48329 1.36237 0
M  V30 11278 C 1054.05 2.76645 2.0897 0
M  V30 11279 C 1053.11 3.94244 1.69913 0
M  V30 11280 C 1052.35 4.49631 2.8752 0
M  V30 11281 O 1052.57 4.03926 4.02741 0
M  V30 11282 O 1051.5 5.40417 2.65015 0
M  V30 11283 H 1055.33 3.01519 0.363352 0
M  V30 11284 H 1052.91 1.4897 0.113329 0
M  V30 11285 H 1054.8 3.13755 2.81311 0
M  V30 11286 H 1053.47 1.96637 2.5713 0
M  V30 11287 H 1052.38 3.61915 0.947013 0
M  V30 11288 H 1053.71 4.75666 1.26501 0
M  V30 11289 N 1055.36 -0.161842 1.56767 0
M  V30 11290 C 1056.59 -0.896274 1.87034 0
M  V30 11291 C 1057.01 -1.74617 0.699314 0
M  V30 11292 O 1056.37 -1.77861 -0.351435 0
M  V30 11293 C 1056.42 -1.74105 3.15784 0
M  V30 11294 O 1055.52 -2.84372 2.98674 0
M  V30 11295 H 1054.86 -0.250523 0.614926 0
M  V30 11296 H 1057.39 -0.157127 2.03996 0
M  V30 11297 H 1057.4 -2.13907 3.4743 0
M  V30 11298 H 1056.08 -1.11684 4.00624 0
M  V30 11299 H 1054.66 -2.48084 2.78404 0
M  V30 11300 N 1056.84 -1.516 -0.430713 0
M  V30 11301 C 1057.77 -1.69594 -1.54177 0
M  V30 11302 C 1058.79 -0.576518 -1.5225 0
M  V30 11303 O 1059.98 -0.85104 -1.56906 0
M  V30 11304 C 1057.08 -1.70148 -2.93092 0
M  V30 11305 C 1056.25 -2.98782 -3.1945 0
M  V30 11306 C 1055.31 -2.91435 -4.38123 0
M  V30 11307 O 1054.33 -3.65372 -4.36454 0
M  V30 11308 N 1055.54 -2.0774 -5.42056 0
M  V30 11309 H 1058.3 -2.65442 -1.39143 0
M  V30 11310 H 1055.86 -1.49569 -0.61974 0
M  V30 11311 H 1057.85 -1.62793 -3.70514 0
M  V30 11312 H 1056.42 -0.818667 -3.0169 0
M  V30 11313 H 1055.64 -3.19954 -2.30267 0
M  V30 11314 H 1056.93 -3.83919 -3.33892 0
M  V30 11315 H 1056.33 -1.47059 -5.46251 0
M  V30 11316 H 1054.89 -2.06259 -6.18305 0
M  V30 11317 N 1058.32 0.686584 -1.41858 0
M  V30 11318 C 1059.74 0.998283 -1.24525 0
M  V30 11319 C 1059.94 2.01006 -0.141007 0
M  V30 11320 O 1058.99 2.47667 0.491648 0
M  V30 11321 C 1060.3 1.51432 -2.59786 0
M  V30 11322 C 1061.85 1.6327 -2.67043 0
M  V30 11323 C 1062.33 2.18274 -4.02642 0
M  V30 11324 N 1063.82 2.25622 -4.04535 0
M  V30 11325 C 1064.55 2.69229 -5.06264 0
M  V30 11326 N 1064.05 3.12375 -6.1838 0
M  V30 11327 N 1065.84 2.68873 -4.93623 0
M  V30 11328 H 1057.99 0.0164825 -2.12394 0
M  V30 11329 H 1060.26 0.0698613 -0.945422 0
M  V30 11330 H 1059.96 0.845426 -3.41388 0
M  V30 11331 H 1059.84 2.49502 -2.82894 0
M  V30 11332 H 1062.22 2.29269 -1.85794 0
M  V30 11333 H 1062.3 0.637221 -2.47736 0
M  V30 11334 H 1061.95 1.52887 -4.84343 0
M  V30 11335 H 1061.88 3.18591 -4.19294 0
M  V30 11336 H 1064.37 1.95186 -3.23591 0
M  V30 11337 H 1064.68 3.44301 -6.91864 0
M  V30 11338 H 1063.03 3.10262 -6.21902 0
M  V30 11339 H 1066.22 2.34521 -4.05114 0
M  V30 11340 H 1066.39 3.02539 -5.7304 0
M  V30 11341 N 1059.8 1.27835 0.921735 0
M  V30 11342 C 1060.74 1.11075 2.02314 0
M  V30 11343 C 1061.71 0.0101195 1.66097 0
M  V30 11344 O 1062.9 0.173564 1.90009 0
M  V30 11345 C 1060.04 0.770251 3.36394 0
M  V30 11346 C 1059.15 1.94912 3.8553 0
M  V30 11347 C 1058.29 1.54996 5.08084 0
M  V30 11348 C 1057.33 2.69595 5.49531 0
M  V30 11349 N 1056.46 2.30227 6.6328 0
M  V30 11350 H 1061.3 2.05319 2.15982 0
M  V30 11351 H 1058.84 1.022 1.058 0
M  V30 11352 H 1060.8 0.553624 4.1351 0
M  V30 11353 H 1059.43 -0.135238 3.22517 0
M  V30 11354 H 1058.48 2.27811 3.04641 0
M  V30 11355 H 1059.79 2.80858 4.12214 0
M  V30 11356 H 1058.95 1.29493 5.9272 0
M  V30 11357 H 1057.69 0.661676 4.83191 0
M  V30 11358 H 1056.69 2.95806 4.63442 0
M  V30 11359 H 1057.92 3.59054 5.76417 0
M  V30 11360 H 1055.86 1.43858 6.40032 0
M  V30 11361 H 1055.78 3.09711 6.89649 0
M  V30 11362 H 1057.05 2.07987 7.5124 0
M  V30 11363 N 1061.28 -1.12907 1.09954 0
M  V30 11364 C 1062.52 -1.8595 0.848643 0
M  V30 11365 C 1062.88 -1.81897 -0.614621 0
M  V30 11366 O 1064.08 -2.50233 -0.981667 0
M  V30 11367 C 1062.35 -3.29859 1.3758 0
M  V30 11368 S 1063.91 -4.20333 1.25959 0
M  V30 11369 H 1060.73 -0.641404 0.306793 0
M  V30 11370 H 1063.33 -1.36045 1.40399 0
M  V30 11371 H 1062.03 -3.30365 2.43489 0
M  V30 11372 H 1061.57 -3.84827 0.816806 0
M  V30 11373 H 1063.58 -4.95738 0.214038 0
M  V30 11374 N 1062.75 -0.88754 -1.30232 0
M  V30 11375 C 1064.16 -0.55745 -1.78184 0
M  V30 11376 C 1064.52 0.926474 -1.72948 0
M  V30 11377 O 1063.64 1.72403 -1.3079 0
M  V30 11378 C 1064.24 -1.00512 -3.23547 0
M  V30 11379 C 1062.79 -0.726402 -3.69324 0
M  V30 11380 C 1061.94 -1.18666 -2.50627 0
M  V30 11381 H 1064.89 -1.07151 -1.17066 0
M  V30 11382 H 1064.91 -0.335185 -3.79021 0
M  V30 11383 H 1064.43 -2.08517 -3.27326 0
M  V30 11384 H 1062.53 0.341548 -3.71031 0
M  V30 11385 H 1062.64 -1.31575 -4.60679 0
M  V30 11386 H 1061 -0.605936 -2.47387 0
M  V30 11387 H 1061.79 -2.2745 -2.57141 0
M  V30 11388 N 1064.23 1.43628 -0.648757 0
M  V30 11389 C 1065.64 1.85142 -0.24066 0
M  V30 11390 C 1065.99 1.54304 1.21181 0
M  V30 11391 O 1065.12 0.989792 1.92437 0
M  V30 11392 C 1065.71 3.3606 -0.429999 0
M  V30 11393 C 1064.27 3.76323 -0.0762588 0
M  V30 11394 C 1063.42 2.67382 -0.734999 0
M  V30 11395 H 1066.37 1.33844 -0.852734 0
M  V30 11396 H 1066.39 3.79102 0.325836 0
M  V30 11397 H 1065.9 3.58474 -1.48721 0
M  V30 11398 H 1064.01 3.59521 0.978529 0
M  V30 11399 H 1064.12 4.76498 -0.498612 0
M  V30 11400 H 1062.48 2.54141 -0.168644 0
M  V30 11401 H 1063.27 2.92625 -1.79515 0
M  V30 11402 N 1065.71 0.390394 1.52688 0
M  V30 11403 C 1066.95 -0.191207 2.03504 0
M  V30 11404 C 1067.31 -1.43952 1.27051 0
M  V30 11405 O 1068.52 -2.09835 1.67996 0
M  V30 11406 C 1066.79 -0.451552 3.54536 0
M  V30 11407 S 1068.35 -1.00328 4.27176 0
M  V30 11408 H 1065.16 -0.0537587 0.708965 0
M  V30 11409 H 1067.77 0.538993 1.87923 0
M  V30 11410 H 1066.47 0.464061 4.07768 0
M  V30 11411 H 1066 -1.21015 3.74325 0
M  V30 11412 H 1068.02 -2.28555 4.40428 0
M  V30 11413 N 1067.19 -1.57141 0.120249 0
M  V30 11414 C 1068.43 -1.9632 -0.531989 0
M  V30 11415 C 1068.79 -1.00265 -1.64209 0
M  V30 11416 O 1068.08 -0.0328969 -1.91572 0
M  V30 11417 C 1068.28 -3.39745 -1.10941 0
M  V30 11418 C 1068.11 -4.49664 -0.0567772 0
M  V30 11419 C 1066.88 -5.03903 0.375466 0
M  V30 11420 C 1069.07 -5.09169 0.724667 0
M  V30 11421 N 1067.06 -5.974 1.41374 0
M  V30 11422 C 1068.43 -5.98621 1.61411 0
M  V30 11423 C 1070.48 -4.91825 0.775417 0
M  V30 11424 C 1069.18 -6.72587 2.54988 0
M  V30 11425 C 1071.21 -5.66473 1.69891 0
M  V30 11426 C 1070.57 -6.55611 2.57592 0
M  V30 11427 H 1066.67 -0.764554 -0.164259 0
M  V30 11428 H 1069.26 -1.93579 0.208656 0
M  V30 11429 H 1067.43 -3.43131 -1.81977 0
M  V30 11430 H 1069.16 -3.66045 -1.72607 0
M  V30 11431 H 1065.91 -4.73597 -0.0171723 0
M  V30 11432 H 1066.34 -6.48852 1.93184 0
M  V30 11433 H 1070.98 -4.22653 0.111497 0
M  V30 11434 H 1068.7 -7.41005 3.22393 0
M  V30 11435 H 1072.28 -5.55057 1.74363 0
M  V30 11436 H 1071.16 -7.12361 3.27889 0
M  V30 11437 N 1068.67 0.153526 -1.5685 0
M  V30 11438 C 1069.9 0.881055 -1.86872 0
M  V30 11439 C 1070.3 1.75547 -0.705692 0
M  V30 11440 O 1069.65 1.8064 0.333888 0
M  V30 11441 C 1069.71 1.79429 -3.11521 0
M  V30 11442 C 1069.37 1.0977 -4.43621 0
M  V30 11443 C 1070.37 0.454693 -5.17908 0
M  V30 11444 C 1068.06 1.08915 -4.9035 0
M  V30 11445 C 1070.05 -0.187562 -6.37124 0
M  V30 11446 C 1067.74 0.443084 -6.09492 0
M  V30 11447 C 1068.73 -0.194154 -6.82724 0
M  V30 11448 O 1068.42 -0.829995 -7.99604 0
M  V30 11449 H 1068.15 0.260486 -0.623797 0
M  V30 11450 H 1070.71 0.153024 -2.04829 0
M  V30 11451 H 1068.94 2.5631 -2.89555 0
M  V30 11452 H 1070.63 2.39321 -3.27842 0
M  V30 11453 H 1071.39 0.453151 -4.82878 0
M  V30 11454 H 1067.27 1.57456 -4.33276 0
M  V30 11455 H 1070.82 -0.685542 -6.94223 0
M  V30 11456 H 1066.71 0.44227 -6.43983 0
M  V30 11457 H 1067.48 -0.731013 -8.15229 0
M  V30 11458 N 1070.14 1.51827 0.422667 0
M  V30 11459 C 1071.09 1.74198 1.51406 0
M  V30 11460 C 1072.06 0.584013 1.55494 0
M  V30 11461 O 1073.25 0.820079 1.72277 0
M  V30 11462 C 1070.39 1.88627 2.88988 0
M  V30 11463 C 1069.5 3.16233 2.94314 0
M  V30 11464 C 1068.63 3.21172 4.2311 0
M  V30 11465 C 1067.67 4.43033 4.2236 0
M  V30 11466 N 1066.81 4.4544 5.42704 0
M  V30 11467 H 1071.65 2.67352 1.31632 0
M  V30 11468 H 1069.19 1.32487 0.63919 0
M  V30 11469 H 1071.15 1.94976 3.68837 0
M  V30 11470 H 1069.78 0.988673 3.07287 0
M  V30 11471 H 1068.83 3.19123 2.07039 0
M  V30 11472 H 1070.14 4.06104 2.89623 0
M  V30 11473 H 1069.29 3.26517 5.11343 0
M  V30 11474 H 1068.03 2.29216 4.30478 0
M  V30 11475 H 1067.04 4.37849 3.32518 0
M  V30 11476 H 1068.26 5.3627 4.16643 0
M  V30 11477 H 1066.21 3.56361 5.50766 0
M  V30 11478 H 1066.13 5.29138 5.39953 0
M  V30 11479 H 1067.39 4.54997 6.32928 0
M  V30 11480 N 1071.62 -0.679052 1.4222 0
M  V30 11481 C 1072.87 -1.43912 1.42463 0
M  V30 11482 C 1073.2 -1.9446 0.0395574 0
M  V30 11483 O 1072.45 -1.71019 -0.951365 0
M  V30 11484 C 1072.75 -2.65528 2.39227 0
M  V30 11485 C 1072.42 -2.33545 3.85704 0
M  V30 11486 C 1071.08 -2.24534 4.25603 0
M  V30 11487 C 1073.43 -2.07496 4.78116 0
M  V30 11488 C 1070.76 -1.87592 5.55901 0
M  V30 11489 C 1073.11 -1.72059 6.08752 0
M  V30 11490 C 1071.78 -1.61555 6.47654 0
M  V30 11491 H 1071.05 -0.52661 0.521309 0
M  V30 11492 H 1073.69 -0.774661 1.75132 0
M  V30 11493 H 1072 -3.36985 1.9987 0
M  V30 11494 H 1073.69 -3.23702 2.36681 0
M  V30 11495 H 1070.28 -2.4146 3.54112 0
M  V30 11496 H 1074.47 -2.13393 4.48082 0
M  V30 11497 H 1069.72 -1.78026 5.84908 0
M  V30 11498 H 1073.9 -1.50926 6.79849 0
M  V30 11499 H 1071.53 -1.32699 7.48529 0
M  V30 11500 N 1073.1 -1.28322 -0.914942 0
M  V30 11501 C 1074.06 -1.12169 -1.99877 0
M  V30 11502 C 1075.06 -0.0617252 -1.60681 0
M  V30 11503 O 1076.25 -0.307405 -1.71466 0
M  V30 11504 C 1073.39 -0.711959 -3.33383 0
M  V30 11505 H 1074.58 -2.08425 -2.15636 0
M  V30 11506 H 1072.13 -1.11291 -1.09745 0
M  V30 11507 H 1072.87 0.251418 -3.23324 0
M  V30 11508 H 1072.65 -1.47764 -3.63192 0
M  V30 11509 H 1074.14 -0.621558 -4.12948 0
M  V30 11510 N 1074.58 1.12322 -1.10551 0
M  V30 11511 C 1075.53 2.20166 -0.750317 0
M  V30 11512 C 1076.52 1.67484 0.254066 0
M  V30 11513 O 1077.73 1.79637 0.114309 0
M  V30 11514 H 1074.1 0.717642 -0.22471 0
M  V30 11515 H 1076.07 2.47378 -1.66873 0
M  V30 11516 C 1074.82 3.47126 -0.199651 0
M  V30 11517 H 1074.14 3.88011 -0.963735 0
M  V30 11518 H 1075.58 4.23999 0.0108033 0
M  V30 11519 C 1074.04 3.19526 1.06792 0
M  V30 11520 O 1074.57 3.39368 2.14923 0
M  V30 11521 N 1072.78 2.73324 0.987032 0
M  V30 11522 H 1072.33 2.57378 0.106997 0
M  V30 11523 H 1072.28 2.55234 1.83584 0
M  V30 11524 N 1076.06 0.894434 1.2976 0
M  V30 11525 C 1077.28 0.532916 1.99919 0
M  V30 11526 C 1077.7 -0.881022 1.66983 0
M  V30 11527 O 1077.06 -1.58076 0.912035 0
M  V30 11528 C 1077.11 0.70936 3.54472 0
M  V30 11529 O 1076.83 2.06764 3.86239 0
M  V30 11530 C 1078.33 0.352089 4.419 0
M  V30 11531 H 1075.55 0.205019 0.638912 0
M  V30 11532 H 1078.09 1.20233 1.65421 0
M  V30 11533 H 1076.25 0.0871901 3.87302 0
M  V30 11534 H 1076.66 2.09315 4.80924 0
M  V30 11535 H 1078.14 0.526405 5.49484 0
M  V30 11536 H 1078.61 -0.710527 4.33415 0
M  V30 11537 H 1079.22 0.950979 4.14532 0
M  V30 11538 N 1077.53 -1.43282 0.656365 0
M  V30 11539 C 1078.78 -2.01776 0.171039 0
M  V30 11540 C 1079.11 -1.51795 -1.21609 0
M  V30 11541 O 1078.36 -0.702864 -1.82643 0
M  V30 11542 C 1078.66 -3.57148 0.134225 0
M  V30 11543 C 1078.33 -4.26488 1.46352 0
M  V30 11544 C 1076.99 -4.45146 1.82753 0
M  V30 11545 C 1079.34 -4.65728 2.33981 0
M  V30 11546 C 1076.67 -5.0031 3.06443 0
M  V30 11547 C 1079.02 -5.22263 3.56966 0
M  V30 11548 C 1077.69 -5.39136 3.93559 0
M  V30 11549 H 1076.96 -0.738352 0.0625878 0
M  V30 11550 H 1079.6 -1.71716 0.847697 0
M  V30 11551 H 1077.91 -3.86768 -0.625892 0
M  V30 11552 H 1079.61 -4.00168 -0.258207 0
M  V30 11553 H 1076.2 -4.12313 1.1703 0
M  V30 11554 H 1080.38 -4.51003 2.07148 0
M  V30 11555 H 1075.64 -5.11559 3.34839 0
M  V30 11556 H 1079.81 -5.51614 4.25082 0
M  V30 11557 H 1077.44 -5.81646 4.89481 0
M  V30 11558 N 1079.01 -0.398486 -1.52479 0
M  V30 11559 C 1079.94 0.423498 -2.29627 0
M  V30 11560 C 1080.92 1.05547 -1.33394 0
M  V30 11561 O 1082.11 1.0665 -1.62294 0
M  V30 11562 C 1079.24 1.54612 -3.10986 0
M  V30 11563 C 1078.19 1.03971 -4.15179 0
M  V30 11564 C 1077.52 2.25512 -4.84818 0
M  V30 11565 C 1078.82 0.10121 -5.22202 0
M  V30 11566 H 1080.51 -0.220222 -2.98589 0
M  V30 11567 H 1078.06 -0.107355 -1.43599 0
M  V30 11568 H 1080.01 2.12806 -3.63719 0
M  V30 11569 H 1078.74 2.21756 -2.39774 0
M  V30 11570 H 1077.4 0.480251 -3.63441 0
M  V30 11571 H 1077.04 2.91187 -4.10145 0
M  V30 11572 H 1076.74 1.92285 -5.55248 0
M  V30 11573 H 1078.27 2.84331 -5.40359 0
M  V30 11574 H 1079.68 0.591617 -5.70239 0
M  V30 11575 H 1078.08 -0.141737 -5.99933 0
M  V30 11576 H 1079.15 -0.847216 -4.77441 0
M  V30 11577 N 1080.49 1.57075 -0.12858 0
M  V30 11578 C 1081.74 1.94695 0.526952 0
M  V30 11579 C 1082.05 1.01482 1.67215 0
M  V30 11580 O 1083.26 1.28606 2.39108 0
M  V30 11581 C 1081.72 3.4605 0.988801 0
M  V30 11582 C 1081.32 4.47816 -0.128457 0
M  V30 11583 C 1083.07 3.92572 1.61517 0
M  V30 11584 C 1080.97 5.9036 0.350628 0
M  V30 11585 H 1079.9 0.726819 0.200623 0
M  V30 11586 H 1082.56 1.82295 -0.209972 0
M  V30 11587 H 1080.94 3.53718 1.78043 0
M  V30 11588 H 1082.11 4.51826 -0.904976 0
M  V30 11589 H 1080.43 4.11103 -0.662075 0
M  V30 11590 H 1083.02 4.96493 1.98491 0
M  V30 11591 H 1083.37 3.33085 2.49721 0
M  V30 11592 H 1083.9 3.87744 0.888768 0
M  V30 11593 H 1080.64 6.53624 -0.495592 0
M  V30 11594 H 1080.16 5.89749 1.09342 0
M  V30 11595 H 1081.84 6.41926 0.808717 0
M  V30 11596 N 1081.97 -0.145205 1.5693 0
M  V30 11597 C 1083.22 -0.85395 1.84606 0
M  V30 11598 C 1083.57 -1.78709 0.712811 0
M  V30 11599 O 1082.86 -1.89406 -0.289108 0
M  V30 11600 C 1083.06 -1.66391 3.16305 0
M  V30 11601 C 1082.89 -0.810698 4.42332 0
M  V30 11602 C 1081.66 -0.475623 5.03057 0
M  V30 11603 C 1083.85 -0.140213 5.14109 0
M  V30 11604 N 1081.84 0.390996 6.12654 0
M  V30 11605 C 1083.21 0.586471 6.1722 0
M  V30 11606 C 1085.26 -0.0610725 4.97863 0
M  V30 11607 C 1083.97 1.38483 7.05844 0
M  V30 11608 C 1085.99 0.724026 5.86951 0
M  V30 11609 C 1085.35 1.43899 6.89545 0
M  V30 11610 H 1081.45 -0.290253 0.726138 0
M  V30 11611 H 1084.04 -0.119211 1.94335 0
M  V30 11612 H 1082.21 -2.36987 3.0772 0
M  V30 11613 H 1083.94 -2.31596 3.31882 0
M  V30 11614 H 1080.69 -0.811824 4.6659 0
M  V30 11615 H 1081.12 0.815383 6.72072 0
M  V30 11616 H 1085.76 -0.599475 4.18529 0
M  V30 11617 H 1083.48 1.93448 7.84604 0
M  V30 11618 H 1087.06 0.787276 5.76449 0
M  V30 11619 H 1085.94 2.03674 7.57289 0
M  V30 11620 N 1083.45 -1.52049 -0.414609 0
M  V30 11621 C 1084.36 -1.7788 -1.52958 0
M  V30 11622 C 1085.37 -0.66408 -1.60829 0
M  V30 11623 O 1086.55 -0.948882 -1.77646 0
M  V30 11624 C 1083.61 -1.91906 -2.88744 0
M  V30 11625 C 1082.68 -3.15803 -2.90804 0
M  V30 11626 C 1081.91 -3.29151 -4.20114 0
M  V30 11627 O 1082.13 -2.47892 -5.13718 0
M  V30 11628 O 1081.07 -4.2227 -4.28919 0
M  V30 11629 H 1084.89 -2.72506 -1.34067 0
M  V30 11630 H 1082.48 -1.36826 -0.599918 0
M  V30 11631 H 1084.36 -2.02986 -3.6929 0
M  V30 11632 H 1083.03 -1.00468 -3.07714 0
M  V30 11633 H 1081.94 -3.10185 -2.09131 0
M  V30 11634 H 1083.27 -4.07004 -2.76783 0
M  V30 11635 N 1084.93 0.6715 -1.42579 0
M  V30 11636 C 1086.17 1.44353 -1.44712 0
M  V30 11637 C 1086.53 1.91898 -0.0626628 0
M  V30 11638 O 1087.73 2.68768 0.0412789 0
M  V30 11639 C 1086 2.60616 -2.44569 0
M  V30 11640 S 1087.56 3.49416 -2.65431 0
M  V30 11641 H 1084.38 0.492985 -0.512334 0
M  V30 11642 H 1086.98 0.781349 -1.79207 0
M  V30 11643 H 1085.68 2.23931 -3.43923 0
M  V30 11644 H 1085.22 3.31703 -2.1151 0
M  V30 11645 H 1087.23 4.56712 -1.9398 0
M  V30 11646 N 1086.4 1.28806 0.908124 0
M  V30 11647 C 1087.35 1.09849 1.99793 0
M  V30 11648 C 1088.34 0.0204321 1.60887 0
M  V30 11649 O 1089.53 0.241204 1.75349 0
M  V30 11650 C 1086.66 0.768263 3.34593 0
M  V30 11651 C 1085.74 1.88544 3.79884 0
M  V30 11652 N 1086.14 3.12784 3.97492 0
M  V30 11653 C 1084.43 1.77657 4.09089 0
M  V30 11654 C 1085.13 3.85615 4.35518 0
M  V30 11655 N 1084.11 3.13501 4.44092 0
M  V30 11656 H 1087.91 2.04108 2.11464 0
M  V30 11657 H 1085.43 1.19807 1.09636 0
M  V30 11658 H 1087.42 0.613521 4.12361 0
M  V30 11659 H 1086.08 -0.166501 3.24273 0
M  V30 11660 H 1087.09 3.48333 3.83255 0
M  V30 11661 H 1083.77 0.913956 4.07373 0
M  V30 11662 H 1085.16 4.92492 4.57057 0
M  V30 11663 N 1087.88 -1.11734 1.11145 0
M  V30 11664 C 1089.29 -1.64928 0.874959 0
M  V30 11665 C 1089.64 -1.87012 -0.593375 0
M  V30 11666 O 1088.77 -1.60206 -1.45475 0
M  V30 11667 C 1089.36 -2.99608 1.58178 0
M  V30 11668 C 1087.92 -3.49723 1.39179 0
M  V30 11669 C 1087.07 -2.24595 1.62642 0
M  V30 11670 H 1090.02 -0.954154 1.26813 0
M  V30 11671 H 1090.04 -3.66434 1.02501 0
M  V30 11672 H 1089.55 -2.83504 2.65042 0
M  V30 11673 H 1087.65 -3.70998 0.345111 0
M  V30 11674 H 1087.77 -4.28711 2.13878 0
M  V30 11675 H 1086.13 -2.32067 1.04961 0
M  V30 11676 H 1086.91 -2.11036 2.70774 0
M  V30 11677 N 1089.36 -0.901303 -1.29284 0
M  V30 11678 C 1090.59 -0.542723 -1.99344 0
M  V30 11679 C 1091 0.877357 -1.67628 0
M  V30 11680 O 1090.34 1.59088 -0.918515 0
M  V30 11681 C 1090.4 -0.657088 -3.53444 0
M  V30 11682 C 1090.07 -2.04444 -4.0872 0
M  V30 11683 C 1091.06 -3.01577 -4.23494 0
M  V30 11684 C 1088.75 -2.35425 -4.43712 0
M  V30 11685 C 1090.74 -4.27816 -4.72496 0
M  V30 11686 C 1088.43 -3.61906 -4.9241 0
M  V30 11687 C 1089.43 -4.57916 -5.06757 0
M  V30 11688 O 1089.12 -5.8215 -5.54397 0
M  V30 11689 H 1088.85 -0.206742 -0.64361 0
M  V30 11690 H 1091.4 -1.21311 -1.65749 0
M  V30 11691 H 1089.63 0.0703305 -3.86636 0
M  V30 11692 H 1091.32 -0.307425 -4.04734 0
M  V30 11693 H 1092.09 -2.78957 -3.96747 0
M  V30 11694 H 1087.97 -1.61454 -4.31803 0
M  V30 11695 H 1091.51 -5.0276 -4.83609 0
M  V30 11696 H 1087.41 -3.84356 -5.18595 0
M  V30 11697 H 1088.17 -5.84762 -5.72709 0
M  V30 11698 N 1090.84 1.42931 -0.663954 0
M  V30 11699 C 1092.08 2.02505 -0.190647 0
M  V30 11700 C 1092.44 1.51506 1.18591 0
M  V30 11701 O 1091.73 0.702962 1.78239 0
M  V30 11702 C 1091.93 3.57072 -0.153163 0
M  V30 11703 C 1091.75 4.23069 -1.52454 0
M  V30 11704 C 1090.52 4.58694 -2.11961 0
M  V30 11705 C 1092.72 4.51373 -2.46509 0
M  V30 11706 N 1090.7 5.09818 -3.41993 0
M  V30 11707 C 1092.08 5.03931 -3.61184 0
M  V30 11708 C 1094.13 4.33351 -2.45176 0
M  V30 11709 C 1092.83 5.40362 -4.74765 0
M  V30 11710 C 1094.86 4.70851 -3.57845 0
M  V30 11711 C 1094.22 5.23551 -4.71246 0
M  V30 11712 H 1090.32 0.773581 -0.114438 0
M  V30 11713 H 1092.9 1.73951 -0.874589 0
M  V30 11714 H 1091.08 3.85166 0.500156 0
M  V30 11715 H 1092.81 4.03336 0.332015 0
M  V30 11716 H 1089.56 4.44091 -1.6456 0
M  V30 11717 H 1089.99 5.39821 -4.08561 0
M  V30 11718 H 1094.63 3.91871 -1.58735 0
M  V30 11719 H 1092.35 5.8078 -5.6189 0
M  V30 11720 H 1095.93 4.58593 -3.58028 0
M  V30 11721 H 1094.81 5.52029 -5.56986 0
M  V30 11722 N 1092.32 0.406567 1.52266 0
M  V30 11723 C 1093.56 -0.171391 2.00971 0
M  V30 11724 C 1093.88 -1.46443 1.29668 0
M  V30 11725 O 1095.08 -2.12348 1.69176 0
M  V30 11726 C 1093.54 -0.35599 3.58135 0
M  V30 11727 C 1093.15 0.924803 4.38351 0
M  V30 11728 C 1094.89 -0.889378 4.15079 0
M  V30 11729 C 1092.8 0.707534 5.87152 0
M  V30 11730 H 1091.73 -0.0678253 0.750943 0
M  V30 11731 H 1094.38 0.531619 1.7563 0
M  V30 11732 H 1092.76 -1.12127 3.79794 0
M  V30 11733 H 1093.94 1.69603 4.28452 0
M  V30 11734 H 1092.25 1.38442 3.92712 0
M  V30 11735 H 1094.85 -1.06792 5.23927 0
M  V30 11736 H 1095.19 -1.86334 3.7227 0
M  V30 11737 H 1095.72 -0.183224 3.97378 0
M  V30 11738 H 1092.46 1.65299 6.34316 0
M  V30 11739 H 1091.98 -0.024446 5.99795 0
M  V30 11740 H 1093.66 0.348721 6.4606 0
M  V30 11741 N 1093.79 -1.57004 0.136909 0
M  V30 11742 C 1094.74 -2.16246 -0.806607 0
M  V30 11743 C 1095.71 -1.09246 -1.25118 0
M  V30 11744 O 1096.9 -1.3724 -1.32551 0
M  V30 11745 C 1094.04 -2.78031 -2.04433 0
M  V30 11746 C 1093.15 -3.99393 -1.64649 0
M  V30 11747 C 1092.28 -4.49208 -2.83524 0
M  V30 11748 C 1091.32 -5.63059 -2.40064 0
M  V30 11749 N 1090.46 -6.07537 -3.51913 0
M  V30 11750 H 1095.3 -2.9654 -0.294596 0
M  V30 11751 H 1092.84 -1.46491 -0.133705 0
M  V30 11752 H 1094.8 -3.11992 -2.76978 0
M  V30 11753 H 1093.43 -2.00398 -2.53062 0
M  V30 11754 H 1092.48 -3.71477 -0.819077 0
M  V30 11755 H 1093.79 -4.81904 -1.28723 0
M  V30 11756 H 1092.94 -4.85171 -3.64271 0
M  V30 11757 H 1091.68 -3.65683 -3.22688 0
M  V30 11758 H 1090.69 -5.26682 -1.57754 0
M  V30 11759 H 1091.91 -6.48362 -2.01997 0
M  V30 11760 H 1089.86 -5.2695 -3.90717 0
M  V30 11761 H 1089.78 -6.84949 -3.1997 0
M  V30 11762 H 1091.04 -6.48143 -4.33048 0
M  V30 11763 N 1095.27 0.136881 -1.57004 0
M  V30 11764 C 1096.2 1.17026 -2.02057 0
M  V30 11765 C 1097.18 1.44223 -0.901866 0
M  V30 11766 O 1098.37 1.54971 -1.17037 0
M  V30 11767 C 1095.5 2.50095 -2.40977 0
M  V30 11768 C 1094.45 2.37398 -3.56127 0
M  V30 11769 C 1093.78 3.75268 -3.80891 0
M  V30 11770 C 1095.08 1.84952 -4.88457 0
M  V30 11771 H 1096.77 0.795601 -2.88636 0
M  V30 11772 H 1094.32 0.381266 -1.38861 0
M  V30 11773 H 1096.27 3.22621 -2.71097 0
M  V30 11774 H 1095 2.89416 -1.51348 0
M  V30 11775 H 1093.65 1.67322 -3.26188 0
M  V30 11776 H 1093.3 4.12043 -2.88496 0
M  V30 11777 H 1093 3.67631 -4.5839 0
M  V30 11778 H 1094.53 4.49327 -4.13446 0
M  V30 11779 H 1095.94 2.4728 -5.17229 0
M  V30 11780 H 1094.34 1.88181 -5.69832 0
M  V30 11781 H 1095.41 0.805848 -4.78157 0
M  V30 11782 N 1096.75 1.52266 0.40654 0
M  V30 11783 C 1097.7 1.75794 1.4955 0
M  V30 11784 C 1098.67 0.600472 1.54866 0
M  V30 11785 O 1099.85 0.838305 1.71397 0
M  V30 11786 C 1096.99 1.91682 2.86971 0
M  V30 11787 C 1096.11 3.19337 2.90943 0
M  V30 11788 C 1095.24 3.25641 4.1968 0
M  V30 11789 C 1094.28 4.47488 4.17637 0
M  V30 11790 N 1093.42 4.51171 5.37949 0
M  V30 11791 H 1098.26 2.68733 1.28789 0
M  V30 11792 H 1095.79 1.33157 0.625102 0
M  V30 11793 H 1097.75 1.98877 3.66748 0
M  V30 11794 H 1096.38 1.02121 3.06221 0
M  V30 11795 H 1095.43 3.21301 2.03642 0
M  V30 11796 H 1096.75 4.09153 2.85299 0
M  V30 11797 H 1095.9 3.31922 5.07851 0
M  V30 11798 H 1094.64 2.33769 4.28023 0
M  V30 11799 H 1093.64 4.41351 3.27856 0
M  V30 11800 H 1094.87 5.40659 4.10932 0
M  V30 11801 H 1092.81 3.62182 5.46955 0
M  V30 11802 H 1092.73 5.34835 5.3431 0
M  V30 11803 H 1094 4.61685 6.28066 0
M  V30 11804 N 1098.23 -0.663929 1.42933 0
M  V30 11805 C 1099.14 -1.80643 1.49683 0
M  V30 11806 C 1100.15 -1.69694 0.38472 0
M  V30 11807 O 1101.33 -1.91052 0.637256 0
M  V30 11808 C 1098.4 -3.16858 1.4072 0
M  V30 11809 C 1097.46 -3.39684 2.62514 0
M  V30 11810 C 1096.69 -4.69399 2.53969 0
M  V30 11811 O 1096.91 -5.48037 1.58152 0
M  V30 11812 O 1095.85 -4.93709 3.44289 0
M  V30 11813 H 1099.67 -1.77903 2.46138 0
M  V30 11814 H 1097.26 -0.821059 1.24816 0
M  V30 11815 H 1099.14 -3.9812 1.38124 0
M  V30 11816 H 1097.81 -3.20211 0.473954 0
M  V30 11817 H 1096.72 -2.58227 2.70684 0
M  V30 11818 H 1098.05 -3.41169 3.54774 0
M  V30 11819 N 1099.71 -1.29285 -0.901281 0
M  V30 11820 C 1100.96 -1.16538 -1.64626 0
M  V30 11821 C 1101.27 0.282623 -1.93547 0
M  V30 11822 O 1102.47 0.531396 -2.66249 0
M  V30 11823 C 1100.93 -2.03809 -2.96631 0
M  V30 11824 C 1100.54 -3.53423 -2.75311 0
M  V30 11825 C 1102.28 -1.99782 -3.7455 0
M  V30 11826 C 1100.19 -4.32804 -4.03032 0
M  V30 11827 H 1099.12 -0.432561 -0.617581 0
M  V30 11828 H 1101.77 -1.53912 -0.999159 0
M  V30 11829 H 1100.15 -1.59302 -3.62545 0
M  V30 11830 H 1101.33 -4.05971 -2.18 0
M  V30 11831 H 1099.64 -3.59106 -2.10789 0
M  V30 11832 H 1102.24 -2.5635 -4.69243 0
M  V30 11833 H 1102.58 -0.97743 -4.04663 0
M  V30 11834 H 1103.11 -2.42324 -3.15474 0
M  V30 11835 H 1099.85 -5.35473 -3.78086 0
M  V30 11836 H 1099.37 -3.85025 -4.59909 0
M  V30 11837 H 1101.05 -4.43383 -4.71191 0
M  V30 11838 N 1101.18 1.11143 -1.11736 0
M  V30 11839 C 1102.43 1.83219 -0.869413 0
M  V30 11840 C 1102.76 1.84588 0.603402 0
M  V30 11841 O 1102.04 1.30119 1.44566 0
M  V30 11842 C 1102.32 3.30247 -1.43559 0
M  V30 11843 C 1102.17 3.37253 -2.97624 0
M  V30 11844 C 1103.49 4.26412 -1.08907 0
M  V30 11845 H 1100.61 0.665205 -0.317286 0
M  V30 11846 H 1103.25 1.30307 -1.38275 0
M  V30 11847 H 1101.4 3.75437 -0.998978 0
M  V30 11848 H 1103.08 3.00599 -3.49911 0
M  V30 11849 H 1101.32 2.77378 -3.33532 0
M  V30 11850 H 1101.99 4.40752 -3.32328 0
M  V30 11851 H 1104.47 3.89418 -1.46604 0
M  V30 11852 H 1103.34 5.27666 -1.51195 0
M  V30 11853 H 1103.6 4.421 -0.000259009 0
M  V30 11854 N 1102.66 0.908147 1.28804 0
M  V30 11855 C 1103.61 0.382315 2.29437 0
M  V30 11856 C 1104.6 -0.523033 1.61123 0
M  V30 11857 O 1105.81 -0.404898 1.75387 0
M  V30 11858 H 1102.19 0.105022 0.74463 0
M  V30 11859 H 1104.16 1.24425 2.71221 0
M  V30 11860 C 1102.91 -0.367475 3.45753 0
M  V30 11861 H 1102.23 0.319957 3.98518 0
M  V30 11862 H 1103.67 -0.700131 4.1818 0
M  V30 11863 C 1102.13 -1.57329 2.97908 0
M  V30 11864 O 1102.66 -2.67248 2.99902 0
M  V30 11865 N 1100.86 -1.41835 2.53636 0
M  V30 11866 H 1100.41 -0.524099 2.52212 0
M  V30 11867 H 1100.37 -2.22645 2.21984 0
M  V30 11868 N 1104.14 -1.42577 0.671525 0
M  V30 11869 C 1105.07 -2.33499 0.00506984 0
M  V30 11870 C 1106.05 -1.50497 -0.792763 0
M  V30 11871 O 1107.24 -1.79109 -0.750574 0
M  V30 11872 C 1104.37 -3.34077 -0.949194 0
M  V30 11873 C 1103.32 -4.27208 -0.260187 0
M  V30 11874 C 1102.65 -5.17968 -1.32716 0
M  V30 11875 C 1103.95 -5.15192 0.858772 0
M  V30 11876 H 1105.64 -2.89477 0.764407 0
M  V30 11877 H 1103.19 -1.39191 0.369043 0
M  V30 11878 H 1105.14 -3.96594 -1.42448 0
M  V30 11879 H 1103.86 -2.76396 -1.73991 0
M  V30 11880 H 1102.52 -3.66082 0.194834 0
M  V30 11881 H 1102.17 -4.56615 -2.10979 0
M  V30 11882 H 1101.87 -5.81104 -0.871293 0
M  V30 11883 H 1103.39 -5.83359 -1.80345 0
M  V30 11884 H 1104.81 -5.71412 0.464844 0
M  V30 11885 H 1103.21 -5.87144 1.24023 0
M  V30 11886 H 1104.28 -4.53787 1.70895 0
M  V30 11887 N 1105.62 -0.414636 -1.52048 0
M  V30 11888 C 1106.87 0.16073 -2.01059 0
M  V30 11889 C 1107.18 1.45753 -1.30443 0
M  V30 11890 O 1108.39 2.11448 -1.703 0
M  V30 11891 C 1106.84 0.336993 -3.58319 0
M  V30 11892 C 1106.45 -0.948037 -4.37854 0
M  V30 11893 C 1108.19 0.867353 -4.15545 0
M  V30 11894 C 1106.1 -0.738662 -5.86769 0
M  V30 11895 H 1105.03 0.0638419 -0.751292 0
M  V30 11896 H 1107.68 -0.540925 -1.75346 0
M  V30 11897 H 1106.06 1.10111 -3.80383 0
M  V30 11898 H 1107.24 -1.71873 -4.27547 0
M  V30 11899 H 1105.55 -1.40522 -3.91972 0
M  V30 11900 H 1108.15 1.04012 -5.24486 0
M  V30 11901 H 1108.49 1.84358 -3.73253 0
M  V30 11902 H 1109.03 0.162148 -3.97469 0
M  V30 11903 H 1105.77 -1.6866 -6.3343 0
M  V30 11904 H 1105.29 -0.00736294 -5.998 0
M  V30 11905 H 1106.96 -0.382978 -6.45866 0
M  V30 11906 N 1107.1 1.56929 -0.145233 0
M  V30 11907 C 1108.34 1.96358 0.50707 0
M  V30 11908 C 1108.68 1.03005 1.64632 0
M  V30 11909 O 1107.95 0.0721045 1.94366 0
M  V30 11910 C 1108.23 3.45502 1.01492 0
M  V30 11911 C 1108.09 4.49633 -0.122708 0
M  V30 11912 C 1109.41 3.97103 1.89729 0
M  V30 11913 H 1106.52 0.713958 0.182848 0
M  V30 11914 H 1109.17 1.8865 -0.226102 0
M  V30 11915 H 1107.32 3.52202 1.6397 0
M  V30 11916 H 1108.99 4.55013 -0.758988 0
M  V30 11917 H 1107.23 4.26691 -0.782109 0
M  V30 11918 H 1107.9 5.51318 0.27432 0
M  V30 11919 H 1110.38 3.92871 1.37082 0
M  V30 11920 H 1109.25 5.01927 2.22173 0
M  V30 11921 H 1109.52 3.39354 2.83357 0
M  V30 11922 N 1108.58 -0.128553 1.57075 0
M  V30 11923 C 1109.51 -1.18822 1.94825 0
M  V30 11924 C 1110.49 -1.40609 0.816571 0
M  V30 11925 O 1111.67 -1.5492 1.07388 0
M  V30 11926 C 1108.8 -2.54383 2.23623 0
M  V30 11927 C 1107.84 -2.4908 3.4621 0
M  V30 11928 S 1108.68 -1.93974 4.99133 0
M  V30 11929 C 1109.83 -3.31228 5.31074 0
M  V30 11930 H 1110.07 -0.866246 2.844 0
M  V30 11931 H 1107.6 -0.334927 1.50724 0
M  V30 11932 H 1109.56 -3.32386 2.40893 0
M  V30 11933 H 1108.22 -2.83761 1.34678 0
M  V30 11934 H 1107.41 -3.48915 3.63695 0
M  V30 11935 H 1107.01 -1.79193 3.28277 0
M  V30 11936 H 1109.3 -4.27407 5.25671 0
M  V30 11937 H 1110.25 -3.18578 6.32387 0
M  V30 11938 H 1110.66 -3.29215 4.5856 0
M  V30 11939 N 1110.05 -1.5248 -0.398459 0
M  V30 11940 C 1111.33 -1.57634 -1.15805 0
M  V30 11941 C 1111.71 -0.363785 -2.07942 0
M  V30 11942 O 1111.06 0.648598 -2.19101 0
M  V30 11943 C 1111.27 -2.91042 -1.92602 0
M  V30 11944 C 1112.62 -3.44433 -2.48296 0
M  V30 11945 O 1113.64 -2.92853 -2.0277 0
M  V30 11946 O 1112.5 -4.34529 -3.31432 0
M  V30 11947 H 1109.59 -0.63539 -0.529347 0
M  V30 11948 H 1112.14 -1.64812 -0.404376 0
M  V30 11949 H 1110.91 -3.7074 -1.25169 0
M  V30 11950 H 1110.53 -2.87206 -2.74952 0
M  V30 11951 N 1111.53 0.65634 -1.43283 0
M  V30 11952 C 1112.94 1.23744 -1.39801 0
M  V30 11953 C 1113.29 1.95942 -0.100507 0
M  V30 11954 O 1112.42 2.01063 0.800161 0
M  V30 11955 C 1113.01 2.25062 -2.53244 0
M  V30 11956 C 1111.57 2.78657 -2.53036 0
M  V30 11957 C 1110.72 1.53251 -2.31105 0
M  V30 11958 H 1113.67 0.448553 -1.52229 0
M  V30 11959 H 1113.69 3.07174 -2.24553 0
M  V30 11960 H 1113.2 1.72487 -3.47664 0
M  V30 11961 H 1111.3 3.35304 -1.62487 0
M  V30 11962 H 1111.42 3.26414 -3.507 0
M  V30 11963 H 1109.78 1.80487 -1.79713 0
M  V30 11964 H 1110.56 1.02615 -3.27605 0
M  V30 11965 N 1113.01 1.29761 0.894412 0
M  V30 11966 C 1114.26 1.18039 1.64539 0
M  V30 11967 C 1114.58 -0.26697 1.92659 0
M  V30 11968 O 1113.84 -1.20865 1.53916 0
M  V30 11969 C 1114.14 1.94458 2.99868 0
M  V30 11970 C 1113.8 3.44143 2.91336 0
M  V30 11971 C 1112.47 3.84963 2.88716 0
M  V30 11972 C 1114.82 4.39503 2.80154 0
M  V30 11973 C 1112.15 5.19451 2.72741 0
M  V30 11974 C 1114.5 5.74088 2.65718 0
M  V30 11975 C 1113.16 6.14159 2.61467 0
M  V30 11976 H 1112.43 0.431936 0.60209 0
M  V30 11977 H 1115.08 1.60758 1.04063 0
M  V30 11978 H 1113.38 1.44346 3.64241 0
M  V30 11979 H 1115.08 1.82788 3.56917 0
M  V30 11980 H 1111.67 3.11699 2.9418 0
M  V30 11981 H 1115.86 4.08915 2.81251 0
M  V30 11982 H 1111.11 5.49602 2.67858 0
M  V30 11983 H 1115.29 6.47625 2.56038 0
M  V30 11984 H 1112.91 7.18317 2.48847 0
M  V30 11985 N 1114.49 -1.10549 1.12324 0
M  V30 11986 C 1115.73 -1.82755 0.879117 0
M  V30 11987 C 1116.07 -1.84905 -0.593604 0
M  V30 11988 O 1115.34 -1.30884 -1.43873 0
M  V30 11989 C 1115.62 -3.29481 1.45308 0
M  V30 11990 C 1115.48 -3.3567 2.99408 0
M  V30 11991 C 1116.8 -4.25828 1.11167 0
M  V30 11992 H 1113.92 -0.663513 0.32081 0
M  V30 11993 H 1116.56 -1.29572 1.38965 0
M  V30 11994 H 1114.71 -3.74902 1.01887 0
M  V30 11995 H 1116.38 -2.98739 3.515 0
M  V30 11996 H 1114.62 -2.75606 3.34998 0
M  V30 11997 H 1115.29 -4.38983 3.34661 0
M  V30 11998 H 1117.77 -3.88635 1.48667 0
M  V30 11999 H 1116.65 -5.26857 1.53991 0
M  V30 12000 H 1116.91 -4.42094 0.0237046 0
M  V30 12001 N 1115.97 -0.914965 -1.28321 0
M  V30 12002 C 1117.24 -0.46764 -1.89928 0
M  V30 12003 C 1117.62 1.05364 -1.82925 0
M  V30 12004 O 1116.97 1.90223 -1.26599 0
M  V30 12005 C 1117.18 -0.999372 -3.34385 0
M  V30 12006 C 1118.53 -1.0522 -4.11356 0
M  V30 12007 O 1119.55 -0.9481 -3.4335 0
M  V30 12008 O 1118.41 -1.21085 -5.32917 0
M  V30 12009 H 1115.51 -0.148398 -0.813577 0
M  V30 12010 H 1118.05 -1.00583 -1.36679 0
M  V30 12011 H 1116.82 -2.04333 -3.33712 0
M  V30 12012 H 1116.45 -0.442083 -3.95135 0
M  V30 12013 N 1117.44 1.42219 -0.679077 0
M  V30 12014 C 1118.37 2.33493 -0.0174528 0
M  V30 12015 C 1119.35 1.50915 0.78477 0
M  V30 12016 O 1120.54 1.79504 0.741065 0
M  V30 12017 C 1117.67 3.34576 0.931463 0
M  V30 12018 C 1116.62 4.2734 0.237527 0
M  V30 12019 C 1115.95 5.18664 1.29967 0
M  V30 12020 C 1117.25 5.14729 -0.886082 0
M  V30 12021 H 1118.94 2.89068 -0.779748 0
M  V30 12022 H 1116.49 1.38993 -0.376419 0
M  V30 12023 H 1118.44 3.97343 1.40343 0
M  V30 12024 H 1117.17 2.77315 1.72523 0
M  V30 12025 H 1115.83 3.65973 -0.214245 0
M  V30 12026 H 1115.47 4.57727 2.08554 0
M  V30 12027 H 1115.17 5.81558 0.840463 0
M  V30 12028 H 1116.7 5.84308 1.77249 0
M  V30 12029 H 1118.11 5.71158 -0.495141 0
M  V30 12030 H 1116.51 5.86478 -1.27135 0
M  V30 12031 H 1117.58 4.52874 -1.733 0
M  V30 12032 N 1118.92 0.422693 1.51826 0
M  V30 12033 C 1119.88 -0.384307 2.25955 0
M  V30 12034 C 1120.88 -0.962184 1.28836 0
M  V30 12035 O 1122.07 -0.838931 1.52668 0
M  V30 12036 C 1119.21 -1.54228 3.04018 0
M  V30 12037 H 1120.4 0.265157 2.98726 0
M  V30 12038 H 1117.95 0.175515 1.55311 0
M  V30 12039 H 1118.69 -2.22822 2.35629 0
M  V30 12040 H 1118.47 -1.13425 3.75336 0
M  V30 12041 H 1119.96 -2.1128 3.60209 0
M  V30 12042 N 1120.4 -1.5685 0.153553 0
M  V30 12043 C 1121.65 -1.95509 -0.495911 0
M  V30 12044 C 1121.96 -1.04129 -1.65579 0
M  V30 12045 O 1123.17 -1.32394 -2.37032 0
M  V30 12046 C 1121.62 -3.47579 -0.933622 0
M  V30 12047 C 1121.23 -4.47555 0.199684 0
M  V30 12048 C 1122.98 -3.95092 -1.55251 0
M  V30 12049 C 1120.88 -5.90843 -0.256663 0
M  V30 12050 H 1119.81 -0.729919 -0.189035 0
M  V30 12051 H 1122.46 -1.81938 0.238947 0
M  V30 12052 H 1120.85 -3.56506 -1.72394 0
M  V30 12053 H 1122.02 -4.50329 0.976744 0
M  V30 12054 H 1120.33 -4.09997 0.727394 0
M  V30 12055 H 1122.93 -4.99588 -1.90567 0
M  V30 12056 H 1123.27 -3.37015 -2.4439 0
M  V30 12057 H 1123.81 -3.89109 -0.826969 0
M  V30 12058 H 1120.55 -6.52753 0.599515 0
M  V30 12059 H 1120.07 -5.91414 -0.999458 0
M  V30 12060 H 1121.75 -6.43131 -0.70649 0
M  V30 12061 N 1121.88 0.120221 -1.57141 0
M  V30 12062 C 1123.11 0.842441 -1.88972 0
M  V30 12063 C 1123.52 1.73494 -0.744671 0
M  V30 12064 O 1122.88 1.80268 0.284557 0
M  V30 12065 C 1122.93 1.67688 -3.20254 0
M  V30 12066 O 1122.65 0.820319 -4.30351 0
M  V30 12067 C 1124.15 2.50436 -3.65782 0
M  V30 12068 H 1121.37 0.242241 -0.625748 0
M  V30 12069 H 1123.91 0.104978 -2.0423 0
M  V30 12070 H 1122.07 2.36712 -3.0667 0
M  V30 12071 H 1122.48 1.39575 -5.05588 0
M  V30 12072 H 1123.96 3.04518 -4.60405 0
M  V30 12073 H 1124.43 3.27737 -2.92378 0
M  V30 12074 H 1125.04 1.86657 -3.82151 0
M  V30 12075 N 1123.36 1.52689 0.390367 0
M  V30 12076 C 1124.61 1.6689 1.13272 0
M  V30 12077 C 1124.92 0.414433 1.91159 0
M  V30 12078 O 1126.12 0.436559 2.67967 0
M  V30 12079 C 1124.58 2.94929 2.06264 0
M  V30 12080 C 1124.19 4.27551 1.33805 0
M  V30 12081 C 1125.93 3.18497 2.80642 0
M  V30 12082 C 1123.84 5.46698 2.25554 0
M  V30 12083 H 1122.77 0.621749 0.426549 0
M  V30 12084 H 1125.42 1.79185 0.395615 0
M  V30 12085 H 1123.8 2.76378 2.83604 0
M  V30 12086 H 1124.98 4.56651 0.616997 0
M  V30 12087 H 1123.29 4.10234 0.713913 0
M  V30 12088 H 1125.89 4.04693 3.49467 0
M  V30 12089 H 1126.23 2.33511 3.44642 0
M  V30 12090 H 1126.76 3.37607 2.10395 0
M  V30 12091 H 1123.5 6.34088 1.66171 0
M  V30 12092 H 1123.02 5.21913 2.95579 0
M  V30 12093 H 1124.7 5.80519 2.85668 0
M  V30 12094 N 1124.83 -0.648732 1.43629 0
M  V30 12095 C 1126.07 -1.42032 1.46991 0
M  V30 12096 C 1126.44 -1.91774 0.0931841 0
M  V30 12097 O 1127.64 -2.688 0.00148504 0
M  V30 12098 C 1125.91 -2.56693 2.48684 0
M  V30 12099 S 1127.47 -3.45149 2.70956 0
M  V30 12100 H 1124.29 -0.484772 0.520113 0
M  V30 12101 H 1126.89 -0.75274 1.80427 0
M  V30 12102 H 1125.59 -2.18431 3.47442 0
M  V30 12103 H 1125.12 -3.28296 2.1676 0
M  V30 12104 H 1127.14 -4.53569 2.01221 0
M  V30 12105 N 1126.31 -1.30234 -0.887518 0
M  V30 12106 C 1127.56 -1.18277 -1.63381 0
M  V30 12107 C 1127.87 0.262079 -1.93836 0
M  V30 12108 O 1129.08 0.503127 -2.66797 0
M  V30 12109 C 1127.54 -2.06944 -2.94452 0
M  V30 12110 C 1127.14 -3.56323 -2.71547 0
M  V30 12111 C 1128.89 -2.03743 -3.7241 0
M  V30 12112 C 1126.8 -4.37054 -3.98419 0
M  V30 12113 H 1125.73 -0.439087 -0.612959 0
M  V30 12114 H 1128.38 -1.54964 -0.982779 0
M  V30 12115 H 1126.76 -1.63138 -3.60835 0
M  V30 12116 H 1127.93 -4.08261 -2.13681 0
M  V30 12117 H 1126.25 -3.61321 -2.06969 0
M  V30 12118 H 1128.84 -2.61312 -4.66497 0
M  V30 12119 H 1129.19 -1.02029 -4.03603 0
M  V30 12120 H 1129.72 -2.45657 -3.12886 0
M  V30 12121 H 1126.46 -5.39453 -3.72385 0
M  V30 12122 H 1125.98 -3.89881 -4.55799 0
M  V30 12123 H 1127.66 -4.48356 -4.66462 0
M  V30 12124 N 1127.79 1.09952 -1.12909 0
M  V30 12125 C 1129.04 1.82286 -0.888797 0
M  V30 12126 C 1129.37 1.85218 0.58379 0
M  V30 12127 O 1128.64 1.31645 1.43177 0
M  V30 12128 C 1128.93 3.28706 -1.47053 0
M  V30 12129 C 1128.78 3.34078 -3.01184 0
M  V30 12130 C 1130.1 4.25233 -1.13424 0
M  V30 12131 H 1127.22 0.661803 -0.324324 0
M  V30 12132 H 1129.86 1.28833 -1.3965 0
M  V30 12133 H 1128.01 3.74356 -1.03874 0
M  V30 12134 H 1129.68 2.96871 -3.5308 0
M  V30 12135 H 1127.93 2.73825 -3.36455 0
M  V30 12136 H 1128.6 4.37202 -3.36984 0
M  V30 12137 H 1131.07 3.87841 -1.50726 0
M  V30 12138 H 1129.95 5.26033 -1.56783 0
M  V30 12139 H 1130.21 4.42075 -0.0471496 0
M  V30 12140 N 1129.27 0.921757 1.27833 0
M  V30 12141 C 1130.2 0.433466 2.29441 0
M  V30 12142 C 1131.18 -0.503133 1.62489 0
M  V30 12143 O 1132.36 -0.409156 1.89841 0
M  V30 12144 C 1129.49 -0.320029 3.45822 0
M  V30 12145 C 1128.45 0.528178 4.24728 0
M  V30 12146 C 1127.77 -0.354132 5.33526 0
M  V30 12147 C 1129.07 1.78959 4.90684 0
M  V30 12148 H 1130.77 1.28263 2.70535 0
M  V30 12149 H 1128.31 0.618197 1.30055 0
M  V30 12150 H 1130.27 -0.672526 4.15999 0
M  V30 12151 H 1128.99 -1.20317 3.0363 0
M  V30 12152 H 1127.65 0.863302 3.5629 0
M  V30 12153 H 1127.3 -1.23605 4.87576 0
M  V30 12154 H 1127 0.209855 5.87225 0
M  V30 12155 H 1128.52 -0.702333 6.06547 0
M  V30 12156 H 1129.94 1.50552 5.53179 0
M  V30 12157 H 1128.33 2.29661 5.54415 0
M  V30 12158 H 1129.4 2.51265 4.14721 0
M  V30 12159 N 1130.75 -1.41857 0.686609 0
M  V30 12160 C 1131.69 -2.326 0.0041351 0
M  V30 12161 C 1132.69 -1.50474 -0.778077 0
M  V30 12162 O 1133.89 -1.66468 -0.684709 0
M  V30 12163 H 1130.27 -0.751797 -0.0174615 0
M  V30 12164 H 1132.24 -2.87844 0.786656 0
M  V30 12165 C 1130.99 -3.35175 -0.924819 0
M  V30 12166 H 1130.31 -3.98416 -0.332339 0
M  V30 12167 H 1131.75 -4.01229 -1.37082 0
M  V30 12168 C 1130.21 -2.68359 -2.03679 0
M  V30 12169 O 1130.74 -2.52453 -3.12459 0
M  V30 12170 N 1128.95 -2.27196 -1.81192 0
M  V30 12171 H 1128.49 -2.40333 -0.92725 0
M  V30 12172 H 1128.45 -1.82824 -2.55778 0
M  V30 12173 N 1132.22 -0.430739 -1.51599 0
M  V30 12174 C 1133.45 0.136797 -2.06447 0
M  V30 12175 C 1133.87 1.37027 -1.29881 0
M  V30 12176 O 1133.22 1.78983 -0.356543 0
M  V30 12177 C 1133.28 0.465637 -3.58489 0
M  V30 12178 O 1133 -0.718873 -4.32162 0
M  V30 12179 C 1134.5 1.08456 -4.29828 0
M  V30 12180 H 1131.72 0.0108468 -0.670912 0
M  V30 12181 H 1134.26 -0.607921 -1.95255 0
M  V30 12182 H 1132.42 1.16025 -3.69617 0
M  V30 12183 H 1132.83 -0.439195 -5.22658 0
M  V30 12184 H 1134.3 1.2647 -5.37317 0
M  V30 12185 H 1134.78 2.06376 -3.87693 0
M  V30 12186 H 1135.39 0.429525 -4.23125 0
M  V30 12187 N 1133.7 1.56767 -0.161869 0
M  V30 12188 C 1134.63 2.20511 0.767918 0
M  V30 12189 C 1135.61 1.15783 1.24612 0
M  V30 12190 O 1136.8 1.44179 1.301 0
M  V30 12191 C 1133.93 2.83844 2.00125 0
M  V30 12192 C 1132.88 3.94528 1.65926 0
M  V30 12193 C 1132.21 4.44866 2.96646 0
M  V30 12194 C 1133.51 5.14583 0.894497 0
M  V30 12195 H 1135.2 2.98464 0.236607 0
M  V30 12196 H 1132.75 1.43561 0.112363 0
M  V30 12197 H 1134.7 3.27109 2.65664 0
M  V30 12198 H 1133.43 2.03246 2.55654 0
M  V30 12199 H 1132.08 3.51904 1.02759 0
M  V30 12200 H 1131.73 3.61071 3.50196 0
M  V30 12201 H 1131.43 5.19531 2.74521 0
M  V30 12202 H 1132.96 4.90812 3.6323 0
M  V30 12203 H 1134.37 5.54601 1.45228 0
M  V30 12204 H 1132.77 5.95105 0.772636 0
M  V30 12205 H 1133.84 4.84773 -0.110986 0
M  V30 12206 N 1135.18 -0.111886 1.57202 0
M  V30 12207 C 1136.43 -0.818411 1.85225 0
M  V30 12208 C 1136.76 -1.79542 0.747991 0
M  V30 12209 O 1136.01 -1.93965 -0.260013 0
M  V30 12210 C 1136.31 -1.59644 3.19763 0
M  V30 12211 C 1135.98 -0.76308 4.44396 0
M  V30 12212 C 1134.64 -0.53329 4.78236 0
M  V30 12213 C 1136.99 -0.18266 5.2088 0
M  V30 12214 C 1134.32 0.287056 5.85997 0
M  V30 12215 C 1136.67 0.624916 6.29506 0
M  V30 12216 C 1135.33 0.864955 6.61872 0
M  V30 12217 H 1134.6 -0.299478 0.677786 0
M  V30 12218 H 1137.25 -0.0805082 1.91331 0
M  V30 12219 H 1135.56 -2.40545 3.09266 0
M  V30 12220 H 1137.25 -2.1472 3.38669 0
M  V30 12221 H 1133.84 -0.952278 4.17887 0
M  V30 12222 H 1138.03 -0.34739 4.95083 0
M  V30 12223 H 1133.28 0.482179 6.09496 0
M  V30 12224 H 1137.46 1.08162 6.87949 0
M  V30 12225 H 1135.08 1.50244 7.45205 0
M  V30 12226 N 1136.66 -1.52894 -0.382264 0
M  V30 12227 C 1137.59 -1.7291 -1.48921 0
M  V30 12228 C 1138.57 -0.577056 -1.52016 0
M  V30 12229 O 1139.75 -0.807667 -1.7032 0
M  V30 12230 C 1136.88 -1.79281 -2.87361 0
M  V30 12231 C 1135.93 -3.01099 -3.02063 0
M  V30 12232 S 1136.76 -4.60947 -2.72558 0
M  V30 12233 C 1137.92 -4.70144 -4.13178 0
M  V30 12234 H 1138.15 -2.66529 -1.31718 0
M  V30 12235 H 1135.68 -1.43271 -0.575563 0
M  V30 12236 H 1137.64 -1.83637 -3.67134 0
M  V30 12237 H 1136.3 -0.867428 -3.01885 0
M  V30 12238 H 1135.49 -3.02117 -4.03412 0
M  V30 12239 H 1135.1 -2.94769 -2.3019 0
M  V30 12240 H 1137.39 -4.49173 -5.07198 0
M  V30 12241 H 1138.33 -5.72166 -4.17172 0
M  V30 12242 H 1138.74 -3.98923 -3.99401 0
M  V30 12243 N 1138.14 0.641106 -1.43971 0
M  V30 12244 C 1139.1 1.73539 -1.49723 0
M  V30 12245 C 1140.1 1.56235 -0.380438 0
M  V30 12246 O 1141.29 1.61912 -0.642673 0
M  V30 12247 C 1138.42 3.1253 -1.36153 0
M  V30 12248 H 1139.62 1.69816 -2.47189 0
M  V30 12249 H 1137.17 0.853867 -1.30915 0
M  V30 12250 H 1137.9 3.21856 -0.39742 0
M  V30 12251 H 1137.69 3.26496 -2.17124 0
M  V30 12252 H 1139.18 3.92303 -1.43138 0
M  V30 12253 N 1139.62 1.30703 0.880598 0
M  V30 12254 C 1140.55 1.11783 1.98947 0
M  V30 12255 C 1141.53 0.0242461 1.62582 0
M  V30 12256 O 1142.71 0.178641 1.87652 0
M  V30 12257 C 1139.84 0.705762 3.31265 0
M  V30 12258 C 1138.88 1.80084 3.86616 0
M  V30 12259 S 1139.72 3.40416 4.13373 0
M  V30 12260 C 1140.87 3.01122 5.48704 0
M  V30 12261 H 1141.11 2.05658 2.14691 0
M  V30 12262 H 1138.64 1.15067 1.02951 0
M  V30 12263 H 1140.6 0.474754 4.07745 0
M  V30 12264 H 1139.26 -0.213699 3.13372 0
M  V30 12265 H 1138.45 1.4649 4.82241 0
M  V30 12266 H 1138.05 1.98636 3.16891 0
M  V30 12267 H 1140.34 2.49355 6.29943 0
M  V30 12268 H 1141.29 3.95671 5.87239 0
M  V30 12269 H 1141.7 2.38865 5.11472 0
M  V30 12270 N 1141.09 -1.09351 1.1349 0
M  V30 12271 C 1142 -2.19564 0.826366 0
M  V30 12272 C 1143.02 -1.72967 -0.189339 0
M  V30 12273 O 1144.2 -2.0139 -0.0202033 0
M  V30 12274 C 1141.26 -3.4542 0.297685 0
M  V30 12275 C 1140.32 -4.06694 1.37473 0
M  V30 12276 C 1139.55 -5.26542 0.871183 0
M  V30 12277 O 1139.78 -5.69657 -0.290958 0
M  V30 12278 O 1138.71 -5.78961 1.64584 0
M  V30 12279 H 1142.54 -2.4841 1.74718 0
M  V30 12280 H 1140.12 -1.18302 0.912414 0
M  V30 12281 H 1142 -4.21399 0.00829479 0
M  V30 12282 H 1140.68 -3.18175 -0.595536 0
M  V30 12283 H 1139.59 -3.32347 1.71745 0
M  V30 12284 H 1140.92 -4.38166 2.24212 0
M  V30 12285 N 1142.57 -0.928524 -1.27343 0
M  V30 12286 C 1143.52 -0.399267 -2.24477 0
M  V30 12287 C 1144.51 0.496927 -1.53034 0
M  V30 12288 O 1145.7 0.334237 -1.73816 0
M  V30 12289 C 1142.83 0.346059 -3.41551 0
M  V30 12290 C 1141.91 -0.566699 -4.20297 0
M  V30 12291 N 1142.3 -1.6869 -4.76841 0
M  V30 12292 C 1140.6 -0.369865 -4.44464 0
M  V30 12293 C 1141.3 -2.25466 -5.36228 0
M  V30 12294 N 1140.28 -1.54414 -5.21207 0
M  V30 12295 H 1144.08 -1.25456 -2.65778 0
M  V30 12296 H 1141.59 -0.782894 -1.42283 0
M  V30 12297 H 1143.59 0.742171 -4.10241 0
M  V30 12298 H 1142.25 1.19827 -3.01781 0
M  V30 12299 H 1143.26 -2.06926 -4.74765 0
M  V30 12300 H 1139.94 0.441619 -4.15158 0
M  V30 12301 H 1141.33 -3.19779 -5.90924 0
M  V30 12302 N 1144.05 1.41491 -0.694123 0
M  V30 12303 C 1145 2.28 -0.00474478 0
M  V30 12304 C 1145.98 1.42125 0.754281 0
M  V30 12305 O 1147.18 1.65408 0.630012 0
M  V30 12306 C 1144.3 3.30408 0.931953 0
M  V30 12307 C 1143.39 4.23762 0.169251 0
M  V30 12308 N 1143.78 4.9884 -0.836181 0
M  V30 12309 C 1142.08 4.44158 0.40494 0
M  V30 12310 C 1142.78 5.67157 -1.2926 0
M  V30 12311 N 1141.76 5.40066 -0.6188 0
M  V30 12312 H 1145.56 2.8348 -0.775652 0
M  V30 12313 H 1143.07 1.53686 -0.524834 0
M  V30 12314 H 1145.07 3.91206 1.44097 0
M  V30 12315 H 1143.73 2.76489 1.70247 0
M  V30 12316 H 1144.74 5.03413 -1.21637 0
M  V30 12317 H 1141.42 4.0125 1.15346 0
M  V30 12318 H 1142.81 6.3735 -2.12684 0
M  V30 12319 N 1145.53 0.438773 1.51369 0
M  V30 12320 C 1146.94 -0.0240139 1.86685 0
M  V30 12321 C 1147.29 -1.41816 1.35583 0
M  V30 12322 O 1146.41 -2.04517 0.707232 0
M  V30 12323 C 1147.01 -0.0503527 3.38763 0
M  V30 12324 C 1145.57 -0.457556 3.73609 0
M  V30 12325 C 1144.72 0.348852 2.75097 0
M  V30 12326 H 1147.67 0.654552 1.44573 0
M  V30 12327 H 1147.69 -0.859534 3.70665 0
M  V30 12328 H 1147.2 0.964451 3.75925 0
M  V30 12329 H 1145.3 -1.47791 3.42036 0
M  V30 12330 H 1145.41 -0.181357 4.78757 0
M  V30 12331 H 1143.78 -0.193037 2.53967 0
M  V30 12332 H 1144.56 1.36256 3.15102 0
M  V30 12333 N 1147.01 -1.56678 0.170181 0
M  V30 12334 C 1147.94 -2.13747 -0.799203 0
M  V30 12335 C 1148.92 -1.06725 -1.22673 0
M  V30 12336 O 1150.1 -1.34694 -1.3187 0
M  V30 12337 C 1147.23 -2.67611 -2.07611 0
M  V30 12338 C 1146.27 -3.86994 -1.7927 0
M  V30 12339 S 1147.11 -5.26771 -0.962951 0
M  V30 12340 C 1148.26 -5.84039 -2.25054 0
M  V30 12341 H 1148.5 -2.95637 -0.313976 0
M  V30 12342 H 1146.03 -1.54336 -0.0444708 0
M  V30 12343 H 1147.99 -2.99291 -2.80954 0
M  V30 12344 H 1146.65 -1.85808 -2.53247 0
M  V30 12345 H 1145.84 -4.23006 -2.74011 0
M  V30 12346 H 1145.44 -3.56195 -1.14023 0
M  V30 12347 H 1147.73 -5.96883 -3.20525 0
M  V30 12348 H 1148.68 -6.81145 -1.93513 0
M  V30 12349 H 1149.09 -5.12449 -2.36763 0
M  V30 12350 N 1148.48 0.103547 -1.57259 0
M  V30 12351 C 1149.71 0.82235 -1.89855 0
M  V30 12352 C 1150.13 1.72694 -0.76303 0
M  V30 12353 O 1149.48 1.8056 0.265421 0
M  V30 12354 C 1149.53 1.64282 -3.22015 0
M  V30 12355 O 1149.26 0.774628 -4.31197 0
M  V30 12356 C 1150.76 2.46543 -3.68418 0
M  V30 12357 H 1147.98 0.235591 -0.628282 0
M  V30 12358 H 1150.52 0.0833106 -2.0433 0
M  V30 12359 H 1148.68 2.33446 -3.09163 0
M  V30 12360 H 1149.09 1.34205 -5.0704 0
M  V30 12361 H 1150.56 2.99618 -4.63609 0
M  V30 12362 H 1151.04 3.24618 -2.95838 0
M  V30 12363 H 1151.65 1.82594 -3.84109 0
M  V30 12364 N 1149.96 1.53094 0.37415 0
M  V30 12365 C 1151.37 1.60641 0.951381 0
M  V30 12366 C 1151.72 0.468474 1.90525 0
M  V30 12367 O 1150.85 -0.406347 2.12551 0
M  V30 12368 C 1151.44 2.91166 1.73228 0
M  V30 12369 C 1150 3.01077 2.25898 0
M  V30 12370 C 1149.15 2.55873 1.06885 0
M  V30 12371 H 1152.1 1.57959 0.153214 0
M  V30 12372 H 1152.12 2.78487 2.59278 0
M  V30 12373 H 1151.63 3.73968 1.03778 0
M  V30 12374 H 1149.73 2.22844 2.98615 0
M  V30 12375 H 1149.85 4.05998 2.54367 0
M  V30 12376 H 1148.21 2.10544 1.43329 0
M  V30 12377 H 1148.99 3.41084 0.38947 0
M  V30 12378 N 1151.44 -0.633461 1.44309 0
M  V30 12379 C 1152.37 -1.75868 1.4698 0
M  V30 12380 C 1153.38 -1.58691 0.363469 0
M  V30 12381 O 1154.57 -1.67048 0.629075 0
M  V30 12382 C 1151.67 -3.1356 1.28582 0
M  V30 12383 C 1150.85 -3.57217 2.52418 0
M  V30 12384 C 1149.91 -4.73779 2.28954 0
M  V30 12385 O 1148.93 -4.8221 3.02428 0
M  V30 12386 N 1150.13 -5.65324 1.31866 0
M  V30 12387 H 1152.9 -1.74048 2.43983 0
M  V30 12388 H 1150.46 -0.817952 1.39718 0
M  V30 12389 H 1152.45 -3.89255 1.10736 0
M  V30 12390 H 1151.02 -3.10036 0.399529 0
M  V30 12391 H 1150.24 -2.71755 2.85557 0
M  V30 12392 H 1151.53 -3.83136 3.3479 0
M  V30 12393 H 1150.93 -5.61204 0.71179 0
M  V30 12394 H 1149.48 -6.40659 1.19998 0
M  V30 12395 N 1152.92 -1.31168 -0.873655 0
M  V30 12396 C 1154.17 -1.20642 -1.6264 0
M  V30 12397 C 1154.49 0.236286 -1.93059 0
M  V30 12398 O 1153.75 1.18401 -1.55819 0
M  V30 12399 C 1154.05 -1.99204 -2.96736 0
M  V30 12400 C 1153.71 -3.48734 -2.85824 0
M  V30 12401 C 1152.38 -3.89507 -2.82555 0
M  V30 12402 C 1154.73 -4.43905 -2.73127 0
M  V30 12403 C 1152.06 -5.23724 -2.64442 0
M  V30 12404 C 1154.41 -5.78242 -2.56551 0
M  V30 12405 C 1153.07 -6.18241 -2.51663 0
M  V30 12406 H 1152.34 -0.44146 -0.595142 0
M  V30 12407 H 1154.99 -1.62394 -1.01492 0
M  V30 12408 H 1153.29 -1.50122 -3.61899 0
M  V30 12409 H 1154.99 -1.88443 -3.53963 0
M  V30 12410 H 1151.58 -3.1634 -2.89184 0
M  V30 12411 H 1155.76 -4.13338 -2.7471 0
M  V30 12412 H 1151.02 -5.53794 -2.59081 0
M  V30 12413 H 1155.19 -6.51616 -2.45702 0
M  V30 12414 H 1152.82 -7.22185 -2.37387 0
M  V30 12415 N 1154.4 1.08748 -1.14068 0
M  V30 12416 C 1155.31 2.19123 -0.837998 0
M  V30 12417 C 1156.32 1.73065 0.180164 0
M  V30 12418 O 1157.5 2.01398 0.00952285 0
M  V30 12419 C 1154.56 3.45257 -0.316 0
M  V30 12420 C 1153.62 4.05959 -1.39628 0
M  V30 12421 C 1152.86 5.26072 -0.899095 0
M  V30 12422 O 1153.08 5.69804 0.260744 0
M  V30 12423 O 1152.01 5.7808 -1.67652 0
M  V30 12424 H 1155.84 2.4748 -1.76033 0
M  V30 12425 H 1153.43 1.17816 -0.918675 0
M  V30 12426 H 1155.31 4.21389 -0.0306425 0
M  V30 12427 H 1153.98 3.18486 0.578654 0
M  V30 12428 H 1152.89 3.31432 -1.73505 0
M  V30 12429 H 1154.22 4.36971 -2.26533 0
M  V30 12430 N 1155.87 0.935264 1.26849 0
M  V30 12431 C 1156.82 0.411166 2.24262 0
M  V30 12432 C 1157.81 -0.488804 1.53296 0
M  V30 12433 O 1159 -0.325015 1.7399 0
M  V30 12434 C 1156.13 -0.327941 3.4173 0
M  V30 12435 C 1155.22 0.58898 4.1999 0
M  V30 12436 N 1155.61 1.71216 4.7594 0
M  V30 12437 C 1153.9 0.393431 4.44261 0
M  V30 12438 C 1154.61 2.28306 5.35024 0
M  V30 12439 N 1153.58 1.57176 5.20381 0
M  V30 12440 H 1157.38 1.26864 2.65109 0
M  V30 12441 H 1154.9 0.790429 1.41866 0
M  V30 12442 H 1156.89 -0.720404 4.10629 0
M  V30 12443 H 1155.55 -1.18225 3.02412 0
M  V30 12444 H 1156.57 2.09441 4.73661 0
M  V30 12445 H 1153.24 -0.419596 4.15386 0
M  V30 12446 H 1154.63 3.22909 5.89219 0
M  V30 12447 N 1157.35 -1.41121 0.701616 0
M  V30 12448 C 1158.6 -2.01428 0.235495 0
M  V30 12449 C 1158.93 -1.55463 -1.16382 0
M  V30 12450 O 1158.21 -0.768477 -1.78675 0
M  V30 12451 C 1158.49 -3.58849 0.299919 0
M  V30 12452 C 1158.34 -4.14924 1.73661 0
M  V30 12453 C 1159.66 -4.38809 -0.336856 0
M  V30 12454 H 1156.78 -0.731842 0.0870456 0
M  V30 12455 H 1159.42 -1.67787 0.891479 0
M  V30 12456 H 1157.57 -3.87638 -0.258611 0
M  V30 12457 H 1159.24 -3.96987 2.34945 0
M  V30 12458 H 1157.49 -3.69738 2.26884 0
M  V30 12459 H 1158.16 -5.24085 1.73318 0
M  V30 12460 H 1160.63 -4.15868 0.138886 0
M  V30 12461 H 1159.51 -5.48278 -0.261264 0
M  V30 12462 H 1159.77 -4.18728 -1.41843 0
M  V30 12463 N 1158.83 -0.446794 -1.51134 0
M  V30 12464 C 1159.76 0.350229 -2.30858 0
M  V30 12465 C 1160.74 1.0125 -1.36684 0
M  V30 12466 O 1161.93 1.01433 -1.65605 0
M  V30 12467 C 1159.06 1.4464 -3.15748 0
M  V30 12468 C 1158.01 0.907102 -4.18277 0
M  V30 12469 C 1157.34 2.09974 -4.91747 0
M  V30 12470 C 1158.64 -0.0649758 -5.2226 0
M  V30 12471 H 1160.33 -0.315105 -2.97737 0
M  V30 12472 H 1157.88 -0.152985 -1.43185 0
M  V30 12473 H 1159.83 2.01127 -3.70305 0
M  V30 12474 H 1158.55 2.14016 -2.46708 0
M  V30 12475 H 1157.21 0.364382 -3.64785 0
M  V30 12476 H 1156.86 2.77991 -4.19202 0
M  V30 12477 H 1156.56 1.74523 -5.61084 0
M  V30 12478 H 1158.08 2.66996 -5.49131 0
M  V30 12479 H 1159.5 0.4099 -5.71833 0
M  V30 12480 H 1157.9 -0.332529 -5.99178 0
M  V30 12481 H 1158.97 -0.998681 -4.74504 0
M  V30 12482 N 1160.31 1.56586 -0.178487 0
M  V30 12483 C 1161.27 2.17091 0.73512 0
M  V30 12484 C 1162.27 1.12088 1.15295 0
M  V30 12485 O 1163.46 1.37563 1.06874 0
M  V30 12486 C 1160.59 2.75957 2.00151 0
M  V30 12487 H 1161.79 2.99176 0.208272 0
M  V30 12488 H 1159.34 1.56138 0.0710967 0
M  V30 12489 H 1160.07 1.97626 2.57127 0
M  V30 12490 H 1159.86 3.52809 1.7108 0
M  V30 12491 H 1161.35 3.2247 2.65335 0
M  V30 12492 N 1161.79 -0.095206 1.57312 0
M  V30 12493 C 1163.03 -0.799903 1.86358 0
M  V30 12494 C 1163.37 -1.78386 0.767593 0
M  V30 12495 O 1162.64 -1.93201 -0.224439 0
M  V30 12496 C 1162.92 -1.52875 3.26039 0
M  V30 12497 C 1162.78 -0.562781 4.46265 0
M  V30 12498 C 1164.1 -2.47935 3.63616 0
M  V30 12499 H 1161.21 -0.289339 0.677829 0
M  V30 12500 H 1163.86 -0.0635369 1.89894 0
M  V30 12501 H 1162.01 -2.15645 3.23156 0
M  V30 12502 H 1163.68 0.0579068 4.61264 0
M  V30 12503 H 1161.92 0.123847 4.33623 0
M  V30 12504 H 1162.59 -1.10989 5.40727 0
M  V30 12505 H 1165.07 -1.95257 3.67442 0
M  V30 12506 H 1163.94 -2.95948 4.62283 0
M  V30 12507 H 1164.21 -3.31687 2.92294 0
M  V30 12508 N 1163.26 -1.53291 -0.366026 0
M  V30 12509 C 1164.51 -1.69117 -1.10653 0
M  V30 12510 C 1164.83 -0.445327 -1.89847 0
M  V30 12511 O 1164.1 0.540616 -1.88293 0
M  V30 12512 H 1162.68 -0.623446 -0.41149 0
M  V30 12513 H 1165.35 -1.90479 -0.412749 0
M  V30 12514 H 1164.44 -2.55205 -1.79658 0
M  V30 12515 N 1164.74 0.6258 -1.44643 0
M  V30 12516 C 1165.69 1.75869 -1.52226 0
M  V30 12517 C 1166.68 1.64765 -0.39355 0
M  V30 12518 O 1167.89 1.70779 -0.568718 0
M  V30 12519 H 1164.27 0.580712 -0.477784 0
M  V30 12520 H 1166.24 1.66596 -2.47565 0
M  V30 12521 C 1164.99 3.14217 -1.48873 0
M  V30 12522 H 1164.31 3.23411 -2.35043 0
M  V30 12523 H 1165.75 3.93365 -1.58239 0
M  V30 12524 C 1164.21 3.36243 -0.210299 0
M  V30 12525 O 1164.74 3.95243 0.717335 0
M  V30 12526 N 1162.94 2.90385 -0.111744 0
M  V30 12527 H 1162.49 2.42555 -0.867466 0
M  V30 12528 H 1162.45 3.05498 0.742871 0
M  V30 12529 N 1166.22 1.31629 0.866686 0
M  V30 12530 C 1167.15 1.22151 1.99001 0
M  V30 12531 C 1168.13 0.107972 1.69757 0
M  V30 12532 O 1169.32 0.293125 1.91975 0
M  V30 12533 C 1166.45 0.93144 3.34577 0
M  V30 12534 C 1165.4 2.0049 3.78137 0
M  V30 12535 C 1164.73 1.56747 5.11209 0
M  V30 12536 C 1166.03 3.41844 3.94892 0
M  V30 12537 H 1167.72 2.16132 2.0719 0
M  V30 12538 H 1165.27 1.04051 0.995463 0
M  V30 12539 H 1167.22 0.851719 4.12703 0
M  V30 12540 H 1165.94 -0.0440289 3.2657 0
M  V30 12541 H 1164.6 2.07457 3.02253 0
M  V30 12542 H 1164.25 0.579767 4.99648 0
M  V30 12543 H 1163.95 2.28562 5.41326 0
M  V30 12544 H 1165.47 1.50188 5.91841 0
M  V30 12545 H 1166.89 3.37534 4.63405 0
M  V30 12546 H 1165.29 4.11905 4.36411 0
M  V30 12547 H 1166.36 3.82389 2.98172 0
M  V30 12548 N 1167.7 -1.08142 1.14644 0
M  V30 12549 C 1168.95 -1.80849 0.917685 0
M  V30 12550 C 1169.28 -1.86123 -0.554249 0
M  V30 12551 O 1168.55 -1.33907 -1.41065 0
M  V30 12552 C 1168.84 -3.26325 1.52264 0
M  V30 12553 C 1168.69 -3.29244 3.06461 0
M  V30 12554 C 1170.01 -4.23375 1.20175 0
M  V30 12555 H 1167.13 -0.656559 0.334812 0
M  V30 12556 H 1169.77 -1.26595 1.41682 0
M  V30 12557 H 1167.92 -3.72656 1.09817 0
M  V30 12558 H 1169.59 -2.91216 3.57758 0
M  V30 12559 H 1167.83 -2.68438 3.40769 0
M  V30 12560 H 1168.51 -4.31785 3.43897 0
M  V30 12561 H 1170.98 -3.85394 1.56877 0
M  V30 12562 H 1169.86 -5.23472 1.65132 0
M  V30 12563 H 1170.12 -4.41944 0.117474 0
M  V30 12564 N 1169.18 -0.941978 -1.26351 0
M  V30 12565 C 1170.42 -0.589971 -1.93715 0
M  V30 12566 C 1170.75 0.871085 -1.73903 0
M  V30 12567 O 1170.01 1.63864 -1.06991 0
M  V30 12568 C 1170.31 -0.879481 -3.4641 0
M  V30 12569 C 1169.97 -2.32454 -3.86362 0
M  V30 12570 C 1168.63 -2.71957 -3.9698 0
M  V30 12571 C 1170.99 -3.2636 -4.06373 0
M  V30 12572 C 1168.31 -4.04459 -4.25006 0
M  V30 12573 C 1170.67 -4.58459 -4.35887 0
M  V30 12574 C 1169.33 -4.97775 -4.4472 0
M  V30 12575 H 1168.6 -0.215886 -0.708854 0
M  V30 12576 H 1171.25 -1.18863 -1.50146 0
M  V30 12577 H 1169.55 -0.198289 -3.91298 0
M  V30 12578 H 1171.25 -0.585887 -3.96697 0
M  V30 12579 H 1167.84 -2.00814 -3.78645 0
M  V30 12580 H 1172.02 -2.97037 -3.97596 0
M  V30 12581 H 1167.28 -4.34582 -4.30057 0
M  V30 12582 H 1171.45 -5.31213 -4.50317 0
M  V30 12583 H 1169.08 -6.00475 -4.66191 0
M  V30 12584 N 1170.66 1.40747 -0.709091 0
M  V30 12585 C 1171.88 2.05319 -0.255258 0
M  V30 12586 C 1172.3 1.53406 1.10054 0
M  V30 12587 O 1171.66 0.687905 1.69039 0
M  V30 12588 C 1171.71 3.60835 -0.219251 0
M  V30 12589 O 1171.43 4.1083 -1.52151 0
M  V30 12590 C 1172.93 4.42572 0.253927 0
M  V30 12591 H 1170.15 0.660904 -0.115959 0
M  V30 12592 H 1172.69 1.80274 -0.965474 0
M  V30 12593 H 1170.85 3.84872 0.441882 0
M  V30 12594 H 1171.26 5.04979 -1.41764 0
M  V30 12595 H 1172.74 5.51529 0.22798 0
M  V30 12596 H 1173.21 4.19673 1.29504 0
M  V30 12597 H 1173.82 4.23629 -0.376694 0
M  V30 12598 N 1172.13 0.454803 1.50895 0
M  V30 12599 C 1173.38 -0.105562 2.01824 0
M  V30 12600 C 1173.7 -1.41673 1.33992 0
M  V30 12601 O 1172.97 -1.89929 0.479994 0
M  V30 12602 H 1171.55 -0.0420011 0.745818 0
M  V30 12603 H 1174.21 0.601504 1.85386 0
M  V30 12604 H 1173.31 -0.268872 3.1094 0
M  V30 12605 N 1173.61 -1.56489 0.186789 0
M  V30 12606 C 1174.86 -1.96517 -0.45433 0
M  V30 12607 C 1175.17 -1.07618 -1.63333 0
M  V30 12608 O 1176.38 -1.37392 -2.3417 0
M  V30 12609 C 1174.84 -3.49482 -0.859685 0
M  V30 12610 C 1174.44 -4.47031 0.294572 0
M  V30 12611 C 1176.19 -3.98296 -1.46835 0
M  V30 12612 C 1174.09 -5.91254 -0.131279 0
M  V30 12613 H 1173.02 -0.733765 -0.17351 0
M  V30 12614 H 1175.68 -1.8139 0.277485 0
M  V30 12615 H 1174.06 -3.60082 -1.64793 0
M  V30 12616 H 1175.23 -4.48156 1.07205 0
M  V30 12617 H 1173.55 -4.08362 0.814197 0
M  V30 12618 H 1176.14 -5.03518 -1.79928 0
M  V30 12619 H 1176.49 -3.42123 -2.37186 0
M  V30 12620 H 1177.02 -3.90776 -0.744247 0
M  V30 12621 H 1173.76 -6.51334 0.737839 0
M  V30 12622 H 1173.28 -5.93401 -0.873786 0
M  V30 12623 H 1174.96 -6.44485 -0.569913 0
M  V30 12624 N 1175.09 0.086862 -1.5736 0
M  V30 12625 C 1176.34 0.78884 -1.86504 0
M  V30 12626 C 1176.66 1.78329 -0.77646 0
M  V30 12627 O 1175.92 1.94354 0.229122 0
M  V30 12628 C 1176.22 1.54537 -3.22263 0
M  V30 12629 C 1175.88 0.692284 -4.45554 0
M  V30 12630 C 1174.55 0.45714 -4.79024 0
M  V30 12631 C 1176.9 0.0997695 -5.21105 0
M  V30 12632 C 1174.23 -0.380247 -5.85466 0
M  V30 12633 C 1176.58 -0.724986 -6.28432 0
M  V30 12634 C 1175.24 -0.970144 -6.60412 0
M  V30 12635 H 1174.51 0.288657 -0.682465 0
M  V30 12636 H 1177.16 0.050059 -1.91435 0
M  V30 12637 H 1175.46 2.35594 -3.13053 0
M  V30 12638 H 1177.16 2.09305 -3.42042 0
M  V30 12639 H 1173.75 0.885675 -4.19349 0
M  V30 12640 H 1177.94 0.268583 -4.95573 0
M  V30 12641 H 1173.19 -0.579084 -6.08651 0
M  V30 12642 H 1177.37 -1.19093 -6.86141 0
M  V30 12643 H 1174.99 -1.6208 -7.42721 0
M  V30 12644 N 1176.57 1.53483 0.357892 0
M  V30 12645 C 1177.8 1.73956 1.12013 0
M  V30 12646 C 1178.21 0.472053 1.82803 0
M  V30 12647 O 1177.57 -0.555499 1.7384 0
M  V30 12648 C 1177.62 2.91015 2.14459 0
M  V30 12649 O 1177.34 4.12862 1.4655 0
M  V30 12650 C 1178.84 3.23423 3.0317 0
M  V30 12651 H 1176.06 0.58161 0.334621 0
M  V30 12652 H 1178.6 2.00256 0.414467 0
M  V30 12653 H 1176.76 2.67087 2.80612 0
M  V30 12654 H 1177.17 4.78468 2.14869 0
M  V30 12655 H 1178.65 4.08717 3.71018 0
M  V30 12656 H 1179.12 2.39114 3.68404 0
M  V30 12657 H 1179.73 3.49305 2.42624 0
M  V30 12658 N 1178.05 -0.61812 1.44973 0
M  V30 12659 C 1179.01 -1.71135 1.52465 0
M  V30 12660 C 1180.01 -1.5561 0.405246 0
M  V30 12661 O 1181.2 -1.60869 0.668351 0
M  V30 12662 C 1178.33 -3.10324 1.41108 0
M  V30 12663 H 1179.52 -1.65862 2.49859 0
M  V30 12664 H 1177.08 -0.832932 1.32257 0
M  V30 12665 H 1177.81 -3.21183 0.448574 0
M  V30 12666 H 1177.6 -3.23001 2.2229 0
M  V30 12667 H 1179.09 -3.89976 1.49361 0
M  V30 12668 N 1179.52 -1.32087 -0.859693 0
M  V30 12669 C 1180.43 -1.22587 -2.00024 0
M  V30 12670 C 1181.45 -0.140477 -1.73432 0
M  V30 12671 O 1182.63 -0.360213 -1.98153 0
M  V30 12672 C 1179.69 -0.944195 -3.33595 0
M  V30 12673 C 1178.75 -2.11752 -3.73443 0
M  V30 12674 C 1177.98 -1.84919 -5.0064 0
M  V30 12675 O 1178.21 -0.789299 -5.64913 0
M  V30 12676 O 1177.14 -2.70885 -5.37499 0
M  V30 12677 H 1180.97 -2.18457 -2.10974 0
M  V30 12678 H 1178.55 -1.11927 -0.989577 0
M  V30 12679 H 1180.43 -0.803389 -4.13671 0
M  V30 12680 H 1179.11 -0.0156083 -3.23696 0
M  V30 12681 H 1178.02 -2.31378 -2.93965 0
M  V30 12682 H 1179.35 -3.02872 -3.87981 0
M  V30 12683 N 1181 1.07532 -1.15215 0
M  V30 12684 C 1181.93 2.1406 -0.7908 0
M  V30 12685 C 1182.91 1.60938 0.231922 0
M  V30 12686 O 1184.1 1.88125 0.118906 0
M  V30 12687 C 1181.22 3.38244 -0.175633 0
M  V30 12688 C 1180.27 4.10139 -1.16996 0
M  V30 12689 S 1181.1 4.61795 -2.71119 0
M  V30 12690 C 1182.26 5.89256 -2.11016 0
M  V30 12691 H 1182.49 2.44381 -1.69308 0
M  V30 12692 H 1180.02 1.19777 -0.974308 0
M  V30 12693 H 1181.98 4.10136 0.172859 0
M  V30 12694 H 1180.64 3.06104 0.704211 0
M  V30 12695 H 1179.84 4.99286 -0.687714 0
M  V30 12696 H 1179.44 3.44203 -1.46289 0
M  V30 12697 H 1181.73 6.61336 -1.47109 0
M  V30 12698 H 1182.67 6.42191 -2.98322 0
M  V30 12699 H 1183.08 5.4269 -1.55394 0
M  V30 12700 N 1182.48 0.948665 1.2585 0
M  V30 12701 C 1183.73 0.600236 1.934 0
M  V30 12702 C 1184.06 -0.86185 1.74363 0
M  V30 12703 O 1183.31 -1.63294 1.07858 0
M  V30 12704 C 1183.61 0.89784 3.45939 0
M  V30 12705 C 1183.28 2.345 3.85124 0
M  V30 12706 C 1181.94 2.74058 3.95532 0
M  V30 12707 C 1184.29 3.2851 4.04636 0
M  V30 12708 C 1181.62 4.06707 4.22855 0
M  V30 12709 C 1183.97 4.60764 4.3345 0
M  V30 12710 C 1182.63 5.00127 4.42074 0
M  V30 12711 H 1181.9 0.219642 0.707699 0
M  V30 12712 H 1184.55 1.19658 1.49513 0
M  V30 12713 H 1182.86 0.219037 3.91187 0
M  V30 12714 H 1184.55 0.606916 3.96381 0
M  V30 12715 H 1181.14 2.02819 3.77574 0
M  V30 12716 H 1185.33 2.99141 3.96015 0
M  V30 12717 H 1180.58 4.36856 4.27746 0
M  V30 12718 H 1184.76 5.33594 4.47493 0
M  V30 12719 H 1182.38 6.02939 4.63 0
M  V30 12720 N 1183.96 -1.40369 0.716545 0
M  V30 12721 C 1184.89 -2.33365 0.0793533 0
M  V30 12722 C 1185.87 -1.52943 -0.744482 0
M  V30 12723 O 1187.05 -1.81406 -0.693212 0
M  V30 12724 C 1184.18 -3.36928 -0.842429 0
M  V30 12725 C 1183.14 -4.2782 -0.124142 0
M  V30 12726 C 1182.46 -5.21928 -1.1617 0
M  V30 12727 C 1183.76 -5.12199 1.02224 0
M  V30 12728 H 1185.46 -2.86899 0.856115 0
M  V30 12729 H 1183 -1.37946 0.413138 0
M  V30 12730 H 1184.96 -4.00925 -1.29759 0
M  V30 12731 H 1183.68 -2.81791 -1.6511 0
M  V30 12732 H 1182.34 -3.65277 0.311201 0
M  V30 12733 H 1181.99 -4.63096 -1.96345 0
M  V30 12734 H 1181.69 -5.83582 -0.685978 0
M  V30 12735 H 1183.21 -5.88802 -1.61694 0
M  V30 12736 H 1184.63 -5.69644 0.646399 0
M  V30 12737 H 1183.02 -5.82901 1.4264 0
M  V30 12738 H 1184.09 -4.4812 1.85246 0
M  V30 12739 N 1185.44 -0.462799 -1.50652 0
M  V30 12740 C 1186.38 0.335664 -2.28346 0
M  V30 12741 C 1187.35 0.994541 -1.33034 0
M  V30 12742 O 1188.54 1.00857 -1.61964 0
M  V30 12743 C 1185.68 1.41648 -3.1469 0
M  V30 12744 C 1184.79 0.773207 -4.25024 0
M  V30 12745 C 1183.93 1.83121 -4.98638 0
M  V30 12746 C 1182.97 1.16774 -6.00858 0
M  V30 12747 N 1182.1 2.16823 -6.67782 0
M  V30 12748 H 1186.94 -0.333202 -2.96131 0
M  V30 12749 H 1184.48 -0.176166 -1.46041 0
M  V30 12750 H 1186.44 2.05468 -3.63096 0
M  V30 12751 H 1185.07 2.05462 -2.48968 0
M  V30 12752 H 1184.12 0.0226444 -3.80393 0
M  V30 12753 H 1185.43 0.249061 -4.98178 0
M  V30 12754 H 1184.59 2.54543 -5.5072 0
M  V30 12755 H 1183.32 2.38915 -4.25172 0
M  V30 12756 H 1182.33 0.439112 -5.48044 0
M  V30 12757 H 1183.55 0.616809 -6.76293 0
M  V30 12758 H 1181.5 2.71649 -5.97112 0
M  V30 12759 H 1181.42 1.69371 -7.36783 0
M  V30 12760 H 1182.69 2.8765 -7.24484 0
M  V30 12761 N 1186.91 1.56388 -0.195085 0
M  V30 12762 C 1187.84 2.22091 0.720971 0
M  V30 12763 C 1188.83 1.184 1.22128 0
M  V30 12764 O 1190.01 1.46907 1.27012 0
M  V30 12765 C 1187.14 2.88025 1.94059 0
M  V30 12766 C 1186.09 3.97959 1.5752 0
M  V30 12767 C 1185.42 4.51058 2.87143 0
M  V30 12768 C 1186.72 5.16365 0.785145 0
M  V30 12769 H 1188.41 2.98898 0.173245 0
M  V30 12770 H 1185.96 1.43767 0.0818868 0
M  V30 12771 H 1187.91 3.32671 2.58666 0
M  V30 12772 H 1186.64 2.08623 2.51285 0
M  V30 12773 H 1185.3 3.54004 0.952715 0
M  V30 12774 H 1184.94 3.68418 3.42458 0
M  V30 12775 H 1184.64 5.25237 2.63439 0
M  V30 12776 H 1186.17 4.98406 3.52738 0
M  V30 12777 H 1187.58 5.57556 1.33431 0
M  V30 12778 H 1185.98 5.9661 0.646231 0
M  V30 12779 H 1187.05 4.84428 -0.213789 0
M  V30 12780 N 1188.39 -0.0785156 1.57404 0
M  V30 12781 C 1189.64 -0.777722 1.86103 0
M  V30 12782 C 1189.95 -1.79079 0.786771 0
M  V30 12783 O 1191.16 -2.53908 0.961393 0
M  V30 12784 C 1189.62 -1.43407 3.30095 0
M  V30 12785 C 1189.22 -0.459912 4.45633 0
M  V30 12786 C 1190.97 -2.11603 3.68 0
M  V30 12787 C 1188.88 -1.12179 5.80663 0
M  V30 12788 H 1187.81 -0.294205 0.694233 0
M  V30 12789 H 1190.46 -0.0309003 1.83474 0
M  V30 12790 H 1188.84 -2.22892 3.27315 0
M  V30 12791 H 1190.01 0.304642 4.59792 0
M  V30 12792 H 1188.33 0.117242 4.16235 0
M  V30 12793 H 1190.92 -2.61887 4.66175 0
M  V30 12794 H 1191.27 -2.91244 2.9746 0
M  V30 12795 H 1191.8 -1.38958 3.72741 0
M  V30 12796 H 1188.54 -0.365842 6.54478 0
M  V30 12797 H 1188.06 -1.85737 5.70317 0
M  V30 12798 H 1189.74 -1.64355 6.25777 0
M  V30 12799 N 1189.87 -1.5367 -0.349747 0
M  V30 12800 C 1190.83 -1.80533 -1.41211 0
M  V30 12801 C 1191.83 -0.676188 -1.45892 0
M  V30 12802 O 1193.02 -0.944453 -1.46375 0
M  V30 12803 C 1190.16 -1.94175 -2.80195 0
M  V30 12804 H 1191.35 -2.75428 -1.18658 0
M  V30 12805 H 1188.9 -1.44988 -0.583787 0
M  V30 12806 H 1189.64 -1.01402 -3.08039 0
M  V30 12807 H 1189.42 -2.76316 -2.78194 0
M  V30 12808 H 1190.91 -2.16496 -3.57098 0
M  V30 12809 N 1191.35 0.610423 -1.45298 0
M  V30 12810 C 1192.28 1.73493 -1.48241 0
M  V30 12811 C 1193.26 1.59025 -0.339065 0
M  V30 12812 O 1194.44 1.80625 -0.539144 0
M  V30 12813 C 1191.57 3.11291 -1.33476 0
M  V30 12814 C 1190.62 3.44355 -2.51638 0
M  V30 12815 S 1191.45 3.39512 -4.14116 0
M  V30 12816 C 1192.61 4.79895 -4.01811 0
M  V30 12817 H 1192.84 1.70734 -2.43387 0
M  V30 12818 H 1190.37 0.786833 -1.32847 0
M  V30 12819 H 1192.33 3.90799 -1.25644 0
M  V30 12820 H 1190.99 3.11568 -0.39805 0
M  V30 12821 H 1190.18 4.44679 -2.37226 0
M  V30 12822 H 1189.79 2.72356 -2.56317 0
M  V30 12823 H 1192.08 5.6963 -3.6678 0
M  V30 12824 H 1193.02 4.99363 -5.02038 0
M  V30 12825 H 1193.43 4.55443 -3.33515 0
M  V30 12826 N 1192.83 1.32541 0.852676 0
M  V30 12827 C 1194.1 1.1383 1.59067 0
M  V30 12828 C 1194.48 -0.300584 2.08949 0
M  V30 12829 O 1193.83 -1.29751 1.88088 0
M  V30 12830 C 1194.04 2.16758 2.73527 0
M  V30 12831 C 1195.39 2.50194 3.43057 0
M  V30 12832 O 1196.41 2.15319 2.83754 0
M  V30 12833 O 1195.27 3.09985 4.50079 0
M  V30 12834 H 1192.37 0.439379 0.700625 0
M  V30 12835 H 1194.91 1.44078 0.896632 0
M  V30 12836 H 1193.68 3.13469 2.34207 0
M  V30 12837 H 1193.31 1.87515 3.50605 0
M  V30 12838 N 1194.3 -1.0692 1.15784 0
M  V30 12839 C 1195.72 -1.61069 0.944123 0
M  V30 12840 C 1196.07 -1.8936 -0.513522 0
M  V30 12841 O 1195.19 -1.66232 -1.38549 0
M  V30 12842 C 1195.79 -2.9263 1.70743 0
M  V30 12843 C 1194.35 -3.43505 1.53887 0
M  V30 12844 C 1193.49 -2.17495 1.72021 0
M  V30 12845 H 1196.44 -0.89951 1.30746 0
M  V30 12846 H 1196.46 -3.61757 1.17951 0
M  V30 12847 H 1195.98 -2.72007 2.76828 0
M  V30 12848 H 1194.08 -3.69201 0.502153 0
M  V30 12849 H 1194.19 -4.19254 2.31868 0
M  V30 12850 H 1192.55 -2.27407 1.1471 0
M  V30 12851 H 1193.34 -1.99362 2.79481 0
M  V30 12852 N 1195.78 -0.955326 -1.25345 0
M  V30 12853 C 1197.01 -0.626783 -1.96863 0
M  V30 12854 C 1197.42 0.80547 -1.71198 0
M  V30 12855 O 1196.76 1.55049 -0.985163 0
M  V30 12856 C 1196.83 -0.806404 -3.50339 0
M  V30 12857 C 1196.49 -2.21595 -3.99681 0
M  V30 12858 C 1197.49 -3.19268 -4.10322 0
M  V30 12859 C 1195.17 -2.54032 -4.33328 0
M  V30 12860 C 1197.17 -4.47471 -4.53926 0
M  V30 12861 C 1194.85 -3.82465 -4.76617 0
M  V30 12862 C 1195.85 -4.78997 -4.86879 0
M  V30 12863 O 1195.54 -6.0514 -5.29208 0
M  V30 12864 H 1195.27 -0.233854 -0.634262 0
M  V30 12865 H 1197.82 -1.28232 -1.60455 0
M  V30 12866 H 1196.05 -0.0937184 -3.86586 0
M  V30 12867 H 1197.74 -0.47881 -4.03066 0
M  V30 12868 H 1198.51 -2.95534 -3.84558 0
M  V30 12869 H 1194.39 -1.79623 -4.24566 0
M  V30 12870 H 1197.93 -5.22819 -4.6185 0
M  V30 12871 H 1193.83 -4.06005 -5.01827 0
M  V30 12872 H 1194.6 -6.08527 -5.47392 0
M  V30 12873 N 1197.26 1.39987 -0.723979 0
M  V30 12874 C 1198.49 2.0474 -0.276618 0
M  V30 12875 C 1198.9 1.54675 1.0896 0
M  V30 12876 O 1198.24 0.701956 1.69759 0
M  V30 12877 C 1198.3 3.59009 -0.187912 0
M  V30 12878 C 1197.97 4.32 -1.49079 0
M  V30 12879 C 1198.97 4.59385 -2.43436 0
M  V30 12880 C 1196.65 4.70753 -1.75204 0
M  V30 12881 C 1198.64 5.24519 -3.62159 0
M  V30 12882 C 1196.33 5.35617 -2.94206 0
M  V30 12883 C 1197.33 5.62431 -3.87506 0
M  V30 12884 O 1197.02 6.25952 -5.0442 0
M  V30 12885 H 1196.75 0.665164 -0.120554 0
M  V30 12886 H 1199.3 1.80226 -0.98527 0
M  V30 12887 H 1197.53 3.82375 0.576753 0
M  V30 12888 H 1199.22 4.0527 0.225993 0
M  V30 12889 H 1199.99 4.29902 -2.24519 0
M  V30 12890 H 1195.87 4.49247 -1.03433 0
M  V30 12891 H 1199.41 5.45364 -4.34999 0
M  V30 12892 H 1195.31 5.64521 -3.13029 0
M  V30 12893 H 1196.08 6.44448 -5.04608 0
M  V30 12894 N 1198.74 0.470782 1.50404 0
M  V30 12895 C 1199.97 -0.0818945 2.06438 0
M  V30 12896 C 1200.38 -1.34085 1.33483 0
M  V30 12897 O 1199.72 -1.79346 0.397565 0
M  V30 12898 C 1199.78 -0.436252 3.56843 0
M  V30 12899 C 1199.45 0.720641 4.51282 0
M  V30 12900 C 1200.44 1.60258 4.94584 0
M  V30 12901 C 1198.13 0.910879 4.93972 0
M  V30 12902 C 1200.12 2.65916 5.79282 0
M  V30 12903 C 1197.81 1.97069 5.78452 0
M  V30 12904 C 1198.81 2.84319 6.21008 0
M  V30 12905 O 1198.5 3.88476 7.03805 0
M  V30 12906 H 1198.23 0.00361688 0.67599 0
M  V30 12907 H 1200.78 0.658488 1.94559 0
M  V30 12908 H 1199.01 -1.22982 3.66623 0
M  V30 12909 H 1200.7 -0.923976 3.95244 0
M  V30 12910 H 1201.47 1.46729 4.62272 0
M  V30 12911 H 1197.35 0.241225 4.60368 0
M  V30 12912 H 1200.89 3.3405 6.12419 0
M  V30 12913 H 1196.79 2.10605 6.10177 0
M  V30 12914 H 1197.55 3.8546 7.22054 0
M  V30 12915 N 1200.22 -1.56282 0.203376 0
M  V30 12916 C 1201.46 -1.97812 -0.433202 0
M  V30 12917 C 1201.79 -1.09052 -1.61053 0
M  V30 12918 O 1201.05 -0.131417 -1.95258 0
M  V30 12919 C 1201.35 -3.45148 -0.927759 0
M  V30 12920 C 1201.01 -4.50692 0.137083 0
M  V30 12921 C 1199.67 -4.79278 0.429652 0
M  V30 12922 C 1202.03 -5.14086 0.858174 0
M  V30 12923 C 1199.35 -5.68547 1.44815 0
M  V30 12924 C 1201.71 -6.04457 1.86588 0
M  V30 12925 C 1200.37 -6.31395 2.16556 0
M  V30 12926 H 1199.64 -0.723846 -0.15852 0
M  V30 12927 H 1202.29 -1.89102 0.302082 0
M  V30 12928 H 1200.59 -3.5097 -1.74147 0
M  V30 12929 H 1202.29 -3.74642 -1.42984 0
M  V30 12930 H 1198.88 -4.28481 -0.101111 0
M  V30 12931 H 1203.06 -4.92086 0.645376 0
M  V30 12932 H 1198.32 -5.87689 1.68615 0
M  V30 12933 H 1202.49 -6.52636 2.4298 0
M  V30 12934 H 1200.12 -7.00366 2.9562 0
M  V30 12935 N 1201.7 0.070167 -1.57444 0
M  V30 12936 C 1202.63 1.10996 -2.0053 0
M  V30 12937 C 1203.64 1.3489 -0.91151 0
M  V30 12938 O 1204.83 1.33102 -1.18938 0
M  V30 12939 C 1201.93 2.46053 -2.33048 0
M  V30 12940 C 1201.1 2.42092 -3.64294 0
M  V30 12941 C 1200.16 3.5927 -3.84463 0
M  V30 12942 O 1199.19 3.40625 -4.5603 0
M  V30 12943 N 1200.39 4.79677 -3.26941 0
M  V30 12944 H 1203.15 0.743029 -2.90343 0
M  V30 12945 H 1200.72 0.258794 -1.59818 0
M  V30 12946 H 1202.71 3.23089 -2.43712 0
M  V30 12947 H 1201.28 2.74742 -1.49116 0
M  V30 12948 H 1200.5 1.5043 -3.64368 0
M  V30 12949 H 1201.79 2.36548 -4.50469 0
M  V30 12950 H 1201.18 4.97729 -2.68855 0
M  V30 12951 H 1199.74 5.54219 -3.43051 0
M  V30 12952 N 1203.17 1.53854 0.341593 0
M  V30 12953 C 1204.08 1.84975 1.44297 0
M  V30 12954 C 1205.1 0.740057 1.57477 0
M  V30 12955 O 1206.28 1.03256 1.72917 0
M  V30 12956 C 1203.34 2.05464 2.79259 0
M  V30 12957 C 1202.4 3.29318 2.75405 0
M  V30 12958 C 1201.63 3.4882 4.03931 0
M  V30 12959 O 1201.86 2.7212 5.01305 0
M  V30 12960 O 1200.79 4.42253 4.08284 0
M  V30 12961 H 1204.62 2.78592 1.20913 0
M  V30 12962 H 1202.2 1.39532 0.533953 0
M  V30 12963 H 1204.08 2.20374 3.59184 0
M  V30 12964 H 1202.76 1.15035 3.0257 0
M  V30 12965 H 1201.67 3.1981 1.94094 0
M  V30 12966 H 1203 4.19746 2.57049 0
M  V30 12967 N 1204.65 -0.602709 1.4562 0
M  V30 12968 C 1205.9 -1.35889 1.49595 0
M  V30 12969 C 1206.22 -1.9449 0.141002 0
M  V30 12970 O 1205.49 -1.77438 -0.830209 0
M  V30 12971 H 1204.07 -0.504478 0.550918 0
M  V30 12972 H 1206.73 -0.707376 1.8161 0
M  V30 12973 H 1205.83 -2.17583 2.2375 0
M  V30 12974 N 1206.13 -1.32992 -0.845635 0
M  V30 12975 C 1207.38 -1.25258 -1.60256 0
M  V30 12976 C 1207.73 0.181685 -1.9154 0
M  V30 12977 O 1207.02 1.12193 -1.55316 0
M  V30 12978 C 1207.22 -2.05454 -2.92444 0
M  V30 12979 C 1207.05 -3.56533 -2.7407 0
M  V30 12980 C 1205.82 -4.25857 -2.71981 0
M  V30 12981 C 1208.01 -4.51003 -2.47186 0
M  V30 12982 N 1206 -5.6293 -2.44913 0
M  V30 12983 C 1207.37 -5.75917 -2.29607 0
M  V30 12984 C 1209.42 -4.40162 -2.32727 0
M  V30 12985 C 1208.13 -6.91214 -1.99037 0
M  V30 12986 C 1210.15 -5.55267 -2.0355 0
M  V30 12987 C 1209.51 -6.79186 -1.86777 0
M  V30 12988 H 1205.61 -0.513536 -0.58975 0
M  V30 12989 H 1208.2 -1.67458 -0.993277 0
M  V30 12990 H 1206.37 -1.65585 -3.51335 0
M  V30 12991 H 1208.1 -1.89543 -3.57569 0
M  V30 12992 H 1204.85 -3.78064 -2.85245 0
M  V30 12993 H 1205.28 -6.3517 -2.34282 0
M  V30 12994 H 1209.92 -3.44998 -2.4441 0
M  V30 12995 H 1207.64 -7.86381 -1.86091 0
M  V30 12996 H 1211.22 -5.48811 -1.93127 0
M  V30 12997 H 1210.1 -7.66748 -1.64523 0
M  V30 12998 N 1207.61 1.06304 -1.1635 0
M  V30 12999 C 1208.56 2.15879 -0.865967 0
M  V30 13000 C 1209.55 1.68595 0.164929 0
M  V30 13001 O 1210.76 1.7999 0.0189271 0
M  V30 13002 H 1207.13 0.704721 -0.262435 0
M  V30 13003 H 1209.1 2.38185 -1.79751 0
M  V30 13004 C 1207.85 3.4558 -0.383374 0
M  V30 13005 H 1207.17 3.82356 -1.16806 0
M  V30 13006 H 1208.61 4.2346 -0.213964 0
M  V30 13007 C 1207.07 3.24738 0.897044 0
M  V30 13008 O 1207.6 3.50284 1.96632 0
M  V30 13009 N 1205.81 2.78172 0.840761 0
M  V30 13010 H 1205.36 2.57583 -0.029584 0
M  V30 13011 H 1205.31 2.64606 1.69797 0
M  V30 13012 N 1209.09 0.96196 1.24836 0
M  V30 13013 C 1210.33 0.616342 1.92052 0
M  V30 13014 C 1210.65 -0.851601 1.76088 0
M  V30 13015 O 1211.85 -1.3075 2.37943 0
M  V30 13016 C 1210.31 1.05168 3.44191 0
M  V30 13017 C 1209.92 2.54268 3.68852 0
M  V30 13018 C 1211.66 0.778938 4.17292 0
M  V30 13019 C 1209.57 2.91564 5.14533 0
M  V30 13020 H 1208.5 0.22681 0.719078 0
M  V30 13021 H 1211.15 1.1674 1.41577 0
M  V30 13022 H 1209.53 0.428979 3.9367 0
M  V30 13023 H 1210.71 3.21619 3.29997 0
M  V30 13024 H 1209.02 2.79091 3.09026 0
M  V30 13025 H 1211.62 1.03366 5.24614 0
M  V30 13026 H 1211.96 -0.284772 4.15325 0
M  V30 13027 H 1212.49 1.36233 3.73745 0
M  V30 13028 H 1209.23 3.96982 5.21618 0
M  V30 13029 H 1208.75 2.28892 5.54408 0
M  V30 13030 H 1210.43 2.81155 5.82718 0
M  V30 13031 N 1210.56 -1.39601 0.731392 0
M  V30 13032 C 1211.81 -2.00586 0.277756 0
M  V30 13033 C 1212.14 -1.58027 -1.13391 0
M  V30 13034 O 1211.39 -0.798691 -1.7866 0
M  V30 13035 C 1211.69 -3.55934 0.323352 0
M  V30 13036 C 1211.36 -4.18131 1.68753 0
M  V30 13037 C 1210.02 -4.34833 2.06092 0
M  V30 13038 C 1212.37 -4.5267 2.58339 0
M  V30 13039 C 1209.7 -4.83362 3.32532 0
M  V30 13040 C 1212.05 -5.02607 3.84148 0
M  V30 13041 C 1210.72 -5.17517 4.21584 0
M  V30 13042 H 1209.99 -0.733996 0.101638 0
M  V30 13043 H 1212.63 -1.66981 0.937528 0
M  V30 13044 H 1210.94 -3.89542 -0.419995 0
M  V30 13045 H 1212.64 -4.00974 -0.0457235 0
M  V30 13046 H 1209.23 -4.0553 1.38722 0
M  V30 13047 H 1213.41 -4.39388 2.30763 0
M  V30 13048 H 1208.67 -4.93091 3.61485 0
M  V30 13049 H 1212.84 -5.28306 4.53724 0
M  V30 13050 H 1210.47 -5.54882 5.19625 0
M  V30 13051 N 1212.04 -0.478751 -1.50152 0
M  V30 13052 C 1213.32 0.135533 -1.9513 0
M  V30 13053 C 1213.7 1.56253 -1.41944 0
M  V30 13054 O 1213.05 2.19824 -0.623673 0
M  V30 13055 C 1213.26 0.0710037 -3.48928 0
M  V30 13056 C 1214.61 0.256075 -4.23827 0
M  V30 13057 O 1215.63 0.147234 -3.55896 0
M  V30 13058 O 1214.49 0.476741 -5.44417 0
M  V30 13059 H 1211.58 0.107491 -0.819985 0
M  V30 13060 H 1214.13 -0.539701 -1.60889 0
M  V30 13061 H 1212.9 -0.925012 -3.80209 0
M  V30 13062 H 1212.52 0.787362 -3.89726 0
M  V30 13063 N 1213.52 1.56172 -0.211661 0
M  V30 13064 C 1214.77 1.97648 0.421871 0
M  V30 13065 C 1215.09 1.10026 1.60995 0
M  V30 13066 O 1214.36 0.175109 1.95116 0
M  V30 13067 H 1212.94 0.729914 0.158852 0
M  V30 13068 H 1215.6 1.92542 -0.302254 0
M  V30 13069 H 1214.7 3.02834 0.754868 0
M  V30 13070 N 1215 -0.0618163 1.57479 0
M  V30 13071 C 1216.25 -0.759069 1.87735 0
M  V30 13072 C 1216.57 -1.77071 0.804732 0
M  V30 13073 O 1215.83 -1.94694 -0.198173 0
M  V30 13074 C 1216.13 -1.4939 3.2468 0
M  V30 13075 C 1215.79 -0.621312 4.46599 0
M  V30 13076 C 1214.46 -0.380873 4.7969 0
M  V30 13077 C 1216.81 -0.0168537 5.21197 0
M  V30 13078 C 1214.14 0.473341 5.84787 0
M  V30 13079 C 1216.49 0.824872 6.27199 0
M  V30 13080 C 1215.15 1.07509 6.58785 0
M  V30 13081 H 1214.42 -0.277763 0.686971 0
M  V30 13082 H 1217.07 -0.0195971 1.9149 0
M  V30 13083 H 1215.37 -2.30584 3.16762 0
M  V30 13084 H 1217.07 -2.03837 3.45328 0
M  V30 13085 H 1213.66 -0.818848 4.20705 0
M  V30 13086 H 1217.84 -0.189707 4.95937 0
M  V30 13087 H 1213.1 0.675842 6.07653 0
M  V30 13088 H 1217.27 1.29993 6.8416 0
M  V30 13089 H 1214.9 1.73876 7.40048 0
M  V30 13090 N 1216.48 -1.54033 -0.333429 0
M  V30 13091 C 1217.73 -1.70979 -1.07 0
M  V30 13092 C 1218.04 -0.485095 -1.89489 0
M  V30 13093 O 1219.24 -0.535712 -2.66162 0
M  V30 13094 C 1217.7 -3.02382 -1.95175 0
M  V30 13095 C 1217.31 -4.32223 -1.17844 0
M  V30 13096 C 1219.05 -3.28693 -2.68628 0
M  V30 13097 C 1216.96 -5.54693 -2.05109 0
M  V30 13098 H 1215.89 -0.637152 -0.403179 0
M  V30 13099 H 1218.54 -1.80529 -0.328839 0
M  V30 13100 H 1216.92 -2.86714 -2.73151 0
M  V30 13101 H 1218.1 -4.58626 -0.447089 0
M  V30 13102 H 1216.41 -4.12601 -0.561166 0
M  V30 13103 H 1219.01 -4.17385 -3.34207 0
M  V30 13104 H 1219.35 -2.46141 -3.35738 0
M  V30 13105 H 1219.88 -3.45183 -1.9772 0
M  V30 13106 H 1216.62 -6.39818 -1.42523 0
M  V30 13107 H 1216.14 -5.32524 -2.76005 0
M  V30 13108 H 1217.82 -5.90722 -2.63926 0
M  V30 13109 N 1217.95 0.594978 -1.45938 0
M  V30 13110 C 1219.2 1.35561 -1.50834 0
M  V30 13111 C 1219.53 1.93584 -0.154566 0
M  V30 13112 O 1218.81 1.75781 0.832541 0
M  V30 13113 C 1219.09 2.49414 -2.5974 0
M  V30 13114 C 1218.94 1.96506 -4.04605 0
M  V30 13115 C 1220.26 3.51505 -2.64825 0
M  V30 13116 H 1217.38 0.491549 -0.549134 0
M  V30 13117 H 1220.02 0.669536 -1.77812 0
M  V30 13118 H 1218.17 3.07939 -2.36866 0
M  V30 13119 H 1219.85 1.42533 -4.38728 0
M  V30 13120 H 1218.09 1.27418 -4.14665 0
M  V30 13121 H 1218.76 2.78636 -4.76515 0
M  V30 13122 H 1221.24 3.02841 -2.85353 0
M  V30 13123 H 1220.11 4.28641 -3.42867 0
M  V30 13124 H 1220.37 4.07942 -1.70399 0
M  V30 13125 N 1219.43 1.33438 0.838571 0
M  V30 13126 C 1220.66 1.28097 1.63113 0
M  V30 13127 C 1221.08 -0.145197 1.87539 0
M  V30 13128 O 1220.44 -1.10191 1.43971 0
M  V30 13129 C 1220.49 2.06201 2.95827 0
M  V30 13130 O 1219.59 1.42082 3.87152 0
M  V30 13131 H 1218.93 0.440685 0.496681 0
M  V30 13132 H 1221.46 1.76004 1.04325 0
M  V30 13133 H 1221.47 2.16977 3.45521 0
M  V30 13134 H 1220.15 3.099 2.77371 0
M  V30 13135 H 1218.73 1.39953 3.45641 0
M  V30 13136 N 1220.91 -1.05686 1.16912 0
M  V30 13137 C 1221.84 -2.15268 0.904532 0
M  V30 13138 C 1222.82 -1.69424 -0.151548 0
M  V30 13139 O 1224.01 -1.942 -0.00235371 0
M  V30 13140 C 1221.14 -3.44853 0.411581 0
M  V30 13141 C 1220.09 -4.04237 1.40628 0
M  V30 13142 C 1219.42 -5.29105 0.771479 0
M  V30 13143 C 1220.72 -4.42303 2.77787 0
M  V30 13144 H 1222.41 -2.37659 1.82094 0
M  V30 13145 H 1219.96 -1.14217 0.876947 0
M  V30 13146 H 1221.91 -4.20857 0.213929 0
M  V30 13147 H 1220.63 -3.22099 -0.540352 0
M  V30 13148 H 1219.29 -3.30297 1.59058 0
M  V30 13149 H 1218.94 -5.02652 -0.187133 0
M  V30 13150 H 1218.64 -5.69797 1.43545 0
M  V30 13151 H 1220.16 -6.07801 0.583988 0
M  V30 13152 H 1221.58 -5.09362 2.63103 0
M  V30 13153 H 1219.98 -4.93997 3.40716 0
M  V30 13154 H 1221.05 -3.52877 3.32575 0
M  V30 13155 N 1222.39 -0.968567 -1.24324 0
M  V30 13156 C 1223.61 -0.648166 -1.97012 0
M  V30 13157 C 1224.04 0.775842 -1.71354 0
M  V30 13158 O 1223.4 1.52672 -0.977804 0
M  V30 13159 C 1223.44 -0.929974 -3.48402 0
M  V30 13160 O 1222.55 -0.015854 -4.12397 0
M  V30 13161 H 1221.89 -0.244961 -0.617163 0
M  V30 13162 H 1224.42 -1.29895 -1.58077 0
M  V30 13163 H 1224.43 -0.861863 -3.98793 0
M  V30 13164 H 1223.1 -1.96776 -3.66404 0
M  V30 13165 H 1221.68 -0.137361 -3.72647 0
M  V30 13166 N 1223.87 1.39211 -0.738786 0
M  V30 13167 C 1224.8 2.33209 -0.11647 0
M  V30 13168 C 1225.78 1.54108 0.720056 0
M  V30 13169 O 1226.96 1.82486 0.664264 0
M  V30 13170 C 1224.09 3.38226 0.78872 0
M  V30 13171 C 1223.05 4.27963 0.0560636 0
M  V30 13172 C 1222.37 5.2371 1.07852 0
M  V30 13173 C 1223.67 5.10508 -1.1036 0
M  V30 13174 H 1225.37 2.85501 -0.901649 0
M  V30 13175 H 1222.91 1.37272 -0.435032 0
M  V30 13176 H 1224.87 4.02938 1.23364 0
M  V30 13177 H 1223.59 2.84382 1.60606 0
M  V30 13178 H 1222.25 3.64735 -0.369274 0
M  V30 13179 H 1221.9 4.66161 1.88953 0
M  V30 13180 H 1221.6 5.846 0.593048 0
M  V30 13181 H 1223.12 5.91299 1.52307 0
M  V30 13182 H 1224.53 5.68544 -0.736943 0
M  V30 13183 H 1222.93 5.80558 -1.51895 0
M  V30 13184 H 1224 4.45117 -1.92352 0
M  V30 13185 N 1225.34 0.486708 1.49896 0
M  V30 13186 C 1226.28 -0.345627 2.25567 0
M  V30 13187 C 1227.26 -0.982794 1.29537 0
M  V30 13188 O 1228.44 -1.01569 1.58796 0
M  V30 13189 C 1225.57 -1.48555 3.04383 0
M  V30 13190 C 1224.61 -0.964196 4.15458 0
M  V30 13191 S 1225.45 0.133631 5.35333 0
M  V30 13192 C 1226.6 -1.00979 6.17701 0
M  V30 13193 H 1226.83 0.296677 2.95816 0
M  V30 13194 H 1224.37 0.271798 1.51989 0
M  V30 13195 H 1226.33 -2.13878 3.50381 0
M  V30 13196 H 1224.99 -2.09942 2.33631 0
M  V30 13197 H 1224.18 -1.81804 4.70067 0
M  V30 13198 H 1223.78 -0.388419 3.71978 0
M  V30 13199 H 1226.07 -1.91812 6.4978 0
M  V30 13200 H 1227.02 -0.502633 7.06314 0
M  V30 13201 H 1227.42 -1.27067 5.50013 0
M  V30 13202 N 1226.82 -1.56058 0.219941 0
M  V30 13203 C 1227.73 -2.23844 -0.70222 0
M  V30 13204 C 1228.75 -1.24554 -1.215 0
M  V30 13205 O 1229.93 -1.57362 -1.25695 0
M  V30 13206 C 1226.99 -2.90384 -1.89416 0
M  V30 13207 C 1226.05 -4.05012 -1.42351 0
M  V30 13208 C 1225.28 -4.68369 -2.55863 0
M  V30 13209 O 1225.51 -4.3071 -3.73958 0
M  V30 13210 O 1224.44 -5.5739 -2.27157 0
M  V30 13211 H 1228.27 -3.03305 -0.15478 0
M  V30 13212 H 1225.85 -1.49396 -0.010438 0
M  V30 13213 H 1227.73 -3.32389 -2.59028 0
M  V30 13214 H 1226.41 -2.13883 -2.42973 0
M  V30 13215 H 1225.32 -3.67579 -0.695448 0
M  V30 13216 H 1226.65 -4.83251 -0.934332 0
M  V30 13217 N 1228.3 0.053464 -1.57509 0
M  V30 13218 C 1229.23 1.06151 -2.07977 0
M  V30 13219 C 1230.21 1.3924 -0.977047 0
M  V30 13220 O 1231.4 1.48549 -1.25087 0
M  V30 13221 C 1228.53 2.36969 -2.53895 0
M  V30 13222 C 1227.48 2.18186 -3.6821 0
M  V30 13223 C 1226.81 3.54551 -4.00247 0
M  V30 13224 C 1228.11 1.588 -4.97574 0
M  V30 13225 H 1229.8 0.641483 -2.92447 0
M  V30 13226 H 1227.35 0.307122 -1.40687 0
M  V30 13227 H 1229.3 3.07797 -2.87817 0
M  V30 13228 H 1228.02 2.80986 -1.66476 0
M  V30 13229 H 1226.68 1.49796 -3.34599 0
M  V30 13230 H 1226.33 3.96171 -3.09932 0
M  V30 13231 H 1226.03 3.42816 -4.77232 0
M  V30 13232 H 1227.56 4.2678 -4.36682 0
M  V30 13233 H 1228.97 2.19515 -5.29609 0
M  V30 13234 H 1227.37 1.57711 -5.79006 0
M  V30 13235 H 1228.44 0.551254 -4.81756 0
M  V30 13236 N 1229.78 1.54207 0.325255 0
M  V30 13237 C 1231 1.7661 1.08736 0
M  V30 13238 C 1231.43 0.512449 1.80985 0
M  V30 13239 O 1230.79 -0.535913 1.73198 0
M  V30 13240 C 1230.84 2.95797 2.06243 0
M  V30 13241 O 1229.94 2.67225 3.14109 0
M  V30 13242 H 1229.28 0.585282 0.313593 0
M  V30 13243 H 1231.81 2.01225 0.370066 0
M  V30 13244 H 1231.82 3.23097 2.49143 0
M  V30 13245 H 1230.5 3.86712 1.53058 0
M  V30 13246 H 1229.07 2.50869 2.75897 0
M  V30 13247 N 1231.26 -0.58723 1.46251 0
M  V30 13248 C 1232.19 -1.70694 1.5933 0
M  V30 13249 C 1233.17 -1.64208 0.443831 0
M  V30 13250 O 1234.35 -1.82294 0.669516 0
M  V30 13251 C 1231.48 -3.0933 1.579 0
M  V30 13252 C 1230.44 -3.30643 2.7177 0
M  V30 13253 C 1229.76 -4.69761 2.554 0
M  V30 13254 C 1231.06 -3.18916 4.1363 0
M  V30 13255 H 1232.76 -1.60004 2.53059 0
M  V30 13256 H 1230.3 -0.768343 1.21789 0
M  V30 13257 H 1232.26 -3.87479 1.65644 0
M  V30 13258 H 1230.98 -3.20907 0.60712 0
M  V30 13259 H 1229.64 -2.54892 2.63488 0
M  V30 13260 H 1229.29 -4.78098 1.56306 0
M  V30 13261 H 1228.99 -4.84974 3.31774 0
M  V30 13262 H 1230.51 -5.50084 2.65028 0
M  V30 13263 H 1231.93 -3.86915 4.23048 0
M  V30 13264 H 1230.32 -3.45653 4.90555 0
M  V30 13265 H 1231.39 -2.1606 4.34104 0
M  V30 13266 N 1232.74 -1.33881 -0.831482 0
M  V30 13267 C 1233.7 -1.24654 -1.92339 0
M  V30 13268 C 1234.7 -0.163788 -1.59964 0
M  V30 13269 O 1235.89 -0.415829 -1.69164 0
M  V30 13270 C 1233.02 -0.922537 -3.2818 0
M  V30 13271 H 1234.21 -2.21717 -2.01944 0
M  V30 13272 H 1231.77 -1.18046 -1.02445 0
M  V30 13273 H 1232.5 0.0452872 -3.24268 0
M  V30 13274 H 1232.29 -1.70562 -3.53059 0
M  V30 13275 H 1233.78 -0.88292 -4.0816 0
M  V30 13276 N 1234.21 1.05064 -1.1747 0
M  V30 13277 C 1235.49 1.74999 -0.873776 0
M  V30 13278 C 1235.87 2.01615 0.625676 0
M  V30 13279 O 1235.22 1.65324 1.57734 0
M  V30 13280 C 1235.43 3.04231 -1.7101 0
M  V30 13281 C 1236.78 3.78157 -1.93087 0
M  V30 13282 O 1237.8 3.14104 -1.6798 0
M  V30 13283 O 1236.66 4.93255 -2.3529 0
M  V30 13284 H 1233.75 0.761042 -0.323641 0
M  V30 13285 H 1236.3 1.1122 -1.28172 0
M  V30 13286 H 1235.07 2.80621 -2.72704 0
M  V30 13287 H 1234.69 3.75746 -1.30002 0
M  V30 13288 N 1235.69 0.975146 1.23809 0
M  V30 13289 C 1236.94 0.642074 1.92367 0
M  V30 13290 C 1237.27 -0.82164 1.75962 0
M  V30 13291 O 1236.55 -1.59205 1.11732 0
M  V30 13292 C 1236.83 1.02677 3.45151 0
M  V30 13293 C 1236.68 2.54773 3.7069 0
M  V30 13294 C 1238 0.5668 4.36435 0
M  V30 13295 H 1235.12 0.234735 0.698619 0
M  V30 13296 H 1237.76 1.21549 1.46034 0
M  V30 13297 H 1235.91 0.538846 3.84745 0
M  V30 13298 H 1237.58 3.11099 3.4061 0
M  V30 13299 H 1235.83 2.97641 3.15583 0
M  V30 13300 H 1236.5 2.7674 4.77618 0
M  V30 13301 H 1238.97 0.985635 4.04258 0
M  V30 13302 H 1237.85 0.864458 5.4205 0
M  V30 13303 H 1238.11 -0.532989 4.38875 0
M  V30 13304 N 1237.17 -1.38817 0.746158 0
M  V30 13305 C 1238.08 -2.34316 0.115386 0
M  V30 13306 C 1239.1 -1.58892 -0.709179 0
M  V30 13307 O 1240.27 -1.91126 -0.635059 0
M  V30 13308 C 1237.34 -3.37977 -0.772821 0
M  V30 13309 C 1236.4 -4.2925 0.0652679 0
M  V30 13310 C 1235.63 -5.2796 -0.78064 0
M  V30 13311 O 1235.85 -5.33474 -2.01896 0
M  V30 13312 O 1234.79 -6.01556 -0.20338 0
M  V30 13313 H 1238.61 -2.89937 0.903887 0
M  V30 13314 H 1236.2 -1.40536 0.506958 0
M  V30 13315 H 1238.08 -4.01468 -1.28068 0
M  V30 13316 H 1236.76 -2.84723 -1.53994 0
M  V30 13317 H 1235.66 -3.68945 0.61891 0
M  V30 13318 H 1237 -4.85739 0.794871 0
M  V30 13319 N 1238.65 -0.49465 -1.49636 0
M  V30 13320 C 1239.9 0.0520143 -2.02033 0
M  V30 13321 C 1240.22 1.38071 -1.37701 0
M  V30 13322 O 1239.49 1.88589 -0.530181 0
M  V30 13323 H 1238.07 0.0222123 -0.74667 0
M  V30 13324 H 1240.73 -0.650445 -1.83726 0
M  V30 13325 H 1239.82 0.186337 -3.11543 0
M  V30 13326 N 1240.13 1.55939 -0.228214 0
M  V30 13327 C 1241.06 2.2357 0.6737 0
M  V30 13328 C 1242.04 1.20964 1.1959 0
M  V30 13329 O 1243.22 1.49568 1.23867 0
M  V30 13330 C 1240.35 2.92076 1.87906 0
M  V30 13331 C 1239.31 4.01211 1.49043 0
M  V30 13332 C 1238.63 4.57047 2.77511 0
M  V30 13333 C 1239.93 5.17914 0.67544 0
M  V30 13334 H 1241.63 2.99199 0.109806 0
M  V30 13335 H 1239.17 1.43908 0.0513732 0
M  V30 13336 H 1241.12 3.38083 2.51551 0
M  V30 13337 H 1239.85 2.13906 2.46803 0
M  V30 13338 H 1238.51 3.55945 0.877411 0
M  V30 13339 H 1238.16 3.75599 3.34566 0
M  V30 13340 H 1237.86 5.30707 2.52239 0
M  V30 13341 H 1239.38 5.05776 3.42087 0
M  V30 13342 H 1240.79 5.60261 1.21575 0
M  V30 13343 H 1239.19 5.97847 0.519536 0
M  V30 13344 H 1240.26 4.83866 -0.316495 0
M  V30 13345 N 1241.6 -0.0451101 1.57535 0
M  V30 13346 C 1242.83 -0.755068 1.93167 0
M  V30 13347 C 1243.25 -1.68949 0.826915 0
M  V30 13348 O 1242.61 -1.79978 -0.218534 0
M  V30 13349 C 1242.66 -1.50201 3.27829 0
M  V30 13350 O 1241.76 -2.61434 3.18945 0
M  V30 13351 H 1241.11 -0.204219 0.631815 0
M  V30 13352 H 1243.64 -0.00537504 2.04599 0
M  V30 13353 H 1243.65 -1.87547 3.6234 0
M  V30 13354 H 1242.32 -0.816591 4.07805 0
M  V30 13355 H 1240.9 -2.26749 2.96039 0
M  V30 13356 N 1243.08 -1.54377 -0.317073 0
M  V30 13357 C 1244.33 -1.73149 -1.05581 0
M  V30 13358 C 1244.66 -0.507176 -1.8746 0
M  V30 13359 O 1243.94 0.495837 -1.88074 0
M  V30 13360 C 1244.22 -3.01098 -1.97515 0
M  V30 13361 C 1244.07 -4.33794 -1.18922 0
M  V30 13362 C 1245.39 -3.24831 -2.9694 0
M  V30 13363 H 1242.51 -0.630011 -0.382434 0
M  V30 13364 H 1245.15 -1.87079 -0.331873 0
M  V30 13365 H 1243.3 -2.89352 -2.59244 0
M  V30 13366 H 1244.97 -4.57433 -0.596039 0
M  V30 13367 H 1243.22 -4.31005 -0.491612 0
M  V30 13368 H 1243.89 -5.19554 -1.86462 0
M  V30 13369 H 1246.36 -3.3608 -2.45335 0
M  V30 13370 H 1245.24 -4.15702 -3.58445 0
M  V30 13371 H 1245.5 -2.42365 -3.69745 0
M  V30 13372 N 1244.56 0.579466 -1.4656 0
M  V30 13373 C 1245.49 1.69846 -1.60233 0
M  V30 13374 C 1246.47 1.6397 -0.452533 0
M  V30 13375 O 1247.66 1.81936 -0.679174 0
M  V30 13376 C 1244.79 3.08488 -1.59538 0
M  V30 13377 C 1243.74 3.29197 -2.7352 0
M  V30 13378 C 1243.07 4.684 -2.57887 0
M  V30 13379 C 1244.37 3.16718 -4.15315 0
M  V30 13380 H 1246.06 1.5866 -2.53904 0
M  V30 13381 H 1243.61 0.761873 -1.22194 0
M  V30 13382 H 1245.56 3.86595 -1.67696 0
M  V30 13383 H 1244.28 3.20581 -0.62413 0
M  V30 13384 H 1242.94 2.53491 -2.64836 0
M  V30 13385 H 1242.59 4.77262 -1.58839 0
M  V30 13386 H 1242.29 4.83208 -3.34341 0
M  V30 13387 H 1243.81 5.48671 -2.67942 0
M  V30 13388 H 1245.23 3.84666 -4.25094 0
M  V30 13389 H 1243.63 3.43047 -4.92381 0
M  V30 13390 H 1244.7 2.13755 -4.35244 0
M  V30 13391 N 1246.04 1.3432 0.824371 0
M  V30 13392 C 1247.45 1.1397 1.11727 0
M  V30 13393 C 1247.65 -0.0597597 2.01411 0
M  V30 13394 O 1246.71 -0.735717 2.41544 0
M  V30 13395 C 1248.02 2.43423 1.76538 0
M  V30 13396 C 1249.57 2.49466 1.89039 0
M  V30 13397 C 1250.05 3.78917 2.57266 0
M  V30 13398 N 1251.54 3.8007 2.64767 0
M  V30 13399 C 1252.27 4.76953 3.18282 0
M  V30 13400 N 1251.77 5.84217 3.72373 0
M  V30 13401 N 1253.56 4.6441 3.1667 0
M  V30 13402 H 1245.71 2.11175 0.227802 0
M  V30 13403 H 1247.98 0.933774 0.163615 0
M  V30 13404 H 1247.68 3.31278 1.18102 0
M  V30 13405 H 1247.56 2.56655 2.7642 0
M  V30 13406 H 1249.94 1.62052 2.46623 0
M  V30 13407 H 1250.02 2.40163 0.880635 0
M  V30 13408 H 1249.67 4.6672 2.00336 0
M  V30 13409 H 1249.6 3.85502 3.58742 0
M  V30 13410 H 1252.09 3.02556 2.26425 0
M  V30 13411 H 1252.4 6.54159 4.11455 0
M  V30 13412 H 1250.75 5.87933 3.70621 0
M  V30 13413 H 1253.94 3.7976 2.73678 0
M  V30 13414 H 1254.11 5.40081 3.58073 0
M  V30 13415 N 1247.52 -1.0444 1.18026 0
M  V30 13416 C 1248.74 -1.81772 0.998684 0
M  V30 13417 C 1249.17 -1.82682 -0.448225 0
M  V30 13418 O 1248.52 -1.24136 -1.32136 0
M  V30 13419 C 1248.57 -3.2542 1.55352 0
M  V30 13420 O 1247.68 -4.05103 0.772351 0
M  V30 13421 H 1247.02 -0.561731 0.354054 0
M  V30 13422 H 1249.55 -1.31557 1.56697 0
M  V30 13423 H 1249.56 -3.76206 1.57903 0
M  V30 13424 H 1248.23 -3.24073 2.60672 0
M  V30 13425 H 1246.81 -3.63798 0.818852 0
M  V30 13426 N 1248.99 -0.981699 -1.2329 0
M  V30 13427 C 1250.24 -0.651302 -1.9174 0
M  V30 13428 C 1250.57 0.815318 -1.76587 0
M  V30 13429 O 1249.82 1.60377 -1.1215 0
M  V30 13430 C 1250.12 -0.989244 -3.43437 0
M  V30 13431 C 1249.79 -2.44629 -3.78771 0
M  V30 13432 C 1248.45 -2.84449 -3.88127 0
M  V30 13433 C 1250.8 -3.39123 -3.95784 0
M  V30 13434 C 1248.13 -4.17775 -4.11923 0
M  V30 13435 C 1250.48 -4.72095 -4.21081 0
M  V30 13436 C 1249.15 -5.11672 -4.28659 0
M  V30 13437 H 1248.42 -0.238328 -0.701627 0
M  V30 13438 H 1251.06 -1.2358 -1.46288 0
M  V30 13439 H 1249.37 -0.322677 -3.90469 0
M  V30 13440 H 1251.07 -0.711796 -3.94632 0
M  V30 13441 H 1247.66 -2.12759 -3.72064 0
M  V30 13442 H 1251.84 -3.09536 -3.87945 0
M  V30 13443 H 1247.1 -4.48043 -4.16013 0
M  V30 13444 H 1251.27 -5.45271 -4.33189 0
M  V30 13445 H 1248.9 -6.15003 -4.46851 0
M  V30 13446 N 1250.47 1.3842 -0.753509 0
M  V30 13447 C 1251.89 1.53668 -0.431095 0
M  V30 13448 C 1252.09 1.71626 1.05578 0
M  V30 13449 O 1251.14 1.72723 1.84182 0
M  V30 13450 C 1252.46 2.74381 -1.23027 0
M  V30 13451 C 1254.01 2.8823 -1.22034 0
M  V30 13452 C 1254.48 4.11904 -2.00248 0
M  V30 13453 N 1255.97 4.18981 -1.97508 0
M  V30 13454 C 1256.71 5.13667 -2.5482 0
M  V30 13455 N 1256.2 6.14027 -3.20846 0
M  V30 13456 N 1258 5.06017 -2.44751 0
M  V30 13457 H 1250.15 1.25012 -1.71714 0
M  V30 13458 H 1252.41 0.607296 -0.727939 0
M  V30 13459 H 1252.12 2.67515 -2.28317 0
M  V30 13460 H 1251.99 3.67565 -0.847098 0
M  V30 13461 H 1254.38 2.94578 -0.175502 0
M  V30 13462 H 1254.46 1.96057 -1.64303 0
M  V30 13463 H 1254.1 4.06318 -3.04742 0
M  V30 13464 H 1254.03 5.03157 -1.55373 0
M  V30 13465 H 1256.52 3.47104 -1.49423 0
M  V30 13466 H 1256.84 6.82771 -3.61999 0
M  V30 13467 H 1255.18 6.1436 -3.24941 0
M  V30 13468 H 1258.37 4.26552 -1.92797 0
M  V30 13469 H 1258.54 5.7963 -2.89713 0
M  V30 13470 N 1251.95 0.502579 1.49372 0
M  V30 13471 C 1252.88 -0.264307 2.31999 0
M  V30 13472 C 1253.86 -0.96107 1.40348 0
M  V30 13473 O 1255.05 -0.952167 1.69255 0
M  V30 13474 C 1252.18 -1.32822 3.20898 0
M  V30 13475 C 1251.13 -0.751236 4.21355 0
M  V30 13476 C 1250.46 -1.91578 4.99201 0
M  V30 13477 C 1251.76 0.258764 5.21659 0
M  V30 13478 H 1253.45 0.425391 2.96363 0
M  V30 13479 H 1251 0.206022 1.42519 0
M  V30 13480 H 1252.95 -1.87245 3.77515 0
M  V30 13481 H 1251.67 -2.04712 2.54481 0
M  V30 13482 H 1250.33 -0.228743 3.65886 0
M  V30 13483 H 1249.98 -2.62241 4.2923 0
M  V30 13484 H 1249.68 -1.53578 5.67175 0
M  V30 13485 H 1251.2 -2.46432 5.58663 0
M  V30 13486 H 1252.62 -0.197385 5.7296 0
M  V30 13487 H 1251.02 0.554681 5.97531 0
M  V30 13488 H 1252.09 1.1741 4.70471 0
M  V30 13489 N 1253.43 -1.55816 0.23648 0
M  V30 13490 C 1254.36 -2.23924 -0.661834 0
M  V30 13491 C 1255.34 -1.21597 -1.18946 0
M  V30 13492 O 1256.52 -1.50222 -1.23073 0
M  V30 13493 C 1253.65 -2.93069 -1.86355 0
M  V30 13494 C 1252.61 -4.01996 -1.46913 0
M  V30 13495 C 1251.93 -4.58512 -2.75083 0
M  V30 13496 C 1253.23 -5.18265 -0.647964 0
M  V30 13497 H 1254.93 -2.99253 -0.0939368 0
M  V30 13498 H 1252.47 -1.43934 -0.0437407 0
M  V30 13499 H 1254.43 -3.39412 -2.49755 0
M  V30 13500 H 1253.15 -2.15212 -2.45665 0
M  V30 13501 H 1251.81 -3.56406 -0.858522 0
M  V30 13502 H 1251.46 -3.77368 -3.3257 0
M  V30 13503 H 1251.16 -5.32037 -2.49421 0
M  V30 13504 H 1252.68 -5.07583 -3.39399 0
M  V30 13505 H 1254.1 -5.60898 -1.18602 0
M  V30 13506 H 1252.49 -5.98114 -0.487823 0
M  V30 13507 H 1253.56 -4.83691 0.342151 0
M  V30 13508 N 1254.91 0.036755 -1.57557 0
M  V30 13509 C 1256.32 0.392264 -1.54704 0
M  V30 13510 C 1256.52 1.77076 -0.96157 0
M  V30 13511 O 1255.58 2.45766 -0.579263 0
M  V30 13512 C 1256.89 0.301168 -2.99188 0
M  V30 13513 C 1258.44 0.378813 -3.10699 0
M  V30 13514 C 1258.91 0.317249 -4.569 0
M  V30 13515 N 1260.41 0.376277 -4.61669 0
M  V30 13516 C 1261.14 0.351411 -5.72322 0
M  V30 13517 N 1260.64 0.279288 -6.92237 0
M  V30 13518 N 1262.43 0.400571 -5.60671 0
M  V30 13519 H 1254.58 -0.865455 -1.93968 0
M  V30 13520 H 1256.84 -0.328339 -0.889324 0
M  V30 13521 H 1256.55 -0.64582 -3.4572 0
M  V30 13522 H 1256.42 1.09784 -3.6087 0
M  V30 13523 H 1258.81 1.31623 -2.6412 0
M  V30 13524 H 1258.89 -0.447072 -2.51863 0
M  V30 13525 H 1258.54 -0.616469 -5.04145 0
M  V30 13526 H 1258.47 1.16114 -5.13639 0
M  V30 13527 H 1260.96 0.434843 -3.7539 0
M  V30 13528 H 1261.27 0.265202 -7.72345 0
M  V30 13529 H 1259.61 0.24545 -6.94566 0
M  V30 13530 H 1262.81 0.454854 -4.65885 0
M  V30 13531 H 1262.98 0.377724 -6.46898 0
M  V30 13532 N 1256.39 1.54543 0.308881 0
M  V30 13533 C 1257.63 1.73706 1.04661 0
M  V30 13534 C 1257.96 0.517111 1.87189 0
M  V30 13535 O 1257.24 -0.485856 1.88334 0
M  V30 13536 C 1257.52 3.02141 1.95916 0
M  V30 13537 C 1257.38 4.34419 1.1662 0
M  V30 13538 C 1258.69 3.26401 2.95213 0
M  V30 13539 H 1255.81 0.63203 0.379087 0
M  V30 13540 H 1258.46 1.87253 0.321947 0
M  V30 13541 H 1256.61 2.90723 2.57706 0
M  V30 13542 H 1258.28 4.57743 0.571772 0
M  V30 13543 H 1256.52 4.3126 0.468747 0
M  V30 13544 H 1257.19 5.20535 1.83704 0
M  V30 13545 H 1259.67 3.37377 2.43549 0
M  V30 13546 H 1258.54 4.17597 3.56235 0
M  V30 13547 H 1258.8 2.44322 3.68455 0
M  V30 13548 N 1257.86 -0.571685 1.46866 0
M  V30 13549 C 1259.11 -1.32948 1.52745 0
M  V30 13550 C 1259.44 -1.93631 0.183694 0
M  V30 13551 O 1258.69 -1.77605 -0.821886 0
M  V30 13552 C 1258.99 -2.47051 2.58264 0
M  V30 13553 C 1258.66 -2.04291 4.01965 0
M  V30 13554 C 1257.32 -1.92345 4.41086 0
M  V30 13555 C 1259.67 -1.71458 4.9219 0
M  V30 13556 C 1257 -1.4584 5.68285 0
M  V30 13557 C 1259.35 -1.26429 6.19837 0
M  V30 13558 C 1258.02 -1.13068 6.57854 0
M  V30 13559 H 1257.29 -0.48649 0.558935 0
M  V30 13560 H 1259.93 -0.642618 1.80396 0
M  V30 13561 H 1258.24 -3.21231 2.24316 0
M  V30 13562 H 1259.94 -3.05254 2.6004 0
M  V30 13563 H 1256.53 -2.14527 3.71047 0
M  V30 13564 H 1260.71 -1.79567 4.62676 0
M  V30 13565 H 1255.97 -1.34148 5.96502 0
M  V30 13566 H 1260.14 -1.00081 6.89171 0
M  V30 13567 H 1257.77 -0.768094 7.5631 0
M  V30 13568 N 1259.34 -1.34755 -0.817236 0
M  V30 13569 C 1260.29 -1.26801 -1.92848 0
M  V30 13570 C 1261.26 -0.142077 -1.65491 0
M  V30 13571 O 1262.44 -0.324006 -1.88029 0
M  V30 13572 C 1259.58 -1.03513 -3.2921 0
M  V30 13573 C 1258.7 -2.24932 -3.68822 0
M  V30 13574 C 1257.83 -1.94881 -4.94161 0
M  V30 13575 C 1256.87 -3.12411 -5.2637 0
M  V30 13576 N 1256.01 -2.82207 -6.42887 0
M  V30 13577 H 1260.85 -2.21832 -1.98983 0
M  V30 13578 H 1258.38 -1.10284 -0.973439 0
M  V30 13579 H 1260.34 -0.88047 -4.07803 0
M  V30 13580 H 1258.97 -0.121478 -3.22571 0
M  V30 13581 H 1258.02 -2.51299 -2.85575 0
M  V30 13582 H 1259.34 -3.12726 -3.88592 0
M  V30 13583 H 1258.49 -1.76184 -5.80555 0
M  V30 13584 H 1257.23 -1.04355 -4.76405 0
M  V30 13585 H 1256.23 -3.31698 -4.3847 0
M  V30 13586 H 1257.46 -4.03724 -5.46062 0
M  V30 13587 H 1255.41 -1.94263 -6.26576 0
M  V30 13588 H 1255.32 -3.63534 -6.62857 0
M  V30 13589 H 1256.59 -2.67026 -7.32337 0
M  V30 13590 N 1260.82 1.03812 -1.18578 0
M  V30 13591 C 1261.75 2.13802 -0.938665 0
M  V30 13592 C 1262.73 1.69643 0.124575 0
M  V30 13593 O 1263.92 1.94179 -0.0285421 0
M  V30 13594 C 1261.05 3.44154 -0.466392 0
M  V30 13595 C 1260 4.01949 -1.47041 0
M  V30 13596 C 1259.33 5.27811 -0.855558 0
M  V30 13597 C 1260.63 4.37827 -2.84789 0
M  V30 13598 H 1262.32 2.34732 -1.85852 0
M  V30 13599 H 1259.87 1.12808 -0.895007 0
M  V30 13600 H 1261.82 4.20463 -0.280856 0
M  V30 13601 H 1260.54 3.22918 0.489041 0
M  V30 13602 H 1259.2 3.27725 -1.64293 0
M  V30 13603 H 1258.85 5.02886 0.107142 0
M  V30 13604 H 1258.55 5.67441 -1.52592 0
M  V30 13605 H 1260.07 6.06795 -0.680609 0
M  V30 13606 H 1261.49 5.05112 -2.71173 0
M  V30 13607 H 1259.88 4.88514 -3.48532 0
M  V30 13608 H 1260.95 3.47541 -3.38147 0
M  V30 13609 N 1262.3 0.988223 1.22768 0
M  V30 13610 C 1263.26 0.539813 2.22752 0
M  V30 13611 C 1264.26 -0.374796 1.56371 0
M  V30 13612 O 1265.45 -0.167402 1.73394 0
M  V30 13613 C 1262.58 -0.215461 3.40218 0
M  V30 13614 H 1263.78 1.42397 2.63938 0
M  V30 13615 H 1261.33 0.774933 1.35737 0
M  V30 13616 H 1262.06 -1.11581 3.045 0
M  V30 13617 H 1261.85 0.441173 3.8961 0
M  V30 13618 H 1263.34 -0.517517 4.14381 0
M  V30 13619 N 1263.78 -1.38018 0.760839 0
M  V30 13620 C 1264.72 -2.30387 0.13796 0
M  V30 13621 C 1265.69 -1.50548 -0.701754 0
M  V30 13622 O 1266.88 -1.79154 -0.656381 0
M  V30 13623 C 1264.02 -3.36993 -0.743642 0
M  V30 13624 C 1263.13 -4.31856 0.111489 0
M  V30 13625 C 1262.27 -5.25534 -0.773796 0
M  V30 13626 C 1261.3 -6.12042 0.0845311 0
M  V30 13627 N 1260.44 -6.97995 -0.758118 0
M  V30 13628 H 1265.28 -2.83077 0.931212 0
M  V30 13629 H 1262.82 -1.39361 0.470833 0
M  V30 13630 H 1264.78 -3.97417 -1.26948 0
M  V30 13631 H 1263.41 -2.85695 -1.50261 0
M  V30 13632 H 1262.46 -3.72832 0.755031 0
M  V30 13633 H 1263.77 -4.92758 0.774042 0
M  V30 13634 H 1262.92 -5.9111 -1.36653 0
M  V30 13635 H 1261.66 -4.65017 -1.47006 0
M  V30 13636 H 1260.67 -5.45455 0.689883 0
M  V30 13637 H 1261.89 -6.74629 0.777966 0
M  V30 13638 H 1259.84 -6.40018 -1.4392 0
M  V30 13639 H 1259.76 -7.55846 -0.152623 0
M  V30 13640 H 1261.02 -7.67973 -1.33559 0
M  V30 13641 N 1265.25 -0.510493 -1.49103 0
M  V30 13642 C 1266.48 0.0293113 -2.07379 0
M  V30 13643 C 1266.9 1.29195 -1.36713 0
M  V30 13644 O 1266.26 1.76204 -0.426838 0
M  V30 13645 C 1266.31 0.25629 -3.59688 0
M  V30 13646 O 1265.41 1.32907 -3.90397 0
M  V30 13647 H 1264.75 -0.0304449 -0.663302 0
M  V30 13648 H 1267.28 -0.712832 -1.91781 0
M  V30 13649 H 1267.29 0.484915 -4.05108 0
M  V30 13650 H 1265.97 -0.666163 -4.1053 0
M  V30 13651 H 1264.55 1.08464 -3.56777 0
M  V30 13652 N 1266.73 1.55688 -0.24474 0
M  V30 13653 C 1267.98 1.99926 0.374301 0
M  V30 13654 C 1268.33 1.12997 1.55723 0
M  V30 13655 O 1267.63 0.185026 1.90705 0
M  V30 13656 C 1267.82 3.47487 0.835923 0
M  V30 13657 C 1267.65 4.48693 -0.300729 0
M  V30 13658 C 1266.42 4.99326 -0.774706 0
M  V30 13659 C 1268.62 5.018 -1.12699 0
M  V30 13660 N 1266.6 5.84276 -1.88399 0
M  V30 13661 C 1267.97 5.83901 -2.0847 0
M  V30 13662 C 1270.02 4.84108 -1.16379 0
M  V30 13663 C 1268.73 6.50197 -3.07629 0
M  V30 13664 C 1270.75 5.51181 -2.14368 0
M  V30 13665 C 1270.12 6.33068 -3.08876 0
M  V30 13666 H 1266.21 0.775189 0.102984 0
M  V30 13667 H 1268.8 1.91308 -0.361824 0
M  V30 13668 H 1266.97 3.56507 1.54135 0
M  V30 13669 H 1268.7 3.78604 1.42973 0
M  V30 13670 H 1265.46 4.72236 -0.359226 0
M  V30 13671 H 1265.88 6.31449 -2.44134 0
M  V30 13672 H 1270.52 4.2043 -0.447006 0
M  V30 13673 H 1268.24 7.13042 -3.80258 0
M  V30 13674 H 1271.83 5.39446 -2.1792 0
M  V30 13675 H 1270.71 6.84053 -3.8346 0
M  V30 13676 N 1268.21 -0.0283989 1.57574 0
M  V30 13677 C 1269.62 -0.574912 1.77628 0
M  V30 13678 C 1269.97 -1.75563 0.875903 0
M  V30 13679 O 1269.1 -2.16284 0.0709141 0
M  V30 13680 C 1269.69 -1.04972 3.22128 0
M  V30 13681 C 1268.25 -1.54175 3.43376 0
M  V30 13682 C 1267.4 -0.480127 2.73112 0
M  V30 13683 H 1270.35 0.197826 1.57462 0
M  V30 13684 H 1270.37 -1.91705 3.28678 0
M  V30 13685 H 1269.88 -0.190173 3.87634 0
M  V30 13686 H 1267.98 -2.42313 2.83046 0
M  V30 13687 H 1268.1 -1.58879 4.51989 0
M  V30 13688 H 1266.46 -0.935314 2.36905 0
M  V30 13689 H 1267.24 0.369973 3.41301 0
M  V30 13690 N 1269.69 -1.54705 -0.300681 0
M  V30 13691 C 1270.92 -1.77993 -1.0548 0
M  V30 13692 C 1271.33 -0.539574 -1.80926 0
M  V30 13693 O 1270.69 0.490597 -1.75782 0
M  V30 13694 C 1270.74 -2.98774 -2.0351 0
M  V30 13695 O 1270.46 -4.18016 -1.31126 0
M  V30 13696 C 1271.96 -3.34452 -2.90958 0
M  V30 13697 H 1269.18 -0.593628 -0.312805 0
M  V30 13698 H 1271.72 -2.01656 -0.339858 0
M  V30 13699 H 1269.88 -2.77318 -2.70506 0
M  V30 13700 H 1270.29 -4.86113 -1.96963 0
M  V30 13701 H 1271.77 -4.22206 -3.55593 0
M  V30 13702 H 1272.24 -2.52622 -3.59275 0
M  V30 13703 H 1272.85 -3.58069 -2.29493 0
M  V30 13704 N 1271.17 0.563888 -1.47167 0
M  V30 13705 C 1272.1 1.68137 -1.62025 0
M  V30 13706 C 1273.08 1.63481 -0.469899 0
M  V30 13707 O 1274.26 1.81206 -0.698432 0
M  V30 13708 C 1271.39 3.06779 -1.62801 0
M  V30 13709 C 1270.35 3.26278 -2.76996 0
M  V30 13710 C 1269.67 4.65638 -2.62841 0
M  V30 13711 C 1270.97 3.12295 -4.18651 0
M  V30 13712 H 1272.67 1.55958 -2.55573 0
M  V30 13713 H 1270.21 0.74887 -1.22996 0
M  V30 13714 H 1272.17 3.84795 -1.71787 0
M  V30 13715 H 1270.89 3.19901 -0.658097 0
M  V30 13716 H 1269.55 2.50668 -2.67509 0
M  V30 13717 H 1269.2 4.75551 -1.63892 0
M  V30 13718 H 1268.9 4.79635 -3.39447 0
M  V30 13719 H 1270.42 5.45798 -2.73746 0
M  V30 13720 H 1271.83 3.80136 -4.2915 0
M  V30 13721 H 1270.23 3.37805 -4.95992 0
M  V30 13722 H 1271.3 2.09126 -4.37486 0
M  V30 13723 N 1272.64 1.35187 0.810078 0
M  V30 13724 C 1273.59 1.27848 1.94313 0
M  V30 13725 C 1274.59 0.174081 1.68503 0
M  V30 13726 O 1275.79 0.339848 1.76763 0
M  V30 13727 H 1272.17 0.397504 0.638353 0
M  V30 13728 H 1274.14 2.23579 1.97623 0
M  V30 13729 C 1272.89 1.06382 3.31026 0
M  V30 13730 H 1272.21 1.90601 3.51441 0
M  V30 13731 H 1273.65 1.05287 4.1072 0
M  V30 13732 C 1272.11 -0.232462 3.36097 0
M  V30 13733 O 1272.64 -1.22946 3.82423 0
M  V30 13734 N 1270.85 -0.270028 2.89343 0
M  V30 13735 H 1270.39 0.541891 2.51836 0
M  V30 13736 H 1270.35 -1.13708 2.93117 0
M  V30 13737 N 1274.12 -1.03182 1.19127 0
M  V30 13738 C 1275.06 -2.10977 0.869702 0
M  V30 13739 C 1276.03 -1.61687 -0.172032 0
M  V30 13740 O 1277.22 -1.88436 -0.0490025 0
M  V30 13741 C 1274.34 -3.37359 0.301049 0
M  V30 13742 C 1273.39 -4.05515 1.32137 0
M  V30 13743 S 1274.22 -4.51415 2.88071 0
M  V30 13744 C 1275.38 -5.81018 2.32741 0
M  V30 13745 H 1275.61 -2.37929 1.78261 0
M  V30 13746 H 1273.15 -1.16079 1.01809 0
M  V30 13747 H 1275.1 -4.10495 -0.0205205 0
M  V30 13748 H 1273.76 -3.08507 -0.590118 0
M  V30 13749 H 1272.96 -4.9639 0.872547 0
M  V30 13750 H 1272.56 -3.38536 1.58963 0
M  V30 13751 H 1274.85 -6.5542 1.71552 0
M  V30 13752 H 1275.79 -6.30677 3.21951 0
M  V30 13753 H 1276.2 -5.36549 1.75429 0
M  V30 13754 N 1275.6 -0.99472 -1.22242 0
M  V30 13755 C 1276.53 -0.566499 -2.26524 0
M  V30 13756 C 1277.51 0.407541 -1.65146 0
M  V30 13757 O 1278.7 0.297777 -1.91903 0
M  V30 13758 C 1275.83 0.11786 -3.471 0
M  V30 13759 C 1274.78 -0.774908 -4.20927 0
M  V30 13760 C 1274.11 0.0424687 -5.34683 0
M  V30 13761 C 1275.41 -2.07263 -4.79416 0
M  V30 13762 H 1277.1 -1.43818 -2.62596 0
M  V30 13763 H 1274.65 -0.692971 -1.2623 0
M  V30 13764 H 1276.6 0.428842 -4.19212 0
M  V30 13765 H 1275.32 1.0241 -3.10129 0
M  V30 13766 H 1273.98 -1.06956 -3.50651 0
M  V30 13767 H 1273.63 0.949677 -4.93954 0
M  V30 13768 H 1273.33 -0.551867 -5.85003 0
M  V30 13769 H 1274.85 0.347504 -6.0961 0
M  V30 13770 H 1276.27 -1.82548 -5.4346 0
M  V30 13771 H 1274.67 -2.61594 -5.40082 0
M  V30 13772 H 1275.74 -2.75017 -3.99366 0
M  V30 13773 N 1277.08 1.37613 -0.768148 0
M  V30 13774 C 1278.33 1.99023 -0.327543 0
M  V30 13775 C 1278.64 1.61669 1.10103 0
M  V30 13776 O 1279.85 2.16155 1.64284 0
M  V30 13777 C 1278.3 3.55906 -0.534674 0
M  V30 13778 C 1277.91 4.02201 -1.97327 0
M  V30 13779 C 1279.65 4.24208 -0.157512 0
M  V30 13780 C 1277.56 5.51781 -2.12819 0
M  V30 13781 H 1276.49 0.744595 -0.118722 0
M  V30 13782 H 1279.14 1.5719 -0.946764 0
M  V30 13783 H 1277.52 3.95701 0.153951 0
M  V30 13784 H 1278.7 3.73661 -2.69655 0
M  V30 13785 H 1277.01 3.46671 -2.30669 0
M  V30 13786 H 1279.61 5.34107 -0.251824 0
M  V30 13787 H 1279.95 4.06636 0.89177 0
M  V30 13788 H 1280.49 3.89703 -0.798546 0
M  V30 13789 H 1277.23 5.74274 -3.16053 0
M  V30 13790 H 1276.75 5.82017 -1.4497 0
M  V30 13791 H 1278.42 6.17697 -1.92508 0
M  V30 13792 N 1278.56 0.518393 1.4883 0
M  V30 13793 C 1279.5 -0.250684 2.29435 0
M  V30 13794 C 1280.47 -0.944481 1.36634 0
M  V30 13795 O 1281.66 -0.947766 1.65596 0
M  V30 13796 C 1278.8 -1.29871 3.1973 0
M  V30 13797 C 1277.91 -0.61493 4.27601 0
M  V30 13798 C 1277.05 -1.64489 5.05091 0
M  V30 13799 C 1276.09 -0.943932 6.04778 0
M  V30 13800 N 1275.22 -1.91889 6.75369 0
M  V30 13801 H 1280.06 0.44288 2.94691 0
M  V30 13802 H 1277.6 0.230246 1.45287 0
M  V30 13803 H 1279.56 -1.91851 3.70471 0
M  V30 13804 H 1278.19 -1.96081 2.56422 0
M  V30 13805 H 1277.24 0.118552 3.80215 0
M  V30 13806 H 1278.55 -0.063994 4.98759 0
M  V30 13807 H 1277.71 -2.33928 5.59788 0
M  V30 13808 H 1276.44 -2.2297 4.33746 0
M  V30 13809 H 1275.45 -0.235407 5.49296 0
M  V30 13810 H 1276.67 -0.365383 6.78116 0
M  V30 13811 H 1274.62 -2.493 6.06783 0
M  V30 13812 H 1274.54 -1.41909 7.42562 0
M  V30 13813 H 1275.81 -2.60563 7.34661 0
M  V30 13814 N 1280.03 -1.55556 0.252993 0
M  V30 13815 C 1281.28 -1.98267 -0.370571 0
M  V30 13816 C 1281.6 -1.14449 -1.58622 0
M  V30 13817 O 1282.8 -1.472 -2.28132 0
M  V30 13818 C 1281.26 -3.52813 -0.710685 0
M  V30 13819 C 1280.87 -4.45379 0.483908 0
M  V30 13820 C 1282.61 -4.04165 -1.2981 0
M  V30 13821 C 1280.52 -5.91279 0.119611 0
M  V30 13822 H 1279.45 -0.740463 -0.142232 0
M  V30 13823 H 1282.1 -1.8005 0.354169 0
M  V30 13824 H 1280.48 -3.66748 -1.49372 0
M  V30 13825 H 1281.65 -4.43206 1.26116 0
M  V30 13826 H 1279.97 -4.04542 0.986664 0
M  V30 13827 H 1282.57 -5.10696 -1.5841 0
M  V30 13828 H 1282.91 -3.51875 -2.22462 0
M  V30 13829 H 1283.44 -3.93581 -0.577836 0
M  V30 13830 H 1280.18 -6.47619 1.01343 0
M  V30 13831 H 1279.7 -5.96573 -0.621318 0
M  V30 13832 H 1281.38 -6.46322 -0.296052 0
M  V30 13833 N 1281.51 0.0200419 -1.57587 0
M  V30 13834 C 1282.76 0.708115 -1.88861 0
M  V30 13835 C 1283.07 1.76036 -0.852693 0
M  V30 13836 O 1284.28 2.50165 -1.05497 0
M  V30 13837 C 1282.74 1.31057 -3.3519 0
M  V30 13838 C 1282.34 0.294202 -4.47033 0
M  V30 13839 C 1284.09 1.97799 -3.756 0
M  V30 13840 C 1282 0.905508 -5.84427 0
M  V30 13841 H 1280.93 0.268236 -0.704674 0
M  V30 13842 H 1283.58 -0.0372162 -1.83462 0
M  V30 13843 H 1281.96 2.1059 -3.35362 0
M  V30 13844 H 1283.13 -0.475081 -4.58344 0
M  V30 13845 H 1281.45 -0.271644 -4.15513 0
M  V30 13846 H 1284.04 2.44404 -4.75574 0
M  V30 13847 H 1284.39 2.80004 -3.08064 0
M  V30 13848 H 1284.92 1.25028 -3.77641 0
M  V30 13849 H 1281.66 0.122685 -6.55385 0
M  V30 13850 H 1281.18 1.64442 -5.76818 0
M  V30 13851 H 1282.86 1.41016 -6.31446 0
M  V30 13852 N 1282.99 1.54862 0.292472 0
M  V30 13853 C 1284.24 1.74203 1.02458 0
M  V30 13854 C 1284.56 0.535398 1.87506 0
M  V30 13855 O 1283.83 -0.450164 1.90658 0
M  V30 13856 H 1282.41 0.642369 0.381276 0
M  V30 13857 H 1285.07 1.92232 0.321398 0
M  V30 13858 H 1284.17 2.63486 1.67277 0
M  V30 13859 N 1284.47 -0.556076 1.47464 0
M  V30 13860 C 1285.42 -1.68406 1.60444 0
M  V30 13861 C 1286.41 -1.627 0.471713 0
M  V30 13862 O 1287.62 -1.67871 0.649551 0
M  V30 13863 H 1283.99 -0.557255 0.504946 0
M  V30 13864 H 1285.96 -1.54595 2.55231 0
M  V30 13865 C 1284.71 -3.06756 1.63695 0
M  V30 13866 H 1284.03 -3.11829 2.50206 0
M  V30 13867 H 1285.47 -3.85368 1.76827 0
M  V30 13868 C 1283.93 -3.34857 0.370485 0
M  V30 13869 O 1284.46 -3.98216 -0.527942 0
M  V30 13870 N 1282.67 -2.89521 0.250163 0
M  V30 13871 H 1282.22 -2.3814 0.982204 0
M  V30 13872 H 1282.17 -3.08694 -0.596268 0
M  V30 13873 N 1285.95 -1.35615 -0.802897 0
M  V30 13874 C 1287.17 -1.32377 -1.59659 0
M  V30 13875 C 1287.6 0.0954235 -1.87858 0
M  V30 13876 O 1286.96 1.06336 -1.46842 0
M  V30 13877 C 1287 -2.13972 -2.90256 0
M  V30 13878 O 1286.11 -1.52296 -3.83249 0
M  V30 13879 H 1285.45 -0.453699 -0.484823 0
M  V30 13880 H 1287.98 -1.78708 -0.996217 0
M  V30 13881 H 1287.99 -2.26061 -3.39647 0
M  V30 13882 H 1286.66 -3.17145 -2.69057 0
M  V30 13883 H 1285.24 -1.49068 -3.41809 0
M  V30 13884 N 1287.43 1.02549 -1.19673 0
M  V30 13885 C 1288.67 1.76265 -1.00293 0
M  V30 13886 C 1289 1.88555 0.464816 0
M  V30 13887 O 1288.28 1.40484 1.34515 0
M  V30 13888 C 1288.56 3.18688 -1.6766 0
M  V30 13889 C 1288.42 3.14247 -3.21821 0
M  V30 13890 C 1289.73 4.17159 -1.40238 0
M  V30 13891 H 1286.85 0.639837 -0.365756 0
M  V30 13892 H 1289.5 1.19691 -1.4756 0
M  V30 13893 H 1287.65 3.66992 -1.27472 0
M  V30 13894 H 1289.32 2.73815 -3.71245 0
M  V30 13895 H 1287.56 2.51874 -3.53188 0
M  V30 13896 H 1288.23 4.14886 -3.64107 0
M  V30 13897 H 1290.71 3.77471 -1.75086 0
M  V30 13898 H 1289.58 5.14997 -1.89919 0
M  V30 13899 H 1289.84 4.4088 -0.328197 0
M  V30 13900 N 1288.9 1.00119 1.21713 0
M  V30 13901 C 1290.15 0.680377 1.90303 0
M  V30 13902 C 1290.47 -0.790927 1.7824 0
M  V30 13903 O 1289.74 -1.5676 1.17486 0
M  V30 13904 H 1288.32 0.248665 0.704397 0
M  V30 13905 H 1290.98 1.26948 1.47886 0
M  V30 13906 H 1290.08 0.950188 2.97284 0
M  V30 13907 N 1290.38 -1.37203 0.775435 0
M  V30 13908 C 1291.34 -2.28566 0.170406 0
M  V30 13909 C 1292.34 -1.48195 -0.624085 0
M  V30 13910 O 1293.53 -1.68364 -0.447132 0
M  V30 13911 C 1290.67 -3.32186 -0.765829 0
M  V30 13912 H 1291.86 -2.8358 0.975824 0
M  V30 13913 H 1289.41 -1.46531 0.543895 0
M  V30 13914 H 1290.15 -2.82303 -1.59611 0
M  V30 13915 H 1289.93 -3.91598 -0.198251 0
M  V30 13916 H 1291.42 -4.0045 -1.18446 0
M  V30 13917 N 1291.86 -0.526279 -1.48553 0
M  V30 13918 C 1292.79 0.227364 -2.3239 0
M  V30 13919 C 1293.77 0.93862 -1.41859 0
M  V30 13920 O 1294.96 0.925119 -1.70749 0
M  V30 13921 C 1292.09 1.277 -3.22971 0
M  V30 13922 C 1291.04 0.684107 -4.22497 0
M  V30 13923 C 1290.37 1.83612 -5.02186 0
M  V30 13924 C 1291.67 -0.341723 -5.21181 0
M  V30 13925 H 1293.36 -0.472486 -2.95648 0
M  V30 13926 H 1290.91 -0.228669 -1.42173 0
M  V30 13927 H 1292.86 1.81215 -3.80446 0
M  V30 13928 H 1291.58 2.00638 -2.57705 0
M  V30 13929 H 1290.24 0.170505 -3.66203 0
M  V30 13930 H 1289.89 2.55379 -4.33348 0
M  V30 13931 H 1289.59 1.44536 -5.69547 0
M  V30 13932 H 1291.11 2.37513 -5.62512 0
M  V30 13933 H 1292.53 0.106207 -5.73202 0
M  V30 13934 H 1290.92 -0.649673 -5.96573 0
M  V30 13935 H 1291.99 -1.2488 -4.68543 0
M  V30 13936 N 1293.34 1.5542 -0.261239 0
M  V30 13937 C 1294.59 1.9889 0.358777 0
M  V30 13938 C 1294.91 1.15092 1.57413 0
M  V30 13939 O 1294.18 0.237095 1.9446 0
M  V30 13940 H 1292.76 0.734599 0.13555 0
M  V30 13941 H 1295.42 1.91483 -0.363357 0
M  V30 13942 H 1294.51 3.05082 0.658142 0
M  V30 13943 N 1294.82 -0.0116844 1.57596 0
M  V30 13944 C 1295.76 -1.02514 2.08791 0
M  V30 13945 C 1296.76 -1.36341 1.00536 0
M  V30 13946 O 1297.96 -1.35042 1.19011 0
M  V30 13947 H 1294.34 -0.348201 0.666528 0
M  V30 13948 H 1296.31 -0.567698 2.9295 0
M  V30 13949 C 1295.06 -2.312 2.59696 0
M  V30 13950 H 1294.38 -2.06036 3.42621 0
M  V30 13951 H 1295.82 -3.00417 2.99208 0
M  V30 13952 C 1294.28 -3.01372 1.50586 0
M  V30 13953 O 1294.81 -3.91896 0.882046 0
M  V30 13954 N 1293.02 -2.62997 1.23616 0
M  V30 13955 H 1292.56 -1.89466 1.74529 0
M  V30 13956 H 1292.52 -3.10264 0.508289 0
M  V30 13957 N 1296.29 -1.55015 -0.284256 0
M  V30 13958 C 1297.22 -1.90128 -1.3555 0
M  V30 13959 C 1298.2 -0.761914 -1.52082 0
M  V30 13960 O 1299.39 -1.01909 -1.65312 0
M  V30 13961 C 1296.52 -2.16332 -2.71695 0
M  V30 13962 C 1295.47 -3.32166 -2.69907 0
M  V30 13963 C 1294.8 -3.43824 -4.09498 0
M  V30 13964 C 1296.1 -4.6885 -2.30168 0
M  V30 13965 H 1297.79 -2.79852 -1.06411 0
M  V30 13966 H 1295.34 -1.34649 -0.510451 0
M  V30 13967 H 1297.29 -2.39482 -3.46737 0
M  V30 13968 H 1296.02 -1.23395 -3.02392 0
M  V30 13969 H 1294.68 -3.08965 -1.97322 0
M  V30 13970 H 1294.32 -2.48375 -4.374 0
M  V30 13971 H 1294.02 -4.21698 -4.092 0
M  V30 13972 H 1295.55 -3.69254 -4.86296 0
M  V30 13973 H 1296.96 -4.91619 -2.9493 0
M  V30 13974 H 1295.36 -5.49558 -2.41052 0
M  V30 13975 H 1296.43 -4.68433 -1.25294 0
M  V30 13976 N 1297.77 0.548248 -1.47757 0
M  V30 13977 C 1299 1.3302 -1.58472 0
M  V30 13978 C 1299.41 1.87292 -0.238186 0
M  V30 13979 O 1298.77 1.65465 0.76991 0
M  V30 13980 C 1298.82 2.49386 -2.61704 0
M  V30 13981 O 1298.54 1.97355 -3.9113 0
M  V30 13982 C 1300.04 3.41471 -2.82688 0
M  V30 13983 H 1297.26 0.405172 -0.534861 0
M  V30 13984 H 1299.81 0.663251 -1.93446 0
M  V30 13985 H 1297.96 3.12001 -2.29639 0
M  V30 13986 H 1298.38 2.7339 -4.47614 0
M  V30 13987 H 1299.85 4.19516 -3.58762 0
M  V30 13988 H 1300.33 3.95573 -1.90837 0
M  V30 13989 H 1300.93 2.84664 -3.15985 0
M  V30 13990 N 1299.25 1.36039 0.795694 0
M  V30 13991 C 1300.18 1.32528 1.92246 0
M  V30 13992 C 1301.16 0.197805 1.68946 0
M  V30 13993 O 1302.35 0.394474 1.90151 0
M  V30 13994 C 1299.48 1.10748 3.29169 0
M  V30 13995 C 1298.43 2.20253 3.66978 0
M  V30 13996 C 1297.76 1.83624 5.02181 0
M  V30 13997 C 1299.06 3.62296 3.76216 0
M  V30 13998 H 1300.75 2.2681 1.95442 0
M  V30 13999 H 1298.3 1.09181 0.938908 0
M  V30 14000 H 1300.25 1.06929 4.07608 0
M  V30 14001 H 1298.97 0.129141 3.26345 0
M  V30 14002 H 1297.63 2.23187 2.90832 0
M  V30 14003 H 1297.28 0.843804 4.95872 0
M  V30 14004 H 1296.98 2.56935 5.28449 0
M  V30 14005 H 1298.5 1.81349 5.83048 0
M  V30 14006 H 1299.92 3.61623 4.44861 0
M  V30 14007 H 1298.31 4.34459 4.13963 0
M  V30 14008 H 1299.38 3.97657 2.77483 0
M  V30 14009 N 1300.73 -1.01913 1.20215 0
M  V30 14010 C 1301.97 -1.7573 1.01226 0
M  V30 14011 C 1302.31 -1.88799 -0.45481 0
M  V30 14012 O 1301.58 -1.41196 -1.33768 0
M  V30 14013 C 1301.87 -3.17795 1.69348 0
M  V30 14014 C 1301.72 -3.12536 3.23483 0
M  V30 14015 C 1303.04 -4.16409 1.42448 0
M  V30 14016 H 1300.16 -0.637889 0.369144 0
M  V30 14017 H 1302.8 -1.18907 1.48193 0
M  V30 14018 H 1300.95 -3.66311 1.29416 0
M  V30 14019 H 1302.62 -2.71843 3.72692 0
M  V30 14020 H 1300.86 -2.49997 3.54519 0
M  V30 14021 H 1301.53 -4.12949 3.66302 0
M  V30 14022 H 1304.01 -3.76537 1.77086 0
M  V30 14023 H 1302.89 -5.13983 1.92648 0
M  V30 14024 H 1303.15 -4.407 0.351574 0
M  V30 14025 N 1302.21 -1.00763 -1.2118 0
M  V30 14026 C 1303.14 -0.590493 -2.2591 0
M  V30 14027 C 1304.12 0.390002 -1.65569 0
M  V30 14028 O 1305.3 0.277406 -1.92208 0
M  V30 14029 C 1302.43 0.0810388 -3.47205 0
M  V30 14030 C 1301.39 -0.81951 -4.20081 0
M  V30 14031 C 1300.71 -0.014244 -5.34698 0
M  V30 14032 C 1302.01 -2.12336 -4.7719 0
M  V30 14033 H 1303.71 -1.46595 -2.61056 0
M  V30 14034 H 1301.25 -0.706321 -1.25487 0
M  V30 14035 H 1303.21 0.384355 -4.19644 0
M  V30 14036 H 1301.93 0.991145 -3.11197 0
M  V30 14037 H 1300.59 -1.10669 -3.49497 0
M  V30 14038 H 1300.24 0.897233 -4.94933 0
M  V30 14039 H 1299.94 -0.613883 -5.84384 0
M  V30 14040 H 1301.46 0.282827 -6.09945 0
M  V30 14041 H 1302.87 -1.88301 -5.41494 0
M  V30 14042 H 1301.27 -2.67308 -5.37277 0
M  V30 14043 H 1302.34 -2.79238 -3.96427 0
M  V30 14044 N 1303.68 1.3679 -0.7827 0
M  V30 14045 C 1304.65 2.28472 -0.182525 0
M  V30 14046 C 1305.65 1.48524 0.616217 0
M  V30 14047 O 1306.84 1.68599 0.438197 0
M  V30 14048 C 1303.97 3.32588 0.748202 0
M  V30 14049 H 1305.16 2.83059 -0.99085 0
M  V30 14050 H 1302.72 1.46241 -0.551658 0
M  V30 14051 H 1303.45 2.83145 1.58112 0
M  V30 14052 H 1303.24 3.91698 0.177481 0
M  V30 14053 H 1304.73 4.01073 1.16321 0
M  V30 14054 N 1305.16 0.53415 1.48272 0
M  V30 14055 C 1306.41 -0.000450626 2.017 0
M  V30 14056 C 1306.72 -1.34926 1.41613 0
M  V30 14057 O 1307.93 -1.97246 1.86564 0
M  V30 14058 C 1306.39 -0.0511883 3.59864 0
M  V30 14059 C 1305.99 1.29298 4.28936 0
M  V30 14060 C 1307.74 -0.534397 4.21123 0
M  V30 14061 C 1305.65 1.2026 5.79044 0
M  V30 14062 H 1304.58 -0.00393844 0.75399 0
M  V30 14063 H 1307.23 0.678554 1.70493 0
M  V30 14064 H 1305.61 -0.795358 3.8793 0
M  V30 14065 H 1306.78 2.05305 4.12537 0
M  V30 14066 H 1305.1 1.71226 3.79566 0
M  V30 14067 H 1307.69 -0.620048 5.31093 0
M  V30 14068 H 1308.04 -1.54114 3.86723 0
M  V30 14069 H 1308.57 0.154215 3.97501 0
M  V30 14070 H 1305.31 2.18463 6.18025 0
M  V30 14071 H 1304.83 0.483971 5.97844 0
M  V30 14072 H 1306.51 0.895005 6.4078 0
M  V30 14073 N 1306.64 -1.55279 0.269478 0
M  V30 14074 C 1307.89 -1.98649 -0.349522 0
M  V30 14075 C 1308.2 -1.16125 -1.57399 0
M  V30 14076 O 1309.41 -1.49612 -2.26558 0
M  V30 14077 C 1307.86 -3.53547 -0.673224 0
M  V30 14078 C 1307.47 -4.44841 0.531119 0
M  V30 14079 C 1309.22 -4.05519 -1.25516 0
M  V30 14080 C 1307.12 -5.91119 0.182317 0
M  V30 14081 H 1306.05 -0.74193 -0.13437 0
M  V30 14082 H 1308.7 -1.79664 0.373246 0
M  V30 14083 H 1307.09 -3.68311 -1.45474 0
M  V30 14084 H 1308.26 -4.41843 1.3081 0
M  V30 14085 H 1306.58 -4.03472 1.02952 0
M  V30 14086 H 1309.17 -5.12347 -1.52984 0
M  V30 14087 H 1309.52 -3.54215 -2.18718 0
M  V30 14088 H 1310.05 -3.94172 -0.536059 0
M  V30 14089 H 1306.79 -6.46507 1.08206 0
M  V30 14090 H 1306.31 -5.97199 -0.558008 0
M  V30 14091 H 1307.99 -6.466 -0.227484 0
M  V30 14092 N 1308.12 0.00332656 -1.576 0
M  V30 14093 C 1309.36 0.68989 -1.90705 0
M  V30 14094 C 1309.7 1.73608 -0.870291 0
M  V30 14095 O 1308.97 1.94181 0.111416 0
M  V30 14096 C 1309.26 1.33605 -3.34397 0
M  V30 14097 C 1309.11 0.301638 -4.48787 0
M  V30 14098 C 1310.43 2.26313 -3.77453 0
M  V30 14099 H 1307.55 0.249328 -0.693545 0
M  V30 14100 H 1310.19 -0.0472847 -1.89941 0
M  V30 14101 H 1308.34 1.96437 -3.35179 0
M  V30 14102 H 1310.01 -0.326738 -4.60141 0
M  V30 14103 H 1308.25 -0.376451 -4.32163 0
M  V30 14104 H 1308.92 0.792741 -5.46278 0
M  V30 14105 H 1311.4 1.73502 -3.78201 0
M  V30 14106 H 1310.28 2.68492 -4.78752 0
M  V30 14107 H 1310.54 3.14082 -3.11135 0
M  V30 14108 N 1309.6 1.55164 0.276031 0
M  V30 14109 C 1310.84 1.75627 1.00803 0
M  V30 14110 C 1311.17 0.555696 1.86393 0
M  V30 14111 O 1310.43 -0.461872 1.90172 0
M  V30 14112 C 1310.73 3.0127 1.92279 0
M  V30 14113 C 1310.39 4.33951 1.22464 0
M  V30 14114 C 1309.05 4.70013 1.03158 0
M  V30 14115 C 1311.41 5.16097 0.72758 0
M  V30 14116 C 1308.73 5.85779 0.328699 0
M  V30 14117 C 1311.09 6.32588 0.0383001 0
M  V30 14118 C 1309.75 6.67292 -0.166494 0
M  V30 14119 H 1309.02 0.642665 0.368866 0
M  V30 14120 H 1311.67 1.89433 0.280595 0
M  V30 14121 H 1309.97 2.82351 2.71634 0
M  V30 14122 H 1311.67 3.14299 2.49032 0
M  V30 14123 H 1308.26 4.05605 1.38501 0
M  V30 14124 H 1312.44 4.88715 0.864365 0
M  V30 14125 H 1307.7 6.11192 0.159279 0
M  V30 14126 H 1311.87 6.95496 -0.354631 0
M  V30 14127 H 1309.5 7.56848 -0.713124 0
M  V30 14128 N 1311.07 -0.540404 1.48045 0
M  V30 14129 C 1312.32 -1.2932 1.54787 0
M  V30 14130 C 1312.64 -1.94335 0.222109 0
M  V30 14131 O 1313.84 -2.70982 0.167675 0
M  V30 14132 C 1312.3 -2.34594 2.72935 0
M  V30 14133 C 1311.91 -1.75696 4.1211 0
M  V30 14134 C 1313.65 -3.10949 2.88982 0
M  V30 14135 C 1311.56 -2.78849 5.21534 0
M  V30 14136 H 1310.49 -0.486315 0.576206 0
M  V30 14137 H 1313.14 -0.571998 1.74357 0
M  V30 14138 H 1311.52 -3.09704 2.46778 0
M  V30 14139 H 1312.69 -1.06845 4.48242 0
M  V30 14140 H 1311.01 -1.11869 4.01091 0
M  V30 14141 H 1313.61 -3.88012 3.679 0
M  V30 14142 H 1313.95 -3.66173 1.98048 0
M  V30 14143 H 1314.48 -2.42953 3.1499 0
M  V30 14144 H 1311.22 -2.28459 6.144 0
M  V30 14145 H 1310.74 -3.46059 4.89901 0
M  V30 14146 H 1312.42 -3.4203 5.49203 0
M  V30 14147 N 1312.55 -1.36459 -0.788468 0
M  V30 14148 C 1313.8 -1.30741 -1.54638 0
M  V30 14149 C 1314.13 0.113029 -1.94171 0
M  V30 14150 O 1313.38 1.08252 -1.63034 0
M  V30 14151 C 1313.68 -2.17672 -2.83467 0
M  V30 14152 C 1313.35 -3.66205 -2.63067 0
M  V30 14153 C 1312.01 -4.06688 -2.57212 0
M  V30 14154 C 1314.36 -4.60376 -2.44343 0
M  V30 14155 C 1311.69 -5.39482 -2.306 0
M  V30 14156 C 1314.04 -5.93388 -2.19258 0
M  V30 14157 C 1312.71 -6.32994 -2.11836 0
M  V30 14158 H 1311.98 -0.478416 -0.565862 0
M  V30 14159 H 1314.62 -1.68519 -0.909588 0
M  V30 14160 H 1312.93 -1.72834 -3.51619 0
M  V30 14161 H 1314.62 -2.10573 -3.41263 0
M  V30 14162 H 1311.21 -3.3409 -2.6848 0
M  V30 14163 H 1315.4 -4.29971 -2.47868 0
M  V30 14164 H 1310.65 -5.69149 -2.23337 0
M  V30 14165 H 1314.83 -6.65923 -2.03765 0
M  V30 14166 H 1312.46 -7.3582 -1.90978 0
M  V30 14167 N 1314.03 1.01274 -1.20754 0
M  V30 14168 C 1314.99 2.08056 -0.961528 0
M  V30 14169 C 1315.99 1.60671 0.0644461 0
M  V30 14170 O 1317.18 1.73349 -0.172022 0
M  V30 14171 C 1314.32 3.37938 -0.448381 0
M  V30 14172 H 1315.51 2.31314 -1.90877 0
M  V30 14173 H 1313.06 1.18133 -1.02344 0
M  V30 14174 H 1313.8 3.20357 0.504144 0
M  V30 14175 H 1313.58 3.73659 -1.18833 0
M  V30 14176 H 1315.07 4.16551 -0.295876 0
M  V30 14177 N 1315.51 1.01404 1.20644 0
M  V30 14178 C 1316.76 0.702949 1.90227 0
M  V30 14179 C 1317.09 -0.765243 1.78487 0
M  V30 14180 O 1316.36 -1.55569 1.16741 0
M  V30 14181 C 1316.65 1.13606 3.4171 0
M  V30 14182 C 1316.5 2.66437 3.62397 0
M  V30 14183 C 1317.82 0.705361 4.34411 0
M  V30 14184 H 1314.94 0.256842 0.690797 0
M  V30 14185 H 1317.58 1.26133 1.42093 0
M  V30 14186 H 1315.73 0.660977 3.82836 0
M  V30 14187 H 1317.4 3.21778 3.3054 0
M  V30 14188 H 1315.64 3.0753 3.05954 0
M  V30 14189 H 1316.32 2.91795 4.68572 0
M  V30 14190 H 1318.79 1.11375 4.00918 0
M  V30 14191 H 1317.67 1.03647 5.39026 0
M  V30 14192 H 1317.93 -0.393094 4.40349 0
M  V30 14193 N 1316.99 -1.36373 0.789944 0
M  V30 14194 C 1318.23 -1.99523 0.363119 0
M  V30 14195 C 1318.57 -1.6255 -1.0626 0
M  V30 14196 O 1317.84 -0.880551 -1.73426 0
M  V30 14197 C 1318.12 -3.56215 0.527526 0
M  V30 14198 C 1317.98 -4.0304 1.99697 0
M  V30 14199 C 1319.3 -4.40063 -0.0571079 0
M  V30 14200 H 1316.42 -0.724824 0.133412 0
M  V30 14201 H 1319.06 -1.61778 0.996381 0
M  V30 14202 H 1317.21 -3.88498 -0.0115636 0
M  V30 14203 H 1318.88 -3.81241 2.59717 0
M  V30 14204 H 1317.12 -3.54561 2.49939 0
M  V30 14205 H 1317.79 -5.12001 2.06297 0
M  V30 14206 H 1320.27 -4.14143 0.403082 0
M  V30 14207 H 1319.15 -5.4883 0.0879494 0
M  V30 14208 H 1319.41 -4.26901 -1.14926 0
M  V30 14209 N 1318.47 -0.542005 -1.47987 0
M  V30 14210 C 1319.71 -0.0122873 -2.02096 0
M  V30 14211 C 1320.03 1.3362 -1.42024 0
M  V30 14212 O 1319.3 1.86807 -0.589911 0
M  V30 14213 H 1317.88 -0.00155365 -0.746998 0
M  V30 14214 H 1320.55 -0.708566 -1.81564 0
M  V30 14215 H 1319.64 0.0871275 -3.11978 0
M  V30 14216 N 1319.94 1.55134 -0.277709 0
M  V30 14217 C 1320.88 2.18745 0.650058 0
M  V30 14218 C 1321.85 1.14922 1.15029 0
M  V30 14219 O 1323.04 1.43458 1.22278 0
M  V30 14220 C 1320.17 2.81277 1.88683 0
M  V30 14221 C 1319.21 3.98425 1.52185 0
M  V30 14222 S 1320.04 5.32153 0.597782 0
M  V30 14223 C 1321.2 5.98155 1.84287 0
M  V30 14224 H 1321.43 2.97098 0.109571 0
M  V30 14225 H 1318.97 1.54276 -0.0619536 0
M  V30 14226 H 1320.92 3.17934 2.59669 0
M  V30 14227 H 1319.59 2.02813 2.39845 0
M  V30 14228 H 1318.78 4.40877 2.4422 0
M  V30 14229 H 1318.38 3.63203 0.892146 0
M  V30 14230 H 1320.67 6.17546 2.78646 0
M  V30 14231 H 1321.62 6.92857 1.46131 0
M  V30 14232 H 1322.02 5.27541 2.00899 0
M  V30 14233 N 1321.42 0.00503138 1.57599 0
M  V30 14234 C 1322.35 -1.01302 2.05598 0
M  V30 14235 C 1323.37 -1.30388 0.974829 0
M  V30 14236 O 1324.56 -1.27275 1.25153 0
M  V30 14237 C 1321.66 -2.34654 2.44522 0
M  V30 14238 C 1320.83 -2.24436 3.7543 0
M  V30 14239 C 1319.89 -3.40517 4.01166 0
M  V30 14240 O 1318.91 -3.18479 4.71762 0
M  V30 14241 N 1320.12 -4.63532 3.49454 0
M  V30 14242 H 1322.88 -0.603656 2.93558 0
M  V30 14243 H 1320.44 -0.182248 1.60871 0
M  V30 14244 H 1322.43 -3.11093 2.5885 0
M  V30 14245 H 1321 -2.67315 1.62055 0
M  V30 14246 H 1320.22 -1.32875 3.71131 0
M  V30 14247 H 1321.51 -2.14786 4.61242 0
M  V30 14248 H 1320.91 -4.84334 2.92296 0
M  V30 14249 H 1319.47 -5.37221 3.69103 0
M  V30 14250 N 1322.9 -1.55308 -0.267798 0
M  V30 14251 C 1323.83 -1.91555 -1.33525 0
M  V30 14252 C 1324.81 -0.778001 -1.51265 0
M  V30 14253 O 1326 -1.03657 -1.64222 0
M  V30 14254 C 1323.13 -2.19201 -2.69385 0
M  V30 14255 C 1322.08 -3.3501 -2.66369 0
M  V30 14256 C 1321.41 -3.48148 -4.05829 0
M  V30 14257 C 1322.71 -4.71265 -2.25182 0
M  V30 14258 H 1324.4 -2.80965 -1.03437 0
M  V30 14259 H 1321.95 -1.35183 -0.496141 0
M  V30 14260 H 1323.9 -2.43146 -3.44177 0
M  V30 14261 H 1322.62 -1.26596 -3.01067 0
M  V30 14262 H 1321.28 -3.11041 -1.94034 0
M  V30 14263 H 1320.93 -2.53 -4.34741 0
M  V30 14264 H 1320.63 -4.26014 -4.04704 0
M  V30 14265 H 1322.15 -3.74391 -4.82352 0
M  V30 14266 H 1323.57 -4.94719 -2.89699 0
M  V30 14267 H 1321.96 -5.52084 -2.3521 0
M  V30 14268 H 1323.03 -4.69735 -1.20319 0
M  V30 14269 N 1324.38 0.532545 -1.4833 0
M  V30 14270 C 1325.62 1.28851 -1.56217 0
M  V30 14271 C 1325.95 1.93076 -0.234967 0
M  V30 14272 O 1325.21 1.79722 0.774508 0
M  V30 14273 C 1325.51 2.40117 -2.64724 0
M  V30 14274 C 1325.17 1.93562 -4.0724 0
M  V30 14275 C 1323.83 1.80583 -4.46031 0
M  V30 14276 C 1326.19 1.58349 -4.96563 0
M  V30 14277 C 1323.51 1.30722 -5.71952 0
M  V30 14278 C 1325.87 1.09951 -6.22972 0
M  V30 14279 C 1324.53 0.955866 -6.60621 0
M  V30 14280 H 1323.8 0.4715 -0.571637 0
M  V30 14281 H 1326.45 0.594564 -1.82036 0
M  V30 14282 H 1324.75 3.15171 -2.32754 0
M  V30 14283 H 1326.45 2.98252 -2.68042 0
M  V30 14284 H 1323.04 2.04614 -3.76605 0
M  V30 14285 H 1327.22 1.67237 -4.67274 0
M  V30 14286 H 1322.48 1.18286 -5.99849 0
M  V30 14287 H 1326.65 0.817736 -6.91582 0
M  V30 14288 H 1324.28 0.567302 -7.5808 0
M  V30 14289 N 1325.86 1.36875 0.78122 0
M  V30 14290 C 1327.1 1.31299 1.53639 0
M  V30 14291 C 1327.42 -0.104942 1.94717 0
M  V30 14292 O 1326.69 -1.04696 1.65576 0
M  V30 14293 H 1325.27 0.483032 0.569815 0
M  V30 14294 H 1327.94 1.71261 0.930359 0
M  V30 14295 H 1327.03 1.94581 2.44018 0
M  V30 14296 N 1327.33 -1.00632 1.21289 0
M  V30 14297 C 1328.28 -2.09382 0.97097 0
M  V30 14298 C 1329.25 -1.65783 -0.102561 0
M  V30 14299 O 1330.44 -1.90749 0.0442886 0
M  V30 14300 C 1327.58 -3.40844 0.540314 0
M  V30 14301 C 1326.69 -3.97862 1.68314 0
M  V30 14302 C 1325.82 -5.17427 1.20178 0
M  V30 14303 C 1324.86 -5.66552 2.31702 0
M  V30 14304 N 1324 -6.77368 1.84709 0
M  V30 14305 H 1328.84 -2.29411 1.90196 0
M  V30 14306 H 1326.38 -1.12488 0.947885 0
M  V30 14307 H 1328.33 -4.16313 0.271881 0
M  V30 14308 H 1326.96 -3.20857 -0.353677 0
M  V30 14309 H 1326.02 -3.19391 2.06624 0
M  V30 14310 H 1327.33 -4.30314 2.52252 0
M  V30 14311 H 1326.48 -6.00138 0.889926 0
M  V30 14312 H 1325.22 -4.86566 0.332422 0
M  V30 14313 H 1324.23 -4.82438 2.63691 0
M  V30 14314 H 1325.45 -5.99443 3.19131 0
M  V30 14315 H 1323.4 -6.48315 1.00116 0
M  V30 14316 H 1323.31 -7.09067 2.62221 0
M  V30 14317 H 1324.58 -7.63617 1.56554 0
M  V30 14318 N 1328.81 -1.02043 -1.20104 0
M  V30 14319 C 1330.04 -0.731142 -1.94085 0
M  V30 14320 C 1330.46 0.702467 -1.74491 0
M  V30 14321 O 1329.82 1.48387 -1.04168 0
M  V30 14322 C 1329.87 -1.07691 -3.44144 0
M  V30 14323 O 1328.97 -0.190751 -4.11959 0
M  V30 14324 H 1328.31 -0.270917 -0.606218 0
M  V30 14325 H 1330.84 -1.36483 -1.52426 0
M  V30 14326 H 1330.85 -1.03023 -3.94779 0
M  V30 14327 H 1329.53 -2.1214 -3.57728 0
M  V30 14328 H 1328.1 -0.29529 -3.71729 0
M  V30 14329 N 1330.29 1.35952 -0.797165 0
M  V30 14330 C 1331.52 2.02986 -0.384758 0
M  V30 14331 C 1331.93 1.60233 1.00608 0
M  V30 14332 O 1331.27 0.790955 1.658 0
M  V30 14333 C 1331.33 3.57508 -0.37795 0
M  V30 14334 C 1331 4.23491 -1.71769 0
M  V30 14335 C 1331.99 4.45835 -2.67445 0
M  V30 14336 C 1329.68 4.60804 -1.99911 0
M  V30 14337 C 1331.67 5.04584 -3.89453 0
M  V30 14338 C 1329.36 5.19269 -3.22185 0
M  V30 14339 C 1330.36 5.41099 -4.16774 0
M  V30 14340 O 1330.05 5.98334 -5.36891 0
M  V30 14341 H 1329.78 0.657838 -0.155644 0
M  V30 14342 H 1332.33 1.7475 -1.07942 0
M  V30 14343 H 1330.56 3.84894 0.373253 0
M  V30 14344 H 1332.25 4.05899 0.0108505 0
M  V30 14345 H 1333.02 4.17397 -2.46992 0
M  V30 14346 H 1328.9 4.43132 -1.27102 0
M  V30 14347 H 1332.44 5.21539 -4.63296 0
M  V30 14348 H 1328.34 5.47134 -3.42512 0
M  V30 14349 H 1329.11 6.16794 -5.38059 0
M  V30 14350 N 1331.77 0.549846 1.47697 0
M  V30 14351 C 1332.72 -0.201961 2.29915 0
M  V30 14352 C 1333.69 -0.915287 1.38606 0
M  V30 14353 O 1334.87 -0.912427 1.67569 0
M  V30 14354 C 1332.01 -1.2306 3.22413 0
M  V30 14355 C 1331.12 -0.524091 4.28809 0
M  V30 14356 C 1330.26 -1.53738 5.08466 0
M  V30 14357 C 1329.3 -0.815437 6.06644 0
M  V30 14358 N 1328.43 -1.77521 6.79287 0
M  V30 14359 H 1333.27 0.505289 2.93685 0
M  V30 14360 H 1330.81 0.261012 1.44766 0
M  V30 14361 H 1332.77 -1.83949 3.74458 0
M  V30 14362 H 1331.4 -1.90597 2.60523 0
M  V30 14363 H 1330.45 0.199174 3.79878 0
M  V30 14364 H 1331.76 0.0418145 4.98782 0
M  V30 14365 H 1330.92 -2.22001 5.64624 0
M  V30 14366 H 1329.66 -2.1372 4.38378 0
M  V30 14367 H 1328.66 -0.11884 5.49672 0
M  V30 14368 H 1329.89 -0.221462 6.78739 0
M  V30 14369 H 1327.83 -2.36374 6.11934 0
M  V30 14370 H 1327.75 -1.26126 7.45405 0
M  V30 14371 H 1329.02 -2.44921 7.40023 0
M  V30 14372 N 1333.25 -1.54984 0.285932 0
M  V30 14373 C 1334.16 -2.26621 -0.606648 0
M  V30 14374 C 1335.17 -1.29595 -1.16108 0
M  V30 14375 O 1336.35 -1.62551 -1.18908 0
M  V30 14376 C 1333.41 -2.98156 -1.76929 0
M  V30 14377 C 1332.47 -4.10685 -1.25045 0
M  V30 14378 C 1331.71 -4.788 -2.35768 0
M  V30 14379 O 1331.93 -4.46183 -3.55354 0
M  V30 14380 O 1330.86 -5.66523 -2.03312 0
M  V30 14381 H 1334.69 -3.03689 -0.0259981 0
M  V30 14382 H 1332.28 -1.49306 0.0529355 0
M  V30 14383 H 1334.16 -3.43076 -2.44697 0
M  V30 14384 H 1332.83 -2.23996 -2.33683 0
M  V30 14385 H 1331.74 -3.70198 -0.538919 0
M  V30 14386 H 1333.07 -4.86778 -0.728528 0
M  V30 14387 N 1334.72 -0.0133892 -1.57594 0
M  V30 14388 C 1335.96 0.672977 -1.93004 0
M  V30 14389 C 1336.33 1.70188 -0.888816 0
M  V30 14390 O 1337.53 2.4396 -1.12859 0
M  V30 14391 C 1335.8 1.28743 -3.33407 0
M  V30 14392 S 1337.36 1.99706 -3.90721 0
M  V30 14393 H 1334.18 0.221972 -0.675462 0
M  V30 14394 H 1336.78 -0.0732871 -1.95363 0
M  V30 14395 H 1335.48 0.525931 -4.07016 0
M  V30 14396 H 1335.01 2.07134 -3.34454 0
M  V30 14397 H 1337.03 3.27375 -3.72881 0
M  V30 14398 N 1336.2 1.55448 0.259558 0
M  V30 14399 C 1337.45 1.76948 0.990816 0
M  V30 14400 C 1337.78 0.576401 1.85449 0
M  V30 14401 O 1337.06 -0.425693 1.89784 0
M  V30 14402 C 1337.34 3.08221 1.86204 0
M  V30 14403 C 1337.19 4.37909 1.0274 0
M  V30 14404 C 1338.51 3.35627 2.84679 0
M  V30 14405 H 1335.63 0.64377 0.358788 0
M  V30 14406 H 1338.27 1.88182 0.262211 0
M  V30 14407 H 1336.42 2.98775 2.48326 0
M  V30 14408 H 1338.09 4.5933 0.425855 0
M  V30 14409 H 1336.34 4.32533 0.331308 0
M  V30 14410 H 1337.01 5.26116 1.6705 0
M  V30 14411 H 1339.48 3.44954 2.32693 0
M  V30 14412 H 1338.36 4.28719 3.42769 0
M  V30 14413 H 1338.62 2.55921 3.60496 0
M  V30 14414 N 1337.68 -0.524672 1.4861 0
M  V30 14415 C 1338.92 -1.29064 1.58499 0
M  V30 14416 C 1339.28 -1.90294 0.255378 0
M  V30 14417 O 1340.49 -2.6782 0.229289 0
M  V30 14418 C 1338.76 -2.34693 2.69544 0
M  V30 14419 S 1340.32 -3.20944 2.99233 0
M  V30 14420 H 1337.13 -0.438948 0.559326 0
M  V30 14421 H 1339.74 -0.597119 1.86158 0
M  V30 14422 H 1338.44 -1.88199 3.64704 0
M  V30 14423 H 1337.97 -3.08745 2.43804 0
M  V30 14424 H 1339.99 -4.34883 2.38937 0
M  V30 14425 N 1339.16 -1.37287 -0.77395 0
M  V30 14426 C 1340.11 -1.32872 -1.88716 0
M  V30 14427 C 1341.08 -0.194655 -1.64955 0
M  V30 14428 O 1342.26 -0.383662 -1.86903 0
M  V30 14429 C 1339.4 -1.13934 -3.2575 0
M  V30 14430 C 1338.51 -2.36552 -3.61479 0
M  V30 14431 C 1337.65 -2.10504 -4.87711 0
M  V30 14432 C 1336.69 -3.28999 -5.16165 0
M  V30 14433 N 1335.82 -3.02517 -6.33584 0
M  V30 14434 H 1340.66 -2.28051 -1.91825 0
M  V30 14435 H 1338.2 -1.13325 -0.93786 0
M  V30 14436 H 1340.16 -1.00976 -4.04796 0
M  V30 14437 H 1338.79 -0.22404 -3.22022 0
M  V30 14438 H 1337.84 -2.60257 -2.77435 0
M  V30 14439 H 1339.15 -3.24931 -3.78446 0
M  V30 14440 H 1338.31 -1.94564 -5.74656 0
M  V30 14441 H 1337.05 -1.19459 -4.72843 0
M  V30 14442 H 1336.05 -3.4548 -4.27696 0
M  V30 14443 H 1337.28 -4.20892 -5.32942 0
M  V30 14444 H 1335.22 -2.14099 -6.20079 0
M  V30 14445 H 1335.14 -3.84439 -6.50955 0
M  V30 14446 H 1336.41 -2.9019 -7.23471 0
M  V30 14447 N 1340.64 0.999871 -1.21821 0
M  V30 14448 C 1341.89 1.73257 -1.03271 0
M  V30 14449 C 1342.2 1.90736 0.433502 0
M  V30 14450 O 1343.4 2.61263 0.738511 0
M  V30 14451 C 1341.86 3.11697 -1.79925 0
M  V30 14452 C 1341.47 3.02173 -3.3075 0
M  V30 14453 C 1343.21 3.89061 -1.698 0
M  V30 14454 C 1341.12 4.35725 -3.99872 0
M  V30 14455 H 1340.05 0.649595 -0.382809 0
M  V30 14456 H 1342.7 1.11676 -1.45605 0
M  V30 14457 H 1341.08 3.73919 -1.30386 0
M  V30 14458 H 1342.26 2.49158 -3.8763 0
M  V30 14459 H 1340.57 2.38296 -3.41473 0
M  V30 14460 H 1343.17 4.87897 -2.1877 0
M  V30 14461 H 1343.51 4.11081 -0.657148 0
M  V30 14462 H 1344.04 3.33502 -2.16844 0
M  V30 14463 H 1340.78 4.18906 -5.04181 0
M  V30 14464 H 1340.3 4.8868 -3.47781 0
M  V30 14465 H 1341.98 5.04503 -4.05075 0
M  V30 14466 N 1342.11 1.02678 1.19562 0
M  V30 14467 C 1343.06 0.599259 2.24748 0
M  V30 14468 C 1344.06 -0.367079 1.65375 0
M  V30 14469 O 1345.26 -0.235887 1.78448 0
M  V30 14470 H 1341.64 0.175517 0.73123 0
M  V30 14471 H 1343.61 1.4971 2.58127 0
M  V30 14472 C 1342.36 -0.0362515 3.47681 0
M  V30 14473 H 1341.68 0.698343 3.93654 0
M  V30 14474 H 1343.12 -0.298361 4.22949 0
M  V30 14475 C 1341.58 -1.28218 3.11547 0
M  V30 14476 O 1342.11 -2.37446 3.24009 0
M  V30 14477 N 1340.32 -1.17014 2.66 0
M  V30 14478 H 1339.86 -0.28132 2.56059 0
M  V30 14479 H 1339.82 -2.00473 2.42194 0
M  V30 14480 N 1343.59 -1.35528 0.804364 0
M  V30 14481 C 1344.52 -2.28562 0.170893 0
M  V30 14482 C 1345.54 -1.50178 -0.628526 0
M  V30 14483 O 1346.73 -1.72438 -0.461252 0
M  V30 14484 C 1343.83 -3.29792 -0.780434 0
M  V30 14485 C 1343 -4.37391 -0.0278619 0
M  V30 14486 C 1342.06 -5.18492 -0.897341 0
M  V30 14487 O 1341.08 -5.68128 -0.349098 0
M  V30 14488 N 1342.29 -5.36385 -2.21971 0
M  V30 14489 H 1345.05 -2.83565 0.970108 0
M  V30 14490 H 1342.61 -1.47854 0.659617 0
M  V30 14491 H 1344.6 -3.80939 -1.36628 0
M  V30 14492 H 1343.17 -2.7532 -1.48046 0
M  V30 14493 H 1342.39 -3.87208 0.739178 0
M  V30 14494 H 1343.68 -5.06426 0.490889 0
M  V30 14495 H 1343.08 -4.97699 -2.6891 0
M  V30 14496 H 1341.64 -5.90721 -2.75485 0
M  V30 14497 N 1345.07 -0.557671 -1.47404 0
M  V30 14498 C 1346.35 0.031908 -1.95574 0
M  V30 14499 C 1346.73 1.48509 -1.50027 0
M  V30 14500 O 1346.08 2.16209 -0.73932 0
M  V30 14501 C 1346.29 -0.114055 -3.48814 0
M  V30 14502 C 1347.63 0.0310533 -4.24589 0
M  V30 14503 O 1348.66 -0.041626 -3.56176 0
M  V30 14504 O 1347.52 0.187487 -5.46178 0
M  V30 14505 H 1344.61 0.0638747 -0.82453 0
M  V30 14506 H 1347.16 -0.624227 -1.57802 0
M  V30 14507 H 1345.93 -1.12525 -3.74772 0
M  V30 14508 H 1345.55 0.57967 -3.93352 0
M  V30 14509 N 1346.55 1.54831 -0.294147 0
M  V30 14510 C 1347.79 2.0191 0.318092 0
M  V30 14511 C 1348.15 1.178 1.51615 0
M  V30 14512 O 1349.35 1.54546 2.1993 0
M  V30 14513 C 1347.63 3.51018 0.672375 0
M  V30 14514 S 1349.18 4.20066 1.26845 0
M  V30 14515 H 1346 0.704215 0.0979881 0
M  V30 14516 H 1348.6 1.90926 -0.420422 0
M  V30 14517 H 1347.31 4.09872 -0.208159 0
M  V30 14518 H 1346.84 3.66025 1.44186 0
M  V30 14519 H 1348.85 4.25274 2.55649 0
M  V30 14520 N 1348.03 0.0217466 1.57585 0
M  V30 14521 C 1348.94 -0.978407 2.13224 0
M  V30 14522 C 1349.95 -1.36212 1.08269 0
M  V30 14523 O 1351.13 -1.44504 1.40288 0
M  V30 14524 C 1348.19 -2.24462 2.6423 0
M  V30 14525 C 1347.26 -1.92201 3.83871 0
M  V30 14526 C 1346.49 -3.12786 4.32436 0
M  V30 14527 O 1346.71 -4.25201 3.8021 0
M  V30 14528 O 1345.65 -2.95514 5.24362 0
M  V30 14529 H 1349.47 -0.535347 2.98944 0
M  V30 14530 H 1347.06 -0.198414 1.48077 0
M  V30 14531 H 1348.94 -2.98809 2.97138 0
M  V30 14532 H 1347.61 -2.67964 1.81596 0
M  V30 14533 H 1346.52 -1.15262 3.55901 0
M  V30 14534 H 1347.85 -1.53521 4.67645 0
M  V30 14535 N 1349.51 -1.55583 -0.251311 0
M  V30 14536 C 1350.44 -1.9296 -1.31486 0
M  V30 14537 C 1351.42 -0.794001 -1.50431 0
M  V30 14538 O 1352.6 -1.05393 -1.63113 0
M  V30 14539 C 1349.73 -2.22046 -2.67045 0
M  V30 14540 C 1348.69 -3.37816 -2.62801 0
M  V30 14541 C 1348.01 -3.52433 -4.02113 0
M  V30 14542 C 1349.31 -4.73626 -2.20171 0
M  V30 14543 H 1351.01 -2.82046 -1.00451 0
M  V30 14544 H 1348.55 -1.35702 -0.481775 0
M  V30 14545 H 1350.5 -2.46783 -3.41579 0
M  V30 14546 H 1349.23 -1.29782 -2.99707 0
M  V30 14547 H 1347.89 -3.13081 -1.90724 0
M  V30 14548 H 1347.54 -2.57597 -4.32034 0
M  V30 14549 H 1347.24 -4.30283 -4.00163 0
M  V30 14550 H 1348.76 -3.79486 -4.78354 0
M  V30 14551 H 1350.17 -4.97764 -2.84436 0
M  V30 14552 H 1348.57 -5.54547 -2.29341 0
M  V30 14553 H 1349.64 -4.70985 -1.1533 0
M  V30 14554 N 1350.98 0.516783 -1.48886 0
M  V30 14555 C 1352.39 1.09856 -1.50959 0
M  V30 14556 C 1352.75 1.94092 -0.28681 0
M  V30 14557 O 1351.87 2.07774 0.604877 0
M  V30 14558 C 1352.47 1.999 -2.73542 0
M  V30 14559 C 1351.02 2.5327 -2.78444 0
M  V30 14560 C 1350.17 1.30526 -2.44659 0
M  V30 14561 H 1353.12 0.301415 -1.55811 0
M  V30 14562 H 1353.14 2.84373 -2.52809 0
M  V30 14563 H 1352.66 1.38564 -3.62521 0
M  V30 14564 H 1350.76 3.1829 -1.93707 0
M  V30 14565 H 1350.87 2.91502 -3.80215 0
M  V30 14566 H 1349.23 1.62536 -1.96097 0
M  V30 14567 H 1350.02 0.709223 -3.35894 0
M  V30 14568 N 1352.46 1.37696 0.766659 0
M  V30 14569 C 1353.88 1.18607 1.06792 0
M  V30 14570 C 1354.08 0.0257195 2.01484 0
M  V30 14571 O 1353.13 -0.632608 2.44447 0
M  V30 14572 C 1354.45 2.50692 1.66054 0
M  V30 14573 C 1355.99 2.57259 1.78288 0
M  V30 14574 C 1356.47 3.89488 2.40963 0
M  V30 14575 N 1357.96 3.90957 2.48408 0
M  V30 14576 C 1358.7 4.90023 2.97767 0
M  V30 14577 N 1358.19 5.99485 3.4726 0
M  V30 14578 N 1359.98 4.77423 2.96688 0
M  V30 14579 H 1352.14 2.11951 0.138031 0
M  V30 14580 H 1354.4 0.939873 0.123863 0
M  V30 14581 H 1354.1 3.35989 1.03945 0
M  V30 14582 H 1353.98 2.68148 2.65286 0
M  V30 14583 H 1356.37 1.72366 2.39528 0
M  V30 14584 H 1356.45 2.43682 0.777981 0
M  V30 14585 H 1356.09 4.74797 1.8036 0
M  V30 14586 H 1356.02 4.0037 3.42069 0
M  V30 14587 H 1358.51 3.11888 2.13388 0
M  V30 14588 H 1358.82 6.71022 3.8334 0
M  V30 14589 H 1357.17 6.03123 3.45351 0
M  V30 14590 H 1360.36 3.91026 2.57325 0
M  V30 14591 H 1360.53 5.54783 3.34844 0
M  V30 14592 N 1353.94 -0.993397 1.22349 0
M  V30 14593 C 1355.19 -1.73635 1.05936 0
M  V30 14594 C 1355.54 -1.88166 -0.401414 0
M  V30 14595 O 1354.83 -1.41338 -1.2936 0
M  V30 14596 C 1355.03 -3.14191 1.70349 0
M  V30 14597 C 1354.86 -3.13367 3.22539 0
M  V30 14598 C 1353.63 -3.19289 3.91641 0
M  V30 14599 C 1355.82 -2.97559 4.1948 0
M  V30 14600 N 1353.81 -3.08213 5.30922 0
M  V30 14601 C 1355.18 -2.94506 5.45588 0
M  V30 14602 C 1357.23 -2.81947 4.10378 0
M  V30 14603 C 1355.94 -2.7744 6.63641 0
M  V30 14604 C 1357.96 -2.66241 5.28081 0
M  V30 14605 C 1357.32 -2.63875 6.53107 0
M  V30 14606 H 1353.42 -0.64505 0.44208 0
M  V30 14607 H 1356.01 -1.17981 1.54882 0
M  V30 14608 H 1354.18 -3.6809 1.23954 0
M  V30 14609 H 1355.91 -3.77046 1.47032 0
M  V30 14610 H 1352.66 -3.26951 3.42637 0
M  V30 14611 H 1353.09 -3.05986 6.03905 0
M  V30 14612 H 1357.73 -2.82574 3.14502 0
M  V30 14613 H 1355.45 -2.75558 7.59666 0
M  V30 14614 H 1359.03 -2.55144 5.2287 0
M  V30 14615 H 1357.91 -2.5187 7.42652 0
M  V30 14616 N 1355.42 -1.03311 -1.19015 0
M  V30 14617 C 1356.37 -0.588076 -2.20285 0
M  V30 14618 C 1357.35 0.365442 -1.56695 0
M  V30 14619 O 1358.54 0.185725 -1.76023 0
M  V30 14620 C 1355.67 0.0553478 -3.43255 0
M  V30 14621 C 1354.76 -0.920863 -4.13982 0
M  V30 14622 N 1355.15 -2.08495 -4.60829 0
M  V30 14623 C 1353.45 -0.74522 -4.3973 0
M  V30 14624 C 1354.15 -2.701 -5.1519 0
M  V30 14625 N 1353.12 -1.98031 -5.06246 0
M  V30 14626 H 1356.93 -1.47529 -2.54189 0
M  V30 14627 H 1354.44 -0.900663 -1.35136 0
M  V30 14628 H 1356.44 0.39182 -4.15055 0
M  V30 14629 H 1355.1 0.938199 -3.1085 0
M  V30 14630 H 1356.11 -2.46418 -4.5552 0
M  V30 14631 H 1352.79 0.088182 -4.17407 0
M  V30 14632 H 1354.18 -3.6871 -5.61696 0
M  V30 14633 N 1356.9 1.35099 -0.81154 0
M  V30 14634 C 1357.83 2.2756 -0.170838 0
M  V30 14635 C 1358.81 1.48331 0.666085 0
M  V30 14636 O 1359.99 1.77579 0.632294 0
M  V30 14637 C 1357.12 3.30006 0.762483 0
M  V30 14638 C 1356.16 4.265 0.00454934 0
M  V30 14639 S 1357 5.18595 -1.33488 0
M  V30 14640 C 1358.15 6.24581 -0.406132 0
M  V30 14641 H 1358.39 2.81553 -0.95475 0
M  V30 14642 H 1355.92 1.41974 -0.606851 0
M  V30 14643 H 1357.88 3.89523 1.29545 0
M  V30 14644 H 1356.54 2.74882 1.51982 0
M  V30 14645 H 1355.73 4.98922 0.71361 0
M  V30 14646 H 1355.33 3.71178 -0.458613 0
M  V30 14647 H 1357.62 6.76278 0.406707 0
M  V30 14648 H 1358.57 6.99509 -1.09969 0
M  V30 14649 H 1358.98 5.645 0.000376348 0
M  V30 14650 N 1358.37 0.56548 1.47106 0
M  V30 14651 C 1359.32 -0.198133 2.27137 0
M  V30 14652 C 1360.31 -0.877743 1.3485 0
M  V30 14653 O 1361.5 -0.774683 1.59147 0
M  V30 14654 C 1358.63 -1.22223 3.20806 0
M  V30 14655 C 1357.71 -0.545616 4.20576 0
M  V30 14656 N 1358.11 0.389029 5.04302 0
M  V30 14657 C 1356.4 -0.798517 4.38793 0
M  V30 14658 C 1357.1 0.782852 5.76408 0
M  V30 14659 N 1356.08 0.13583 5.4343 0
M  V30 14660 H 1359.88 0.520354 2.89257 0
M  V30 14661 H 1357.4 0.386013 1.57746 0
M  V30 14662 H 1359.39 -1.78332 3.76833 0
M  V30 14663 H 1358.05 -1.94172 2.60244 0
M  V30 14664 H 1359.06 0.763644 5.12239 0
M  V30 14665 H 1355.74 -1.50589 3.89396 0
M  V30 14666 H 1357.13 1.55133 6.53746 0
M  V30 14667 N 1359.85 -1.54672 0.302354 0
M  V30 14668 C 1361.13 -1.92264 -0.359711 0
M  V30 14669 C 1361.51 -1.22973 -1.71583 0
M  V30 14670 O 1360.86 -0.365942 -2.25551 0
M  V30 14671 C 1361.07 -3.4578 -0.473019 0
M  V30 14672 C 1362.42 -4.18044 -0.743252 0
M  V30 14673 O 1363.44 -3.51822 -0.556778 0
M  V30 14674 O 1362.3 -5.35283 -1.10155 0
M  V30 14675 H 1359.39 -0.802112 -0.201359 0
M  V30 14676 H 1361.94 -1.66041 0.350513 0
M  V30 14677 H 1360.71 -3.88342 0.480265 0
M  V30 14678 H 1360.33 -3.78042 -1.23166 0
M  V30 14679 N 1361.33 -0.0301034 -1.57571 0
M  V30 14680 C 1362.58 0.648323 -1.91841 0
M  V30 14681 C 1362.91 1.72078 -0.906601 0
M  V30 14682 O 1362.16 1.95518 0.0843233 0
M  V30 14683 C 1362.46 1.30206 -3.32838 0
M  V30 14684 C 1362.13 0.359876 -4.49462 0
M  V30 14685 C 1360.79 0.100552 -4.81095 0
M  V30 14686 C 1363.14 -0.287048 -5.20409 0
M  V30 14687 C 1360.47 -0.813484 -5.81033 0
M  V30 14688 C 1362.82 -1.18914 -6.21323 0
M  V30 14689 C 1361.48 -1.45735 -6.51397 0
M  V30 14690 H 1360.75 0.237238 -0.701997 0
M  V30 14691 H 1363.4 -0.0920804 -1.91278 0
M  V30 14692 H 1361.71 2.11724 -3.29667 0
M  V30 14693 H 1363.4 1.83356 -3.56625 0
M  V30 14694 H 1359.99 0.572172 -4.24764 0
M  V30 14695 H 1364.18 -0.0997611 -4.962 0
M  V30 14696 H 1359.43 -1.02897 -6.02679 0
M  V30 14697 H 1363.61 -1.69661 -6.75417 0
M  V30 14698 H 1361.23 -2.16727 -7.28652 0
M  V30 14699 N 1362.81 1.55714 0.243056 0
M  V30 14700 C 1364.06 1.77726 0.970555 0
M  V30 14701 C 1364.38 0.595108 1.85172 0
M  V30 14702 O 1363.64 -0.42143 1.91108 0
M  V30 14703 C 1363.94 3.05281 1.85845 0
M  V30 14704 C 1363.6 4.36451 1.13232 0
M  V30 14705 C 1362.27 4.72095 0.931656 0
M  V30 14706 C 1364.62 5.17524 0.617944 0
M  V30 14707 C 1361.95 5.86344 0.204373 0
M  V30 14708 C 1364.3 6.32527 -0.0958899 0
M  V30 14709 C 1362.96 6.66789 -0.308 0
M  V30 14710 H 1362.23 0.650345 0.355151 0
M  V30 14711 H 1364.88 1.89986 0.240351 0
M  V30 14712 H 1363.18 2.8805 2.65584 0
M  V30 14713 H 1364.88 3.19511 2.4231 0
M  V30 14714 H 1361.47 4.08451 1.29867 0
M  V30 14715 H 1365.65 4.90439 0.760507 0
M  V30 14716 H 1360.91 6.11393 0.0296 0
M  V30 14717 H 1365.08 6.94588 -0.502077 0
M  V30 14718 H 1362.71 7.55165 -0.873502 0
M  V30 14719 N 1364.29 -0.50888 1.49158 0
M  V30 14720 C 1365.24 -1.60799 1.61641 0
M  V30 14721 C 1366.22 -1.53808 0.472434 0
M  V30 14722 O 1367.41 -1.61471 0.724985 0
M  V30 14723 C 1364.54 -2.99444 1.67894 0
M  V30 14724 C 1363.63 -3.1146 2.87843 0
M  V30 14725 N 1364.02 -2.93387 4.12016 0
M  V30 14726 C 1362.32 -3.42549 2.85616 0
M  V30 14727 C 1363.02 -3.09378 4.92606 0
M  V30 14728 N 1361.99 -3.37902 4.2582 0
M  V30 14729 H 1365.8 -1.45468 2.55375 0
M  V30 14730 H 1363.31 -0.714832 1.45822 0
M  V30 14731 H 1365.31 -3.78423 1.74934 0
M  V30 14732 H 1363.97 -3.1585 0.752919 0
M  V30 14733 H 1364.98 -2.69721 4.42121 0
M  V30 14734 H 1361.65 -3.65181 2.02359 0
M  V30 14735 H 1363.04 -2.99964 6.01225 0
M  V30 14736 N 1365.76 -1.381 -0.759346 0
M  V30 14737 C 1366.99 -1.37389 -1.55367 0
M  V30 14738 C 1367.41 0.0356097 -1.88066 0
M  V30 14739 O 1366.77 1.0161 -1.5015 0
M  V30 14740 C 1366.82 -2.23098 -2.83302 0
M  V30 14741 O 1365.92 -1.64412 -3.7821 0
M  V30 14742 H 1365.27 -0.468894 -0.470143 0
M  V30 14743 H 1367.8 -1.81787 -0.938858 0
M  V30 14744 H 1367.81 -2.36753 -3.32283 0
M  V30 14745 H 1366.48 -3.25544 -2.58831 0
M  V30 14746 H 1365.06 -1.59867 -3.36893 0
M  V30 14747 N 1367.24 0.986894 -1.22875 0
M  V30 14748 C 1368.49 1.72729 -1.05693 0
M  V30 14749 C 1368.82 1.90191 0.407121 0
M  V30 14750 O 1368.07 1.44667 1.31796 0
M  V30 14751 C 1368.37 3.13283 -1.72012 0
M  V30 14752 C 1368.04 3.15719 -3.2192 0
M  V30 14753 C 1366.7 3.1609 -3.62823 0
M  V30 14754 C 1369.05 3.11539 -4.17843 0
M  V30 14755 C 1366.38 3.09991 -4.98119 0
M  V30 14756 C 1368.73 3.06982 -5.53123 0
M  V30 14757 C 1367.4 3.05672 -5.93397 0
M  V30 14758 H 1366.67 0.63206 -0.386758 0
M  V30 14759 H 1369.31 1.15538 -1.52719 0
M  V30 14760 H 1367.62 3.7382 -1.17327 0
M  V30 14761 H 1369.31 3.69326 -1.56203 0
M  V30 14762 H 1365.9 3.16183 -2.89355 0
M  V30 14763 H 1370.09 3.10397 -3.87256 0
M  V30 14764 H 1365.34 3.07326 -5.28546 0
M  V30 14765 H 1369.52 3.02705 -6.27171 0
M  V30 14766 H 1367.15 3.00701 -6.982 0
M  V30 14767 N 1368.72 1.0394 1.18466 0
M  V30 14768 C 1369.65 0.650182 2.24265 0
M  V30 14769 C 1370.63 -0.345968 1.66545 0
M  V30 14770 O 1371.82 -0.226348 1.92876 0
M  V30 14771 C 1368.95 0.0110451 3.47298 0
M  V30 14772 C 1367.9 0.930599 4.17761 0
M  V30 14773 C 1367.23 0.156005 5.34472 0
M  V30 14774 C 1368.53 2.24913 4.71393 0
M  V30 14775 H 1370.22 1.53465 2.57078 0
M  V30 14776 H 1367.77 0.739343 1.23571 0
M  V30 14777 H 1369.72 -0.272959 4.20515 0
M  V30 14778 H 1368.44 -0.908288 3.13716 0
M  V30 14779 H 1367.1 1.19897 3.4644 0
M  V30 14780 H 1366.75 -0.765695 4.97138 0
M  V30 14781 H 1366.45 0.768606 5.82551 0
M  V30 14782 H 1367.97 -0.121011 6.1048 0
M  V30 14783 H 1369.39 2.02592 5.36311 0
M  V30 14784 H 1367.79 2.81459 5.30001 0
M  V30 14785 H 1368.86 2.8965 3.88884 0
M  V30 14786 N 1370.2 -1.34667 0.818693 0
M  V30 14787 C 1371.45 -1.9767 0.401184 0
M  V30 14788 C 1371.76 -1.65644 -1.04027 0
M  V30 14789 O 1372.97 -2.22104 -1.56148 0
M  V30 14790 C 1371.42 -3.53677 0.666398 0
M  V30 14791 C 1371.03 -3.94601 2.12119 0
M  V30 14792 C 1372.77 -4.23331 0.314845 0
M  V30 14793 C 1370.68 -5.43502 2.33151 0
M  V30 14794 H 1369.61 -0.739675 0.146275 0
M  V30 14795 H 1372.26 -1.53568 1.00445 0
M  V30 14796 H 1370.64 -3.95999 -0.00698307 0
M  V30 14797 H 1371.82 -3.63396 2.83338 0
M  V30 14798 H 1370.13 -3.37871 2.43377 0
M  V30 14799 H 1372.73 -5.32804 0.449881 0
M  V30 14800 H 1373.07 -4.09666 -0.740235 0
M  V30 14801 H 1373.61 -3.8647 0.942631 0
M  V30 14802 H 1370.35 -5.62148 3.37149 0
M  V30 14803 H 1369.87 -5.76236 1.66471 0
M  V30 14804 H 1371.54 -6.10127 2.153 0
M  V30 14805 N 1371.68 -0.573274 -1.46804 0
M  V30 14806 C 1372.92 -0.0553432 -2.02724 0
M  V30 14807 C 1373.26 1.29753 -1.44492 0
M  V30 14808 O 1372.53 1.84804 -0.606455 0
M  V30 14809 C 1372.81 0.0205511 -3.60094 0
M  V30 14810 C 1372.67 -1.36055 -4.2873 0
M  V30 14811 C 1373.99 0.725944 -4.34071 0
M  V30 14812 H 1371.1 -0.0215858 -0.736684 0
M  V30 14813 H 1373.75 -0.738657 -1.75054 0
M  V30 14814 H 1371.9 0.602481 -3.838 0
M  V30 14815 H 1373.57 -1.98692 -4.16316 0
M  V30 14816 H 1371.81 -1.93087 -3.88458 0
M  V30 14817 H 1372.48 -1.26001 -5.37427 0
M  V30 14818 H 1374.96 0.231677 -4.15455 0
M  V30 14819 H 1373.83 0.74805 -5.43779 0
M  V30 14820 H 1374.1 1.78536 -4.04447 0
M  V30 14821 N 1373.15 1.5451 -0.310553 0
M  V30 14822 C 1374.4 2.00326 0.295904 0
M  V30 14823 C 1374.73 1.19887 1.53158 0
M  V30 14824 O 1373.98 0.265615 1.93889 0
M  V30 14825 C 1374.28 3.5072 0.68779 0
M  V30 14826 C 1373.95 4.48677 -0.447229 0
M  V30 14827 C 1372.61 4.7518 -0.758796 0
M  V30 14828 C 1374.96 5.06953 -1.21028 0
M  V30 14829 C 1372.29 5.5722 -1.83637 0
M  V30 14830 C 1374.64 5.90167 -2.27784 0
M  V30 14831 C 1373.31 6.14977 -2.59537 0
M  V30 14832 H 1372.58 0.733046 0.108279 0
M  V30 14833 H 1375.22 1.86572 -0.431633 0
M  V30 14834 H 1373.53 3.62133 1.49556 0
M  V30 14835 H 1375.23 3.83602 1.16836 0
M  V30 14836 H 1371.82 4.28159 -0.1943 0
M  V30 14837 H 1376 4.86471 -0.98283 0
M  V30 14838 H 1371.26 5.74678 -2.08699 0
M  V30 14839 H 1375.43 6.34347 -2.87362 0
M  V30 14840 H 1373.06 6.78338 -3.43165 0
M  V30 14841 N 1374.63 0.0384594 1.57553 0
M  V30 14842 C 1376.05 -0.318006 1.564 0
M  V30 14843 C 1376.25 -1.72287 1.04496 0
M  V30 14844 O 1375.31 -2.42722 0.695861 0
M  V30 14845 C 1376.62 -0.158079 3.00284 0
M  V30 14846 C 1378.17 -0.230143 3.12153 0
M  V30 14847 C 1378.64 -0.0988948 4.57893 0
M  V30 14848 N 1380.13 -0.15558 4.62939 0
M  V30 14849 C 1380.87 -0.077948 5.73347 0
M  V30 14850 N 1380.36 0.0513054 6.92781 0
M  V30 14851 N 1382.16 -0.132612 5.61944 0
M  V30 14852 H 1374.31 0.957014 1.89618 0
M  V30 14853 H 1376.57 0.370396 0.872646 0
M  V30 14854 H 1376.28 0.810032 3.42245 0
M  V30 14855 H 1376.15 -0.924413 3.65697 0
M  V30 14856 H 1378.54 -1.18872 2.70099 0
M  V30 14857 H 1378.62 0.56673 2.49443 0
M  V30 14858 H 1378.26 0.856301 5.00629 0
M  V30 14859 H 1378.19 -0.91475 5.18594 0
M  V30 14860 H 1380.68 -0.255245 3.77037 0
M  V30 14861 H 1381 0.103595 7.72731 0
M  V30 14862 H 1379.34 0.0862166 6.94947 0
M  V30 14863 H 1382.53 -0.232056 4.67524 0
M  V30 14864 H 1382.71 -0.0686506 6.47964 0
M  V30 14865 N 1376.11 -1.55841 -0.234795 0
M  V30 14866 C 1377.36 -1.78502 -0.96254 0
M  V30 14867 C 1377.69 -0.605832 -1.84508 0
M  V30 14868 O 1376.97 0.395446 -1.90438 0
M  V30 14869 C 1377.25 -3.11144 -1.81277 0
M  V30 14870 C 1377.1 -4.39488 -0.957607 0
M  V30 14871 C 1378.42 -3.40114 -2.79304 0
M  V30 14872 H 1375.54 -0.649397 -0.348501 0
M  V30 14873 H 1378.18 -1.88575 -0.23224 0
M  V30 14874 H 1376.33 -3.02687 -2.43542 0
M  V30 14875 H 1378 -4.59949 -0.352726 0
M  V30 14876 H 1376.25 -4.33005 -0.262454 0
M  V30 14877 H 1376.92 -5.28707 -1.58659 0
M  V30 14878 H 1379.39 -3.48612 -2.27175 0
M  V30 14879 H 1378.27 -4.34118 -3.35906 0
M  V30 14880 H 1378.53 -2.61623 -3.56378 0
M  V30 14881 N 1377.59 0.500963 -1.49426 0
M  V30 14882 C 1378.52 1.61114 -1.69011 0
M  V30 14883 C 1379.5 1.61341 -0.538813 0
M  V30 14884 O 1380.69 1.78081 -0.77466 0
M  V30 14885 C 1377.82 2.99598 -1.75666 0
M  V30 14886 C 1376.77 3.14236 -2.90585 0
M  V30 14887 C 1376.1 4.54071 -2.82354 0
M  V30 14888 C 1377.4 2.94258 -4.3152 0
M  V30 14889 H 1379.09 1.44978 -2.61957 0
M  V30 14890 H 1376.64 0.69603 -1.26061 0
M  V30 14891 H 1378.59 3.77163 -1.87953 0
M  V30 14892 H 1377.31 3.16822 -0.793186 0
M  V30 14893 H 1375.97 2.39096 -2.779 0
M  V30 14894 H 1375.62 4.68172 -1.83914 0
M  V30 14895 H 1375.32 4.64806 -3.59485 0
M  V30 14896 H 1376.84 5.33696 -2.96649 0
M  V30 14897 H 1378.26 3.61592 -4.44886 0
M  V30 14898 H 1376.65 3.16464 -5.09873 0
M  V30 14899 H 1377.72 1.90383 -4.45962 0
M  V30 14900 N 1379.07 1.38501 0.752011 0
M  V30 14901 C 1380.31 1.36212 1.52399 0
M  V30 14902 C 1380.67 -0.0472831 1.91942 0
M  V30 14903 O 1381.87 -0.195055 2.68091 0
M  V30 14904 C 1380.14 2.2925 2.74188 0
M  V30 14905 S 1381.7 2.44995 3.64037 0
M  V30 14906 H 1378.52 0.483276 0.521503 0
M  V30 14907 H 1381.12 1.74441 0.882647 0
M  V30 14908 H 1379.83 3.30541 2.4325 0
M  V30 14909 H 1379.36 1.92176 3.43266 0
M  V30 14910 H 1381.37 1.67519 4.67067 0
M  V30 14911 N 1380.55 -0.980364 1.23396 0
M  V30 14912 C 1381.79 -1.71826 1.06397 0
M  V30 14913 C 1382.11 -1.90854 -0.399958 0
M  V30 14914 O 1381.38 -1.47721 -1.28668 0
M  V30 14915 H 1379.96 -0.636669 0.390719 0
M  V30 14916 H 1382.63 -1.18008 1.55113 0
M  V30 14917 H 1381.72 -2.7078 1.55192 0
M  V30 14918 N 1382.02 -1.04567 -1.17913 0
M  V30 14919 C 1382.93 -0.651674 -2.25367 0
M  V30 14920 C 1383.95 0.32437 -1.7095 0
M  V30 14921 O 1385.13 0.178039 -2.00612 0
M  V30 14922 C 1382.19 -0.0259452 -3.4669 0
M  V30 14923 C 1381.25 -1.05163 -4.1622 0
M  V30 14924 C 1380.48 -0.45567 -5.31751 0
M  V30 14925 O 1380.71 0.736698 -5.65623 0
M  V30 14926 O 1379.64 -1.18684 -5.90083 0
M  V30 14927 H 1383.47 -1.54704 -2.61344 0
M  V30 14928 H 1381.05 -0.816852 -1.25092 0
M  V30 14929 H 1382.93 0.322126 -4.20167 0
M  V30 14930 H 1381.61 0.843165 -3.12526 0
M  V30 14931 H 1380.52 -1.45159 -3.44789 0
M  V30 14932 H 1381.85 -1.89168 -4.54397 0
M  V30 14933 N 1383.5 1.34231 -0.825823 0
M  V30 14934 C 1384.75 1.98909 -0.425081 0
M  V30 14935 C 1385.1 1.64281 1.00148 0
M  V30 14936 O 1384.4 0.905666 1.68844 0
M  V30 14937 C 1384.59 3.52861 -0.56778 0
M  V30 14938 C 1384.42 4.02446 -2.00666 0
M  V30 14939 C 1383.19 4.30902 -2.63916 0
M  V30 14940 C 1385.39 4.19609 -2.97376 0
M  V30 14941 N 1383.37 4.66541 -3.99014 0
M  V30 14942 C 1384.74 4.5846 -4.1739 0
M  V30 14943 C 1386.79 4.01865 -2.93954 0
M  V30 14944 C 1385.5 4.81422 -5.34439 0
M  V30 14945 C 1387.52 4.25994 -4.10223 0
M  V30 14946 C 1386.89 4.65136 -5.28988 0
M  V30 14947 H 1382.98 0.755001 -0.203711 0
M  V30 14948 H 1385.57 1.62588 -1.07114 0
M  V30 14949 H 1383.74 3.8837 0.0483939 0
M  V30 14950 H 1385.47 4.04459 -0.139755 0
M  V30 14951 H 1382.23 4.21916 -2.15137 0
M  V30 14952 H 1382.65 4.88592 -4.68623 0
M  V30 14953 H 1387.29 3.70729 -2.03272 0
M  V30 14954 H 1385.01 5.11424 -6.25677 0
M  V30 14955 H 1388.6 4.13798 -4.08978 0
M  V30 14956 H 1387.48 4.83439 -6.1746 0
M  V30 14957 N 1384.98 0.581051 1.46498 0
M  V30 14958 C 1386.23 0.0637189 2.01599 0
M  V30 14959 C 1386.54 -1.30353 1.45834 0
M  V30 14960 O 1387.75 -1.91211 1.92745 0
M  V30 14961 C 1386.2 0.0633254 3.59844 0
M  V30 14962 C 1385.81 1.42879 4.24605 0
M  V30 14963 C 1387.56 -0.400149 4.2261 0
M  V30 14964 C 1385.46 1.38621 5.74924 0
M  V30 14965 H 1384.39 0.0200512 0.753733 0
M  V30 14966 H 1387.04 0.732451 1.68248 0
M  V30 14967 H 1385.43 -0.671538 3.90264 0
M  V30 14968 H 1386.6 2.18325 4.05796 0
M  V30 14969 H 1384.91 1.83215 3.73927 0
M  V30 14970 H 1387.51 -0.450771 5.32797 0
M  V30 14971 H 1387.85 -1.41733 3.9143 0
M  V30 14972 H 1388.39 0.280598 3.96809 0
M  V30 14973 H 1385.13 2.38014 6.10761 0
M  V30 14974 H 1384.65 0.673926 5.96002 0
M  V30 14975 H 1386.33 1.09841 6.37608 0
M  V30 14976 N 1386.46 -1.54343 0.318742 0
M  V30 14977 C 1387.37 -2.27856 -0.558442 0
M  V30 14978 C 1388.38 -1.32029 -1.13333 0
M  V30 14979 O 1389.56 -1.65037 -1.15433 0
M  V30 14980 C 1386.62 -3.01842 -1.70565 0
M  V30 14981 C 1385.69 -4.13245 -1.16305 0
M  V30 14982 C 1384.92 -4.83693 -2.25559 0
M  V30 14983 O 1385.14 -4.53621 -3.4581 0
M  V30 14984 O 1384.08 -5.70708 -1.91249 0
M  V30 14985 H 1387.9 -3.03676 0.0384247 0
M  V30 14986 H 1385.49 -1.4916 0.0845936 0
M  V30 14987 H 1387.37 -3.48189 -2.37365 0
M  V30 14988 H 1386.04 -2.28902 -2.28879 0
M  V30 14989 H 1384.95 -3.71258 -0.460274 0
M  V30 14990 H 1386.28 -4.88214 -0.625111 0
M  V30 14991 N 1387.94 -0.0468143 -1.5753 0
M  V30 14992 C 1389.16 0.637648 -1.96829 0
M  V30 14993 C 1389.58 1.64635 -0.924158 0
M  V30 14994 O 1388.94 1.82267 0.0921139 0
M  V30 14995 C 1388.99 1.32842 -3.36207 0
M  V30 14996 O 1388.71 0.360111 -4.36617 0
M  V30 14997 C 1390.21 2.10305 -3.90239 0
M  V30 14998 H 1387.43 0.174634 -0.647876 0
M  V30 14999 H 1389.97 -0.111824 -2.04194 0
M  V30 15000 H 1388.13 2.02915 -3.30006 0
M  V30 15001 H 1388.54 0.852661 -5.17523 0
M  V30 15002 H 1390.02 2.54065 -4.90056 0
M  V30 15003 H 1390.49 2.94942 -3.25432 0
M  V30 15004 H 1391.1 1.45152 -3.99764 0
M  V30 15005 N 1389.41 1.55964 0.226527 0
M  V30 15006 C 1390.35 1.87013 1.30772 0
M  V30 15007 C 1391.33 0.727044 1.4544 0
M  V30 15008 O 1392.51 0.974898 1.61332 0
M  V30 15009 C 1389.64 2.07278 2.67869 0
M  V30 15010 C 1388.68 3.29956 2.70243 0
M  V30 15011 S 1389.52 4.86026 2.24808 0
M  V30 15012 C 1390.67 5.09321 3.6379 0
M  V30 15013 H 1390.9 2.78427 1.0424 0
M  V30 15014 H 1388.44 1.48334 0.428525 0
M  V30 15015 H 1390.4 2.19636 3.468 0
M  V30 15016 H 1389.06 1.1667 2.91628 0
M  V30 15017 H 1388.25 3.41164 3.70975 0
M  V30 15018 H 1387.85 3.16429 1.99371 0
M  V30 15019 H 1390.14 4.97914 4.59443 0
M  V30 15020 H 1391.09 6.11227 3.57501 0
M  V30 15021 H 1391.49 4.37076 3.57247 0
M  V30 15022 N 1390.89 -0.493031 1.4969 0
M  V30 15023 C 1392.14 -1.24576 1.60787 0
M  V30 15024 C 1392.49 -1.90134 0.2944 0
M  V30 15025 O 1391.79 -1.78118 -0.706023 0
M  V30 15026 C 1391.98 -2.33014 2.70997 0
M  V30 15027 C 1391.81 -1.7809 4.12933 0
M  V30 15028 C 1390.58 -1.59036 4.7962 0
M  V30 15029 C 1392.78 -1.28823 4.97905 0
M  V30 15030 N 1390.76 -0.991255 6.05844 0
M  V30 15031 C 1392.13 -0.810976 6.14673 0
M  V30 15032 C 1394.19 -1.17471 4.83844 0
M  V30 15033 C 1392.89 -0.23142 7.18928 0
M  V30 15034 C 1394.91 -0.609116 5.88255 0
M  V30 15035 C 1394.28 -0.142128 7.04257 0
M  V30 15036 H 1390.38 -0.44553 0.642672 0
M  V30 15037 H 1392.96 -0.551483 1.86726 0
M  V30 15038 H 1391.13 -2.99893 2.46817 0
M  V30 15039 H 1392.86 -3.00051 2.71572 0
M  V30 15040 H 1389.62 -1.83634 4.3655 0
M  V30 15041 H 1390.04 -0.710746 6.73259 0
M  V30 15042 H 1394.68 -1.52173 3.94466 0
M  V30 15043 H 1392.4 0.127848 8.07999 0
M  V30 15044 H 1395.99 -0.523948 5.79436 0
M  V30 15045 H 1394.87 0.288689 7.83668 0
M  V30 15046 N 1392.37 -1.38898 -0.744656 0
M  V30 15047 C 1393.65 -1.2611 -1.49518 0
M  V30 15048 C 1394.03 0.133592 -2.10677 0
M  V30 15049 O 1393.38 1.14394 -1.97804 0
M  V30 15050 C 1393.59 -2.37809 -2.55437 0
M  V30 15051 C 1394.93 -2.76664 -3.22091 0
M  V30 15052 O 1395.96 -2.37187 -2.65746 0
M  V30 15053 O 1394.82 -3.44771 -4.24023 0
M  V30 15054 H 1391.91 -0.493664 -0.663494 0
M  V30 15055 H 1394.46 -1.50748 -0.779304 0
M  V30 15056 H 1393.23 -3.31089 -2.08556 0
M  V30 15057 H 1392.85 -2.14783 -3.34595 0
M  V30 15058 N 1393.85 0.973806 -1.23914 0
M  V30 15059 C 1395.09 1.731 -1.08701 0
M  V30 15060 C 1395.45 1.88425 0.368772 0
M  V30 15061 O 1396.65 2.61014 0.642259 0
M  V30 15062 C 1394.92 3.08777 -1.79977 0
M  V30 15063 S 1396.48 3.99993 -1.80419 0
M  V30 15064 H 1393.3 0.595219 -0.38889 0
M  V30 15065 H 1395.9 1.16291 -1.57152 0
M  V30 15066 H 1394.61 2.95278 -2.85024 0
M  V30 15067 H 1394.14 3.70652 -1.31835 0
M  V30 15068 H 1396.15 4.88558 -0.867494 0
M  V30 15069 N 1395.33 1.05191 1.17357 0
M  V30 15070 C 1396.26 0.597207 2.20247 0
M  V30 15071 C 1397.24 -0.374194 1.58236 0
M  V30 15072 O 1398.42 -0.285815 1.86321 0
M  V30 15073 C 1395.55 -0.126012 3.38466 0
M  V30 15074 C 1394.59 0.800401 4.18922 0
M  V30 15075 S 1395.43 2.28956 4.84086 0
M  V30 15076 C 1396.58 1.57751 6.05694 0
M  V30 15077 H 1396.82 1.46893 2.58476 0
M  V30 15078 H 1394.35 0.863874 1.27971 0
M  V30 15079 H 1396.31 -0.537086 4.06971 0
M  V30 15080 H 1394.97 -0.97377 2.98624 0
M  V30 15081 H 1394.16 0.240754 5.03425 0
M  V30 15082 H 1393.76 1.15084 3.55853 0
M  V30 15083 H 1396.06 0.876839 6.71802 0
M  V30 15084 H 1397 2.40001 6.66187 0
M  V30 15085 H 1397.41 1.06493 5.54364 0
M  V30 15086 N 1396.8 -1.33791 0.83293 0
M  V30 15087 C 1397.71 -2.33108 0.264169 0
M  V30 15088 C 1398.73 -1.6308 -0.606694 0
M  V30 15089 O 1399.91 -1.94777 -0.512225 0
M  V30 15090 C 1396.97 -3.42208 -0.556315 0
M  V30 15091 C 1396.03 -4.27966 0.338123 0
M  V30 15092 C 1395.27 -5.31856 -0.443297 0
M  V30 15093 O 1395.49 -5.45234 -1.6756 0
M  V30 15094 O 1394.42 -6.01632 0.179599 0
M  V30 15095 H 1398.25 -2.83602 1.08645 0
M  V30 15096 H 1395.83 -1.37027 0.595307 0
M  V30 15097 H 1397.72 -4.088 -1.02277 0
M  V30 15098 H 1396.39 -2.9394 -1.35575 0
M  V30 15099 H 1395.3 -3.64262 0.852293 0
M  V30 15100 H 1396.63 -4.79701 1.10217 0
M  V30 15101 N 1398.28 -0.588812 -1.46187 0
M  V30 15102 C 1399.53 -0.0768417 -2.02654 0
M  V30 15103 C 1399.86 1.28213 -1.4586 0
M  V30 15104 O 1399.14 1.8415 -0.626022 0
M  V30 15105 C 1399.42 -0.0176429 -3.60096 0
M  V30 15106 C 1399.27 -1.40595 -4.27262 0
M  V30 15107 C 1400.59 0.679864 -4.34817 0
M  V30 15108 H 1397.71 -0.0293981 -0.736413 0
M  V30 15109 H 1400.35 -0.757183 -1.74261 0
M  V30 15110 H 1398.5 0.56174 -3.84417 0
M  V30 15111 H 1400.17 -2.03097 -4.14185 0
M  V30 15112 H 1398.42 -1.97196 -3.86388 0
M  V30 15113 H 1399.09 -1.31694 -5.3606 0
M  V30 15114 H 1401.56 0.1876 -4.15677 0
M  V30 15115 H 1400.44 0.690333 -5.44542 0
M  V30 15116 H 1400.7 1.74237 -4.06318 0
M  V30 15117 N 1399.76 1.54172 -0.326923 0
M  V30 15118 C 1400.72 2.2311 0.524855 0
M  V30 15119 C 1401.72 1.22567 1.04087 0
M  V30 15120 O 1402.91 1.47123 0.932759 0
M  V30 15121 C 1400.05 2.93778 1.72937 0
M  V30 15122 H 1401.24 2.99799 -0.0778327 0
M  V30 15123 H 1398.79 1.56105 -0.0780484 0
M  V30 15124 H 1399.53 2.21234 2.3712 0
M  V30 15125 H 1399.31 3.67509 1.36674 0
M  V30 15126 H 1400.8 3.46292 2.33392 0
M  V30 15127 N 1401.24 0.0551678 1.57503 0
M  V30 15128 C 1402.49 -0.6165 1.92467 0
M  V30 15129 C 1402.81 -1.71147 0.934552 0
M  V30 15130 O 1402.08 -1.9589 -0.0199649 0
M  V30 15131 H 1400.66 -0.230714 0.710479 0
M  V30 15132 H 1403.32 0.109111 1.94594 0
M  V30 15133 H 1402.42 -1.05254 2.93816 0
M  V30 15134 N 1402.72 -1.56081 -0.218252 0
M  V30 15135 C 1403.65 -1.89176 -1.29403 0
M  V30 15136 C 1404.66 -0.780312 -1.42881 0
M  V30 15137 O 1405.85 -1.05863 -1.4372 0
M  V30 15138 C 1402.95 -2.08818 -2.66923 0
M  V30 15139 C 1402.12 -3.39854 -2.75351 0
M  V30 15140 C 1401.18 -3.48889 -3.93908 0
M  V30 15141 O 1400.21 -4.21894 -3.82091 0
M  V30 15142 N 1401.41 -2.80273 -5.08357 0
M  V30 15143 H 1404.18 -2.82047 -1.01338 0
M  V30 15144 H 1401.74 -1.56667 -0.408278 0
M  V30 15145 H 1403.73 -2.12175 -3.44622 0
M  V30 15146 H 1402.3 -1.22557 -2.87574 0
M  V30 15147 H 1401.52 -3.48568 -1.84104 0
M  V30 15148 H 1402.81 -4.26168 -2.77954 0
M  V30 15149 H 1402.2 -2.20744 -5.20854 0
M  V30 15150 H 1400.76 -2.89286 -5.84086 0
M  V30 15151 N 1404.2 0.485086 -1.49949 0
M  V30 15152 C 1405.16 1.56713 -1.67253 0
M  V30 15153 C 1406.16 1.51329 -0.543701 0
M  V30 15154 O 1407.35 1.54198 -0.810472 0
M  V30 15155 C 1404.48 2.9636 -1.68475 0
M  V30 15156 H 1405.67 1.42693 -2.63778 0
M  V30 15157 H 1403.23 0.710473 -1.39219 0
M  V30 15158 H 1403.96 3.1584 -0.735924 0
M  V30 15159 H 1403.75 3.01675 -2.50469 0
M  V30 15160 H 1405.24 3.74945 -1.83865 0
M  V30 15161 N 1405.67 1.39291 0.737279 0
M  V30 15162 C 1406.61 1.32216 1.85995 0
M  V30 15163 C 1407.58 0.19623 1.61412 0
M  V30 15164 O 1408.77 0.376297 1.84706 0
M  V30 15165 C 1405.9 1.0525 3.21932 0
M  V30 15166 C 1404.94 2.20002 3.65378 0
M  V30 15167 S 1405.77 3.82265 3.75011 0
M  V30 15168 C 1406.93 3.57519 5.13742 0
M  V30 15169 H 1407.16 2.27231 1.91712 0
M  V30 15170 H 1404.7 1.25319 0.901911 0
M  V30 15171 H 1406.65 0.903753 4.00428 0
M  V30 15172 H 1405.32 0.119258 3.13874 0
M  V30 15173 H 1404.51 1.9672 4.64023 0
M  V30 15174 H 1404.11 2.31068 2.94081 0
M  V30 15175 H 1406.4 3.14643 6.00005 0
M  V30 15176 H 1407.35 4.55616 5.42051 0
M  V30 15177 H 1407.75 2.9167 4.8331 0
M  V30 15178 N 1407.15 -0.967221 1.24429 0
M  V30 15179 C 1408.39 -1.72521 1.09617 0
M  V30 15180 C 1408.76 -1.88618 -0.358774 0
M  V30 15181 O 1409.96 -2.61351 -0.628408 0
M  V30 15182 C 1408.23 -3.07818 1.81612 0
M  V30 15183 S 1409.79 -3.99031 1.82537 0
M  V30 15184 H 1406.6 -0.593148 0.392041 0
M  V30 15185 H 1409.21 -1.15456 1.57766 0
M  V30 15186 H 1407.91 -2.93762 2.86586 0
M  V30 15187 H 1407.44 -3.69948 1.33799 0
M  V30 15188 H 1409.46 -4.88091 0.893391 0
M  V30 15189 N 1408.63 -1.05812 -1.16797 0
M  V30 15190 C 1409.56 -0.685778 -2.23202 0
M  V30 15191 C 1410.54 0.319428 -1.67074 0
M  V30 15192 O 1411.73 0.195635 -1.93212 0
M  V30 15193 C 1408.86 -0.0662958 -3.47237 0
M  V30 15194 C 1407.81 -0.996943 -4.16227 0
M  V30 15195 C 1407.14 -0.241015 -5.34157 0
M  V30 15196 C 1408.44 -2.32384 -4.67755 0
M  V30 15197 H 1410.13 -1.57535 -2.54604 0
M  V30 15198 H 1407.68 -0.758909 -1.22379 0
M  V30 15199 H 1409.63 0.206024 -4.20896 0
M  V30 15200 H 1408.35 0.858263 -3.15121 0
M  V30 15201 H 1407.01 -1.25393 -3.44488 0
M  V30 15202 H 1406.66 0.686508 -4.98293 0
M  V30 15203 H 1406.36 -0.861188 -5.81255 0
M  V30 15204 H 1407.88 0.0238739 -6.10595 0
M  V30 15205 H 1409.3 -2.11099 -5.3302 0
M  V30 15206 H 1407.69 -2.89855 -5.25456 0
M  V30 15207 H 1408.76 -2.958 -3.84227 0
M  V30 15208 N 1410.11 1.33347 -0.840014 0
M  V30 15209 C 1411.36 1.97007 -0.432581 0
M  V30 15210 C 1411.67 1.67278 1.01378 0
M  V30 15211 O 1412.88 2.2456 1.52595 0
M  V30 15212 C 1411.33 3.52572 -0.72258 0
M  V30 15213 C 1410.94 3.91176 -2.1837 0
M  V30 15214 C 1412.68 4.22776 -0.382153 0
M  V30 15215 C 1410.59 5.39724 -2.41768 0
M  V30 15216 H 1409.52 0.737255 -0.158024 0
M  V30 15217 H 1412.17 1.5195 -1.02876 0
M  V30 15218 H 1410.55 3.9596 -0.0560179 0
M  V30 15219 H 1411.73 3.58842 -2.89083 0
M  V30 15220 H 1410.04 3.33956 -2.48721 0
M  V30 15221 H 1412.64 5.32021 -0.534588 0
M  V30 15222 H 1412.98 4.10792 0.674967 0
M  V30 15223 H 1413.52 3.84922 -1.004 0
M  V30 15224 H 1410.25 5.56713 -3.4605 0
M  V30 15225 H 1409.77 5.73514 -1.75617 0
M  V30 15226 H 1411.45 6.06624 -2.2498 0
M  V30 15227 N 1411.59 0.596556 1.45873 0
M  V30 15228 C 1412.83 0.0875879 2.02611 0
M  V30 15229 C 1413.16 -1.27438 1.46538 0
M  V30 15230 O 1412.44 -1.83815 0.635779 0
M  V30 15231 C 1412.72 0.0367394 3.60081 0
M  V30 15232 C 1412.58 1.42859 4.26511 0
M  V30 15233 C 1413.89 -0.656795 4.35171 0
M  V30 15234 H 1411.01 0.0333031 0.736247 0
M  V30 15235 H 1413.66 0.766413 1.73857 0
M  V30 15236 H 1411.81 -0.541345 3.8471 0
M  V30 15237 H 1413.48 2.0529 4.13102 0
M  V30 15238 H 1411.72 1.99243 3.85337 0
M  V30 15239 H 1412.39 1.34535 5.35354 0
M  V30 15240 H 1414.87 -0.165553 4.15771 0
M  V30 15241 H 1413.74 -0.661445 5.449 0
M  V30 15242 H 1414 -1.72079 4.07236 0
M  V30 15243 N 1413.06 -1.53996 0.335095 0
M  V30 15244 C 1414.31 -2.00772 -0.263997 0
M  V30 15245 C 1414.64 -1.22309 -1.51231 0
M  V30 15246 O 1413.89 -0.296427 -1.93442 0
M  V30 15247 C 1414.19 -3.51769 -0.631907 0
M  V30 15248 C 1413.86 -4.47908 0.518553 0
M  V30 15249 C 1412.52 -4.73912 0.834297 0
M  V30 15250 C 1414.87 -5.04964 1.29078 0
M  V30 15251 C 1412.2 -5.54228 1.92478 0
M  V30 15252 C 1414.55 -5.86469 2.37144 0
M  V30 15253 C 1413.22 -6.1077 2.69288 0
M  V30 15254 H 1412.49 -0.734676 -0.0966033 0
M  V30 15255 H 1415.13 -1.85862 0.46126 0
M  V30 15256 H 1413.44 -3.64466 -1.43776 0
M  V30 15257 H 1415.14 -3.85412 -1.10719 0
M  V30 15258 H 1411.73 -4.27796 0.262392 0
M  V30 15259 H 1415.91 -4.84846 1.0601 0
M  V30 15260 H 1411.17 -5.71285 2.17816 0
M  V30 15261 H 1415.34 -6.29695 2.97417 0
M  V30 15262 H 1412.97 -6.72792 3.53913 0
M  V30 15263 N 1414.54 -0.0635198 -1.57472 0
M  V30 15264 C 1415.47 0.942339 -2.07835 0
M  V30 15265 C 1416.45 1.29629 -0.981587 0
M  V30 15266 O 1417.64 1.40702 -1.25439 0
M  V30 15267 C 1414.76 2.25284 -2.52913 0
M  V30 15268 C 1413.81 2.05105 -3.73944 0
M  V30 15269 S 1414.64 1.31802 -5.19026 0
M  V30 15270 C 1415.8 2.64149 -5.67429 0
M  V30 15271 H 1416.03 0.513772 -2.92827 0
M  V30 15272 H 1413.56 0.149049 -1.53679 0
M  V30 15273 H 1415.52 3.00607 -2.79546 0
M  V30 15274 H 1414.18 2.65266 -1.68204 0
M  V30 15275 H 1413.38 3.02071 -4.03447 0
M  V30 15276 H 1412.98 1.3792 -3.47641 0
M  V30 15277 H 1415.27 3.60272 -5.73769 0
M  V30 15278 H 1416.21 2.39267 -6.66451 0
M  V30 15279 H 1416.62 2.70975 -4.9521 0
M  V30 15280 N 1416.02 1.56195 0.209972 0
M  V30 15281 C 1416.95 1.88389 1.28781 0
M  V30 15282 C 1417.93 0.742429 1.44661 0
M  V30 15283 O 1419.11 0.991955 1.60289 0
M  V30 15284 C 1416.24 2.10107 2.65655 0
M  V30 15285 C 1415.29 3.32804 2.66728 0
M  V30 15286 S 1416.12 4.88384 2.1964 0
M  V30 15287 C 1417.28 5.13151 3.58367 0
M  V30 15288 H 1417.51 2.79517 1.01281 0
M  V30 15289 H 1415.04 1.4878 0.412768 0
M  V30 15290 H 1417 2.23302 3.44451 0
M  V30 15291 H 1415.66 1.19756 2.90374 0
M  V30 15292 H 1414.85 3.4508 3.67336 0
M  V30 15293 H 1414.46 3.18525 1.96004 0
M  V30 15294 H 1416.75 5.02759 4.54136 0
M  V30 15295 H 1417.69 6.14985 3.50998 0
M  V30 15296 H 1418.1 4.4084 3.52591 0
M  V30 15297 N 1417.5 -0.477127 1.50204 0
M  V30 15298 C 1418.74 -1.23147 1.6113 0
M  V30 15299 C 1419.08 -1.91743 0.307909 0
M  V30 15300 O 1418.35 -1.81841 -0.690223 0
M  V30 15301 C 1418.63 -2.27985 2.78738 0
M  V30 15302 C 1418.49 -1.63733 4.18941 0
M  V30 15303 C 1419.81 -3.29349 2.9192 0
M  V30 15304 H 1416.93 -0.446358 0.586459 0
M  V30 15305 H 1419.57 -0.52612 1.8257 0
M  V30 15306 H 1417.72 -2.88143 2.60588 0
M  V30 15307 H 1419.39 -1.07218 4.48667 0
M  V30 15308 H 1417.63 -0.940634 4.23479 0
M  V30 15309 H 1418.3 -2.39888 4.9715 0
M  V30 15310 H 1420.78 -2.79208 3.08516 0
M  V30 15311 H 1419.66 -4.0004 3.75845 0
M  V30 15312 H 1419.92 -3.93111 2.02278 0
M  V30 15313 N 1418.98 -1.3968 -0.729882 0
M  V30 15314 C 1419.91 -1.33201 -1.85291 0
M  V30 15315 C 1420.89 -0.204787 -1.61305 0
M  V30 15316 O 1422.07 -0.386087 -1.84504 0
M  V30 15317 C 1419.2 -1.06955 -3.21369 0
M  V30 15318 C 1418.24 -2.21937 -3.64207 0
M  V30 15319 S 1419.08 -3.84249 -3.72979 0
M  V30 15320 C 1420.23 -3.60239 -5.11839 0
M  V30 15321 H 1420.47 -2.28244 -1.90504 0
M  V30 15322 H 1418 -1.25796 -0.895252 0
M  V30 15323 H 1419.96 -0.924975 -3.99943 0
M  V30 15324 H 1418.62 -0.135902 -3.13806 0
M  V30 15325 H 1417.81 -1.99179 -4.62973 0
M  V30 15326 H 1417.41 -2.32624 -2.92852 0
M  V30 15327 H 1419.71 -3.17821 -5.98328 0
M  V30 15328 H 1420.65 -4.58485 -5.39627 0
M  V30 15329 H 1421.06 -2.94229 -4.81757 0
M  V30 15330 N 1420.45 0.960609 -1.2494 0
M  V30 15331 C 1421.7 1.70701 -1.09495 0
M  V30 15332 C 1422.03 1.90754 0.364214 0
M  V30 15333 O 1421.31 1.47417 1.26879 0
M  V30 15334 C 1421.59 3.09353 -1.84317 0
M  V30 15335 C 1421.44 2.96747 -3.38026 0
M  V30 15336 C 1422.76 4.09139 -1.62153 0
M  V30 15337 H 1419.88 0.61955 -0.399158 0
M  V30 15338 H 1422.52 1.11701 -1.53698 0
M  V30 15339 H 1420.67 3.59719 -1.46746 0
M  V30 15340 H 1422.35 2.53752 -3.85237 0
M  V30 15341 H 1420.59 2.32798 -3.66043 0
M  V30 15342 H 1421.26 3.95002 -3.85587 0
M  V30 15343 H 1423.74 3.67659 -1.94849 0
M  V30 15344 H 1422.61 5.04206 -2.16951 0
M  V30 15345 H 1422.87 4.38521 -0.561437 0
M  V30 15346 N 1421.93 1.0643 1.16234 0
M  V30 15347 C 1423.18 0.77689 1.86138 0
M  V30 15348 C 1423.49 -0.699301 1.82672 0
M  V30 15349 O 1424.7 -1.10113 2.48168 0
M  V30 15350 C 1423.16 1.3396 3.3404 0
M  V30 15351 C 1422.76 2.84613 3.45976 0
M  V30 15352 C 1424.51 1.12979 4.09189 0
M  V30 15353 C 1422.42 3.34122 4.87972 0
M  V30 15354 H 1421.35 0.286936 0.697269 0
M  V30 15355 H 1424 1.28318 1.31174 0
M  V30 15356 H 1422.38 0.761073 3.88618 0
M  V30 15357 H 1423.55 3.48429 3.01552 0
M  V30 15358 H 1421.87 3.04277 2.84262 0
M  V30 15359 H 1424.46 1.47456 5.13966 0
M  V30 15360 H 1424.81 0.0682424 4.16244 0
M  V30 15361 H 1425.34 1.67418 3.60855 0
M  V30 15362 H 1422.08 4.39761 4.86097 0
M  V30 15363 H 1421.6 2.75055 5.33015 0
M  V30 15364 H 1423.28 3.29529 5.56794 0
M  V30 15365 N 1423.41 -1.329 0.847073 0
M  V30 15366 C 1424.66 -1.9712 0.445872 0
M  V30 15367 C 1424.98 -1.67398 -1.00014 0
M  V30 15368 O 1424.25 -0.977204 -1.69787 0
M  V30 15369 H 1422.83 -0.729247 0.161887 0
M  V30 15370 H 1425.49 -1.62118 1.08184 0
M  V30 15371 H 1424.59 -3.06575 0.584676 0
M  V30 15372 N 1424.89 -0.604284 -1.45555 0
M  V30 15373 C 1425.84 0.129013 -2.32242 0
M  V30 15374 C 1426.83 0.862933 -1.45773 0
M  V30 15375 O 1428.04 0.778874 -1.62276 0
M  V30 15376 H 1424.41 0.0604661 -0.749565 0
M  V30 15377 H 1426.38 -0.620603 -2.91875 0
M  V30 15378 C 1425.13 1.11516 -3.29332 0
M  V30 15379 H 1424.45 0.559849 -3.95861 0
M  V30 15380 H 1425.89 1.59824 -3.92724 0
M  V30 15381 C 1424.35 2.18706 -2.5626 0
M  V30 15382 O 1424.88 3.26397 -2.34154 0
M  V30 15383 N 1423.09 1.93899 -2.16452 0
M  V30 15384 H 1422.64 1.0633 -2.34631 0
M  V30 15385 H 1422.59 2.65824 -1.67884 0
M  V30 15386 N 1426.37 1.53816 -0.343257 0
M  V30 15387 C 1427.3 2.27951 0.506005 0
M  V30 15388 C 1428.28 1.29502 1.10287 0
M  V30 15389 O 1429.46 1.58344 1.12432 0
M  V30 15390 C 1426.59 3.0521 1.65723 0
M  V30 15391 C 1425.55 4.11161 1.18871 0
M  V30 15392 C 1424.87 4.76373 2.42843 0
M  V30 15393 C 1426.17 5.21498 0.289403 0
M  V30 15394 H 1427.87 2.99189 -0.112435 0
M  V30 15395 H 1425.41 1.43893 -0.055516 0
M  V30 15396 H 1427.37 3.55811 2.2578 0
M  V30 15397 H 1426.09 2.31624 2.30256 0
M  V30 15398 H 1424.75 3.61473 0.610962 0
M  V30 15399 H 1424.4 3.99381 3.05784 0
M  V30 15400 H 1424.1 5.47955 2.12177 0
M  V30 15401 H 1425.62 5.29758 3.03627 0
M  V30 15402 H 1427.03 5.67736 0.796808 0
M  V30 15403 H 1425.43 6.00054 0.0746366 0
M  V30 15404 H 1426.5 4.80185 -0.674543 0
M  V30 15405 N 1427.84 0.0718701 1.57436 0
M  V30 15406 C 1429.09 -0.598116 1.93779 0
M  V30 15407 C 1429.42 -1.69258 0.952131 0
M  V30 15408 O 1428.7 -1.94491 -0.0186426 0
M  V30 15409 C 1428.98 -1.17499 3.40391 0
M  V30 15410 C 1428.83 -0.0871719 4.49716 0
M  V30 15411 C 1430.15 -2.08047 3.8782 0
M  V30 15412 H 1427.27 -0.215954 0.704651 0
M  V30 15413 H 1429.91 0.137854 1.89499 0
M  V30 15414 H 1428.06 -1.80221 3.44169 0
M  V30 15415 H 1429.74 0.545906 4.58058 0
M  V30 15416 H 1427.98 0.582213 4.29875 0
M  V30 15417 H 1428.65 -0.531202 5.49438 0
M  V30 15418 H 1431.13 -1.5526 3.86049 0
M  V30 15419 H 1430 -2.45345 4.91016 0
M  V30 15420 H 1430.26 -2.98879 3.25766 0
M  V30 15421 N 1429.32 -1.56304 -0.201686 0
M  V30 15422 C 1430.57 -1.80504 -0.92446 0
M  V30 15423 C 1430.9 -0.644832 -1.83182 0
M  V30 15424 O 1430.18 0.354963 -1.91234 0
M  V30 15425 C 1430.46 -3.14919 -1.74636 0
M  V30 15426 C 1430.31 -4.41421 -0.864169 0
M  V30 15427 C 1431.63 -3.45962 -2.72026 0
M  V30 15428 H 1428.75 -0.656643 -0.334648 0
M  V30 15429 H 1431.39 -1.89025 -0.192188 0
M  V30 15430 H 1429.54 -3.07785 -2.37066 0
M  V30 15431 H 1431.21 -4.60594 -0.255084 0
M  V30 15432 H 1429.46 -4.33465 -0.170548 0
M  V30 15433 H 1430.13 -5.31954 -1.47409 0
M  V30 15434 H 1432.6 -3.53353 -2.1973 0
M  V30 15435 H 1431.48 -4.41146 -3.26622 0
M  V30 15436 H 1431.74 -2.69124 -3.50749 0
M  V30 15437 N 1430.8 0.469154 -1.50455 0
M  V30 15438 C 1431.73 1.57493 -1.7239 0
M  V30 15439 C 1432.71 1.60161 -0.572915 0
M  V30 15440 O 1433.9 1.76397 -0.812259 0
M  V30 15441 C 1431.03 2.95804 -1.81981 0
M  V30 15442 C 1429.98 3.08001 -2.97185 0
M  V30 15443 C 1429.31 4.4798 -2.91922 0
M  V30 15444 C 1430.61 2.85039 -4.37665 0
M  V30 15445 H 1432.3 1.39389 -2.64974 0
M  V30 15446 H 1429.85 0.669133 -1.27509 0
M  V30 15447 H 1431.8 3.73091 -1.95911 0
M  V30 15448 H 1430.52 3.15068 -0.86021 0
M  V30 15449 H 1429.18 2.33148 -2.82909 0
M  V30 15450 H 1428.83 4.64165 -1.93803 0
M  V30 15451 H 1428.53 4.57076 -3.69263 0
M  V30 15452 H 1430.05 5.27284 -3.07903 0
M  V30 15453 H 1431.47 3.52074 -4.52456 0
M  V30 15454 H 1429.87 3.05578 -5.16471 0
M  V30 15455 H 1430.94 1.8088 -4.499 0
M  V30 15456 N 1432.28 1.40065 0.722464 0
M  V30 15457 C 1433.23 1.39947 1.85789 0
M  V30 15458 C 1434.22 0.28089 1.67055 0
M  V30 15459 O 1435.43 0.451575 1.74244 0
M  V30 15460 H 1431.8 0.437296 0.611781 0
M  V30 15461 H 1433.77 2.35695 1.83004 0
M  V30 15462 C 1432.52 1.27218 3.2359 0
M  V30 15463 H 1431.84 2.12566 3.38609 0
M  V30 15464 H 1433.28 1.31194 4.03192 0
M  V30 15465 C 1431.74 -0.0182466 3.36895 0
M  V30 15466 O 1432.27 -0.983761 3.89468 0
M  V30 15467 N 1430.48 -0.0854707 2.90474 0
M  V30 15468 H 1430.03 0.700953 2.4788 0
M  V30 15469 H 1429.98 -0.948367 2.99755 0
M  V30 15470 N 1433.76 -0.95397 1.25448 0
M  V30 15471 C 1434.69 -2.06828 1.08372 0
M  V30 15472 C 1435.67 -1.70098 -0.00741585 0
M  V30 15473 O 1436.85 -1.93521 0.16224 0
M  V30 15474 C 1433.98 -3.40124 0.702365 0
M  V30 15475 C 1432.94 -3.90865 1.74381 0
M  V30 15476 C 1432.26 -5.20663 1.21712 0
M  V30 15477 C 1433.56 -4.17169 3.14273 0
M  V30 15478 H 1435.26 -2.21372 2.01581 0
M  V30 15479 H 1432.8 -1.06374 0.970592 0
M  V30 15480 H 1434.76 -4.17529 0.569837 0
M  V30 15481 H 1433.48 -3.2552 -0.265428 0
M  V30 15482 H 1432.14 -3.15628 1.86479 0
M  V30 15483 H 1431.79 -5.02429 0.23954 0
M  V30 15484 H 1431.49 -5.55581 1.91319 0
M  V30 15485 H 1433.01 -6.00665 1.097 0
M  V30 15486 H 1434.43 -4.85231 3.05325 0
M  V30 15487 H 1432.82 -4.63344 3.81356 0
M  V30 15488 H 1433.89 -3.23421 3.61285 0
M  V30 15489 N 1435.24 -1.07045 -1.15668 0
M  V30 15490 C 1436.48 -0.791735 -1.86381 0
M  V30 15491 C 1436.81 0.682084 -1.82148 0
M  V30 15492 O 1436.07 1.51617 -1.23737 0
M  V30 15493 C 1436.36 -1.24127 -3.35153 0
M  V30 15494 C 1436.03 -2.72051 -3.59582 0
M  V30 15495 C 1434.69 -3.12455 -3.65958 0
M  V30 15496 C 1437.04 -3.67547 -3.69538 0
M  V30 15497 C 1434.37 -4.4718 -3.79799 0
M  V30 15498 C 1436.72 -5.02029 -3.84902 0
M  V30 15499 C 1435.39 -5.42059 -3.89523 0
M  V30 15500 H 1434.66 -0.289717 -0.682016 0
M  V30 15501 H 1437.31 -1.34091 -1.36718 0
M  V30 15502 H 1435.61 -0.611428 -3.87 0
M  V30 15503 H 1437.31 -1.00256 -3.88265 0
M  V30 15504 H 1433.9 -2.39771 -3.55257 0
M  V30 15505 H 1438.08 -3.3746 -3.63915 0
M  V30 15506 H 1433.34 -4.77668 -3.81632 0
M  V30 15507 H 1437.51 -5.75902 -3.91548 0
M  V30 15508 H 1435.14 -6.46455 -4 0
M  V30 15509 N 1436.71 1.32449 -0.85411 0
M  V30 15510 C 1437.64 2.31383 -0.313697 0
M  V30 15511 C 1438.62 1.59656 0.586858 0
M  V30 15512 O 1439.81 1.87459 0.507216 0
M  V30 15513 C 1436.94 3.43693 0.499235 0
M  V30 15514 C 1435.89 4.26899 -0.306839 0
M  V30 15515 C 1435.22 5.30966 0.630795 0
M  V30 15516 C 1436.52 4.99318 -1.53229 0
M  V30 15517 H 1438.21 2.76832 -1.14037 0
M  V30 15518 H 1435.76 1.33091 -0.549805 0
M  V30 15519 H 1437.71 4.11944 0.887709 0
M  V30 15520 H 1436.44 2.96971 1.35926 0
M  V30 15521 H 1435.1 3.60294 -0.677061 0
M  V30 15522 H 1434.74 4.80498 1.48765 0
M  V30 15523 H 1434.44 5.87522 0.0954635 0
M  V30 15524 H 1435.97 6.0208 1.01646 0
M  V30 15525 H 1437.38 5.60253 -1.21614 0
M  V30 15526 H 1435.78 5.65596 -2.00552 0
M  V30 15527 H 1436.85 4.27213 -2.29383 0
M  V30 15528 N 1438.19 0.611994 1.45232 0
M  V30 15529 C 1439.15 -0.0943825 2.29006 0
M  V30 15530 C 1440.15 -0.790863 1.40007 0
M  V30 15531 O 1441.34 -0.638356 1.62082 0
M  V30 15532 C 1438.48 -1.1439 3.21135 0
M  V30 15533 H 1439.67 0.6422 2.92943 0
M  V30 15534 H 1437.22 0.37124 1.51827 0
M  V30 15535 H 1437.96 -1.9111 2.62007 0
M  V30 15536 H 1437.74 -0.648638 3.86698 0
M  V30 15537 H 1439.23 -1.63848 3.84114 0
M  V30 15538 N 1439.67 -1.53632 0.351409 0
M  V30 15539 C 1440.6 -2.28217 -0.49391 0
M  V30 15540 C 1441.58 -1.30085 -1.09599 0
M  V30 15541 O 1442.77 -1.58938 -1.1159 0
M  V30 15542 C 1439.9 -3.06085 -1.64102 0
M  V30 15543 C 1438.85 -4.11786 -1.16689 0
M  V30 15544 C 1438.18 -4.77654 -2.40314 0
M  V30 15545 C 1439.48 -5.21644 -0.261742 0
M  V30 15546 H 1441.17 -2.99125 0.1283 0
M  V30 15547 H 1438.72 -1.43861 0.0631462 0
M  V30 15548 H 1440.67 -3.57003 -2.2389 0
M  V30 15549 H 1439.39 -2.32842 -2.29025 0
M  V30 15550 H 1438.05 -3.61792 -0.591784 0
M  V30 15551 H 1437.7 -4.00997 -3.03661 0
M  V30 15552 H 1437.4 -5.49072 -2.09268 0
M  V30 15553 H 1438.92 -5.3136 -3.00813 0
M  V30 15554 H 1440.34 -5.6815 -0.766689 0
M  V30 15555 H 1438.73 -6.00085 -0.0428132 0
M  V30 15556 H 1439.8 -4.79821 0.699999 0
M  V30 15557 N 1441.15 -0.0802183 -1.57396 0
M  V30 15558 C 1442.08 0.881426 -2.16225 0
M  V30 15559 C 1443.06 1.30459 -1.09154 0
M  V30 15560 O 1444.24 1.37413 -1.37227 0
M  V30 15561 C 1441.37 2.14599 -2.73065 0
M  V30 15562 C 1440.33 1.86195 -3.85377 0
M  V30 15563 C 1439.65 3.19354 -4.28856 0
M  V30 15564 C 1440.95 1.16059 -5.09242 0
M  V30 15565 H 1442.65 0.391325 -2.96832 0
M  V30 15566 H 1440.19 0.186785 -1.42783 0
M  V30 15567 H 1442.15 2.82297 -3.12868 0
M  V30 15568 H 1440.87 2.65866 -1.89691 0
M  V30 15569 H 1439.53 1.209 -3.46091 0
M  V30 15570 H 1439.18 3.68479 -3.42392 0
M  V30 15571 H 1438.88 3.01137 -5.04569 0
M  V30 15572 H 1440.4 3.88235 -4.71281 0
M  V30 15573 H 1441.82 1.7384 -5.46308 0
M  V30 15574 H 1440.21 1.08072 -5.90288 0
M  V30 15575 H 1441.28 0.14098 -4.84695 0
M  V30 15576 N 1442.63 1.56409 0.193394 0
M  V30 15577 C 1443.56 1.97707 1.24234 0
M  V30 15578 C 1444.54 0.849286 1.47381 0
M  V30 15579 O 1445.72 1.11374 1.59089 0
M  V30 15580 C 1442.85 2.31804 2.5862 0
M  V30 15581 C 1441.81 3.47337 2.50082 0
M  V30 15582 C 1441.13 3.67114 3.88756 0
M  V30 15583 C 1442.43 4.81472 2.02441 0
M  V30 15584 H 1444.13 2.8558 0.89914 0
M  V30 15585 H 1441.67 1.37396 0.431078 0
M  V30 15586 H 1443.62 2.5929 3.32185 0
M  V30 15587 H 1442.35 1.40816 2.94684 0
M  V30 15588 H 1441.01 3.19944 1.78973 0
M  V30 15589 H 1440.66 2.73454 4.22175 0
M  V30 15590 H 1440.36 4.44838 3.83918 0
M  V30 15591 H 1441.88 3.96978 4.6394 0
M  V30 15592 H 1443.29 5.07978 2.65766 0
M  V30 15593 H 1441.69 5.62677 2.08601 0
M  V30 15594 H 1442.76 4.74941 0.977704 0
M  V30 15595 N 1444.1 -0.461169 1.50702 0
M  V30 15596 C 1445.33 -1.24019 1.66235 0
M  V30 15597 C 1445.75 -1.84827 0.349388 0
M  V30 15598 O 1445.11 -1.67743 -0.687888 0
M  V30 15599 C 1445.16 -2.31743 2.76274 0
M  V30 15600 O 1444.26 -3.3664 2.38217 0
M  V30 15601 H 1443.6 -0.364424 0.55506 0
M  V30 15602 H 1446.13 -0.547636 1.97135 0
M  V30 15603 H 1446.14 -2.76902 2.99649 0
M  V30 15604 H 1444.82 -1.86858 3.7156 0
M  V30 15605 H 1443.4 -2.97123 2.25327 0
M  V30 15606 N 1445.58 -1.40446 -0.715026 0
M  V30 15607 C 1446.81 -1.42263 -1.50917 0
M  V30 15608 C 1447.23 -0.0242402 -1.88084 0
M  V30 15609 O 1446.59 0.967817 -1.53307 0
M  V30 15610 C 1446.64 -2.31998 -2.7606 0
M  V30 15611 O 1445.74 -1.76361 -3.72787 0
M  V30 15612 H 1445.08 -0.483614 -0.454988 0
M  V30 15613 H 1447.61 -1.84682 -0.880549 0
M  V30 15614 H 1447.62 -2.47204 -3.24583 0
M  V30 15615 H 1446.3 -3.33614 -2.48343 0
M  V30 15616 H 1444.87 -1.70504 -3.31636 0
M  V30 15617 N 1447.06 0.947303 -1.25952 0
M  V30 15618 C 1448.31 1.69279 -1.11135 0
M  V30 15619 C 1448.63 1.9139 0.346407 0
M  V30 15620 O 1447.89 1.48786 1.27126 0
M  V30 15621 C 1448.19 3.07652 -1.81892 0
M  V30 15622 C 1447.85 3.05317 -3.31802 0
M  V30 15623 C 1446.52 3.04387 -3.72695 0
M  V30 15624 C 1448.87 2.98088 -4.27543 0
M  V30 15625 C 1446.2 2.93987 -5.07729 0
M  V30 15626 C 1448.55 2.89229 -5.62609 0
M  V30 15627 C 1447.21 2.86639 -6.02822 0
M  V30 15628 H 1446.48 0.619435 -0.40667 0
M  V30 15629 H 1449.13 1.10621 -1.56318 0
M  V30 15630 H 1447.43 3.69898 -1.29161 0
M  V30 15631 H 1449.13 3.6417 -1.67873 0
M  V30 15632 H 1445.72 3.06817 -2.99268 0
M  V30 15633 H 1449.91 2.9792 -3.96935 0
M  V30 15634 H 1445.16 2.90355 -5.38056 0
M  V30 15635 H 1449.34 2.82598 -6.36483 0
M  V30 15636 H 1446.96 2.78336 -7.07413 0
M  V30 15637 N 1448.54 1.07657 1.15099 0
M  V30 15638 C 1449.76 0.82291 1.90376 0
M  V30 15639 C 1450.19 -0.618415 1.77644 0
M  V30 15640 O 1449.55 -1.43248 1.11129 0
M  V30 15641 C 1449.59 1.23988 3.38614 0
M  V30 15642 O 1448.7 0.387085 4.10579 0
M  V30 15643 H 1448.04 0.299532 0.592602 0
M  V30 15644 H 1450.57 1.436 1.4574 0
M  V30 15645 H 1450.58 1.21741 3.89414 0
M  V30 15646 H 1449.25 2.28966 3.472 0
M  V30 15647 H 1447.83 0.472311 3.69897 0
M  V30 15648 N 1450.02 -1.31994 0.861122 0
M  V30 15649 C 1450.98 -2.27019 0.315421 0
M  V30 15650 C 1451.98 -1.51864 -0.528575 0
M  V30 15651 O 1453.17 -1.70867 -0.339154 0
M  V30 15652 C 1450.3 -3.36384 -0.553021 0
M  V30 15653 H 1451.49 -2.768 1.1542 0
M  V30 15654 H 1449.05 -1.42776 0.635982 0
M  V30 15655 H 1449.78 -2.91882 -1.41335 0
M  V30 15656 H 1449.57 -3.92067 0.0511919 0
M  V30 15657 H 1451.06 -4.07172 -0.927392 0
M  V30 15658 N 1451.49 -0.619688 -1.44906 0
M  V30 15659 C 1452.77 -0.0510703 -1.95533 0
M  V30 15660 C 1453.15 1.42013 -1.56191 0
M  V30 15661 O 1452.5 2.12879 -0.830356 0
M  V30 15662 C 1452.71 -0.261896 -3.48016 0
M  V30 15663 C 1454.06 -0.149057 -4.24338 0
M  V30 15664 O 1455.08 -0.192655 -3.55679 0
M  V30 15665 O 1453.94 -0.0443345 -5.46482 0
M  V30 15666 H 1451.03 0.0288461 -0.826497 0
M  V30 15667 H 1453.58 -0.690594 -1.55013 0
M  V30 15668 H 1452.35 -1.28319 -3.69662 0
M  V30 15669 H 1451.98 0.412314 -3.95456 0
M  V30 15670 N 1452.97 1.53444 -0.359552 0
M  V30 15671 C 1453.92 2.27053 0.504949 0
M  V30 15672 C 1454.91 1.29801 1.08849 0
M  V30 15673 O 1456.12 1.47451 1.03239 0
M  V30 15674 H 1452.5 0.729756 0.181549 0
M  V30 15675 H 1454.47 2.98082 -0.137719 0
M  V30 15676 C 1453.22 3.06815 1.63585 0
M  V30 15677 H 1452.54 3.81488 1.19611 0
M  V30 15678 H 1453.98 3.61508 2.21558 0
M  V30 15679 C 1452.44 2.17286 2.57466 0
M  V30 15680 O 1452.97 1.77961 3.60129 0
M  V30 15681 N 1451.17 1.82041 2.26516 0
M  V30 15682 H 1450.72 2.14218 1.43068 0
M  V30 15683 H 1450.68 1.22423 2.89586 0
M  V30 15684 N 1454.45 0.0885642 1.57351 0
M  V30 15685 C 1455.38 -0.869946 2.16689 0
M  V30 15686 C 1456.36 -1.29878 1.09844 0
M  V30 15687 O 1457.55 -1.36684 1.37954 0
M  V30 15688 C 1454.68 -2.13148 2.74199 0
M  V30 15689 C 1453.63 -1.84149 3.86359 0
M  V30 15690 C 1452.96 -3.17075 4.30543 0
M  V30 15691 C 1454.26 -1.13357 5.09851 0
M  V30 15692 H 1455.95 -0.375578 2.97035 0
M  V30 15693 H 1453.5 -0.17921 1.42881 0
M  V30 15694 H 1455.45 -2.80634 3.14361 0
M  V30 15695 H 1454.17 -2.64856 1.91098 0
M  V30 15696 H 1452.83 -1.19063 3.46727 0
M  V30 15697 H 1452.48 -3.66658 3.44342 0
M  V30 15698 H 1452.18 -2.98457 5.06159 0
M  V30 15699 H 1453.7 -3.85731 4.73333 0
M  V30 15700 H 1455.12 -1.70941 5.47222 0
M  V30 15701 H 1453.52 -1.0494 5.90853 0
M  V30 15702 H 1454.59 -0.115273 4.84763 0
M  V30 15703 N 1455.93 -1.56509 -0.185096 0
M  V30 15704 C 1456.89 -1.94468 -1.21305 0
M  V30 15705 C 1457.89 -0.826838 -1.37913 0
M  V30 15706 O 1459.08 -1.09411 -1.35554 0
M  V30 15707 C 1456.21 -2.22747 -2.58063 0
M  V30 15708 H 1457.41 -2.86442 -0.888323 0
M  V30 15709 H 1454.96 -1.50354 -0.427012 0
M  V30 15710 H 1455.69 -1.33443 -2.95573 0
M  V30 15711 H 1455.48 -3.04215 -2.47378 0
M  V30 15712 H 1456.97 -2.53084 -3.32172 0
M  V30 15713 N 1457.41 0.45317 -1.50944 0
M  V30 15714 C 1458.37 1.5313 -1.7054 0
M  V30 15715 C 1459.37 1.50142 -0.575678 0
M  V30 15716 O 1460.56 1.52444 -0.842997 0
M  V30 15717 C 1457.69 2.92719 -1.74723 0
M  V30 15718 H 1458.88 1.37066 -2.66745 0
M  V30 15719 H 1456.44 0.680783 -1.40695 0
M  V30 15720 H 1457.17 3.14208 -0.802753 0
M  V30 15721 H 1456.96 2.96295 -2.56811 0
M  V30 15722 H 1458.45 3.7096 -1.91777 0
M  V30 15723 N 1458.88 1.40823 0.707568 0
M  V30 15724 C 1460.11 1.42866 1.49656 0
M  V30 15725 C 1460.53 0.0305663 1.88775 0
M  V30 15726 O 1459.88 -0.947376 1.55984 0
M  V30 15727 C 1459.94 2.32661 2.76679 0
M  V30 15728 O 1459.66 3.67028 2.39211 0
M  V30 15729 C 1461.16 2.4338 3.70514 0
M  V30 15730 H 1458.38 0.487009 0.461588 0
M  V30 15731 H 1460.92 1.84969 0.872167 0
M  V30 15732 H 1459.08 1.93898 3.35384 0
M  V30 15733 H 1459.49 4.14799 3.21002 0
M  V30 15734 H 1460.96 3.10401 4.56459 0
M  V30 15735 H 1461.44 1.46132 4.14176 0
M  V30 15736 H 1462.05 2.82728 3.17718 0
M  V30 15737 N 1460.36 -0.94061 1.26453 0
M  V30 15738 C 1461.64 -1.66421 1.02779 0
M  V30 15739 C 1462.02 -2.06429 -0.441614 0
M  V30 15740 O 1461.37 -1.78854 -1.42209 0
M  V30 15741 C 1461.58 -2.87599 1.97707 0
M  V30 15742 C 1462.93 -3.59237 2.26349 0
M  V30 15743 O 1463.95 -2.97704 1.95577 0
M  V30 15744 O 1462.81 -4.70068 2.78744 0
M  V30 15745 H 1459.9 -0.728813 0.390846 0
M  V30 15746 H 1462.45 -0.99229 1.37665 0
M  V30 15747 H 1461.22 -2.54929 2.96862 0
M  V30 15748 H 1460.84 -3.62516 1.63303 0
M  V30 15749 N 1461.84 -1.08266 -1.14527 0
M  V30 15750 C 1463.12 -0.724254 -1.81697 0
M  V30 15751 C 1463.5 0.792212 -1.95671 0
M  V30 15752 O 1462.85 1.71017 -1.51543 0
M  V30 15753 C 1463.06 -1.44949 -3.17475 0
M  V30 15754 C 1464.4 -1.60761 -3.9299 0
M  V30 15755 O 1465.43 -1.41103 -3.2706 0
M  V30 15756 O 1464.29 -1.93184 -5.11216 0
M  V30 15757 H 1461.38 -0.258814 -0.785458 0
M  V30 15758 H 1463.93 -1.18414 -1.21557 0
M  V30 15759 H 1462.7 -2.48262 -3.02459 0
M  V30 15760 H 1462.32 -0.980993 -3.85308 0
M  V30 15761 N 1463.32 1.31536 -0.86811 0
M  V30 15762 C 1464.6 1.9149 -0.398866 0
M  V30 15763 C 1464.98 1.79008 1.1189 0
M  V30 15764 O 1464.32 1.19659 1.94664 0
M  V30 15765 C 1464.53 3.37771 -0.878173 0
M  V30 15766 C 1465.88 4.14882 -0.903216 0
M  V30 15767 O 1466.91 3.46545 -0.823703 0
M  V30 15768 O 1465.77 5.36936 -1.01794 0
M  V30 15769 H 1462.86 0.818398 -0.118971 0
M  V30 15770 H 1465.41 1.40216 -0.955899 0
M  V30 15771 H 1464.18 3.40861 -1.9217 0
M  V30 15772 H 1463.8 3.96472 -0.299346 0
M  V30 15773 N 1464.8 0.627364 1.44575 0
M  V30 15774 C 1466.05 0.130094 2.01681 0
M  V30 15775 C 1466.37 -1.25112 1.49572 0
M  V30 15776 O 1465.64 -1.8305 0.697822 0
M  V30 15777 H 1464.22 0.0451032 0.745637 0
M  V30 15778 H 1466.88 0.813218 1.77124 0
M  V30 15779 H 1465.97 0.0949131 3.11956 0
M  V30 15780 N 1466.28 -1.53251 0.367684 0
M  V30 15781 C 1467.19 -2.29518 -0.485669 0
M  V30 15782 C 1468.2 -1.35568 -1.09075 0
M  V30 15783 O 1469.38 -1.68626 -1.10124 0
M  V30 15784 C 1466.44 -3.07115 -1.60876 0
M  V30 15785 C 1465.5 -4.16736 -1.031 0
M  V30 15786 C 1464.74 -4.90624 -2.10056 0
M  V30 15787 O 1464.96 -4.64393 -3.31203 0
M  V30 15788 O 1463.89 -5.76503 -1.72996 0
M  V30 15789 H 1467.72 -3.034 0.135017 0
M  V30 15790 H 1465.3 -1.48816 0.132005 0
M  V30 15791 H 1467.19 -3.55564 -2.26168 0
M  V30 15792 H 1465.86 -2.36068 -2.21481 0
M  V30 15793 H 1464.77 -3.72534 -0.341928 0
M  V30 15794 H 1466.1 -4.89956 -0.469473 0
M  V30 15795 N 1467.75 -0.0969077 -1.57302 0
M  V30 15796 C 1468.69 0.898042 -2.09787 0
M  V30 15797 C 1469.66 1.27518 -1.00886 0
M  V30 15798 O 1470.85 1.3801 -1.28396 0
M  V30 15799 C 1467.98 2.19868 -2.57635 0
M  V30 15800 C 1467.02 1.97127 -3.7821 0
M  V30 15801 S 1467.85 1.20763 -5.21705 0
M  V30 15802 C 1469.01 2.52054 -5.72905 0
M  V30 15803 H 1469.24 0.451544 -2.93851 0
M  V30 15804 H 1466.78 0.116417 -1.5396 0
M  V30 15805 H 1468.73 2.9461 -2.85859 0
M  V30 15806 H 1467.4 2.61639 -1.73793 0
M  V30 15807 H 1466.59 2.93445 -4.09763 0
M  V30 15808 H 1466.19 1.30515 -3.50488 0
M  V30 15809 H 1468.48 3.4802 -5.81282 0
M  V30 15810 H 1469.43 2.25077 -6.71376 0
M  V30 15811 H 1469.83 2.6041 -5.00846 0
M  V30 15812 N 1469.23 1.56605 0.176793 0
M  V30 15813 C 1470.18 1.96896 1.23833 0
M  V30 15814 C 1471.17 0.85693 1.46127 0
M  V30 15815 O 1472.38 1.04202 1.46772 0
M  V30 15816 H 1468.75 0.626363 0.416141 0
M  V30 15817 H 1470.73 2.85387 0.871607 0
M  V30 15818 C 1469.47 2.34034 2.57145 0
M  V30 15819 H 1468.8 3.1914 2.40811 0
M  V30 15820 H 1470.24 2.66074 3.30122 0
M  V30 15821 C 1468.7 1.18171 3.15495 0
M  V30 15822 O 1469.23 0.466448 3.98983 0
M  V30 15823 N 1467.43 0.953705 2.74505 0
M  V30 15824 H 1466.98 1.5371 2.06715 0
M  V30 15825 H 1466.94 0.180307 3.13883 0
M  V30 15826 N 1470.71 -0.445159 1.51182 0
M  V30 15827 C 1471.66 -1.5604 1.72494 0
M  V30 15828 C 1472.65 -1.58753 0.591101 0
M  V30 15829 O 1473.86 -1.62591 0.772285 0
M  V30 15830 H 1470.23 -0.518265 0.544891 0
M  V30 15831 H 1472.2 -1.35237 2.65995 0
M  V30 15832 C 1470.95 -2.93768 1.85999 0
M  V30 15833 H 1470.28 -2.9241 2.72647 0
M  V30 15834 H 1471.72 -3.71189 2.04926 0
M  V30 15835 C 1470.17 -3.31186 0.617853 0
M  V30 15836 O 1470.7 -4.01035 -0.231101 0
M  V30 15837 N 1468.91 -2.86868 0.464234 0
M  V30 15838 H 1468.46 -2.30198 1.15614 0
M  V30 15839 H 1468.42 -3.12267 -0.365643 0
M  V30 15840 N 1472.19 -1.41197 -0.700089 0
M  V30 15841 C 1473.12 -1.45456 -1.8266 0
M  V30 15842 C 1474.1 -0.313719 -1.67182 0
M  V30 15843 O 1475.28 -0.524528 -1.86982 0
M  V30 15844 C 1472.41 -1.33161 -3.20758 0
M  V30 15845 C 1471.37 -2.4501 -3.50933 0
M  V30 15846 C 1470.69 -2.17782 -4.88339 0
M  V30 15847 C 1471.99 -3.87352 -3.50365 0
M  V30 15848 H 1473.69 -2.39735 -1.79353 0
M  V30 15849 H 1471.23 -1.1539 -0.861465 0
M  V30 15850 H 1473.19 -1.34754 -3.99274 0
M  V30 15851 H 1471.91 -0.353646 -3.2468 0
M  V30 15852 H 1470.57 -2.42692 -2.74766 0
M  V30 15853 H 1470.22 -1.1834 -4.88881 0
M  V30 15854 H 1469.92 -2.92728 -5.09494 0
M  V30 15855 H 1471.44 -2.21083 -5.6917 0
M  V30 15856 H 1472.86 -3.9141 -4.18893 0
M  V30 15857 H 1471.25 -4.61944 -3.83051 0
M  V30 15858 H 1472.32 -4.15827 -2.4943 0
M  V30 15859 N 1473.67 0.933891 -1.2695 0
M  V30 15860 C 1474.6 2.03768 -1.04934 0
M  V30 15861 C 1475.61 1.62798 -0.00740752 0
M  V30 15862 O 1476.8 1.76765 -0.248289 0
M  V30 15863 C 1473.9 3.34097 -0.568515 0
M  V30 15864 C 1473.07 4.03794 -1.68133 0
M  V30 15865 C 1472.13 5.12397 -1.19731 0
M  V30 15866 O 1471.16 5.36701 -1.89579 0
M  V30 15867 N 1472.36 5.80479 -0.0496327 0
M  V30 15868 H 1475.12 2.23219 -1.99984 0
M  V30 15869 H 1472.69 1.10386 -1.18433 0
M  V30 15870 H 1474.68 4.04053 -0.228736 0
M  V30 15871 H 1473.25 3.11265 0.288587 0
M  V30 15872 H 1472.47 3.27655 -2.1917 0
M  V30 15873 H 1473.76 4.4711 -2.42837 0
M  V30 15874 H 1473.15 5.63179 0.533509 0
M  V30 15875 H 1471.71 6.5139 0.231014 0
M  V30 15876 N 1475.14 1.08871 1.13951 0
M  V30 15877 C 1476.39 0.816198 1.84448 0
M  V30 15878 C 1476.71 -0.660396 1.84114 0
M  V30 15879 O 1477.91 -1.04825 2.50448 0
M  V30 15880 C 1476.37 1.41015 3.31123 0
M  V30 15881 C 1475.98 2.91888 3.39861 0
M  V30 15882 C 1477.72 1.21633 4.06701 0
M  V30 15883 C 1475.63 3.44397 4.80775 0
M  V30 15884 H 1474.56 0.301662 0.691025 0
M  V30 15885 H 1477.21 1.31072 1.28423 0
M  V30 15886 H 1475.59 0.843333 3.86916 0
M  V30 15887 H 1476.76 3.54747 2.94094 0
M  V30 15888 H 1475.08 3.10238 2.77743 0
M  V30 15889 H 1477.68 1.58324 5.10723 0
M  V30 15890 H 1478.02 0.156519 4.16006 0
M  V30 15891 H 1478.55 1.75035 3.57222 0
M  V30 15892 H 1475.29 4.49973 4.7666 0
M  V30 15893 H 1474.81 2.86299 5.27061 0
M  V30 15894 H 1476.49 3.41266 5.49679 0
M  V30 15895 N 1476.62 -1.31073 0.875073 0
M  V30 15896 C 1477.85 -2.01223 0.502383 0
M  V30 15897 C 1478.27 -1.65223 -0.899053 0
M  V30 15898 O 1477.63 -0.863559 -1.59412 0
M  V30 15899 C 1477.68 -3.54269 0.672747 0
M  V30 15900 O 1476.78 -4.11409 -0.285718 0
M  V30 15901 H 1476.12 -0.633422 0.199181 0
M  V30 15902 H 1478.65 -1.67152 1.17989 0
M  V30 15903 H 1478.66 -4.04027 0.567973 0
M  V30 15904 H 1477.34 -3.79811 1.69459 0
M  V30 15905 H 1475.91 -3.72654 -0.135472 0
M  V30 15906 N 1478.1 -0.635022 -1.4424 0
M  V30 15907 C 1479.35 -0.141276 -2.02307 0
M  V30 15908 C 1479.68 1.23508 -1.49865 0
M  V30 15909 O 1478.95 1.82065 -0.684291 0
M  V30 15910 C 1479.24 -0.132196 -3.59857 0
M  V30 15911 C 1479.09 -1.54117 -4.22573 0
M  V30 15912 C 1480.41 0.541186 -4.3676 0
M  V30 15913 H 1477.53 -0.0528117 -0.735105 0
M  V30 15914 H 1480.17 -0.812239 -1.71763 0
M  V30 15915 H 1478.32 0.439156 -3.8601 0
M  V30 15916 H 1479.99 -2.16171 -4.07514 0
M  V30 15917 H 1478.24 -2.09389 -3.79919 0
M  V30 15918 H 1478.91 -1.48682 -5.31599 0
M  V30 15919 H 1481.38 0.0552603 -4.16063 0
M  V30 15920 H 1480.26 0.516742 -5.46462 0
M  V30 15921 H 1480.52 1.61222 -4.11655 0
M  V30 15922 N 1479.58 1.53054 -0.375806 0
M  V30 15923 C 1480.83 2.00584 0.211847 0
M  V30 15924 C 1481.14 1.26692 1.49025 0
M  V30 15925 O 1482.35 1.64863 2.15713 0
M  V30 15926 C 1480.8 3.57345 0.428074 0
M  V30 15927 C 1480.41 4.40125 -0.836299 0
M  V30 15928 C 1482.15 4.13203 0.972825 0
M  V30 15929 C 1480.06 5.88459 -0.589093 0
M  V30 15930 H 1478.99 0.749424 0.0829412 0
M  V30 15931 H 1481.64 1.76666 -0.496126 0
M  V30 15932 H 1480.02 3.77458 1.19756 0
M  V30 15933 H 1481.2 4.31782 -1.60936 0
M  V30 15934 H 1479.51 3.95422 -1.30501 0
M  V30 15935 H 1482.11 5.21669 1.17326 0
M  V30 15936 H 1482.45 3.68441 1.93797 0
M  V30 15937 H 1482.99 3.96928 0.263249 0
M  V30 15938 H 1479.73 6.37517 -1.52485 0
M  V30 15939 H 1479.25 5.99624 0.145285 0
M  V30 15940 H 1480.92 6.46631 -0.218485 0
M  V30 15941 N 1481.06 0.105248 1.57248 0
M  V30 15942 C 1482.47 -0.251385 1.57608 0
M  V30 15943 C 1482.67 -1.677 1.11709 0
M  V30 15944 O 1481.73 -2.39552 0.798182 0
M  V30 15945 C 1483.04 -0.0305755 3.00684 0
M  V30 15946 C 1484.59 -0.0975409 3.12848 0
M  V30 15947 C 1485.06 0.0954024 4.57901 0
M  V30 15948 N 1486.56 0.040908 4.63182 0
M  V30 15949 C 1487.29 0.165298 5.73162 0
M  V30 15950 N 1486.79 0.345091 6.9194 0
M  V30 15951 N 1488.58 0.105847 5.62 0
M  V30 15952 H 1480.73 1.03658 1.85388 0
M  V30 15953 H 1482.99 0.407074 0.856151 0
M  V30 15954 H 1482.7 0.954461 3.38501 0
M  V30 15955 H 1482.57 -0.768477 3.69289 0
M  V30 15956 H 1484.96 -1.07309 2.74898 0
M  V30 15957 H 1485.04 0.672017 2.46815 0
M  V30 15958 H 1484.69 1.06786 4.96547 0
M  V30 15959 H 1484.62 -0.693974 5.22007 0
M  V30 15960 H 1487.11 -0.0951009 3.7778 0
M  V30 15961 H 1487.42 0.431243 7.71596 0
M  V30 15962 H 1485.76 0.38089 6.93955 0
M  V30 15963 H 1488.96 -0.0335544 4.68088 0
M  V30 15964 H 1489.13 0.206235 6.47672 0
M  V30 15965 N 1482.53 -1.56697 -0.168486 0
M  V30 15966 C 1483.78 -1.81346 -0.882973 0
M  V30 15967 C 1484.1 -0.682975 -1.83289 0
M  V30 15968 O 1485.3 -0.814479 -2.58995 0
M  V30 15969 C 1483.76 -3.21345 -1.62066 0
M  V30 15970 C 1483.37 -4.4227 -0.714241 0
M  V30 15971 C 1485.11 -3.55285 -2.32321 0
M  V30 15972 C 1483.02 -5.7329 -1.45233 0
M  V30 15973 H 1481.95 -0.676254 -0.333461 0
M  V30 15974 H 1484.6 -1.82996 -0.135871 0
M  V30 15975 H 1482.98 -3.1402 -2.41262 0
M  V30 15976 H 1484.15 -4.60782 0.0409556 0
M  V30 15977 H 1482.47 -4.16224 -0.121205 0
M  V30 15978 H 1485.07 -4.50421 -2.88141 0
M  V30 15979 H 1485.41 -2.80301 -3.07793 0
M  V30 15980 H 1485.94 -3.64176 -1.60066 0
M  V30 15981 H 1482.68 -6.51311 -0.739869 0
M  V30 15982 H 1482.2 -5.58751 -2.18077 0
M  V30 15983 H 1483.88 -6.15343 -1.99905 0
M  V30 15984 N 1484.01 0.437135 -1.51416 0
M  V30 15985 C 1484.96 1.53061 -1.72745 0
M  V30 15986 C 1485.93 1.56045 -0.569149 0
M  V30 15987 O 1487.11 1.73052 -0.803602 0
M  V30 15988 C 1484.25 2.90774 -1.85861 0
M  V30 15989 C 1483.37 2.97318 -3.1341 0
M  V30 15990 C 1482.5 4.26156 -3.1712 0
M  V30 15991 C 1481.54 4.26568 -4.38983 0
M  V30 15992 N 1480.68 5.4693 -4.40241 0
M  V30 15993 H 1485.52 1.34177 -2.66084 0
M  V30 15994 H 1483.06 0.651803 -1.31871 0
M  V30 15995 H 1485.01 3.7068 -1.91447 0
M  V30 15996 H 1483.64 3.08216 -0.959306 0
M  V30 15997 H 1482.7 2.10074 -3.17132 0
M  V30 15998 H 1484.01 2.93485 -4.03321 0
M  V30 15999 H 1483.16 5.14435 -3.21623 0
M  V30 16000 H 1481.9 4.32646 -2.25098 0
M  V30 16001 H 1480.91 3.36681 -4.34656 0
M  V30 16002 H 1482.13 4.21741 -5.3227 0
M  V30 16003 H 1480.08 5.54141 -3.51089 0
M  V30 16004 H 1479.99 5.44977 -5.23962 0
M  V30 16005 H 1481.26 6.37241 -4.48937 0
M  V30 16006 N 1485.49 1.41566 0.692592 0
M  V30 16007 C 1486.44 1.43648 1.80648 0
M  V30 16008 C 1487.41 0.290497 1.6354 0
M  V30 16009 O 1488.59 0.491979 1.84348 0
M  V30 16010 C 1485.73 1.32733 3.18553 0
M  V30 16011 C 1484.85 2.57224 3.47073 0
M  V30 16012 C 1483.98 2.38581 4.74608 0
M  V30 16013 C 1483.02 3.58534 4.96105 0
M  V30 16014 N 1482.16 3.38942 6.14868 0
M  V30 16015 H 1487 2.38847 1.78203 0
M  V30 16016 H 1484.53 1.186 0.870193 0
M  V30 16017 H 1486.49 1.24405 3.9822 0
M  V30 16018 H 1485.12 0.411407 3.20168 0
M  V30 16019 H 1484.17 2.7599 2.6179 0
M  V30 16020 H 1485.49 3.46443 3.58858 0
M  V30 16021 H 1484.64 2.27738 5.62335 0
M  V30 16022 H 1483.38 1.46824 4.65074 0
M  V30 16023 H 1482.38 3.69828 4.06826 0
M  V30 16024 H 1483.61 4.51248 5.07496 0
M  V30 16025 H 1481.55 2.49887 6.06541 0
M  V30 16026 H 1481.47 4.21737 6.27434 0
M  V30 16027 H 1482.74 3.31877 7.05321 0
M  V30 16028 N 1486.97 -0.927146 1.27443 0
M  V30 16029 C 1488.22 -1.67159 1.13589 0
M  V30 16030 C 1488.54 -1.92379 -0.31865 0
M  V30 16031 O 1487.81 -1.53045 -1.22287 0
M  V30 16032 H 1486.39 -0.619524 0.417371 0
M  V30 16033 H 1489.05 -1.11323 1.59979 0
M  V30 16034 H 1488.15 -2.63954 1.66537 0
M  V30 16035 N 1488.45 -1.09474 -1.13372 0
M  V30 16036 C 1489.69 -0.832323 -1.84933 0
M  V30 16037 C 1490.03 0.640469 -1.83335 0
M  V30 16038 O 1489.3 1.47158 -1.2718 0
M  V30 16039 C 1489.58 -1.36876 -3.33072 0
M  V30 16040 C 1489.44 -2.90769 -3.43181 0
M  V30 16041 C 1490.76 -1.00294 -4.2852 0
M  V30 16042 H 1487.87 -0.30382 -0.671463 0
M  V30 16043 H 1490.52 -1.35622 -1.33066 0
M  V30 16044 H 1488.67 -0.923134 -3.77373 0
M  V30 16045 H 1490.34 -3.43784 -3.07588 0
M  V30 16046 H 1488.58 -3.27876 -2.84042 0
M  V30 16047 H 1489.25 -3.23381 -4.47358 0
M  V30 16048 H 1491.73 -1.38729 -3.92293 0
M  V30 16049 H 1490.6 -1.40533 -5.30605 0
M  V30 16050 H 1490.87 0.0888133 -4.42011 0
M  V30 16051 N 1489.92 1.30607 -0.882012 0
M  V30 16052 C 1490.89 2.26489 -0.351498 0
M  V30 16053 C 1491.89 1.52686 0.504348 0
M  V30 16054 O 1493.08 1.71385 0.311928 0
M  V30 16055 C 1490.21 3.37222 0.499435 0
M  V30 16056 H 1491.4 2.74929 -1.19809 0
M  V30 16057 H 1488.96 1.41746 -0.658616 0
M  V30 16058 H 1489.69 2.94093 1.36673 0
M  V30 16059 H 1489.48 3.91936 -0.11356 0
M  V30 16060 H 1490.97 4.08596 0.862497 0
M  V30 16061 N 1491.4 0.642663 1.43901 0
M  V30 16062 C 1492.65 0.160564 2.02765 0
M  V30 16063 C 1493 -1.20827 1.49729 0
M  V30 16064 O 1492.3 -1.79263 0.676425 0
M  V30 16065 C 1492.49 0.100139 3.5726 0
M  V30 16066 C 1492.32 1.46157 4.25286 0
M  V30 16067 C 1491.09 2.05128 4.6179 0
M  V30 16068 C 1493.29 2.39781 4.54983 0
M  V30 16069 N 1491.27 3.34387 5.14839 0
M  V30 16070 C 1492.64 3.53663 5.09237 0
M  V30 16071 C 1494.7 2.38716 4.36943 0
M  V30 16072 C 1493.4 4.66691 5.4735 0
M  V30 16073 C 1495.42 3.50816 4.76112 0
M  V30 16074 C 1494.79 4.63422 5.30489 0
M  V30 16075 H 1490.89 0.102942 0.775195 0
M  V30 16076 H 1493.47 0.84867 1.7523 0
M  V30 16077 H 1491.64 -0.557279 3.84381 0
M  V30 16078 H 1493.37 -0.391854 4.02798 0
M  V30 16079 H 1490.13 1.57949 4.46485 0
M  V30 16080 H 1490.55 4.00502 5.45827 0
M  V30 16081 H 1495.19 1.529 3.94185 0
M  V30 16082 H 1492.91 5.53206 5.89057 0
M  V30 16083 H 1496.5 3.51181 4.63857 0
M  V30 16084 H 1495.38 5.4873 5.60237 0
M  V30 16085 N 1492.88 -1.52852 0.383918 0
M  V30 16086 C 1494.11 -2.05929 -0.200216 0
M  V30 16087 C 1494.52 -1.25606 -1.40956 0
M  V30 16088 O 1493.88 -0.301336 -1.79995 0
M  V30 16089 C 1493.93 -3.56887 -0.575655 0
M  V30 16090 O 1493.65 -4.34168 0.58564 0
M  V30 16091 C 1495.15 -4.2629 -1.21623 0
M  V30 16092 H 1492.37 -0.670261 -0.0314727 0
M  V30 16093 H 1494.92 -1.97032 0.547591 0
M  V30 16094 H 1493.07 -3.65875 -1.27336 0
M  V30 16095 H 1493.49 -5.23761 0.278267 0
M  V30 16096 H 1494.96 -5.33174 -1.42933 0
M  V30 16097 H 1495.44 -3.81163 -2.182 0
M  V30 16098 H 1496.04 -4.21605 -0.559435 0
M  V30 16099 N 1494.36 -0.113586 -1.5719 0
M  V30 16100 C 1495.31 0.83862 -2.15025 0
M  V30 16101 C 1496.28 1.26726 -1.07376 0
M  V30 16102 O 1497.46 1.34574 -1.35257 0
M  V30 16103 C 1494.6 2.08538 -2.74965 0
M  V30 16104 C 1493.71 1.70559 -3.96905 0
M  V30 16105 C 1492.85 2.90161 -4.44949 0
M  V30 16106 C 1491.89 2.48396 -5.59433 0
M  V30 16107 N 1491.03 3.60894 -6.02246 0
M  V30 16108 H 1495.87 0.338585 -2.9607 0
M  V30 16109 H 1493.4 0.155437 -1.46276 0
M  V30 16110 H 1495.36 2.81579 -3.07846 0
M  V30 16111 H 1493.99 2.56009 -1.96619 0
M  V30 16112 H 1493.04 0.874133 -3.7022 0
M  V30 16113 H 1494.35 1.35863 -4.7994 0
M  V30 16114 H 1493.51 3.71434 -4.7971 0
M  V30 16115 H 1492.25 3.28081 -3.60852 0
M  V30 16116 H 1491.25 1.65555 -5.24282 0
M  V30 16117 H 1492.48 2.116 -6.45292 0
M  V30 16118 H 1490.42 3.98497 -5.21091 0
M  V30 16119 H 1490.34 3.30103 -6.80124 0
M  V30 16120 H 1491.61 4.42622 -6.41643 0
M  V30 16121 N 1495.84 1.56784 0.160173 0
M  V30 16122 C 1496.77 2.00298 1.20012 0
M  V30 16123 C 1497.75 0.880356 1.45546 0
M  V30 16124 O 1498.93 1.14724 1.56691 0
M  V30 16125 C 1496.06 2.37238 2.53645 0
M  V30 16126 C 1495.02 3.52563 2.42658 0
M  V30 16127 C 1494.34 3.75278 3.80881 0
M  V30 16128 C 1495.64 4.85657 1.92183 0
M  V30 16129 H 1497.34 2.87423 0.838362 0
M  V30 16130 H 1494.88 1.3828 0.401838 0
M  V30 16131 H 1496.84 2.66278 3.2661 0
M  V30 16132 H 1495.56 1.47035 2.9163 0
M  V30 16133 H 1494.22 3.23669 1.72146 0
M  V30 16134 H 1493.87 2.82347 4.1628 0
M  V30 16135 H 1493.57 4.52882 3.74396 0
M  V30 16136 H 1495.09 4.0673 4.55415 0
M  V30 16137 H 1496.51 5.13501 2.54931 0
M  V30 16138 H 1494.9 5.66975 1.96619 0
M  V30 16139 H 1495.97 4.76908 0.876742 0
M  V30 16140 N 1497.32 -0.429099 1.51646 0
M  V30 16141 C 1498.26 -1.52143 1.73554 0
M  V30 16142 C 1499.23 -1.55741 0.577416 0
M  V30 16143 O 1500.42 -1.72623 0.812768 0
M  V30 16144 C 1497.56 -2.89785 1.874 0
M  V30 16145 C 1496.67 -2.95652 3.14982 0
M  V30 16146 C 1495.81 -4.24468 3.19375 0
M  V30 16147 C 1494.84 -4.24234 4.41239 0
M  V30 16148 N 1493.98 -5.44587 4.43135 0
M  V30 16149 H 1498.82 -1.32764 2.66791 0
M  V30 16150 H 1496.36 -0.6448 1.32215 0
M  V30 16151 H 1498.32 -3.6966 1.9341 0
M  V30 16152 H 1496.95 -3.07703 0.975638 0
M  V30 16153 H 1496 -2.0839 3.18242 0
M  V30 16154 H 1497.31 -2.91342 4.04872 0
M  V30 16155 H 1496.46 -5.12722 3.24347 0
M  V30 16156 H 1495.2 -4.31446 2.27389 0
M  V30 16157 H 1494.21 -3.34371 4.36435 0
M  V30 16158 H 1495.43 -4.18913 5.34499 0
M  V30 16159 H 1493.38 -5.52271 3.54023 0
M  V30 16160 H 1493.3 -5.42191 5.26845 0
M  V30 16161 H 1494.56 -6.34851 4.5231 0
M  V30 16162 N 1498.79 -1.41931 -0.685074 0
M  V30 16163 C 1500.04 -1.42062 -1.44728 0
M  V30 16164 C 1500.37 -0.0332072 -1.94172 0
M  V30 16165 O 1499.65 0.940835 -1.70231 0
M  V30 16166 C 1499.93 -2.43634 -2.65168 0
M  V30 16167 C 1499.78 -3.91525 -2.21423 0
M  V30 16168 C 1501.1 -2.42325 -3.67378 0
M  V30 16169 H 1498.22 -0.517321 -0.524927 0
M  V30 16170 H 1500.86 -1.73277 -0.779419 0
M  V30 16171 H 1499.01 -2.17146 -3.22149 0
M  V30 16172 H 1500.69 -4.28956 -1.69689 0
M  V30 16173 H 1498.93 -4.05886 -1.53099 0
M  V30 16174 H 1499.6 -4.58158 -3.07889 0
M  V30 16175 H 1502.08 -2.65857 -3.20093 0
M  V30 16176 H 1500.95 -3.15391 -4.49243 0
M  V30 16177 H 1501.21 -1.44555 -4.17799 0
M  V30 16178 N 1500.27 0.920374 -1.27933 0
M  V30 16179 C 1501.22 2.00832 -1.07937 0
M  V30 16180 C 1502.21 1.60899 -0.005079 0
M  V30 16181 O 1503.4 1.75571 -0.224461 0
M  V30 16182 C 1500.53 3.35311 -0.736301 0
M  V30 16183 C 1499.61 3.81666 -1.8491 0
M  V30 16184 N 1500 4.00458 -3.08977 0
M  V30 16185 C 1498.3 4.10766 -1.73745 0
M  V30 16186 C 1499 4.39178 -3.81441 0
M  V30 16187 N 1497.98 4.47064 -3.09249 0
M  V30 16188 H 1501.78 2.13402 -2.02081 0
M  V30 16189 H 1499.29 1.10774 -1.18755 0
M  V30 16190 H 1501.29 4.12928 -0.574144 0
M  V30 16191 H 1499.95 3.24099 0.197437 0
M  V30 16192 H 1500.96 3.86562 -3.4466 0
M  V30 16193 H 1497.64 4.08227 -0.875042 0
M  V30 16194 H 1499.03 4.61736 -4.88109 0
M  V30 16195 N 1501.75 1.10074 1.1279 0
M  V30 16196 C 1502.71 0.74967 2.16593 0
M  V30 16197 C 1503.71 -0.224046 1.59232 0
M  V30 16198 O 1504.9 -0.00137104 1.742 0
M  V30 16199 C 1502.03 0.109795 3.40723 0
M  V30 16200 H 1503.23 1.66906 2.49164 0
M  V30 16201 H 1500.78 0.900781 1.27733 0
M  V30 16202 H 1501.52 -0.820501 3.13749 0
M  V30 16203 H 1501.3 0.810517 3.83631 0
M  V30 16204 H 1502.79 -0.120198 4.17427 0
M  V30 16205 N 1503.23 -1.30138 0.888926 0
M  V30 16206 C 1504.47 -1.95989 0.509365 0
M  V30 16207 C 1504.8 -1.70153 -0.942249 0
M  V30 16208 O 1504.06 -1.00123 -1.68148 0
M  V30 16209 C 1504.36 -3.4975 0.735488 0
M  V30 16210 C 1504.02 -3.95644 2.1628 0
M  V30 16211 C 1502.68 -4.07886 2.55309 0
M  V30 16212 C 1505.04 -4.1952 3.09277 0
M  V30 16213 C 1502.36 -4.41367 3.86539 0
M  V30 16214 C 1504.72 -4.54472 4.40043 0
M  V30 16215 C 1503.38 -4.64923 4.7896 0
M  V30 16216 H 1502.65 -0.717175 0.18639 0
M  V30 16217 H 1505.3 -1.54932 1.12553 0
M  V30 16218 H 1503.6 -3.91783 0.0363165 0
M  V30 16219 H 1505.3 -3.9878 0.421351 0
M  V30 16220 H 1501.89 -3.86624 1.84985 0
M  V30 16221 H 1506.07 -4.09539 2.80342 0
M  V30 16222 H 1501.33 -4.47659 4.16427 0
M  V30 16223 H 1505.5 -4.71897 5.12138 0
M  V30 16224 H 1503.13 -4.90622 5.80685 0
M  V30 16225 N 1504.71 -0.650285 -1.43559 0
M  V30 16226 C 1505.64 0.0927934 -2.28011 0
M  V30 16227 C 1506.62 0.832739 -1.39657 0
M  V30 16228 O 1507.8 0.832912 -1.691 0
M  V30 16229 C 1504.93 1.13806 -3.19008 0
M  V30 16230 C 1503.97 0.496488 -4.236 0
M  V30 16231 S 1504.81 -0.727765 -5.30532 0
M  V30 16232 C 1505.96 0.317035 -6.25097 0
M  V30 16233 H 1506.2 -0.623605 -2.90686 0
M  V30 16234 H 1503.73 -0.439032 -1.48027 0
M  V30 16235 H 1505.69 1.73612 -3.7198 0
M  V30 16236 H 1504.35 1.82676 -2.55516 0
M  V30 16237 H 1503.54 1.28436 -4.87361 0
M  V30 16238 H 1503.14 -0.0273975 -3.7399 0
M  V30 16239 H 1505.43 1.18408 -6.67073 0
M  V30 16240 H 1506.38 -0.285468 -7.07524 0
M  V30 16241 H 1506.79 0.651527 -5.60728 0
M  V30 16242 N 1506.18 1.52647 -0.392018 0
M  V30 16243 C 1507.12 2.24183 0.476934 0
M  V30 16244 C 1508.13 1.26526 1.02446 0
M  V30 16245 O 1509.32 1.52583 0.92632 0
M  V30 16246 C 1506.42 2.94672 1.67397 0
M  V30 16247 C 1505.59 4.19058 1.25335 0
M  V30 16248 C 1504.65 4.72522 2.31537 0
M  V30 16249 O 1503.68 5.35541 1.92833 0
M  V30 16250 N 1504.88 4.52613 3.63486 0
M  V30 16251 H 1507.64 2.99391 -0.135963 0
M  V30 16252 H 1505.2 1.60419 -0.218514 0
M  V30 16253 H 1507.2 3.27338 2.37975 0
M  V30 16254 H 1505.77 2.22755 2.19315 0
M  V30 16255 H 1504.99 3.92399 0.376352 0
M  V30 16256 H 1506.27 4.99871 0.94901 0
M  V30 16257 H 1505.67 4.02316 3.97692 0
M  V30 16258 H 1504.23 4.89761 4.3009 0
M  V30 16259 N 1507.66 0.121921 1.57128 0
M  V30 16260 C 1508.63 -0.812905 2.143 0
M  V30 16261 C 1509.63 -1.19261 1.07858 0
M  V30 16262 O 1510.82 -1.11764 1.33621 0
M  V30 16263 C 1507.95 -2.09969 2.68562 0
M  V30 16264 H 1509.14 -0.315992 2.98231 0
M  V30 16265 H 1506.69 -0.12734 1.5578 0
M  V30 16266 H 1507.43 -2.64085 1.88228 0
M  V30 16267 H 1507.21 -1.83688 3.46412 0
M  V30 16268 H 1508.7 -2.76788 3.12695 0
M  V30 16269 N 1509.14 -1.56867 -0.151857 0
M  V30 16270 C 1510.09 -1.94315 -1.19271 0
M  V30 16271 C 1511.07 -0.813807 -1.38802 0
M  V30 16272 O 1512.27 -1.07722 -1.40446 0
M  V30 16273 C 1509.4 -2.32316 -2.52753 0
M  V30 16274 C 1508.48 -3.5181 -2.36835 0
M  V30 16275 N 1508.87 -4.68488 -1.90663 0
M  V30 16276 C 1507.17 -3.56799 -2.67602 0
M  V30 16277 C 1507.87 -5.50594 -1.87673 0
M  V30 16278 N 1506.85 -4.92169 -2.30805 0
M  V30 16279 H 1510.65 -2.82003 -0.827747 0
M  V30 16280 H 1508.16 -1.58361 -0.359958 0
M  V30 16281 H 1510.16 -2.57347 -3.27991 0
M  V30 16282 H 1508.82 -1.45977 -2.90036 0
M  V30 16283 H 1509.83 -4.92336 -1.60703 0
M  V30 16284 H 1506.51 -2.80988 -3.08791 0
M  V30 16285 H 1507.9 -6.54129 -1.53509 0
M  V30 16286 N 1510.62 0.421051 -1.51871 0
M  V30 16287 C 1511.87 1.16908 -1.65344 0
M  V30 16288 C 1512.19 1.90801 -0.377538 0
M  V30 16289 O 1511.45 1.84972 0.639061 0
M  V30 16290 C 1511.75 2.19819 -2.81806 0
M  V30 16291 C 1511.41 1.62821 -4.20476 0
M  V30 16292 C 1510.08 1.47 -4.58197 0
M  V30 16293 C 1512.43 1.21079 -5.06941 0
M  V30 16294 C 1509.76 0.879359 -5.80073 0
M  V30 16295 C 1512.11 0.634373 -6.29411 0
M  V30 16296 C 1510.77 0.4632 -6.65891 0
M  V30 16297 H 1510.04 0.427798 -0.605037 0
M  V30 16298 H 1512.69 0.457896 -1.85945 0
M  V30 16299 H 1510.99 2.97037 -2.55492 0
M  V30 16300 H 1512.69 2.77548 -2.89427 0
M  V30 16301 H 1509.28 1.76115 -3.90745 0
M  V30 16302 H 1513.46 1.32115 -4.78392 0
M  V30 16303 H 1508.72 0.734646 -6.0697 0
M  V30 16304 H 1512.89 0.302484 -6.95743 0
M  V30 16305 H 1510.52 0.00341397 -7.602 0
M  V30 16306 N 1512.1 1.42293 0.677538 0
M  V30 16307 C 1513.04 1.45556 1.79114 0
M  V30 16308 C 1514.01 0.307826 1.63223 0
M  V30 16309 O 1515.2 0.511504 1.83816 0
M  V30 16310 C 1512.34 1.36104 3.17127 0
M  V30 16311 C 1511.45 2.60891 3.44325 0
M  V30 16312 C 1510.59 2.43601 4.72051 0
M  V30 16313 C 1509.63 3.63775 4.92274 0
M  V30 16314 N 1508.76 3.45444 6.11239 0
M  V30 16315 H 1513.6 2.40723 1.7566 0
M  V30 16316 H 1511.14 1.19517 0.857565 0
M  V30 16317 H 1513.1 1.28622 3.96878 0
M  V30 16318 H 1511.73 0.445342 3.19713 0
M  V30 16319 H 1510.78 2.78751 2.58848 0
M  V30 16320 H 1512.09 3.50229 3.55163 0
M  V30 16321 H 1511.25 2.33689 5.59888 0
M  V30 16322 H 1509.98 1.51748 4.63491 0
M  V30 16323 H 1508.99 3.74122 4.0288 0
M  V30 16324 H 1510.21 4.56605 5.02681 0
M  V30 16325 H 1508.16 2.56306 6.03857 0
M  V30 16326 H 1508.08 4.28368 6.22926 0
M  V30 16327 H 1509.35 3.39339 7.01762 0
M  V30 16328 N 1513.57 -0.913576 1.28419 0
M  V30 16329 C 1514.51 -2.02073 1.08163 0
M  V30 16330 C 1515.52 -1.62766 0.0333064 0
M  V30 16331 O 1516.71 -1.76347 0.27638 0
M  V30 16332 C 1513.81 -3.33151 0.621596 0
M  V30 16333 C 1512.98 -4.01068 1.74536 0
M  V30 16334 C 1512.04 -5.10428 1.27868 0
M  V30 16335 O 1511.07 -5.33617 1.98094 0
M  V30 16336 N 1512.27 -5.80326 0.141976 0
M  V30 16337 H 1515.03 -2.20009 2.0351 0
M  V30 16338 H 1512.59 -1.08488 1.20174 0
M  V30 16339 H 1514.59 -4.03638 0.292989 0
M  V30 16340 H 1513.16 -3.11685 -0.239031 0
M  V30 16341 H 1512.38 -3.24127 2.24355 0
M  V30 16342 H 1513.66 -4.4319 2.49919 0
M  V30 16343 H 1513.06 -5.63956 -0.443845 0
M  V30 16344 H 1511.62 -6.51676 -0.127354 0
M  V30 16345 N 1515.05 -1.1067 -1.12204 0
M  V30 16346 C 1516.47 -0.838988 -1.35769 0
M  V30 16347 C 1516.67 0.540345 -1.9412 0
M  V30 16348 O 1515.72 1.29274 -2.16897 0
M  V30 16349 C 1517.04 -1.94065 -2.29694 0
M  V30 16350 C 1518.59 -1.96938 -2.43279 0
M  V30 16351 C 1519.06 -3.06284 -3.4052 0
M  V30 16352 N 1520.55 -3.05607 -3.48079 0
M  V30 16353 C 1521.29 -3.86855 -4.23238 0
M  V30 16354 N 1520.78 -4.78046 -5.01442 0
M  V30 16355 N 1522.58 -3.75064 -4.18669 0
M  V30 16356 H 1514.73 -1.99575 -0.726878 0
M  V30 16357 H 1516.99 -0.867423 -0.382467 0
M  V30 16358 H 1516.7 -2.93356 -1.93997 0
M  V30 16359 H 1516.57 -1.82992 -3.29839 0
M  V30 16360 H 1518.96 -0.982774 -2.78254 0
M  V30 16361 H 1519.04 -2.12087 -1.43014 0
M  V30 16362 H 1518.68 -4.05165 -3.06273 0
M  V30 16363 H 1518.61 -2.88376 -4.40621 0
M  V30 16364 H 1521.1 -2.39531 -2.9229 0
M  V30 16365 H 1521.42 -5.36594 -5.56136 0
M  V30 16366 H 1519.76 -4.82073 -5.0063 0
M  V30 16367 H 1522.95 -3.03172 -3.56657 0
M  V30 16368 H 1523.12 -4.38618 -4.76988 0
M  V30 16369 N 1516.53 1.29665 -0.895815 0
M  V30 16370 C 1517.44 2.31582 -0.375086 0
M  V30 16371 C 1518.46 1.65789 0.528196 0
M  V30 16372 O 1519.63 1.96999 0.41871 0
M  V30 16373 C 1516.7 3.44472 0.39241 0
M  V30 16374 C 1515.76 4.25866 -0.541926 0
M  V30 16375 C 1514.99 5.33365 0.189037 0
M  V30 16376 O 1515.21 5.52607 1.41355 0
M  V30 16377 O 1514.15 6.0009 -0.466441 0
M  V30 16378 H 1517.97 2.78095 -1.22052 0
M  V30 16379 H 1515.56 1.34031 -0.660007 0
M  V30 16380 H 1517.44 4.13214 0.826565 0
M  V30 16381 H 1516.12 3.00074 1.21397 0
M  V30 16382 H 1515.02 3.59781 -1.02512 0
M  V30 16383 H 1516.36 4.73896 -1.32979 0
M  V30 16384 N 1518.01 0.657889 1.43212 0
M  V30 16385 C 1518.97 -0.0214783 2.2919 0
M  V30 16386 C 1519.97 -0.745921 1.42452 0
M  V30 16387 O 1521.16 -0.586468 1.64031 0
M  V30 16388 C 1518.29 -1.04115 3.24612 0
M  V30 16389 H 1519.49 0.735072 2.90752 0
M  V30 16390 H 1517.04 0.419354 1.50569 0
M  V30 16391 H 1517.77 -1.82677 2.67954 0
M  V30 16392 H 1517.56 -0.525285 3.88566 0
M  V30 16393 H 1519.05 -1.51544 3.89132 0
M  V30 16394 N 1519.49 -1.52437 0.400108 0
M  V30 16395 C 1520.76 -1.94162 -0.23671 0
M  V30 16396 C 1521.14 -1.33636 -1.63416 0
M  V30 16397 O 1520.49 -0.508643 -2.22767 0
M  V30 16398 C 1520.7 -3.48088 -0.252159 0
M  V30 16399 C 1522.05 -4.21925 -0.475887 0
M  V30 16400 O 1523.07 -3.5465 -0.331905 0
M  V30 16401 O 1521.93 -5.41205 -0.758895 0
M  V30 16402 H 1519.03 -0.813294 -0.14994 0
M  V30 16403 H 1521.57 -1.63475 0.455399 0
M  V30 16404 H 1520.34 -3.84501 0.726263 0
M  V30 16405 H 1519.97 -3.8511 -0.988742 0
M  V30 16406 N 1520.96 -0.130252 -1.57061 0
M  V30 16407 C 1521.87 0.829198 -2.19457 0
M  V30 16408 C 1522.89 1.2843 -1.17395 0
M  V30 16409 O 1524.07 1.34496 -1.49909 0
M  V30 16410 C 1521.13 2.05727 -2.79065 0
M  V30 16411 C 1520.19 1.65301 -3.962 0
M  V30 16412 C 1519.43 2.82253 -4.52956 0
M  V30 16413 O 1519.65 3.97999 -4.08598 0
M  V30 16414 O 1518.58 2.5869 -5.43473 0
M  V30 16415 H 1522.41 0.328139 -3.01922 0
M  V30 16416 H 1519.99 0.0959361 -1.49092 0
M  V30 16417 H 1521.88 2.7763 -3.17017 0
M  V30 16418 H 1520.55 2.54817 -1.99624 0
M  V30 16419 H 1519.46 0.904712 -3.62996 0
M  V30 16420 H 1520.79 1.20942 -4.7711 0
M  V30 16421 N 1522.44 1.56945 0.143535 0
M  V30 16422 C 1523.69 1.8381 0.856831 0
M  V30 16423 C 1524.02 0.712375 1.80662 0
M  V30 16424 O 1523.3 -0.283743 1.92419 0
M  V30 16425 C 1523.58 3.21184 1.62828 0
M  V30 16426 C 1523.43 4.44324 0.699744 0
M  V30 16427 C 1524.75 3.5582 2.58999 0
M  V30 16428 H 1521.87 0.668611 0.310046 0
M  V30 16429 H 1524.51 1.89609 0.1219 0
M  V30 16430 H 1522.66 3.16372 2.2548 0
M  V30 16431 H 1524.34 4.61224 0.0839619 0
M  V30 16432 H 1522.58 4.33799 0.0095529 0
M  V30 16433 H 1523.25 5.37058 1.27564 0
M  V30 16434 H 1525.73 3.61264 2.06464 0
M  V30 16435 H 1524.6 4.52964 3.10024 0
M  V30 16436 H 1524.86 2.81956 3.40519 0
M  V30 16437 N 1523.92 -0.412991 1.52093 0
M  V30 16438 C 1524.87 -1.50294 1.75158 0
M  V30 16439 C 1525.84 -1.55119 0.593902 0
M  V30 16440 O 1527.02 -1.71751 0.831032 0
M  V30 16441 C 1524.16 -2.87781 1.90463 0
M  V30 16442 C 1523.28 -2.92295 3.181 0
M  V30 16443 C 1522.41 -4.21056 3.23859 0
M  V30 16444 C 1521.45 -4.1953 4.45714 0
M  V30 16445 N 1520.59 -5.39857 4.48886 0
M  V30 16446 H 1525.43 -1.29927 2.68185 0
M  V30 16447 H 1522.96 -0.630741 1.32891 0
M  V30 16448 H 1524.92 -3.67588 1.9732 0
M  V30 16449 H 1523.55 -3.06651 1.00822 0
M  V30 16450 H 1522.6 -2.05002 3.20434 0
M  V30 16451 H 1523.92 -2.87031 4.0794 0
M  V30 16452 H 1523.07 -5.09253 3.29767 0
M  V30 16453 H 1521.81 -4.2901 2.31952 0
M  V30 16454 H 1520.81 -3.29724 4.39957 0
M  V30 16455 H 1522.04 -4.1322 5.38912 0
M  V30 16456 H 1519.99 -5.48486 3.59861 0
M  V30 16457 H 1519.9 -5.36572 5.32566 0
M  V30 16458 H 1521.17 -6.30018 4.59018 0
M  V30 16459 N 1525.4 -1.4265 -0.669982 0
M  V30 16460 C 1526.81 -1.38614 -1.25072 0
M  V30 16461 C 1527.16 -0.0818051 -1.96029 0
M  V30 16462 O 1526.29 0.81931 -2.0029 0
M  V30 16463 C 1526.88 -2.51085 -2.27469 0
M  V30 16464 C 1525.44 -2.50366 -2.81059 0
M  V30 16465 C 1524.59 -2.29632 -1.5545 0
M  V30 16466 H 1527.54 -1.51794 -0.463058 0
M  V30 16467 H 1527.56 -2.21612 -3.09303 0
M  V30 16468 H 1527.07 -3.46002 -1.75796 0
M  V30 16469 H 1525.17 -1.5928 -3.36839 0
M  V30 16470 H 1525.29 -3.47569 -3.29746 0
M  V30 16471 H 1523.65 -1.77982 -1.82193 0
M  V30 16472 H 1524.43 -3.26611 -1.05736 0
M  V30 16473 N 1526.88 0.906753 -1.28902 0
M  V30 16474 C 1527.81 2.02663 -1.15974 0
M  V30 16475 C 1528.79 1.70009 -0.0557202 0
M  V30 16476 O 1529.97 1.92786 -0.233952 0
M  V30 16477 C 1527.1 3.37283 -0.828115 0
M  V30 16478 C 1526.06 3.84123 -1.88767 0
M  V30 16479 C 1525.38 5.15787 -1.40953 0
M  V30 16480 C 1526.68 4.05217 -3.2954 0
M  V30 16481 H 1528.38 2.13738 -2.09658 0
M  V30 16482 H 1525.92 1.02699 -1.0094 0
M  V30 16483 H 1527.88 4.15127 -0.724408 0
M  V30 16484 H 1526.6 3.2628 0.14443 0
M  V30 16485 H 1525.26 3.0849 -1.98065 0
M  V30 16486 H 1524.91 5.01194 -0.425848 0
M  V30 16487 H 1524.61 5.48098 -2.11807 0
M  V30 16488 H 1526.13 5.9618 -1.31918 0
M  V30 16489 H 1527.55 4.73565 -3.23124 0
M  V30 16490 H 1525.94 4.48871 -3.9829 0
M  V30 16491 H 1527.01 3.0979 -3.73039 0
M  V30 16492 N 1528.36 1.11264 1.11616 0
M  V30 16493 C 1529.63 0.772174 1.79713 0
M  V30 16494 C 1530.01 -0.740055 1.97703 0
M  V30 16495 O 1529.36 -1.66939 1.56024 0
M  V30 16496 C 1529.57 1.53316 3.13521 0
M  V30 16497 C 1530.92 1.71124 3.88589 0
M  V30 16498 O 1531.94 1.49725 3.23204 0
M  V30 16499 O 1530.8 2.0667 5.05915 0
M  V30 16500 H 1527.9 0.279548 0.77832 0
M  V30 16501 H 1530.44 1.21596 1.18375 0
M  V30 16502 H 1529.21 2.56194 2.95771 0
M  V30 16503 H 1528.84 1.08281 3.82572 0
M  V30 16504 N 1529.83 -1.29188 0.902679 0
M  V30 16505 C 1530.74 -2.3138 0.387363 0
M  V30 16506 C 1531.76 -1.66067 -0.519396 0
M  V30 16507 O 1532.94 -1.97219 -0.408257 0
M  V30 16508 C 1530 -3.44675 -0.374137 0
M  V30 16509 C 1529.06 -4.25572 0.564503 0
M  V30 16510 C 1528.29 -5.33458 -0.160748 0
M  V30 16511 O 1528.52 -5.53349 -1.38423 0
M  V30 16512 O 1527.45 -5.99834 0.498259 0
M  V30 16513 H 1531.28 -2.77444 1.23525 0
M  V30 16514 H 1528.86 -1.33679 0.667106 0
M  V30 16515 H 1530.74 -4.13647 -0.80464 0
M  V30 16516 H 1529.42 -3.00714 -1.19804 0
M  V30 16517 H 1528.33 -3.59232 1.04418 0
M  V30 16518 H 1529.66 -4.73184 1.3549 0
M  V30 16519 N 1531.31 -0.665475 -1.42861 0
M  V30 16520 C 1532.24 0.00482845 -2.335 0
M  V30 16521 C 1533.22 0.799135 -1.50159 0
M  V30 16522 O 1534.41 0.75816 -1.78789 0
M  V30 16523 C 1531.54 0.963347 -3.33672 0
M  V30 16524 C 1530.49 0.278294 -4.27094 0
M  V30 16525 C 1529.82 1.34911 -5.174 0
M  V30 16526 C 1531.12 -0.836925 -5.15551 0
M  V30 16527 H 1532.81 -0.752129 -2.89799 0
M  V30 16528 H 1530.36 -0.363139 -1.39346 0
M  V30 16529 H 1532.31 1.44128 -3.95986 0
M  V30 16530 H 1531.03 1.75161 -2.75656 0
M  V30 16531 H 1529.69 -0.179314 -3.66161 0
M  V30 16532 H 1529.34 2.12912 -4.55716 0
M  V30 16533 H 1529.04 0.895919 -5.8073 0
M  V30 16534 H 1530.57 1.82816 -5.8259 0
M  V30 16535 H 1531.98 -0.440617 -5.71604 0
M  V30 16536 H 1530.38 -1.21533 -5.87665 0
M  V30 16537 H 1531.45 -1.6897 -4.54507 0
M  V30 16538 N 1532.79 1.52222 -0.408187 0
M  V30 16539 C 1534.02 2.05922 0.167187 0
M  V30 16540 C 1534.43 1.27824 1.3949 0
M  V30 16541 O 1533.77 0.323065 1.80837 0
M  V30 16542 C 1533.83 3.54734 0.583435 0
M  V30 16543 C 1533.5 4.53876 -0.533419 0
M  V30 16544 C 1534.49 5.00788 -1.3967 0
M  V30 16545 C 1532.18 4.97316 -0.705841 0
M  V30 16546 C 1534.17 5.89782 -2.41736 0
M  V30 16547 C 1531.86 5.86106 -1.72981 0
M  V30 16548 C 1532.86 6.32234 -2.58397 0
M  V30 16549 O 1532.55 7.19267 -3.59041 0
M  V30 16550 H 1532.28 0.675562 0.0243385 0
M  V30 16551 H 1534.83 1.97115 -0.577475 0
M  V30 16552 H 1533.06 3.61224 1.38036 0
M  V30 16553 H 1534.75 3.91085 1.08662 0
M  V30 16554 H 1535.52 4.67944 -1.27489 0
M  V30 16555 H 1531.4 4.60972 -0.0506558 0
M  V30 16556 H 1534.94 6.25708 -3.0844 0
M  V30 16557 H 1530.84 6.18364 -1.85193 0
M  V30 16558 H 1531.6 7.37376 -3.55274 0
M  V30 16559 N 1534.27 0.138579 1.5699 0
M  V30 16560 C 1535.18 -0.817548 2.19894 0
M  V30 16561 C 1536.19 -1.27806 1.18075 0
M  V30 16562 O 1537.37 -1.33699 1.5062 0
M  V30 16563 C 1534.43 -2.04244 2.80152 0
M  V30 16564 C 1533.5 -1.63197 3.97071 0
M  V30 16565 C 1532.73 -2.79847 4.54446 0
M  V30 16566 O 1532.95 -3.95827 4.10703 0
M  V30 16567 O 1531.89 -2.55804 5.44838 0
M  V30 16568 H 1535.71 -0.312123 3.02092 0
M  V30 16569 H 1533.3 -0.0880281 1.4914 0
M  V30 16570 H 1535.18 -2.75945 3.18485 0
M  V30 16571 H 1533.85 -2.53755 2.00973 0
M  V30 16572 H 1532.76 -0.885448 3.6347 0
M  V30 16573 H 1534.09 -1.1841 4.77745 0
M  V30 16574 N 1535.75 -1.57019 -0.13521 0
M  V30 16575 C 1536.69 -1.99148 -1.16657 0
M  V30 16576 C 1537.66 -0.860947 -1.42045 0
M  V30 16577 O 1538.85 -1.12393 -1.54183 0
M  V30 16578 C 1535.99 -2.3872 -2.49212 0
M  V30 16579 C 1535.1 -3.65117 -2.30898 0
M  V30 16580 C 1534.24 -3.9374 -3.5657 0
M  V30 16581 C 1533.27 -5.1337 -3.33343 0
M  V30 16582 N 1532.41 -5.37945 -4.51176 0
M  V30 16583 H 1537.25 -2.87052 -0.800312 0
M  V30 16584 H 1534.79 -1.42007 -0.383705 0
M  V30 16585 H 1536.75 -2.59695 -3.26518 0
M  V30 16586 H 1535.38 -1.53879 -2.83762 0
M  V30 16587 H 1534.43 -3.5185 -1.44588 0
M  V30 16588 H 1535.74 -4.52578 -2.09701 0
M  V30 16589 H 1534.89 -4.15277 -4.423 0
M  V30 16590 H 1533.63 -3.04723 -3.80782 0
M  V30 16591 H 1532.64 -4.91694 -2.46002 0
M  V30 16592 H 1533.86 -6.0395 -3.10517 0
M  V30 16593 H 1531.81 -4.51884 -4.75539 0
M  V30 16594 H 1531.73 -6.19698 -4.33025 0
M  V30 16595 H 1532.99 -5.63989 -5.38086 0
M  V30 16596 N 1537.22 0.404919 -1.52309 0
M  V30 16597 C 1538.17 1.49363 -1.75953 0
M  V30 16598 C 1539.14 1.54802 -0.60212 0
M  V30 16599 O 1540.33 1.71308 -0.840128 0
M  V30 16600 C 1537.47 2.86767 -1.91987 0
M  V30 16601 C 1536.58 2.90603 -3.19646 0
M  V30 16602 C 1535.71 4.19333 -3.26088 0
M  V30 16603 C 1534.75 4.17161 -4.47932 0
M  V30 16604 N 1533.89 5.37469 -4.51743 0
M  V30 16605 H 1538.73 1.28503 -2.6887 0
M  V30 16606 H 1536.27 0.623684 -1.33224 0
M  V30 16607 H 1538.23 3.66536 -1.99267 0
M  V30 16608 H 1536.86 3.06112 -1.02447 0
M  V30 16609 H 1535.91 2.033 -3.21517 0
M  V30 16610 H 1537.22 2.84864 -4.09456 0
M  V30 16611 H 1536.37 5.07497 -3.32463 0
M  V30 16612 H 1535.11 4.27774 -2.34224 0
M  V30 16613 H 1534.12 3.27386 -4.417 0
M  V30 16614 H 1535.34 4.10356 -5.41096 0
M  V30 16615 H 1533.29 5.46569 -3.62764 0
M  V30 16616 H 1533.21 5.3374 -5.35404 0
M  V30 16617 H 1534.47 6.27575 -4.62353 0
M  V30 16618 N 1538.7 1.43003 0.662408 0
M  V30 16619 C 1539.67 1.4713 1.75743 0
M  V30 16620 C 1540.67 0.357203 1.56782 0
M  V30 16621 O 1541.86 0.618566 1.62848 0
M  V30 16622 C 1538.99 1.31499 3.14517 0
M  V30 16623 H 1540.18 2.44641 1.73467 0
M  V30 16624 H 1537.73 1.29633 0.873208 0
M  V30 16625 H 1538.47 0.349596 3.2241 0
M  V30 16626 H 1538.25 2.12253 3.29683 0
M  V30 16627 H 1539.74 1.37298 3.94384 0
M  V30 16628 N 1540.18 -0.899904 1.29381 0
M  V30 16629 C 1541.13 -2.02537 1.14375 0
M  V30 16630 C 1542.12 -1.69296 0.0593904 0
M  V30 16631 O 1543.33 -1.78661 0.219174 0
M  V30 16632 H 1539.7 -0.663844 0.353291 0
M  V30 16633 H 1541.67 -2.12332 2.0966 0
M  V30 16634 C 1540.42 -3.37479 0.836845 0
M  V30 16635 H 1539.75 -3.6356 1.66326 0
M  V30 16636 H 1541.19 -4.16915 0.771873 0
M  V30 16637 C 1539.65 -3.33746 -0.459889 0
M  V30 16638 O 1540.18 -3.73203 -1.48601 0
M  V30 16639 N 1538.38 -2.86845 -0.465657 0
M  V30 16640 H 1537.93 -2.54931 0.369833 0
M  V30 16641 H 1537.89 -2.8473 -1.33327 0
M  V30 16642 N 1541.66 -1.11854 -1.11024 0
M  V30 16643 C 1542.9 -0.880082 -1.84483 0
M  V30 16644 C 1543.26 0.583659 -1.82914 0
M  V30 16645 O 1544.46 0.939053 -2.51864 0
M  V30 16646 C 1542.73 -1.43158 -3.27476 0
M  V30 16647 S 1544.29 -1.33075 -4.18135 0
M  V30 16648 H 1541.11 -0.317635 -0.636105 0
M  V30 16649 H 1543.71 -1.42688 -1.33642 0
M  V30 16650 H 1542.42 -2.49061 -3.26185 0
M  V30 16651 H 1541.95 -0.882005 -3.83385 0
M  V30 16652 H 1543.96 -0.298149 -4.95303 0
M  V30 16653 N 1543.14 1.28707 -0.909517 0
M  V30 16654 C 1544.39 1.94437 -0.536401 0
M  V30 16655 C 1544.7 1.72416 0.923685 0
M  V30 16656 O 1545.9 2.32333 1.40477 0
M  V30 16657 C 1544.36 3.48246 -0.908455 0
M  V30 16658 C 1543.97 3.79051 -2.38798 0
M  V30 16659 C 1545.71 4.20156 -0.605721 0
M  V30 16660 C 1543.62 5.2615 -2.70038 0
M  V30 16661 H 1542.55 0.727842 -0.196882 0
M  V30 16662 H 1545.2 1.46283 -1.10786 0
M  V30 16663 H 1543.58 3.95107 -0.265829 0
M  V30 16664 H 1544.76 3.43014 -3.07698 0
M  V30 16665 H 1543.07 3.20303 -2.66074 0
M  V30 16666 H 1545.67 5.28439 -0.815849 0
M  V30 16667 H 1546.01 4.13792 0.456266 0
M  V30 16668 H 1546.54 3.79059 -1.20662 0
M  V30 16669 H 1543.28 5.37587 -3.75073 0
M  V30 16670 H 1542.8 5.63399 -2.05771 0
M  V30 16671 H 1544.48 5.93846 -2.56819 0
M  V30 16672 N 1544.61 0.673042 1.42506 0
M  V30 16673 C 1545.58 0.00283156 2.292 0
M  V30 16674 C 1546.58 -0.73077 1.43235 0
M  V30 16675 O 1547.77 -0.569037 1.64644 0
M  V30 16676 C 1544.9 -1.00666 3.25698 0
M  V30 16677 H 1546.09 0.765869 2.89956 0
M  V30 16678 H 1543.65 0.435301 1.50116 0
M  V30 16679 H 1544.38 -1.79825 2.69877 0
M  V30 16680 H 1544.17 -0.484043 3.89101 0
M  V30 16681 H 1545.66 -1.47409 3.90718 0
M  V30 16682 N 1546.09 -1.52004 0.416254 0
M  V30 16683 C 1547.04 -2.28771 -0.420331 0
M  V30 16684 C 1548.03 -1.33751 -1.03957 0
M  V30 16685 O 1549.24 -1.51181 -0.976951 0
M  V30 16686 H 1545.62 -0.735991 -0.15434 0
M  V30 16687 H 1547.59 -2.97366 0.248255 0
M  V30 16688 C 1546.34 -3.12675 -1.52085 0
M  V30 16689 H 1545.66 -3.85665 -1.0537 0
M  V30 16690 H 1547.1 -3.69482 -2.07989 0
M  V30 16691 C 1545.56 -2.26692 -2.49224 0
M  V30 16692 O 1546.09 -1.91205 -3.53276 0
M  V30 16693 N 1544.29 -1.90322 -2.19604 0
M  V30 16694 H 1543.84 -2.1938 -1.35019 0
M  V30 16695 H 1543.8 -1.33086 -2.84843 0
M  V30 16696 N 1547.57 -0.146903 -1.56914 0
M  V30 16697 C 1548.52 0.804576 -2.13332 0
M  V30 16698 C 1549.5 1.2095 -1.06112 0
M  V30 16699 O 1550.7 1.17594 -1.3229 0
M  V30 16700 C 1547.83 2.0437 -2.7584 0
M  V30 16701 C 1546.91 1.66188 -3.90183 0
M  V30 16702 N 1547.3 0.988267 -4.96051 0
M  V30 16703 C 1545.6 1.9546 -4.00888 0
M  V30 16704 C 1546.3 0.803957 -5.76118 0
M  V30 16705 N 1545.28 1.33779 -5.26882 0
M  V30 16706 H 1549.08 0.280693 -2.92557 0
M  V30 16707 H 1546.59 0.0546404 -1.62308 0
M  V30 16708 H 1548.59 2.73532 -3.1462 0
M  V30 16709 H 1547.25 2.57276 -1.98089 0
M  V30 16710 H 1548.26 0.64904 -5.13817 0
M  V30 16711 H 1544.94 2.50216 -3.34213 0
M  V30 16712 H 1546.33 0.273065 -6.71345 0
M  V30 16713 N 1549.05 1.57088 0.126881 0
M  V30 16714 C 1550.28 1.88614 0.850444 0
M  V30 16715 C 1550.69 0.737309 1.73808 0
M  V30 16716 O 1550.05 -0.292196 1.80146 0
M  V30 16717 C 1550.1 3.19541 1.69044 0
M  V30 16718 O 1549.82 4.3 0.838555 0
M  V30 16719 C 1551.32 3.64717 2.51985 0
M  V30 16720 H 1548.54 0.624715 0.244892 0
M  V30 16721 H 1551.09 2.04184 0.113634 0
M  V30 16722 H 1549.24 3.05664 2.38009 0
M  V30 16723 H 1549.65 5.04992 1.41717 0
M  V30 16724 H 1551.13 4.5911 3.06467 0
M  V30 16725 H 1551.61 2.90986 3.28974 0
M  V30 16726 H 1552.21 3.81356 1.88276 0
M  V30 16727 N 1550.53 -0.396836 1.52522 0
M  V30 16728 C 1551.77 -1.14037 1.66853 0
M  V30 16729 C 1552.1 -1.90706 0.406987 0
M  V30 16730 O 1551.37 -1.87165 -0.578443 0
M  V30 16731 H 1549.95 -0.423967 0.615029 0
M  V30 16732 H 1552.61 -0.451042 1.89609 0
M  V30 16733 H 1551.7 -1.84763 2.51533 0
M  V30 16734 N 1552.01 -1.43353 -0.654814 0
M  V30 16735 C 1552.97 -1.4806 -1.7496 0
M  V30 16736 C 1553.97 -0.365513 -1.56591 0
M  V30 16737 O 1555.16 -0.627194 -1.62517 0
M  V30 16738 C 1552.29 -1.33165 -3.13815 0
M  V30 16739 H 1553.48 -2.45557 -1.72167 0
M  V30 16740 H 1551.04 -1.30094 -0.86632 0
M  V30 16741 H 1551.77 -0.366689 -3.2222 0
M  V30 16742 H 1551.56 -2.13998 -3.28553 0
M  V30 16743 H 1553.05 -1.39388 -3.93651 0
M  V30 16744 N 1553.48 0.89303 -1.29857 0
M  V30 16745 C 1554.76 1.62492 -1.08884 0
M  V30 16746 C 1555.14 2.07926 0.364695 0
M  V30 16747 O 1554.49 1.84009 1.35473 0
M  V30 16748 C 1554.7 2.80063 -2.08245 0
M  V30 16749 C 1556.05 3.50589 -2.39526 0
M  V30 16750 O 1557.07 2.90241 -2.06492 0
M  V30 16751 O 1555.93 4.59399 -2.95998 0
M  V30 16752 H 1553.02 0.713805 -0.417626 0
M  V30 16753 H 1555.57 0.940513 -1.41253 0
M  V30 16754 H 1554.34 2.43735 -3.06119 0
M  V30 16755 H 1553.96 3.56205 -1.76645 0
M  V30 16756 N 1554.96 1.12442 1.10429 0
M  V30 16757 C 1556.21 0.874466 1.81758 0
M  V30 16758 C 1556.52 -0.601487 1.86122 0
M  V30 16759 O 1557.73 -0.968037 2.53656 0
M  V30 16760 C 1556.19 1.51478 3.2647 0
M  V30 16761 C 1555.79 3.02552 3.30403 0
M  V30 16762 C 1557.54 1.34511 4.02625 0
M  V30 16763 C 1555.44 3.59518 4.69575 0
M  V30 16764 H 1554.37 0.323494 0.681078 0
M  V30 16765 H 1557.03 1.35091 1.24188 0
M  V30 16766 H 1555.41 0.966 3.84037 0
M  V30 16767 H 1556.58 3.63924 2.82659 0
M  V30 16768 H 1554.9 3.18917 2.67733 0
M  V30 16769 H 1557.49 1.74492 5.05427 0
M  V30 16770 H 1557.84 0.288788 4.15297 0
M  V30 16771 H 1558.37 1.86311 3.51473 0
M  V30 16772 H 1555.11 4.6491 4.62103 0
M  V30 16773 H 1554.63 3.02922 5.17686 0
M  V30 16774 H 1556.31 3.58581 5.38543 0
M  V30 16775 N 1556.44 -1.28223 0.91633 0
M  V30 16776 C 1557.39 -2.24848 0.377829 0
M  V30 16777 C 1558.37 -1.52553 -0.511507 0
M  V30 16778 O 1559.57 -1.73489 -0.350808 0
M  V30 16779 C 1556.69 -3.41206 -0.378635 0
M  V30 16780 C 1555.78 -4.20818 0.526567 0
M  V30 16781 N 1556.17 -4.78429 1.64132 0
M  V30 16782 C 1554.47 -4.44796 0.327436 0
M  V30 16783 C 1555.17 -5.38355 2.20339 0
M  V30 16784 N 1554.15 -5.22657 1.49434 0
M  V30 16785 H 1557.95 -2.66963 1.22914 0
M  V30 16786 H 1555.46 -1.43024 0.769282 0
M  V30 16787 H 1557.46 -4.09514 -0.781283 0
M  V30 16788 H 1556.12 -3.00623 -1.22701 0
M  V30 16789 H 1557.13 -4.76718 2.02387 0
M  V30 16790 H 1553.81 -4.14717 -0.481214 0
M  V30 16791 H 1555.2 -5.93948 3.14126 0
M  V30 16792 N 1557.92 -0.68059 -1.42147 0
M  V30 16793 C 1559.33 -0.350691 -1.55699 0
M  V30 16794 C 1559.53 1.1435 -1.6591 0
M  V30 16795 O 1558.59 1.92905 -1.62923 0
M  V30 16796 C 1559.9 -1.08608 -2.80401 0
M  V30 16797 C 1561.45 -1.06897 -2.9418 0
M  V30 16798 C 1561.93 -1.78581 -4.2175 0
M  V30 16799 N 1563.42 -1.75477 -4.28675 0
M  V30 16800 C 1564.15 -2.27794 -5.26211 0
M  V30 16801 N 1563.65 -2.88518 -6.29865 0
M  V30 16802 N 1565.44 -2.18135 -5.18048 0
M  V30 16803 H 1557.59 -1.64988 -1.33763 0
M  V30 16804 H 1559.85 -0.695411 -0.644289 0
M  V30 16805 H 1559.56 -2.14113 -2.79014 0
M  V30 16806 H 1559.43 -0.655022 -3.71469 0
M  V30 16807 H 1561.82 -0.0222464 -2.95092 0
M  V30 16808 H 1561.9 -1.53897 -2.04327 0
M  V30 16809 H 1561.55 -2.83225 -4.21599 0
M  V30 16810 H 1561.48 -1.29027 -5.10548 0
M  V30 16811 H 1563.97 -1.31191 -3.54397 0
M  V30 16812 H 1564.28 -3.26043 -7.00654 0
M  V30 16813 H 1562.63 -2.92589 -6.3041 0
M  V30 16814 H 1565.82 -1.7038 -4.35991 0
M  V30 16815 H 1565.99 -2.59213 -5.93896 0
M  V30 16816 N 1559.4 1.51781 -0.424309 0
M  V30 16817 C 1560.34 2.2899 0.408193 0
M  V30 16818 C 1561.34 1.34301 1.03246 0
M  V30 16819 O 1562.54 1.51697 0.968919 0
M  V30 16820 H 1558.92 0.736799 0.150435 0
M  V30 16821 H 1560.89 2.9723 -0.264022 0
M  V30 16822 C 1559.64 3.13477 1.50425 0
M  V30 16823 H 1558.96 3.86218 1.03324 0
M  V30 16824 H 1560.4 3.7058 2.06026 0
M  V30 16825 C 1558.86 2.2801 2.48018 0
M  V30 16826 O 1559.39 1.93076 3.52257 0
M  V30 16827 N 1557.6 1.91484 2.18591 0
M  V30 16828 H 1557.14 2.20093 1.33854 0
M  V30 16829 H 1557.1 1.34595 2.84133 0
M  V30 16830 N 1560.87 0.155222 1.56834 0
M  V30 16831 C 1562.12 -0.49285 1.95998 0
M  V30 16832 C 1562.44 -1.64857 1.0415 0
M  V30 16833 O 1561.71 -1.9562 0.104654 0
M  V30 16834 H 1560.29 -0.185063 0.723713 0
M  V30 16835 H 1562.95 0.232644 1.93507 0
M  V30 16836 H 1562.05 -0.863552 2.99915 0
M  V30 16837 N 1562.35 -1.57153 -0.118549 0
M  V30 16838 C 1563.63 -1.75846 -0.856587 0
M  V30 16839 C 1564.01 -0.730801 -1.98047 0
M  V30 16840 O 1563.36 0.245156 -2.27181 0
M  V30 16841 C 1563.57 -3.20864 -1.37286 0
M  V30 16842 C 1564.91 -3.83378 -1.82501 0
M  V30 16843 O 1565.94 -3.24469 -1.46964 0
M  V30 16844 O 1564.8 -4.86922 -2.48132 0
M  V30 16845 H 1561.89 -0.72002 -0.406817 0
M  V30 16846 H 1564.44 -1.69392 -0.102254 0
M  V30 16847 H 1563.21 -3.87177 -0.566531 0
M  V30 16848 H 1562.83 -3.31858 -2.18988 0
M  V30 16849 N 1563.83 0.388742 -1.5273 0
M  V30 16850 C 1565.08 1.13375 -1.67787 0
M  V30 16851 C 1565.4 1.89957 -0.417925 0
M  V30 16852 O 1564.66 1.86286 0.599682 0
M  V30 16853 C 1564.96 2.13792 -2.86405 0
M  V30 16854 C 1564.62 1.53865 -4.23835 0
M  V30 16855 C 1563.29 1.37248 -4.61212 0
M  V30 16856 C 1565.64 1.10298 -5.09395 0
M  V30 16857 C 1562.97 0.756119 -5.81807 0
M  V30 16858 C 1565.32 0.500723 -6.30615 0
M  V30 16859 C 1563.98 0.321851 -6.66724 0
M  V30 16860 H 1563.25 0.414868 -0.613975 0
M  V30 16861 H 1565.9 0.418351 -1.86874 0
M  V30 16862 H 1564.2 2.91551 -2.61735 0
M  V30 16863 H 1565.9 2.71346 -2.95249 0
M  V30 16864 H 1562.49 1.67787 -3.94393 0
M  V30 16865 H 1566.68 1.21938 -4.81087 0
M  V30 16866 H 1561.93 0.605734 -6.08392 0
M  V30 16867 H 1566.11 0.154839 -6.96228 0
M  V30 16868 H 1563.73 -0.157836 -7.60036 0
M  V30 16869 N 1565.31 1.43698 0.647203 0
M  V30 16870 C 1566.24 1.45295 1.77262 0
M  V30 16871 C 1567.25 0.34831 1.5903 0
M  V30 16872 O 1568.44 0.613106 1.6764 0
M  V30 16873 C 1565.54 1.25584 3.14773 0
M  V30 16874 C 1564.71 2.48998 3.59609 0
M  V30 16875 C 1563.77 2.24423 4.75942 0
M  V30 16876 O 1562.8 2.97813 4.85073 0
M  V30 16877 N 1564 1.26465 5.66557 0
M  V30 16878 H 1566.77 2.42311 1.76368 0
M  V30 16879 H 1564.33 1.38931 0.831247 0
M  V30 16880 H 1566.32 1.07016 3.90294 0
M  V30 16881 H 1564.89 0.369927 3.10403 0
M  V30 16882 H 1564.11 2.82951 2.74467 0
M  V30 16883 H 1565.4 3.31119 3.86313 0
M  V30 16884 H 1564.8 0.658206 5.61858 0
M  V30 16885 H 1563.35 1.13879 6.41775 0
M  V30 16886 N 1566.79 -0.886131 1.30328 0
M  V30 16887 C 1567.73 -1.99174 1.16612 0
M  V30 16888 C 1568.7 -1.66006 0.0559202 0
M  V30 16889 O 1569.89 -1.89458 0.225897 0
M  V30 16890 C 1567.03 -3.34142 0.862726 0
M  V30 16891 C 1566.14 -3.80008 2.05469 0
M  V30 16892 C 1565.28 -5.03617 1.68949 0
M  V30 16893 C 1564.32 -5.41888 2.84647 0
M  V30 16894 N 1563.45 -6.56678 2.48431 0
M  V30 16895 H 1568.29 -2.10238 2.11197 0
M  V30 16896 H 1565.83 -1.02941 1.05079 0
M  V30 16897 H 1567.79 -4.11826 0.667447 0
M  V30 16898 H 1566.42 -3.22767 -0.0462461 0
M  V30 16899 H 1565.47 -2.98243 2.36126 0
M  V30 16900 H 1566.78 -4.04312 2.92119 0
M  V30 16901 H 1565.94 -5.88923 1.45789 0
M  V30 16902 H 1564.67 -4.81182 0.794674 0
M  V30 16903 H 1563.68 -4.55109 3.08474 0
M  V30 16904 H 1564.9 -5.66296 3.74813 0
M  V30 16905 H 1562.85 -6.35821 1.61453 0
M  V30 16906 H 1562.77 -6.80846 3.28611 0
M  V30 16907 H 1564.04 -7.45219 2.28624 0
M  V30 16908 N 1568.26 -1.13026 -1.09832 0
M  V30 16909 C 1569.21 -0.799174 -2.1844 0
M  V30 16910 C 1570.21 0.216695 -1.68008 0
M  V30 16911 O 1571.41 0.0742662 -1.79847 0
M  V30 16912 H 1567.79 -0.24064 -0.712458 0
M  V30 16913 H 1569.76 -1.72342 -2.436 0
M  V30 16914 C 1568.51 -0.276925 -3.46595 0
M  V30 16915 H 1567.83 -1.04993 -3.85768 0
M  V30 16916 H 1569.27 -0.0836468 -4.23917 0
M  V30 16917 C 1567.73 0.996479 -3.21826 0
M  V30 16918 O 1568.26 2.0731 -3.44072 0
M  V30 16919 N 1566.47 0.925903 -2.75455 0
M  V30 16920 H 1566.01 0.0496383 -2.57552 0
M  V30 16921 H 1565.97 1.77853 -2.5926 0
M  V30 16922 N 1569.74 1.27735 -0.923117 0
M  V30 16923 C 1570.99 1.94185 -0.56004 0
M  V30 16924 C 1571.31 1.72945 0.90084 0
M  V30 16925 O 1570.58 1.07453 1.63801 0
M  V30 16926 H 1569.16 0.718568 -0.204129 0
M  V30 16927 H 1571.82 1.55535 -1.17451 0
M  V30 16928 H 1570.92 3.02644 -0.762424 0
M  V30 16929 N 1571.22 0.688118 1.41784 0
M  V30 16930 C 1572.17 0.00661035 2.32599 0
M  V30 16931 C 1573.16 -0.776475 1.50556 0
M  V30 16932 O 1574.37 -0.682937 1.66541 0
M  V30 16933 H 1570.74 -0.0166615 0.751815 0
M  V30 16934 H 1572.71 0.789718 2.8776 0
M  V30 16935 C 1571.46 -0.921251 3.35273 0
M  V30 16936 H 1570.79 -0.328099 3.98451 0
M  V30 16937 H 1572.23 -1.36655 4.01374 0
M  V30 16938 C 1570.69 -2.03393 2.68576 0
M  V30 16939 O 1571.22 -3.1219 2.52785 0
M  V30 16940 N 1569.42 -1.8095 2.27389 0
M  V30 16941 H 1568.97 -0.924692 2.40431 0
M  V30 16942 H 1568.93 -2.55584 1.83096 0
M  V30 16943 N 1572.7 -1.51554 0.432352 0
M  V30 16944 C 1573.95 -2.01645 -0.135511 0
M  V30 16945 C 1574.27 -1.31874 -1.43647 0
M  V30 16946 O 1573.54 -0.451746 -1.9062 0
M  V30 16947 H 1572.12 -0.745113 -0.0530683 0
M  V30 16948 H 1574.78 -1.86258 0.573917 0
M  V30 16949 H 1573.88 -3.10506 -0.315001 0
M  V30 16950 N 1574.18 -0.163538 -1.56749 0
M  V30 16951 C 1575.4 0.489888 -2.01017 0
M  V30 16952 C 1575.82 1.57327 -1.04373 0
M  V30 16953 O 1575.18 1.82449 -0.0433414 0
M  V30 16954 C 1575.23 1.07537 -3.45135 0
M  V30 16955 O 1574.95 0.0352465 -4.38086 0
M  V30 16956 C 1576.45 1.80779 -4.04764 0
M  V30 16957 H 1573.67 0.126095 -0.659046 0
M  V30 16958 H 1576.21 -0.262982 -2.02802 0
M  V30 16959 H 1574.37 1.77877 -3.44149 0
M  V30 16960 H 1574.78 0.466426 -5.22422 0
M  V30 16961 H 1576.26 2.17014 -5.07552 0
M  V30 16962 H 1576.73 2.6999 -3.46413 0
M  V30 16963 H 1577.34 1.15098 -4.09429 0
M  V30 16964 N 1575.65 1.57214 0.110213 0
M  V30 16965 C 1576.88 1.89505 0.830391 0
M  V30 16966 C 1577.3 0.755702 1.73016 0
M  V30 16967 O 1576.65 -0.273072 1.80445 0
M  V30 16968 C 1576.71 3.21316 1.65646 0
M  V30 16969 O 1576.43 4.30865 0.7929 0
M  V30 16970 C 1577.93 3.67369 2.48102 0
M  V30 16971 H 1575.15 0.627277 0.238252 0
M  V30 16972 H 1577.69 2.04293 0.0919716 0
M  V30 16973 H 1575.85 3.08171 2.34754 0
M  V30 16974 H 1576.26 5.06466 1.36353 0
M  V30 16975 H 1577.73 4.62335 3.0158 0
M  V30 16976 H 1578.21 2.94459 3.25869 0
M  V30 16977 H 1578.82 3.83331 1.8422 0
M  V30 16978 N 1577.13 -0.380637 1.52934 0
M  V30 16979 C 1578.36 -1.15033 1.72575 0
M  V30 16980 C 1578.78 -1.82715 0.446869 0
M  V30 16981 O 1578.14 -1.71154 -0.598004 0
M  V30 16982 C 1578.19 -2.16773 2.8817 0
M  V30 16983 O 1577.29 -3.23539 2.55727 0
M  V30 16984 H 1576.63 -0.334489 0.573597 0
M  V30 16985 H 1579.16 -0.442369 1.9976 0
M  V30 16986 H 1579.17 -2.60629 3.13905 0
M  V30 16987 H 1577.85 -1.669 3.80943 0
M  V30 16988 H 1576.43 -2.84761 2.4076 0
M  V30 16989 N 1578.61 -1.44039 -0.639573 0
M  V30 16990 C 1579.86 -1.46088 -1.39652 0
M  V30 16991 C 1580.18 -0.0914602 -1.94785 0
M  V30 16992 O 1579.45 0.875097 -1.75268 0
M  V30 16993 H 1578.03 -0.537901 -0.518335 0
M  V30 16994 H 1580.69 -1.79751 -0.753365 0
M  V30 16995 H 1579.79 -2.1814 -2.23207 0
M  V30 16996 N 1580.09 0.879207 -1.30796 0
M  V30 16997 C 1581.34 1.62625 -1.19315 0
M  V30 16998 C 1581.65 1.93999 0.249731 0
M  V30 16999 O 1582.86 2.67112 0.486129 0
M  V30 17000 C 1581.31 2.93129 -2.08815 0
M  V30 17001 C 1580.92 2.69272 -3.58045 0
M  V30 17002 C 1582.66 3.71105 -2.0611 0
M  V30 17003 C 1580.57 3.95628 -4.39582 0
M  V30 17004 H 1579.5 0.61015 -0.442981 0
M  V30 17005 H 1582.15 0.972892 -1.55586 0
M  V30 17006 H 1580.53 3.59789 -1.65432 0
M  V30 17007 H 1581.71 2.11078 -4.09613 0
M  V30 17008 H 1580.02 2.04664 -3.62632 0
M  V30 17009 H 1582.62 4.64824 -2.64277 0
M  V30 17010 H 1582.96 4.02946 -1.04597 0
M  V30 17011 H 1583.5 3.11315 -2.47644 0
M  V30 17012 H 1580.24 3.68943 -5.41813 0
M  V30 17013 H 1579.76 4.53307 -3.92775 0
M  V30 17014 H 1581.43 4.63597 -4.51317 0
M  V30 17015 N 1581.57 1.13606 1.09231 0
M  V30 17016 C 1582.82 0.897278 1.81089 0
M  V30 17017 C 1583.14 -0.578066 1.86235 0
M  V30 17018 O 1582.41 -1.42018 1.34935 0
M  V30 17019 H 1580.99 0.328971 0.670662 0
M  V30 17020 H 1583.65 1.433 1.32103 0
M  V30 17021 H 1582.74 1.28979 2.84202 0
M  V30 17022 N 1583.05 -1.27244 0.929878 0
M  V30 17023 C 1584.27 -1.98912 0.587277 0
M  V30 17024 C 1584.7 -1.68888 -0.828168 0
M  V30 17025 O 1584.05 -0.930394 -1.55606 0
M  V30 17026 C 1584.1 -3.51097 0.822399 0
M  V30 17027 O 1583.21 -4.12251 -0.110968 0
M  V30 17028 H 1582.55 -0.624404 0.225867 0
M  V30 17029 H 1585.08 -1.61997 1.24973 0
M  V30 17030 H 1585.09 -4.01255 0.738824 0
M  V30 17031 H 1583.76 -3.72282 1.85416 0
M  V30 17032 H 1582.34 -3.72893 0.0227053 0
M  V30 17033 N 1584.52 -0.695628 -1.41417 0
M  V30 17034 C 1585.75 -0.234163 -2.06074 0
M  V30 17035 C 1586.17 1.10796 -1.52006 0
M  V30 17036 O 1585.53 1.6936 -0.64705 0
M  V30 17037 C 1585.58 -0.202353 -3.60032 0
M  V30 17038 O 1584.68 0.822767 -4.04109 0
M  V30 17039 H 1584.02 -0.114395 -0.654072 0
M  V30 17040 H 1586.55 -0.950503 -1.81181 0
M  V30 17041 H 1586.56 -0.0332321 -4.07986 0
M  V30 17042 H 1585.24 -1.18188 -3.98754 0
M  V30 17043 H 1583.82 0.622995 -3.67659 0
M  V30 17044 N 1586 1.51322 -0.440383 0
M  V30 17045 C 1587.25 2.02413 0.125248 0
M  V30 17046 C 1587.58 1.32374 1.42094 0
M  V30 17047 O 1586.86 0.439624 1.89467 0
M  V30 17048 C 1587.14 3.58483 0.340858 0
M  V30 17049 C 1586.99 4.39134 -0.973701 0
M  V30 17050 C 1588.31 4.25891 1.10927 0
M  V30 17051 H 1585.43 0.735683 0.0440452 0
M  V30 17052 H 1588.07 1.80932 -0.579976 0
M  V30 17053 H 1586.22 3.76917 0.941572 0
M  V30 17054 H 1587.89 4.32343 -1.60863 0
M  V30 17055 H 1586.14 4.04097 -1.57759 0
M  V30 17056 H 1586.81 5.46506 -0.776845 0
M  V30 17057 H 1589.28 4.11746 0.600403 0
M  V30 17058 H 1588.16 5.34967 1.2289 0
M  V30 17059 H 1588.42 3.86958 2.13813 0
M  V30 17060 N 1587.48 0.171848 1.5666 0
M  V30 17061 C 1588.39 -0.770721 2.21579 0
M  V30 17062 C 1589.41 -1.25273 1.20759 0
M  V30 17063 O 1590.58 -1.30474 1.53422 0
M  V30 17064 C 1587.65 -1.98256 2.84422 0
M  V30 17065 C 1586.71 -1.54738 4.00443 0
M  V30 17066 C 1585.94 -2.70145 4.6028 0
M  V30 17067 O 1586.16 -3.87026 4.19007 0
M  V30 17068 O 1585.1 -2.44189 5.50141 0
M  V30 17069 H 1588.92 -0.247974 3.02686 0
M  V30 17070 H 1586.51 -0.0563734 1.49294 0
M  V30 17071 H 1588.39 -2.69127 3.24266 0
M  V30 17072 H 1587.07 -2.49435 2.0631 0
M  V30 17073 H 1585.97 -0.808152 3.65267 0
M  V30 17074 H 1587.31 -1.08249 4.80149 0
M  V30 17075 N 1588.96 -1.5727 -0.101874 0
M  V30 17076 C 1589.9 -2.01577 -1.12406 0
M  V30 17077 C 1590.87 -0.890883 -1.40187 0
M  V30 17078 O 1592.06 -1.15638 -1.51764 0
M  V30 17079 C 1589.2 -2.43952 -2.44093 0
M  V30 17080 C 1588.31 -3.69932 -2.23101 0
M  V30 17081 C 1587.45 -4.01215 -3.48138 0
M  V30 17082 C 1586.49 -5.20325 -3.22379 0
M  V30 17083 N 1585.62 -5.47394 -4.39664 0
M  V30 17084 H 1590.46 -2.88685 -0.739244 0
M  V30 17085 H 1588 -1.42789 -0.353497 0
M  V30 17086 H 1589.96 -2.66563 -3.20936 0
M  V30 17087 H 1588.59 -1.59863 -2.80435 0
M  V30 17088 H 1587.64 -3.54838 -1.37092 0
M  V30 17089 H 1588.95 -4.56924 -2.00054 0
M  V30 17090 H 1588.11 -4.24566 -4.33392 0
M  V30 17091 H 1586.85 -3.12732 -3.74233 0
M  V30 17092 H 1585.85 -4.96802 -2.35517 0
M  V30 17093 H 1587.08 -6.10401 -2.97637 0
M  V30 17094 H 1585.02 -4.61869 -4.65847 0
M  V30 17095 H 1584.94 -6.28743 -4.19783 0
M  V30 17096 H 1586.21 -5.75276 -5.26002 0
M  V30 17097 N 1590.44 0.372521 -1.53134 0
M  V30 17098 C 1591.67 1.13503 -1.72628 0
M  V30 17099 C 1592.07 1.83725 -0.451877 0
M  V30 17100 O 1591.42 1.74152 0.584539 0
M  V30 17101 C 1591.48 2.21445 -2.832 0
M  V30 17102 C 1591.14 1.7105 -4.23782 0
M  V30 17103 C 1592.14 1.17832 -5.06371 0
M  V30 17104 C 1589.82 1.76773 -4.70167 0
M  V30 17105 C 1591.82 0.710049 -6.33433 0
M  V30 17106 C 1589.51 1.29558 -5.97208 0
M  V30 17107 C 1590.5 0.767634 -6.78673 0
M  V30 17108 O 1590.19 0.302432 -8.03331 0
M  V30 17109 H 1589.92 0.3456 -0.580979 0
M  V30 17110 H 1592.48 0.439479 -2.00643 0
M  V30 17111 H 1590.71 2.94473 -2.50644 0
M  V30 17112 H 1592.4 2.83036 -2.90939 0
M  V30 17113 H 1593.16 1.12754 -4.71711 0
M  V30 17114 H 1589.04 2.16808 -4.06836 0
M  V30 17115 H 1592.59 0.297293 -6.96966 0
M  V30 17116 H 1588.48 1.34327 -6.31369 0
M  V30 17117 H 1589.25 0.4224 -8.17409 0
M  V30 17118 N 1591.91 1.44376 0.631925 0
M  V30 17119 C 1593.16 1.46398 1.38747 0
M  V30 17120 C 1593.48 0.100149 1.95343 0
M  V30 17121 O 1594.68 -0.00210908 2.715 0
M  V30 17122 C 1593.14 2.57731 2.51203 0
M  V30 17123 C 1592.75 4.00317 2.01123 0
M  V30 17124 C 1594.49 2.68972 3.28412 0
M  V30 17125 C 1592.4 5.03075 3.10917 0
M  V30 17126 H 1591.33 0.544667 0.521396 0
M  V30 17127 H 1593.98 1.70439 0.679912 0
M  V30 17128 H 1592.36 2.26928 3.2453 0
M  V30 17129 H 1593.53 4.40683 1.34666 0
M  V30 17130 H 1591.85 3.93311 1.36732 0
M  V30 17131 H 1594.45 3.42916 4.10259 0
M  V30 17132 H 1594.79 1.74762 3.77841 0
M  V30 17133 H 1595.32 2.9918 2.62176 0
M  V30 17134 H 1592.06 5.98911 2.66433 0
M  V30 17135 H 1591.58 4.67302 3.76017 0
M  V30 17136 H 1593.26 5.2674 3.75705 0
M  V30 17137 N 1593.39 -0.872258 1.31261 0
M  V30 17138 C 1594.64 -1.6199 1.20176 0
M  V30 17139 C 1594.95 -1.94129 -0.239439 0
M  V30 17140 O 1596.16 -2.67366 -0.471956 0
M  V30 17141 C 1594.62 -2.92017 2.10366 0
M  V30 17142 C 1594.22 -2.6737 3.59468 0
M  V30 17143 C 1595.97 -3.70007 2.08075 0
M  V30 17144 C 1593.87 -3.93291 4.41674 0
M  V30 17145 H 1592.8 -0.607793 0.446211 0
M  V30 17146 H 1595.46 -0.964627 1.561 0
M  V30 17147 H 1593.84 -3.58907 1.67338 0
M  V30 17148 H 1595.01 -2.08902 4.10727 0
M  V30 17149 H 1593.33 -2.02738 3.63712 0
M  V30 17150 H 1595.92 -4.63416 2.66739 0
M  V30 17151 H 1596.27 -4.02385 1.06733 0
M  V30 17152 H 1596.8 -3.09998 2.49291 0
M  V30 17153 H 1593.54 -3.66064 5.43762 0
M  V30 17154 H 1593.06 -4.51218 3.95174 0
M  V30 17155 H 1594.74 -4.61197 4.53769 0
M  V30 17156 N 1594.87 -1.14184 -1.08627 0
M  V30 17157 C 1596.15 -0.81955 -1.77603 0
M  V30 17158 C 1596.53 0.687377 -1.99595 0
M  V30 17159 O 1595.87 1.62744 -1.60396 0
M  V30 17160 C 1596.08 -1.61574 -3.09346 0
M  V30 17161 C 1597.43 -1.81367 -3.83916 0
M  V30 17162 O 1598.46 -1.58241 -3.19121 0
M  V30 17163 O 1597.32 -2.20011 -5.00257 0
M  V30 17164 H 1594.41 -0.300086 -0.770635 0
M  V30 17165 H 1596.96 -1.24691 -1.15109 0
M  V30 17166 H 1595.73 -2.63946 -2.88874 0
M  V30 17167 H 1595.35 -1.18386 -3.79566 0
M  V30 17168 N 1596.35 1.26749 -0.936613 0
M  V30 17169 C 1597.26 2.30272 -0.448573 0
M  V30 17170 C 1598.27 1.67386 0.475184 0
M  V30 17171 O 1599.45 1.98232 0.355825 0
M  V30 17172 C 1596.52 3.45546 0.28262 0
M  V30 17173 C 1595.58 4.23926 -0.677138 0
M  V30 17174 C 1594.81 5.33697 0.019255 0
M  V30 17175 O 1595.03 5.56825 1.23703 0
M  V30 17176 O 1593.97 5.98302 -0.657119 0
M  V30 17177 H 1597.79 2.74072 -1.30838 0
M  V30 17178 H 1595.38 1.31863 -0.702314 0
M  V30 17179 H 1597.26 4.15635 0.694686 0
M  V30 17180 H 1595.93 3.03784 1.11789 0
M  V30 17181 H 1594.84 3.56337 -1.13906 0
M  V30 17182 H 1596.17 4.69425 -1.47988 0
M  V30 17183 N 1597.83 0.703118 1.41046 0
M  V30 17184 C 1599.1 0.164985 1.94903 0
M  V30 17185 C 1599.48 -1.32665 1.64205 0
M  V30 17186 O 1598.83 -2.07675 0.953058 0
M  V30 17187 C 1599.04 0.464354 3.45897 0
M  V30 17188 C 1600.39 0.396205 4.22747 0
M  V30 17189 O 1601.41 0.399698 3.5395 0
M  V30 17190 O 1600.27 0.362874 5.45294 0
M  V30 17191 H 1597.37 0.0193901 0.826773 0
M  V30 17192 H 1599.91 0.779796 1.50722 0
M  V30 17193 H 1598.68 1.49653 3.61552 0
M  V30 17194 H 1598.31 -0.18105 3.97188 0
M  V30 17195 N 1599.3 -1.51086 0.448402 0
M  V30 17196 C 1600.25 -2.24885 -0.375609 0
M  V30 17197 C 1601.24 -1.27553 -0.980769 0
M  V30 17198 O 1602.43 -1.52583 -0.897076 0
M  V30 17199 C 1599.56 -3.10235 -1.47 0
M  V30 17200 C 1598.65 -4.15003 -0.873686 0
M  V30 17201 N 1599.04 -5.05799 -0.00756268 0
M  V30 17202 C 1597.33 -4.31182 -1.14009 0
M  V30 17203 C 1598.04 -5.80772 0.328514 0
M  V30 17204 N 1597.01 -5.42822 -0.290661 0
M  V30 17205 H 1600.81 -2.92446 0.291962 0
M  V30 17206 H 1598.33 -1.60287 0.261145 0
M  V30 17207 H 1600.32 -3.61691 -2.07328 0
M  V30 17208 H 1598.98 -2.44219 -2.13979 0
M  V30 17209 H 1600 -5.1665 0.359676 0
M  V30 17210 H 1596.67 -3.7639 -1.80656 0
M  V30 17211 H 1598.06 -6.63896 1.03399 0
M  V30 17212 N 1600.78 -0.180154 -1.56567 0
M  V30 17213 C 1601.72 0.785576 -2.14252 0
M  V30 17214 C 1602.69 1.21991 -1.07504 0
M  V30 17215 O 1603.88 1.3101 -1.35531 0
M  V30 17216 C 1601 2.05903 -2.68927 0
M  V30 17217 C 1600.05 1.76802 -3.88128 0
M  V30 17218 S 1600.88 0.92939 -5.27373 0
M  V30 17219 C 1602.04 2.21331 -5.8546 0
M  V30 17220 H 1602.27 0.295145 -2.95831 0
M  V30 17221 H 1599.81 0.0346427 -1.54361 0
M  V30 17222 H 1601.76 2.79043 -3.01074 0
M  V30 17223 H 1600.42 2.52059 -1.87417 0
M  V30 17224 H 1599.62 2.71312 -4.24742 0
M  V30 17225 H 1599.22 1.11753 -3.56914 0
M  V30 17226 H 1601.51 3.16718 -5.98912 0
M  V30 17227 H 1602.45 1.89172 -6.82363 0
M  V30 17228 H 1602.86 2.33495 -5.13946 0
M  V30 17229 N 1602.26 1.57322 0.0935319 0
M  V30 17230 C 1603.49 1.90754 0.814111 0
M  V30 17231 C 1603.91 0.774571 1.71412 0
M  V30 17232 O 1603.27 -0.273775 1.79221 0
M  V30 17233 C 1603.32 3.23055 1.60211 0
M  V30 17234 O 1602.42 3.10755 2.71118 0
M  V30 17235 H 1601.76 0.625237 0.223552 0
M  V30 17236 H 1604.29 2.04486 0.068288 0
M  V30 17237 H 1604.3 3.56401 1.986 0
M  V30 17238 H 1602.98 4.05101 0.941607 0
M  V30 17239 H 1601.55 2.88926 2.35745 0
M  V30 17240 N 1603.74 -0.364395 1.53329 0
M  V30 17241 C 1604.99 -1.10691 1.69569 0
M  V30 17242 C 1605.31 -1.89268 0.448093 0
M  V30 17243 O 1604.57 -1.87216 -0.56997 0
M  V30 17244 C 1604.87 -2.09208 2.8977 0
M  V30 17245 C 1604.53 -1.47103 4.26229 0
M  V30 17246 C 1603.2 -1.29893 4.63337 0
M  V30 17247 C 1605.55 -1.0218 5.11086 0
M  V30 17248 C 1602.88 -0.663463 5.82937 0
M  V30 17249 C 1605.23 -0.400334 6.31332 0
M  V30 17250 C 1603.89 -0.21574 6.67151 0
M  V30 17251 H 1603.16 -0.405048 0.620498 0
M  V30 17252 H 1605.81 -0.388568 1.87516 0
M  V30 17253 H 1604.11 -2.8735 2.6634 0
M  V30 17254 H 1605.81 -2.66615 2.99529 0
M  V30 17255 H 1602.4 -1.61491 3.97012 0
M  V30 17256 H 1606.58 -1.14269 4.82966 0
M  V30 17257 H 1601.84 -0.508867 6.09279 0
M  V30 17258 H 1606.01 -0.0440554 6.96386 0
M  V30 17259 H 1603.64 0.278732 7.59689 0
M  V30 17260 N 1605.22 -1.44709 -0.62426 0
M  V30 17261 C 1606.47 -1.47131 -1.37968 0
M  V30 17262 C 1606.78 -0.110507 -1.95288 0
M  V30 17263 O 1607.98 -0.0122892 -2.71497 0
M  V30 17264 C 1606.44 -2.59059 -2.49833 0
M  V30 17265 C 1606.05 -4.01378 -1.98997 0
M  V30 17266 C 1607.79 -2.70709 -3.26981 0
M  V30 17267 C 1605.7 -5.04717 -3.08244 0
M  V30 17268 H 1604.63 -0.547424 -0.5185 0
M  V30 17269 H 1607.28 -1.70797 -0.670863 0
M  V30 17270 H 1605.66 -2.28646 -3.23322 0
M  V30 17271 H 1606.84 -4.41391 -1.32327 0
M  V30 17272 H 1605.15 -3.9403 -1.34644 0
M  V30 17273 H 1607.75 -3.45087 -4.08435 0
M  V30 17274 H 1608.09 -1.76763 -3.76909 0
M  V30 17275 H 1608.62 -3.00566 -2.60585 0
M  V30 17276 H 1605.36 -6.00315 -2.63253 0
M  V30 17277 H 1604.88 -4.6929 -3.73534 0
M  V30 17278 H 1606.56 -5.28725 -3.72906 0
M  V30 17279 N 1606.69 0.865285 -1.31722 0
M  V30 17280 C 1607.64 1.99433 -1.19704 0
M  V30 17281 C 1608.64 1.69079 -0.104255 0
M  V30 17282 O 1609.84 1.78017 -0.266466 0
M  V30 17283 H 1606.22 0.654244 -0.370768 0
M  V30 17284 H 1608.19 2.06699 -2.15216 0
M  V30 17285 C 1606.94 3.35142 -0.926027 0
M  V30 17286 H 1606.26 3.59022 -1.75906 0
M  V30 17287 H 1607.7 4.14722 -0.88214 0
M  V30 17288 C 1606.16 3.34848 0.37124 0
M  V30 17289 O 1606.69 3.77012 1.38654 0
M  V30 17290 N 1604.9 2.87979 0.389441 0
M  V30 17291 H 1604.44 2.53861 -0.437293 0
M  V30 17292 H 1604.4 2.88165 1.25731 0
M  V30 17293 N 1608.17 1.14759 1.0802 0
M  V30 17294 C 1609.12 0.833824 2.17141 0
M  V30 17295 C 1610.11 -0.189939 1.68332 0
M  V30 17296 O 1611.32 -0.0456447 1.79942 0
M  V30 17297 H 1607.7 0.251944 0.70854 0
M  V30 17298 H 1609.67 1.76196 2.40827 0
M  V30 17299 C 1608.42 0.33203 3.46111 0
M  V30 17300 H 1607.74 1.11117 3.84048 0
M  V30 17301 H 1609.18 0.151078 4.23731 0
M  V30 17302 C 1607.64 -0.945153 3.2337 0
M  V30 17303 O 1608.17 -2.0181 3.47326 0
M  V30 17304 N 1606.37 -0.881963 2.76893 0
M  V30 17305 H 1605.92 -0.00865768 2.57599 0
M  V30 17306 H 1605.88 -1.73706 2.62056 0
M  V30 17307 N 1609.65 -1.26251 0.943322 0
M  V30 17308 C 1611.06 -1.75591 0.634391 0
M  V30 17309 C 1611.41 -1.76812 -0.850406 0
M  V30 17310 O 1610.54 -1.38162 -1.66554 0
M  V30 17311 C 1611.13 -3.18871 1.14484 0
M  V30 17312 C 1609.69 -3.65817 0.886285 0
M  V30 17313 C 1608.84 -2.4523 1.2945 0
M  V30 17314 H 1611.79 -1.12297 1.12139 0
M  V30 17315 H 1611.81 -3.77205 0.499654 0
M  V30 17316 H 1611.32 -3.17951 2.22551 0
M  V30 17317 H 1609.42 -3.72165 -0.179913 0
M  V30 17318 H 1609.54 -4.54523 1.5148 0
M  V30 17319 H 1607.9 -2.44519 0.712919 0
M  V30 17320 H 1608.68 -2.47009 2.38415 0
M  V30 17321 N 1611.13 -0.710588 -1.40671 0
M  V30 17322 C 1612.08 -0.043614 -2.32559 0
M  V30 17323 C 1613.07 0.752425 -1.51773 0
M  V30 17324 O 1614.28 0.656356 -1.67607 0
M  V30 17325 H 1610.65 0.00469865 -0.751985 0
M  V30 17326 H 1612.62 -0.835399 -2.86468 0
M  V30 17327 C 1611.37 0.867796 -3.36697 0
M  V30 17328 H 1610.7 0.264667 -3.98923 0
M  V30 17329 H 1612.14 1.30252 -4.03498 0
M  V30 17330 C 1610.59 1.99094 -2.71778 0
M  V30 17331 O 1611.12 3.08129 -2.5772 0
M  V30 17332 N 1609.33 1.77309 -2.30239 0
M  V30 17333 H 1608.88 0.886325 -2.41872 0
M  V30 17334 H 1608.84 2.52639 -1.87139 0
M  V30 17335 N 1612.61 1.50847 -0.456408 0
M  V30 17336 C 1613.54 2.31077 0.335523 0
M  V30 17337 C 1614.52 1.37326 1.00377 0
M  V30 17338 O 1615.7 1.66247 1.00376 0
M  V30 17339 C 1612.83 3.16662 1.42627 0
M  V30 17340 C 1611.79 4.18846 0.88045 0
M  V30 17341 C 1611.11 4.93074 2.06838 0
M  V30 17342 C 1612.41 5.22208 -0.0982288 0
M  V30 17343 H 1614.11 2.97531 -0.334056 0
M  V30 17344 H 1611.65 1.43085 -0.162099 0
M  V30 17345 H 1613.61 3.71578 1.98765 0
M  V30 17346 H 1612.33 2.48066 2.12441 0
M  V30 17347 H 1610.99 3.65009 0.341147 0
M  V30 17348 H 1610.64 4.20963 2.75316 0
M  V30 17349 H 1610.34 5.62184 1.70947 0
M  V30 17350 H 1611.86 5.5082 2.63494 0
M  V30 17351 H 1613.28 5.72082 0.373481 0
M  V30 17352 H 1611.67 5.98954 -0.370674 0
M  V30 17353 H 1612.74 4.73859 -1.02887 0
M  V30 17354 N 1614.09 0.188454 1.56469 0
M  V30 17355 C 1615.31 -0.457846 2.01771 0
M  V30 17356 C 1615.73 -1.55646 1.06863 0
M  V30 17357 O 1615.09 -1.82356 0.0723619 0
M  V30 17358 C 1615.14 -1.02032 3.46802 0
M  V30 17359 O 1614.86 0.0344536 4.38086 0
M  V30 17360 C 1616.36 -1.74316 4.07589 0
M  V30 17361 H 1613.58 -0.115594 0.660968 0
M  V30 17362 H 1616.12 0.295213 2.02358 0
M  V30 17363 H 1614.28 -1.7238 3.46935 0
M  V30 17364 H 1614.69 -0.383254 5.23098 0
M  V30 17365 H 1616.17 -2.08912 5.1094 0
M  V30 17366 H 1616.64 -2.64445 3.50665 0
M  V30 17367 H 1617.25 -1.0857 4.11209 0
M  V30 17368 N 1615.56 -1.5737 -0.0851874 0
M  V30 17369 C 1616.81 -1.86864 -0.78802 0
M  V30 17370 C 1617.14 -0.778936 -1.77894 0
M  V30 17371 O 1616.42 0.212132 -1.9334 0
M  V30 17372 C 1616.7 -3.27006 -1.50795 0
M  V30 17373 C 1616.55 -4.46615 -0.534354 0
M  V30 17374 C 1617.87 -3.65187 -2.45614 0
M  V30 17375 H 1614.99 -0.679657 -0.285017 0
M  V30 17376 H 1617.63 -1.8993 -0.0514443 0
M  V30 17377 H 1615.78 -3.24522 -2.13583 0
M  V30 17378 H 1617.46 -4.61217 0.0872761 0
M  V30 17379 H 1615.7 -4.33536 0.151455 0
M  V30 17380 H 1616.37 -5.41423 -1.07544 0
M  V30 17381 H 1618.85 -3.68678 -1.92913 0
M  V30 17382 H 1617.72 -4.64158 -2.92999 0
M  V30 17383 H 1617.98 -2.944 -3.2982 0
M  V30 17384 N 1617.04 0.356258 -1.53521 0
M  V30 17385 C 1618.46 0.698546 -1.43501 0
M  V30 17386 C 1618.66 1.92926 -0.581547 0
M  V30 17387 O 1617.71 2.5241 -0.0675947 0
M  V30 17388 C 1619.03 0.903047 -2.8682 0
M  V30 17389 C 1620.57 1.00247 -2.96512 0
M  V30 17390 C 1621.05 1.23938 -4.40912 0
M  V30 17391 N 1622.54 1.30687 -4.44382 0
M  V30 17392 C 1623.28 1.50745 -5.5323 0
M  V30 17393 N 1622.77 1.68058 -6.72107 0
M  V30 17394 N 1624.56 1.5319 -5.40823 0
M  V30 17395 H 1616.72 -0.453102 -2.07511 0
M  V30 17396 H 1618.98 -0.140708 -0.937499 0
M  V30 17397 H 1618.68 0.070416 -3.5163 0
M  V30 17398 H 1618.56 1.80847 -3.3102 0
M  V30 17399 H 1620.95 1.82564 -2.3185 0
M  V30 17400 H 1621.03 0.0742303 -2.55692 0
M  V30 17401 H 1620.67 0.421189 -5.06151 0
M  V30 17402 H 1620.6 2.18098 -4.79313 0
M  V30 17403 H 1623.09 1.18883 -3.58713 0
M  V30 17404 H 1623.4 1.82963 -7.50829 0
M  V30 17405 H 1621.75 1.65219 -6.75076 0
M  V30 17406 H 1624.94 1.39237 -4.46912 0
M  V30 17407 H 1625.11 1.6848 -6.25714 0
M  V30 17408 N 1618.52 1.45038 0.616577 0
M  V30 17409 C 1619.77 1.48805 1.37786 0
M  V30 17410 C 1620.1 0.125811 1.93792 0
M  V30 17411 O 1619.37 -0.858544 1.74526 0
M  V30 17412 C 1619.66 2.56008 2.53242 0
M  V30 17413 C 1619.51 4.01643 2.02491 0
M  V30 17414 C 1620.83 2.59578 3.55398 0
M  V30 17415 H 1617.95 0.541776 0.499647 0
M  V30 17416 H 1620.59 1.76799 0.695859 0
M  V30 17417 H 1618.74 2.32269 3.11422 0
M  V30 17418 H 1620.41 4.36564 1.4903 0
M  V30 17419 H 1618.65 4.12728 1.33559 0
M  V30 17420 H 1619.33 4.72326 2.85679 0
M  V30 17421 H 1621.8 2.80826 3.07044 0
M  V30 17422 H 1620.68 3.36466 4.33684 0
M  V30 17423 H 1620.94 1.64325 4.10426 0
M  V30 17424 N 1620 -0.858287 1.32179 0
M  V30 17425 C 1621.41 -1.4281 1.20259 0
M  V30 17426 C 1621.76 -1.95313 -0.186332 0
M  V30 17427 O 1620.88 -1.87244 -1.08484 0
M  V30 17428 C 1621.48 -2.59589 2.17713 0
M  V30 17429 C 1620.04 -3.1258 2.09691 0
M  V30 17430 C 1619.19 -1.85317 2.06283 0
M  V30 17431 H 1622.14 -0.665769 1.4406 0
M  V30 17432 H 1622.16 -3.36639 1.77354 0
M  V30 17433 H 1621.67 -2.21346 3.18791 0
M  V30 17434 H 1619.77 -3.55416 1.11849 0
M  V30 17435 H 1619.88 -3.74071 2.99346 0
M  V30 17436 H 1618.25 -2.04766 1.51469 0
M  V30 17437 H 1619.03 -1.49296 3.09137 0
M  V30 17438 N 1621.48 -1.1533 -1.07409 0
M  V30 17439 C 1622.72 -0.922348 -1.79376 0
M  V30 17440 C 1623.04 0.551929 -1.87652 0
M  V30 17441 O 1624.24 0.900444 -2.56133 0
M  V30 17442 C 1622.7 -1.60081 -3.22339 0
M  V30 17443 C 1622.31 -3.11206 -3.22265 0
M  V30 17444 C 1624.05 -1.45138 -3.98917 0
M  V30 17445 C 1621.96 -3.71842 -4.59878 0
M  V30 17446 H 1620.89 -0.341438 -0.672262 0
M  V30 17447 H 1623.54 -1.38336 -1.20562 0
M  V30 17448 H 1621.92 -1.06748 -3.81341 0
M  V30 17449 H 1623.1 -3.7129 -2.72911 0
M  V30 17450 H 1621.41 -3.25903 -2.59183 0
M  V30 17451 H 1624.01 -1.87832 -5.00623 0
M  V30 17452 H 1624.35 -0.398796 -4.14385 0
M  V30 17453 H 1624.88 -1.95564 -3.46409 0
M  V30 17454 H 1621.62 -4.76998 -4.49614 0
M  V30 17455 H 1621.14 -3.16541 -5.09472 0
M  V30 17456 H 1622.82 -3.72733 -5.28847 0
M  V30 17457 N 1622.95 1.25748 -0.950004 0
M  V30 17458 C 1623.92 2.24307 -0.47106 0
M  V30 17459 C 1624.92 1.55145 0.422704 0
M  V30 17460 O 1626.11 1.72797 0.220642 0
M  V30 17461 C 1623.24 3.39395 0.319979 0
M  V30 17462 H 1624.43 2.68192 -1.34214 0
M  V30 17463 H 1621.98 1.38056 -0.732827 0
M  V30 17464 H 1622.72 3.00925 1.20892 0
M  V30 17465 H 1622.5 3.90783 -0.321157 0
M  V30 17466 H 1623.99 4.12594 0.644697 0
M  V30 17467 N 1624.43 0.718038 1.40292 0
M  V30 17468 C 1625.68 0.258986 2.0114 0
M  V30 17469 C 1626.01 -1.1456 1.56811 0
M  V30 17470 O 1625.29 -1.77766 0.789276 0
M  V30 17471 C 1625.57 0.341778 3.58474 0
M  V30 17472 C 1625.42 1.78492 4.12869 0
M  V30 17473 C 1626.74 -0.285622 4.39172 0
M  V30 17474 H 1623.86 0.0955806 0.730776 0
M  V30 17475 H 1626.5 0.911 1.66736 0
M  V30 17476 H 1624.65 -0.213354 3.87914 0
M  V30 17477 H 1626.32 2.39562 3.94218 0
M  V30 17478 H 1624.57 2.31183 3.67065 0
M  V30 17479 H 1625.24 1.79423 5.22026 0
M  V30 17480 H 1627.71 0.187411 4.15678 0
M  V30 17481 H 1626.59 -0.19726 5.48545 0
M  V30 17482 H 1626.85 -1.36947 4.20355 0
M  V30 17483 N 1625.91 -1.50602 0.464402 0
M  V30 17484 C 1627.16 -2.01887 -0.0927084 0
M  V30 17485 C 1627.48 -1.34891 -1.40817 0
M  V30 17486 O 1626.75 -0.492078 -1.89619 0
M  V30 17487 H 1625.33 -0.746071 -0.0372514 0
M  V30 17488 H 1627.99 -1.84999 0.613296 0
M  V30 17489 H 1627.09 -3.11105 -0.249067 0
M  V30 17490 N 1627.39 -0.19675 -1.56367 0
M  V30 17491 C 1628.3 0.735372 -2.22777 0
M  V30 17492 C 1629.31 1.23336 -1.22737 0
M  V30 17493 O 1630.49 1.28017 -1.55479 0
M  V30 17494 C 1627.56 1.93706 -2.8754 0
M  V30 17495 C 1626.62 1.48348 -4.02854 0
M  V30 17496 C 1625.85 2.62788 -4.64519 0
M  V30 17497 O 1626.07 3.80311 -4.25111 0
M  V30 17498 O 1625.01 2.35406 -5.53956 0
M  V30 17499 H 1628.83 0.199788 -3.03042 0
M  V30 17500 H 1626.42 0.0326149 -1.49364 0
M  V30 17501 H 1628.3 2.63934 -3.28507 0
M  V30 17502 H 1626.97 2.46121 -2.10252 0
M  V30 17503 H 1625.88 0.749939 -3.66506 0
M  V30 17504 H 1627.21 1.00597 -4.8181 0
M  V30 17505 N 1628.87 1.57413 0.0768405 0
M  V30 17506 C 1630.09 1.91607 0.793833 0
M  V30 17507 C 1630.52 0.792708 1.70581 0
M  V30 17508 O 1629.87 -0.25475 1.79501 0
M  V30 17509 C 1629.92 3.24736 1.56776 0
M  V30 17510 O 1629.03 3.13613 2.67807 0
M  V30 17511 H 1628.37 0.627572 0.216908 0
M  V30 17512 H 1630.9 2.04547 0.0465957 0
M  V30 17513 H 1630.91 3.58488 1.94809 0
M  V30 17514 H 1629.58 4.06077 0.898588 0
M  V30 17515 H 1628.16 2.91411 2.32668 0
M  V30 17516 N 1630.34 -0.348112 1.53707 0
M  V30 17517 C 1631.62 -1.1056 1.61356 0
M  V30 17518 C 1632 -2.06633 0.431955 0
M  V30 17519 O 1631.35 -2.21115 -0.576211 0
M  V30 17520 C 1631.56 -1.82929 2.97217 0
M  V30 17521 C 1632.91 -2.36837 3.52411 0
M  V30 17522 O 1633.93 -1.93032 2.99361 0
M  V30 17523 O 1632.79 -3.16966 4.45191 0
M  V30 17524 H 1629.88 -0.50817 0.652451 0
M  V30 17525 H 1632.43 -0.349971 1.66052 0
M  V30 17526 H 1631.2 -1.12912 3.74655 0
M  V30 17527 H 1630.83 -2.65361 2.9609 0
M  V30 17528 N 1631.82 -1.45363 -0.608876 0
M  V30 17529 C 1633.07 -1.49313 -1.36792 0
M  V30 17530 C 1633.4 -0.134357 -1.94035 0
M  V30 17531 O 1632.65 0.866819 -1.75456 0
M  V30 17532 C 1632.95 -2.51893 -2.53544 0
M  V30 17533 C 1632.62 -3.96636 -2.14455 0
M  V30 17534 C 1631.28 -4.36048 -2.03508 0
M  V30 17535 C 1633.63 -4.87668 -1.83929 0
M  V30 17536 C 1630.96 -5.64389 -1.60256 0
M  V30 17537 C 1633.31 -6.16419 -1.42163 0
M  V30 17538 C 1631.98 -6.54763 -1.29774 0
M  V30 17539 H 1631.25 -0.546373 -0.500557 0
M  V30 17540 H 1633.89 -1.78702 -0.68832 0
M  V30 17541 H 1632.2 -2.16068 -3.26836 0
M  V30 17542 H 1633.89 -2.52187 -3.11773 0
M  V30 17543 H 1630.48 -3.65467 -2.23901 0
M  V30 17544 H 1634.67 -4.57956 -1.91284 0
M  V30 17545 H 1629.92 -5.92894 -1.49285 0
M  V30 17546 H 1634.1 -6.86401 -1.17588 0
M  V30 17547 H 1631.73 -7.5411 -0.960322 0
M  V30 17548 N 1633.3 0.851265 -1.32632 0
M  V30 17549 C 1634.21 1.99239 -1.23858 0
M  V30 17550 C 1635.23 1.73339 -0.151517 0
M  V30 17551 O 1636.4 1.97919 -0.372822 0
M  V30 17552 C 1633.47 3.32987 -0.965417 0
M  V30 17553 C 1632.53 3.72087 -2.14126 0
M  V30 17554 C 1631.76 4.99453 -1.88103 0
M  V30 17555 O 1631.98 5.64399 -0.825253 0
M  V30 17556 O 1630.92 5.35763 -2.74302 0
M  V30 17557 H 1634.74 2.09579 -2.19796 0
M  V30 17558 H 1632.33 0.98243 -1.12555 0
M  V30 17559 H 1634.21 4.13151 -0.829713 0
M  V30 17560 H 1632.89 3.2368 -0.036219 0
M  V30 17561 H 1631.79 2.92485 -2.33245 0
M  V30 17562 H 1633.13 3.86045 -3.05336 0
M  V30 17563 N 1634.78 1.15898 1.06796 0
M  V30 17564 C 1635.73 0.856808 2.16244 0
M  V30 17565 C 1636.72 -0.172075 1.68524 0
M  V30 17566 O 1637.93 -0.0265569 1.7998 0
M  V30 17567 H 1634.3 0.259445 0.705827 0
M  V30 17568 H 1636.27 1.7874 2.38945 0
M  V30 17569 C 1635.02 0.368721 3.45739 0
M  V30 17570 H 1634.34 1.15184 3.82848 0
M  V30 17571 H 1635.78 0.196012 4.23547 0
M  V30 17572 C 1634.24 -0.910802 3.24355 0
M  V30 17573 O 1634.77 -1.98115 3.49447 0
M  V30 17574 N 1632.98 -0.852545 2.77813 0
M  V30 17575 H 1632.53 0.0186646 2.57593 0
M  V30 17576 H 1632.48 -1.70917 2.63884 0
M  V30 17577 N 1636.26 -1.25243 0.956659 0
M  V30 17578 C 1637.19 -2.28159 0.496574 0
M  V30 17579 C 1638.17 -1.63814 -0.458132 0
M  V30 17580 O 1639.35 -1.90897 -0.356648 0
M  V30 17581 C 1636.48 -3.46573 -0.22454 0
M  V30 17582 C 1635.44 -4.2311 0.645104 0
M  V30 17583 C 1634.76 -5.343 -0.206867 0
M  V30 17584 C 1636.06 -4.85562 1.92422 0
M  V30 17585 H 1637.76 -2.66895 1.35675 0
M  V30 17586 H 1635.3 -1.28301 0.653827 0
M  V30 17587 H 1637.26 -4.17695 -0.55755 0
M  V30 17588 H 1635.98 -3.06833 -1.11898 0
M  V30 17589 H 1634.64 -3.53774 0.961228 0
M  V30 17590 H 1634.29 -4.908 -1.10112 0
M  V30 17591 H 1633.99 -5.86423 0.371714 0
M  V30 17592 H 1635.51 -6.08253 -0.534798 0
M  V30 17593 H 1636.92 -5.48817 1.65749 0
M  V30 17594 H 1635.32 -5.47871 2.44862 0
M  V30 17595 H 1636.39 -4.07634 2.62607 0
M  V30 17596 N 1637.73 -0.725468 -1.3991 0
M  V30 17597 C 1638.68 -0.0682776 -2.325 0
M  V30 17598 C 1639.68 0.736285 -1.52562 0
M  V30 17599 O 1640.88 0.638542 -1.68293 0
M  V30 17600 H 1637.26 -0.00327742 -0.751993 0
M  V30 17601 H 1639.23 -0.865735 -2.85565 0
M  V30 17602 C 1637.98 0.832036 -3.37598 0
M  V30 17603 H 1637.3 0.222341 -3.99181 0
M  V30 17604 H 1638.74 1.25965 -4.04856 0
M  V30 17605 C 1637.2 1.96201 -2.73874 0
M  V30 17606 O 1637.73 3.05378 -2.60974 0
M  V30 17607 N 1635.94 1.74857 -2.32106 0
M  V30 17608 H 1635.48 0.860621 -2.42798 0
M  V30 17609 H 1635.44 2.50639 -1.89808 0
M  V30 17610 N 1639.21 1.50354 -0.472382 0
M  V30 17611 C 1640.44 2.06746 0.0798134 0
M  V30 17612 C 1640.86 1.3361 1.33393 0
M  V30 17613 O 1640.21 0.405765 1.77932 0
M  V30 17614 C 1640.26 3.59636 0.3666 0
M  V30 17615 O 1639.98 4.30015 -0.837776 0
M  V30 17616 C 1641.49 4.32655 0.965618 0
M  V30 17617 H 1638.71 0.670956 -0.00765904 0
M  V30 17618 H 1641.25 1.93504 -0.661535 0
M  V30 17619 H 1639.4 3.72676 1.05788 0
M  V30 17620 H 1639.82 5.21248 -0.583161 0
M  V30 17621 H 1641.29 5.406 1.11604 0
M  V30 17622 H 1641.77 3.93237 1.95606 0
M  V30 17623 H 1642.38 4.24149 0.312676 0
M  V30 17624 N 1640.69 0.205039 1.56261 0
M  V30 17625 C 1641.6 -0.723548 2.23164 0
M  V30 17626 C 1642.62 -1.22683 1.23389 0
M  V30 17627 O 1643.79 -1.27191 1.56155 0
M  V30 17628 C 1640.86 -1.92178 2.88563 0
M  V30 17629 C 1639.92 -1.46209 4.03635 0
M  V30 17630 C 1639.15 -2.60321 4.65906 0
M  V30 17631 O 1639.38 -3.78051 4.27122 0
M  V30 17632 O 1638.31 -2.32465 5.55197 0
M  V30 17633 H 1642.14 -0.183715 3.03144 0
M  V30 17634 H 1639.72 -0.0246933 1.4938 0
M  V30 17635 H 1641.6 -2.62188 3.29902 0
M  V30 17636 H 1640.28 -2.45003 2.11555 0
M  V30 17637 H 1639.18 -0.730492 3.66899 0
M  V30 17638 H 1640.52 -0.980402 4.82337 0
M  V30 17639 N 1642.17 -1.57451 -0.0684915 0
M  V30 17640 C 1643.45 -1.78483 -0.800209 0
M  V30 17641 C 1643.83 -0.793438 -1.95621 0
M  V30 17642 O 1643.17 0.172756 -2.27846 0
M  V30 17643 C 1643.38 -3.25069 -1.27008 0
M  V30 17644 C 1644.73 -3.8899 -1.70212 0
M  V30 17645 O 1645.76 -3.2898 -1.36566 0
M  V30 17646 O 1644.62 -4.94569 -2.32515 0
M  V30 17647 H 1641.71 -0.732598 -0.383704 0
M  V30 17648 H 1644.26 -1.69631 -0.0483117 0
M  V30 17649 H 1643.03 -3.88784 -0.443067 0
M  V30 17650 H 1642.65 -3.38657 -2.08319 0
M  V30 17651 N 1643.65 0.339955 -1.5389 0
M  V30 17652 C 1644.89 1.08139 -1.71563 0
M  V30 17653 C 1645.23 1.88193 -0.479292 0
M  V30 17654 O 1644.5 1.87317 0.523702 0
M  V30 17655 C 1644.78 2.01963 -2.98132 0
M  V30 17656 C 1644.64 1.25349 -4.31981 0
M  V30 17657 C 1645.96 3.01729 -3.20387 0
M  V30 17658 H 1643.08 0.391744 -0.624264 0
M  V30 17659 H 1645.72 0.359609 -1.86566 0
M  V30 17660 H 1643.87 2.63511 -2.85472 0
M  V30 17661 H 1645.54 0.66388 -4.56498 0
M  V30 17662 H 1643.78 0.555541 -4.30228 0
M  V30 17663 H 1644.45 1.94154 -5.16728 0
M  V30 17664 H 1646.93 2.50297 -3.32401 0
M  V30 17665 H 1645.81 3.64577 -4.10335 0
M  V30 17666 H 1646.07 3.73303 -2.36849 0
M  V30 17667 N 1645.13 1.45684 0.601159 0
M  V30 17668 C 1646.35 1.53806 1.39135 0
M  V30 17669 C 1646.78 0.173625 1.87297 0
M  V30 17670 O 1646.13 -0.842931 1.60513 0
M  V30 17671 C 1646.18 2.53201 2.56752 0
M  V30 17672 O 1645.29 2.05427 3.57594 0
M  V30 17673 H 1644.63 0.51824 0.415118 0
M  V30 17674 H 1647.16 1.91095 0.731006 0
M  V30 17675 H 1647.17 2.72215 3.03912 0
M  V30 17676 H 1645.84 3.52294 2.21047 0
M  V30 17677 H 1644.42 1.96318 3.17039 0
M  V30 17678 N 1646.6 -0.84422 1.33082 0
M  V30 17679 C 1647.83 -1.63654 1.27405 0
M  V30 17680 C 1648.25 -1.87476 -0.153146 0
M  V30 17681 O 1647.61 -1.43502 -1.10801 0
M  V30 17682 C 1647.66 -2.96698 2.04945 0
M  V30 17683 O 1646.76 -3.87751 1.40439 0
M  V30 17684 H 1646.1 -0.498545 0.438576 0
M  V30 17685 H 1648.63 -1.0507 1.7556 0
M  V30 17686 H 1648.64 -3.46438 2.1551 0
M  V30 17687 H 1647.32 -2.78682 3.08722 0
M  V30 17688 H 1645.9 -3.46231 1.38487 0
M  V30 17689 N 1648.08 -1.16463 -1.0618 0
M  V30 17690 C 1648.99 -0.886601 -2.17202 0
M  V30 17691 C 1650.01 0.141568 -1.73423 0
M  V30 17692 O 1651.18 -0.0353417 -2.01369 0
M  V30 17693 C 1648.25 -0.392829 -3.44467 0
M  V30 17694 C 1647.31 -1.48636 -4.02748 0
M  V30 17695 C 1646.54 -1.01606 -5.23939 0
M  V30 17696 O 1646.77 0.133753 -5.70243 0
M  V30 17697 O 1645.7 -1.80487 -5.74202 0
M  V30 17698 H 1649.53 -1.81502 -2.43497 0
M  V30 17699 H 1647.11 -0.944691 -1.15741 0
M  V30 17700 H 1648.99 -0.124501 -4.21216 0
M  V30 17701 H 1647.67 0.507566 -3.19696 0
M  V30 17702 H 1646.57 -1.80845 -3.27484 0
M  V30 17703 H 1647.91 -2.3621 -4.31817 0
M  V30 17704 N 1649.56 1.24734 -0.963288 0
M  V30 17705 C 1650.78 1.97285 -0.639808 0
M  V30 17706 C 1651.21 1.71024 0.783099 0
M  V30 17707 O 1650.57 0.971324 1.53085 0
M  V30 17708 C 1650.62 3.48793 -0.915197 0
M  V30 17709 O 1649.72 4.124 0.00162805 0
M  V30 17710 H 1649.06 0.618196 -0.242343 0
M  V30 17711 H 1651.59 1.58627 -1.29224 0
M  V30 17712 H 1651.6 3.99155 -0.84495 0
M  V30 17713 H 1650.28 3.67235 -1.95221 0
M  V30 17714 H 1648.85 3.72702 -0.121563 0
M  V30 17715 N 1651.04 0.732878 1.39523 0
M  V30 17716 C 1652.31 0.20629 1.94509 0
M  V30 17717 C 1652.69 -1.29152 1.66982 0
M  V30 17718 O 1652.04 -2.05607 0.996895 0
M  V30 17719 C 1652.25 0.537619 3.44834 0
M  V30 17720 C 1653.6 0.485787 4.21812 0
M  V30 17721 O 1654.62 0.474686 3.53023 0
M  V30 17722 O 1653.48 0.478457 5.44402 0
M  V30 17723 H 1650.58 0.0369228 0.826175 0
M  V30 17724 H 1653.12 0.811591 1.49035 0
M  V30 17725 H 1651.9 1.57289 3.58296 0
M  V30 17726 H 1651.52 -0.0967601 3.97482 0
M  V30 17727 N 1652.52 -1.50101 0.480349 0
M  V30 17728 C 1653.93 -1.8668 0.0274773 0
M  V30 17729 C 1654.28 -1.39442 -1.38023 0
M  V30 17730 O 1653.4 -0.763363 -2.02489 0
M  V30 17731 C 1654 -3.38773 0.043087 0
M  V30 17732 C 1652.56 -3.74728 -0.354352 0
M  V30 17733 C 1651.7 -2.7403 0.424583 0
M  V30 17734 H 1654.65 -1.42713 0.694172 0
M  V30 17735 H 1654.68 -3.72894 -0.756989 0
M  V30 17736 H 1654.19 -3.73123 1.06775 0
M  V30 17737 H 1652.29 -3.45981 -1.38303 0
M  V30 17738 H 1652.4 -4.79075 -0.0492608 0
M  V30 17739 H 1650.77 -2.54403 -0.122927 0
M  V30 17740 H 1651.55 -3.11225 1.44894 0
M  V30 17741 N 1653.99 -0.213323 -1.5615 0
M  V30 17742 C 1654.9 0.711703 -2.23544 0
M  V30 17743 C 1655.92 1.22027 -1.24038 0
M  V30 17744 O 1657.1 1.26361 -1.56828 0
M  V30 17745 C 1654.16 1.90645 -2.89578 0
M  V30 17746 C 1653.22 1.44066 -4.04405 0
M  V30 17747 C 1652.45 2.57846 -4.6728 0
M  V30 17748 O 1652.68 3.75781 -4.29121 0
M  V30 17749 O 1651.61 2.29518 -5.56422 0
M  V30 17750 H 1655.44 0.167635 -3.03237 0
M  V30 17751 H 1653.02 0.016771 -1.49391 0
M  V30 17752 H 1654.9 2.60435 -3.31288 0
M  V30 17753 H 1653.58 2.43877 -2.12851 0
M  V30 17754 H 1652.49 0.711024 -3.67281 0
M  V30 17755 H 1653.82 0.954809 -4.8285 0
M  V30 17756 N 1655.47 1.57485 0.0601405 0
M  V30 17757 C 1656.72 1.87445 0.755575 0
M  V30 17758 C 1657.04 0.806915 1.77522 0
M  V30 17759 O 1656.31 -0.163139 1.9522 0
M  V30 17760 H 1654.89 0.691708 0.282044 0
M  V30 17761 H 1657.55 1.94871 0.0334616 0
M  V30 17762 H 1656.65 2.85334 1.26455 0
M  V30 17763 N 1656.95 -0.331789 1.54068 0
M  V30 17764 C 1658.18 -1.09484 1.76148 0
M  V30 17765 C 1658.6 -1.81201 0.504772 0
M  V30 17766 O 1657.96 -1.7297 -0.54325 0
M  V30 17767 C 1658.01 -2.07495 2.94921 0
M  V30 17768 O 1657.11 -3.15239 2.65891 0
M  V30 17769 H 1656.45 -0.316071 0.583948 0
M  V30 17770 H 1658.98 -0.378593 2.01067 0
M  V30 17771 H 1658.99 -2.5051 3.22038 0
M  V30 17772 H 1657.67 -1.54696 3.8606 0
M  V30 17773 H 1656.24 -2.76958 2.49697 0
M  V30 17774 N 1658.43 -1.46001 -0.593424 0
M  V30 17775 C 1659.38 -1.55752 -1.70323 0
M  V30 17776 C 1660.35 -0.402466 -1.6115 0
M  V30 17777 O 1661.53 -0.617804 -1.80521 0
M  V30 17778 C 1658.67 -1.54362 -3.08653 0
M  V30 17779 C 1657.78 -2.80523 -3.28529 0
M  V30 17780 C 1656.92 -2.70709 -4.57045 0
M  V30 17781 C 1655.96 -3.91857 -4.70228 0
M  V30 17782 N 1655.09 -3.80494 -5.90059 0
M  V30 17783 H 1659.93 -2.50555 -1.61326 0
M  V30 17784 H 1657.47 -1.24313 -0.786425 0
M  V30 17785 H 1659.43 -1.51542 -3.88704 0
M  V30 17786 H 1658.06 -0.630986 -3.16573 0
M  V30 17787 H 1657.11 -2.93368 -2.42155 0
M  V30 17788 H 1658.42 -3.70341 -3.3414 0
M  V30 17789 H 1657.58 -2.65935 -5.45311 0
M  V30 17790 H 1656.32 -1.78513 -4.53855 0
M  V30 17791 H 1655.32 -3.96975 -3.80383 0
M  V30 17792 H 1656.55 -4.85136 -4.75205 0
M  V30 17793 H 1654.49 -2.91077 -5.87886 0
M  V30 17794 H 1654.41 -4.63958 -5.96891 0
M  V30 17795 H 1655.68 -3.79676 -6.80783 0
M  V30 17796 N 1659.91 0.83715 -1.33527 0
M  V30 17797 C 1661.18 1.57727 -1.15678 0
M  V30 17798 C 1661.56 2.09286 0.276178 0
M  V30 17799 O 1660.91 1.89589 1.27547 0
M  V30 17800 C 1661.12 2.70978 -2.19936 0
M  V30 17801 C 1662.47 3.40114 -2.5418 0
M  V30 17802 O 1663.49 2.81221 -2.18616 0
M  V30 17803 O 1662.35 4.46431 -3.15217 0
M  V30 17804 H 1659.45 0.69545 -0.447525 0
M  V30 17805 H 1661.99 0.879756 -1.45115 0
M  V30 17806 H 1660.76 2.30532 -3.16181 0
M  V30 17807 H 1660.39 3.48393 -1.91594 0
M  V30 17808 N 1661.38 1.17024 1.05561 0
M  V30 17809 C 1662.33 0.88356 2.13218 0
M  V30 17810 C 1663.3 -0.171025 1.65217 0
M  V30 17811 O 1664.49 -0.0346242 1.90769 0
M  V30 17812 C 1661.63 0.398912 3.42787 0
M  V30 17813 C 1660.74 1.51718 4.04482 0
M  V30 17814 C 1659.87 0.986793 5.21954 0
M  V30 17815 C 1658.91 2.08077 5.75648 0
M  V30 17816 N 1658.05 1.56542 6.84426 0
M  V30 17817 H 1662.89 1.80548 2.37079 0
M  V30 17818 H 1660.43 0.90056 1.16311 0
M  V30 17819 H 1662.39 0.0995018 4.17081 0
M  V30 17820 H 1661.02 -0.48605 3.1912 0
M  V30 17821 H 1660.07 1.9324 3.27662 0
M  V30 17822 H 1661.38 2.34243 4.40377 0
M  V30 17823 H 1660.53 0.641006 6.03304 0
M  V30 17824 H 1659.27 0.130942 4.87524 0
M  V30 17825 H 1658.28 2.43517 4.9293 0
M  V30 17826 H 1659.5 2.94071 6.12127 0
M  V30 17827 H 1657.45 0.732221 6.51901 0
M  V30 17828 H 1657.37 2.32677 7.19303 0
M  V30 17829 H 1658.63 1.24844 7.69438 0
M  V30 17830 N 1662.86 -1.24221 0.969889 0
M  V30 17831 C 1663.79 -2.27619 0.520745 0
M  V30 17832 C 1664.77 -1.64291 -0.440731 0
M  V30 17833 O 1665.96 -1.91265 -0.336381 0
M  V30 17834 C 1663.09 -3.46792 -0.187768 0
M  V30 17835 C 1662.04 -4.22402 0.689945 0
M  V30 17836 C 1661.37 -5.34489 -0.150186 0
M  V30 17837 C 1662.67 -4.83494 1.97562 0
M  V30 17838 H 1664.36 -2.65441 1.38498 0
M  V30 17839 H 1661.91 -1.276 0.667398 0
M  V30 17840 H 1663.86 -4.18263 -0.513216 0
M  V30 17841 H 1662.59 -3.08002 -1.08637 0
M  V30 17842 H 1661.24 -3.52734 0.998696 0
M  V30 17843 H 1660.89 -4.9194 -1.049 0
M  V30 17844 H 1660.59 -5.85996 0.433891 0
M  V30 17845 H 1662.12 -6.08786 -0.470255 0
M  V30 17846 H 1663.53 -5.47028 1.71561 0
M  V30 17847 H 1661.93 -5.45243 2.5066 0
M  V30 17848 H 1663 -4.04826 2.66915 0
M  V30 17849 N 1664.34 -0.740267 -1.39132 0
M  V30 17850 C 1665.62 -0.216602 -1.94397 0
M  V30 17851 C 1666 1.28264 -1.67665 0
M  V30 17852 O 1665.35 2.05075 -1.00778 0
M  V30 17853 C 1665.56 -0.555899 -3.44544 0
M  V30 17854 C 1666.9 -0.50815 -4.21548 0
M  V30 17855 O 1667.93 -0.493401 -3.52766 0
M  V30 17856 O 1666.79 -0.507321 -5.4414 0
M  V30 17857 H 1663.88 -0.0413037 -0.825968 0
M  V30 17858 H 1666.43 -0.819483 -1.48602 0
M  V30 17859 H 1665.2 -1.59187 -3.57457 0
M  V30 17860 H 1664.82 0.0756793 -3.97528 0
M  V30 17861 N 1665.82 1.49844 -0.488302 0
M  V30 17862 C 1667.1 1.95212 0.123105 0
M  V30 17863 C 1667.48 1.42936 1.55346 0
M  V30 17864 O 1666.82 0.637657 2.19422 0
M  V30 17865 C 1667.03 3.48966 0.0487846 0
M  V30 17866 C 1668.38 4.23982 0.229083 0
M  V30 17867 O 1669.41 3.55982 0.124569 0
M  V30 17868 O 1668.26 5.44709 0.442066 0
M  V30 17869 H 1665.36 0.820652 0.102268 0
M  V30 17870 H 1667.9 1.60542 -0.549935 0
M  V30 17871 H 1666.68 3.79613 -0.949203 0
M  V30 17872 H 1666.3 3.90219 0.76253 0
M  V30 17873 N 1667.3 0.221601 1.56034 0
M  V30 17874 C 1668.52 -0.414945 2.02696 0
M  V30 17875 C 1668.94 -1.53344 1.10141 0
M  V30 17876 O 1668.3 -1.82162 0.111026 0
M  V30 17877 C 1668.35 -0.946532 3.48888 0
M  V30 17878 O 1668.07 0.12737 4.37915 0
M  V30 17879 C 1669.57 -1.65631 4.11195 0
M  V30 17880 H 1666.79 -0.101548 0.663271 0
M  V30 17881 H 1669.33 0.338069 2.01686 0
M  V30 17882 H 1667.49 -1.64982 3.50514 0
M  V30 17883 H 1667.9 -0.272211 5.23793 0
M  V30 17884 H 1669.38 -1.98027 5.15257 0
M  V30 17885 H 1669.85 -2.56947 3.56195 0
M  V30 17886 H 1670.46 -0.998231 4.13419 0
M  V30 17887 N 1668.77 -1.57515 -0.0517878 0
M  V30 17888 C 1670 -1.92845 -0.763249 0
M  V30 17889 C 1670.42 -0.819745 -1.69298 0
M  V30 17890 O 1669.78 0.226161 -1.79884 0
M  V30 17891 C 1669.83 -3.27189 -1.5159 0
M  V30 17892 O 1668.93 -3.17834 -2.62783 0
M  V30 17893 H 1668.28 -0.630944 -0.206896 0
M  V30 17894 H 1670.81 -2.04595 -0.0140481 0
M  V30 17895 H 1670.82 -3.61542 -1.89081 0
M  V30 17896 H 1669.49 -4.07455 -0.833871 0
M  V30 17897 H 1668.07 -2.95075 -2.28002 0
M  V30 17898 N 1670.25 0.323614 -1.54242 0
M  V30 17899 C 1671.48 1.08548 -1.76726 0
M  V30 17900 C 1671.9 1.8093 -0.514375 0
M  V30 17901 O 1671.26 1.73255 0.534069 0
M  V30 17902 C 1671.31 2.05928 -2.96017 0
M  V30 17903 O 1670.41 3.13825 -2.67559 0
M  V30 17904 H 1669.75 0.31297 -0.585616 0
M  V30 17905 H 1672.28 0.367925 -2.01265 0
M  V30 17906 H 1672.29 2.48799 -3.23362 0
M  V30 17907 H 1670.97 1.52646 -3.86875 0
M  V30 17908 H 1669.55 2.7563 -2.51163 0
M  V30 17909 N 1671.73 1.46313 0.585673 0
M  V30 17910 C 1672.96 1.55273 1.37496 0
M  V30 17911 C 1673.38 0.193481 1.87102 0
M  V30 17912 O 1672.74 -0.825859 1.61398 0
M  V30 17913 C 1672.79 2.5591 2.54052 0
M  V30 17914 O 1671.89 2.09208 3.55395 0
M  V30 17915 H 1671.23 0.522614 0.409598 0
M  V30 17916 H 1673.76 1.9186 0.710697 0
M  V30 17917 H 1673.77 2.75424 3.01008 0
M  V30 17918 H 1672.45 3.54619 2.17298 0
M  V30 17919 H 1671.02 1.9967 3.14939 0
M  V30 17920 N 1673.21 -0.830057 1.33969 0
M  V30 17921 C 1674.12 -1.97244 1.27012 0
M  V30 17922 C 1675.14 -1.73076 0.179075 0
M  V30 17923 O 1676.31 -1.97301 0.404262 0
M  V30 17924 C 1673.38 -3.31409 1.01827 0
M  V30 17925 C 1672.44 -3.68633 2.20018 0
M  V30 17926 C 1671.67 -4.96397 1.96025 0
M  V30 17927 O 1671.89 -5.63014 0.91494 0
M  V30 17928 O 1670.83 -5.31331 2.82791 0
M  V30 17929 H 1674.65 -2.06056 2.23103 0
M  V30 17930 H 1672.24 -0.964399 1.14104 0
M  V30 17931 H 1674.12 -4.11779 0.895337 0
M  V30 17932 H 1672.8 -3.23581 0.0877091 0
M  V30 17933 H 1671.7 -2.88738 2.37869 0
M  V30 17934 H 1673.04 -3.81138 3.11439 0
M  V30 17935 N 1674.69 -1.17582 -1.04939 0
M  V30 17936 C 1675.94 -0.96387 -1.77634 0
M  V30 17937 C 1676.26 0.508548 -1.88252 0
M  V30 17938 O 1675.53 1.36913 -1.40113 0
M  V30 17939 H 1674.11 -0.353636 -0.65799 0
M  V30 17940 H 1676.77 -1.48104 -1.26693 0
M  V30 17941 H 1675.86 -1.39438 -2.79219 0
M  V30 17942 N 1676.17 1.23705 -0.976463 0
M  V30 17943 C 1677.39 1.96595 -0.660697 0
M  V30 17944 C 1677.82 1.71845 0.764916 0
M  V30 17945 O 1677.17 0.987506 1.52046 0
M  V30 17946 C 1677.22 3.47803 -0.95214 0
M  V30 17947 O 1676.33 4.12378 -0.0421126 0
M  V30 17948 H 1675.67 0.615591 -0.248886 0
M  V30 17949 H 1678.2 1.57247 -1.30899 0
M  V30 17950 H 1678.21 3.98236 -0.887238 0
M  V30 17951 H 1676.88 3.65144 -1.99105 0
M  V30 17952 H 1675.46 3.72552 -0.161087 0
M  V30 17953 N 1677.64 0.747635 1.38738 0
M  V30 17954 C 1678.87 0.311781 2.04537 0
M  V30 17955 C 1679.29 -1.05782 1.56383 0
M  V30 17956 O 1678.64 -1.67077 0.734259 0
M  V30 17957 C 1678.69 0.318675 3.60093 0
M  V30 17958 O 1678.42 1.63423 4.06478 0
M  V30 17959 C 1679.92 -0.131782 4.43104 0
M  V30 17960 H 1677.14 0.134141 0.657455 0
M  V30 17961 H 1679.68 1.01482 1.77543 0
M  V30 17962 H 1677.84 -0.335578 3.85944 0
M  V30 17963 H 1678.25 1.55636 5.00877 0
M  V30 17964 H 1679.72 -0.0757978 5.51948 0
M  V30 17965 H 1680.2 -1.17881 4.23085 0
M  V30 17966 H 1680.81 0.493375 4.22429 0
M  V30 17967 N 1679.12 -1.49583 0.496242 0
M  V30 17968 C 1680.37 -2.01634 -0.051782 0
M  V30 17969 C 1680.68 -1.38133 -1.38487 0
M  V30 17970 O 1681.89 -1.81484 -2.0193 0
M  V30 17971 C 1680.35 -3.59617 -0.142755 0
M  V30 17972 C 1679.95 -4.32088 1.1834 0
M  V30 17973 C 1681.7 -4.19626 -0.641397 0
M  V30 17974 C 1679.6 -5.81917 1.05485 0
M  V30 17975 H 1678.53 -0.753645 -0.0231258 0
M  V30 17976 H 1681.19 -1.72165 0.634944 0
M  V30 17977 H 1679.57 -3.85781 -0.893826 0
M  V30 17978 H 1680.74 -4.17628 1.94739 0
M  V30 17979 H 1679.06 -3.83801 1.61511 0
M  V30 17980 H 1681.65 -5.29343 -0.755008 0
M  V30 17981 H 1682 -3.82676 -1.63906 0
M  V30 17982 H 1682.53 -3.97765 0.053003 0
M  V30 17983 H 1679.27 -6.23384 2.02664 0
M  V30 17984 H 1678.79 -5.98882 0.331667 0
M  V30 17985 H 1680.47 -6.4285 0.731641 0
M  V30 17986 N 1680.6 -0.229873 -1.55915 0
M  V30 17987 C 1681.88 0.449007 -1.90377 0
M  V30 17988 C 1682.26 1.77133 -1.14835 0
M  V30 17989 O 1681.6 2.27012 -0.260328 0
M  V30 17990 C 1681.81 0.633805 -3.43197 0
M  V30 17991 C 1683.16 0.937453 -4.14122 0
M  V30 17992 O 1684.19 0.72029 -3.48841 0
M  V30 17993 O 1683.05 1.35005 -5.29562 0
M  V30 17994 H 1680.14 0.238557 -0.791846 0
M  V30 17995 H 1682.69 -0.272676 -1.67495 0
M  V30 17996 H 1681.46 -0.298587 -3.90159 0
M  V30 17997 H 1681.08 1.40667 -3.71885 0
M  V30 17998 N 1682.08 1.5754 0.0434337 0
M  V30 17999 C 1683.33 1.87789 0.736074 0
M  V30 18000 C 1683.64 0.826466 1.77282 0
M  V30 18001 O 1684.85 1.01771 2.51704 0
M  V30 18002 C 1683.3 3.33207 1.36018 0
M  V30 18003 C 1682.91 4.46547 0.360532 0
M  V30 18004 C 1684.65 3.72623 2.03353 0
M  V30 18005 C 1682.56 5.83018 0.992167 0
M  V30 18006 H 1681.49 0.700614 0.278667 0
M  V30 18007 H 1684.14 1.83497 -0.00997697 0
M  V30 18008 H 1682.52 3.32199 2.15546 0
M  V30 18009 H 1683.7 4.58999 -0.406987 0
M  V30 18010 H 1682.01 4.1587 -0.209931 0
M  V30 18011 H 1684.61 4.71893 2.51437 0
M  V30 18012 H 1684.95 3.03874 2.84546 0
M  V30 18013 H 1685.49 3.75744 1.3062 0
M  V30 18014 H 1682.22 6.55131 0.219964 0
M  V30 18015 H 1681.74 5.74313 1.72987 0
M  V30 18016 H 1683.42 6.29283 1.50374 0
M  V30 18017 N 1683.56 -0.31543 1.54411 0
M  V30 18018 C 1684.5 -1.3885 1.84362 0
M  V30 18019 C 1685.47 -1.51028 0.69135 0
M  V30 18020 O 1686.66 -1.66119 0.938577 0
M  V30 18021 C 1683.8 -2.75085 2.0838 0
M  V30 18022 C 1682.91 -2.71473 3.36045 0
M  V30 18023 C 1682.05 -3.99608 3.49981 0
M  V30 18024 C 1681.08 -3.90335 4.71492 0
M  V30 18025 N 1680.22 -5.10216 4.82311 0
M  V30 18026 H 1685.06 -1.12609 2.75905 0
M  V30 18027 H 1682.6 -0.54495 1.36633 0
M  V30 18028 H 1684.56 -3.54295 2.20298 0
M  V30 18029 H 1683.19 -2.99618 1.2012 0
M  V30 18030 H 1682.24 -1.84209 3.32823 0
M  V30 18031 H 1683.55 -2.60507 4.25368 0
M  V30 18032 H 1682.7 -4.8725 3.61486 0
M  V30 18033 H 1681.44 -4.1339 2.58766 0
M  V30 18034 H 1680.45 -3.01077 4.60036 0
M  V30 18035 H 1681.67 -3.78111 5.641 0
M  V30 18036 H 1679.62 -5.24489 3.94014 0
M  V30 18037 H 1679.54 -5.01617 5.65612 0
M  V30 18038 H 1680.8 -5.99551 4.98156 0
M  V30 18039 N 1685.03 -1.46622 -0.577906 0
M  V30 18040 C 1686.45 -1.46287 -1.16004 0
M  V30 18041 C 1686.8 -0.206307 -1.95112 0
M  V30 18042 O 1685.92 0.690275 -2.05096 0
M  V30 18043 C 1686.52 -2.65042 -2.1104 0
M  V30 18044 C 1685.08 -2.67733 -2.64567 0
M  V30 18045 C 1684.22 -2.39053 -1.40531 0
M  V30 18046 H 1687.17 -1.54432 -0.365585 0
M  V30 18047 H 1687.19 -2.40834 -2.94583 0
M  V30 18048 H 1686.71 -3.56481 -1.53436 0
M  V30 18049 H 1684.81 -1.80379 -3.26028 0
M  V30 18050 H 1684.92 -3.67836 -3.06974 0
M  V30 18051 H 1683.28 -1.89209 -1.70506 0
M  V30 18052 H 1684.07 -3.32674 -0.847509 0
M  V30 18053 N 1686.51 0.822941 -1.34408 0
M  V30 18054 C 1687.42 1.96567 -1.28056 0
M  V30 18055 C 1688.44 1.72979 -0.188251 0
M  V30 18056 O 1689.61 1.97084 -0.41472 0
M  V30 18057 C 1686.68 3.30865 -1.03583 0
M  V30 18058 C 1685.74 3.67461 -2.2197 0
M  V30 18059 C 1684.97 4.9535 -1.98655 0
M  V30 18060 O 1685.2 5.62521 -0.944785 0
M  V30 18061 O 1684.13 5.29824 -2.85605 0
M  V30 18062 H 1687.96 2.0487 -2.24192 0
M  V30 18063 H 1685.54 0.958334 -1.14614 0
M  V30 18064 H 1687.42 4.11298 -0.917162 0
M  V30 18065 H 1686.1 3.2353 -0.104868 0
M  V30 18066 H 1685.01 2.87472 -2.39396 0
M  V30 18067 H 1686.34 3.79481 -3.13456 0
M  V30 18068 N 1687.99 1.18137 1.04314 0
M  V30 18069 C 1689.24 0.976648 1.77734 0
M  V30 18070 C 1689.57 -0.492756 1.87844 0
M  V30 18071 O 1688.84 -1.36586 1.38472 0
M  V30 18072 C 1689.13 1.62911 3.21142 0
M  V30 18073 C 1688.98 3.1712 3.1899 0
M  V30 18074 C 1690.3 1.34029 4.19195 0
M  V30 18075 H 1687.42 0.356217 0.645197 0
M  V30 18076 H 1690.06 1.45767 1.21868 0
M  V30 18077 H 1688.21 1.22009 3.68844 0
M  V30 18078 H 1689.88 3.67139 2.79296 0
M  V30 18079 H 1688.13 3.4941 2.57089 0
M  V30 18080 H 1688.8 3.57907 4.20245 0
M  V30 18081 H 1691.27 1.69463 3.80028 0
M  V30 18082 H 1690.15 1.82253 5.1776 0
M  V30 18083 H 1690.41 0.262712 4.41319 0
M  V30 18084 N 1689.47 -1.23186 0.98301 0
M  V30 18085 C 1690.38 -2.28448 0.533727 0
M  V30 18086 C 1691.39 -1.69034 -0.412732 0
M  V30 18087 O 1692.57 -1.99416 -0.282007 0
M  V30 18088 C 1689.64 -3.46357 -0.154179 0
M  V30 18089 C 1688.7 -4.21121 0.834009 0
M  V30 18090 C 1687.93 -5.334 0.178836 0
M  V30 18091 O 1688.15 -5.61032 -1.02952 0
M  V30 18092 O 1687.09 -5.95451 0.878722 0
M  V30 18093 H 1690.91 -2.69027 1.40919 0
M  V30 18094 H 1688.5 -1.29166 0.75077 0
M  V30 18095 H 1690.38 -4.17926 -0.539947 0
M  V30 18096 H 1689.05 -3.07724 -1.00437 0
M  V30 18097 H 1687.96 -3.51864 1.27053 0
M  V30 18098 H 1689.29 -4.6361 1.65309 0
M  V30 18099 N 1690.95 -0.754982 -1.38339 0
M  V30 18100 C 1691.86 -0.130303 -2.34238 0
M  V30 18101 C 1692.87 0.699048 -1.5934 0
M  V30 18102 O 1694.05 0.622876 -1.91526 0
M  V30 18103 C 1691.11 0.751285 -3.38462 0
M  V30 18104 C 1690.17 -0.0925987 -4.292 0
M  V30 18105 C 1689.41 0.747007 -5.28446 0
M  V30 18106 O 1689.63 1.98495 -5.34749 0
M  V30 18107 O 1688.56 0.165072 -6.01674 0
M  V30 18108 H 1692.39 -0.92233 -2.89356 0
M  V30 18109 H 1689.98 -0.515896 -1.4021 0
M  V30 18110 H 1691.86 1.2551 -4.02275 0
M  V30 18111 H 1690.53 1.52178 -2.85698 0
M  V30 18112 H 1689.44 -0.64239 -3.68543 0
M  V30 18113 H 1690.77 -0.825784 -4.85223 0
M  V30 18114 N 1692.42 1.49318 -0.504168 0
M  V30 18115 C 1693.67 2.02762 0.0392846 0
M  V30 18116 C 1694 1.38282 1.36352 0
M  V30 18117 O 1693.28 0.519587 1.87431 0
M  V30 18118 C 1693.56 3.59606 0.188507 0
M  V30 18119 C 1693.41 4.3461 -1.15908 0
M  V30 18120 C 1694.73 4.30213 0.927641 0
M  V30 18121 H 1691.85 0.736889 0.0128028 0
M  V30 18122 H 1694.49 1.78309 -0.656193 0
M  V30 18123 H 1692.64 3.80572 0.780861 0
M  V30 18124 H 1694.32 4.25132 -1.79055 0
M  V30 18125 H 1692.56 3.97043 -1.74756 0
M  V30 18126 H 1693.23 5.4272 -1.00794 0
M  V30 18127 H 1695.71 4.13922 0.425228 0
M  V30 18128 H 1694.58 5.39697 1.0009 0
M  V30 18129 H 1694.84 3.95678 1.97209 0
M  V30 18130 N 1693.9 0.238138 1.5579 0
M  V30 18131 C 1695.31 -0.266656 1.84786 0
M  V30 18132 C 1695.66 -1.58248 1.15983 0
M  V30 18133 O 1694.79 -2.11979 0.43518 0
M  V30 18134 C 1695.38 -0.4906 3.35229 0
M  V30 18135 C 1693.94 -0.939672 3.64482 0
M  V30 18136 C 1693.09 -0.0119682 2.77297 0
M  V30 18137 H 1696.04 0.460924 1.51859 0
M  V30 18138 H 1696.06 -1.3344 3.56334 0
M  V30 18139 H 1695.57 0.467239 3.85277 0
M  V30 18140 H 1693.68 -1.91029 3.19904 0
M  V30 18141 H 1693.79 -0.8026 4.72329 0
M  V30 18142 H 1692.15 -0.521767 2.49298 0
M  V30 18143 H 1692.94 0.941085 3.30149 0
M  V30 18144 N 1695.38 -1.57561 -0.0350783 0
M  V30 18145 C 1696.63 -1.89276 -0.728172 0
M  V30 18146 C 1696.96 -0.835137 -1.75326 0
M  V30 18147 O 1696.23 0.150516 -1.93917 0
M  V30 18148 C 1696.52 -3.31638 -1.40316 0
M  V30 18149 C 1696.37 -4.48089 -0.391996 0
M  V30 18150 C 1697.69 -3.72816 -2.33872 0
M  V30 18151 H 1694.81 -0.688381 -0.26325 0
M  V30 18152 H 1697.45 -1.89998 0.00900661 0
M  V30 18153 H 1695.6 -3.31153 -2.0315 0
M  V30 18154 H 1697.27 -4.60706 0.233965 0
M  V30 18155 H 1695.52 -4.32834 0.289305 0
M  V30 18156 H 1696.19 -5.4457 -0.902641 0
M  V30 18157 H 1698.66 -3.74629 -1.81086 0
M  V30 18158 H 1697.54 -4.73245 -2.78084 0
M  V30 18159 H 1697.8 -3.04744 -3.20287 0
M  V30 18160 N 1696.86 0.307236 -1.54576 0
M  V30 18161 C 1697.77 1.4014 -1.88143 0
M  V30 18162 C 1698.78 1.5579 -0.774952 0
M  V30 18163 O 1699.96 1.70574 -1.07082 0
M  V30 18164 C 1697.03 2.74613 -2.11633 0
M  V30 18165 C 1696.09 2.68001 -3.35371 0
M  V30 18166 C 1695.32 3.96061 -3.57731 0
M  V30 18167 O 1695.54 4.95119 -2.83219 0
M  V30 18168 O 1694.48 3.98331 -4.51238 0
M  V30 18169 H 1698.3 1.14677 -2.81217 0
M  V30 18170 H 1695.89 0.502739 -1.40687 0
M  V30 18171 H 1697.77 3.54186 -2.2832 0
M  V30 18172 H 1696.44 2.99933 -1.21746 0
M  V30 18173 H 1695.35 1.86922 -3.24054 0
M  V30 18174 H 1696.68 2.47635 -4.25368 0
M  V30 18175 N 1698.34 1.46926 0.570122 0
M  V30 18176 C 1699.27 1.54487 1.69311 0
M  V30 18177 C 1700.28 0.432119 1.5696 0
M  V30 18178 O 1701.47 0.701107 1.64155 0
M  V30 18179 C 1698.57 1.42093 3.07673 0
M  V30 18180 C 1697.74 2.6771 3.45905 0
M  V30 18181 C 1696.8 2.49336 4.63377 0
M  V30 18182 O 1695.83 3.23107 4.68605 0
M  V30 18183 N 1697.03 1.56319 5.59057 0
M  V30 18184 H 1699.8 2.51319 1.63276 0
M  V30 18185 H 1697.36 1.43142 0.756434 0
M  V30 18186 H 1699.35 1.27554 3.84073 0
M  V30 18187 H 1697.92 0.533945 3.08006 0
M  V30 18188 H 1697.14 2.97102 2.59083 0
M  V30 18189 H 1698.43 3.51131 3.68218 0
M  V30 18190 H 1697.82 0.955109 5.57579 0
M  V30 18191 H 1696.38 1.47738 6.34836 0
M  V30 18192 N 1699.82 -0.815801 1.34842 0
M  V30 18193 C 1701.23 -1.38911 1.24742 0
M  V30 18194 C 1701.58 -1.95807 -0.124101 0
M  V30 18195 O 1700.7 -1.906 -1.02472 0
M  V30 18196 C 1701.3 -2.52532 2.25861 0
M  V30 18197 C 1699.86 -3.05751 2.1953 0
M  V30 18198 C 1699 -1.78661 2.12075 0
M  V30 18199 H 1701.95 -0.619601 1.46105 0
M  V30 18200 H 1701.98 -3.30826 1.87974 0
M  V30 18201 H 1701.49 -2.11092 3.25671 0
M  V30 18202 H 1699.59 -3.51678 1.23099 0
M  V30 18203 H 1699.7 -3.64358 3.11095 0
M  V30 18204 H 1698.07 -1.99844 1.57907 0
M  V30 18205 H 1698.85 -1.39385 3.1373 0
M  V30 18206 N 1701.29 -1.18689 -1.03686 0
M  V30 18207 C 1702.2 -0.932473 -2.15272 0
M  V30 18208 C 1703.22 0.104751 -1.73684 0
M  V30 18209 O 1704.4 -0.0780471 -2.01249 0
M  V30 18210 C 1701.46 -0.465807 -3.43557 0
M  V30 18211 C 1700.52 -1.57146 -3.99504 0
M  V30 18212 C 1699.75 -1.12696 -5.21666 0
M  V30 18213 O 1699.98 0.0127657 -5.70399 0
M  V30 18214 O 1698.91 -1.92627 -5.70244 0
M  V30 18215 H 1702.74 -1.86626 -2.39592 0
M  V30 18216 H 1700.32 -0.969029 -1.13711 0
M  V30 18217 H 1702.2 -0.213819 -4.20857 0
M  V30 18218 H 1700.88 0.43964 -3.20701 0
M  V30 18219 H 1699.79 -1.8775 -3.23575 0
M  V30 18220 H 1701.12 -2.45317 -4.26709 0
M  V30 18221 N 1702.77 1.22662 -0.989529 0
M  V30 18222 C 1703.68 2.28162 -0.545835 0
M  V30 18223 C 1704.7 1.69251 0.403762 0
M  V30 18224 O 1705.87 1.99563 0.271428 0
M  V30 18225 C 1702.94 3.46434 0.135808 0
M  V30 18226 C 1702 4.20673 -0.85633 0
M  V30 18227 C 1701.23 5.33298 -0.207121 0
M  V30 18228 O 1701.46 5.6157 0.99975 0
M  V30 18229 O 1700.39 5.94977 -0.910288 0
M  V30 18230 H 1704.22 2.68276 -1.42344 0
M  V30 18231 H 1701.8 1.28766 -0.757609 0
M  V30 18232 H 1703.68 4.18207 0.517776 0
M  V30 18233 H 1702.36 3.08252 0.988035 0
M  V30 18234 H 1701.26 3.51186 -1.28917 0
M  V30 18235 H 1702.6 4.62726 -1.67765 0
M  V30 18236 N 1704.25 0.762308 1.37937 0
M  V30 18237 C 1705.48 0.332974 2.03899 0
M  V30 18238 C 1705.89 -1.04654 1.57621 0
M  V30 18239 O 1705.23 -1.67759 0.748504 0
M  V30 18240 C 1705.29 0.286844 3.58354 0
M  V30 18241 C 1704.96 1.60936 4.27725 0
M  V30 18242 C 1705.95 2.56012 4.52497 0
M  V30 18243 C 1703.64 1.88119 4.65743 0
M  V30 18244 C 1705.63 3.76486 5.14332 0
M  V30 18245 C 1703.32 3.08865 5.273 0
M  V30 18246 C 1704.32 4.02868 5.51531 0
M  V30 18247 O 1704.01 5.2149 6.11804 0
M  V30 18248 H 1703.74 0.138852 0.661586 0
M  V30 18249 H 1706.29 1.0346 1.77441 0
M  V30 18250 H 1704.52 -0.471086 3.8382 0
M  V30 18251 H 1706.21 -0.114146 4.05739 0
M  V30 18252 H 1706.98 2.36289 4.23547 0
M  V30 18253 H 1702.86 1.15783 4.46223 0
M  V30 18254 H 1706.4 4.49873 5.33161 0
M  V30 18255 H 1702.3 3.28477 5.55673 0
M  V30 18256 H 1703.06 5.22188 6.30287 0
M  V30 18257 N 1705.73 -1.49049 0.51208 0
M  V30 18258 C 1706.66 -2.32163 -0.249529 0
M  V30 18259 C 1707.64 -1.40957 -0.952114 0
M  V30 18260 O 1708.82 -1.69858 -0.94137 0
M  V30 18261 C 1705.95 -3.21737 -1.30776 0
M  V30 18262 C 1704.91 -4.21825 -0.724392 0
M  V30 18263 C 1704.23 -5.00411 -1.88396 0
M  V30 18264 C 1705.53 -5.21483 0.291975 0
M  V30 18265 H 1707.23 -2.96086 0.444253 0
M  V30 18266 H 1704.77 -1.42385 0.215093 0
M  V30 18267 H 1706.73 -3.78699 -1.84837 0
M  V30 18268 H 1705.45 -2.55779 -2.03088 0
M  V30 18269 H 1704.11 -3.66024 -0.205441 0
M  V30 18270 H 1703.76 -4.30891 -2.59502 0
M  V30 18271 H 1703.46 -5.68141 -1.49964 0
M  V30 18272 H 1704.98 -5.6022 -2.42869 0
M  V30 18273 H 1706.4 -5.73074 -0.160899 0
M  V30 18274 H 1704.79 -5.97166 0.592717 0
M  V30 18275 H 1705.86 -4.69714 1.20404 0
M  V30 18276 N 1707.21 -0.246397 -1.55662 0
M  V30 18277 C 1708.48 0.42879 -1.90842 0
M  V30 18278 C 1708.86 1.75905 -1.16707 0
M  V30 18279 O 1708.21 2.26723 -0.284391 0
M  V30 18280 C 1708.42 0.597368 -3.4385 0
M  V30 18281 C 1709.77 0.893477 -4.15093 0
M  V30 18282 O 1710.79 0.683251 -3.49586 0
M  V30 18283 O 1709.65 1.2938 -5.30964 0
M  V30 18284 H 1706.75 0.230145 -0.794331 0
M  V30 18285 H 1709.29 -0.290426 -1.67196 0
M  V30 18286 H 1708.06 -0.339952 -3.8982 0
M  V30 18287 H 1707.69 1.36714 -3.73356 0
M  V30 18288 N 1708.68 1.57577 0.026722 0
M  V30 18289 C 1710.09 1.77689 0.573022 0
M  V30 18290 C 1710.45 0.877771 1.7547 0
M  V30 18291 O 1709.57 0.0732156 2.16276 0
M  V30 18292 C 1710.17 3.22239 1.0463 0
M  V30 18293 C 1708.72 3.4354 1.5381 0
M  V30 18294 C 1707.87 2.73163 0.47722 0
M  V30 18295 H 1710.82 1.57441 -0.199502 0
M  V30 18296 H 1710.84 3.28882 1.91355 0
M  V30 18297 H 1710.36 3.87654 0.186047 0
M  V30 18298 H 1708.46 2.83304 2.42012 0
M  V30 18299 H 1708.57 4.52158 1.58398 0
M  V30 18300 H 1706.93 2.37004 0.932793 0
M  V30 18301 H 1707.72 3.41261 -0.373605 0
M  V30 18302 N 1710.16 -0.299034 1.54737 0
M  V30 18303 C 1711.44 -1.05371 1.64792 0
M  V30 18304 C 1711.82 -2.05155 0.497475 0
M  V30 18305 O 1711.17 -2.22837 -0.505573 0
M  V30 18306 C 1711.38 -1.73381 3.02886 0
M  V30 18307 C 1712.72 -2.25506 3.59767 0
M  V30 18308 O 1713.75 -1.8341 3.05351 0
M  V30 18309 O 1712.61 -3.02642 4.55049 0
M  V30 18310 H 1709.7 -0.487156 0.668287 0
M  V30 18311 H 1712.25 -0.296965 1.67081 0
M  V30 18312 H 1711.02 -1.00936 3.78058 0
M  V30 18313 H 1710.64 -2.55806 3.04383 0
M  V30 18314 N 1711.64 -1.47227 -0.562322 0
M  V30 18315 C 1712.6 -1.58887 -1.6519 0
M  V30 18316 C 1713.6 -0.464359 -1.53949 0
M  V30 18317 O 1714.79 -0.729279 -1.582 0
M  V30 18318 C 1711.92 -1.52853 -3.04711 0
M  V30 18319 H 1713.12 -2.5601 -1.56202 0
M  V30 18320 H 1710.67 -1.35341 -0.781832 0
M  V30 18321 H 1711.41 -0.570867 -3.19236 0
M  V30 18322 H 1711.19 -2.3446 -3.14279 0
M  V30 18323 H 1712.68 -1.6414 -3.83989 0
M  V30 18324 N 1713.12 0.808639 -1.35273 0
M  V30 18325 C 1714.36 1.57901 -1.29794 0
M  V30 18326 C 1714.72 1.91582 0.126611 0
M  V30 18327 O 1715.92 2.67056 0.305745 0
M  V30 18328 C 1714.19 2.83433 -2.17716 0
M  V30 18329 S 1715.75 3.73856 -2.29732 0
M  V30 18330 H 1712.57 0.541041 -0.461298 0
M  V30 18331 H 1715.17 0.954024 -1.70642 0
M  V30 18332 H 1713.88 2.5671 -3.202 0
M  V30 18333 H 1713.41 3.50919 -1.77818 0
M  V30 18334 H 1715.42 4.73595 -1.48063 0
M  V30 18335 N 1714.6 1.19237 1.03055 0
M  V30 18336 C 1715.84 0.993971 1.76427 0
M  V30 18337 C 1716.17 -0.475422 1.886 0
M  V30 18338 O 1715.43 -1.36925 1.39821 0
M  V30 18339 C 1715.73 1.60607 3.19281 0
M  V30 18340 C 1715.39 3.10329 3.27119 0
M  V30 18341 C 1714.05 3.51192 3.28965 0
M  V30 18342 C 1716.41 4.0634 3.264 0
M  V30 18343 C 1713.73 4.8662 3.27747 0
M  V30 18344 C 1716.09 5.41696 3.26723 0
M  V30 18345 C 1714.75 5.81992 3.26866 0
M  V30 18346 H 1714.02 0.36372 0.645592 0
M  V30 18347 H 1716.67 1.48455 1.20969 0
M  V30 18348 H 1714.97 1.03775 3.77807 0
M  V30 18349 H 1716.67 1.42786 3.74717 0
M  V30 18350 H 1713.26 2.77769 3.26409 0
M  V30 18351 H 1717.44 3.75814 3.24156 0
M  V30 18352 H 1712.7 5.17123 3.26181 0
M  V30 18353 H 1716.87 6.1585 3.25118 0
M  V30 18354 H 1714.5 6.86905 3.25676 0
M  V30 18355 N 1716.07 -1.22136 0.99602 0
M  V30 18356 C 1717.3 -1.94978 0.692172 0
M  V30 18357 C 1717.72 -1.73536 -0.743696 0
M  V30 18358 O 1717.07 -1.03637 -1.50219 0
M  V30 18359 C 1717.13 -3.47609 0.992498 0
M  V30 18360 O 1716.85 -3.68334 2.37195 0
M  V30 18361 C 1718.35 -4.37629 0.70679 0
M  V30 18362 H 1715.57 -0.620327 0.255802 0
M  V30 18363 H 1718.11 -1.55202 1.33164 0
M  V30 18364 H 1716.27 -3.85342 0.398785 0
M  V30 18365 H 1716.68 -4.62506 2.47362 0
M  V30 18366 H 1718.15 -5.43461 0.967173 0
M  V30 18367 H 1718.63 -4.37729 -0.359208 0
M  V30 18368 H 1719.24 -4.05528 1.2817 0
M  V30 18369 N 1717.55 -0.769612 -1.37531 0
M  V30 18370 C 1718.46 -0.15514 -2.34086 0
M  V30 18371 C 1719.48 0.682108 -1.60073 0
M  V30 18372 O 1720.65 0.602527 -1.92176 0
M  V30 18373 C 1717.72 0.715344 -3.3924 0
M  V30 18374 C 1716.78 -0.138116 -4.29078 0
M  V30 18375 C 1716.01 0.690916 -5.29209 0
M  V30 18376 O 1716.24 1.92812 -5.36824 0
M  V30 18377 O 1715.17 0.101247 -6.01815 0
M  V30 18378 H 1719 -0.952968 -2.88361 0
M  V30 18379 H 1716.58 -0.530738 -1.39655 0
M  V30 18380 H 1718.46 1.21236 -4.03584 0
M  V30 18381 H 1717.14 1.4914 -2.87296 0
M  V30 18382 H 1716.05 -0.681443 -3.67841 0
M  V30 18383 H 1717.38 -0.877202 -4.8432 0
M  V30 18384 N 1719.03 1.48775 -0.519977 0
M  V30 18385 C 1720.28 2.02092 0.0177154 0
M  V30 18386 C 1720.6 1.40024 1.35714 0
M  V30 18387 O 1719.87 0.562115 1.87662 0
M  V30 18388 H 1718.45 0.746939 0.00953578 0
M  V30 18389 H 1721.11 1.82595 -0.681535 0
M  V30 18390 H 1720.21 3.11815 0.133431 0
M  V30 18391 N 1720.51 0.254649 1.55529 0
M  V30 18392 C 1721.75 -0.369374 2.01035 0
M  V30 18393 C 1722.11 -1.54564 1.13904 0
M  V30 18394 O 1723.31 -2.23792 1.48899 0
M  V30 18395 C 1721.58 -0.761489 3.49194 0
M  V30 18396 S 1723.14 -1.37494 4.16702 0
M  V30 18397 H 1719.96 -0.115878 0.701494 0
M  V30 18398 H 1722.56 0.371696 1.91934 0
M  V30 18399 H 1721.27 0.103781 4.10269 0
M  V30 18400 H 1720.8 -1.53454 3.62237 0
M  V30 18401 H 1722.81 -2.66389 4.1863 0
M  V30 18402 N 1721.99 -1.57589 -0.0183649 0
M  V30 18403 C 1723.23 -1.90038 -0.708056 0
M  V30 18404 C 1723.57 -0.853686 -1.7443 0
M  V30 18405 O 1722.84 0.12994 -1.94065 0
M  V30 18406 C 1723.12 -3.33107 -1.3679 0
M  V30 18407 C 1722.98 -4.48479 -0.344448 0
M  V30 18408 C 1724.3 -3.75276 -2.29904 0
M  V30 18409 H 1721.41 -0.691134 -0.255934 0
M  V30 18410 H 1724.06 -1.89978 0.0291579 0
M  V30 18411 H 1722.21 -3.33289 -1.99626 0
M  V30 18412 H 1723.88 -4.60432 0.282816 0
M  V30 18413 H 1722.12 -4.32503 0.335196 0
M  V30 18414 H 1722.79 -5.45497 -0.844832 0
M  V30 18415 H 1725.27 -3.76529 -1.77103 0
M  V30 18416 H 1724.14 -4.76168 -2.73049 0
M  V30 18417 H 1724.41 -3.08124 -3.17036 0
M  V30 18418 N 1723.46 0.290824 -1.54893 0
M  V30 18419 C 1724.4 1.38087 -1.82933 0
M  V30 18420 C 1725.41 1.46365 -0.712811 0
M  V30 18421 O 1726.6 1.48501 -0.990432 0
M  V30 18422 C 1723.7 2.76374 -1.9614 0
M  V30 18423 C 1722.87 2.90905 -3.26639 0
M  V30 18424 C 1721.93 4.09754 -3.30134 0
M  V30 18425 O 1720.96 4.01356 -4.03611 0
M  V30 18426 N 1722.16 5.20878 -2.56254 0
M  V30 18427 H 1724.92 1.14385 -2.77013 0
M  V30 18428 H 1722.48 0.480916 -1.54592 0
M  V30 18429 H 1724.48 3.54144 -1.95868 0
M  V30 18430 H 1723.05 2.92978 -1.09008 0
M  V30 18431 H 1722.27 2.00164 -3.396 0
M  V30 18432 H 1723.55 2.97531 -4.12738 0
M  V30 18433 H 1722.95 5.30584 -1.96207 0
M  V30 18434 H 1721.51 5.96945 -2.61725 0
M  V30 18435 N 1724.94 1.47523 0.554506 0
M  V30 18436 C 1726.36 1.33101 0.880699 0
M  V30 18437 C 1726.56 0.323524 1.98886 0
M  V30 18438 O 1725.61 -0.263996 2.51116 0
M  V30 18439 C 1726.93 2.725 1.27138 0
M  V30 18440 C 1728.48 2.80805 1.38266 0
M  V30 18441 C 1728.95 4.20851 1.80688 0
M  V30 18442 N 1730.44 4.23406 1.87834 0
M  V30 18443 C 1731.18 5.28684 2.21993 0
M  V30 18444 N 1730.67 6.44264 2.54746 0
M  V30 18445 N 1732.47 5.16063 2.2279 0
M  V30 18446 H 1724.62 2.11661 -0.177062 0
M  V30 18447 H 1726.88 0.947856 -0.0165508 0
M  V30 18448 H 1726.59 3.47669 0.53093 0
M  V30 18449 H 1726.46 3.04445 2.22695 0
M  V30 18450 H 1728.85 2.05907 2.11391 0
M  V30 18451 H 1728.93 2.52511 0.408901 0
M  V30 18452 H 1728.57 4.96256 1.08131 0
M  V30 18453 H 1728.5 4.46572 2.79071 0
M  V30 18454 H 1730.99 3.40025 1.64897 0
M  V30 18455 H 1731.31 7.20351 2.79846 0
M  V30 18456 H 1729.65 6.4758 2.52321 0
M  V30 18457 H 1732.84 4.24793 1.96642 0
M  V30 18458 H 1733.01 5.98216 2.49081 0
M  V30 18459 N 1726.42 -0.801453 1.357 0
M  V30 18460 C 1727.67 -1.55879 1.2926 0
M  V30 18461 C 1728 -1.94055 -0.131552 0
M  V30 18462 O 1727.25 -1.61993 -1.09803 0
M  V30 18463 C 1727.55 -2.85531 2.14957 0
M  V30 18464 C 1727.22 -2.6655 3.63679 0
M  V30 18465 C 1725.88 -2.61081 4.04216 0
M  V30 18466 C 1728.23 -2.48725 4.58023 0
M  V30 18467 C 1725.56 -2.35737 5.37257 0
M  V30 18468 C 1727.91 -2.2491 5.91268 0
M  V30 18469 C 1726.57 -2.17867 6.30944 0
M  V30 18470 H 1725.84 -0.570401 0.472994 0
M  V30 18471 H 1728.49 -0.925627 1.67644 0
M  V30 18472 H 1726.8 -3.53252 1.69471 0
M  V30 18473 H 1728.49 -3.43256 2.07307 0
M  V30 18474 H 1725.08 -2.71656 3.31513 0
M  V30 18475 H 1729.27 -2.51959 4.27587 0
M  V30 18476 H 1724.52 -2.28758 5.66992 0
M  V30 18477 H 1728.7 -2.1011 6.63948 0
M  V30 18478 H 1726.32 -1.97991 7.33964 0
M  V30 18479 N 1727.9 -1.19782 -1.02421 0
M  V30 18480 C 1728.85 -0.93978 -2.108 0
M  V30 18481 C 1729.82 0.12716 -1.65613 0
M  V30 18482 O 1731 -0.0159669 -1.90793 0
M  V30 18483 C 1728.14 -0.489656 -3.41609 0
M  V30 18484 C 1727.25 -1.62389 -4.00317 0
M  V30 18485 C 1726.39 -1.12483 -5.19154 0
M  V30 18486 C 1725.43 -2.23266 -5.69929 0
M  V30 18487 N 1724.56 -1.74633 -6.80035 0
M  V30 18488 H 1729.4 -1.8677 -2.32209 0
M  V30 18489 H 1726.94 -0.931082 -1.13883 0
M  V30 18490 H 1728.9 -0.210049 -4.16671 0
M  V30 18491 H 1727.53 0.40127 -3.20296 0
M  V30 18492 H 1726.58 -2.0186 -3.22423 0
M  V30 18493 H 1727.89 -2.45836 -4.34011 0
M  V30 18494 H 1727.05 -0.800737 -6.01393 0
M  V30 18495 H 1725.79 -0.260155 -4.87006 0
M  V30 18496 H 1724.79 -2.56501 -4.863 0
M  V30 18497 H 1726.02 -3.10197 -6.04115 0
M  V30 18498 H 1723.96 -0.904804 -6.4973 0
M  V30 18499 H 1723.88 -2.51666 -7.12882 0
M  V30 18500 H 1725.15 -1.45201 -7.65857 0
M  V30 18501 N 1729.38 1.21606 -1.00248 0
M  V30 18502 C 1730.62 1.92326 -0.692091 0
M  V30 18503 C 1730.98 1.76196 0.76282 0
M  V30 18504 O 1732.18 2.41266 1.18508 0
M  V30 18505 C 1730.45 3.40099 -1.09853 0
M  V30 18506 S 1732.01 4.29304 -0.907961 0
M  V30 18507 H 1728.83 0.664561 -0.252744 0
M  V30 18508 H 1731.43 1.47181 -1.28678 0
M  V30 18509 H 1730.14 3.49355 -2.15359 0
M  V30 18510 H 1729.67 3.9026 -0.496031 0
M  V30 18511 H 1731.68 4.95811 0.196321 0
M  V30 18512 N 1730.86 0.776895 1.37121 0
M  V30 18513 C 1732.1 0.348792 2.01402 0
M  V30 18514 C 1732.46 -1.05625 1.60335 0
M  V30 18515 O 1733.66 -1.58475 2.17116 0
M  V30 18516 C 1731.93 0.493351 3.53979 0
M  V30 18517 S 1733.49 0.151273 4.38539 0
M  V30 18518 H 1730.31 0.133916 0.698275 0
M  V30 18519 H 1732.91 1.01264 1.6723 0
M  V30 18520 H 1731.61 1.51647 3.81355 0
M  V30 18521 H 1731.15 -0.186869 3.92956 0
M  V30 18522 H 1733.16 -1.05145 4.84932 0
M  V30 18523 N 1732.33 -1.48497 0.527859 0
M  V30 18524 C 1733.27 -2.27566 -0.273157 0
M  V30 18525 C 1734.28 -1.35235 -0.906381 0
M  V30 18526 O 1735.47 -1.60303 -0.785182 0
M  V30 18527 C 1732.57 -3.08546 -1.40187 0
M  V30 18528 C 1731.74 -4.28641 -0.870962 0
M  V30 18529 C 1730.8 -4.91449 -1.88054 0
M  V30 18530 O 1729.83 -5.50727 -1.43833 0
M  V30 18531 N 1731.03 -4.83501 -3.21259 0
M  V30 18532 H 1733.79 -2.96951 0.404963 0
M  V30 18533 H 1731.35 -1.578 0.362057 0
M  V30 18534 H 1733.35 -3.47434 -2.07537 0
M  V30 18535 H 1731.92 -2.41596 -1.98369 0
M  V30 18536 H 1731.14 -3.94194 -0.0215331 0
M  V30 18537 H 1732.42 -5.06385 -0.495105 0
M  V30 18538 H 1731.82 -4.36487 -3.59855 0
M  V30 18539 H 1730.38 -5.26495 -3.84248 0
M  V30 18540 N 1733.81 -0.262893 -1.55392 0
M  V30 18541 C 1735.06 0.357895 -1.99617 0
M  V30 18542 C 1735.39 1.56415 -1.151 0
M  V30 18543 O 1734.67 1.93273 -0.218139 0
M  V30 18544 C 1734.95 0.752095 -3.52158 0
M  V30 18545 C 1734.8 -0.460658 -4.47435 0
M  V30 18546 C 1736.12 1.59314 -4.10253 0
M  V30 18547 H 1733.24 0.128612 -0.725691 0
M  V30 18548 H 1735.88 -0.367399 -1.86414 0
M  V30 18549 H 1734.03 1.37006 -3.6354 0
M  V30 18550 H 1735.7 -1.09918 -4.48013 0
M  V30 18551 H 1733.95 -1.10093 -4.19597 0
M  V30 18552 H 1734.62 -0.141262 -5.51819 0
M  V30 18553 H 1737.09 1.07135 -4.02071 0
M  V30 18554 H 1735.97 1.83779 -5.1722 0
M  V30 18555 H 1736.23 2.57022 -3.59711 0
M  V30 18556 N 1735.29 1.57597 0.0100073 0
M  V30 18557 C 1736.24 2.089 1.02292 0
M  V30 18558 C 1737.23 1.00681 1.36234 0
M  V30 18559 O 1738.44 1.19155 1.34915 0
M  V30 18560 H 1734.81 0.666899 0.347491 0
M  V30 18561 H 1736.78 2.9301 0.56458 0
M  V30 18562 C 1735.53 2.59942 2.30923 0
M  V30 18563 H 1734.86 3.4284 2.05672 0
M  V30 18564 H 1736.3 2.99528 3.00098 0
M  V30 18565 C 1734.75 1.50907 3.01212 0
M  V30 18566 O 1735.28 0.886216 3.91802 0
M  V30 18567 N 1733.49 1.23895 2.62866 0
M  V30 18568 H 1733.04 1.7473 1.89281 0
M  V30 18569 H 1733 0.511591 3.1021 0
M  V30 18570 N 1736.77 -0.282606 1.55045 0
M  V30 18571 C 1738.02 -1.0132 1.74405 0
M  V30 18572 C 1738.33 -1.87792 0.547133 0
M  V30 18573 O 1739.54 -2.64257 0.622931 0
M  V30 18574 C 1737.99 -1.85128 3.08635 0
M  V30 18575 C 1737.6 -1.0357 4.35864 0
M  V30 18576 C 1739.34 -2.57676 3.37347 0
M  V30 18577 C 1737.25 -1.86761 5.61137 0
M  V30 18578 H 1736.18 -0.382013 0.650063 0
M  V30 18579 H 1738.83 -0.269307 1.81513 0
M  V30 18580 H 1737.21 -2.63576 2.95539 0
M  V30 18581 H 1738.39 -0.296061 4.59848 0
M  V30 18582 H 1736.7 -0.425208 4.14223 0
M  V30 18583 H 1739.3 -3.20303 4.28147 0
M  V30 18584 H 1739.64 -3.27464 2.57046 0
M  V30 18585 H 1740.18 -1.86264 3.51497 0
M  V30 18586 H 1736.91 -1.2141 6.44158 0
M  V30 18587 H 1736.43 -2.58348 5.4131 0
M  V30 18588 H 1738.11 -2.44361 5.9908 0
M  V30 18589 N 1738.25 -1.47815 -0.546675 0
M  V30 18590 C 1739.16 -1.63744 -1.68003 0
M  V30 18591 C 1740.17 -0.520118 -1.66044 0
M  V30 18592 O 1741.35 -0.789033 -1.853 0
M  V30 18593 C 1738.41 -1.65778 -3.04497 0
M  V30 18594 C 1737.47 -2.89015 -3.17441 0
M  V30 18595 C 1736.71 -2.90943 -4.47424 0
M  V30 18596 O 1736.93 -2.01769 -5.33522 0
M  V30 18597 O 1735.86 -3.82927 -4.64382 0
M  V30 18598 H 1739.69 -2.59665 -1.57505 0
M  V30 18599 H 1737.27 -1.31022 -0.717883 0
M  V30 18600 H 1739.16 -1.69734 -3.85705 0
M  V30 18601 H 1737.83 -0.730268 -3.15355 0
M  V30 18602 H 1736.74 -2.90599 -2.35591 0
M  V30 18603 H 1738.07 -3.81095 -3.11492 0
M  V30 18604 N 1739.72 0.794246 -1.36123 0
M  V30 18605 C 1740.63 1.93807 -1.32197 0
M  V30 18606 C 1741.65 1.7254 -0.2249 0
M  V30 18607 O 1742.83 1.9616 -0.456431 0
M  V30 18608 C 1739.89 3.28593 -1.10578 0
M  V30 18609 C 1738.95 3.6267 -2.29715 0
M  V30 18610 C 1738.18 4.91025 -2.09118 0
M  V30 18611 O 1738.41 5.6039 -1.06389 0
M  V30 18612 O 1737.34 5.23647 -2.96779 0
M  V30 18613 H 1741.17 2.00068 -2.28487 0
M  V30 18614 H 1738.75 0.933808 -1.16621 0
M  V30 18615 H 1740.63 4.0926 -1.0042 0
M  V30 18616 H 1739.31 3.23235 -0.17347 0
M  V30 18617 H 1738.22 2.82329 -2.4544 0
M  V30 18618 H 1739.55 3.72747 -3.21435 0
M  V30 18619 N 1741.2 1.20323 1.01785 0
M  V30 18620 C 1742.45 1.01063 1.75016 0
M  V30 18621 C 1742.77 -0.458458 1.89534 0
M  V30 18622 O 1742.04 -1.3315 1.43694 0
M  V30 18623 H 1740.62 0.370957 0.648383 0
M  V30 18624 H 1743.28 1.51411 1.22722 0
M  V30 18625 H 1742.38 1.46792 2.75424 0
M  V30 18626 N 1742.68 -1.21073 1.00892 0
M  V30 18627 C 1743.61 -2.25847 0.592897 0
M  V30 18628 C 1744.59 -1.6561 -0.38824 0
M  V30 18629 O 1745.78 -1.92238 -0.275361 0
M  V30 18630 C 1742.91 -3.47214 -0.0773439 0
M  V30 18631 C 1741.86 -4.19994 0.82398 0
M  V30 18632 C 1741.19 -5.34696 0.0199341 0
M  V30 18633 C 1742.49 -4.76964 2.12844 0
M  V30 18634 H 1744.18 -2.609 1.46873 0
M  V30 18635 H 1741.73 -1.25412 0.707656 0
M  V30 18636 H 1743.68 -4.19684 -0.379889 0
M  V30 18637 H 1742.4 -3.11303 -0.987833 0
M  V30 18638 H 1741.06 -3.49379 1.11041 0
M  V30 18639 H 1740.71 -4.95028 -0.891966 0
M  V30 18640 H 1740.41 -5.84319 0.620102 0
M  V30 18641 H 1741.93 -6.09974 -0.276336 0
M  V30 18642 H 1743.35 -5.41293 1.88878 0
M  V30 18643 H 1741.74 -5.36992 2.67879 0
M  V30 18644 H 1742.81 -3.96129 2.79659 0
M  V30 18645 N 1744.16 -0.784156 -1.36707 0
M  V30 18646 C 1745.41 -0.353434 -1.98986 0
M  V30 18647 C 1745.73 1.07714 -1.62551 0
M  V30 18648 O 1745 1.7416 -0.896938 0
M  V30 18649 H 1743.58 -0.127693 -0.736005 0
M  V30 18650 H 1746.24 -1.00503 -1.66988 0
M  V30 18651 H 1745.34 -0.441028 -3.08968 0
M  V30 18652 N 1745.64 1.48215 -0.535727 0
M  V30 18653 C 1746.58 2.29711 0.223891 0
M  V30 18654 C 1747.55 1.37727 0.928471 0
M  V30 18655 O 1748.74 1.66691 0.928375 0
M  V30 18656 C 1745.88 3.21224 1.26131 0
M  V30 18657 C 1744.99 4.2829 0.564985 0
M  V30 18658 C 1744.13 5.06976 1.58583 0
M  V30 18659 C 1743.17 6.05838 0.873288 0
M  V30 18660 N 1742.3 6.77562 1.83994 0
M  V30 18661 H 1747.14 2.94154 -0.477242 0
M  V30 18662 H 1744.68 1.45008 -0.247186 0
M  V30 18663 H 1746.64 3.72685 1.87514 0
M  V30 18664 H 1745.27 2.58693 1.93075 0
M  V30 18665 H 1744.32 3.80051 -0.162916 0
M  V30 18666 H 1745.63 4.988 0.00578231 0
M  V30 18667 H 1744.79 5.6248 2.27379 0
M  V30 18668 H 1743.52 4.36319 2.17893 0
M  V30 18669 H 1742.53 5.49533 0.171286 0
M  V30 18670 H 1743.75 6.78497 0.286219 0
M  V30 18671 H 1741.7 6.09651 2.42202 0
M  V30 18672 H 1741.62 7.44167 1.33233 0
M  V30 18673 H 1742.89 7.37652 2.51971 0
M  V30 18674 N 1747.11 0.27113 1.5525 0
M  V30 18675 C 1748.34 -0.353138 2.04371 0
M  V30 18676 C 1748.76 -1.48978 1.14835 0
M  V30 18677 O 1748.12 -1.8071 0.146138 0
M  V30 18678 C 1748.17 -0.815425 3.51259 0
M  V30 18679 O 1747.27 -1.92302 3.6482 0
M  V30 18680 H 1746.62 -0.0736207 0.659906 0
M  V30 18681 H 1749.15 0.404266 2.00566 0
M  V30 18682 H 1749.16 -1.11224 3.92547 0
M  V30 18683 H 1747.83 0.0162079 4.15897 0
M  V30 18684 H 1746.41 -1.62904 3.35435 0
M  V30 18685 N 1748.59 -1.576 -0.00164943 0
M  V30 18686 C 1749.84 -1.91617 -0.682236 0
M  V30 18687 C 1750.19 -0.872639 -1.71472 0
M  V30 18688 O 1749.49 0.11537 -1.91252 0
M  V30 18689 C 1749.68 -3.30147 -1.36886 0
M  V30 18690 C 1749.51 -4.47878 -0.404393 0
M  V30 18691 C 1748.28 -5.05298 -0.0153944 0
M  V30 18692 C 1750.48 -5.13249 0.328688 0
M  V30 18693 N 1748.46 -6.06545 0.947457 0
M  V30 18694 C 1749.83 -6.09311 1.14628 0
M  V30 18695 C 1751.89 -4.96349 0.392701 0
M  V30 18696 C 1750.59 -6.90294 2.02204 0
M  V30 18697 C 1752.61 -5.77916 1.25569 0
M  V30 18698 C 1751.98 -6.7357 2.06113 0
M  V30 18699 H 1748.08 -0.74956 -0.2229 0
M  V30 18700 H 1750.66 -1.94613 0.0583106 0
M  V30 18701 H 1748.83 -3.28029 -2.07971 0
M  V30 18702 H 1750.56 -3.51599 -2.00401 0
M  V30 18703 H 1747.32 -4.72045 -0.383417 0
M  V30 18704 H 1747.74 -6.6185 1.4242 0
M  V30 18705 H 1752.38 -4.22249 -0.215731 0
M  V30 18706 H 1750.1 -7.6372 2.64116 0
M  V30 18707 H 1753.69 -5.66881 1.30911 0
M  V30 18708 H 1752.57 -7.35587 2.71811 0
M  V30 18709 N 1750.07 0.274379 -1.55193 0
M  V30 18710 C 1751.32 1.00357 -1.76918 0
M  V30 18711 C 1751.67 1.83987 -0.562707 0
M  V30 18712 O 1750.96 1.8637 0.444625 0
M  V30 18713 C 1751.16 1.91958 -3.01475 0
M  V30 18714 C 1750.99 1.17342 -4.34121 0
M  V30 18715 C 1749.76 0.88967 -4.97406 0
M  V30 18716 C 1751.96 0.56454 -5.11192 0
M  V30 18717 N 1749.94 0.116574 -6.13789 0
M  V30 18718 C 1751.31 -0.0744586 -6.19955 0
M  V30 18719 C 1753.36 0.472246 -4.95655 0
M  V30 18720 C 1752.07 -0.796854 -7.14873 0
M  V30 18721 C 1754.09 -0.236554 -5.90927 0
M  V30 18722 C 1753.45 -0.864297 -6.99077 0
M  V30 18723 H 1749.55 0.349261 -0.699672 0
M  V30 18724 H 1752.14 0.279381 -1.92685 0
M  V30 18725 H 1750.31 2.61604 -2.87085 0
M  V30 18726 H 1752.04 2.58227 -3.1161 0
M  V30 18727 H 1748.8 1.19459 -4.58286 0
M  V30 18728 H 1749.22 -0.257264 -6.76511 0
M  V30 18729 H 1753.86 0.943254 -4.12144 0
M  V30 18730 H 1751.58 -1.27955 -7.97905 0
M  V30 18731 H 1755.17 -0.308266 -5.80983 0
M  V30 18732 H 1754.05 -1.40403 -7.71529 0
M  V30 18733 N 1751.55 1.48103 0.538828 0
M  V30 18734 C 1752.8 1.54925 1.29156 0
M  V30 18735 C 1753.11 0.224177 1.94311 0
M  V30 18736 O 1754.32 0.170559 2.70964 0
M  V30 18737 C 1752.77 2.73184 2.34304 0
M  V30 18738 C 1752.38 4.12297 1.75257 0
M  V30 18739 C 1754.12 2.89313 3.10642 0
M  V30 18740 C 1752.03 5.2183 2.78294 0
M  V30 18741 H 1750.96 0.576723 0.485702 0
M  V30 18742 H 1753.61 1.74418 0.570142 0
M  V30 18743 H 1751.99 2.47107 3.09441 0
M  V30 18744 H 1753.17 4.48355 1.06368 0
M  V30 18745 H 1751.48 4.0121 1.11442 0
M  V30 18746 H 1754.08 3.68313 3.87621 0
M  V30 18747 H 1754.42 1.98438 3.65962 0
M  V30 18748 H 1754.96 3.15248 2.42618 0
M  V30 18749 H 1751.7 6.14642 2.27805 0
M  V30 18750 H 1751.22 4.90269 3.45537 0
M  V30 18751 H 1752.89 5.49567 3.41446 0
M  V30 18752 N 1753.03 -0.787016 1.36542 0
M  V30 18753 C 1753.96 -1.91399 1.33749 0
M  V30 18754 C 1754.94 -1.68817 0.208559 0
M  V30 18755 O 1756.12 -1.89896 0.406574 0
M  V30 18756 C 1753.25 -3.28457 1.12842 0
M  V30 18757 C 1752.21 -3.65568 2.22585 0
M  V30 18758 C 1751.53 -5.01002 1.86818 0
M  V30 18759 C 1752.83 -3.73902 3.64684 0
M  V30 18760 H 1754.53 -1.93993 2.2805 0
M  V30 18761 H 1752.07 -0.931937 1.09777 0
M  V30 18762 H 1754.03 -4.06919 1.09522 0
M  V30 18763 H 1752.75 -3.26256 0.149918 0
M  V30 18764 H 1751.41 -2.89405 2.25035 0
M  V30 18765 H 1751.06 -4.95325 0.875361 0
M  V30 18766 H 1750.76 -5.26802 2.60294 0
M  V30 18767 H 1752.28 -5.81881 1.85058 0
M  V30 18768 H 1753.69 -4.4255 3.64448 0
M  V30 18769 H 1752.09 -4.11188 4.37086 0
M  V30 18770 H 1753.16 -2.74946 3.99416 0
M  V30 18771 N 1754.5 -1.20861 -1.01145 0
M  V30 18772 C 1755.92 -0.964575 -1.27154 0
M  V30 18773 C 1756.12 0.352861 -1.98386 0
M  V30 18774 O 1755.18 1.08012 -2.28232 0
M  V30 18775 C 1756.49 -2.15074 -2.10151 0
M  V30 18776 C 1758.04 -2.19229 -2.234 0
M  V30 18777 C 1758.51 -3.37346 -3.09777 0
M  V30 18778 N 1760 -3.37392 -3.17365 0
M  V30 18779 C 1760.74 -4.25434 -3.84439 0
M  V30 18780 N 1760.23 -5.23664 -4.53595 0
M  V30 18781 N 1762.03 -4.13261 -3.81014 0
M  V30 18782 H 1754.18 -2.05595 -0.533346 0
M  V30 18783 H 1756.44 -0.899928 -0.298048 0
M  V30 18784 H 1756.15 -3.10511 -1.65153 0
M  V30 18785 H 1756.02 -2.13598 -3.10895 0
M  V30 18786 H 1758.41 -1.24352 -2.6762 0
M  V30 18787 H 1758.49 -2.24752 -1.22148 0
M  V30 18788 H 1758.13 -4.32513 -2.66261 0
M  V30 18789 H 1758.06 -3.29061 -4.11128 0
M  V30 18790 H 1760.55 -2.66299 -2.68129 0
M  V30 18791 H 1760.87 -5.87158 -5.02459 0
M  V30 18792 H 1759.21 -5.27595 -4.52403 0
M  V30 18793 H 1762.4 -3.35786 -3.26137 0
M  V30 18794 H 1762.58 -4.82085 -4.3301 0
M  V30 18795 N 1755.98 1.20536 -1.01532 0
M  V30 18796 C 1756.93 2.23277 -0.584486 0
M  V30 18797 C 1757.9 1.6134 0.394773 0
M  V30 18798 O 1759.08 1.88514 0.294498 0
M  V30 18799 C 1756.22 3.45024 0.0723574 0
M  V30 18800 C 1755.34 4.21395 -0.951314 0
M  V30 18801 C 1754.47 5.30535 -0.265656 0
M  V30 18802 C 1753.51 5.98649 -1.27617 0
M  V30 18803 N 1752.65 6.99381 -0.61727 0
M  V30 18804 H 1757.49 2.59489 -1.46524 0
M  V30 18805 H 1755.03 1.27507 -0.733502 0
M  V30 18806 H 1756.98 4.14541 0.470303 0
M  V30 18807 H 1755.61 3.09508 0.916768 0
M  V30 18808 H 1754.67 3.50957 -1.46743 0
M  V30 18809 H 1755.98 4.68211 -1.71989 0
M  V30 18810 H 1755.13 6.06409 0.187857 0
M  V30 18811 H 1753.87 4.84754 0.535237 0
M  V30 18812 H 1752.88 5.21537 -1.74008 0
M  V30 18813 H 1754.1 6.46516 -2.07832 0
M  V30 18814 H 1752.05 6.55796 0.163777 0
M  V30 18815 H 1751.96 7.44317 -1.32393 0
M  V30 18816 H 1753.23 7.79275 -0.187306 0
M  V30 18817 N 1757.46 0.791395 1.36289 0
M  V30 18818 C 1758.69 0.376696 2.03442 0
M  V30 18819 C 1759.1 -1.00753 1.59669 0
M  V30 18820 O 1758.46 -1.64657 0.787042 0
M  V30 18821 C 1758.51 0.433074 3.58897 0
M  V30 18822 O 1758.23 1.76272 4.01073 0
M  V30 18823 C 1759.73 0.00925475 4.43299 0
M  V30 18824 H 1756.95 0.154989 0.652855 0
M  V30 18825 H 1759.5 1.07079 1.74225 0
M  V30 18826 H 1757.65 -0.212623 3.86816 0
M  V30 18827 H 1758.07 1.71492 4.95672 0
M  V30 18828 H 1759.54 0.0998386 5.5191 0
M  V30 18829 H 1760.02 -1.04362 4.26621 0
M  V30 18830 H 1760.62 0.627518 4.20645 0
M  V30 18831 N 1758.94 -1.47929 0.54358 0
M  V30 18832 C 1760.18 -2.04393 0.0166462 0
M  V30 18833 C 1760.54 -1.41025 -1.30291 0
M  V30 18834 O 1761.74 -1.88456 -1.91671 0
M  V30 18835 C 1760.02 -3.5729 -0.0888261 0
M  V30 18836 S 1761.57 -4.35162 -0.563857 0
M  V30 18837 H 1758.39 -0.710757 0.0185863 0
M  V30 18838 H 1760.99 -1.81471 0.727226 0
M  V30 18839 H 1759.7 -4.00938 0.876155 0
M  V30 18840 H 1759.23 -3.84687 -0.823374 0
M  V30 18841 H 1761.24 -4.6138 -1.82601 0
M  V30 18842 N 1760.42 -0.27936 -1.55104 0
M  V30 18843 C 1761.66 0.336205 -1.9969 0
M  V30 18844 C 1761.99 1.55542 -1.16777 0
M  V30 18845 O 1761.25 1.94385 -0.226497 0
M  V30 18846 C 1761.55 0.758312 -3.49263 0
M  V30 18847 C 1761.21 -0.356741 -4.49487 0
M  V30 18848 C 1759.87 -0.662905 -4.76612 0
M  V30 18849 C 1762.23 -1.10789 -5.09289 0
M  V30 18850 C 1759.55 -1.72373 -5.60807 0
M  V30 18851 C 1761.91 -2.15847 -5.94637 0
M  V30 18852 C 1760.57 -2.47094 -6.20081 0
M  V30 18853 H 1759.84 0.123026 -0.730716 0
M  V30 18854 H 1762.49 -0.393956 -1.87404 0
M  V30 18855 H 1760.79 1.56822 -3.59046 0
M  V30 18856 H 1762.49 1.24541 -3.8117 0
M  V30 18857 H 1759.08 -0.107997 -4.28464 0
M  V30 18858 H 1763.26 -0.884619 -4.88353 0
M  V30 18859 H 1758.52 -1.97079 -5.78766 0
M  V30 18860 H 1762.69 -2.74523 -6.40008 0
M  V30 18861 H 1760.32 -3.29428 -6.85114 0
M  V30 18862 N 1761.9 1.57599 -0.0067085 0
M  V30 18863 C 1762.83 2.11878 0.981331 0
M  V30 18864 C 1763.81 1.02949 1.35408 0
M  V30 18865 O 1764.99 1.30667 1.43665 0
M  V30 18866 C 1762.12 2.62757 2.27104 0
M  V30 18867 C 1761.08 3.76272 2.0397 0
M  V30 18868 C 1760.4 4.13491 3.39012 0
M  V30 18869 C 1761.7 5.03274 1.39688 0
M  V30 18870 H 1763.4 2.94683 0.529366 0
M  V30 18871 H 1760.94 1.41757 0.253187 0
M  V30 18872 H 1762.89 2.99359 2.96585 0
M  V30 18873 H 1761.62 1.77082 2.74426 0
M  V30 18874 H 1760.28 3.40074 1.36913 0
M  V30 18875 H 1759.93 3.24831 3.8405 0
M  V30 18876 H 1759.63 4.89972 3.24347 0
M  V30 18877 H 1761.15 4.52657 4.09797 0
M  V30 18878 H 1762.56 5.37604 1.99136 0
M  V30 18879 H 1760.96 5.84604 1.3549 0
M  V30 18880 H 1762.03 4.8351 0.366928 0
M  V30 18881 N 1763.37 -0.266145 1.55336 0
M  V30 18882 C 1764.62 -0.994648 1.7547 0
M  V30 18883 C 1764.94 -1.87201 0.56702 0
M  V30 18884 O 1766.14 -2.63582 0.650924 0
M  V30 18885 C 1764.6 -1.81844 3.10581 0
M  V30 18886 C 1764.21 -0.989413 4.36938 0
M  V30 18887 C 1765.95 -2.54084 3.40061 0
M  V30 18888 C 1763.86 -1.80799 5.63086 0
M  V30 18889 H 1762.79 -0.375097 0.654078 0
M  V30 18890 H 1765.44 -0.25004 1.81788 0
M  V30 18891 H 1763.82 -2.60427 2.98318 0
M  V30 18892 H 1764.99 -0.247271 4.60136 0
M  V30 18893 H 1763.31 -0.38125 4.14651 0
M  V30 18894 H 1765.91 -3.15744 4.3152 0
M  V30 18895 H 1766.25 -3.2472 2.60505 0
M  V30 18896 H 1766.78 -1.82526 3.53453 0
M  V30 18897 H 1763.52 -1.14571 6.4541 0
M  V30 18898 H 1763.04 -2.52592 5.4402 0
M  V30 18899 H 1764.72 -2.37994 6.01638 0
M  V30 18900 N 1764.85 -1.48386 -0.530967 0
M  V30 18901 C 1766.1 -1.56585 -1.28875 0
M  V30 18902 C 1766.43 -0.238583 -1.92729 0
M  V30 18903 O 1765.71 0.75533 -1.79235 0
M  V30 18904 C 1765.99 -2.70338 -2.37886 0
M  V30 18905 C 1765.84 -4.12766 -1.78729 0
M  V30 18906 C 1767.16 -2.79857 -3.39659 0
M  V30 18907 H 1764.28 -0.569986 -0.46721 0
M  V30 18908 H 1766.92 -1.80555 -0.591596 0
M  V30 18909 H 1765.07 -2.50031 -2.9735 0
M  V30 18910 H 1766.74 -4.4451 -1.23324 0
M  V30 18911 H 1764.99 -4.19813 -1.09269 0
M  V30 18912 H 1765.66 -4.88178 -2.57655 0
M  V30 18913 H 1768.13 -2.9825 -2.90149 0
M  V30 18914 H 1767.01 -3.61179 -4.13329 0
M  V30 18915 H 1767.27 -1.87974 -4.00148 0
M  V30 18916 N 1766.33 0.779763 -1.36958 0
M  V30 18917 C 1767.24 1.92394 -1.34245 0
M  V30 18918 C 1768.26 1.72292 -0.243187 0
M  V30 18919 O 1769.43 1.95665 -0.477211 0
M  V30 18920 C 1766.5 3.27402 -1.14057 0
M  V30 18921 C 1765.56 3.60213 -2.33548 0
M  V30 18922 C 1764.79 4.88779 -2.14314 0
M  V30 18923 O 1765.01 5.59231 -1.12327 0
M  V30 18924 O 1763.95 5.20469 -3.02316 0
M  V30 18925 H 1767.77 1.97633 -2.30596 0
M  V30 18926 H 1765.36 0.921386 -1.17605 0
M  V30 18927 H 1767.24 4.08172 -1.04755 0
M  V30 18928 H 1765.92 3.23033 -0.207744 0
M  V30 18929 H 1764.82 2.7971 -2.48421 0
M  V30 18930 H 1766.16 3.69317 -3.25371 0
M  V30 18931 N 1767.81 1.21396 1.00503 0
M  V30 18932 C 1768.76 0.940669 2.07691 0
M  V30 18933 C 1769.74 -0.104065 1.60563 0
M  V30 18934 O 1770.93 0.104861 1.76689 0
M  V30 18935 C 1768.06 0.507176 3.39533 0
M  V30 18936 C 1767.15 1.58598 3.93329 0
M  V30 18937 N 1767.54 2.81104 4.20493 0
M  V30 18938 C 1765.84 1.45484 4.21605 0
M  V30 18939 C 1766.54 3.50775 4.64038 0
M  V30 18940 N 1765.51 2.78214 4.67009 0
M  V30 18941 H 1769.32 1.87141 2.26617 0
M  V30 18942 H 1766.83 1.10969 1.18574 0
M  V30 18943 H 1768.83 0.292749 4.15871 0
M  V30 18944 H 1767.49 -0.416806 3.22014 0
M  V30 18945 H 1768.5 3.17647 4.09049 0
M  V30 18946 H 1765.18 0.596142 4.13222 0
M  V30 18947 H 1766.57 4.55667 4.93779 0
M  V30 18948 N 1769.29 -1.19996 1.0217 0
M  V30 18949 C 1770.23 -2.25 0.589726 0
M  V30 18950 C 1771.23 -1.65218 -0.374086 0
M  V30 18951 O 1772.43 -1.78346 -0.243449 0
M  V30 18952 H 1768.81 -0.731968 0.172416 0
M  V30 18953 H 1770.78 -2.58759 1.48615 0
M  V30 18954 C 1769.53 -3.47663 -0.0509896 0
M  V30 18955 H 1768.85 -3.93946 0.681649 0
M  V30 18956 H 1770.29 -4.22819 -0.316287 0
M  V30 18957 C 1768.75 -3.11001 -1.29538 0
M  V30 18958 O 1769.28 -3.23 -2.38818 0
M  V30 18959 N 1767.49 -2.65502 -1.18141 0
M  V30 18960 H 1767.03 -2.55938 -0.292172 0
M  V30 18961 H 1766.99 -2.41342 -2.01498 0
M  V30 18962 N 1770.76 -0.798611 -1.35867 0
M  V30 18963 C 1772.01 -0.38492 -1.99725 0
M  V30 18964 C 1772.36 1.03438 -1.6223 0
M  V30 18965 O 1771.66 1.70634 -0.871464 0
M  V30 18966 C 1771.85 -0.496572 -3.53934 0
M  V30 18967 C 1771.68 -1.92517 -4.06408 0
M  V30 18968 C 1770.45 -2.5518 -4.36132 0
M  V30 18969 C 1772.65 -2.88862 -4.25515 0
M  V30 18970 N 1770.63 -3.89534 -4.74486 0
M  V30 18971 C 1772 -4.08068 -4.66777 0
M  V30 18972 C 1774.06 -2.85798 -4.07706 0
M  V30 18973 C 1772.76 -5.24631 -4.92092 0
M  V30 18974 C 1774.79 -4.01557 -4.34173 0
M  V30 18975 C 1774.15 -5.19509 -4.75699 0
M  V30 18976 H 1770.25 -0.188458 -0.758952 0
M  V30 18977 H 1772.83 -1.03816 -1.64713 0
M  V30 18978 H 1771 0.126631 -3.88194 0
M  V30 18979 H 1772.73 -0.0582382 -4.04658 0
M  V30 18980 H 1769.49 -2.06593 -4.26165 0
M  V30 18981 H 1769.91 -4.58684 -4.97934 0
M  V30 18982 H 1774.55 -1.95762 -3.7475 0
M  V30 18983 H 1772.27 -6.15246 -5.23926 0
M  V30 18984 H 1775.86 -4.00558 -4.21954 0
M  V30 18985 H 1774.74 -6.07594 -4.95781 0
M  V30 18986 N 1772.24 1.47639 -0.551417 0
M  V30 18987 C 1773.49 2.02484 -0.0252051 0
M  V30 18988 C 1773.82 1.42638 1.3223 0
M  V30 18989 O 1773.07 0.569434 1.87232 0
M  V30 18990 C 1773.37 3.57187 0.123467 0
M  V30 18991 C 1773.04 4.35925 -1.15241 0
M  V30 18992 C 1771.7 4.57157 -1.50203 0
M  V30 18993 C 1774.05 4.81377 -1.99815 0
M  V30 18994 C 1771.38 5.2109 -2.69597 0
M  V30 18995 C 1773.73 5.46626 -3.18406 0
M  V30 18996 C 1772.39 5.66093 -3.53688 0
M  V30 18997 H 1771.66 0.740943 -0.0092232 0
M  V30 18998 H 1774.31 1.77378 -0.721764 0
M  V30 18999 H 1772.62 3.81253 0.902951 0
M  V30 19000 H 1774.31 3.97267 0.545876 0
M  V30 19001 H 1770.9 4.19674 -0.870169 0
M  V30 19002 H 1775.09 4.64756 -1.74112 0
M  V30 19003 H 1770.34 5.34356 -2.97108 0
M  V30 19004 H 1774.52 5.8081 -3.84231 0
M  V30 19005 H 1772.14 6.15404 -4.46298 0
M  V30 19006 N 1773.72 0.287581 1.54954 0
M  V30 19007 C 1774.63 -0.604236 2.26685 0
M  V30 19008 C 1775.65 -1.1597 1.29719 0
M  V30 19009 O 1776.82 -1.18735 1.62678 0
M  V30 19010 C 1773.89 -1.76612 2.98344 0
M  V30 19011 C 1772.95 -1.24608 4.10818 0
M  V30 19012 C 1772.18 -2.35258 4.7905 0
M  V30 19013 O 1772.4 -3.54879 4.46561 0
M  V30 19014 O 1771.34 -2.02709 5.66739 0
M  V30 19015 H 1775.16 -0.0227663 3.03691 0
M  V30 19016 H 1772.75 0.0545243 1.493 0
M  V30 19017 H 1774.63 -2.44332 3.43336 0
M  V30 19018 H 1773.31 -2.33444 2.24244 0
M  V30 19019 H 1772.21 -0.53498 3.70255 0
M  V30 19020 H 1773.55 -0.723348 4.86856 0
M  V30 19021 N 1775.2 -1.57593 0.0150662 0
M  V30 19022 C 1776.43 -1.95504 -0.677174 0
M  V30 19023 C 1776.84 -0.8908 -1.66464 0
M  V30 19024 O 1776.2 0.128818 -1.82045 0
M  V30 19025 C 1776.25 -3.33463 -1.39589 0
M  V30 19026 O 1775.97 -4.35803 -0.448005 0
M  V30 19027 C 1777.47 -3.85923 -2.18125 0
M  V30 19028 H 1774.69 -0.644226 -0.187652 0
M  V30 19029 H 1777.24 -2.04378 0.070661 0
M  V30 19030 H 1775.39 -3.25851 -2.09523 0
M  V30 19031 H 1775.8 -5.157 -0.956756 0
M  V30 19032 H 1777.28 -4.84838 -2.63887 0
M  V30 19033 H 1777.76 -3.19423 -3.01439 0
M  V30 19034 H 1778.36 -3.96758 -1.53176 0
M  V30 19035 N 1776.68 0.257904 -1.55475 0
M  V30 19036 C 1777.92 0.98747 -1.76792 0
M  V30 19037 C 1778.25 1.85732 -0.577411 0
M  V30 19038 O 1777.51 1.90698 0.439647 0
M  V30 19039 C 1777.81 1.8875 -3.03494 0
M  V30 19040 C 1777.47 1.17391 -4.35351 0
M  V30 19041 C 1776.13 0.976662 -4.71184 0
M  V30 19042 C 1778.49 0.667299 -5.16911 0
M  V30 19043 C 1775.81 0.260314 -5.86122 0
M  V30 19044 C 1778.17 -0.0355283 -6.3259 0
M  V30 19045 C 1776.83 -0.244359 -6.67053 0
M  V30 19046 H 1776.1 0.361341 -0.646926 0
M  V30 19047 H 1778.75 0.258469 -1.89748 0
M  V30 19048 H 1777.05 2.6832 -2.85502 0
M  V30 19049 H 1778.75 2.45348 -3.17184 0
M  V30 19050 H 1775.34 1.33758 -4.07194 0
M  V30 19051 H 1779.52 0.807271 -4.89691 0
M  V30 19052 H 1774.78 0.0879391 -6.11337 0
M  V30 19053 H 1778.95 -0.435775 -6.95035 0
M  V30 19054 H 1776.58 -0.801403 -7.55964 0
M  V30 19055 N 1778.15 1.48666 0.52309 0
M  V30 19056 C 1779.4 1.56286 1.27505 0
M  V30 19057 C 1779.72 0.244774 1.94062 0
M  V30 19058 O 1780.92 0.199289 2.70768 0
M  V30 19059 C 1779.38 2.75654 2.31393 0
M  V30 19060 C 1778.99 4.14133 1.70874 0
M  V30 19061 C 1780.73 2.92591 3.07556 0
M  V30 19062 C 1778.64 5.24752 2.72743 0
M  V30 19063 H 1777.57 0.581842 0.479558 0
M  V30 19064 H 1780.22 1.75013 0.551611 0
M  V30 19065 H 1778.6 2.50376 3.06803 0
M  V30 19066 H 1779.77 4.49458 1.01607 0
M  V30 19067 H 1778.09 4.0237 1.0718 0
M  V30 19068 H 1780.69 3.72403 3.83692 0
M  V30 19069 H 1781.03 2.02308 3.63837 0
M  V30 19070 H 1781.56 3.17804 2.39261 0
M  V30 19071 H 1778.3 6.17024 2.21273 0
M  V30 19072 H 1777.82 4.93907 3.40318 0
M  V30 19073 H 1779.5 5.53158 3.35598 0
M  V30 19074 N 1779.63 -0.772489 1.37369 0
M  V30 19075 C 1780.88 -1.52629 1.31861 0
M  V30 19076 C 1781.19 -1.9537 -0.0947795 0
M  V30 19077 O 1782.4 -2.70131 -0.27233 0
M  V30 19078 C 1780.86 -2.75608 2.31448 0
M  V30 19079 C 1780.46 -2.39969 3.78311 0
M  V30 19080 C 1782.21 -3.53553 2.34948 0
M  V30 19081 C 1780.12 -3.59445 4.69631 0
M  V30 19082 H 1779.05 -0.573019 0.490066 0
M  V30 19083 H 1781.7 -0.846178 1.62825 0
M  V30 19084 H 1780.08 -3.45505 1.935 0
M  V30 19085 H 1781.25 -1.7786 4.25091 0
M  V30 19086 H 1779.57 -1.752 3.77748 0
M  V30 19087 H 1782.16 -4.42353 3.00379 0
M  V30 19088 H 1782.51 -3.93359 1.36287 0
M  V30 19089 H 1783.04 -2.90652 2.716 0
M  V30 19090 H 1779.78 -3.24721 5.69418 0
M  V30 19091 H 1779.3 -4.20662 4.27555 0
M  V30 19092 H 1780.98 -4.26267 4.86729 0
M  V30 19093 N 1781.11 -1.21927 -0.998575 0
M  V30 19094 C 1782.36 -1.0404 -1.7373 0
M  V30 19095 C 1782.69 0.425251 -1.89794 0
M  V30 19096 O 1781.94 1.3317 -1.43402 0
M  V30 19097 C 1782.24 -1.69015 -3.1491 0
M  V30 19098 C 1781.91 -3.18893 -3.18776 0
M  V30 19099 C 1780.57 -3.5979 -3.19538 0
M  V30 19100 C 1782.92 -4.14851 -3.15512 0
M  V30 19101 C 1780.25 -4.95138 -3.1473 0
M  V30 19102 C 1782.6 -5.50168 -3.12246 0
M  V30 19103 C 1781.26 -5.90454 -3.11321 0
M  V30 19104 H 1780.53 -0.380709 -0.635721 0
M  V30 19105 H 1783.18 -1.5161 -1.1699 0
M  V30 19106 H 1781.49 -1.13755 -3.74923 0
M  V30 19107 H 1783.18 -1.52671 -3.708 0
M  V30 19108 H 1779.77 -2.86325 -3.18929 0
M  V30 19109 H 1783.96 -3.84277 -3.14078 0
M  V30 19110 H 1779.21 -5.25589 -3.12356 0
M  V30 19111 H 1783.39 -6.24254 -3.08675 0
M  V30 19112 H 1781.01 -6.95299 -3.0735 0
M  V30 19113 N 1782.59 1.19452 -1.02805 0
M  V30 19114 C 1783.52 2.21405 -0.552712 0
M  V30 19115 C 1784.5 1.5745 0.405999 0
M  V30 19116 O 1785.68 1.85707 0.323296 0
M  V30 19117 C 1782.81 3.38143 0.194179 0
M  V30 19118 C 1781.86 4.2045 -0.715836 0
M  V30 19119 S 1782.69 4.88601 -2.19156 0
M  V30 19120 C 1783.85 6.08749 -1.45516 0
M  V30 19121 H 1784.08 2.61383 -1.41655 0
M  V30 19122 H 1781.61 1.29686 -0.837915 0
M  V30 19123 H 1783.57 4.05807 0.618972 0
M  V30 19124 H 1782.23 2.96602 1.03374 0
M  V30 19125 H 1781.42 5.03808 -0.139277 0
M  V30 19126 H 1781.03 3.581 -1.07891 0
M  V30 19127 H 1783.32 6.73432 -0.74131 0
M  V30 19128 H 1784.26 6.70887 -2.26531 0
M  V30 19129 H 1784.67 5.56397 -0.95302 0
M  V30 19130 N 1784.07 0.805805 1.35442 0
M  V30 19131 C 1785.32 0.382303 1.98044 0
M  V30 19132 C 1785.63 -1.05602 1.64644 0
M  V30 19133 O 1786.83 -1.5826 2.20604 0
M  V30 19134 C 1785.29 0.632619 3.54296 0
M  V30 19135 C 1784.9 2.08344 3.96607 0
M  V30 19136 C 1786.64 0.274435 4.23612 0
M  V30 19137 C 1784.55 2.27954 5.45702 0
M  V30 19138 H 1783.48 0.13921 0.741037 0
M  V30 19139 H 1786.13 0.989752 1.54519 0
M  V30 19140 H 1784.51 -0.0447699 3.95975 0
M  V30 19141 H 1785.69 2.79857 3.66083 0
M  V30 19142 H 1784 2.40142 3.40178 0
M  V30 19143 H 1786.6 0.399019 5.33209 0
M  V30 19144 H 1786.94 -0.779292 4.08941 0
M  V30 19145 H 1787.47 0.90571 3.87352 0
M  V30 19146 H 1784.21 3.3177 5.6534 0
M  V30 19147 H 1783.73 1.60965 5.77798 0
M  V30 19148 H 1785.41 2.09469 6.12153 0
M  V30 19149 N 1785.54 -1.47344 0.559239 0
M  V30 19150 C 1786.47 -2.32839 -0.175542 0
M  V30 19151 C 1787.46 -1.43914 -0.906787 0
M  V30 19152 O 1788.64 -1.72767 -0.886855 0
M  V30 19153 C 1785.77 -3.25735 -1.20474 0
M  V30 19154 C 1784.72 -4.23916 -0.589825 0
M  V30 19155 C 1784.05 -5.06151 -1.7238 0
M  V30 19156 C 1785.35 -5.2029 0.457733 0
M  V30 19157 H 1787.04 -2.94522 0.538225 0
M  V30 19158 H 1784.59 -1.41628 0.260282 0
M  V30 19159 H 1786.54 -3.84388 -1.72695 0
M  V30 19160 H 1785.27 -2.62111 -1.94847 0
M  V30 19161 H 1783.93 -3.66492 -0.0888897 0
M  V30 19162 H 1783.57 -4.38929 -2.45663 0
M  V30 19163 H 1783.27 -5.72625 -1.31813 0
M  V30 19164 H 1784.8 -5.67663 -2.24923 0
M  V30 19165 H 1786.21 -5.73296 0.0215019 0
M  V30 19166 H 1784.61 -5.94978 0.7824 0
M  V30 19167 H 1785.68 -4.65645 1.35286 0
M  V30 19168 N 1787.02 -0.295795 -1.54799 0
M  V30 19169 C 1787.95 0.575863 -2.26288 0
M  V30 19170 C 1788.93 1.14217 -1.26049 0
M  V30 19171 O 1790.12 1.17248 -1.54812 0
M  V30 19172 C 1787.25 1.7503 -2.9997 0
M  V30 19173 C 1786.2 1.31459 -4.07311 0
M  V30 19174 C 1785.53 2.57377 -4.6868 0
M  V30 19175 C 1786.83 0.449629 -5.20361 0
M  V30 19176 H 1788.52 -0.0203797 -2.99393 0
M  V30 19177 H 1786.07 -0.0112418 -1.43996 0
M  V30 19178 H 1788.02 2.36615 -3.487 0
M  V30 19179 H 1786.75 2.3727 -2.24434 0
M  V30 19180 H 1785.4 0.721829 -3.59423 0
M  V30 19181 H 1785.05 3.1792 -3.89789 0
M  V30 19182 H 1784.75 2.28927 -5.41171 0
M  V30 19183 H 1786.28 3.19774 -5.2017 0
M  V30 19184 H 1787.69 0.971014 -5.65017 0
M  V30 19185 H 1786.09 0.259121 -5.9954 0
M  V30 19186 H 1787.16 -0.526564 -4.82032 0
M  V30 19187 N 1788.5 1.57583 -0.0234236 0
M  V30 19188 C 1789.73 1.96267 0.670371 0
M  V30 19189 C 1790.15 0.899586 1.65194 0
M  V30 19190 O 1789.51 -0.140079 1.80758 0
M  V30 19191 C 1789.56 3.34049 1.35806 0
M  V30 19192 O 1788.66 3.3001 2.4732 0
M  V30 19193 H 1788 0.640097 0.176557 0
M  V30 19194 H 1790.53 2.04429 -0.0835829 0
M  V30 19195 H 1790.54 3.70151 1.71616 0
M  V30 19196 H 1789.22 4.10969 0.63852 0
M  V30 19197 H 1787.79 3.05618 2.13664 0
M  V30 19198 N 1789.98 -0.249655 1.5561 0
M  V30 19199 C 1791.2 -0.999931 1.81703 0
M  V30 19200 C 1791.63 -1.7827 0.600113 0
M  V30 19201 O 1790.99 -1.75606 -0.450799 0
M  V30 19202 C 1791.04 -1.9157 3.05505 0
M  V30 19203 O 1790.14 -3.00702 2.82227 0
M  V30 19204 H 1789.48 -0.284673 0.599881 0
M  V30 19205 H 1792.01 -0.27148 2.02791 0
M  V30 19206 H 1792.02 -2.33088 3.34864 0
M  V30 19207 H 1790.7 -1.34014 3.93717 0
M  V30 19208 H 1789.27 -2.63332 2.64027 0
M  V30 19209 N 1791.46 -1.48941 -0.515198 0
M  V30 19210 C 1792.71 -1.57398 -1.26768 0
M  V30 19211 C 1793.03 -0.256213 -1.93309 0
M  V30 19212 O 1792.3 0.723408 -1.82054 0
M  V30 19213 H 1790.88 -0.579895 -0.470883 0
M  V30 19214 H 1793.54 -1.85489 -0.598315 0
M  V30 19215 H 1792.63 -2.36272 -2.03916 0
M  V30 19216 N 1792.94 0.765193 -1.37777 0
M  V30 19217 C 1793.9 1.8603 -1.33886 0
M  V30 19218 C 1794.9 1.58974 -0.241614 0
M  V30 19219 O 1796.09 1.66935 -0.497843 0
M  V30 19220 C 1793.22 3.2329 -1.08151 0
M  V30 19221 H 1794.41 1.9089 -2.31303 0
M  V30 19222 H 1791.97 0.965653 -1.22902 0
M  V30 19223 H 1792.7 3.24103 -0.112926 0
M  V30 19224 H 1792.49 3.4432 -1.8758 0
M  V30 19225 H 1793.98 4.03367 -1.08095 0
M  V30 19226 N 1794.41 1.22455 0.992094 0
M  V30 19227 C 1795.34 1.01961 2.10063 0
M  V30 19228 C 1796.32 -0.0597186 1.69995 0
M  V30 19229 O 1797.51 0.102655 1.93928 0
M  V30 19230 C 1794.64 0.597442 3.42123 0
M  V30 19231 C 1793.59 1.62279 3.96042 0
M  V30 19232 C 1792.92 1.05644 5.2416 0
M  V30 19233 C 1794.22 3.01296 4.26635 0
M  V30 19234 H 1795.91 1.94678 2.27466 0
M  V30 19235 H 1793.46 0.937422 1.09309 0
M  V30 19236 H 1795.41 0.441175 4.19084 0
M  V30 19237 H 1794.14 -0.365401 3.24549 0
M  V30 19238 H 1792.8 1.76685 3.21213 0
M  V30 19239 H 1792.44 0.0849267 5.02928 0
M  V30 19240 H 1792.14 1.74144 5.61202 0
M  V30 19241 H 1793.67 0.911774 6.03754 0
M  V30 19242 H 1795.08 2.9026 4.94391 0
M  V30 19243 H 1793.48 3.66928 4.74852 0
M  V30 19244 H 1794.55 3.51168 3.34378 0
M  V30 19245 N 1795.89 -1.18905 1.03437 0
M  V30 19246 C 1796.85 -2.20529 0.624461 0
M  V30 19247 C 1797.85 -1.57688 -0.314824 0
M  V30 19248 O 1799.04 -1.73906 -0.101082 0
M  V30 19249 C 1796.18 -3.40793 -0.0854166 0
M  V30 19250 H 1797.37 -2.58309 1.5237 0
M  V30 19251 H 1794.92 -1.32679 0.826189 0
M  V30 19252 H 1795.66 -3.08538 -0.998747 0
M  V30 19253 H 1795.44 -3.87642 0.589596 0
M  V30 19254 H 1796.93 -4.16055 -0.358938 0
M  V30 19255 N 1797.37 -0.812977 -1.35013 0
M  V30 19256 C 1798.62 -0.396345 -1.98583 0
M  V30 19257 C 1798.94 1.0381 -1.6448 0
M  V30 19258 O 1798.2 1.73604 -0.903344 0
M  V30 19259 C 1798.5 -0.534083 -3.53387 0
M  V30 19260 C 1798.16 -1.93278 -4.07375 0
M  V30 19261 C 1796.83 -2.31543 -4.21831 0
M  V30 19262 C 1799.18 -2.84756 -4.36535 0
M  V30 19263 C 1796.51 -3.60641 -4.62769 0
M  V30 19264 C 1798.86 -4.13308 -4.78915 0
M  V30 19265 C 1797.52 -4.51563 -4.91576 0
M  V30 19266 H 1796.79 -0.145033 -0.726668 0
M  V30 19267 H 1799.44 -1.035 -1.61121 0
M  V30 19268 H 1797.74 0.188002 -3.91349 0
M  V30 19269 H 1799.44 -0.192396 -4.00538 0
M  V30 19270 H 1796.03 -1.62551 -3.96579 0
M  V30 19271 H 1800.22 -2.56441 -4.24914 0
M  V30 19272 H 1795.47 -3.9012 -4.70761 0
M  V30 19273 H 1799.65 -4.84287 -5.00439 0
M  V30 19274 H 1797.27 -5.51649 -5.23056 0
M  V30 19275 N 1798.85 1.47045 -0.567045 0
M  V30 19276 C 1799.76 2.33924 0.177998 0
M  V30 19277 C 1800.77 1.48797 0.901967 0
M  V30 19278 O 1801.95 1.81704 0.868662 0
M  V30 19279 C 1799.01 3.25687 1.18865 0
M  V30 19280 C 1798.08 4.26708 0.471049 0
M  V30 19281 C 1797.31 5.14087 1.43355 0
M  V30 19282 O 1797.53 5.041 2.66907 0
M  V30 19283 O 1796.47 5.94313 0.952674 0
M  V30 19284 H 1800.29 2.98952 -0.534907 0
M  V30 19285 H 1797.88 1.45765 -0.327571 0
M  V30 19286 H 1799.76 3.82342 1.7718 0
M  V30 19287 H 1798.43 2.63274 1.8833 0
M  V30 19288 H 1797.34 3.73785 -0.153539 0
M  V30 19289 H 1798.67 4.91862 -0.182337 0
M  V30 19290 N 1800.33 0.304 1.5464 0
M  V30 19291 C 1801.6 -0.357665 1.92302 0
M  V30 19292 C 1801.98 -1.71453 1.23155 0
M  V30 19293 O 1801.33 -2.25512 0.368342 0
M  V30 19294 C 1801.54 -0.469339 3.4583 0
M  V30 19295 C 1802.89 -0.738803 4.18123 0
M  V30 19296 O 1803.91 -0.553033 3.51881 0
M  V30 19297 O 1802.77 -1.09585 5.354 0
M  V30 19298 H 1799.87 -0.200506 0.802326 0
M  V30 19299 H 1802.41 0.352279 1.66003 0
M  V30 19300 H 1801.18 0.484397 3.8829 0
M  V30 19301 H 1800.81 -1.22763 3.78173 0
M  V30 19302 N 1801.8 -1.57568 0.0317802 0
M  V30 19303 C 1803.05 -1.91087 -0.645639 0
M  V30 19304 C 1803.37 -0.910108 -1.73137 0
M  V30 19305 O 1804.57 -1.13665 -2.46562 0
M  V30 19306 C 1803.03 -3.39317 -1.19966 0
M  V30 19307 C 1802.64 -4.47759 -0.147068 0
M  V30 19308 C 1804.38 -3.81901 -1.85343 0
M  V30 19309 C 1802.29 -5.87088 -0.712872 0
M  V30 19310 H 1801.22 -0.713112 -0.244923 0
M  V30 19311 H 1803.87 -1.83241 0.0975145 0
M  V30 19312 H 1802.25 -3.42105 -1.99451 0
M  V30 19313 H 1803.42 -4.56535 0.625518 0
M  V30 19314 H 1801.74 -4.14395 0.408109 0
M  V30 19315 H 1804.34 -4.83352 -2.28636 0
M  V30 19316 H 1804.68 -3.17104 -2.69724 0
M  V30 19317 H 1805.21 -3.81548 -1.12544 0
M  V30 19318 H 1801.95 -6.55434 0.0928582 0
M  V30 19319 H 1801.47 -5.81913 -1.45388 0
M  V30 19320 H 1803.15 -6.3574 -1.20179 0
M  V30 19321 N 1803.28 0.241399 -1.5574 0
M  V30 19322 C 1804.51 0.984645 -1.81627 0
M  V30 19323 C 1804.92 1.79234 -0.605959 0
M  V30 19324 O 1804.26 1.78479 0.434841 0
M  V30 19325 C 1804.33 1.96647 -3.00949 0
M  V30 19326 C 1803.99 1.34519 -4.36754 0
M  V30 19327 C 1804.99 0.744925 -5.14536 0
M  V30 19328 C 1802.67 1.3629 -4.83457 0
M  V30 19329 C 1804.67 0.170657 -6.37171 0
M  V30 19330 C 1802.35 0.784784 -6.0604 0
M  V30 19331 C 1803.35 0.189694 -6.82737 0
M  V30 19332 O 1803.04 -0.379483 -8.03004 0
M  V30 19333 H 1802.77 0.295118 -0.608179 0
M  V30 19334 H 1805.32 0.267851 -2.03646 0
M  V30 19335 H 1803.55 2.72172 -2.74699 0
M  V30 19336 H 1805.24 2.5736 -3.1388 0
M  V30 19337 H 1806.01 0.723706 -4.7957 0
M  V30 19338 H 1801.89 1.81548 -4.23747 0
M  V30 19339 H 1805.43 -0.294459 -6.96978 0
M  V30 19340 H 1801.33 0.803348 -6.40482 0
M  V30 19341 H 1802.1 -0.271879 -8.18048 0
M  V30 19342 N 1804.76 1.49212 0.507292 0
M  V30 19343 C 1806.01 1.5763 1.2584 0
M  V30 19344 C 1806.32 0.265343 1.93792 0
M  V30 19345 O 1807.53 0.227996 2.70541 0
M  V30 19346 C 1805.98 2.78093 2.28457 0
M  V30 19347 C 1805.59 4.15922 1.66472 0
M  V30 19348 C 1807.34 2.95837 3.04435 0
M  V30 19349 C 1805.24 5.27616 2.67162 0
M  V30 19350 H 1804.17 0.586896 0.47336 0
M  V30 19351 H 1806.82 1.75588 0.533018 0
M  V30 19352 H 1805.21 2.53616 3.0413 0
M  V30 19353 H 1806.38 4.50511 0.968337 0
M  V30 19354 H 1804.7 4.03484 1.02906 0
M  V30 19355 H 1807.29 3.76452 3.79721 0
M  V30 19356 H 1807.64 2.06156 3.61671 0
M  V30 19357 H 1808.17 3.20323 2.35877 0
M  V30 19358 H 1804.91 6.19336 2.14716 0
M  V30 19359 H 1804.43 4.97488 3.3506 0
M  V30 19360 H 1806.11 5.56686 3.29712 0
M  V30 19361 N 1806.24 -0.757876 1.38181 0
M  V30 19362 C 1807.15 -1.90234 1.37289 0
M  V30 19363 C 1808.16 -1.71883 0.270567 0
M  V30 19364 O 1809.34 -1.94881 0.508279 0
M  V30 19365 C 1806.41 -3.25546 1.19251 0
M  V30 19366 C 1805.47 -3.56452 2.39249 0
M  V30 19367 C 1804.7 -4.85308 2.22063 0
M  V30 19368 O 1804.92 -5.57373 1.2121 0
M  V30 19369 O 1803.86 -5.15594 3.10558 0
M  V30 19370 H 1807.68 -1.9394 2.33711 0
M  V30 19371 H 1805.27 -0.902559 1.19056 0
M  V30 19372 H 1807.15 -4.06454 1.11235 0
M  V30 19373 H 1805.82 -3.22661 0.259109 0
M  V30 19374 H 1804.73 -2.75723 2.52839 0
M  V30 19375 H 1806.06 -3.64094 3.31205 0
M  V30 19376 N 1807.72 -1.22979 -0.985586 0
M  V30 19377 C 1808.65 -0.964185 -2.07933 0
M  V30 19378 C 1809.66 0.0599162 -1.6269 0
M  V30 19379 O 1810.85 -0.174984 -1.7764 0
M  V30 19380 C 1807.95 -0.429879 -3.36163 0
M  V30 19381 C 1807.12 -1.51293 -4.10401 0
M  V30 19382 C 1806.18 -0.984411 -5.1691 0
M  V30 19383 O 1805.21 -1.67225 -5.44081 0
M  V30 19384 N 1806.41 0.190439 -5.80188 0
M  V30 19385 H 1809.18 -1.90582 -2.31297 0
M  V30 19386 H 1806.74 -1.13767 -1.15189 0
M  V30 19387 H 1808.73 -0.0614639 -4.04653 0
M  V30 19388 H 1807.3 0.417049 -3.09806 0
M  V30 19389 H 1806.52 -2.05434 -3.36438 0
M  V30 19390 H 1807.81 -2.24141 -4.56769 0
M  V30 19391 H 1807.2 0.765928 -5.60491 0
M  V30 19392 H 1805.76 0.500168 -6.49878 0
M  V30 19393 N 1809.19 1.18355 -1.04066 0
M  V30 19394 C 1810.61 1.40349 -0.759898 0
M  V30 19395 C 1810.81 1.90709 0.650574 0
M  V30 19396 O 1809.87 2.09142 1.41477 0
M  V30 19397 C 1811.18 2.40426 -1.80599 0
M  V30 19398 C 1812.73 2.54153 -1.8269 0
M  V30 19399 C 1813.2 3.57494 -2.8629 0
M  V30 19400 N 1814.69 3.65001 -2.85181 0
M  V30 19401 C 1815.43 4.44688 -3.61995 0
M  V30 19402 N 1814.92 5.27984 -4.48559 0
M  V30 19403 N 1816.72 4.39451 -3.50484 0
M  V30 19404 H 1808.87 0.839924 -1.95087 0
M  V30 19405 H 1811.13 0.431492 -0.844108 0
M  V30 19406 H 1810.84 2.10471 -2.81771 0
M  V30 19407 H 1810.71 3.39773 -1.63812 0
M  V30 19408 H 1813.1 2.83424 -0.821889 0
M  V30 19409 H 1813.18 1.54919 -2.03553 0
M  V30 19410 H 1812.82 3.28963 -3.8697 0
M  V30 19411 H 1812.75 4.56405 -2.62682 0
M  V30 19412 H 1815.24 3.05522 -2.22407 0
M  V30 19413 H 1815.56 5.85939 -5.0388 0
M  V30 19414 H 1813.9 5.27404 -4.52626 0
M  V30 19415 H 1817.09 3.73426 -2.8226 0
M  V30 19416 H 1817.27 5.01313 -4.10596 0
M  V30 19417 N 1810.67 0.820125 1.3458 0
M  V30 19418 C 1811.62 0.237994 2.2957 0
M  V30 19419 C 1812.59 -0.635637 1.53456 0
M  V30 19420 O 1813.77 -0.57787 1.81839 0
M  V30 19421 C 1810.91 -0.596426 3.39907 0
M  V30 19422 C 1810.03 0.29914 4.30963 0
M  V30 19423 C 1809.16 -0.54458 5.28401 0
M  V30 19424 C 1808.2 0.350546 6.11095 0
M  V30 19425 N 1807.34 -0.453936 7.00631 0
M  V30 19426 H 1812.18 1.0534 2.7876 0
M  V30 19427 H 1809.72 0.530977 1.37183 0
M  V30 19428 H 1811.67 -1.0955 4.0256 0
M  V30 19429 H 1810.3 -1.37697 2.91958 0
M  V30 19430 H 1809.36 0.916412 3.69196 0
M  V30 19431 H 1810.67 0.987544 4.88926 0
M  V30 19432 H 1809.82 -1.10825 5.96492 0
M  V30 19433 H 1808.56 -1.2665 4.70968 0
M  V30 19434 H 1807.57 0.926375 5.41939 0
M  V30 19435 H 1808.79 1.07054 6.70609 0
M  V30 19436 H 1806.74 -1.15958 6.4567 0
M  V30 19437 H 1806.65 0.176138 7.55795 0
M  V30 19438 H 1807.92 -1.00044 7.73053 0
M  V30 19439 N 1812.15 -1.46743 0.574835 0
M  V30 19440 C 1813.38 -2.06805 0.0627992 0
M  V30 19441 C 1813.79 -1.42482 -1.23872 0
M  V30 19442 O 1813.15 -0.527375 -1.74714 0
M  V30 19443 C 1813.2 -3.61307 -0.117983 0
M  V30 19444 O 1812.92 -4.23222 1.13201 0
M  V30 19445 C 1814.42 -4.3828 -0.665277 0
M  V30 19446 H 1811.64 -0.668835 0.0538616 0
M  V30 19447 H 1814.19 -1.88488 0.793265 0
M  V30 19448 H 1812.34 -3.79078 -0.798641 0
M  V30 19449 H 1812.76 -5.15992 0.940853 0
M  V30 19450 H 1814.23 -5.47004 -0.740985 0
M  V30 19451 H 1814.71 -4.05777 -1.68052 0
M  V30 19452 H 1815.31 -4.25295 -0.0197462 0
M  V30 19453 N 1813.63 -0.312197 -1.54477 0
M  V30 19454 C 1814.88 0.294607 -1.99537 0
M  V30 19455 C 1815.19 1.54137 -1.20421 0
M  V30 19456 O 1816.4 2.22346 -1.55803 0
M  V30 19457 C 1814.85 0.57547 -3.55269 0
M  V30 19458 C 1814.46 -0.653591 -4.43207 0
M  V30 19459 C 1816.2 1.14285 -4.08827 0
M  V30 19460 C 1814.11 -0.345261 -5.90391 0
M  V30 19461 H 1813.04 0.113859 -0.745354 0
M  V30 19462 H 1815.69 -0.42265 -1.78566 0
M  V30 19463 H 1814.07 1.35262 -3.72183 0
M  V30 19464 H 1815.25 -1.42945 -4.38068 0
M  V30 19465 H 1813.56 -1.14039 -4.0048 0
M  V30 19466 H 1816.16 1.38797 -5.16371 0
M  V30 19467 H 1816.5 2.08866 -3.60112 0
M  V30 19468 H 1817.04 0.427154 -3.955 0
M  V30 19469 H 1813.78 -1.25994 -6.43277 0
M  V30 19470 H 1813.3 0.393106 -5.9851 0
M  V30 19471 H 1814.97 0.0490847 -6.46981 0
M  V30 19472 N 1815.11 1.57549 -0.040136 0
M  V30 19473 C 1816.52 1.56434 0.316341 0
M  V30 19474 C 1816.72 1.04679 1.72176 0
M  V30 19475 O 1815.78 0.698444 2.42648 0
M  V30 19476 C 1817.09 3.00301 0.154883 0
M  V30 19477 C 1818.64 3.12177 0.226821 0
M  V30 19478 C 1819.11 4.57903 0.0940219 0
M  V30 19479 N 1820.61 4.62955 0.150654 0
M  V30 19480 C 1821.34 5.73355 0.0718466 0
M  V30 19481 N 1820.84 6.92775 -0.0586777 0
M  V30 19482 N 1822.63 5.61957 0.126632 0
M  V30 19483 H 1814.78 1.89516 -0.959032 0
M  V30 19484 H 1817.04 0.872251 -0.371324 0
M  V30 19485 H 1816.75 3.42158 -0.813674 0
M  V30 19486 H 1816.62 3.65795 0.920521 0
M  V30 19487 H 1819.01 2.70225 1.18584 0
M  V30 19488 H 1819.09 2.49383 -0.569384 0
M  V30 19489 H 1818.74 5.00538 -0.861629 0
M  V30 19490 H 1818.67 5.18691 0.909231 0
M  V30 19491 H 1821.16 3.77064 0.251232 0
M  V30 19492 H 1821.47 7.72719 -0.111818 0
M  V30 19493 H 1819.81 6.94937 -0.0936119 0
M  V30 19494 H 1823.01 4.67549 0.227081 0
M  V30 19495 H 1823.18 6.47971 0.0617551 0
M  V30 19496 N 1816.58 -0.233136 1.55866 0
M  V30 19497 C 1817.81 -0.976415 1.82411 0
M  V30 19498 C 1818.23 -1.78409 0.617724 0
M  V30 19499 O 1817.58 -1.77749 -0.413709 0
M  V30 19500 C 1817.64 -1.90328 3.07339 0
M  V30 19501 O 1817.36 -1.12828 4.23322 0
M  V30 19502 C 1818.86 -2.76142 3.46786 0
M  V30 19503 H 1816.08 -0.2867 0.606666 0
M  V30 19504 H 1818.62 -0.251863 2.02943 0
M  V30 19505 H 1816.78 -2.58193 2.88816 0
M  V30 19506 H 1817.19 -1.75643 4.94216 0
M  V30 19507 H 1818.66 -3.36901 4.37266 0
M  V30 19508 H 1819.14 -3.47953 2.68003 0
M  V30 19509 H 1819.75 -2.13708 3.67708 0
M  V30 19510 N 1818.06 -1.49479 -0.499372 0
M  V30 19511 C 1819.31 -1.58295 -1.25003 0
M  V30 19512 C 1819.63 -0.275616 -1.93648 0
M  V30 19513 O 1820.83 -0.24234 -2.70416 0
M  V30 19514 C 1819.29 -2.793 -2.26979 0
M  V30 19515 C 1818.9 -4.16799 -1.64264 0
M  V30 19516 C 1820.64 -2.97447 -3.02862 0
M  V30 19517 C 1818.55 -5.29025 -2.6436 0
M  V30 19518 H 1817.48 -0.589398 -0.470241 0
M  V30 19519 H 1820.13 -1.75868 -0.523698 0
M  V30 19520 H 1818.51 -2.55225 -3.02781 0
M  V30 19521 H 1819.68 -4.51018 -0.944432 0
M  V30 19522 H 1818 -4.04024 -1.00765 0
M  V30 19523 H 1820.6 -3.78461 -3.77719 0
M  V30 19524 H 1820.94 -2.08071 -3.60572 0
M  V30 19525 H 1821.47 -3.2157 -2.34175 0
M  V30 19526 H 1818.21 -6.20466 -2.11429 0
M  V30 19527 H 1817.73 -4.99258 -3.32417 0
M  V30 19528 H 1819.41 -5.58427 -3.26755 0
M  V30 19529 N 1819.54 0.750537 -1.38581 0
M  V30 19530 C 1820.47 1.87785 -1.38777 0
M  V30 19531 C 1821.45 1.68204 -0.253244 0
M  V30 19532 O 1822.64 1.88752 -0.456779 0
M  V30 19533 C 1819.77 3.2535 -1.21511 0
M  V30 19534 C 1818.72 3.59538 -2.32199 0
M  V30 19535 C 1818.05 4.95873 -2.00036 0
M  V30 19536 C 1819.35 3.64102 -3.74469 0
M  V30 19537 H 1821.04 1.87879 -2.33113 0
M  V30 19538 H 1818.59 0.902504 -1.12209 0
M  V30 19539 H 1820.54 4.03872 -1.20272 0
M  V30 19540 H 1819.26 3.25744 -0.236366 0
M  V30 19541 H 1817.92 2.83336 -2.32629 0
M  V30 19542 H 1817.57 4.9283 -1.00638 0
M  V30 19543 H 1817.27 5.19716 -2.7417 0
M  V30 19544 H 1818.8 5.7677 -2.00421 0
M  V30 19545 H 1820.21 4.32731 -3.76054 0
M  V30 19546 H 1818.61 3.99455 -4.47834 0
M  V30 19547 H 1819.68 2.64259 -4.06565 0
M  V30 19548 N 1821.02 1.235 0.979051 0
M  V30 19549 C 1821.93 1.03412 2.10578 0
M  V30 19550 C 1822.95 -0.0217644 1.73986 0
M  V30 19551 O 1824.12 0.173977 2.00647 0
M  V30 19552 C 1821.19 0.629192 3.40943 0
M  V30 19553 C 1820.25 1.76028 3.91552 0
M  V30 19554 C 1819.48 1.37457 5.15695 0
M  V30 19555 O 1819.7 0.259393 5.6981 0
M  V30 19556 O 1818.64 2.19614 5.60404 0
M  V30 19557 H 1822.46 1.97845 2.30415 0
M  V30 19558 H 1820.05 1.02218 1.08958 0
M  V30 19559 H 1821.93 0.414372 4.19358 0
M  V30 19560 H 1820.61 -0.286128 3.22433 0
M  V30 19561 H 1819.51 2.02975 3.14248 0
M  V30 19562 H 1820.85 2.65396 4.14519 0
M  V30 19563 N 1822.5 -1.17802 1.04693 0
M  V30 19564 C 1823.73 -1.91589 0.773124 0
M  V30 19565 C 1824.14 -1.76773 -0.67438 0
M  V30 19566 O 1823.48 -1.09903 -1.47197 0
M  V30 19567 C 1823.54 -3.43279 1.06771 0
M  V30 19568 C 1823.2 -3.81875 2.51038 0
M  V30 19569 C 1824.2 -3.85138 3.49235 0
M  V30 19570 C 1821.89 -4.12986 2.85915 0
M  V30 19571 C 1823.88 -4.18972 4.80356 0
M  V30 19572 C 1821.57 -4.4649 4.17241 0
M  V30 19573 C 1822.57 -4.4946 5.14271 0
M  V30 19574 O 1822.25 -4.82178 6.43242 0
M  V30 19575 H 1821.99 -0.614869 0.280912 0
M  V30 19576 H 1824.54 -1.50352 1.39941 0
M  V30 19577 H 1822.77 -3.84786 0.384316 0
M  V30 19578 H 1824.46 -3.98321 0.780714 0
M  V30 19579 H 1825.22 -3.61232 3.2363 0
M  V30 19580 H 1821.1 -4.09848 2.11058 0
M  V30 19581 H 1824.65 -4.21205 5.56087 0
M  V30 19582 H 1820.54 -4.69857 4.42611 0
M  V30 19583 H 1821.31 -5.00055 6.47987 0
M  V30 19584 N 1823.98 -0.827251 -1.34143 0
M  V30 19585 C 1824.94 -0.257543 -2.27748 0
M  V30 19586 C 1825.94 0.567053 -1.5047 0
M  V30 19587 O 1827.13 0.382529 -1.69948 0
M  V30 19588 C 1824.26 0.638449 -3.34868 0
M  V30 19589 H 1825.45 -1.08338 -2.79648 0
M  V30 19590 H 1823.01 -0.599441 -1.44348 0
M  V30 19591 H 1823.74 1.48717 -2.8819 0
M  V30 19592 H 1823.53 0.0486033 -3.9207 0
M  V30 19593 H 1825.02 1.03071 -4.0468 0
M  V30 19594 N 1825.45 1.46436 -0.582609 0
M  V30 19595 C 1826.73 1.956 -0.00129167 0
M  V30 19596 C 1827.11 1.52526 1.45942 0
M  V30 19597 O 1826.46 0.775911 2.14923 0
M  V30 19598 C 1826.67 3.4857 -0.173243 0
M  V30 19599 C 1828.02 4.2458 -0.0410173 0
M  V30 19600 O 1829.04 3.56054 -0.102074 0
M  V30 19601 O 1827.9 5.46418 0.0947564 0
M  V30 19602 H 1824.99 0.825495 0.0498706 0
M  V30 19603 H 1827.54 1.5672 -0.650921 0
M  V30 19604 H 1826.31 3.72808 -1.1887 0
M  V30 19605 H 1825.93 3.94279 0.512822 0
M  V30 19606 N 1826.93 0.320385 1.54309 0
M  V30 19607 C 1827.88 -0.547011 2.24224 0
M  V30 19608 C 1828.85 -1.11419 1.23187 0
M  V30 19609 O 1830.03 -1.15513 1.5186 0
M  V30 19610 C 1827.17 -1.70359 3.0012 0
M  V30 19611 C 1826.29 -1.16594 4.15968 0
M  V30 19612 C 1825.42 -2.28795 4.79402 0
M  V30 19613 C 1824.46 -1.72263 5.8736 0
M  V30 19614 N 1823.6 -2.78113 6.44668 0
M  V30 19615 H 1828.44 0.0557725 2.97948 0
M  V30 19616 H 1825.97 0.0392956 1.47048 0
M  V30 19617 H 1827.93 -2.38413 3.42367 0
M  V30 19618 H 1826.56 -2.27771 2.28736 0
M  V30 19619 H 1825.61 -0.377054 3.78527 0
M  V30 19620 H 1826.93 -0.712254 4.93689 0
M  V30 19621 H 1826.08 -3.04759 5.24601 0
M  V30 19622 H 1824.82 -2.77499 4.01056 0
M  V30 19623 H 1823.82 -0.947951 5.41566 0
M  V30 19624 H 1825.05 -1.2444 6.67601 0
M  V30 19625 H 1823 -3.26115 5.69197 0
M  V30 19626 H 1822.91 -2.37298 7.17792 0
M  V30 19627 H 1824.18 -3.53916 6.94524 0
M  V30 19628 N 1828.41 -1.57525 0.0484906 0
M  V30 19629 C 1829.66 -1.9287 -0.626817 0
M  V30 19630 C 1829.99 -0.926899 -1.70652 0
M  V30 19631 O 1829.26 0.0475129 -1.94442 0
M  V30 19632 C 1829.55 -3.38609 -1.22539 0
M  V30 19633 C 1829.4 -4.49537 -0.153923 0
M  V30 19634 C 1830.72 -3.84689 -2.13781 0
M  V30 19635 H 1827.84 -0.701367 -0.226391 0
M  V30 19636 H 1830.48 -1.89683 0.109708 0
M  V30 19637 H 1828.63 -3.41456 -1.85311 0
M  V30 19638 H 1830.3 -4.58818 0.477846 0
M  V30 19639 H 1828.54 -4.30692 0.518334 0
M  V30 19640 H 1829.22 -5.48589 -0.612708 0
M  V30 19641 H 1831.69 -3.83701 -1.60974 0
M  V30 19642 H 1830.57 -4.8732 -2.52607 0
M  V30 19643 H 1830.83 -3.21293 -3.03682 0
M  V30 19644 N 1829.89 0.224867 -1.55988 0
M  V30 19645 C 1831.13 0.949747 -1.78846 0
M  V30 19646 C 1831.46 1.84465 -0.616678 0
M  V30 19647 O 1830.72 1.91587 0.399098 0
M  V30 19648 C 1831.02 1.8227 -3.07429 0
M  V30 19649 C 1830.68 1.08131 -4.37743 0
M  V30 19650 C 1829.34 0.876497 -4.7315 0
M  V30 19651 C 1831.7 0.557505 -5.1821 0
M  V30 19652 C 1829.02 0.13593 -5.86543 0
M  V30 19653 C 1831.38 -0.169702 -6.32372 0
M  V30 19654 C 1830.04 -0.385796 -6.66384 0
M  V30 19655 H 1829.31 0.347537 -0.654446 0
M  V30 19656 H 1831.96 0.218162 -1.90253 0
M  V30 19657 H 1830.26 2.62204 -2.91129 0
M  V30 19658 H 1831.96 2.38564 -3.22317 0
M  V30 19659 H 1828.55 1.25091 -4.09939 0
M  V30 19660 H 1832.73 0.703218 -4.91293 0
M  V30 19661 H 1827.99 -0.0417543 -6.11386 0
M  V30 19662 H 1832.16 -0.583104 -6.93955 0
M  V30 19663 H 1829.79 -0.961574 -7.54094 0
M  V30 19664 N 1831.37 1.49742 0.491438 0
M  V30 19665 C 1832.59 1.63435 1.26873 0
M  V30 19666 C 1833.01 0.309516 1.86246 0
M  V30 19667 O 1832.37 -0.706178 1.68284 0
M  V30 19668 C 1832.42 2.71034 2.39213 0
M  V30 19669 O 1832.14 3.98379 1.82278 0
M  V30 19670 C 1833.64 2.95518 3.3043 0
M  V30 19671 H 1830.86 0.54994 0.384457 0
M  V30 19672 H 1833.4 1.95837 0.588914 0
M  V30 19673 H 1831.56 2.41384 3.03006 0
M  V30 19674 H 1831.97 4.57725 2.56101 0
M  V30 19675 H 1833.45 3.74517 4.05513 0
M  V30 19676 H 1833.92 2.058 3.87999 0
M  V30 19677 H 1834.53 3.26622 2.72393 0
M  V30 19678 N 1832.84 -0.743177 1.38977 0
M  V30 19679 C 1834.07 -1.53021 1.3881 0
M  V30 19680 C 1834.48 -1.89188 -0.0213066 0
M  V30 19681 O 1833.83 -1.54033 -1.00097 0
M  V30 19682 C 1833.89 -2.85158 2.18918 0
M  V30 19683 C 1833.55 -2.71471 3.67631 0
M  V30 19684 C 1834.55 -2.40567 4.60894 0
M  V30 19685 C 1832.23 -2.88598 4.11116 0
M  V30 19686 C 1834.23 -2.26959 5.95625 0
M  V30 19687 C 1831.91 -2.74609 5.45924 0
M  V30 19688 C 1832.91 -2.43833 6.37992 0
M  V30 19689 O 1832.6 -2.29922 7.70319 0
M  V30 19690 H 1832.33 -0.47975 0.476252 0
M  V30 19691 H 1834.89 -0.92667 1.83308 0
M  V30 19692 H 1833.12 -3.47741 1.69154 0
M  V30 19693 H 1834.81 -3.4673 2.11029 0
M  V30 19694 H 1835.57 -2.26994 4.28601 0
M  V30 19695 H 1831.45 -3.11547 3.39794 0
M  V30 19696 H 1834.99 -2.02859 6.67453 0
M  V30 19697 H 1830.89 -2.87758 5.77811 0
M  V30 19698 H 1831.66 -2.45054 7.80955 0
M  V30 19699 N 1834.32 -1.24018 -0.972487 0
M  V30 19700 C 1835.57 -1.07105 -1.70913 0
M  V30 19701 C 1835.88 0.390908 -1.91654 0
M  V30 19702 O 1837.09 0.68013 -2.62843 0
M  V30 19703 C 1835.55 -1.86823 -3.07612 0
M  V30 19704 C 1835.15 -3.37399 -2.94731 0
M  V30 19705 C 1836.9 -1.78425 -3.85182 0
M  V30 19706 C 1834.81 -4.09479 -4.2671 0
M  V30 19707 H 1833.74 -0.397184 -0.640907 0
M  V30 19708 H 1836.39 -1.48056 -1.08405 0
M  V30 19709 H 1834.77 -1.38683 -3.70922 0
M  V30 19710 H 1835.94 -3.93084 -2.40462 0
M  V30 19711 H 1834.26 -3.46697 -2.3063 0
M  V30 19712 H 1836.85 -2.29584 -4.82903 0
M  V30 19713 H 1837.2 -0.748555 -4.09515 0
M  V30 19714 H 1837.73 -2.24219 -3.28589 0
M  V30 19715 H 1834.47 -5.13387 -4.07571 0
M  V30 19716 H 1833.99 -3.5858 -4.80812 0
M  V30 19717 H 1835.67 -4.16212 -4.95355 0
M  V30 19718 N 1835.8 1.17245 -1.05316 0
M  V30 19719 C 1837.05 1.87536 -0.76398 0
M  V30 19720 C 1837.38 1.81115 0.709049 0
M  V30 19721 O 1836.63 1.21473 1.53437 0
M  V30 19722 C 1836.93 3.36958 -1.19138 0
M  V30 19723 C 1836.6 3.63581 -2.66683 0
M  V30 19724 C 1835.26 3.70556 -3.06988 0
M  V30 19725 C 1837.61 3.74954 -3.62021 0
M  V30 19726 C 1834.94 3.86396 -4.41492 0
M  V30 19727 C 1837.29 3.92313 -4.9626 0
M  V30 19728 C 1835.95 3.97527 -5.36217 0
M  V30 19729 H 1835.22 0.686241 -0.27956 0
M  V30 19730 H 1837.87 1.38694 -1.32047 0
M  V30 19731 H 1836.18 3.87865 -0.55391 0
M  V30 19732 H 1837.87 3.8971 -0.944815 0
M  V30 19733 H 1834.46 3.58778 -2.34471 0
M  V30 19734 H 1838.65 3.68885 -3.3202 0
M  V30 19735 H 1833.9 3.88681 -4.7195 0
M  V30 19736 H 1838.08 4.00055 -5.70026 0
M  V30 19737 H 1835.7 4.09553 -6.40445 0
M  V30 19738 N 1837.28 0.834353 1.33702 0
M  V30 19739 C 1838.53 0.424225 1.97188 0
M  V30 19740 C 1838.84 -1.02086 1.66846 0
M  V30 19741 O 1840.05 -1.53545 2.23911 0
M  V30 19742 C 1838.5 0.707628 3.52875 0
M  V30 19743 C 1838.11 2.16709 3.92098 0
M  V30 19744 C 1839.85 0.364228 4.22935 0
M  V30 19745 C 1837.76 2.39478 5.40744 0
M  V30 19746 H 1836.69 0.154897 0.737918 0
M  V30 19747 H 1839.34 1.02231 1.52385 0
M  V30 19748 H 1837.72 0.0392323 3.95981 0
M  V30 19749 H 1838.9 2.87559 3.60064 0
M  V30 19750 H 1837.21 2.47303 3.35008 0
M  V30 19751 H 1839.81 0.512031 5.32243 0
M  V30 19752 H 1840.15 -0.692375 4.10502 0
M  V30 19753 H 1840.69 0.98767 3.85344 0
M  V30 19754 H 1837.43 3.43687 5.58175 0
M  V30 19755 H 1836.95 1.73184 5.74254 0
M  V30 19756 H 1838.62 2.22406 6.07573 0
M  V30 19757 N 1838.76 -1.46125 0.590367 0
M  V30 19758 C 1839.69 -2.33159 -0.126114 0
M  V30 19759 C 1840.67 -1.45806 -0.876057 0
M  V30 19760 O 1841.85 -1.7461 -0.850009 0
M  V30 19761 C 1838.98 -3.28217 -1.13537 0
M  V30 19762 C 1837.94 -4.25072 -0.499773 0
M  V30 19763 C 1837.26 -5.09694 -1.61605 0
M  V30 19764 C 1838.56 -5.19202 0.567992 0
M  V30 19765 H 1840.26 -2.93315 0.600577 0
M  V30 19766 H 1837.8 -1.41044 0.290265 0
M  V30 19767 H 1839.76 -3.87965 -1.64503 0
M  V30 19768 H 1838.48 -2.66185 -1.89244 0
M  V30 19769 H 1837.14 -3.66598 -0.0111313 0
M  V30 19770 H 1836.79 -4.44041 -2.36297 0
M  V30 19771 H 1836.49 -5.75292 -1.19637 0
M  V30 19772 H 1838.01 -5.72307 -2.12832 0
M  V30 19773 H 1839.42 -5.73121 0.143102 0
M  V30 19774 H 1837.82 -5.93184 0.908428 0
M  V30 19775 H 1838.89 -4.62671 1.45133 0
M  V30 19776 N 1840.23 -0.328564 -1.54137 0
M  V30 19777 C 1841.14 0.543922 -2.28207 0
M  V30 19778 C 1842.16 1.1249 -1.32748 0
M  V30 19779 O 1843.34 1.1438 -1.65769 0
M  V30 19780 C 1840.4 1.6864 -3.02922 0
M  V30 19781 C 1839.46 1.13672 -4.13977 0
M  V30 19782 C 1838.7 2.22474 -4.85119 0
M  V30 19783 O 1838.92 3.42914 -4.55813 0
M  V30 19784 O 1837.85 1.87611 -5.71914 0
M  V30 19785 H 1841.68 -0.0577601 -3.03645 0
M  V30 19786 H 1839.26 -0.0940895 -1.49103 0
M  V30 19787 H 1841.15 2.35143 -3.49693 0
M  V30 19788 H 1839.82 2.27417 -2.30355 0
M  V30 19789 H 1838.73 0.436625 -3.71543 0
M  V30 19790 H 1840.06 0.594012 -4.88602 0
M  V30 19791 N 1841.71 1.57497 -0.0568439 0
M  V30 19792 C 1842.65 2.07433 0.951141 0
M  V30 19793 C 1843.62 0.976083 1.30044 0
M  V30 19794 O 1844.81 1.24842 1.41233 0
M  V30 19795 C 1841.93 2.51956 2.26354 0
M  V30 19796 C 1840.98 3.73071 2.06689 0
M  V30 19797 S 1841.81 5.18463 1.34001 0
M  V30 19798 C 1842.97 5.66304 2.66552 0
M  V30 19799 H 1843.2 2.92607 0.526181 0
M  V30 19800 H 1840.74 1.53614 0.155562 0
M  V30 19801 H 1842.69 2.78269 3.01789 0
M  V30 19802 H 1841.35 1.67078 2.65977 0
M  V30 19803 H 1840.55 4.02163 3.03778 0
M  V30 19804 H 1840.15 3.47053 1.39392 0
M  V30 19805 H 1842.44 5.72236 3.62701 0
M  V30 19806 H 1843.38 6.65431 2.4209 0
M  V30 19807 H 1843.79 4.94057 2.73072 0
M  V30 19808 N 1843.19 -0.216591 1.56105 0
M  V30 19809 C 1844.12 -1.27155 1.95841 0
M  V30 19810 C 1845.1 -1.48626 0.827313 0
M  V30 19811 O 1846.29 -1.60725 1.09 0
M  V30 19812 C 1843.42 -2.62032 2.27939 0
M  V30 19813 C 1842.37 -2.55211 3.43586 0
M  V30 19814 C 1841.7 -3.94163 3.61303 0
M  V30 19815 C 1843 -2.09566 4.78413 0
M  V30 19816 H 1844.69 -0.941435 2.84214 0
M  V30 19817 H 1842.24 -0.451427 1.36741 0
M  V30 19818 H 1844.19 -3.35997 2.5433 0
M  V30 19819 H 1842.91 -2.96742 1.36426 0
M  V30 19820 H 1841.57 -1.83703 3.17252 0
M  V30 19821 H 1841.22 -4.26188 2.67156 0
M  V30 19822 H 1840.92 -3.90479 4.3909 0
M  V30 19823 H 1842.44 -4.69782 3.90047 0
M  V30 19824 H 1843.86 -2.73277 5.03977 0
M  V30 19825 H 1842.26 -2.16931 5.59518 0
M  V30 19826 H 1843.33 -1.0481 4.73437 0
M  V30 19827 N 1844.67 -1.5 -0.48349 0
M  V30 19828 C 1845.6 -1.70879 -1.5913 0
M  V30 19829 C 1846.58 -0.557606 -1.60701 0
M  V30 19830 O 1847.76 -0.79539 -1.77164 0
M  V30 19831 C 1844.89 -1.7915 -2.97527 0
M  V30 19832 C 1843.85 -2.94233 -3.10823 0
M  V30 19833 C 1843.17 -2.87634 -4.50745 0
M  V30 19834 C 1844.47 -4.34925 -2.89202 0
M  V30 19835 H 1846.17 -2.63632 -1.41911 0
M  V30 19836 H 1843.71 -1.26865 -0.68127 0
M  V30 19837 H 1845.67 -1.92342 -3.74943 0
M  V30 19838 H 1844.39 -0.830106 -3.15875 0
M  V30 19839 H 1843.05 -2.80672 -2.35837 0
M  V30 19840 H 1842.7 -1.89365 -4.65993 0
M  V30 19841 H 1842.4 -3.64885 -4.60579 0
M  V30 19842 H 1843.92 -3.02857 -5.30198 0
M  V30 19843 H 1845.34 -4.49076 -3.56376 0
M  V30 19844 H 1843.73 -5.13531 -3.10492 0
M  V30 19845 H 1844.8 -4.48154 -1.85165 0
M  V30 19846 N 1846.15 0.735796 -1.39369 0
M  V30 19847 C 1847.09 1.8498 -1.38025 0
M  V30 19848 C 1848.06 1.64356 -0.24007 0
M  V30 19849 O 1849.25 1.85774 -0.435058 0
M  V30 19850 C 1846.39 3.22484 -1.22874 0
M  V30 19851 C 1845.5 3.54819 -2.4643 0
M  V30 19852 C 1844.64 4.8172 -2.23873 0
M  V30 19853 C 1843.68 5.06895 -3.43108 0
M  V30 19854 N 1842.81 6.25 -3.19874 0
M  V30 19855 H 1847.65 1.85463 -2.33254 0
M  V30 19856 H 1845.19 0.906252 -1.15868 0
M  V30 19857 H 1847.15 4.01857 -1.12101 0
M  V30 19858 H 1845.78 3.21281 -0.312759 0
M  V30 19859 H 1844.83 2.70153 -2.67809 0
M  V30 19860 H 1846.14 3.69342 -3.35244 0
M  V30 19861 H 1845.3 5.69072 -2.10338 0
M  V30 19862 H 1844.03 4.69369 -1.32453 0
M  V30 19863 H 1843.04 4.18006 -3.57143 0
M  V30 19864 H 1844.26 5.21132 -4.35429 0
M  V30 19865 H 1842.21 6.13939 -2.31117 0
M  V30 19866 H 1842.13 6.40106 -4.02244 0
M  V30 19867 H 1843.4 7.15193 -3.10031 0
M  V30 19868 N 1847.63 1.24532 0.965897 0
M  V30 19869 C 1848.87 1.09778 1.71232 0
M  V30 19870 C 1849.23 -0.3594 1.89013 0
M  V30 19871 O 1848.52 -1.2618 1.44185 0
M  V30 19872 C 1848.71 1.77305 3.10319 0
M  V30 19873 C 1848.54 3.29439 3.06104 0
M  V30 19874 C 1847.31 3.98656 3.10485 0
M  V30 19875 C 1849.51 4.26004 2.88141 0
M  V30 19876 N 1847.49 5.37656 2.9631 0
M  V30 19877 C 1848.86 5.52013 2.8228 0
M  V30 19878 C 1850.92 4.16557 2.72736 0
M  V30 19879 C 1849.62 6.69656 2.62588 0
M  V30 19880 C 1851.65 5.33881 2.54412 0
M  V30 19881 C 1851.01 6.58823 2.49261 0
M  V30 19882 H 1847.11 0.456339 0.635042 0
M  V30 19883 H 1849.69 1.57472 1.14502 0
M  V30 19884 H 1847.86 1.32122 3.65237 0
M  V30 19885 H 1849.6 1.55395 3.73677 0
M  V30 19886 H 1846.35 3.49835 3.19237 0
M  V30 19887 H 1846.77 6.10572 2.92457 0
M  V30 19888 H 1851.42 3.20719 2.75499 0
M  V30 19889 H 1849.13 7.65616 2.58568 0
M  V30 19890 H 1852.72 5.28424 2.43433 0
M  V30 19891 H 1851.6 7.48078 2.35264 0
M  V30 19892 N 1849.1 -1.16685 1.05936 0
M  V30 19893 C 1850.33 -1.91035 0.794553 0
M  V30 19894 C 1850.75 -1.77234 -0.650663 0
M  V30 19895 O 1850.1 -1.11454 -1.44514 0
M  V30 19896 C 1850.15 -3.41859 1.17536 0
M  V30 19897 O 1849.88 -3.55243 2.56386 0
M  V30 19898 C 1851.38 -4.33267 0.937774 0
M  V30 19899 H 1848.6 -0.605896 0.288325 0
M  V30 19900 H 1851.14 -1.47925 1.41203 0
M  V30 19901 H 1849.3 -3.82686 0.602486 0
M  V30 19902 H 1849.71 -4.48744 2.71531 0
M  V30 19903 H 1851.18 -5.3757 1.25389 0
M  V30 19904 H 1851.66 -4.39017 -0.126673 0
M  V30 19905 H 1852.27 -3.98163 1.49486 0
M  V30 19906 N 1850.58 -0.841432 -1.33258 0
M  V30 19907 C 1851.54 -0.281685 -2.27462 0
M  V30 19908 C 1852.54 0.551062 -1.51063 0
M  V30 19909 O 1853.73 0.364482 -1.70344 0
M  V30 19910 C 1850.87 0.602896 -3.35526 0
M  V30 19911 H 1852.06 -1.11298 -2.78483 0
M  V30 19912 H 1849.61 -0.614717 -1.43704 0
M  V30 19913 H 1850.35 1.45652 -2.89751 0
M  V30 19914 H 1850.13 0.00701634 -3.92099 0
M  V30 19915 H 1851.62 0.987735 -4.05751 0
M  V30 19916 N 1852.06 1.4581 -0.598108 0
M  V30 19917 C 1853.29 2.06379 -0.0955533 0
M  V30 19918 C 1853.7 1.44497 1.22137 0
M  V30 19919 O 1853.04 0.549997 1.75273 0
M  V30 19920 C 1853.1 3.59271 0.128433 0
M  V30 19921 C 1852.77 4.43434 -1.10523 0
M  V30 19922 C 1853.76 4.79008 -2.02107 0
M  V30 19923 C 1851.45 4.84334 -1.3314 0
M  V30 19924 C 1853.44 5.54326 -3.14644 0
M  V30 19925 C 1851.13 5.59408 -2.45979 0
M  V30 19926 C 1852.13 5.9432 -3.3656 0
M  V30 19927 O 1851.82 6.67874 -4.47437 0
M  V30 19928 H 1851.55 0.673187 -0.0616108 0
M  V30 19929 H 1854.1 1.88191 -0.823012 0
M  V30 19930 H 1852.33 3.75824 0.910679 0
M  V30 19931 H 1854.02 4.01714 0.581406 0
M  V30 19932 H 1854.79 4.47976 -1.85856 0
M  V30 19933 H 1850.67 4.566 -0.635381 0
M  V30 19934 H 1854.21 5.81495 -3.8537 0
M  V30 19935 H 1850.11 5.89854 -2.62187 0
M  V30 19936 H 1850.87 6.86314 -4.45999 0
M  V30 19937 N 1853.54 0.336733 1.53961 0
M  V30 19938 C 1854.79 -0.261343 2.00403 0
M  V30 19939 C 1855.11 -1.51612 1.22633 0
M  V30 19940 O 1854.38 -1.93072 0.331659 0
M  V30 19941 H 1852.96 -0.0995594 0.740336 0
M  V30 19942 H 1855.62 0.456319 1.89483 0
M  V30 19943 H 1854.71 -0.508557 3.07929 0
M  V30 19944 N 1855.02 -1.57465 0.0651956 0
M  V30 19945 C 1856.26 -1.93238 -0.605428 0
M  V30 19946 C 1856.59 -0.944707 -1.70016 0
M  V30 19947 O 1855.85 0.0407499 -1.95658 0
M  V30 19948 C 1856.14 -3.35656 -1.2276 0
M  V30 19949 C 1855.81 -4.50152 -0.259667 0
M  V30 19950 C 1854.47 -4.812 0.0066384 0
M  V30 19951 C 1856.82 -5.1964 0.4029 0
M  V30 19952 C 1854.15 -5.79077 0.942709 0
M  V30 19953 C 1856.5 -6.1852 1.32725 0
M  V30 19954 C 1855.17 -6.47989 1.60209 0
M  V30 19955 H 1854.44 -0.707107 -0.221542 0
M  V30 19956 H 1857.09 -1.91026 0.134666 0
M  V30 19957 H 1855.39 -3.34301 -2.04328 0
M  V30 19958 H 1857.09 -3.60621 -1.75367 0
M  V30 19959 H 1853.68 -4.25933 -0.477412 0
M  V30 19960 H 1857.86 -4.95854 0.210267 0
M  V30 19961 H 1853.12 -6.00238 1.16296 0
M  V30 19962 H 1857.29 -6.7147 1.84664 0
M  V30 19963 H 1854.92 -7.23643 2.32904 0
M  V30 19964 N 1856.49 0.20831 -1.56217 0
M  V30 19965 C 1857.74 0.932104 -1.8011 0
M  V30 19966 C 1858.07 1.83453 -0.637061 0
M  V30 19967 O 1857.35 1.91081 0.363066 0
M  V30 19968 C 1857.63 1.7597 -3.14176 0
M  V30 19969 C 1857.48 0.882874 -4.4105 0
M  V30 19970 C 1858.8 2.7349 -3.44806 0
M  V30 19971 H 1855.92 0.337428 -0.655218 0
M  V30 19972 H 1858.56 0.2002 -1.88942 0
M  V30 19973 H 1856.71 2.38369 -3.06778 0
M  V30 19974 H 1858.39 0.274607 -4.60482 0
M  V30 19975 H 1856.63 0.188921 -4.33388 0
M  V30 19976 H 1857.3 1.49662 -5.31324 0
M  V30 19977 H 1859.78 2.21225 -3.52418 0
M  V30 19978 H 1858.65 3.28489 -4.39757 0
M  V30 19979 H 1858.91 3.51887 -2.67635 0
M  V30 19980 N 1857.97 1.50255 0.475528 0
M  V30 19981 C 1858.92 1.68794 1.57408 0
M  V30 19982 C 1859.89 0.529252 1.57442 0
M  V30 19983 O 1861.07 0.759301 1.75041 0
M  V30 19984 C 1858.21 1.78401 2.9541 0
M  V30 19985 C 1857.33 3.05742 3.05198 0
M  V30 19986 C 1856.46 3.06172 4.34088 0
M  V30 19987 C 1855.5 4.27985 4.37602 0
M  V30 19988 N 1854.64 4.26179 5.57957 0
M  V30 19989 H 1859.48 2.62583 1.40905 0
M  V30 19990 H 1857.01 1.30169 0.685152 0
M  V30 19991 H 1858.97 1.81952 3.75432 0
M  V30 19992 H 1857.6 0.880556 3.10558 0
M  V30 19993 H 1856.65 3.11683 2.18077 0
M  V30 19994 H 1857.97 3.95722 3.03654 0
M  V30 19995 H 1857.12 3.08427 5.22454 0
M  V30 19996 H 1855.86 2.14014 4.38234 0
M  V30 19997 H 1854.86 4.25947 3.47634 0
M  V30 19998 H 1856.09 5.21364 4.35151 0
M  V30 19999 H 1854.04 3.36873 5.62897 0
M  V30 20000 H 1853.95 5.09923 5.58135 0
M  V30 20001 H 1855.22 4.32574 6.4846 0
M  V30 20002 N 1859.45 -0.728395 1.39758 0
M  V30 20003 C 1860.7 -1.48808 1.37341 0
M  V30 20004 C 1861.02 -1.94479 -0.0285032 0
M  V30 20005 O 1860.28 -1.67586 -1.01062 0
M  V30 20006 C 1860.58 -2.73735 2.29791 0
M  V30 20007 C 1860.24 -2.46897 3.77296 0
M  V30 20008 C 1858.91 -2.39287 4.17487 0
M  V30 20009 C 1861.26 -2.24097 4.70564 0
M  V30 20010 C 1858.59 -2.06927 5.48997 0
M  V30 20011 C 1860.94 -1.93252 6.02359 0
M  V30 20012 C 1859.6 -1.84115 6.41606 0
M  V30 20013 H 1858.87 -0.544527 0.502565 0
M  V30 20014 H 1861.52 -0.835461 1.72315 0
M  V30 20015 H 1859.82 -3.43772 1.87957 0
M  V30 20016 H 1861.52 -3.31785 2.2521 0
M  V30 20017 H 1858.11 -2.53701 3.45447 0
M  V30 20018 H 1862.3 -2.28939 4.40341 0
M  V30 20019 H 1857.55 -1.98381 5.78321 0
M  V30 20020 H 1861.73 -1.7462 6.74152 0
M  V30 20021 H 1859.35 -1.58807 7.43427 0
M  V30 20022 N 1860.93 -1.25042 -0.959279 0
M  V30 20023 C 1862.17 -1.09514 -1.70332 0
M  V30 20024 C 1862.5 0.364654 -1.91051 0
M  V30 20025 O 1861.76 1.2854 -1.47566 0
M  V30 20026 C 1862.06 -1.78948 -3.09374 0
M  V30 20027 C 1861.72 -3.28873 -3.08469 0
M  V30 20028 C 1860.38 -3.69774 -3.0793 0
M  V30 20029 C 1862.74 -4.24679 -3.02154 0
M  V30 20030 C 1860.06 -5.049 -2.98818 0
M  V30 20031 C 1862.42 -5.59824 -2.94585 0
M  V30 20032 C 1861.08 -6.00059 -2.92378 0
M  V30 20033 H 1860.35 -0.400741 -0.623288 0
M  V30 20034 H 1863 -1.55255 -1.12107 0
M  V30 20035 H 1861.3 -1.25625 -3.71114 0
M  V30 20036 H 1863 -1.64391 -3.65755 0
M  V30 20037 H 1859.59 -2.96327 -3.09659 0
M  V30 20038 H 1863.77 -3.94074 -3.01694 0
M  V30 20039 H 1859.03 -5.3526 -2.95476 0
M  V30 20040 H 1863.2 -6.33758 -2.88659 0
M  V30 20041 H 1860.83 -7.04725 -2.85074 0
M  V30 20042 N 1862.41 1.16121 -1.06553 0
M  V30 20043 C 1863.63 1.90611 -0.804673 0
M  V30 20044 C 1864.05 1.77576 0.641255 0
M  V30 20045 O 1863.41 1.12218 1.43921 0
M  V30 20046 C 1863.46 3.41231 -1.19348 0
M  V30 20047 O 1863.18 3.53879 -2.58266 0
M  V30 20048 C 1864.68 4.32764 -0.960738 0
M  V30 20049 H 1861.9 0.604358 -0.291534 0
M  V30 20050 H 1864.44 1.47174 -1.41986 0
M  V30 20051 H 1862.6 3.82361 -0.622772 0
M  V30 20052 H 1863.01 4.47298 -2.73907 0
M  V30 20053 H 1864.49 5.36898 -1.28238 0
M  V30 20054 H 1864.96 4.39078 0.103389 0
M  V30 20055 H 1865.57 3.97365 -1.51595 0
M  V30 20056 N 1863.88 0.848487 1.3281 0
M  V30 20057 C 1864.83 0.277328 2.30941 0
M  V30 20058 C 1865.83 -0.595938 1.58572 0
M  V30 20059 O 1867.03 -0.484428 1.73359 0
M  V30 20060 H 1863.41 0.0709686 0.748644 0
M  V30 20061 H 1865.38 1.11932 2.76611 0
M  V30 20062 C 1864.13 -0.524705 3.43718 0
M  V30 20063 H 1863.45 0.137959 3.99562 0
M  V30 20064 H 1864.89 -0.890032 4.14553 0
M  V30 20065 C 1863.35 -1.70746 2.90426 0
M  V30 20066 O 1863.88 -2.80641 2.87408 0
M  V30 20067 N 1862.09 -1.5325 2.46907 0
M  V30 20068 H 1861.63 -0.638526 2.49561 0
M  V30 20069 H 1861.59 -2.32532 2.11603 0
M  V30 20070 N 1865.36 -1.4549 0.605832 0
M  V30 20071 C 1866.33 -2.28964 -0.104089 0
M  V30 20072 C 1867.33 -1.39671 -0.796791 0
M  V30 20073 O 1868.52 -1.6181 -0.645221 0
M  V30 20074 C 1865.65 -3.20647 -1.1575 0
M  V30 20075 H 1866.84 -2.93213 0.629776 0
M  V30 20076 H 1864.39 -1.51983 0.3648 0
M  V30 20077 H 1865.13 -2.61194 -1.92219 0
M  V30 20078 H 1864.91 -3.86419 -0.665025 0
M  V30 20079 H 1866.4 -3.83416 -1.65474 0
M  V30 20080 N 1866.84 -0.344893 -1.5378 0
M  V30 20081 C 1868.09 0.244249 -2.01928 0
M  V30 20082 C 1868.44 1.48091 -1.22829 0
M  V30 20083 O 1867.73 1.89109 -0.307945 0
M  V30 20084 C 1867.93 0.609495 -3.52165 0
M  V30 20085 C 1867.76 -0.590217 -4.4581 0
M  V30 20086 C 1866.53 -1.09594 -4.93272 0
M  V30 20087 C 1868.73 -1.44908 -4.93463 0
M  V30 20088 N 1866.71 -2.25784 -5.70872 0
M  V30 20089 C 1868.08 -2.45787 -5.692 0
M  V30 20090 C 1870.13 -1.47437 -4.7557 0
M  V30 20091 C 1868.84 -3.49026 -6.28946 0
M  V30 20092 C 1870.86 -2.49558 -5.36167 0
M  V30 20093 C 1870.22 -3.49162 -6.11772 0
M  V30 20094 H 1866.32 0.0526462 -0.780226 0
M  V30 20095 H 1868.91 -0.484763 -1.88569 0
M  V30 20096 H 1867.08 1.30761 -3.65727 0
M  V30 20097 H 1868.81 1.18194 -3.87056 0
M  V30 20098 H 1865.57 -0.663814 -4.68925 0
M  V30 20099 H 1865.99 -2.84451 -6.14342 0
M  V30 20100 H 1870.63 -0.717913 -4.1666 0
M  V30 20101 H 1868.35 -4.25566 -6.86964 0
M  V30 20102 H 1871.94 -2.52343 -5.24227 0
M  V30 20103 H 1870.82 -4.26887 -6.57827 0
M  V30 20104 N 1868.32 1.57428 -0.0735454 0
M  V30 20105 C 1869.56 1.95432 0.598802 0
M  V30 20106 C 1869.92 0.953142 1.66671 0
M  V30 20107 O 1871.12 1.2209 2.39473 0
M  V30 20108 C 1869.39 3.38079 1.1592 0
M  V30 20109 S 1870.95 3.98061 1.84643 0
M  V30 20110 H 1867.77 0.683444 0.196022 0
M  V30 20111 H 1870.37 1.9494 -0.147819 0
M  V30 20112 H 1869.08 4.08727 0.370158 0
M  V30 20113 H 1868.61 3.42118 1.94214 0
M  V30 20114 H 1870.62 3.85108 3.129 0
M  V30 20115 N 1869.8 -0.200022 1.56326 0
M  V30 20116 C 1871.04 -0.918015 1.81505 0
M  V30 20117 C 1871.4 -1.81093 0.649849 0
M  V30 20118 O 1870.69 -1.88279 -0.355199 0
M  V30 20119 C 1870.88 -1.77356 3.1029 0
M  V30 20120 C 1870.71 -0.964962 4.39225 0
M  V30 20121 C 1869.48 -0.651338 5.01085 0
M  V30 20122 C 1871.68 -0.320001 5.13304 0
M  V30 20123 N 1869.66 0.176405 6.13646 0
M  V30 20124 C 1871.03 0.370162 6.18894 0
M  V30 20125 C 1873.09 -0.235224 4.97344 0
M  V30 20126 C 1871.79 1.13702 7.10257 0
M  V30 20127 C 1873.82 0.518224 5.89125 0
M  V30 20128 C 1873.18 1.19685 6.94158 0
M  V30 20129 H 1869.28 -0.315481 0.715539 0
M  V30 20130 H 1871.86 -0.187131 1.93799 0
M  V30 20131 H 1870.03 -2.47609 2.9924 0
M  V30 20132 H 1871.77 -2.43066 3.23575 0
M  V30 20133 H 1868.52 -0.974575 4.63464 0
M  V30 20134 H 1868.95 0.579743 6.74513 0
M  V30 20135 H 1873.59 -0.74554 4.16175 0
M  V30 20136 H 1871.31 1.65878 7.90892 0
M  V30 20137 H 1874.89 0.58511 5.7885 0
M  V30 20138 H 1873.77 1.77053 7.63951 0
M  V30 20139 N 1871.27 -1.50505 -0.467553 0
M  V30 20140 C 1872.2 -1.72558 -1.57309 0
M  V30 20141 C 1873.19 -0.574619 -1.601 0
M  V30 20142 O 1874.37 -0.814135 -1.76311 0
M  V30 20143 C 1871.5 -1.82296 -2.9561 0
M  V30 20144 C 1870.45 -2.97513 -3.07685 0
M  V30 20145 C 1869.78 -2.92398 -4.47669 0
M  V30 20146 C 1871.08 -4.37968 -2.84573 0
M  V30 20147 H 1872.77 -2.65122 -1.39107 0
M  V30 20148 H 1870.32 -1.2758 -0.667776 0
M  V30 20149 H 1872.27 -1.96308 -3.72882 0
M  V30 20150 H 1871 -0.863562 -3.14976 0
M  V30 20151 H 1869.66 -2.83157 -2.32847 0
M  V30 20152 H 1869.3 -1.94297 -4.63959 0
M  V30 20153 H 1869 -3.69749 -4.56683 0
M  V30 20154 H 1870.53 -3.08464 -5.26956 0
M  V30 20155 H 1871.94 -4.52831 -3.51593 0
M  V30 20156 H 1870.34 -5.16796 -3.05028 0
M  V30 20157 H 1871.41 -4.50093 -1.80402 0
M  V30 20158 N 1872.75 0.720973 -1.40142 0
M  V30 20159 C 1874.03 1.47356 -1.28629 0
M  V30 20160 C 1874.41 2.10873 0.0978138 0
M  V30 20161 O 1873.76 1.99717 1.1102 0
M  V30 20162 C 1873.97 2.51364 -2.4211 0
M  V30 20163 C 1875.32 3.17348 -2.82091 0
M  V30 20164 O 1876.34 2.61682 -2.41663 0
M  V30 20165 O 1875.2 4.1811 -3.51918 0
M  V30 20166 H 1872.29 0.655019 -0.504855 0
M  V30 20167 H 1874.84 0.753605 -1.52049 0
M  V30 20168 H 1873.61 2.02907 -3.34581 0
M  V30 20169 H 1873.23 3.30901 -2.20432 0
M  V30 20170 N 1874.23 1.25549 0.952634 0
M  V30 20171 C 1875.48 1.10416 1.69748 0
M  V30 20172 C 1875.81 -0.354517 1.91242 0
M  V30 20173 O 1875.06 -1.27756 1.48246 0
M  V30 20174 C 1875.36 1.80586 3.08421 0
M  V30 20175 C 1875.03 3.30504 3.06721 0
M  V30 20176 C 1873.69 3.71402 3.05965 0
M  V30 20177 C 1876.04 4.26275 2.99898 0
M  V30 20178 C 1873.37 5.06478 2.96137 0
M  V30 20179 C 1875.72 5.61378 2.91612 0
M  V30 20180 C 1874.38 6.01601 2.89192 0
M  V30 20181 H 1873.65 0.404041 0.621154 0
M  V30 20182 H 1876.3 1.55848 1.11283 0
M  V30 20183 H 1874.61 1.27592 3.70442 0
M  V30 20184 H 1876.3 1.66328 3.64878 0
M  V30 20185 H 1872.89 2.97965 3.08083 0
M  V30 20186 H 1877.08 3.95669 2.996 0
M  V30 20187 H 1872.33 5.3682 2.92633 0
M  V30 20188 H 1876.51 6.3528 2.85294 0
M  V30 20189 H 1874.13 7.06227 2.81333 0
M  V30 20190 N 1875.71 -1.15554 1.07168 0
M  V30 20191 C 1876.64 -2.22387 0.71178 0
M  V30 20192 C 1877.62 -1.67435 -0.299908 0
M  V30 20193 O 1878.8 -1.93427 -0.173073 0
M  V30 20194 C 1875.93 -3.47136 0.106815 0
M  V30 20195 C 1874.89 -4.15035 1.04545 0
M  V30 20196 C 1874.21 -5.33839 0.303337 0
M  V30 20197 C 1875.51 -4.65011 2.37827 0
M  V30 20198 H 1877.21 -2.52748 1.60496 0
M  V30 20199 H 1874.75 -1.21485 0.773139 0
M  V30 20200 H 1876.71 -4.21108 -0.15689 0
M  V30 20201 H 1875.43 -3.16101 -0.821429 0
M  V30 20202 H 1874.09 -3.43001 1.29405 0
M  V30 20203 H 1873.74 -4.9906 -0.628308 0
M  V30 20204 H 1873.44 -5.8021 0.928964 0
M  V30 20205 H 1874.96 -6.10582 0.0473869 0
M  V30 20206 H 1876.38 -5.3052 2.17305 0
M  V30 20207 H 1874.77 -5.22038 2.95967 0
M  V30 20208 H 1875.84 -3.80748 3.00264 0
M  V30 20209 N 1877.19 -0.855519 -1.32358 0
M  V30 20210 C 1878.44 -0.455543 -1.96488 0
M  V30 20211 C 1878.75 0.99419 -1.68449 0
M  V30 20212 O 1879.96 1.49964 -2.26325 0
M  V30 20213 C 1878.41 -0.763678 -3.51704 0
M  V30 20214 C 1878.02 -2.2292 -3.88601 0
M  V30 20215 C 1879.76 -0.431467 -4.22302 0
M  V30 20216 C 1877.67 -2.48051 -5.36866 0
M  V30 20217 H 1876.6 -0.166617 -0.73536 0
M  V30 20218 H 1879.25 -1.04642 -1.50739 0
M  V30 20219 H 1877.63 -0.102224 -3.95868 0
M  V30 20220 H 1878.81 -2.93251 -3.55444 0
M  V30 20221 H 1877.12 -2.52602 -3.31031 0
M  V30 20222 H 1879.72 -0.596641 -5.31361 0
M  V30 20223 H 1880.06 0.62698 -4.11552 0
M  V30 20224 H 1880.6 -1.04885 -3.83724 0
M  V30 20225 H 1877.33 -3.52523 -5.52637 0
M  V30 20226 H 1876.85 -1.82298 -5.71426 0
M  V30 20227 H 1878.53 -2.32044 -6.03957 0
M  V30 20228 N 1878.67 1.45167 -0.61354 0
M  V30 20229 C 1879.91 2.02495 -0.111227 0
M  V30 20230 C 1880.24 1.48015 1.25719 0
M  V30 20231 O 1879.52 0.657188 1.83061 0
M  V30 20232 C 1879.8 3.60014 -0.07876 0
M  V30 20233 C 1879.66 4.24814 -1.47827 0
M  V30 20234 C 1880.97 4.35908 0.605964 0
M  V30 20235 H 1878.09 0.735808 -0.0418931 0
M  V30 20236 H 1880.74 1.7295 -0.786651 0
M  V30 20237 H 1878.89 3.85315 0.496411 0
M  V30 20238 H 1880.56 4.10678 -2.10097 0
M  V30 20239 H 1878.8 3.82986 -2.03726 0
M  V30 20240 H 1879.47 5.33748 -1.40774 0
M  V30 20241 H 1881.95 4.15935 0.117019 0
M  V30 20242 H 1880.82 5.45635 0.597808 0
M  V30 20243 H 1881.08 4.09216 1.67315 0
M  V30 20244 N 1880.14 0.353044 1.53595 0
M  V30 20245 C 1881.11 -0.48691 2.23968 0
M  V30 20246 C 1882.11 -1.01991 1.24316 0
M  V30 20247 O 1883.3 -0.907654 1.48685 0
M  V30 20248 C 1880.43 -1.67926 2.96671 0
M  V30 20249 H 1881.62 0.128707 2.99624 0
M  V30 20250 H 1879.17 0.104533 1.5595 0
M  V30 20251 H 1879.91 -2.33331 2.25227 0
M  V30 20252 H 1879.69 -1.30417 3.69776 0
M  V30 20253 H 1881.18 -2.2748 3.50203 0
M  V30 20254 N 1881.62 -1.57387 0.0818932 0
M  V30 20255 C 1882.87 -1.94156 -0.585765 0
M  V30 20256 C 1883.2 -0.962889 -1.68648 0
M  V30 20257 O 1882.48 0.00625819 -1.94499 0
M  V30 20258 C 1882.76 -3.41132 -1.15329 0
M  V30 20259 C 1882.61 -4.49762 -0.0585349 0
M  V30 20260 C 1883.93 -3.89137 -2.05573 0
M  V30 20261 H 1881.05 -0.706012 -0.211463 0
M  V30 20262 H 1883.69 -1.89408 0.149918 0
M  V30 20263 H 1881.84 -3.4531 -1.78026 0
M  V30 20264 H 1883.51 -4.57702 0.575061 0
M  V30 20265 H 1881.76 -4.29496 0.609574 0
M  V30 20266 H 1882.43 -5.49765 -0.496206 0
M  V30 20267 H 1884.9 -3.87029 -1.52798 0
M  V30 20268 H 1883.78 -4.92569 -2.42213 0
M  V30 20269 H 1884.04 -3.27663 -2.96799 0
M  V30 20270 N 1883.1 0.191729 -1.56429 0
M  V30 20271 C 1884.32 0.931804 -1.85289 0
M  V30 20272 C 1884.75 1.7592 -0.665864 0
M  V30 20273 O 1884.11 1.77158 0.385313 0
M  V30 20274 C 1884.16 1.801 -3.12404 0
M  V30 20275 O 1883.26 2.9002 -2.93193 0
M  V30 20276 H 1882.6 0.262213 -0.610033 0
M  V30 20277 H 1885.13 0.196028 -2.03659 0
M  V30 20278 H 1885.14 2.20499 -3.43285 0
M  V30 20279 H 1883.82 1.19309 -3.9842 0
M  V30 20280 H 1882.39 2.53352 -2.73619 0
M  V30 20281 N 1884.58 1.50751 0.459565 0
M  V30 20282 C 1885.51 1.73389 1.56392 0
M  V30 20283 C 1886.49 0.583101 1.59793 0
M  V30 20284 O 1887.67 0.823474 1.75876 0
M  V30 20285 C 1884.8 1.83861 2.94639 0
M  V30 20286 C 1883.76 2.9914 3.06103 0
M  V30 20287 C 1883.08 2.94768 4.46112 0
M  V30 20288 C 1884.38 4.39471 2.82246 0
M  V30 20289 H 1886.08 2.65856 1.37699 0
M  V30 20290 H 1883.62 1.27933 0.661001 0
M  V30 20291 H 1885.58 1.98283 3.71836 0
M  V30 20292 H 1884.3 0.880254 3.14514 0
M  V30 20293 H 1882.96 2.84388 2.31342 0
M  V30 20294 H 1882.61 1.96755 4.62922 0
M  V30 20295 H 1882.31 3.72166 4.54716 0
M  V30 20296 H 1883.83 3.11254 5.25313 0
M  V30 20297 H 1885.25 4.54689 3.49186 0
M  V30 20298 H 1883.64 5.18406 3.02283 0
M  V30 20299 H 1884.71 4.51043 1.78012 0
M  V30 20300 N 1886.06 -0.713531 1.40522 0
M  V30 20301 C 1887.3 -1.47561 1.39117 0
M  V30 20302 C 1887.63 -1.94199 -0.00592038 0
M  V30 20303 O 1886.91 -1.68301 -0.974941 0
M  V30 20304 C 1887.19 -2.70023 2.38242 0
M  V30 20305 C 1887.05 -2.29266 3.86984 0
M  V30 20306 C 1888.36 -3.72185 2.34875 0
M  V30 20307 H 1885.48 -0.535243 0.50664 0
M  V30 20308 H 1888.13 -0.814172 1.71672 0
M  V30 20309 H 1886.28 -3.26458 2.10611 0
M  V30 20310 H 1887.95 -1.78297 4.2545 0
M  V30 20311 H 1886.19 -1.61246 4.02719 0
M  V30 20312 H 1886.86 -3.17057 4.51862 0
M  V30 20313 H 1889.34 -3.25384 2.59354 0
M  V30 20314 H 1888.21 -4.55507 3.06276 0
M  V30 20315 H 1888.47 -4.20627 1.36108 0
M  V30 20316 N 1887.53 -1.26053 -0.945962 0
M  V30 20317 C 1888.76 -1.14181 -1.7314 0
M  V30 20318 C 1889.18 0.299663 -1.85698 0
M  V30 20319 O 1888.54 1.21711 -1.34373 0
M  V30 20320 C 1888.59 -1.81052 -3.11854 0
M  V30 20321 O 1887.69 -1.09606 -3.97568 0
M  V30 20322 H 1887.03 -0.398138 -0.531397 0
M  V30 20323 H 1889.56 -1.66782 -1.18511 0
M  V30 20324 H 1889.57 -1.87685 -3.62269 0
M  V30 20325 H 1888.25 -2.85921 -3.0203 0
M  V30 20326 H 1886.83 -1.10915 -3.56023 0
M  V30 20327 N 1889.01 1.14984 -1.07779 0
M  V30 20328 C 1889.94 2.22006 -0.723564 0
M  V30 20329 C 1890.92 1.67592 0.291024 0
M  V30 20330 O 1892.11 1.93516 0.162812 0
M  V30 20331 C 1889.24 3.47074 -0.125223 0
M  V30 20332 C 1888.19 4.14475 -1.06745 0
M  V30 20333 C 1887.52 5.33671 -0.331643 0
M  V30 20334 C 1888.82 4.63744 -2.4029 0
M  V30 20335 H 1890.51 2.51893 -1.61834 0
M  V30 20336 H 1888.06 1.21073 -0.779571 0
M  V30 20337 H 1890.01 4.21185 0.134555 0
M  V30 20338 H 1888.73 3.16533 0.804654 0
M  V30 20339 H 1887.39 3.4231 -1.31222 0
M  V30 20340 H 1887.04 4.99387 0.601833 0
M  V30 20341 H 1886.74 5.7971 -0.959721 0
M  V30 20342 H 1888.27 6.10548 -0.0797668 0
M  V30 20343 H 1889.68 5.2936 -2.20115 0
M  V30 20344 H 1888.08 5.20461 -2.98732 0
M  V30 20345 H 1889.15 3.79151 -3.02279 0
M  V30 20346 N 1890.49 0.862526 1.31902 0
M  V30 20347 C 1891.74 0.465956 1.96244 0
M  V30 20348 C 1892.05 -0.985243 1.68974 0
M  V30 20349 O 1893.26 -1.48761 2.27118 0
M  V30 20350 C 1891.71 0.782319 3.51294 0
M  V30 20351 C 1891.32 2.24978 3.87413 0
M  V30 20352 C 1893.07 0.453857 4.22067 0
M  V30 20353 C 1890.97 2.50894 5.35543 0
M  V30 20354 H 1889.9 0.170515 0.734466 0
M  V30 20355 H 1892.55 1.0544 1.50182 0
M  V30 20356 H 1890.94 0.123217 3.95808 0
M  V30 20357 H 1892.11 2.95132 3.53884 0
M  V30 20358 H 1890.42 2.54354 3.29687 0
M  V30 20359 H 1893.02 0.624812 5.31037 0
M  V30 20360 H 1893.36 -0.605145 4.11878 0
M  V30 20361 H 1893.9 1.06918 3.83162 0
M  V30 20362 H 1890.64 3.55449 5.5076 0
M  V30 20363 H 1890.16 1.85326 5.70451 0
M  V30 20364 H 1891.84 2.35244 6.02718 0
M  V30 20365 N 1891.97 -1.4484 0.62123 0
M  V30 20366 C 1892.93 -2.29061 -0.0797989 0
M  V30 20367 C 1893.93 -1.40508 -0.781932 0
M  V30 20368 O 1895.12 -1.62485 -0.628023 0
M  V30 20369 C 1892.25 -3.21857 -1.12342 0
M  V30 20370 H 1893.45 -2.92528 0.66084 0
M  V30 20371 H 1891 -1.51588 0.3809 0
M  V30 20372 H 1891.73 -2.63218 -1.89437 0
M  V30 20373 H 1891.52 -3.87103 -0.624003 0
M  V30 20374 H 1893.01 -3.8515 -1.61398 0
M  V30 20375 N 1893.45 -0.361184 -1.53405 0
M  V30 20376 C 1894.39 0.502532 -2.27107 0
M  V30 20377 C 1895.39 1.08711 -1.29916 0
M  V30 20378 O 1896.59 1.03082 -1.47561 0
M  V30 20379 H 1892.97 0.180773 -0.729949 0
M  V30 20380 H 1894.94 -0.140891 -2.98067 0
M  V30 20381 C 1893.69 1.63258 -3.06989 0
M  V30 20382 H 1893.01 1.19205 -3.81615 0
M  V30 20383 H 1894.45 2.21174 -3.61743 0
M  V30 20384 C 1892.91 2.57234 -2.17559 0
M  V30 20385 O 1893.44 3.59939 -1.78345 0
M  V30 20386 N 1891.65 2.26322 -1.82282 0
M  V30 20387 H 1891.19 1.4284 -2.1437 0
M  V30 20388 H 1891.15 2.89455 -1.22731 0
M  V30 20389 N 1894.92 1.57341 -0.0902386 0
M  V30 20390 C 1895.89 2.12619 0.855916 0
M  V30 20391 C 1896.89 1.05434 1.2141 0
M  V30 20392 O 1898.08 1.31342 1.14433 0
M  V30 20393 C 1895.21 2.64277 2.15338 0
M  V30 20394 H 1896.4 2.97533 0.376014 0
M  V30 20395 H 1893.96 1.55492 0.1587 0
M  V30 20396 H 1894.69 1.82869 2.67824 0
M  V30 20397 H 1894.48 3.4264 1.9063 0
M  V30 20398 H 1895.97 3.07055 2.83032 0
M  V30 20399 N 1896.4 -0.183431 1.56529 0
M  V30 20400 C 1897.33 -1.22973 1.98494 0
M  V30 20401 C 1898.31 -1.46837 0.858653 0
M  V30 20402 O 1899.5 -1.58377 1.12385 0
M  V30 20403 C 1896.63 -2.57138 2.33446 0
M  V30 20404 C 1895.58 -2.47865 3.48922 0
M  V30 20405 C 1894.91 -3.8641 3.69582 0
M  V30 20406 C 1896.21 -1.99371 4.82751 0
M  V30 20407 H 1897.9 -0.880938 2.86147 0
M  V30 20408 H 1895.45 -0.422321 1.37668 0
M  V30 20409 H 1897.4 -3.30527 2.614 0
M  V30 20410 H 1896.13 -2.93781 1.42689 0
M  V30 20411 H 1894.78 -1.76932 3.21077 0
M  V30 20412 H 1894.43 -4.20426 2.76136 0
M  V30 20413 H 1894.13 -3.81077 4.47274 0
M  V30 20414 H 1895.66 -4.61403 3.99924 0
M  V30 20415 H 1897.07 -2.62526 5.0966 0
M  V30 20416 H 1895.47 -2.05014 5.63994 0
M  V30 20417 H 1896.54 -0.947442 4.75554 0
M  V30 20418 N 1897.88 -1.50992 -0.451564 0
M  V30 20419 C 1899.13 -1.62633 -1.19978 0
M  V30 20420 C 1899.45 -0.337971 -1.92049 0
M  V30 20421 O 1898.72 0.645542 -1.84958 0
M  V30 20422 H 1897.3 -0.599345 -0.445864 0
M  V30 20423 H 1899.96 -1.8786 -0.519104 0
M  V30 20424 H 1899.06 -2.44709 -1.93711 0
M  V30 20425 N 1899.36 0.706069 -1.40899 0
M  V30 20426 C 1900.59 1.49287 -1.42818 0
M  V30 20427 C 1901 1.89178 -0.0288607 0
M  V30 20428 O 1900.34 1.56633 0.959778 0
M  V30 20429 C 1900.4 2.79254 -2.26402 0
M  V30 20430 C 1900.07 2.61629 -3.74699 0
M  V30 20431 C 1901.06 2.28262 -4.67111 0
M  V30 20432 C 1898.75 2.77597 -4.18623 0
M  V30 20433 C 1900.74 2.11087 -6.01433 0
M  V30 20434 C 1898.43 2.60038 -5.53013 0
M  V30 20435 C 1899.43 2.26832 -6.44233 0
M  V30 20436 O 1899.11 2.09417 -7.76144 0
M  V30 20437 H 1898.85 0.466955 -0.488804 0
M  V30 20438 H 1901.4 0.877744 -1.85701 0
M  V30 20439 H 1899.63 3.43134 -1.78314 0
M  V30 20440 H 1901.32 3.41013 -2.20148 0
M  V30 20441 H 1902.09 2.1555 -4.34469 0
M  V30 20442 H 1897.96 3.02428 -3.47934 0
M  V30 20443 H 1901.51 1.85091 -6.72597 0
M  V30 20444 H 1897.41 2.72337 -5.85237 0
M  V30 20445 H 1898.17 2.24263 -7.87178 0
M  V30 20446 N 1900.84 1.26553 0.939264 0
M  V30 20447 C 1902.06 1.15098 1.72532 0
M  V30 20448 C 1902.49 -0.289811 1.85854 0
M  V30 20449 O 1901.84 -1.20997 1.35017 0
M  V30 20450 C 1901.89 1.82703 3.10889 0
M  V30 20451 O 1901 1.11712 3.96981 0
M  V30 20452 H 1900.34 0.40095 0.529278 0
M  V30 20453 H 1902.87 1.67408 1.17625 0
M  V30 20454 H 1902.88 1.89603 3.61268 0
M  V30 20455 H 1901.55 2.87519 3.00509 0
M  V30 20456 H 1900.13 1.12801 3.5543 0
M  V30 20457 N 1902.31 -1.14411 1.08387 0
M  V30 20458 C 1903.22 -2.23103 0.725418 0
M  V30 20459 C 1904.24 -1.71924 -0.26799 0
M  V30 20460 O 1905.42 -2.01088 -0.111986 0
M  V30 20461 C 1902.48 -3.46418 0.139915 0
M  V30 20462 C 1901.54 -4.12537 1.18791 0
M  V30 20463 C 1900.78 -5.29966 0.630252 0
M  V30 20464 O 1901 -5.67739 -0.550335 0
M  V30 20465 O 1899.93 -5.85862 1.38021 0
M  V30 20466 H 1903.76 -2.56116 1.63213 0
M  V30 20467 H 1901.34 -1.22338 0.857538 0
M  V30 20468 H 1903.23 -4.20999 -0.18381 0
M  V30 20469 H 1901.9 -3.15129 -0.739957 0
M  V30 20470 H 1900.81 -3.39831 1.56416 0
M  V30 20471 H 1902.14 -4.47932 2.04005 0
M  V30 20472 N 1903.79 -0.869509 -1.31443 0
M  V30 20473 C 1904.72 -0.340679 -2.31001 0
M  V30 20474 C 1905.7 0.568186 -1.6033 0
M  V30 20475 O 1906.89 0.485305 -1.88038 0
M  V30 20476 C 1904.02 0.45909 -3.44252 0
M  V30 20477 C 1902.97 -0.356639 -4.26512 0
M  V30 20478 C 1902.3 0.568786 -5.31666 0
M  V30 20479 C 1903.6 -1.59045 -4.97496 0
M  V30 20480 H 1905.29 -1.1726 -2.75482 0
M  V30 20481 H 1902.84 -0.5653 -1.3244 0
M  V30 20482 H 1904.79 0.839573 -4.12952 0
M  V30 20483 H 1903.52 1.32451 -2.98537 0
M  V30 20484 H 1902.17 -0.719063 -3.59479 0
M  V30 20485 H 1901.82 1.43148 -4.82201 0
M  V30 20486 H 1901.52 0.0268906 -5.87594 0
M  V30 20487 H 1903.05 0.946122 -6.03225 0
M  V30 20488 H 1904.46 -1.28144 -5.58795 0
M  V30 20489 H 1902.86 -2.07139 -5.63217 0
M  V30 20490 H 1903.93 -2.34354 -4.24507 0
M  V30 20491 N 1905.27 1.44508 -0.628902 0
M  V30 20492 C 1906.52 2.01667 -0.13224 0
M  V30 20493 C 1906.84 1.49706 1.24953 0
M  V30 20494 O 1906.11 0.699769 1.82976 0
M  V30 20495 H 1904.69 0.745589 -0.0458966 0
M  V30 20496 H 1907.35 1.77037 -0.815102 0
M  V30 20497 H 1906.45 3.11945 -0.0982328 0
M  V30 20498 N 1906.75 0.369315 1.53212 0
M  V30 20499 C 1907.71 -0.463128 2.24472 0
M  V30 20500 C 1908.71 -1.00667 1.2539 0
M  V30 20501 O 1909.9 -0.891832 1.4964 0
M  V30 20502 C 1907.03 -1.6477 2.98435 0
M  V30 20503 H 1908.23 0.160479 2.9947 0
M  V30 20504 H 1905.78 0.121068 1.5583 0
M  V30 20505 H 1906.52 -2.30929 2.27689 0
M  V30 20506 H 1906.3 -1.26487 3.71138 0
M  V30 20507 H 1907.79 -2.23753 3.52596 0
M  V30 20508 N 1908.23 -1.57291 0.0985816 0
M  V30 20509 C 1909.48 -1.93654 -0.564011 0
M  V30 20510 C 1909.79 -0.982723 -1.69121 0
M  V30 20511 O 1911 -1.2402 -2.41519 0
M  V30 20512 C 1909.45 -3.441 -1.05466 0
M  V30 20513 C 1909.06 -4.47979 0.0429743 0
M  V30 20514 C 1910.8 -3.89418 -1.68979 0
M  V30 20515 C 1908.71 -5.89583 -0.463226 0
M  V30 20516 H 1907.64 -0.722858 -0.214457 0
M  V30 20517 H 1910.29 -1.82662 0.175145 0
M  V30 20518 H 1908.67 -3.50256 -1.84761 0
M  V30 20519 H 1909.85 -4.53471 0.818587 0
M  V30 20520 H 1908.16 -4.12291 0.583501 0
M  V30 20521 H 1910.76 -4.92615 -2.0793 0
M  V30 20522 H 1911.1 -3.28258 -2.56032 0
M  V30 20523 H 1911.64 -3.85978 -0.962602 0
M  V30 20524 H 1908.37 -6.54451 0.370767 0
M  V30 20525 H 1907.89 -5.87555 -1.20577 0
M  V30 20526 H 1909.57 -6.40266 -0.931072 0
M  V30 20527 N 1909.71 0.175127 -1.56624 0
M  V30 20528 C 1910.65 1.21687 -1.96114 0
M  V30 20529 C 1911.62 1.44191 -0.824518 0
M  V30 20530 O 1912.81 1.56994 -1.08433 0
M  V30 20531 C 1909.95 2.55207 -2.323 0
M  V30 20532 C 1909.06 2.40115 -3.59122 0
M  V30 20533 C 1908.2 3.66475 -3.84538 0
M  V30 20534 C 1907.23 3.463 -5.04721 0
M  V30 20535 N 1906.37 4.6472 -5.26288 0
M  V30 20536 H 1911.21 0.873106 -2.84923 0
M  V30 20537 H 1908.75 0.419721 -1.40985 0
M  V30 20538 H 1910.71 3.33022 -2.51302 0
M  V30 20539 H 1909.34 2.87587 -1.46607 0
M  V30 20540 H 1908.39 1.53496 -3.48056 0
M  V30 20541 H 1909.7 2.21151 -4.47095 0
M  V30 20542 H 1908.85 4.52726 -4.03886 0
M  V30 20543 H 1907.59 3.88414 -2.94934 0
M  V30 20544 H 1906.6 2.58435 -4.85274 0
M  V30 20545 H 1907.82 3.25787 -5.95852 0
M  V30 20546 H 1905.77 4.86885 -4.39635 0
M  V30 20547 H 1905.69 4.48656 -6.08477 0
M  V30 20548 H 1906.95 5.52265 -5.50112 0
M  V30 20549 N 1911.18 1.5123 0.44355 0
M  V30 20550 C 1912.41 1.67671 1.2207 0
M  V30 20551 C 1912.83 0.370934 1.84406 0
M  V30 20552 O 1912.19 -0.668265 1.68535 0
M  V30 20553 C 1912.24 2.7896 2.28503 0
M  V30 20554 O 1911.34 2.4213 3.33837 0
M  V30 20555 H 1910.68 0.559275 0.357921 0
M  V30 20556 H 1913.21 1.9776 0.524592 0
M  V30 20557 H 1913.22 3.0286 2.73386 0
M  V30 20558 H 1911.9 3.73716 1.82509 0
M  V30 20559 H 1910.48 2.28779 2.94473 0
M  V30 20560 N 1912.66 -0.698586 1.41271 0
M  V30 20561 C 1913.59 -1.82505 1.4565 0
M  V30 20562 C 1914.57 -1.67149 0.315497 0
M  V30 20563 O 1915.76 -1.86926 0.526518 0
M  V30 20564 C 1912.89 -3.20616 1.33502 0
M  V30 20565 C 1911.84 -3.50672 2.45383 0
M  V30 20566 C 1911.17 -4.88107 2.18302 0
M  V30 20567 C 1912.47 -3.49952 3.87725 0
M  V30 20568 H 1914.16 -1.79098 2.39926 0
M  V30 20569 H 1911.71 -0.860237 1.15481 0
M  V30 20570 H 1913.66 -3.9913 1.35179 0
M  V30 20571 H 1912.38 -3.24642 0.357101 0
M  V30 20572 H 1911.04 -2.74507 2.42984 0
M  V30 20573 H 1910.69 -4.88755 1.1886 0
M  V30 20574 H 1910.39 -5.09182 2.9327 0
M  V30 20575 H 1911.92 -5.68934 2.21689 0
M  V30 20576 H 1913.33 -4.18476 3.91855 0
M  V30 20577 H 1911.73 -3.82559 4.62351 0
M  V30 20578 H 1912.8 -2.48988 4.16093 0
M  V30 20579 N 1914.14 -1.27049 -0.93254 0
M  V30 20580 C 1915.56 -1.04349 -1.20762 0
M  V30 20581 C 1915.76 0.225981 -2.00229 0
M  V30 20582 O 1914.81 0.932788 -2.34639 0
M  V30 20583 C 1916.12 -2.28004 -1.96048 0
M  V30 20584 C 1917.67 -2.32993 -2.09006 0
M  V30 20585 C 1918.15 -3.56364 -2.87696 0
M  V30 20586 N 1919.64 -3.56892 -2.95266 0
M  V30 20587 C 1920.37 -4.49022 -3.56604 0
M  V30 20588 N 1919.87 -5.51451 -4.19374 0
M  V30 20589 N 1921.66 -4.36656 -3.53961 0
M  V30 20590 H 1913.81 -2.0857 -0.401516 0
M  V30 20591 H 1916.08 -0.917061 -0.240213 0
M  V30 20592 H 1915.78 -3.20386 -1.45072 0
M  V30 20593 H 1915.66 -2.32937 -2.96682 0
M  V30 20594 H 1918.04 -1.41119 -2.5917 0
M  V30 20595 H 1918.12 -2.32065 -1.07607 0
M  V30 20596 H 1917.77 -4.48571 -2.38216 0
M  V30 20597 H 1917.7 -3.54541 -3.89369 0
M  V30 20598 H 1920.19 -2.82812 -2.5065 0
M  V30 20599 H 1920.5 -6.17924 -4.64101 0
M  V30 20600 H 1918.85 -5.55298 -4.17934 0
M  V30 20601 H 1922.04 -3.55848 -3.04122 0
M  V30 20602 H 1922.21 -5.08647 -4.01475 0
M  V30 20603 N 1915.62 1.13835 -1.08993 0
M  V30 20604 C 1916.85 1.88861 -0.844923 0
M  V30 20605 C 1917.26 1.78897 0.603444 0
M  V30 20606 O 1916.62 1.15246 1.41508 0
M  V30 20607 C 1916.67 3.38622 -1.26559 0
M  V30 20608 O 1916.39 3.48321 -2.65714 0
M  V30 20609 C 1917.89 4.30629 -1.05232 0
M  V30 20610 H 1915.11 0.598038 -0.304288 0
M  V30 20611 H 1917.65 1.44129 -1.45076 0
M  V30 20612 H 1915.81 3.80954 -0.703737 0
M  V30 20613 H 1916.22 4.41387 -2.83333 0
M  V30 20614 H 1917.7 5.34057 -1.39598 0
M  V30 20615 H 1918.17 4.39199 0.0102308 0
M  V30 20616 H 1918.78 3.9406 -1.5999 0
M  V30 20617 N 1917.1 0.876467 1.3098 0
M  V30 20618 C 1918.03 0.352925 2.30817 0
M  V30 20619 C 1919.01 -0.559675 1.60629 0
M  V30 20620 O 1920.19 -0.475326 1.88293 0
M  V30 20621 C 1917.32 -0.440827 3.44491 0
M  V30 20622 C 1916.28 0.379253 4.26316 0
M  V30 20623 C 1915.6 -0.540582 5.3196 0
M  V30 20624 C 1916.9 1.61682 4.96645 0
M  V30 20625 H 1918.6 1.18719 2.74857 0
M  V30 20626 H 1916.14 0.572316 1.32138 0
M  V30 20627 H 1918.09 -0.817661 4.13391 0
M  V30 20628 H 1916.82 -1.30866 2.99235 0
M  V30 20629 H 1915.48 0.738117 3.59092 0
M  V30 20630 H 1915.13 -1.40588 4.82953 0
M  V30 20631 H 1914.83 0.00427133 5.876 0
M  V30 20632 H 1916.35 -0.914118 6.03719 0
M  V30 20633 H 1917.76 1.31105 5.58108 0
M  V30 20634 H 1916.16 2.10123 5.62111 0
M  V30 20635 H 1917.23 2.36602 4.23258 0
M  V30 20636 N 1918.57 -1.44173 0.636557 0
M  V30 20637 C 1919.99 -1.56704 0.302646 0
M  V30 20638 C 1920.19 -1.62316 -1.19398 0
M  V30 20639 O 1919.25 -1.56914 -1.97824 0
M  V30 20640 C 1920.56 -2.83608 0.999346 0
M  V30 20641 C 1922.11 -2.97328 0.978005 0
M  V30 20642 C 1922.58 -4.27042 1.65527 0
M  V30 20643 N 1924.07 -4.33868 1.62212 0
M  V30 20644 C 1924.81 -5.32966 2.11505 0
M  V30 20645 N 1924.3 -6.38439 2.69012 0
M  V30 20646 N 1926.1 -5.24511 2.02102 0
M  V30 20647 H 1918.25 -1.38773 1.60797 0
M  V30 20648 H 1920.51 -0.665369 0.675269 0
M  V30 20649 H 1920.22 -2.85466 2.05432 0
M  V30 20650 H 1920.09 -3.73308 0.540484 0
M  V30 20651 H 1922.48 -2.9502 -0.0685065 0
M  V30 20652 H 1922.56 -2.08963 1.47541 0
M  V30 20653 H 1922.2 -4.30109 2.70126 0
M  V30 20654 H 1922.13 -5.14275 1.13266 0
M  V30 20655 H 1924.62 -3.58264 1.20231 0
M  V30 20656 H 1924.94 -7.10348 3.04344 0
M  V30 20657 H 1923.28 -6.39109 2.73066 0
M  V30 20658 H 1926.47 -4.41024 1.56892 0
M  V30 20659 H 1926.65 -6.01586 2.40828 0
M  V30 20660 N 1920.05 -0.377435 -1.53014 0
M  V30 20661 C 1921.01 0.451217 -2.24715 0
M  V30 20662 C 1922.01 1.00001 -1.25923 0
M  V30 20663 O 1923.2 0.883884 -1.5011 0
M  V30 20664 C 1920.34 1.63185 -2.99305 0
M  V30 20665 H 1921.53 -0.176358 -2.99381 0
M  V30 20666 H 1919.08 -0.12933 -1.55764 0
M  V30 20667 H 1919.82 2.29718 -2.2891 0
M  V30 20668 H 1919.6 1.24517 -3.71804 0
M  V30 20669 H 1921.09 2.2188 -3.53778 0
M  V30 20670 N 1921.53 1.57237 -0.106922 0
M  V30 20671 C 1922.46 2.1769 0.844599 0
M  V30 20672 C 1923.44 1.11352 1.28587 0
M  V30 20673 O 1924.63 1.39539 1.35065 0
M  V30 20674 C 1921.76 2.76668 2.09933 0
M  V30 20675 C 1920.71 3.88482 1.79627 0
M  V30 20676 C 1920.04 4.34214 3.12029 0
M  V30 20677 C 1921.34 5.11139 1.07399 0
M  V30 20678 H 1923.03 2.97453 0.340887 0
M  V30 20679 H 1920.58 1.4308 0.162523 0
M  V30 20680 H 1922.53 3.17614 2.76946 0
M  V30 20681 H 1921.25 1.94176 2.62608 0
M  V30 20682 H 1919.91 3.48093 1.15008 0
M  V30 20683 H 1919.56 3.48597 3.62614 0
M  V30 20684 H 1919.26 5.09608 2.9253 0
M  V30 20685 H 1920.78 4.77803 3.8018 0
M  V30 20686 H 1922.2 5.4918 1.64543 0
M  V30 20687 H 1920.6 5.92038 0.980375 0
M  V30 20688 H 1921.67 4.84864 0.0586914 0
M  V30 20689 N 1923.01 -0.166818 1.56715 0
M  V30 20690 C 1924.42 -0.518754 1.50934 0
M  V30 20691 C 1924.62 -1.84416 0.811964 0
M  V30 20692 O 1923.68 -2.49712 0.374207 0
M  V30 20693 C 1924.99 -0.547356 2.95676 0
M  V30 20694 C 1926.54 -0.634247 3.06507 0
M  V30 20695 C 1927.02 -0.693699 4.52716 0
M  V30 20696 N 1928.51 -0.756466 4.56981 0
M  V30 20697 C 1929.24 -0.823116 5.67461 0
M  V30 20698 N 1928.74 -0.850325 6.87562 0
M  V30 20699 N 1930.53 -0.862482 5.55444 0
M  V30 20700 H 1922.68 0.70222 2.00456 0
M  V30 20701 H 1924.95 0.253731 0.913414 0
M  V30 20702 H 1924.65 0.357945 3.49874 0
M  V30 20703 H 1924.53 -1.39227 3.50565 0
M  V30 20704 H 1926.91 -1.52997 2.52341 0
M  V30 20705 H 1926.99 0.23743 2.54696 0
M  V30 20706 H 1926.64 0.197788 5.07515 0
M  V30 20707 H 1926.57 -1.58158 5.02288 0
M  V30 20708 H 1929.06 -0.74354 3.70513 0
M  V30 20709 H 1929.37 -0.902481 7.67512 0
M  V30 20710 H 1927.72 -0.818528 6.90163 0
M  V30 20711 H 1930.91 -0.838257 4.60533 0
M  V30 20712 H 1931.08 -0.910962 6.41565 0
M  V30 20713 N 1924.49 -1.51463 -0.435524 0
M  V30 20714 C 1925.9 -1.56678 -1.01533 0
M  V30 20715 C 1926.25 -0.391337 -1.92258 0
M  V30 20716 O 1925.37 0.491647 -2.10741 0
M  V30 20717 C 1925.97 -2.83951 -1.84817 0
M  V30 20718 C 1924.53 -2.91731 -2.37844 0
M  V30 20719 C 1923.67 -2.51359 -1.17106 0
M  V30 20720 H 1926.63 -1.57213 -0.216726 0
M  V30 20721 H 1926.65 -2.67815 -2.70287 0
M  V30 20722 H 1926.16 -3.69483 -1.1876 0
M  V30 20723 H 1924.26 -2.10633 -3.07351 0
M  V30 20724 H 1924.37 -3.95421 -2.70517 0
M  V30 20725 H 1922.74 -2.04599 -1.51695 0
M  V30 20726 H 1923.52 -3.39238 -0.526566 0
M  V30 20727 N 1925.96 0.691085 -1.4164 0
M  V30 20728 C 1926.89 1.8173 -1.46616 0
M  V30 20729 C 1927.88 1.66979 -0.324357 0
M  V30 20730 O 1929.06 1.86644 -0.536424 0
M  V30 20731 C 1926.19 3.19903 -1.35201 0
M  V30 20732 C 1925.14 3.49366 -2.47239 0
M  V30 20733 C 1924.47 4.86942 -2.20887 0
M  V30 20734 C 1925.77 3.47891 -3.89575 0
M  V30 20735 H 1927.46 1.77823 -2.40872 0
M  V30 20736 H 1925.01 0.8541 -1.15936 0
M  V30 20737 H 1926.96 3.98407 -1.37293 0
M  V30 20738 H 1925.69 3.24448 -0.374312 0
M  V30 20739 H 1924.35 2.73215 -2.44436 0
M  V30 20740 H 1923.99 4.88118 -1.2145 0
M  V30 20741 H 1923.69 5.0762 -2.95966 0
M  V30 20742 H 1925.22 5.67751 -2.24703 0
M  V30 20743 H 1926.63 4.16392 -3.94069 0
M  V30 20744 H 1925.03 3.80101 -4.64374 0
M  V30 20745 H 1926.1 2.46778 -4.17407 0
M  V30 20746 N 1927.44 1.27542 0.925789 0
M  V30 20747 C 1928.86 1.04988 1.20207 0
M  V30 20748 C 1929.06 -0.215359 2.00346 0
M  V30 20749 O 1928.11 -0.920331 2.3513 0
M  V30 20750 C 1929.43 2.2904 1.94836 0
M  V30 20751 C 1930.98 2.34098 2.07767 0
M  V30 20752 C 1931.45 3.57884 2.85802 0
M  V30 20753 N 1932.94 3.58453 2.93369 0
M  V30 20754 C 1933.68 4.50907 3.54218 0
M  V30 20755 N 1933.17 5.53667 4.16443 0
M  V30 20756 N 1934.97 4.38527 3.5164 0
M  V30 20757 H 1927.12 2.0878 0.390449 0
M  V30 20758 H 1929.38 0.918323 0.235346 0
M  V30 20759 H 1929.09 3.21151 1.4337 0
M  V30 20760 H 1928.96 2.34507 2.95442 0
M  V30 20761 H 1931.35 1.42492 2.58418 0
M  V30 20762 H 1931.43 2.32633 1.06375 0
M  V30 20763 H 1931.07 4.49828 2.35834 0
M  V30 20764 H 1931 3.56601 3.87484 0
M  V30 20765 H 1933.49 2.84138 2.49147 0
M  V30 20766 H 1933.81 6.20377 4.60817 0
M  V30 20767 H 1932.15 5.57507 4.14983 0
M  V30 20768 H 1935.34 3.57455 3.0223 0
M  V30 20769 H 1935.51 5.10769 3.98772 0
M  V30 20770 N 1928.92 -1.13255 1.09595 0
M  V30 20771 C 1929.88 -2.16909 0.740481 0
M  V30 20772 C 1930.88 -1.59135 -0.230794 0
M  V30 20773 O 1932.07 -1.74198 -0.00875551 0
M  V30 20774 C 1929.21 -3.40767 0.0953504 0
M  V30 20775 H 1930.4 -2.49869 1.65848 0
M  V30 20776 H 1927.95 -1.28113 0.895358 0
M  V30 20777 H 1928.69 -3.13398 -0.833794 0
M  V30 20778 H 1928.47 -3.83972 0.794247 0
M  V30 20779 H 1929.96 -4.17372 -0.137892 0
M  V30 20780 N 1930.4 -0.883401 -1.30514 0
M  V30 20781 C 1931.33 -0.36516 -2.30627 0
M  V30 20782 C 1932.31 0.551149 -1.60923 0
M  V30 20783 O 1933.49 0.465333 -1.88543 0
M  V30 20784 C 1930.62 0.422552 -3.4472 0
M  V30 20785 C 1929.58 -0.401856 -4.26109 0
M  V30 20786 C 1928.9 0.512363 -5.3224 0
M  V30 20787 C 1930.2 -1.64313 -4.95781 0
M  V30 20788 H 1931.9 -1.20175 -2.74223 0
M  V30 20789 H 1929.44 -0.579315 -1.31833 0
M  V30 20790 H 1931.4 0.795726 -4.13819 0
M  V30 20791 H 1930.12 1.29278 -2.99925 0
M  V30 20792 H 1928.78 -0.75715 -3.58696 0
M  V30 20793 H 1928.43 1.38025 -4.83692 0
M  V30 20794 H 1928.13 -0.0354331 -5.87589 0
M  V30 20795 H 1929.65 0.882088 -6.04195 0
M  V30 20796 H 1931.07 -1.34063 -5.57405 0
M  V30 20797 H 1929.46 -2.13101 -5.60989 0
M  V30 20798 H 1930.53 -2.38843 -4.21998 0
M  V30 20799 N 1931.88 1.43833 -0.644194 0
M  V30 20800 C 1933.1 2.06784 -0.159719 0
M  V30 20801 C 1933.53 1.47913 1.16204 0
M  V30 20802 O 1932.88 0.585574 1.71583 0
M  V30 20803 C 1932.93 3.60527 -0.0724271 0
M  V30 20804 O 1932.04 4.0088 0.967917 0
M  V30 20805 H 1931.38 0.657771 -0.0907406 0
M  V30 20806 H 1933.91 1.8449 -0.884568 0
M  V30 20807 H 1933.92 4.07841 0.113872 0
M  V30 20808 H 1932.59 4.02755 -1.03736 0
M  V30 20809 H 1931.17 3.65174 0.755135 0
M  V30 20810 N 1933.35 0.385544 1.52811 0
M  V30 20811 C 1934.77 0.0353371 1.59561 0
M  V30 20812 C 1934.97 -1.44948 1.39973 0
M  V30 20813 O 1934.03 -2.21354 1.21484 0
M  V30 20814 C 1935.34 0.509155 2.96358 0
M  V30 20815 C 1936.89 0.465088 3.09525 0
M  V30 20816 C 1937.36 0.915035 4.48766 0
M  V30 20817 N 1938.85 0.870895 4.54939 0
M  V30 20818 C 1939.59 1.1905 5.60905 0
M  V30 20819 N 1939.08 1.58039 6.74534 0
M  V30 20820 N 1940.88 1.112 5.50991 0
M  V30 20821 H 1933.03 1.35224 1.63793 0
M  V30 20822 H 1935.29 0.554013 0.769268 0
M  V30 20823 H 1935 1.54604 3.15896 0
M  V30 20824 H 1934.87 -0.0937516 3.77083 0
M  V30 20825 H 1937.26 -0.562704 2.89685 0
M  V30 20826 H 1937.34 1.10375 2.30762 0
M  V30 20827 H 1936.98 1.94104 4.69346 0
M  V30 20828 H 1936.91 0.253422 5.2599 0
M  V30 20829 H 1939.4 0.583936 3.73361 0
M  V30 20830 H 1939.72 1.808 7.51353 0
M  V30 20831 H 1938.06 1.61922 6.75874 0
M  V30 20832 H 1941.25 0.806438 4.61101 0
M  V30 20833 H 1941.43 1.3644 6.33473 0
M  V30 20834 N 1934.83 -1.57178 0.115259 0
M  V30 20835 C 1936.08 -1.95066 -0.543645 0
M  V30 20836 C 1936.41 -0.998318 -1.66925 0
M  V30 20837 O 1935.66 -0.0215177 -1.95688 0
M  V30 20838 C 1935.96 -3.39391 -1.12019 0
M  V30 20839 C 1935.63 -4.5075 -0.116323 0
M  V30 20840 C 1934.29 -4.80935 0.159725 0
M  V30 20841 C 1936.64 -5.18096 0.568016 0
M  V30 20842 C 1933.97 -5.75784 1.12646 0
M  V30 20843 C 1936.32 -6.13984 1.52336 0
M  V30 20844 C 1934.99 -6.42564 1.80743 0
M  V30 20845 H 1934.26 -0.713797 -0.198934 0
M  V30 20846 H 1936.9 -1.90501 0.195371 0
M  V30 20847 H 1935.21 -3.40633 -1.93589 0
M  V30 20848 H 1936.9 -3.66018 -1.63805 0
M  V30 20849 H 1933.49 -4.27236 -0.341664 0
M  V30 20850 H 1937.68 -4.94934 0.367913 0
M  V30 20851 H 1932.93 -5.96234 1.35334 0
M  V30 20852 H 1937.11 -6.65255 2.05933 0
M  V30 20853 H 1934.74 -7.15867 2.55808 0
M  V30 20854 N 1936.31 0.158505 -1.56801 0
M  V30 20855 C 1937.22 1.2157 -2.00644 0
M  V30 20856 C 1938.24 1.47694 -0.919914 0
M  V30 20857 O 1939.41 1.59591 -1.22853 0
M  V30 20858 C 1936.48 2.53191 -2.36844 0
M  V30 20859 C 1935.54 2.34816 -3.59389 0
M  V30 20860 C 1934.77 3.60161 -3.93853 0
M  V30 20861 O 1935 4.65871 -3.29121 0
M  V30 20862 O 1933.93 3.53508 -4.8715 0
M  V30 20863 H 1937.76 0.873512 -2.90867 0
M  V30 20864 H 1935.34 0.366356 -1.44839 0
M  V30 20865 H 1937.22 3.30812 -2.6104 0
M  V30 20866 H 1935.9 2.86963 -1.4978 0
M  V30 20867 H 1934.8 1.55184 -3.40395 0
M  V30 20868 H 1936.14 2.05964 -4.47034 0
M  V30 20869 N 1937.79 1.51692 0.427485 0
M  V30 20870 C 1939.04 1.64521 1.17376 0
M  V30 20871 C 1939.36 0.368482 1.91487 0
M  V30 20872 O 1938.63 -0.616035 1.85962 0
M  V30 20873 H 1937.21 0.606362 0.436273 0
M  V30 20874 H 1939.87 1.88662 0.489152 0
M  V30 20875 H 1938.97 2.47759 1.89794 0
M  V30 20876 N 1939.27 -0.683564 1.42004 0
M  V30 20877 C 1940.2 -1.80812 1.39221 0
M  V30 20878 C 1941.18 -1.60545 0.25771 0
M  V30 20879 O 1942.36 -1.83135 0.446539 0
M  V30 20880 C 1939.49 -3.17679 1.17463 0
M  V30 20881 C 1938.54 -3.56713 2.33791 0
M  V30 20882 S 1939.37 -3.60144 3.96304 0
M  V30 20883 C 1940.52 -4.99718 3.76872 0
M  V30 20884 H 1940.76 -1.82897 2.34384 0
M  V30 20885 H 1938.29 -0.853409 1.28671 0
M  V30 20886 H 1940.25 -3.96686 1.05597 0
M  V30 20887 H 1938.91 -3.13189 0.239001 0
M  V30 20888 H 1938.1 -4.56174 2.14292 0
M  V30 20889 H 1937.7 -2.85045 2.42127 0
M  V30 20890 H 1940 -5.87555 3.37321 0
M  V30 20891 H 1940.94 -5.24261 4.75979 0
M  V30 20892 H 1941.35 -4.71823 3.09909 0
M  V30 20893 N 1940.75 -1.28031 -0.919012 0
M  V30 20894 C 1942.16 -1.05624 -1.19649 0
M  V30 20895 C 1942.36 0.204731 -2.00457 0
M  V30 20896 O 1941.42 0.907849 -2.35615 0
M  V30 20897 C 1942.73 -2.3007 -1.93619 0
M  V30 20898 C 1944.28 -2.35196 -2.06523 0
M  V30 20899 C 1944.75 -3.59395 -2.839 0
M  V30 20900 N 1946.24 -3.60004 -2.91464 0
M  V30 20901 C 1946.98 -4.52779 -3.51822 0
M  V30 20902 N 1946.48 -5.55868 -4.13501 0
M  V30 20903 N 1948.27 -4.40385 -3.4931 0
M  V30 20904 H 1940.42 -2.08985 -0.379372 0
M  V30 20905 H 1942.68 -0.919558 -0.230473 0
M  V30 20906 H 1942.39 -3.21907 -1.41665 0
M  V30 20907 H 1942.26 -2.36071 -2.94195 0
M  V30 20908 H 1944.65 -1.4386 -2.57659 0
M  V30 20909 H 1944.73 -2.33194 -1.0514 0
M  V30 20910 H 1944.37 -4.51072 -2.33445 0
M  V30 20911 H 1944.3 -3.58651 -3.85587 0
M  V30 20912 H 1946.8 -2.85455 -2.47637 0
M  V30 20913 H 1947.11 -6.22812 -4.57521 0
M  V30 20914 H 1945.45 -5.597 -4.12021 0
M  V30 20915 H 1948.64 -3.59053 -3.0033 0
M  V30 20916 H 1948.82 -5.12877 -3.96057 0
M  V30 20917 N 1942.22 1.12672 -1.10194 0
M  V30 20918 C 1943.47 1.84399 -0.844081 0
M  V30 20919 C 1943.8 1.83739 0.628782 0
M  V30 20920 O 1943.08 1.28115 1.46345 0
M  V30 20921 C 1943.36 3.32194 -1.38994 0
M  V30 20922 C 1943.21 3.41323 -2.92948 0
M  V30 20923 C 1944.53 4.27872 -1.03021 0
M  V30 20924 H 1941.65 0.669515 -0.308089 0
M  V30 20925 H 1944.29 1.322 -1.36467 0
M  V30 20926 H 1942.44 3.76778 -0.947144 0
M  V30 20927 H 1944.12 3.05393 -3.45735 0
M  V30 20928 H 1942.36 2.81948 -3.29678 0
M  V30 20929 H 1943.03 4.45289 -3.26223 0
M  V30 20930 H 1945.51 3.91401 -1.41224 0
M  V30 20931 H 1944.38 5.29699 -1.43909 0
M  V30 20932 H 1944.64 4.42058 0.0606669 0
M  V30 20933 N 1943.7 0.89031 1.30043 0
M  V30 20934 C 1944.95 0.512208 1.96225 0
M  V30 20935 C 1945.28 -0.937287 1.70084 0
M  V30 20936 O 1944.56 -1.66309 1.00854 0
M  V30 20937 C 1944.84 0.794043 3.51236 0
M  V30 20938 C 1944.69 2.29456 3.86872 0
M  V30 20939 C 1946.01 0.274152 4.39245 0
M  V30 20940 H 1943.13 0.187568 0.712732 0
M  V30 20941 H 1945.77 1.11528 1.53823 0
M  V30 20942 H 1943.92 0.28077 3.87484 0
M  V30 20943 H 1945.59 2.87665 3.6062 0
M  V30 20944 H 1943.84 2.75907 3.34751 0
M  V30 20945 H 1944.51 2.44235 4.95029 0
M  V30 20946 H 1946.98 0.713535 4.09936 0
M  V30 20947 H 1945.86 0.500633 5.46612 0
M  V30 20948 H 1946.12 -0.824812 4.34338 0
M  V30 20949 N 1945.18 -1.43489 0.651812 0
M  V30 20950 C 1946.43 -2.02129 0.164876 0
M  V30 20951 C 1946.76 -1.51296 -1.2175 0
M  V30 20952 O 1946.03 -0.705492 -1.81254 0
M  V30 20953 C 1946.32 -3.59678 0.174184 0
M  V30 20954 C 1946.17 -4.20746 1.59038 0
M  V30 20955 C 1947.49 -4.37362 -0.490177 0
M  V30 20956 H 1944.61 -0.734439 0.0613871 0
M  V30 20957 H 1947.25 -1.70804 0.832229 0
M  V30 20958 H 1945.4 -3.86496 -0.394077 0
M  V30 20959 H 1947.07 -4.04964 2.20912 0
M  V30 20960 H 1945.31 -3.7745 2.13809 0
M  V30 20961 H 1945.99 -5.29828 1.54876 0
M  V30 20962 H 1948.46 -4.16099 -0.00670015 0
M  V30 20963 H 1947.34 -5.47028 -0.452932 0
M  V30 20964 H 1947.6 -4.13509 -1.56406 0
M  V30 20965 N 1946.66 -0.393643 -1.52605 0
M  V30 20966 C 1947.61 0.454246 -2.28121 0
M  V30 20967 C 1948.6 1.05931 -1.32193 0
M  V30 20968 O 1949.81 0.999286 -1.49714 0
M  V30 20969 H 1946.18 0.165249 -0.733619 0
M  V30 20970 H 1948.15 -0.204084 -2.97701 0
M  V30 20971 C 1946.9 1.5671 -3.10383 0
M  V30 20972 H 1946.22 1.11084 -3.84058 0
M  V30 20973 H 1947.66 2.13451 -3.66353 0
M  V30 20974 C 1946.12 2.52562 -2.22967 0
M  V30 20975 O 1946.65 3.56075 -1.85939 0
M  V30 20976 N 1944.86 2.22405 -1.87041 0
M  V30 20977 H 1944.41 1.38261 -2.17351 0
M  V30 20978 H 1944.36 2.86787 -1.28843 0
M  V30 20979 N 1948.14 1.57115 -0.123593 0
M  V30 20980 C 1949.1 2.14386 0.810624 0
M  V30 20981 C 1950.1 1.07985 1.19146 0
M  V30 20982 O 1951.29 1.33739 1.11622 0
M  V30 20983 C 1948.42 2.68785 2.09683 0
M  V30 20984 H 1949.61 2.98264 0.312818 0
M  V30 20985 H 1947.17 1.55794 0.125682 0
M  V30 20986 H 1947.9 1.88509 2.63884 0
M  V30 20987 H 1947.69 3.46607 1.8332 0
M  V30 20988 H 1949.18 3.12989 2.76455 0
M  V30 20989 N 1949.61 -0.150187 1.56883 0
M  V30 20990 C 1950.54 -1.18735 2.01058 0
M  V30 20991 C 1951.52 -1.44983 0.889606 0
M  V30 20992 O 1952.71 -1.55958 1.15719 0
M  V30 20993 C 1949.84 -2.52129 2.38848 0
M  V30 20994 C 1948.79 -2.40408 3.54101 0
M  V30 20995 C 1948.12 -3.78484 3.77695 0
M  V30 20996 C 1949.42 -1.89087 4.86871 0
M  V30 20997 H 1951.11 -0.820044 2.87951 0
M  V30 20998 H 1948.66 -0.393025 1.38533 0
M  V30 20999 H 1950.61 -3.24908 2.68352 0
M  V30 21000 H 1949.34 -2.90688 1.48889 0
M  V30 21001 H 1948 -1.70082 3.24758 0
M  V30 21002 H 1947.64 -4.14474 2.84992 0
M  V30 21003 H 1947.34 -3.71504 4.55256 0
M  V30 21004 H 1948.87 -4.52816 4.09621 0
M  V30 21005 H 1950.28 -2.51656 5.15114 0
M  V30 21006 H 1948.68 -1.93005 5.68216 0
M  V30 21007 H 1949.75 -0.846357 4.77457 0
M  V30 21008 N 1951.09 -1.51916 -0.419434 0
M  V30 21009 C 1952.34 -1.65714 -1.16905 0
M  V30 21010 C 1952.67 -0.380888 -1.90428 0
M  V30 21011 O 1951.95 0.620297 -1.84344 0
M  V30 21012 C 1952.23 -2.87239 -2.17177 0
M  V30 21013 C 1952.08 -4.24887 -1.47619 0
M  V30 21014 C 1953.4 -3.04281 -3.17964 0
M  V30 21015 H 1950.52 -0.603072 -0.423643 0
M  V30 21016 H 1953.16 -1.84446 -0.456035 0
M  V30 21017 H 1951.31 -2.71398 -2.77984 0
M  V30 21018 H 1952.98 -4.52433 -0.900112 0
M  V30 21019 H 1951.23 -4.26761 -0.778273 0
M  V30 21020 H 1951.9 -5.05945 -2.20733 0
M  V30 21021 H 1954.37 -3.18951 -2.67226 0
M  V30 21022 H 1953.25 -3.90843 -3.85399 0
M  V30 21023 H 1953.51 -2.17138 -3.85102 0
M  V30 21024 N 1952.57 0.676023 -1.42365 0
M  V30 21025 C 1953.82 1.43324 -1.42487 0
M  V30 21026 C 1954.14 1.94955 -0.0418589 0
M  V30 21027 O 1953.41 1.72984 0.919418 0
M  V30 21028 H 1951.99 0.531857 -0.524535 0
M  V30 21029 H 1954.65 0.798867 -1.77775 0
M  V30 21030 H 1953.75 2.28686 -2.12389 0
M  V30 21031 N 1954.05 1.28517 0.912209 0
M  V30 21032 C 1955.01 1.12594 1.99637 0
M  V30 21033 C 1956.01 0.0651449 1.60668 0
M  V30 21034 O 1957.2 0.311054 1.714 0
M  V30 21035 C 1954.33 0.719053 3.3323 0
M  V30 21036 H 1955.53 2.08884 2.15192 0
M  V30 21037 H 1953.08 1.11525 1.09508 0
M  V30 21038 H 1953.81 -0.244536 3.23377 0
M  V30 21039 H 1953.6 1.48536 3.62876 0
M  V30 21040 H 1955.09 0.630346 4.12815 0
M  V30 21041 N 1955.53 -1.12086 1.1079 0
M  V30 21042 C 1956.78 -1.83036 0.847387 0
M  V30 21043 C 1957.09 -1.85209 -0.629051 0
M  V30 21044 O 1958.29 -2.52191 -1.00559 0
M  V30 21045 C 1956.75 -3.28682 1.46615 0
M  V30 21046 C 1956.36 -3.34858 2.97614 0
M  V30 21047 C 1958.1 -4.04578 1.28519 0
M  V30 21048 C 1956.01 -4.7486 3.52508 0
M  V30 21049 H 1954.94 -0.685806 0.313347 0
M  V30 21050 H 1957.59 -1.2618 1.33233 0
M  V30 21051 H 1955.97 -3.85429 0.908883 0
M  V30 21052 H 1957.15 -2.8803 3.59688 0
M  V30 21053 H 1955.46 -2.72438 3.14907 0
M  V30 21054 H 1958.06 -5.07962 1.6697 0
M  V30 21055 H 1958.4 -4.1568 0.227105 0
M  V30 21056 H 1958.93 -3.542 1.81073 0
M  V30 21057 H 1955.67 -4.68954 4.57999 0
M  V30 21058 H 1955.19 -5.22125 2.95203 0
M  V30 21059 H 1956.87 -5.43807 3.50546 0
M  V30 21060 N 1957 -0.897194 -1.29569 0
M  V30 21061 C 1958.42 -0.570676 -1.77764 0
M  V30 21062 C 1958.77 0.913595 -1.73631 0
M  V30 21063 O 1957.89 1.71426 -1.32068 0
M  V30 21064 C 1958.49 -1.02914 -3.22791 0
M  V30 21065 C 1957.05 -0.753828 -3.68774 0
M  V30 21066 C 1956.19 -1.20525 -2.49738 0
M  V30 21067 H 1959.14 -1.08018 -1.16266 0
M  V30 21068 H 1959.16 -0.363343 -3.78761 0
M  V30 21069 H 1958.68 -2.10944 -3.25767 0
M  V30 21070 H 1956.78 0.313965 -3.71275 0
M  V30 21071 H 1956.89 -1.34995 -4.59688 0
M  V30 21072 H 1955.25 -0.624304 -2.4693 0
M  V30 21073 H 1956.04 -2.29355 -2.55443 0
M  V30 21074 N 1958.48 1.43142 -0.659413 0
M  V30 21075 C 1959.71 2.06603 -0.181642 0
M  V30 21076 C 1960.13 1.49137 1.14629 0
M  V30 21077 O 1959.49 0.603739 1.70952 0
M  V30 21078 C 1959.54 3.6043 -0.110662 0
M  V30 21079 O 1958.64 4.01884 0.925344 0
M  V30 21080 H 1957.98 0.656771 -0.097712 0
M  V30 21081 H 1960.51 1.83541 -0.904086 0
M  V30 21082 H 1960.52 4.07939 0.0706089 0
M  V30 21083 H 1959.2 4.01632 -1.08002 0
M  V30 21084 H 1957.78 3.65954 0.716361 0
M  V30 21085 N 1959.96 0.40173 1.52394 0
M  V30 21086 C 1961.21 -0.177771 2.00915 0
M  V30 21087 C 1961.52 -1.46854 1.29203 0
M  V30 21088 O 1962.73 -2.12884 1.68501 0
M  V30 21089 C 1961.18 -0.367359 3.5802 0
M  V30 21090 C 1960.79 0.910882 4.38642 0
M  V30 21091 C 1962.54 -0.902552 4.14794 0
M  V30 21092 C 1960.44 0.688888 5.87374 0
M  V30 21093 H 1959.37 -0.0702091 0.750724 0
M  V30 21094 H 1962.02 0.52604 1.75798 0
M  V30 21095 H 1960.41 -1.13332 3.79436 0
M  V30 21096 H 1961.58 1.68242 4.28989 0
M  V30 21097 H 1959.9 1.37194 3.9315 0
M  V30 21098 H 1962.49 -1.08455 5.23585 0
M  V30 21099 H 1962.84 -1.87515 3.71677 0
M  V30 21100 H 1963.37 -0.19584 3.97318 0
M  V30 21101 H 1960.11 1.63284 6.34837 0
M  V30 21102 H 1959.63 -0.0434889 5.99784 0
M  V30 21103 H 1961.31 0.328207 6.46167 0
M  V30 21104 N 1961.44 -1.57047 0.131923 0
M  V30 21105 C 1962.37 -2.11735 -0.851089 0
M  V30 21106 C 1963.35 -1.03702 -1.25239 0
M  V30 21107 O 1964.53 -1.31438 -1.35116 0
M  V30 21108 C 1961.66 -2.62468 -2.14075 0
M  V30 21109 C 1960.71 -3.82508 -1.88653 0
M  V30 21110 S 1961.54 -5.24266 -1.09112 0
M  V30 21111 C 1962.7 -5.78377 -2.3923 0
M  V30 21112 H 1962.93 -2.94784 -0.385975 0
M  V30 21113 H 1960.46 -1.54182 -0.0820933 0
M  V30 21114 H 1962.42 -2.92351 -2.88169 0
M  V30 21115 H 1961.08 -1.79578 -2.57703 0
M  V30 21116 H 1960.27 -4.16198 -2.84245 0
M  V30 21117 H 1959.88 -3.53308 -1.22675 0
M  V30 21118 H 1962.17 -5.8889 -3.34985 0
M  V30 21119 H 1963.11 -6.76223 -2.10066 0
M  V30 21120 H 1963.52 -5.06523 -2.49189 0
M  V30 21121 N 1962.92 0.141865 -1.5696 0
M  V30 21122 C 1963.86 1.19416 -1.99606 0
M  V30 21123 C 1964.86 1.44182 -0.889268 0
M  V30 21124 O 1966.06 1.44414 -1.07446 0
M  V30 21125 H 1962.44 0.402085 -0.635477 0
M  V30 21126 H 1964.41 0.80782 -2.87257 0
M  V30 21127 C 1963.16 2.51868 -2.39704 0
M  V30 21128 H 1962.48 2.33642 -3.24425 0
M  V30 21129 H 1963.92 3.24113 -2.73362 0
M  V30 21130 C 1962.38 3.12785 -1.25169 0
M  V30 21131 O 1962.91 3.97845 -0.555208 0
M  V30 21132 N 1961.12 2.72312 -1.01461 0
M  V30 21133 H 1960.66 2.0324 -1.58276 0
M  V30 21134 H 1960.62 3.13403 -0.250181 0
M  V30 21135 N 1964.39 1.52136 0.411372 0
M  V30 21136 C 1965.64 1.66331 1.16025 0
M  V30 21137 C 1965.97 0.390981 1.90223 0
M  V30 21138 O 1965.25 -0.610512 1.8467 0
M  V30 21139 C 1965.53 2.88386 2.15651 0
M  V30 21140 C 1965.38 4.25664 1.45364 0
M  V30 21141 C 1966.7 3.05963 3.16346 0
M  V30 21142 H 1963.82 0.60531 0.420439 0
M  V30 21143 H 1966.46 1.84685 0.446247 0
M  V30 21144 H 1964.61 2.72869 2.76541 0
M  V30 21145 H 1966.29 4.52904 0.876105 0
M  V30 21146 H 1964.53 4.27168 0.75563 0
M  V30 21147 H 1965.2 5.07109 2.18047 0
M  V30 21148 H 1967.68 3.20363 2.65531 0
M  V30 21149 H 1966.55 3.92882 3.83321 0
M  V30 21150 H 1966.81 2.19177 3.83945 0
M  V30 21151 N 1965.87 -0.668464 1.42721 0
M  V30 21152 C 1966.8 -1.79375 1.49489 0
M  V30 21153 C 1967.78 -1.66442 0.350881 0
M  V30 21154 O 1968.97 -1.85767 0.566049 0
M  V30 21155 C 1966.1 -3.17712 1.40273 0
M  V30 21156 C 1965.05 -3.45389 2.52766 0
M  V30 21157 C 1964.38 -4.83367 2.28606 0
M  V30 21158 C 1965.68 -3.4165 3.95061 0
M  V30 21159 H 1967.37 -1.73968 2.43671 0
M  V30 21160 H 1964.92 -0.835548 1.1728 0
M  V30 21161 H 1966.87 -3.96173 1.43614 0
M  V30 21162 H 1965.6 -3.23811 0.425882 0
M  V30 21163 H 1964.26 -2.69292 2.48752 0
M  V30 21164 H 1963.9 -4.86124 1.292 0
M  V30 21165 H 1963.6 -5.02847 3.04005 0
M  V30 21166 H 1965.13 -5.64104 2.33707 0
M  V30 21167 H 1966.54 -4.1007 4.00644 0
M  V30 21168 H 1964.94 -3.72666 4.70362 0
M  V30 21169 H 1966.01 -2.40106 4.2128 0
M  V30 21170 N 1967.35 -1.28999 -0.905381 0
M  V30 21171 C 1968.28 -1.16189 -2.0254 0
M  V30 21172 C 1969.26 -0.0575293 -1.70003 0
M  V30 21173 O 1970.45 -0.236004 -1.92761 0
M  V30 21174 C 1967.58 -0.831704 -3.37194 0
M  V30 21175 C 1966.53 -1.89176 -3.83922 0
M  V30 21176 C 1965.86 -1.41501 -5.15637 0
M  V30 21177 C 1967.16 -3.29971 -4.04866 0
M  V30 21178 H 1968.85 -2.09886 -2.13514 0
M  V30 21179 H 1966.4 -1.0105 -1.02591 0
M  V30 21180 H 1968.35 -0.728825 -4.1505 0
M  V30 21181 H 1967.07 0.140958 -3.26296 0
M  V30 21182 H 1965.73 -1.98393 -3.08279 0
M  V30 21183 H 1965.38 -0.431182 -5.01149 0
M  V30 21184 H 1965.08 -2.12391 -5.47872 0
M  V30 21185 H 1966.61 -1.32552 -5.96039 0
M  V30 21186 H 1968.02 -3.23628 -4.73221 0
M  V30 21187 H 1966.42 -3.98768 -4.48447 0
M  V30 21188 H 1967.49 -3.73369 -3.09393 0
M  V30 21189 N 1968.83 1.11497 -1.11383 0
M  V30 21190 C 1970.08 1.83494 -0.863592 0
M  V30 21191 C 1970.41 1.84395 0.609259 0
M  V30 21192 O 1969.68 1.2966 1.44978 0
M  V30 21193 C 1969.97 3.30701 -1.42509 0
M  V30 21194 C 1969.82 3.38197 -2.96552 0
M  V30 21195 C 1971.14 4.26756 -1.07553 0
M  V30 21196 H 1968.26 0.666209 -0.315173 0
M  V30 21197 H 1970.9 1.30745 -1.37861 0
M  V30 21198 H 1969.05 3.75752 -0.987053 0
M  V30 21199 H 1970.72 3.01709 -3.48955 0
M  V30 21200 H 1968.96 2.78436 -3.3265 0
M  V30 21201 H 1969.64 4.41804 -3.30927 0
M  V30 21202 H 1972.11 3.89882 -1.45367 0
M  V30 21203 H 1970.99 5.28143 -1.49519 0
M  V30 21204 H 1971.25 4.42098 0.0137773 0
M  V30 21205 N 1970.31 0.904053 1.29092 0
M  V30 21206 C 1971.55 0.539168 1.97161 0
M  V30 21207 C 1971.91 -0.898617 1.69673 0
M  V30 21208 O 1973.11 -1.37059 2.31232 0
M  V30 21209 C 1971.38 0.828496 3.47665 0
M  V30 21210 S 1972.94 0.568573 4.35101 0
M  V30 21211 H 1969.76 0.199862 0.682331 0
M  V30 21212 H 1972.36 1.16742 1.56817 0
M  V30 21213 H 1971.07 1.87305 3.65164 0
M  V30 21214 H 1970.6 0.188524 3.92948 0
M  V30 21215 H 1972.61 -0.584454 4.92746 0
M  V30 21216 N 1971.79 -1.4279 0.666995 0
M  V30 21217 C 1972.72 -2.335 -0.00234362 0
M  V30 21218 C 1973.7 -1.50244 -0.797537 0
M  V30 21219 O 1974.88 -1.7887 -0.756257 0
M  V30 21220 C 1972.01 -3.33774 -0.959795 0
M  V30 21221 C 1970.97 -4.27124 -0.273749 0
M  V30 21222 C 1970.29 -5.17544 -1.3436 0
M  V30 21223 C 1971.59 -5.15462 0.842411 0
M  V30 21224 H 1973.29 -2.89719 0.755212 0
M  V30 21225 H 1970.83 -1.39307 0.364622 0
M  V30 21226 H 1972.78 -3.96139 -1.43707 0
M  V30 21227 H 1971.51 -2.75842 -1.74868 0
M  V30 21228 H 1970.17 -3.66142 0.18321 0
M  V30 21229 H 1969.82 -4.55943 -2.12427 0
M  V30 21230 H 1969.52 -5.80825 -0.889738 0
M  V30 21231 H 1971.04 -5.82784 -1.82196 0
M  V30 21232 H 1972.45 -5.71557 0.4467 0
M  V30 21233 H 1970.85 -5.87535 1.22158 0
M  V30 21234 H 1971.92 -4.54327 1.69454 0
M  V30 21235 N 1973.26 -0.409806 -1.52179 0
M  V30 21236 C 1974.51 0.167113 -2.01007 0
M  V30 21237 C 1974.83 1.46166 -1.2998 0
M  V30 21238 O 1976.03 2.11988 -1.69628 0
M  V30 21239 C 1974.49 0.348367 -3.5821 0
M  V30 21240 C 1974.1 -0.934131 -4.38153 0
M  V30 21241 C 1975.84 0.880542 -4.15267 0
M  V30 21242 C 1973.75 -0.720028 -5.87 0
M  V30 21243 H 1972.68 0.0662269 -0.751086 0
M  V30 21244 H 1975.33 -0.535355 -1.75517 0
M  V30 21245 H 1973.71 1.11318 -3.80032 0
M  V30 21246 H 1974.88 -1.70515 -4.2809 0
M  V30 21247 H 1973.2 -1.39277 -3.92417 0
M  V30 21248 H 1975.8 1.05677 -5.24153 0
M  V30 21249 H 1976.14 1.85542 -3.72666 0
M  V30 21250 H 1976.67 0.174766 -3.97416 0
M  V30 21251 H 1973.41 -1.66649 -6.33963 0
M  V30 21252 H 1972.93 0.0116803 -5.99799 0
M  V30 21253 H 1974.61 -0.362471 -6.45984 0
M  V30 21254 N 1974.74 1.56975 -0.14025 0
M  V30 21255 C 1975.99 1.95906 0.512543 0
M  V30 21256 C 1976.32 1.02475 1.65315 0
M  V30 21257 O 1975.57 0.0526473 1.95629 0
M  V30 21258 C 1975.87 3.4113 1.06606 0
M  V30 21259 C 1975.54 4.50878 0.044598 0
M  V30 21260 C 1974.2 4.8062 -0.236217 0
M  V30 21261 C 1976.55 5.17126 -0.650368 0
M  V30 21262 C 1973.88 5.73919 -1.21792 0
M  V30 21263 C 1976.23 6.11483 -1.62084 0
M  V30 21264 C 1974.89 6.39607 -1.90943 0
M  V30 21265 H 1974.16 0.716872 0.187553 0
M  V30 21266 H 1976.81 1.90166 -0.225653 0
M  V30 21267 H 1975.12 3.43669 1.88145 0
M  V30 21268 H 1976.81 3.68577 1.57961 0
M  V30 21269 H 1973.4 4.27726 0.273651 0
M  V30 21270 H 1977.59 4.94286 -0.446606 0
M  V30 21271 H 1972.84 5.94005 -1.44802 0
M  V30 21272 H 1977.02 6.61895 -2.1649 0
M  V30 21273 H 1974.64 7.11707 -2.67165 0
M  V30 21274 N 1976.22 -0.133539 1.57033 0
M  V30 21275 C 1977.47 -0.840207 1.85235 0
M  V30 21276 C 1977.82 -1.78174 0.726072 0
M  V30 21277 O 1977.11 -1.89616 -0.275024 0
M  V30 21278 C 1977.31 -1.64036 3.17533 0
M  V30 21279 C 1977.14 -0.777803 4.42922 0
M  V30 21280 C 1975.91 -0.438225 5.03396 0
M  V30 21281 C 1978.1 -0.102003 5.14199 0
M  V30 21282 N 1976.09 0.436515 6.12346 0
M  V30 21283 C 1977.46 0.632323 6.16767 0
M  V30 21284 C 1979.51 -0.0240719 4.97894 0
M  V30 21285 C 1978.22 1.43724 7.04795 0
M  V30 21286 C 1980.24 0.767626 5.86397 0
M  V30 21287 C 1979.6 1.49019 6.88457 0
M  V30 21288 H 1975.7 -0.284849 0.728275 0
M  V30 21289 H 1978.29 -0.104766 1.94418 0
M  V30 21290 H 1976.46 -2.34694 3.09473 0
M  V30 21291 H 1978.19 -2.29123 3.33594 0
M  V30 21292 H 1974.94 -0.777127 4.67181 0
M  V30 21293 H 1975.37 0.865306 6.71447 0
M  V30 21294 H 1980.01 -0.568355 4.18962 0
M  V30 21295 H 1977.73 1.99274 7.83145 0
M  V30 21296 H 1981.31 0.830093 5.75848 0
M  V30 21297 H 1980.19 2.09296 7.55755 0
M  V30 21298 N 1977.7 -1.52352 -0.403298 0
M  V30 21299 C 1978.63 -1.79074 -1.49849 0
M  V30 21300 C 1979.61 -0.642006 -1.57519 0
M  V30 21301 O 1980.79 -0.888182 -1.72699 0
M  V30 21302 C 1977.92 -1.9467 -2.87612 0
M  V30 21303 C 1976.88 -3.10295 -2.9479 0
M  V30 21304 C 1976.2 -3.11122 -4.34864 0
M  V30 21305 C 1977.5 -4.49643 -2.65741 0
M  V30 21306 H 1979.2 -2.70783 -1.27737 0
M  V30 21307 H 1976.74 -1.30298 -0.613064 0
M  V30 21308 H 1978.7 -2.11947 -3.64221 0
M  V30 21309 H 1977.42 -0.996377 -3.1103 0
M  V30 21310 H 1976.08 -2.92778 -2.20627 0
M  V30 21311 H 1975.73 -2.13801 -4.553 0
M  V30 21312 H 1975.43 -3.88786 -4.4059 0
M  V30 21313 H 1976.95 -3.30536 -5.13399 0
M  V30 21314 H 1978.37 -4.67335 -3.3207 0
M  V30 21315 H 1976.76 -5.29268 -2.82835 0
M  V30 21316 H 1977.83 -4.57339 -1.61149 0
M  V30 21317 N 1979.18 0.660885 -1.43074 0
M  V30 21318 C 1980.42 1.41668 -1.43572 0
M  V30 21319 C 1980.74 1.95506 -0.0607715 0
M  V30 21320 O 1981.94 2.71441 0.0568092 0
M  V30 21321 C 1980.4 2.56345 -2.52617 0
M  V30 21322 C 1980.01 2.09147 -3.96183 0
M  V30 21323 C 1981.75 3.33765 -2.623 0
M  V30 21324 C 1979.66 3.20989 -4.96709 0
M  V30 21325 H 1978.59 0.532264 -0.534051 0
M  V30 21326 H 1981.24 0.714113 -1.69035 0
M  V30 21327 H 1979.62 3.29036 -2.20343 0
M  V30 21328 H 1980.8 1.43518 -4.3788 0
M  V30 21329 H 1979.11 1.44628 -3.90476 0
M  V30 21330 H 1981.71 4.17085 -3.34581 0
M  V30 21331 H 1982.05 3.81285 -1.67114 0
M  V30 21332 H 1982.58 2.6815 -2.93837 0
M  V30 21333 H 1979.32 2.78445 -5.93421 0
M  V30 21334 H 1978.84 3.85356 -4.59631 0
M  V30 21335 H 1980.52 3.86241 -5.19063 0
M  V30 21336 N 1980.65 1.29477 0.898527 0
M  V30 21337 C 1981.9 1.17516 1.64913 0
M  V30 21338 C 1982.23 -0.273086 1.92573 0
M  V30 21339 O 1981.48 -1.21353 1.53531 0
M  V30 21340 C 1981.78 1.93505 3.00484 0
M  V30 21341 C 1981.45 3.43216 2.92427 0
M  V30 21342 C 1980.11 3.84044 2.89937 0
M  V30 21343 C 1982.46 4.38611 2.81548 0
M  V30 21344 C 1979.79 5.18582 2.74389 0
M  V30 21345 C 1982.14 5.73241 2.67539 0
M  V30 21346 C 1980.81 6.13326 2.63416 0
M  V30 21347 H 1980.08 0.430023 0.603458 0
M  V30 21348 H 1982.72 1.60427 1.04572 0
M  V30 21349 H 1981.03 1.43189 3.64698 0
M  V30 21350 H 1982.73 1.81654 3.57495 0
M  V30 21351 H 1979.32 3.10763 2.95168 0
M  V30 21352 H 1983.5 4.0802 2.82548 0
M  V30 21353 H 1978.76 5.48748 2.69602 0
M  V30 21354 H 1982.93 6.46808 2.58093 0
M  V30 21355 H 1980.56 7.17523 2.51126 0
M  V30 21356 N 1982.13 -1.10905 1.11972 0
M  V30 21357 C 1983.36 -1.87095 0.894991 0
M  V30 21358 C 1983.78 -1.79875 -0.550144 0
M  V30 21359 O 1983.14 -1.16517 -1.38901 0
M  V30 21360 C 1983.19 -3.33634 1.36825 0
M  V30 21361 O 1982.29 -4.08802 0.543553 0
M  V30 21362 H 1981.63 -0.580734 0.321938 0
M  V30 21363 H 1984.16 -1.40152 1.49059 0
M  V30 21364 H 1984.17 -3.84482 1.36519 0
M  V30 21365 H 1982.85 -3.38205 2.42054 0
M  V30 21366 H 1981.43 -3.67824 0.613185 0
M  V30 21367 N 1983.61 -0.910886 -1.2861 0
M  V30 21368 C 1984.86 -0.53847 -1.94379 0
M  V30 21369 C 1985.17 0.92185 -1.72515 0
M  V30 21370 O 1986.38 1.40229 -2.32482 0
M  V30 21371 C 1984.83 -0.91216 -3.48149 0
M  V30 21372 C 1984.44 -2.39201 -3.78796 0
M  V30 21373 C 1986.19 -0.610192 -4.20092 0
M  V30 21374 C 1984.09 -2.70598 -5.25862 0
M  V30 21375 H 1983.02 -0.197657 -0.727632 0
M  V30 21376 H 1985.67 -1.10941 -1.46165 0
M  V30 21377 H 1984.06 -0.270034 -3.95078 0
M  V30 21378 H 1985.23 -3.08063 -3.42686 0
M  V30 21379 H 1983.55 -2.66414 -3.20019 0
M  V30 21380 H 1986.14 -0.821472 -5.28352 0
M  V30 21381 H 1986.49 0.451862 -4.1384 0
M  V30 21382 H 1987.02 -1.21066 -3.7893 0
M  V30 21383 H 1983.76 -3.75645 -5.37188 0
M  V30 21384 H 1983.28 -2.0637 -5.6318 0
M  V30 21385 H 1984.96 -2.57451 -5.93572 0
M  V30 21386 N 1985.09 1.42434 -0.674558 0
M  V30 21387 C 1986.02 2.28136 0.0540793 0
M  V30 21388 C 1987 1.41051 0.808915 0
M  V30 21389 O 1988.18 1.70489 0.80409 0
M  V30 21390 C 1985.31 3.20893 1.08375 0
M  V30 21391 C 1984.36 4.24382 0.424518 0
M  V30 21392 S 1985.19 5.2922 -0.817708 0
M  V30 21393 C 1986.35 6.25545 0.210891 0
M  V30 21394 H 1986.58 2.89586 -0.672854 0
M  V30 21395 H 1984.11 1.4726 -0.464094 0
M  V30 21396 H 1986.07 3.74873 1.67273 0
M  V30 21397 H 1984.73 2.5858 1.78312 0
M  V30 21398 H 1983.92 4.8947 1.20145 0
M  V30 21399 H 1983.53 3.7389 -0.0908715 0
M  V30 21400 H 1985.82 6.68986 1.07069 0
M  V30 21401 H 1986.76 7.06938 -0.405516 0
M  V30 21402 H 1987.17 5.61753 0.55626 0
M  V30 21403 N 1986.57 0.417871 1.51959 0
M  V30 21404 C 1987.81 -0.154746 2.01507 0
M  V30 21405 C 1988.14 -1.44898 1.30497 0
M  V30 21406 O 1987.41 -1.91043 0.433536 0
M  V30 21407 H 1985.99 -0.0601759 0.744572 0
M  V30 21408 H 1988.65 0.556118 1.86798 0
M  V30 21409 H 1987.74 -0.344616 3.10192 0
M  V30 21410 N 1988.04 -1.56898 0.148573 0
M  V30 21411 C 1989.29 -1.96466 -0.50289 0
M  V30 21412 C 1989.62 -1.03355 -1.64412 0
M  V30 21413 O 1988.9 -0.0762411 -1.94351 0
M  V30 21414 C 1989.18 -3.45717 -1.00757 0
M  V30 21415 C 1989.03 -4.49605 0.132277 0
M  V30 21416 C 1990.35 -3.97506 -1.88883 0
M  V30 21417 H 1987.47 -0.714345 -0.181328 0
M  V30 21418 H 1990.11 -1.88601 0.230117 0
M  V30 21419 H 1988.26 -3.5255 -1.6322 0
M  V30 21420 H 1989.94 -4.54851 0.76867 0
M  V30 21421 H 1988.18 -4.26524 0.791189 0
M  V30 21422 H 1988.85 -5.51375 -0.262585 0
M  V30 21423 H 1991.33 -3.93162 -1.36246 0
M  V30 21424 H 1990.2 -5.02399 -2.21104 0
M  V30 21425 H 1990.46 -3.39956 -2.82635 0
M  V30 21426 N 1989.52 0.125209 -1.57102 0
M  V30 21427 C 1990.47 1.17292 -2.00861 0
M  V30 21428 C 1991.46 1.4323 -0.904511 0
M  V30 21429 O 1992.67 1.43266 -1.08972 0
M  V30 21430 H 1989.05 0.395322 -0.639706 0
M  V30 21431 H 1991.02 0.777307 -2.88098 0
M  V30 21432 C 1989.77 2.49311 -2.42362 0
M  V30 21433 H 1989.09 2.30188 -3.26884 0
M  V30 21434 H 1990.53 3.21196 -2.76784 0
M  V30 21435 C 1988.99 3.1144 -1.2848 0
M  V30 21436 O 1989.52 3.97233 -0.597373 0
M  V30 21437 N 1987.72 2.71221 -1.04344 0
M  V30 21438 H 1987.27 2.0155 -1.60423 0
M  V30 21439 H 1987.23 3.1312 -0.283408 0
M  V30 21440 N 1991 1.52564 0.395213 0
M  V30 21441 C 1991.93 1.79867 1.48897 0
M  V30 21442 C 1992.91 0.650351 1.57176 0
M  V30 21443 O 1994.1 0.897328 1.72226 0
M  V30 21444 C 1991.23 1.96192 2.86576 0
M  V30 21445 C 1990.18 3.11854 2.9314 0
M  V30 21446 C 1989.51 3.13424 4.33208 0
M  V30 21447 C 1990.81 4.51046 2.63353 0
M  V30 21448 H 1992.5 2.71457 1.26299 0
M  V30 21449 H 1990.05 1.30621 0.606145 0
M  V30 21450 H 1992 2.13875 3.63091 0
M  V30 21451 H 1990.72 1.01286 3.10498 0
M  V30 21452 H 1989.38 2.93944 2.19072 0
M  V30 21453 H 1989.03 2.16212 4.5416 0
M  V30 21454 H 1988.73 3.91117 4.38522 0
M  V30 21455 H 1990.25 3.33254 5.11639 0
M  V30 21456 H 1991.67 4.6909 3.29587 0
M  V30 21457 H 1990.07 5.3076 2.80024 0
M  V30 21458 H 1991.14 4.58187 1.58722 0
M  V30 21459 N 1992.48 -0.653289 1.43422 0
M  V30 21460 C 1993.73 -1.41319 1.45036 0
M  V30 21461 C 1994.05 -1.94357 0.074626 0
M  V30 21462 O 1993.31 -1.72707 -0.920363 0
M  V30 21463 C 1993.61 -2.6117 2.43978 0
M  V30 21464 C 1993.27 -2.2655 3.89854 0
M  V30 21465 C 1991.94 -2.16821 4.29584 0
M  V30 21466 C 1994.29 -1.98838 4.81781 0
M  V30 21467 C 1991.62 -1.77535 5.59194 0
M  V30 21468 C 1993.97 -1.61051 6.11756 0
M  V30 21469 C 1992.63 -1.49847 6.50463 0
M  V30 21470 H 1991.9 -0.517121 0.530723 0
M  V30 21471 H 1994.55 -0.742946 1.76501 0
M  V30 21472 H 1992.85 -3.33326 2.05916 0
M  V30 21473 H 1994.55 -3.19381 2.42481 0
M  V30 21474 H 1991.14 -2.35033 3.58409 0
M  V30 21475 H 1995.32 -2.05276 4.51858 0
M  V30 21476 H 1990.58 -1.67447 5.88023 0
M  V30 21477 H 1994.75 -1.38639 6.8246 0
M  V30 21478 H 1992.38 -1.19176 7.508 0
M  V30 21479 N 1993.96 -1.29952 -0.891648 0
M  V30 21480 C 1994.92 -1.15756 -1.97821 0
M  V30 21481 C 1995.92 -0.0906975 -1.60544 0
M  V30 21482 O 1997.11 -0.338283 -1.70884 0
M  V30 21483 C 1994.24 -0.771976 -3.32044 0
M  V30 21484 H 1995.43 -2.12281 -2.11842 0
M  V30 21485 H 1992.99 -1.13253 -1.07719 0
M  V30 21486 H 1993.72 0.193059 -3.23725 0
M  V30 21487 H 1993.51 -1.54291 -3.60467 0
M  V30 21488 H 1995 -0.695941 -4.1176 0
M  V30 21489 N 1995.44 1.1031 -1.12559 0
M  V30 21490 C 1996.68 1.81937 -0.879957 0
M  V30 21491 C 1997 1.85675 0.595811 0
M  V30 21492 O 1996.27 1.33574 1.433 0
M  V30 21493 H 1994.85 0.67377 -0.322556 0
M  V30 21494 H 1997.52 1.33464 -1.42033 0
M  V30 21495 H 1996.61 2.8542 -1.26261 0
M  V30 21496 N 1996.91 0.917694 1.28125 0
M  V30 21497 C 1997.86 0.407628 2.27172 0
M  V30 21498 C 1998.83 -0.520056 1.57749 0
M  V30 21499 O 2000.02 -0.441394 1.85624 0
M  V30 21500 C 1997.16 -0.342648 3.43395 0
M  V30 21501 C 1996.27 0.617993 4.27557 0
M  V30 21502 C 1995.4 -0.151124 5.30985 0
M  V30 21503 C 1994.44 0.802876 6.06812 0
M  V30 21504 N 1993.58 0.0670251 7.02068 0
M  V30 21505 H 1998.42 1.25728 2.70179 0
M  V30 21506 H 1995.96 0.631273 1.32866 0
M  V30 21507 H 1997.91 -0.793873 4.09577 0
M  V30 21508 H 1996.54 -1.15661 3.01367 0
M  V30 21509 H 1995.6 1.18775 3.61382 0
M  V30 21510 H 1996.91 1.3475 4.80254 0
M  V30 21511 H 1996.06 -0.662729 6.03069 0
M  V30 21512 H 1994.8 -0.913657 4.79065 0
M  V30 21513 H 1993.81 1.32582 5.33575 0
M  V30 21514 H 1995.03 1.56503 6.6082 0
M  V30 21515 H 1992.98 -0.677445 6.52493 0
M  V30 21516 H 1992.89 0.736283 7.52406 0
M  V30 21517 H 1994.16 -0.424255 7.78345 0
M  V30 21518 N 1998.39 -1.42074 0.682102 0
M  V30 21519 C 1999.62 -2.05471 0.215716 0
M  V30 21520 C 2000.03 -1.51372 -1.13504 0
M  V30 21521 O 1999.37 -0.651251 -1.71768 0
M  V30 21522 C 1999.43 -3.59408 0.0812503 0
M  V30 21523 C 1999.1 -4.36236 1.36189 0
M  V30 21524 C 2000.1 -4.6641 2.29691 0
M  V30 21525 C 1997.78 -4.75747 1.61152 0
M  V30 21526 C 1999.77 -5.35039 3.46428 0
M  V30 21527 C 1997.46 -5.44115 2.78176 0
M  V30 21528 C 1998.46 -5.73687 3.70638 0
M  V30 21529 O 1998.15 -6.40651 4.85615 0
M  V30 21530 H 1997.88 -0.668449 0.100755 0
M  V30 21531 H 2000.43 -1.83072 0.931332 0
M  V30 21532 H 1998.66 -3.80494 -0.690014 0
M  V30 21533 H 2000.35 -4.04421 -0.346206 0
M  V30 21534 H 2001.12 -4.36378 2.11658 0
M  V30 21535 H 1997 -4.52119 0.900512 0
M  V30 21536 H 2000.54 -5.58037 4.18617 0
M  V30 21537 H 1996.44 -5.73565 2.96132 0
M  V30 21538 H 1997.21 -6.59144 4.85254 0
M  V30 21539 N 1999.87 -0.425924 -1.51735 0
M  V30 21540 C 2000.82 0.408952 -2.24302 0
M  V30 21541 C 2001.8 0.999596 -1.26083 0
M  V30 21542 O 2003 0.919629 -1.51234 0
M  V30 21543 C 2000.12 1.51589 -3.08019 0
M  V30 21544 C 1999.21 0.935197 -4.1366 0
M  V30 21545 N 1999.6 0.0826482 -5.05732 0
M  V30 21546 C 1997.9 1.20398 -4.29442 0
M  V30 21547 C 1998.6 -0.242261 -5.81195 0
M  V30 21548 N 1997.58 0.371212 -5.42331 0
M  V30 21549 H 2001.38 -0.248516 -2.92847 0
M  V30 21550 H 1998.89 -0.237322 -1.60657 0
M  V30 21551 H 2000.89 2.12675 -3.58574 0
M  V30 21552 H 1999.55 2.17581 -2.41016 0
M  V30 21553 H 2000.56 -0.282939 -5.17127 0
M  V30 21554 H 1997.24 1.86224 -3.73667 0
M  V30 21555 H 1998.63 -0.935323 -6.65358 0
M  V30 21556 N 2001.35 1.56817 -0.156891 0
M  V30 21557 C 2002.58 2.00516 0.497682 0
M  V30 21558 C 2002.99 1.03609 1.58309 0
M  V30 21559 O 2002.33 0.0266573 1.83681 0
M  V30 21560 C 2002.39 3.40648 1.14888 0
M  V30 21561 C 2002.05 4.56531 0.206879 0
M  V30 21562 C 2003.05 5.16774 -0.569267 0
M  V30 21563 C 2000.74 5.02186 0.106904 0
M  V30 21564 C 2002.73 6.21089 -1.43274 0
M  V30 21565 C 2000.42 6.06354 -0.760162 0
M  V30 21566 C 2001.42 6.65675 -1.52858 0
M  V30 21567 O 2001.1 7.67825 -2.38118 0
M  V30 21568 H 2000.84 0.662754 0.133164 0
M  V30 21569 H 2003.39 2.03855 -0.251425 0
M  V30 21570 H 2001.62 3.34177 1.94583 0
M  V30 21571 H 2003.31 3.68391 1.70419 0
M  V30 21572 H 2004.07 4.82394 -0.502119 0
M  V30 21573 H 1999.95 4.55735 0.694764 0
M  V30 21574 H 2003.5 6.6732 -2.03298 0
M  V30 21575 H 1999.39 6.4016 -0.828566 0
M  V30 21576 H 2000.16 7.85087 -2.31475 0
M  V30 21577 N 2002.83 -0.116876 1.57166 0
M  V30 21578 C 2004.07 -0.830154 1.86783 0
M  V30 21579 C 2004.43 -1.76951 0.74515 0
M  V30 21580 O 2005.63 -2.52451 0.923144 0
M  V30 21581 C 2003.9 -1.55852 3.21629 0
M  V30 21582 S 2005.46 -2.31308 3.72884 0
M  V30 21583 H 2002.28 -0.277026 0.654811 0
M  V30 21584 H 2004.88 -0.0883909 1.953 0
M  V30 21585 H 2003.58 -0.860448 4.01279 0
M  V30 21586 H 2003.12 -2.34061 3.16194 0
M  V30 21587 H 2005.13 -3.57066 3.44555 0
M  V30 21588 N 2004.3 -1.52772 -0.387116 0
M  V30 21589 C 2005.55 -1.67907 -1.13196 0
M  V30 21590 C 2005.88 -0.419946 -1.89912 0
M  V30 21591 O 2005.13 0.5977 -1.86349 0
M  V30 21592 C 2005.43 -2.86632 -2.13487 0
M  V30 21593 C 2005.1 -4.23999 -1.53414 0
M  V30 21594 C 2003.76 -4.61358 -1.36757 0
M  V30 21595 C 2006.11 -5.09513 -1.09756 0
M  V30 21596 C 2003.44 -5.81887 -0.749927 0
M  V30 21597 C 2005.79 -6.30668 -0.494012 0
M  V30 21598 C 2004.46 -6.66757 -0.314755 0
M  V30 21599 H 2003.73 -0.614416 -0.414214 0
M  V30 21600 H 2006.37 -1.86919 -0.416362 0
M  V30 21601 H 2004.68 -2.62045 -2.91273 0
M  V30 21602 H 2006.38 -2.95538 -2.71032 0
M  V30 21603 H 2002.97 -3.94571 -1.67367 0
M  V30 21604 H 2007.15 -4.81217 -1.21426 0
M  V30 21605 H 2002.41 -6.08456 -0.599259 0
M  V30 21606 H 2006.58 -6.96244 -0.14743 0
M  V30 21607 H 2004.21 -7.60019 0.165924 0
M  V30 21608 N 2005.78 0.645673 -1.43767 0
M  V30 21609 C 2006.73 1.7795 -1.49788 0
M  V30 21610 C 2007.72 1.65292 -0.370806 0
M  V30 21611 O 2008.93 1.71547 -0.545129 0
M  V30 21612 H 2005.3 0.587242 -0.469735 0
M  V30 21613 H 2007.28 1.69992 -2.45245 0
M  V30 21614 C 2006.02 3.16238 -1.44529 0
M  V30 21615 H 2005.35 3.2662 -2.30564 0
M  V30 21616 H 2006.79 3.95509 -1.52803 0
M  V30 21617 C 2005.25 3.36501 -0.163941 0
M  V30 21618 O 2005.78 3.94217 0.771735 0
M  V30 21619 N 2003.98 2.90511 -0.0717151 0
M  V30 21620 H 2003.53 2.43727 -0.833957 0
M  V30 21621 H 2003.49 3.04445 0.784901 0
M  V30 21622 N 2007.26 1.30423 0.884744 0
M  V30 21623 C 2008.17 1.18747 2.02327 0
M  V30 21624 C 2009.19 0.107354 1.73669 0
M  V30 21625 O 2010.36 0.322332 1.98804 0
M  V30 21626 C 2007.43 0.880361 3.35336 0
M  V30 21627 C 2006.49 2.04587 3.77416 0
M  V30 21628 C 2005.72 1.75332 5.04078 0
M  V30 21629 O 2005.94 0.68135 5.66316 0
M  V30 21630 O 2004.88 2.60579 5.4257 0
M  V30 21631 H 2008.7 2.14391 2.15105 0
M  V30 21632 H 2006.29 1.10019 1.01076 0
M  V30 21633 H 2008.17 0.7243 4.15129 0
M  V30 21634 H 2006.85 -0.0461673 3.23667 0
M  V30 21635 H 2005.75 2.25726 2.98326 0
M  V30 21636 H 2007.09 2.95413 3.9369 0
M  V30 21637 N 2008.74 -1.09711 1.13142 0
M  V30 21638 C 2009.97 -1.85595 0.914436 0
M  V30 21639 C 2010.38 -1.81013 -0.536632 0
M  V30 21640 O 2009.74 -1.20419 -1.37134 0
M  V30 21641 C 2009.79 -3.33692 1.39039 0
M  V30 21642 O 2009.51 -3.38219 2.78459 0
M  V30 21643 C 2011.01 -4.26427 1.21142 0
M  V30 21644 H 2008.23 -0.586333 0.326274 0
M  V30 21645 H 2010.77 -1.38646 1.50325 0
M  V30 21646 H 2008.93 -3.7808 0.844641 0
M  V30 21647 H 2009.34 -4.30567 2.9952 0
M  V30 21648 H 2010.82 -5.28508 1.59323 0
M  V30 21649 H 2011.29 -4.38934 0.152782 0
M  V30 21650 H 2011.9 -3.87851 1.74505 0
M  V30 21651 N 2010.22 -0.924476 -1.27637 0
M  V30 21652 C 2011.44 -0.57884 -1.99159 0
M  V30 21653 C 2011.87 0.83532 -1.68535 0
M  V30 21654 O 2011.22 1.55999 -0.92379 0
M  V30 21655 C 2011.27 -0.807508 -3.51442 0
M  V30 21656 O 2010.38 0.128443 -4.122 0
M  V30 21657 H 2009.72 -0.223218 -0.625356 0
M  V30 21658 H 2012.25 -1.24285 -1.62525 0
M  V30 21659 H 2012.26 -0.721808 -4.01564 0
M  V30 21660 H 2010.93 -1.83836 -3.73064 0
M  V30 21661 H 2009.51 -0.00689785 -3.72899 0
M  V30 21662 N 2011.69 1.41711 -0.689627 0
M  V30 21663 C 2012.6 2.34591 -0.0208935 0
M  V30 21664 C 2013.62 1.55906 0.772616 0
M  V30 21665 O 2014.8 1.88412 0.711542 0
M  V30 21666 C 2011.86 3.34589 0.908354 0
M  V30 21667 C 2010.92 4.29165 0.107717 0
M  V30 21668 C 2010.16 5.24386 0.992705 0
M  V30 21669 O 2010.38 5.24907 2.23224 0
M  V30 21670 O 2009.31 6.00249 0.445563 0
M  V30 21671 H 2013.14 2.93343 -0.786347 0
M  V30 21672 H 2010.72 1.42464 -0.449929 0
M  V30 21673 H 2012.61 3.95982 1.44138 0
M  V30 21674 H 2011.28 2.78288 1.6534 0
M  V30 21675 H 2010.19 3.71139 -0.469771 0
M  V30 21676 H 2011.52 4.88547 -0.598537 0
M  V30 21677 N 2013.17 0.433965 1.51507 0
M  V30 21678 C 2014.42 -0.135114 2.01247 0
M  V30 21679 C 2014.73 -1.4408 1.32289 0
M  V30 21680 O 2015.94 -2.09262 1.72979 0
M  V30 21681 C 2014.4 -0.291335 3.58719 0
M  V30 21682 C 2014 1.00372 4.36611 0
M  V30 21683 C 2015.75 -0.814365 4.16615 0
M  V30 21684 C 2013.66 0.813324 5.85781 0
M  V30 21685 H 2012.59 -0.0542694 0.752044 0
M  V30 21686 H 2015.24 0.563211 1.74643 0
M  V30 21687 H 2013.62 -1.05258 3.81755 0
M  V30 21688 H 2014.79 1.77304 4.25323 0
M  V30 21689 H 2013.11 1.45503 3.90151 0
M  V30 21690 H 2015.7 -0.973246 5.25768 0
M  V30 21691 H 2016.05 -1.79589 3.75571 0
M  V30 21692 H 2016.58 -0.111519 3.97644 0
M  V30 21693 H 2013.32 1.76713 6.31231 0
M  V30 21694 H 2012.84 0.083744 5.99742 0
M  V30 21695 H 2014.52 0.465195 6.45325 0
M  V30 21696 N 2014.65 -1.56732 0.165206 0
M  V30 21697 C 2016.07 -1.58453 -0.191031 0
M  V30 21698 C 2016.27 -1.1803 -1.63313 0
M  V30 21699 O 2015.32 -0.889055 -2.3633 0
M  V30 21700 C 2016.64 -3.00582 0.0842414 0
M  V30 21701 C 2018.18 -3.12992 0.0219686 0
M  V30 21702 C 2018.66 -4.57203 0.270149 0
M  V30 21703 N 2020.15 -4.62688 0.217711 0
M  V30 21704 C 2020.88 -5.72113 0.383998 0
M  V30 21705 N 2020.38 -6.90118 0.609007 0
M  V30 21706 N 2022.17 -5.61187 0.320329 0
M  V30 21707 H 2014.32 -1.81296 1.1066 0
M  V30 21708 H 2016.59 -0.839986 0.439463 0
M  V30 21709 H 2016.29 -3.3461 1.083 0
M  V30 21710 H 2016.17 -3.71954 -0.62693 0
M  V30 21711 H 2018.55 -2.78794 -0.967358 0
M  V30 21712 H 2018.64 -2.44069 0.765755 0
M  V30 21713 H 2018.28 -4.92108 1.25666 0
M  V30 21714 H 2018.21 -5.24276 -0.494177 0
M  V30 21715 H 2020.7 -3.77868 0.0491965 0
M  V30 21716 H 2021.01 -7.69387 0.725507 0
M  V30 21717 H 2019.36 -6.91995 0.645549 0
M  V30 21718 H 2022.55 -4.67875 0.145176 0
M  V30 21719 H 2022.72 -6.46412 0.453351 0
M  V30 21720 N 2016.13 0.10854 -1.57226 0
M  V30 21721 C 2017.38 0.814467 -1.85399 0
M  V30 21722 C 2017.7 1.79382 -0.75181 0
M  V30 21723 O 2016.96 1.9402 0.255884 0
M  V30 21724 C 2017.26 1.58963 -3.20102 0
M  V30 21725 C 2016.92 0.75362 -4.44558 0
M  V30 21726 C 2015.59 0.523111 -4.78348 0
M  V30 21727 C 2017.94 0.171574 -5.20918 0
M  V30 21728 C 2015.27 -0.299527 -5.85935 0
M  V30 21729 C 2017.62 -0.638313 -6.29371 0
M  V30 21730 C 2016.28 -0.87904 -6.61687 0
M  V30 21731 H 2015.55 0.298035 -0.678422 0
M  V30 21732 H 2018.2 0.0764359 -1.91347 0
M  V30 21733 H 2016.5 2.39886 -3.09777 0
M  V30 21734 H 2018.2 2.13998 -3.39125 0
M  V30 21735 H 2014.79 0.943382 -4.18089 0
M  V30 21736 H 2018.97 0.336852 -4.95156 0
M  V30 21737 H 2014.23 -0.49515 -6.09392 0
M  V30 21738 H 2018.4 -1.09626 -6.87717 0
M  V30 21739 H 2016.03 -1.51829 -7.44884 0
M  V30 21740 N 2017.61 1.52975 0.379009 0
M  V30 21741 C 2018.52 1.81401 1.48764 0
M  V30 21742 C 2019.53 0.701435 1.59235 0
M  V30 21743 O 2020.71 0.990085 1.75383 0
M  V30 21744 C 2017.77 1.98593 2.84186 0
M  V30 21745 C 2016.83 3.22504 2.83354 0
M  V30 21746 C 2016.07 3.38866 4.12317 0
M  V30 21747 O 2016.29 2.59814 5.07792 0
M  V30 21748 O 2015.22 4.32165 4.18947 0
M  V30 21749 H 2019.05 2.75561 1.27671 0
M  V30 21750 H 2016.64 1.38189 0.56782 0
M  V30 21751 H 2018.52 2.11549 3.64451 0
M  V30 21752 H 2017.19 1.07622 3.05285 0
M  V30 21753 H 2016.1 3.14982 2.01835 0
M  V30 21754 H 2017.43 4.13353 2.67208 0
M  V30 21755 N 2019.08 -0.63804 1.44107 0
M  V30 21756 C 2020.33 -1.39366 1.45808 0
M  V30 21757 C 2020.65 -1.95384 0.091867 0
M  V30 21758 O 2021.85 -2.71497 -0.0136182 0
M  V30 21759 C 2020.31 -2.52293 2.56663 0
M  V30 21760 C 2019.92 -2.02818 3.99461 0
M  V30 21761 C 2021.66 -3.29549 2.67577 0
M  V30 21762 C 2019.57 -3.13047 5.01753 0
M  V30 21763 H 2018.5 -0.5237 0.542452 0
M  V30 21764 H 2021.15 -0.687131 1.70149 0
M  V30 21765 H 2019.53 -3.25489 2.2555 0
M  V30 21766 H 2020.7 -1.36533 4.40108 0
M  V30 21767 H 2019.02 -1.38398 3.92728 0
M  V30 21768 H 2021.62 -4.11709 3.41174 0
M  V30 21769 H 2021.96 -3.78579 1.73159 0
M  V30 21770 H 2022.49 -2.63441 2.98066 0
M  V30 21771 H 2019.23 -2.68969 5.97776 0
M  V30 21772 H 2018.75 -3.77995 4.65704 0
M  V30 21773 H 2020.43 -3.77934 5.25142 0
M  V30 21774 N 2020.56 -1.3089 -0.877815 0
M  V30 21775 C 2021.47 -1.19819 -2.01694 0
M  V30 21776 C 2022.49 -0.116563 -1.73609 0
M  V30 21777 O 2023.66 -0.332871 -1.9863 0
M  V30 21778 C 2020.73 -0.898133 -3.34865 0
M  V30 21779 C 2019.79 -2.06586 -3.76325 0
M  V30 21780 C 2019.02 -1.78002 -5.03141 0
M  V30 21781 O 2019.25 -0.711373 -5.65947 0
M  V30 21782 O 2018.18 -2.63452 -5.41181 0
M  V30 21783 H 2022.01 -2.15529 -2.13965 0
M  V30 21784 H 2019.59 -1.10553 -1.00491 0
M  V30 21785 H 2021.47 -0.746305 -4.14739 0
M  V30 21786 H 2020.15 0.0290018 -3.23687 0
M  V30 21787 H 2019.06 -2.27305 -2.97125 0
M  V30 21788 H 2020.39 -2.97497 -3.92118 0
M  V30 21789 N 2022.04 1.0911 -1.13723 0
M  V30 21790 C 2023.32 1.77949 -0.812014 0
M  V30 21791 C 2023.7 1.99302 0.695832 0
M  V30 21792 O 2023.05 1.59704 1.63422 0
M  V30 21793 C 2023.26 3.10028 -1.60262 0
M  V30 21794 C 2024.6 3.84681 -1.79738 0
M  V30 21795 O 2025.63 3.19789 -1.56887 0
M  V30 21796 O 2024.49 5.01185 -2.17888 0
M  V30 21797 H 2021.58 0.7719 -0.296816 0
M  V30 21798 H 2024.13 1.15637 -1.24202 0
M  V30 21799 H 2022.9 2.8999 -2.62719 0
M  V30 21800 H 2022.52 3.80065 -1.16776 0
M  V30 21801 N 2023.52 0.931232 1.27145 0
M  V30 21802 C 2024.76 0.574376 1.94496 0
M  V30 21803 C 2025.1 -0.882702 1.7298 0
M  V30 21804 O 2024.37 -1.63016 1.06094 0
M  V30 21805 C 2024.66 0.905384 3.48532 0
M  V30 21806 C 2024.51 2.41647 3.79377 0
M  V30 21807 C 2025.83 0.413756 4.38151 0
M  V30 21808 H 2022.95 0.210149 0.706404 0
M  V30 21809 H 2025.59 1.16365 1.50197 0
M  V30 21810 H 2023.74 0.403903 3.86395 0
M  V30 21811 H 2025.41 2.98992 3.51286 0
M  V30 21812 H 2023.65 2.86417 3.25803 0
M  V30 21813 H 2024.32 2.5986 4.87008 0
M  V30 21814 H 2026.8 0.843592 4.07459 0
M  V30 21815 H 2025.68 0.67428 5.44743 0
M  V30 21816 H 2025.94 -0.686214 4.36742 0
M  V30 21817 N 2025 -1.41343 0.697132 0
M  V30 21818 C 2025.95 -2.3259 0.0214207 0
M  V30 21819 C 2026.94 -1.51048 -0.766873 0
M  V30 21820 O 2028.15 -1.66973 -0.672319 0
M  V30 21821 H 2024.52 -0.751906 -0.0118741 0
M  V30 21822 H 2026.49 -2.87252 0.808025 0
M  V30 21823 C 2025.24 -3.35853 -0.899884 0
M  V30 21824 H 2024.56 -3.98652 -0.302721 0
M  V30 21825 H 2026 -4.02236 -1.34097 0
M  V30 21826 C 2024.46 -2.69865 -2.01679 0
M  V30 21827 O 2024.99 -2.54768 -3.10574 0
M  V30 21828 N 2023.2 -2.28536 -1.79498 0
M  V30 21829 H 2022.75 -2.41015 -0.909364 0
M  V30 21830 H 2022.7 -1.8472 -2.54413 0
M  V30 21831 N 2026.48 -0.441993 -1.51275 0
M  V30 21832 C 2027.42 0.381441 -2.29451 0
M  V30 21833 C 2028.42 1.01672 -1.35496 0
M  V30 21834 O 2029.62 0.95115 -1.52817 0
M  V30 21835 H 2026 0.141826 -0.738505 0
M  V30 21836 H 2027.97 -0.298692 -2.96901 0
M  V30 21837 C 2026.72 1.46756 -3.15211 0
M  V30 21838 H 2026.04 0.988092 -3.87397 0
M  V30 21839 H 2027.48 2.01687 -3.72959 0
M  V30 21840 C 2025.94 2.4534 -2.30889 0
M  V30 21841 O 2026.47 3.49979 -1.97173 0
M  V30 21842 N 2024.68 2.16342 -1.94022 0
M  V30 21843 H 2024.22 1.31276 -2.2164 0
M  V30 21844 H 2024.18 2.82543 -1.37902 0
M  V30 21845 N 2027.95 1.56642 -0.173515 0
M  V30 21846 C 2028.9 2.1807 0.755917 0
M  V30 21847 C 2029.87 1.12136 1.22534 0
M  V30 21848 O 2031.06 1.40296 1.29312 0
M  V30 21849 C 2028.2 2.82726 1.97888 0
M  V30 21850 C 2027.31 4.03127 1.55282 0
M  V30 21851 C 2026.44 4.55703 2.72962 0
M  V30 21852 C 2025.48 5.68509 2.26857 0
M  V30 21853 N 2024.62 6.15585 3.37638 0
M  V30 21854 H 2029.46 2.97147 0.225305 0
M  V30 21855 H 2027 1.46763 0.0994783 0
M  V30 21856 H 2028.95 3.18371 2.69621 0
M  V30 21857 H 2027.58 2.0625 2.48316 0
M  V30 21858 H 2026.64 3.73288 0.732154 0
M  V30 21859 H 2027.95 4.84777 1.17441 0
M  V30 21860 H 2027.1 4.93541 3.52849 0
M  V30 21861 H 2025.84 3.73115 3.14065 0
M  V30 21862 H 2024.85 5.3022 1.45418 0
M  V30 21863 H 2026.07 6.529 1.8681 0
M  V30 21864 H 2024.02 5.35925 3.78312 0
M  V30 21865 H 2023.93 6.9223 3.03897 0
M  V30 21866 H 2025.2 6.58074 4.17803 0
M  V30 21867 N 2029.43 -0.1002 1.57281 0
M  V30 21868 C 2030.66 -0.818307 1.9003 0
M  V30 21869 C 2031.07 -1.72531 0.766704 0
M  V30 21870 O 2030.43 -1.80616 -0.261577 0
M  V30 21871 C 2030.48 -1.63596 3.22364 0
M  V30 21872 O 2030.2 -0.765449 4.31361 0
M  V30 21873 C 2031.7 -2.45758 3.68942 0
M  V30 21874 H 2028.92 -0.234253 0.628782 0
M  V30 21875 H 2031.47 -0.0789616 2.04347 0
M  V30 21876 H 2029.62 -2.32787 3.09659 0
M  V30 21877 H 2030.04 -1.33126 5.07324 0
M  V30 21878 H 2031.51 -2.9863 4.64246 0
M  V30 21879 H 2031.99 -3.23987 2.96528 0
M  V30 21880 H 2032.59 -1.81776 3.84497 0
M  V30 21881 N 2030.91 -1.53174 -0.370891 0
M  V30 21882 C 2031.82 -1.82187 -1.478 0
M  V30 21883 C 2032.84 -0.70987 -1.58861 0
M  V30 21884 O 2034.01 -0.999372 -1.74856 0
M  V30 21885 C 2031.08 -2.00097 -2.83129 0
M  V30 21886 C 2030.14 -3.24002 -2.8164 0
M  V30 21887 C 2029.37 -3.41048 -4.10514 0
M  V30 21888 O 2029.59 -2.62503 -5.06407 0
M  V30 21889 O 2028.53 -4.34381 -4.16649 0
M  V30 21890 H 2032.35 -2.76234 -1.26207 0
M  V30 21891 H 2029.94 -1.38488 -0.560483 0
M  V30 21892 H 2031.82 -2.13479 -3.63324 0
M  V30 21893 H 2030.5 -1.0924 -3.0471 0
M  V30 21894 H 2029.4 -3.16048 -2.00162 0
M  V30 21895 H 2030.74 -4.14764 -2.65012 0
M  V30 21896 N 2032.39 0.630389 -1.44443 0
M  V30 21897 C 2033.63 1.40149 -1.48787 0
M  V30 21898 C 2033.99 1.9164 -0.117598 0
M  V30 21899 O 2035.19 2.68776 -0.0357153 0
M  V30 21900 C 2033.46 2.53505 -2.51933 0
M  V30 21901 S 2035.02 3.41671 -2.7533 0
M  V30 21902 H 2031.84 0.478109 -0.526244 0
M  V30 21903 H 2034.44 0.729702 -1.81371 0
M  V30 21904 H 2033.15 2.13989 -3.50196 0
M  V30 21905 H 2032.68 3.25509 -2.20923 0
M  V30 21906 H 2034.69 4.50969 -2.06981 0
M  V30 21907 N 2033.87 1.31354 0.870861 0
M  V30 21908 C 2034.78 1.20887 2.01056 0
M  V30 21909 C 2035.79 0.125768 1.73545 0
M  V30 21910 O 2036.97 0.3434 1.98451 0
M  V30 21911 C 2034.03 0.915879 3.34384 0
M  V30 21912 C 2033.09 2.08579 3.75225 0
M  V30 21913 C 2032.33 1.80668 5.0219 0
M  V30 21914 O 2032.55 0.741377 5.65561 0
M  V30 21915 O 2031.48 2.66319 5.39776 0
M  V30 21916 H 2035.31 2.16661 2.12819 0
M  V30 21917 H 2032.89 1.11084 0.999031 0
M  V30 21918 H 2034.78 0.768289 4.14337 0
M  V30 21919 H 2033.45 -0.0118355 3.23698 0
M  V30 21920 H 2032.36 2.28877 2.95916 0
M  V30 21921 H 2033.69 2.99572 3.90535 0
M  V30 21922 N 2035.34 -1.08505 1.143 0
M  V30 21923 C 2036.29 -2.15397 0.829011 0
M  V30 21924 C 2037.26 -1.64728 -0.213016 0
M  V30 21925 O 2038.45 -1.90619 -0.0831625 0
M  V30 21926 C 2035.59 -3.43691 0.311546 0
M  V30 21927 C 2034.7 -4.08212 1.41375 0
M  V30 21928 C 2033.83 -5.24296 0.853639 0
M  V30 21929 C 2032.87 -5.80757 1.93359 0
M  V30 21930 N 2032.01 -6.88188 1.39073 0
M  V30 21931 H 2036.85 -2.41597 1.74456 0
M  V30 21932 H 2034.39 -1.18566 0.870668 0
M  V30 21933 H 2036.34 -4.17199 -0.00667521 0
M  V30 21934 H 2034.97 -3.17779 -0.567106 0
M  V30 21935 H 2034.03 -3.32474 1.84839 0
M  V30 21936 H 2035.34 -4.46196 2.2296 0
M  V30 21937 H 2034.49 -6.0474 0.487261 0
M  V30 21938 H 2033.23 -4.877 0.00682778 0
M  V30 21939 H 2032.24 -4.98967 2.30893 0
M  V30 21940 H 2033.46 -6.19412 2.78398 0
M  V30 21941 H 2031.41 -6.53553 0.566079 0
M  V30 21942 H 2031.32 -7.24992 2.14296 0
M  V30 21943 H 2032.59 -7.72366 1.05222 0
M  V30 21944 N 2036.82 -0.937962 -1.26649 0
M  V30 21945 C 2037.75 -0.462649 -2.28871 0
M  V30 21946 C 2038.73 0.4824 -1.63116 0
M  V30 21947 O 2039.92 0.384947 -1.90347 0
M  V30 21948 C 2037.05 0.275964 -3.46202 0
M  V30 21949 C 2036 -0.582222 -4.24021 0
M  V30 21950 C 2035.33 0.286161 -5.33934 0
M  V30 21951 C 2036.63 -1.85193 -4.88365 0
M  V30 21952 H 2038.32 -1.31698 -2.68879 0
M  V30 21953 H 2035.87 -0.634709 -1.29257 0
M  V30 21954 H 2037.82 0.619496 -4.16822 0
M  V30 21955 H 2036.54 1.1644 -3.05138 0
M  V30 21956 H 2035.2 -0.908604 -3.55162 0
M  V30 21957 H 2034.85 1.17386 -4.89111 0
M  V30 21958 H 2034.55 -0.284618 -5.8691 0
M  V30 21959 H 2036.08 0.625035 -6.07393 0
M  V30 21960 H 2037.49 -1.57584 -5.51217 0
M  V30 21961 H 2035.89 -2.36702 -5.51445 0
M  V30 21962 H 2036.96 -2.56526 -4.11488 0
M  V30 21963 N 2038.3 1.40971 -0.704618 0
M  V30 21964 C 2039.23 2.28199 0.00567613 0
M  V30 21965 C 2040.21 1.42735 0.778814 0
M  V30 21966 O 2041.39 1.72157 0.767746 0
M  V30 21967 C 2038.52 3.2312 1.01544 0
M  V30 21968 C 2037.57 4.25187 0.334405 0
M  V30 21969 S 2038.4 5.27366 -0.929779 0
M  V30 21970 C 2039.56 6.25851 0.0781563 0
M  V30 21971 H 2039.79 2.88093 -0.734128 0
M  V30 21972 H 2037.32 1.46243 -0.495225 0
M  V30 21973 H 2039.28 3.78337 1.59284 0
M  V30 21974 H 2037.94 2.62304 1.72787 0
M  V30 21975 H 2037.13 4.91909 1.09736 0
M  V30 21976 H 2036.74 3.73613 -0.170159 0
M  V30 21977 H 2039.03 6.71107 0.928545 0
M  V30 21978 H 2039.97 7.05919 -0.555377 0
M  V30 21979 H 2040.38 5.62806 0.436978 0
M  V30 21980 N 2039.78 0.45001 1.51039 0
M  V30 21981 C 2040.69 -0.360857 2.31808 0
M  V30 21982 C 2041.7 -1.01585 1.41267 0
M  V30 21983 O 2042.88 -1.00845 1.74334 0
M  V30 21984 C 2039.95 -1.44034 3.15365 0
M  V30 21985 C 2039.01 -0.804156 4.21701 0
M  V30 21986 C 2038.24 -1.83221 5.01264 0
M  V30 21987 O 2038.46 -3.05609 4.81622 0
M  V30 21988 O 2037.4 -1.41571 5.85014 0
M  V30 21989 H 2041.22 0.298869 3.02226 0
M  V30 21990 H 2038.81 0.212277 1.47884 0
M  V30 21991 H 2040.69 -2.06611 3.67273 0
M  V30 21992 H 2039.36 -2.08392 2.47698 0
M  V30 21993 H 2038.27 -0.139997 3.73838 0
M  V30 21994 H 2039.6 -0.203865 4.91778 0
M  V30 21995 N 2041.26 -1.56548 0.18182 0
M  V30 21996 C 2042.5 -1.96807 -0.459512 0
M  V30 21997 C 2042.83 -1.06933 -1.63065 0
M  V30 21998 O 2042.1 -0.137842 -1.95414 0
M  V30 21999 H 2040.68 -0.72675 -0.172753 0
M  V30 22000 H 2043.34 -1.93084 0.265455 0
M  V30 22001 H 2042.43 -3.01338 -0.812522 0
M  V30 22002 N 2042.73 0.0918577 -1.57332 0
M  V30 22003 C 2043.68 1.13005 -2.03304 0
M  V30 22004 C 2044.68 1.4128 -0.934688 0
M  V30 22005 O 2045.88 1.40923 -1.11986 0
M  V30 22006 H 2042.26 0.381664 -0.647948 0
M  V30 22007 H 2044.23 0.716022 -2.89682 0
M  V30 22008 C 2042.98 2.44114 -2.47595 0
M  V30 22009 H 2042.3 2.23203 -3.31694 0
M  V30 22010 H 2043.74 3.15252 -2.83535 0
M  V30 22011 C 2042.2 3.08644 -1.35057 0
M  V30 22012 O 2042.73 3.95877 -0.681498 0
M  V30 22013 N 2040.94 2.68946 -1.10074 0
M  V30 22014 H 2040.48 1.98101 -1.64662 0
M  V30 22015 H 2040.44 3.12448 -0.349761 0
M  V30 22016 N 2044.21 1.53368 0.362763 0
M  V30 22017 C 2045.16 1.80679 1.46485 0
M  V30 22018 C 2046.15 0.676074 1.55324 0
M  V30 22019 O 2047.36 0.859068 1.58177 0
M  V30 22020 H 2043.74 0.572116 0.488044 0
M  V30 22021 H 2045.71 2.72919 1.20656 0
M  V30 22022 C 2044.46 2.01611 2.83281 0
M  V30 22023 H 2043.78 2.88059 2.7724 0
M  V30 22024 H 2045.22 2.24696 3.59566 0
M  V30 22025 C 2043.68 0.796023 3.27361 0
M  V30 22026 O 2044.21 -0.0139218 4.01698 0
M  V30 22027 N 2042.41 0.618665 2.83938 0
M  V30 22028 H 2041.96 1.27892 2.2361 0
M  V30 22029 H 2041.92 -0.196265 3.13787 0
M  V30 22030 N 2045.69 -0.62272 1.44776 0
M  V30 22031 C 2046.92 -1.40911 1.51498 0
M  V30 22032 C 2047.33 -1.88261 0.142579 0
M  V30 22033 O 2046.69 -1.61333 -0.853105 0
M  V30 22034 C 2046.74 -2.62379 2.48676 0
M  V30 22035 O 2046.46 -2.17001 3.80582 0
M  V30 22036 C 2047.96 -3.55413 2.64947 0
M  V30 22037 H 2045.18 -0.431862 0.513552 0
M  V30 22038 H 2047.73 -0.760822 1.8982 0
M  V30 22039 H 2045.88 -3.23281 2.13467 0
M  V30 22040 H 2046.3 -2.95811 4.33124 0
M  V30 22041 H 2047.77 -4.37227 3.36952 0
M  V30 22042 H 2048.25 -4.04771 1.70462 0
M  V30 22043 H 2048.85 -3.00374 3.01091 0
M  V30 22044 N 2047.17 -1.31814 -0.863883 0
M  V30 22045 C 2048.08 -1.21951 -2.00412 0
M  V30 22046 C 2049.09 -0.13497 -1.73476 0
M  V30 22047 O 2050.27 -0.35392 -1.98266 0
M  V30 22048 C 2047.34 -0.933599 -3.33893 0
M  V30 22049 C 2046.4 -2.10565 -3.74113 0
M  V30 22050 C 2045.63 -1.83329 -5.01225 0
M  V30 22051 O 2045.85 -0.77136 -5.6516 0
M  V30 22052 O 2044.79 -2.69178 -5.38356 0
M  V30 22053 H 2048.61 -2.17786 -2.11667 0
M  V30 22054 H 2046.2 -1.11613 -0.993126 0
M  V30 22055 H 2048.08 -0.790251 -4.13924 0
M  V30 22056 H 2046.75 -0.00533113 -3.237 0
M  V30 22057 H 2045.66 -2.30443 -2.94698 0
M  V30 22058 H 2046.99 -3.01639 -3.88941 0
M  V30 22059 N 2048.65 1.07897 -1.14873 0
M  V30 22060 C 2049.9 1.79765 -0.914736 0
M  V30 22061 C 2050.21 1.87416 0.559879 0
M  V30 22062 O 2051.41 2.55749 0.911294 0
M  V30 22063 C 2049.87 3.23014 -1.58713 0
M  V30 22064 C 2049.48 3.23581 -3.09837 0
M  V30 22065 C 2051.22 3.99529 -1.43446 0
M  V30 22066 C 2049.13 4.6145 -3.69889 0
M  V30 22067 H 2048.06 0.673704 -0.338585 0
M  V30 22068 H 2050.71 1.21148 -1.37824 0
M  V30 22069 H 2049.09 3.8179 -1.05131 0
M  V30 22070 H 2050.27 2.74482 -3.7013 0
M  V30 22071 H 2048.58 2.60562 -3.24802 0
M  V30 22072 H 2051.18 5.01415 -1.85708 0
M  V30 22073 H 2051.52 4.14551 -0.381226 0
M  V30 22074 H 2052.05 3.47235 -1.94094 0
M  V30 22075 H 2048.79 4.51632 -4.75088 0
M  V30 22076 H 2048.31 5.10809 -3.14378 0
M  V30 22077 H 2049.99 5.30422 -3.70488 0
M  V30 22078 N 2050.12 0.944665 1.2615 0
M  V30 22079 C 2051.54 0.647519 1.45874 0
M  V30 22080 C 2051.74 -0.798095 1.85021 0
M  V30 22081 O 2050.8 -1.57439 1.97406 0
M  V30 22082 C 2052.11 1.61192 2.53845 0
M  V30 22083 C 2053.66 1.62201 2.67694 0
M  V30 22084 C 2054.13 2.5738 3.7884 0
M  V30 22085 N 2055.62 2.55686 3.86237 0
M  V30 22086 C 2056.36 3.26015 4.71701 0
M  V30 22087 N 2055.85 4.05782 5.61527 0
M  V30 22088 N 2057.65 3.1495 4.65578 0
M  V30 22089 H 2049.8 1.87901 0.990296 0
M  V30 22090 H 2052.06 0.807679 0.496345 0
M  V30 22091 H 2051.77 2.64402 2.31915 0
M  V30 22092 H 2051.64 1.36668 3.5157 0
M  V30 22093 H 2054.03 0.597142 2.88995 0
M  V30 22094 H 2054.11 1.9078 1.70402 0
M  V30 22095 H 2053.75 3.59987 3.5829 0
M  V30 22096 H 2053.68 2.26089 4.75596 0
M  V30 22097 H 2056.17 1.97768 3.22019 0
M  V30 22098 H 2056.49 4.56389 6.23642 0
M  V30 22099 H 2054.83 4.09882 5.61268 0
M  V30 22100 H 2058.02 2.52113 3.94407 0
M  V30 22101 H 2058.2 3.70027 5.31962 0
M  V30 22102 N 2051.6 -1.40596 0.712085 0
M  V30 22103 C 2052.85 -2.01741 0.25927 0
M  V30 22104 C 2053.2 -1.55444 -1.1338 0
M  V30 22105 O 2052.5 -0.763054 -1.7575 0
M  V30 22106 C 2052.69 -3.56346 0.27427 0
M  V30 22107 C 2052.52 -4.17651 1.66726 0
M  V30 22108 C 2051.29 -4.51236 2.27408 0
M  V30 22109 C 2053.49 -4.42746 2.61687 0
M  V30 22110 N 2051.47 -4.97916 3.591 0
M  V30 22111 C 2052.84 -4.91381 3.7808 0
M  V30 22112 C 2054.9 -4.2478 2.59743 0
M  V30 22113 C 2053.6 -5.23936 4.92832 0
M  V30 22114 C 2055.62 -4.58434 3.7362 0
M  V30 22115 C 2054.99 -5.07255 4.88745 0
M  V30 22116 H 2051.09 -0.769251 0.140629 0
M  V30 22117 H 2053.67 -1.70883 0.933127 0
M  V30 22118 H 2051.84 -3.86642 -0.369137 0
M  V30 22119 H 2053.57 -4.0423 -0.194926 0
M  V30 22120 H 2050.33 -4.3825 1.79538 0
M  V30 22121 H 2050.75 -5.25643 4.26648 0
M  V30 22122 H 2055.39 -3.86258 1.71944 0
M  V30 22123 H 2053.11 -5.61374 5.81279 0
M  V30 22124 H 2056.7 -4.46176 3.73387 0
M  V30 22125 H 2055.58 -5.32806 5.75402 0
M  V30 22126 N 2053.08 -0.458013 -1.50798 0
M  V30 22127 C 2054.03 0.342913 -2.28238 0
M  V30 22128 C 2055 0.99876 -1.32718 0
M  V30 22129 O 2056.18 1.01371 -1.61643 0
M  V30 22130 C 2053.32 1.42646 -3.14239 0
M  V30 22131 C 2052.44 0.786698 -4.24776 0
M  V30 22132 C 2051.57 1.84704 -4.98054 0
M  V30 22133 C 2050.61 1.18681 -6.00484 0
M  V30 22134 N 2049.75 2.18942 -6.6709 0
M  V30 22135 H 2054.59 -0.323799 -2.96236 0
M  V30 22136 H 2052.12 -0.171528 -1.46097 0
M  V30 22137 H 2054.08 2.0662 -3.62442 0
M  V30 22138 H 2052.71 2.06252 -2.48314 0
M  V30 22139 H 2051.76 0.0347215 -3.80384 0
M  V30 22140 H 2053.08 0.264877 -4.98096 0
M  V30 22141 H 2052.23 2.5629 -5.49909 0
M  V30 22142 H 2050.97 2.40263 -4.24411 0
M  V30 22143 H 2049.97 0.45651 -5.47901 0
M  V30 22144 H 2051.2 0.638278 -6.76094 0
M  V30 22145 H 2049.14 2.73543 -5.96247 0
M  V30 22146 H 2049.06 1.71709 -7.36242 0
M  V30 22147 H 2050.33 2.89949 -7.23568 0
M  V30 22148 N 2054.56 1.56449 -0.190119 0
M  V30 22149 C 2055.51 2.20194 0.749479 0
M  V30 22150 C 2056.5 1.1716 1.22352 0
M  V30 22151 O 2057.71 1.35317 1.18699 0
M  V30 22152 H 2054.08 0.705613 0.260028 0
M  V30 22153 H 2056.05 2.97807 0.18808 0
M  V30 22154 C 2054.8 2.87151 1.9606 0
M  V30 22155 H 2054.13 3.66174 1.60489 0
M  V30 22156 H 2055.57 3.35198 2.5965 0
M  V30 22157 C 2054.02 1.87921 2.7962 0
M  V30 22158 O 2054.55 1.37638 3.77384 0
M  V30 22159 N 2052.76 1.5626 2.45013 0
M  V30 22160 H 2052.31 1.97343 1.6557 0
M  V30 22161 H 2052.27 0.901217 3.01207 0
M  V30 22162 N 2056.04 -0.0835127 1.57379 0
M  V30 22163 C 2057.28 -0.786031 1.86948 0
M  V30 22164 C 2057.62 -1.77811 0.780828 0
M  V30 22165 O 2056.89 -1.93362 -0.210075 0
M  V30 22166 C 2057.17 -1.50447 3.27166 0
M  V30 22167 C 2057.03 -0.529601 4.46671 0
M  V30 22168 C 2058.35 -2.45226 3.65448 0
M  V30 22169 H 2055.47 -0.284294 0.67996 0
M  V30 22170 H 2058.11 -0.0494231 1.89936 0
M  V30 22171 H 2056.26 -2.13237 3.24749 0
M  V30 22172 H 2057.93 0.0921842 4.61208 0
M  V30 22173 H 2056.17 0.156069 4.33519 0
M  V30 22174 H 2056.84 -1.06967 5.41537 0
M  V30 22175 H 2059.32 -1.92521 3.68883 0
M  V30 22176 H 2058.2 -2.92505 4.6447 0
M  V30 22177 H 2058.46 -3.29506 2.94751 0
M  V30 22178 N 2057.52 -1.53558 -0.354624 0
M  V30 22179 C 2058.46 -1.80769 -1.43497 0
M  V30 22180 C 2059.43 -0.65269 -1.52739 0
M  V30 22181 O 2060.62 -0.895997 -1.68453 0
M  V30 22182 C 2057.76 -2.01311 -2.80299 0
M  V30 22183 C 2056.87 -3.29028 -2.79937 0
M  V30 22184 C 2056.01 -3.39698 -4.08385 0
M  V30 22185 C 2055.04 -4.61406 -4.02208 0
M  V30 22186 N 2054.18 -4.6917 -5.22326 0
M  V30 22187 H 2059.02 -2.72949 -1.19594 0
M  V30 22188 H 2056.56 -1.35202 -0.579546 0
M  V30 22189 H 2058.52 -2.1121 -3.59786 0
M  V30 22190 H 2057.15 -1.12456 -3.02578 0
M  V30 22191 H 2056.2 -3.28027 -1.92619 0
M  V30 22192 H 2057.51 -4.186 -2.71248 0
M  V30 22193 H 2056.66 -3.48968 -4.96292 0
M  V30 22194 H 2055.4 -2.48162 -4.19842 0
M  V30 22195 H 2054.41 -4.52225 -3.12687 0
M  V30 22196 H 2055.63 -5.54295 -3.92344 0
M  V30 22197 H 2053.58 -3.80538 -5.34347 0
M  V30 22198 H 2053.5 -5.52662 -5.15849 0
M  V30 22199 H 2054.76 -4.82736 -6.12034 0
M  V30 22200 N 2058.99 0.615033 -1.45104 0
M  V30 22201 C 2060.24 1.37029 -1.48007 0
M  V30 22202 C 2060.56 1.95213 -0.122939 0
M  V30 22203 O 2061.76 2.71484 -0.0295763 0
M  V30 22204 C 2060.22 2.48178 -2.60645 0
M  V30 22205 C 2059.83 1.96437 -4.02637 0
M  V30 22206 C 2061.57 3.25251 -2.72786 0
M  V30 22207 C 2059.48 3.05024 -5.0667 0
M  V30 22208 H 2058.41 0.515004 -0.550715 0
M  V30 22209 H 2061.06 0.659974 -1.71221 0
M  V30 22210 H 2059.44 3.2186 -2.307 0
M  V30 22211 H 2060.61 1.29514 -4.42225 0
M  V30 22212 H 2058.93 1.32132 -3.9488 0
M  V30 22213 H 2061.53 4.06229 -3.47681 0
M  V30 22214 H 2061.87 3.75776 -1.7916 0
M  V30 22215 H 2062.4 2.58666 -3.0222 0
M  V30 22216 H 2059.14 2.59425 -6.01979 0
M  V30 22217 H 2058.66 3.70538 -4.71658 0
M  V30 22218 H 2060.34 3.69532 -5.31089 0
M  V30 22219 N 2060.47 1.3227 0.85688 0
M  V30 22220 C 2061.42 1.20972 1.98667 0
M  V30 22221 C 2062.41 0.115019 1.69009 0
M  V30 22222 O 2063.62 0.277796 1.77843 0
M  V30 22223 H 2059.99 0.374926 0.65187 0
M  V30 22224 H 2061.97 2.16528 2.05324 0
M  V30 22225 C 2060.71 0.947348 3.34545 0
M  V30 22226 H 2060.04 1.78189 3.57895 0
M  V30 22227 H 2061.48 0.908529 4.14152 0
M  V30 22228 C 2059.94 -0.349912 3.35078 0
M  V30 22229 O 2060.47 -1.3625 3.77887 0
M  V30 22230 N 2058.67 -0.371097 2.88221 0
M  V30 22231 H 2058.22 0.453449 2.53578 0
M  V30 22232 H 2058.18 -1.23894 2.8896 0
M  V30 22233 N 2061.95 -1.07287 1.15444 0
M  V30 22234 C 2063.2 -1.79896 0.929722 0
M  V30 22235 C 2063.52 -1.86764 -0.543105 0
M  V30 22236 O 2062.78 -1.34794 -1.41877 0
M  V30 22237 C 2063.08 -3.24863 1.48992 0
M  V30 22238 C 2062.74 -3.38094 2.98334 0
M  V30 22239 C 2061.41 -3.41412 3.39104 0
M  V30 22240 C 2063.76 -3.40837 3.94309 0
M  V30 22241 C 2061.09 -3.45077 4.74488 0
M  V30 22242 C 2063.44 -3.46039 5.29565 0
M  V30 22243 C 2062.1 -3.47635 5.6983 0
M  V30 22244 H 2061.37 -0.658285 0.340209 0
M  V30 22245 H 2064.02 -1.26242 1.43997 0
M  V30 22246 H 2062.32 -3.81302 0.900869 0
M  V30 22247 H 2064.02 -3.79621 1.29185 0
M  V30 22248 H 2060.61 -3.3621 2.65821 0
M  V30 22249 H 2064.8 -3.37494 3.63884 0
M  V30 22250 H 2060.05 -3.44611 5.05028 0
M  V30 22251 H 2064.23 -3.47108 6.03729 0
M  V30 22252 H 2061.85 -3.50228 6.74718 0
M  V30 22253 N 2063.43 -0.951342 -1.25647 0
M  V30 22254 C 2064.7 -0.521845 -1.8851 0
M  V30 22255 C 2065.08 1.00082 -1.85868 0
M  V30 22256 O 2064.43 1.86519 -1.31995 0
M  V30 22257 C 2064.64 -1.09473 -3.31386 0
M  V30 22258 C 2065.99 -1.16958 -4.08174 0
M  V30 22259 O 2067.01 -1.04605 -3.40494 0
M  V30 22260 O 2065.87 -1.36298 -5.29231 0
M  V30 22261 H 2062.97 -0.171638 -0.808993 0
M  V30 22262 H 2065.51 -1.04456 -1.33742 0
M  V30 22263 H 2064.29 -2.13807 -3.27723 0
M  V30 22264 H 2063.91 -0.555071 -3.93706 0
M  V30 22265 N 2064.91 1.40216 -0.719531 0
M  V30 22266 C 2065.85 2.32527 -0.0584211 0
M  V30 22267 C 2066.85 1.52249 0.742746 0
M  V30 22268 O 2068.05 1.68021 0.64567 0
M  V30 22269 H 2064.43 0.752 -8.96276e-05 0
M  V30 22270 H 2066.4 2.8593 -0.853622 0
M  V30 22271 C 2065.15 3.37242 0.846339 0
M  V30 22272 H 2064.47 3.99083 0.23926 0
M  V30 22273 H 2065.91 4.04319 1.2768 0
M  V30 22274 C 2064.37 2.7304 1.9736 0
M  V30 22275 O 2064.9 2.59677 3.06481 0
M  V30 22276 N 2063.11 2.31363 1.7584 0
M  V30 22277 H 2062.65 2.42431 0.870906 0
M  V30 22278 H 2062.61 1.88744 2.51442 0
M  V30 22279 N 2066.38 0.466004 1.50553 0
M  V30 22280 C 2067.63 -0.0908736 2.02596 0
M  V30 22281 C 2067.96 -1.39827 1.34767 0
M  V30 22282 O 2067.24 -1.88693 0.471719 0
M  V30 22283 C 2067.52 -0.279963 3.5901 0
M  V30 22284 C 2067.37 1.0481 4.37419 0
M  V30 22285 C 2068.69 -1.03683 4.27712 0
M  V30 22286 H 2065.81 -0.031552 0.736324 0
M  V30 22287 H 2068.45 0.610602 1.79921 0
M  V30 22288 H 2066.6 -0.877461 3.78461 0
M  V30 22289 H 2068.28 1.68178 4.29551 0
M  V30 22290 H 2066.52 1.64595 4.01361 0
M  V30 22291 H 2067.19 0.869493 5.45109 0
M  V30 22292 H 2069.67 -0.53043 4.12705 0
M  V30 22293 H 2068.54 -1.13792 5.36975 0
M  V30 22294 H 2068.8 -2.07215 3.90531 0
M  V30 22295 N 2067.86 -1.56346 0.198413 0
M  V30 22296 C 2069.11 -1.97283 -0.438612 0
M  V30 22297 C 2069.43 -1.08657 -1.61922 0
M  V30 22298 O 2068.7 -0.158561 -1.95257 0
M  V30 22299 H 2067.28 -0.728541 -0.165035 0
M  V30 22300 H 2069.94 -1.92791 0.285919 0
M  V30 22301 H 2069.04 -3.02183 -0.780516 0
M  V30 22302 N 2069.34 0.0751653 -1.57421 0
M  V30 22303 C 2070.3 1.07404 -2.02477 0
M  V30 22304 C 2071.3 1.31792 -0.921282 0
M  V30 22305 O 2072.49 1.27569 -1.18625 0
M  V30 22306 C 2069.63 2.4185 -2.40253 0
M  V30 22307 H 2070.82 0.685783 -2.91954 0
M  V30 22308 H 2068.37 0.320795 -1.52973 0
M  V30 22309 H 2069.11 2.85515 -1.53791 0
M  V30 22310 H 2068.89 2.25492 -3.20774 0
M  V30 22311 H 2070.38 3.13655 -2.75699 0
M  V30 22312 N 2070.82 1.53744 0.346476 0
M  V30 22313 C 2072.07 1.70512 1.0849 0
M  V30 22314 C 2072.39 0.469467 1.89264 0
M  V30 22315 O 2071.66 -0.516594 1.88966 0
M  V30 22316 H 2070.24 0.628636 0.403517 0
M  V30 22317 H 2072.9 1.9099 0.388459 0
M  V30 22318 H 2072 2.57472 1.76394 0
M  V30 22319 N 2072.3 -0.607329 1.45428 0
M  V30 22320 C 2073.53 -1.39094 1.52763 0
M  V30 22321 C 2073.93 -1.8853 0.159113 0
M  V30 22322 O 2073.28 -1.62873 -0.849596 0
M  V30 22323 C 2073.34 -2.62994 2.45101 0
M  V30 22324 C 2073 -2.35195 3.91832 0
M  V30 22325 C 2074 -1.95542 4.81725 0
M  V30 22326 C 2071.69 -2.48099 4.36752 0
M  V30 22327 C 2073.68 -1.69154 6.14545 0
M  V30 22328 C 2071.37 -2.21325 5.69613 0
M  V30 22329 C 2072.36 -1.81914 6.58328 0
M  V30 22330 O 2072.05 -1.55453 7.88727 0
M  V30 22331 H 2071.78 -0.432173 0.51981 0
M  V30 22332 H 2074.34 -0.747733 1.91306 0
M  V30 22333 H 2072.57 -3.30035 2.01528 0
M  V30 22334 H 2074.26 -3.25037 2.43116 0
M  V30 22335 H 2075.02 -1.85109 4.48285 0
M  V30 22336 H 2070.9 -2.77741 3.67941 0
M  V30 22337 H 2074.45 -1.38318 6.8375 0
M  V30 22338 H 2070.34 -2.31375 6.02608 0
M  V30 22339 H 2071.11 -1.69503 8.00757 0
M  V30 22340 N 2073.77 -1.32722 -0.849853 0
M  V30 22341 C 2074.7 -1.24675 -1.97429 0
M  V30 22342 C 2075.69 -0.129581 -1.69606 0
M  V30 22343 O 2076.87 -0.317548 -1.91586 0
M  V30 22344 C 2074 -0.973971 -3.33363 0
M  V30 22345 C 2072.95 -2.05289 -3.75553 0
M  V30 22346 C 2072.28 -1.63244 -5.09171 0
M  V30 22347 C 2073.58 -3.46845 -3.90507 0
M  V30 22348 H 2075.27 -2.18753 -2.0442 0
M  V30 22349 H 2072.82 -1.0531 -0.982132 0
M  V30 22350 H 2074.77 -0.904206 -4.11585 0
M  V30 22351 H 2073.5 0.00243816 -3.266 0
M  V30 22352 H 2072.16 -2.11289 -2.99587 0
M  V30 22353 H 2071.8 -0.643348 -4.98869 0
M  V30 22354 H 2071.5 -2.35437 -5.38371 0
M  V30 22355 H 2073.03 -1.57713 -5.8988 0
M  V30 22356 H 2074.44 -3.43408 -4.59069 0
M  V30 22357 H 2072.84 -4.17429 -4.3113 0
M  V30 22358 H 2073.91 -3.86155 -2.93278 0
M  V30 22359 N 2075.25 1.06673 -1.16011 0
M  V30 22360 C 2076.22 2.12223 -0.865686 0
M  V30 22361 C 2077.22 1.6021 0.137621 0
M  V30 22362 O 2078.41 1.73953 -0.0928217 0
M  V30 22363 C 2075.54 3.39631 -0.293865 0
M  V30 22364 H 2076.73 2.39774 -1.80134 0
M  V30 22365 H 2074.28 1.22675 -0.968529 0
M  V30 22366 H 2075.02 3.17726 0.649656 0
M  V30 22367 H 2074.8 3.78688 -1.01676 0
M  V30 22368 H 2076.29 4.17466 -0.105682 0
M  V30 22369 N 2076.73 0.957992 1.25141 0
M  V30 22370 C 2077.66 0.499001 2.28106 0
M  V30 22371 C 2078.64 -0.456388 1.63863 0
M  V30 22372 O 2079.83 -0.354616 1.90935 0
M  V30 22373 C 2076.96 -0.220851 3.46597 0
M  V30 22374 C 2075.91 0.649607 4.23042 0
M  V30 22375 C 2075.24 -0.201181 5.34321 0
M  V30 22376 C 2076.54 1.92939 4.85357 0
M  V30 22377 H 2078.23 1.35959 2.6675 0
M  V30 22378 H 2075.78 0.655192 1.28231 0
M  V30 22379 H 2077.73 -0.553105 4.17754 0
M  V30 22380 H 2076.45 -1.11571 3.06952 0
M  V30 22381 H 2075.11 0.964992 3.53671 0
M  V30 22382 H 2074.76 -1.0959 4.90917 0
M  V30 22383 H 2074.46 0.377954 5.86383 0
M  V30 22384 H 2075.98 -0.528325 6.0831 0
M  V30 22385 H 2077.4 1.66333 5.4864 0
M  V30 22386 H 2075.8 2.45445 5.4761 0
M  V30 22387 H 2076.87 2.6304 4.07355 0
M  V30 22388 N 2078.21 -1.39832 0.726957 0
M  V30 22389 C 2079.14 -2.333 0.0966938 0
M  V30 22390 C 2080.12 -1.53492 -0.733095 0
M  V30 22391 O 2081.3 -1.81916 -0.679712 0
M  V30 22392 C 2078.43 -3.37545 -0.817367 0
M  V30 22393 C 2077.39 -4.279 -0.0923447 0
M  V30 22394 C 2076.71 -5.22777 -1.12288 0
M  V30 22395 C 2078.01 -5.11425 1.06028 0
M  V30 22396 H 2079.71 -2.86255 0.877412 0
M  V30 22397 H 2077.25 -1.37635 0.423378 0
M  V30 22398 H 2079.21 -4.01878 -1.26776 0
M  V30 22399 H 2077.93 -2.83011 -1.63011 0
M  V30 22400 H 2076.59 -3.65035 0.338339 0
M  V30 22401 H 2076.24 -4.64542 -1.92898 0
M  V30 22402 H 2075.94 -5.84076 -0.64259 0
M  V30 22403 H 2077.46 -5.89987 -1.57314 0
M  V30 22404 H 2078.88 -5.69148 0.688715 0
M  V30 22405 H 2077.27 -5.81825 1.46968 0
M  V30 22406 H 2078.34 -4.46731 1.88571 0
M  V30 22407 N 2079.69 -0.473982 -1.50304 0
M  V30 22408 C 2080.62 0.355019 -2.26434 0
M  V30 22409 C 2081.63 0.954546 -1.3188 0
M  V30 22410 O 2082.82 0.842462 -1.57368 0
M  V30 22411 C 2079.92 1.51219 -3.03292 0
M  V30 22412 C 2079.09 1.02492 -4.25222 0
M  V30 22413 C 2078.15 2.05649 -4.8435 0
M  V30 22414 O 2077.18 1.63594 -5.45184 0
M  V30 22415 N 2078.38 3.38481 -4.71605 0
M  V30 22416 H 2081.15 -0.297646 -2.98218 0
M  V30 22417 H 2078.71 -0.304934 -1.59002 0
M  V30 22418 H 2080.7 2.19927 -3.39726 0
M  V30 22419 H 2079.27 2.0695 -2.34287 0
M  V30 22420 H 2078.49 0.16363 -3.9386 0
M  V30 22421 H 2079.78 0.677339 -5.04271 0
M  V30 22422 H 2079.17 3.75356 -4.23231 0
M  V30 22423 H 2077.73 4.02979 -5.123 0
M  V30 22424 N 2081.16 1.56239 -0.206702 0
M  V30 22425 C 2082.41 1.98197 0.429627 0
M  V30 22426 C 2082.74 1.09386 1.60463 0
M  V30 22427 O 2082.02 0.148321 1.93934 0
M  V30 22428 C 2082.3 3.49218 0.878562 0
M  V30 22429 C 2082.15 4.48805 -0.299054 0
M  V30 22430 C 2083.47 4.04243 1.74 0
M  V30 22431 H 2080.59 0.720583 0.154691 0
M  V30 22432 H 2083.23 1.87617 -0.299957 0
M  V30 22433 H 2081.38 3.58365 1.50023 0
M  V30 22434 H 2083.06 4.51684 -0.936956 0
M  V30 22435 H 2081.3 4.23294 -0.948945 0
M  V30 22436 H 2081.97 5.5197 0.0577652 0
M  V30 22437 H 2084.45 3.97948 1.2156 0
M  V30 22438 H 2083.32 5.10259 2.02305 0
M  V30 22439 H 2083.58 3.50212 2.69823 0
M  V30 22440 N 2082.64 -0.0668159 1.57458 0
M  V30 22441 C 2083.61 -1.06329 2.03044 0
M  V30 22442 C 2084.61 -1.31301 0.928259 0
M  V30 22443 O 2085.8 -1.26938 1.193 0
M  V30 22444 C 2082.93 -2.40573 2.41532 0
M  V30 22445 H 2084.12 -0.67029 2.92313 0
M  V30 22446 H 2081.67 -0.312678 1.53141 0
M  V30 22447 H 2082.41 -2.84695 1.55303 0
M  V30 22448 H 2082.19 -2.23788 3.21965 0
M  V30 22449 H 2083.68 -3.12189 2.77359 0
M  V30 22450 N 2084.12 -1.53926 -0.338317 0
M  V30 22451 C 2085.35 -1.75368 -1.09789 0
M  V30 22452 C 2085.76 -0.495294 -1.82187 0
M  V30 22453 O 2085.12 0.533316 -1.74534 0
M  V30 22454 C 2085.17 -2.93722 -2.10736 0
M  V30 22455 O 2084.89 -4.14695 -1.4128 0
M  V30 22456 C 2086.39 -3.27258 -2.99027 0
M  V30 22457 H 2083.61 -0.585824 -0.327188 0
M  V30 22458 H 2086.16 -2.00767 -0.388932 0
M  V30 22459 H 2084.31 -2.70639 -2.77188 0
M  V30 22460 H 2084.73 -4.81165 -2.08759 0
M  V30 22461 H 2086.2 -4.13409 -3.65783 0
M  V30 22462 H 2086.68 -2.43786 -3.65329 0
M  V30 22463 H 2087.28 -3.52366 -2.38156 0
M  V30 22464 N 2085.6 0.599608 -1.45748 0
M  V30 22465 C 2086.85 1.35838 -1.50181 0
M  V30 22466 C 2087.17 1.93946 -0.146709 0
M  V30 22467 O 2086.43 1.76004 0.85563 0
M  V30 22468 C 2086.73 2.51935 -2.53503 0
M  V30 22469 C 2086.39 2.11925 -3.97993 0
M  V30 22470 C 2085.06 2.00728 -4.37335 0
M  V30 22471 C 2087.41 1.8082 -4.88829 0
M  V30 22472 C 2084.74 1.56659 -5.65398 0
M  V30 22473 C 2087.09 1.38235 -6.17312 0
M  V30 22474 C 2085.75 1.25602 -6.55576 0
M  V30 22475 H 2085.02 0.497068 -0.54955 0
M  V30 22476 H 2087.67 0.676927 -1.79137 0
M  V30 22477 H 2085.97 3.25453 -2.18145 0
M  V30 22478 H 2087.67 3.10161 -2.54168 0
M  V30 22479 H 2084.26 2.21569 -3.66886 0
M  V30 22480 H 2088.45 1.88364 -4.59165 0
M  V30 22481 H 2083.7 1.45507 -5.93833 0
M  V30 22482 H 2087.88 1.13215 -6.87136 0
M  V30 22483 H 2085.5 0.912286 -7.54706 0
M  V30 22484 N 2087.08 1.33171 0.842803 0
M  V30 22485 C 2088.02 1.23097 1.95232 0
M  V30 22486 C 2088.99 0.110469 1.65732 0
M  V30 22487 O 2090.18 0.288065 1.88613 0
M  V30 22488 C 2087.32 0.972118 3.31125 0
M  V30 22489 C 2086.43 2.17852 3.73047 0
M  V30 22490 C 2085.57 1.85415 4.9779 0
M  V30 22491 C 2084.61 3.0231 5.32236 0
M  V30 22492 N 2083.74 2.69887 6.48156 0
M  V30 22493 H 2088.58 2.17995 2.03181 0
M  V30 22494 H 2086.12 1.08406 0.994308 0
M  V30 22495 H 2088.08 0.802486 4.09409 0
M  V30 22496 H 2086.71 0.0598977 3.22744 0
M  V30 22497 H 2085.76 2.45803 2.90318 0
M  V30 22498 H 2087.07 3.05254 3.94489 0
M  V30 22499 H 2086.23 1.65073 5.83812 0
M  V30 22500 H 2084.97 0.952447 4.78309 0
M  V30 22501 H 2083.97 3.2327 4.44721 0
M  V30 22502 H 2085.2 3.93229 5.53667 0
M  V30 22503 H 2083.14 1.82271 6.30169 0
M  V30 22504 H 2083.06 3.50818 6.69673 0
M  V30 22505 H 2084.33 2.53002 7.37299 0
M  V30 22506 N 2088.56 -1.06056 1.16576 0
M  V30 22507 C 2089.8 -1.78546 0.946876 0
M  V30 22508 C 2090.12 -1.87758 -0.526489 0
M  V30 22509 O 2089.39 -1.38801 -1.38243 0
M  V30 22510 H 2087.97 -0.661335 0.347341 0
M  V30 22511 H 2090.64 -1.28101 1.46888 0
M  V30 22512 H 2089.73 -2.80537 1.36767 0
M  V30 22513 N 2090.03 -0.964615 -1.24631 0
M  V30 22514 C 2091.28 -0.635327 -1.93223 0
M  V30 22515 C 2091.63 0.820083 -1.74047 0
M  V30 22516 O 2090.93 1.58192 -1.08101 0
M  V30 22517 C 2091.12 -0.941821 -3.44767 0
M  V30 22518 C 2090.95 -2.42547 -3.78683 0
M  V30 22519 C 2089.72 -3.08477 -4.00213 0
M  V30 22520 C 2091.92 -3.40538 -3.85407 0
M  V30 22521 N 2089.9 -4.46612 -4.21202 0
M  V30 22522 C 2091.27 -4.64017 -4.11203 0
M  V30 22523 C 2093.33 -3.35238 -3.6813 0
M  V30 22524 C 2092.03 -5.82851 -4.21518 0
M  V30 22525 C 2094.06 -4.5342 -3.79689 0
M  V30 22526 C 2093.42 -5.7569 -4.05907 0
M  V30 22527 H 2089.52 -0.283271 -0.728891 0
M  V30 22528 H 2092.1 -1.23884 -1.50203 0
M  V30 22529 H 2090.27 -0.367147 -3.86661 0
M  V30 22530 H 2092 -0.57142 -4.00646 0
M  V30 22531 H 2088.76 -2.59017 -3.96494 0
M  V30 22532 H 2089.18 -5.18179 -4.35683 0
M  V30 22533 H 2093.82 -2.41747 -3.46869 0
M  V30 22534 H 2091.54 -6.76774 -4.41591 0
M  V30 22535 H 2095.13 -4.50878 -3.67696 0
M  V30 22536 H 2094.01 -6.65612 -4.14646 0
M  V30 22537 N 2091.51 1.39445 -0.734362 0
M  V30 22538 C 2092.44 2.2816 -0.0427296 0
M  V30 22539 C 2093.42 1.44355 0.748363 0
M  V30 22540 O 2094.61 1.73746 0.731056 0
M  V30 22541 C 2091.73 3.25201 0.94667 0
M  V30 22542 C 2090.78 4.25801 0.244141 0
M  V30 22543 S 2091.61 5.25276 -1.04143 0
M  V30 22544 C 2092.77 6.25876 -0.0546136 0
M  V30 22545 H 2093 2.86471 -0.795072 0
M  V30 22546 H 2090.53 1.45159 -0.526134 0
M  V30 22547 H 2092.49 3.8163 1.51223 0
M  V30 22548 H 2091.15 2.6591 1.67185 0
M  V30 22549 H 2090.35 4.94126 0.992768 0
M  V30 22550 H 2089.95 3.73168 -0.249369 0
M  V30 22551 H 2092.24 6.72925 0.785984 0
M  V30 22552 H 2093.18 7.04582 -0.704988 0
M  V30 22553 H 2093.59 5.63606 0.317501 0
M  V30 22554 N 2092.99 0.481946 1.5005 0
M  V30 22555 C 2094.27 -0.131379 1.95158 0
M  V30 22556 C 2094.65 -1.55951 1.42276 0
M  V30 22557 O 2093.99 -2.19691 0.62835 0
M  V30 22558 C 2094.2 -0.0635771 3.48942 0
M  V30 22559 C 2095.55 -0.247054 4.23881 0
M  V30 22560 O 2096.58 -0.139659 3.55926 0
M  V30 22561 O 2095.44 -0.465153 5.44517 0
M  V30 22562 H 2092.53 -0.105746 0.820211 0
M  V30 22563 H 2095.08 0.543125 1.60774 0
M  V30 22564 H 2093.85 0.933103 3.80012 0
M  V30 22565 H 2093.47 -0.779065 3.89893 0
M  V30 22566 N 2094.47 -1.56127 0.214985 0
M  V30 22567 C 2095.72 -1.97304 -0.41881 0
M  V30 22568 C 2096.03 -1.10547 -1.61366 0
M  V30 22569 O 2097.24 -1.41593 -2.31654 0
M  V30 22570 C 2095.69 -3.50975 -0.796509 0
M  V30 22571 C 2095.3 -4.46426 0.375156 0
M  V30 22572 C 2097.04 -4.0088 -1.39627 0
M  V30 22573 C 2094.95 -5.91395 -0.0246118 0
M  V30 22574 H 2093.88 -0.736775 -0.160246 0
M  V30 22575 H 2096.53 -1.8086 0.310157 0
M  V30 22576 H 2094.91 -3.62996 -1.58271 0
M  V30 22577 H 2096.09 -4.46149 1.15271 0
M  V30 22578 H 2094.4 -4.06827 0.887721 0
M  V30 22579 H 2097 -5.06681 -1.70816 0
M  V30 22580 H 2097.34 -3.46346 -2.30977 0
M  V30 22581 H 2097.88 -3.92055 -0.673641 0
M  V30 22582 H 2094.61 -6.49897 0.855201 0
M  V30 22583 H 2094.13 -5.94881 -0.766611 0
M  V30 22584 H 2095.81 -6.45408 -0.453573 0
M  V30 22585 N 2095.95 0.0584645 -1.57492 0
M  V30 22586 C 2096.88 1.10026 -1.99924 0
M  V30 22587 C 2097.86 1.36832 -0.878387 0
M  V30 22588 O 2099.04 1.49983 -1.14181 0
M  V30 22589 C 2096.17 2.4417 -2.34731 0
M  V30 22590 C 2095.21 2.33413 -3.5696 0
M  V30 22591 S 2096.05 1.71551 -5.07278 0
M  V30 22592 C 2097.2 3.07245 -5.45299 0
M  V30 22593 H 2097.44 0.738715 -2.87976 0
M  V30 22594 H 2094.97 0.267463 -1.52066 0
M  V30 22595 H 2096.93 3.21327 -2.55458 0
M  V30 22596 H 2095.59 2.77481 -1.47183 0
M  V30 22597 H 2094.78 3.3237 -3.78875 0
M  V30 22598 H 2094.38 1.64394 -3.35932 0
M  V30 22599 H 2096.67 4.0357 -5.44185 0
M  V30 22600 H 2097.62 2.90096 -6.45949 0
M  V30 22601 H 2098.03 3.08464 -4.72768 0
M  V30 22602 N 2097.42 1.54103 0.330149 0
M  V30 22603 C 2098.65 1.75693 1.08699 0
M  V30 22604 C 2099.06 0.502371 1.82409 0
M  V30 22605 O 2098.4 -0.53629 1.75698 0
M  V30 22606 C 2098.47 2.89199 2.13551 0
M  V30 22607 C 2098.13 4.28338 1.59298 0
M  V30 22608 C 2099.13 5.09428 1.03823 0
M  V30 22609 C 2096.81 4.74863 1.6374 0
M  V30 22610 C 2098.81 6.3515 0.535098 0
M  V30 22611 C 2096.49 6.00554 1.1304 0
M  V30 22612 C 2097.49 6.80531 0.580184 0
M  V30 22613 O 2097.18 8.03859 0.0807823 0
M  V30 22614 H 2096.91 0.590289 0.329447 0
M  V30 22615 H 2099.47 2.01779 0.38398 0
M  V30 22616 H 2097.7 2.58669 2.87449 0
M  V30 22617 H 2099.38 2.98634 2.74905 0
M  V30 22618 H 2100.15 4.74641 0.997028 0
M  V30 22619 H 2096.03 4.1266 2.05506 0
M  V30 22620 H 2099.57 6.97521 0.104978 0
M  V30 22621 H 2095.47 6.34833 1.16865 0
M  V30 22622 H 2096.24 8.18263 0.196822 0
M  V30 22623 N 2098.9 -0.59187 1.46064 0
M  V30 22624 C 2099.87 -1.68357 1.55526 0
M  V30 22625 C 2100.87 -1.54854 0.433247 0
M  V30 22626 O 2102.06 -1.59637 0.697258 0
M  V30 22627 C 2099.19 -3.07729 1.46683 0
M  V30 22628 H 2100.38 -1.61328 2.5281 0
M  V30 22629 H 2097.93 -0.808941 1.33738 0
M  V30 22630 H 2098.67 -3.20321 0.506433 0
M  V30 22631 H 2098.45 -3.18939 2.2808 0
M  V30 22632 H 2099.94 -3.87218 1.5637 0
M  V30 22633 N 2100.38 -1.33616 -0.835729 0
M  V30 22634 C 2101.34 -1.24042 -1.92733 0
M  V30 22635 C 2102.34 -0.158708 -1.60015 0
M  V30 22636 O 2103.53 -0.410456 -1.69295 0
M  V30 22637 C 2100.67 -0.912113 -3.28471 0
M  V30 22638 H 2101.86 -2.21075 -2.02647 0
M  V30 22639 H 2099.41 -1.1772 -1.02819 0
M  V30 22640 H 2100.15 0.0555823 -3.24252 0
M  V30 22641 H 2099.93 -1.69441 -3.53599 0
M  V30 22642 H 2101.42 -0.869957 -4.08438 0
M  V30 22643 N 2101.86 1.05436 -1.17136 0
M  V30 22644 C 2103.1 1.78658 -0.959644 0
M  V30 22645 C 2103.44 1.87366 0.510659 0
M  V30 22646 O 2102.71 1.37162 1.37901 0
M  V30 22647 C 2103 3.22682 -1.59839 0
M  V30 22648 C 2102.85 3.22002 -3.14062 0
M  V30 22649 C 2104.17 4.20454 -1.30023 0
M  V30 22650 H 2101.29 0.648566 -0.350044 0
M  V30 22651 H 2103.93 1.23254 -1.44598 0
M  V30 22652 H 2102.08 3.69992 -1.18484 0
M  V30 22653 H 2103.75 2.82787 -3.64457 0
M  V30 22654 H 2101.99 2.60411 -3.46941 0
M  V30 22655 H 2102.66 4.23642 -3.53881 0
M  V30 22656 H 2105.14 3.81628 -1.65829 0
M  V30 22657 H 2104.02 5.19475 -1.77304 0
M  V30 22658 H 2104.28 4.41549 -0.220588 0
M  V30 22659 N 2103.34 0.971211 1.24118 0
M  V30 22660 C 2104.61 0.551769 1.87656 0
M  V30 22661 C 2104.99 -0.97112 1.87437 0
M  V30 22662 O 2104.34 -1.84396 1.34946 0
M  V30 22663 C 2104.55 1.14731 3.29602 0
M  V30 22664 C 2105.9 1.23437 4.06262 0
M  V30 22665 O 2106.92 1.10009 3.38787 0
M  V30 22666 O 2105.78 1.44701 5.26995 0
M  V30 22667 H 2102.88 0.184487 0.80616 0
M  V30 22668 H 2105.42 1.06571 1.32064 0
M  V30 22669 H 2104.19 2.18994 3.2428 0
M  V30 22670 H 2103.82 0.617636 3.92773 0
M  V30 22671 N 2104.81 -1.39054 0.741747 0
M  V30 22672 C 2106.04 -2.05193 0.301789 0
M  V30 22673 C 2106.46 -1.55567 -1.05739 0
M  V30 22674 O 2105.82 -0.702382 -1.67141 0
M  V30 22675 C 2105.87 -3.59172 0.320615 0
M  V30 22676 O 2104.97 -4.06596 -0.68946 0
M  V30 22677 H 2104.32 -0.649957 0.135837 0
M  V30 22678 H 2106.85 -1.77958 1.00956 0
M  V30 22679 H 2106.86 -4.07657 0.167351 0
M  V30 22680 H 2105.53 -3.94652 1.31234 0
M  V30 22681 H 2104.11 -3.69509 -0.50178 0
M  V30 22682 N 2106.29 -0.489897 -1.49792 0
M  V30 22683 C 2107.71 -0.145171 -1.58938 0
M  V30 22684 C 2107.91 1.34961 -1.49625 0
M  V30 22685 O 2106.96 2.1246 -1.36444 0
M  V30 22686 C 2108.28 -0.7121 -2.92147 0
M  V30 22687 C 2109.83 -0.677209 -3.05586 0
M  V30 22688 C 2110.3 -1.22201 -4.41397 0
M  V30 22689 N 2111.79 -1.18222 -4.47859 0
M  V30 22690 C 2112.53 -1.57407 -5.51372 0
M  V30 22691 N 2112.02 -2.04131 -6.62044 0
M  V30 22692 N 2113.82 -1.48892 -5.42022 0
M  V30 22693 H 2105.97 -1.46186 -1.54089 0
M  V30 22694 H 2108.23 -0.60569 -0.729276 0
M  V30 22695 H 2107.94 -1.75998 -3.04496 0
M  V30 22696 H 2107.81 -0.166236 -3.76834 0
M  V30 22697 H 2110.2 0.361809 -2.92874 0
M  V30 22698 H 2110.28 -1.26009 -2.2261 0
M  V30 22699 H 2109.92 -2.25975 -4.5486 0
M  V30 22700 H 2109.85 -0.615163 -5.22995 0
M  V30 22701 H 2112.34 -0.839749 -3.68452 0
M  V30 22702 H 2112.66 -2.32129 -7.37113 0
M  V30 22703 H 2111 -2.08097 -6.63114 0
M  V30 22704 H 2114.19 -1.12217 -4.5445 0
M  V30 22705 H 2114.36 -1.79754 -6.22569 0
M  V30 22706 N 2107.77 1.56011 -0.223262 0
M  V30 22707 C 2108.72 2.20365 0.686157 0
M  V30 22708 C 2109.69 1.15978 1.18905 0
M  V30 22709 O 2110.87 1.44339 1.24783 0
M  V30 22710 C 2108.01 2.88879 1.88793 0
M  V30 22711 C 2107.13 4.07863 1.42378 0
M  V30 22712 C 2106.26 4.64156 2.58326 0
M  V30 22713 C 2105.3 5.75438 2.08656 0
M  V30 22714 N 2104.44 6.26015 3.17883 0
M  V30 22715 H 2109.28 2.97713 0.130656 0
M  V30 22716 H 2106.81 1.47005 0.0527363 0
M  V30 22717 H 2108.77 3.26788 2.59356 0
M  V30 22718 H 2107.4 2.14045 2.41629 0
M  V30 22719 H 2106.45 3.75428 0.613024 0
M  V30 22720 H 2107.77 4.88268 1.01958 0
M  V30 22721 H 2106.92 5.04517 3.36968 0
M  V30 22722 H 2105.66 3.82918 3.02035 0
M  V30 22723 H 2104.66 5.34578 1.28476 0
M  V30 22724 H 2105.89 6.58513 1.65944 0
M  V30 22725 H 2103.83 5.4769 3.61071 0
M  V30 22726 H 2103.75 7.01548 2.8172 0
M  V30 22727 H 2105.02 6.71033 3.96655 0
M  V30 22728 N 2109.25 -0.0501116 1.5752 0
M  V30 22729 C 2110.66 -0.599337 1.76819 0
M  V30 22730 C 2111.01 -1.76753 0.851625 0
M  V30 22731 O 2110.14 -2.16361 0.0411012 0
M  V30 22732 C 2110.73 -1.09402 3.2065 0
M  V30 22733 C 2109.29 -1.58893 3.41219 0
M  V30 22734 C 2108.44 -0.517719 2.72424 0
M  V30 22735 H 2111.39 0.176108 1.5772 0
M  V30 22736 H 2111.41 -1.96217 3.26005 0
M  V30 22737 H 2110.92 -0.243574 3.87335 0
M  V30 22738 H 2109.02 -2.46191 2.7968 0
M  V30 22739 H 2109.13 -1.65093 4.49757 0
M  V30 22740 H 2107.5 -0.967874 2.35594 0
M  V30 22741 H 2108.28 0.322904 3.41778 0
M  V30 22742 N 2110.73 -1.54276 -0.321972 0
M  V30 22743 C 2112 -1.63209 -1.07806 0
M  V30 22744 C 2112.38 -0.466965 -2.0587 0
M  V30 22745 O 2111.73 0.538598 -2.22062 0
M  V30 22746 C 2111.94 -3.00279 -1.77858 0
M  V30 22747 C 2113.29 -3.5638 -2.30822 0
M  V30 22748 O 2114.31 -3.02594 -1.87923 0
M  V30 22749 O 2113.17 -4.50507 -3.09364 0
M  V30 22750 H 2110.27 -0.660982 -0.497023 0
M  V30 22751 H 2112.81 -1.66622 -0.321736 0
M  V30 22752 H 2111.58 -3.76518 -1.06537 0
M  V30 22753 H 2111.21 -3.00552 -2.60297 0
M  V30 22754 N 2112.2 0.584116 -1.46376 0
M  V30 22755 C 2113.11 1.72116 -1.59415 0
M  V30 22756 C 2114.13 1.67314 -0.477692 0
M  V30 22757 O 2115.31 1.87248 -0.74162 0
M  V30 22758 C 2112.37 3.08617 -1.57975 0
M  V30 22759 C 2111.43 3.24694 -2.80842 0
M  V30 22760 C 2110.67 4.54683 -2.79462 0
M  V30 22761 O 2110.89 5.38484 -1.88126 0
M  V30 22762 O 2109.82 4.73977 -3.70985 0
M  V30 22763 H 2113.65 1.64062 -2.55572 0
M  V30 22764 H 2111.23 0.750995 -1.29153 0
M  V30 22765 H 2113.12 3.899 -1.59863 0
M  V30 22766 H 2111.79 3.17111 -0.649775 0
M  V30 22767 H 2110.7 2.4291 -2.84509 0
M  V30 22768 H 2112.03 3.2109 -3.73044 0
M  V30 22769 N 2113.68 1.34058 0.828631 0
M  V30 22770 C 2114.62 1.21002 1.94657 0
M  V30 22771 C 2115.63 0.138478 1.6221 0
M  V30 22772 O 2116.82 0.389824 1.74191 0
M  V30 22773 C 2113.92 0.835704 3.28434 0
M  V30 22774 C 2113.09 2.00103 3.88944 0
M  V30 22775 C 2112.15 1.60604 5.01092 0
M  V30 22776 O 2111.18 2.32182 5.19692 0
M  V30 22777 N 2112.38 0.516907 5.78194 0
M  V30 22778 H 2115.14 2.17309 2.0639 0
M  V30 22779 H 2112.7 1.26938 1.00491 0
M  V30 22780 H 2114.7 0.553361 4.00899 0
M  V30 22781 H 2113.27 -0.0370007 3.12578 0
M  V30 22782 H 2112.49 2.44843 3.08943 0
M  V30 22783 H 2113.77 2.78052 4.26104 0
M  V30 22784 H 2113.17 -0.0782718 5.65646 0
M  V30 22785 H 2111.73 0.294274 6.51135 0
M  V30 22786 N 2115.16 -1.04814 1.17694 0
M  V30 22787 C 2116.57 -1.5934 0.973022 0
M  V30 22788 C 2116.92 -1.90256 -0.479284 0
M  V30 22789 O 2116.05 -1.68704 -1.35528 0
M  V30 22790 C 2116.64 -2.89503 1.75993 0
M  V30 22791 C 2115.2 -3.40674 1.60058 0
M  V30 22792 C 2114.35 -2.14356 1.75916 0
M  V30 22793 H 2117.3 -0.87578 1.32347 0
M  V30 22794 H 2117.32 -3.5957 1.24457 0
M  V30 22795 H 2116.83 -2.6697 2.81689 0
M  V30 22796 H 2114.93 -3.68235 0.568665 0
M  V30 22797 H 2115.05 -4.15004 2.39393 0
M  V30 22798 H 2113.41 -2.25301 1.18793 0
M  V30 22799 H 2114.19 -1.94288 2.83032 0
M  V30 22800 N 2116.64 -0.977779 -1.23601 0
M  V30 22801 C 2117.59 -0.51555 -2.24968 0
M  V30 22802 C 2118.56 0.4442 -1.6005 0
M  V30 22803 O 2119.74 0.352328 -1.87519 0
M  V30 22804 C 2116.88 0.17842 -3.44638 0
M  V30 22805 C 2115.99 -0.821283 -4.24121 0
M  V30 22806 C 2115.13 -0.102387 -5.31101 0
M  V30 22807 C 2114.17 -1.09148 -6.0229 0
M  V30 22808 N 2113.31 -0.401914 -7.00949 0
M  V30 22809 H 2118.15 -1.38475 -2.63872 0
M  V30 22810 H 2115.68 -0.693946 -1.29703 0
M  V30 22811 H 2117.64 0.597555 -4.12898 0
M  V30 22812 H 2116.27 1.01151 -3.06543 0
M  V30 22813 H 2115.32 -1.35882 -3.55303 0
M  V30 22814 H 2116.63 -1.5751 -4.73278 0
M  V30 22815 H 2115.79 0.374242 -6.05545 0
M  V30 22816 H 2114.53 0.684048 -4.82879 0
M  V30 22817 H 2113.53 -1.57889 -5.26641 0
M  V30 22818 H 2114.76 -1.87853 -6.52601 0
M  V30 22819 H 2112.7 0.365361 -6.54982 0
M  V30 22820 H 2112.62 -1.09443 -7.48036 0
M  V30 22821 H 2113.89 0.0524137 -7.79482 0
M  V30 22822 N 2118.12 1.38658 -0.749111 0
M  V30 22823 C 2119.35 2.04208 -0.313503 0
M  V30 22824 C 2119.76 1.56615 1.06153 0
M  V30 22825 O 2119.1 0.732462 1.68466 0
M  V30 22826 C 2119.16 3.58611 -0.252636 0
M  V30 22827 C 2118.82 4.29241 -1.56847 0
M  V30 22828 C 2119.82 4.5492 -2.51683 0
M  V30 22829 C 2117.51 4.67517 -1.83667 0
M  V30 22830 C 2119.5 5.17901 -3.71561 0
M  V30 22831 C 2117.19 5.30223 -3.0382 0
M  V30 22832 C 2118.19 5.5535 -3.97587 0
M  V30 22833 O 2117.87 6.16752 -5.15628 0
M  V30 22834 H 2117.61 0.662881 -0.132533 0
M  V30 22835 H 2120.16 1.7842 -1.01762 0
M  V30 22836 H 2118.39 3.83353 0.507689 0
M  V30 22837 H 2120.08 4.05612 0.152857 0
M  V30 22838 H 2120.84 4.25783 -2.32237 0
M  V30 22839 H 2116.72 4.47308 -1.1152 0
M  V30 22840 H 2120.27 5.37429 -4.44765 0
M  V30 22841 H 2116.16 5.58783 -3.2316 0
M  V30 22842 H 2116.93 6.35241 -5.1615 0
M  V30 22843 N 2119.6 0.497834 1.49531 0
M  V30 22844 C 2120.51 -0.286926 2.32839 0
M  V30 22845 C 2121.52 -0.970397 1.44427 0
M  V30 22846 O 2122.7 -0.952478 1.77454 0
M  V30 22847 C 2119.76 -1.33928 3.19788 0
M  V30 22848 C 2118.82 -0.669588 4.24046 0
M  V30 22849 C 2118.06 -1.67181 5.0684 0
M  V30 22850 O 2118.28 -2.90132 4.91101 0
M  V30 22851 O 2117.21 -1.22887 5.89222 0
M  V30 22852 H 2121.04 0.394869 3.01122 0
M  V30 22853 H 2118.62 0.259218 1.47134 0
M  V30 22854 H 2120.51 -1.94822 3.73661 0
M  V30 22855 H 2119.18 -2.00407 2.54202 0
M  V30 22856 H 2118.09 -0.0209922 3.74094 0
M  V30 22857 H 2119.42 -0.0473067 4.92177 0
M  V30 22858 N 2121.07 -1.5589 0.231532 0
M  V30 22859 C 2122.35 -1.90424 -0.446981 0
M  V30 22860 C 2122.73 -1.15023 -1.77011 0
M  V30 22861 O 2122.08 -0.262744 -2.26984 0
M  V30 22862 C 2122.29 -3.43264 -0.630152 0
M  V30 22863 C 2123.64 -4.14221 -0.933046 0
M  V30 22864 O 2124.66 -3.48918 -0.716578 0
M  V30 22865 O 2123.52 -5.29705 -1.34441 0
M  V30 22866 H 2120.61 -0.792099 -0.237715 0
M  V30 22867 H 2123.16 -1.67466 0.274458 0
M  V30 22868 H 2121.93 -3.90127 0.302739 0
M  V30 22869 H 2121.55 -3.72035 -1.40271 0
M  V30 22870 N 2122.55 0.0417572 -1.57545 0
M  V30 22871 C 2123.5 1.0648 -2.06796 0
M  V30 22872 C 2124.49 1.38234 -0.979162 0
M  V30 22873 O 2125.7 1.37288 -1.16413 0
M  V30 22874 H 2122.07 0.360857 -0.659762 0
M  V30 22875 H 2124.05 0.6235 -2.91813 0
M  V30 22876 C 2122.79 2.36114 -2.55236 0
M  V30 22877 H 2122.12 2.12537 -3.38627 0
M  V30 22878 H 2123.56 3.06072 -2.93421 0
M  V30 22879 C 2122.02 3.04191 -1.44808 0
M  V30 22880 O 2122.55 3.93508 -0.807098 0
M  V30 22881 N 2120.75 2.65308 -1.18574 0
M  V30 22882 H 2120.3 1.92763 -1.70881 0
M  V30 22883 H 2120.26 3.11178 -0.448987 0
M  V30 22884 N 2124.03 1.54445 0.313786 0
M  V30 22885 C 2125.28 1.72328 1.04814 0
M  V30 22886 C 2125.59 0.509186 1.88856 0
M  V30 22887 O 2126.8 0.569563 2.65459 0
M  V30 22888 C 2125.25 3.04843 1.91309 0
M  V30 22889 C 2124.86 4.33689 1.12331 0
M  V30 22890 C 2126.61 3.32087 2.6442 0
M  V30 22891 C 2124.51 5.5726 1.98028 0
M  V30 22892 H 2123.44 0.642234 0.395033 0
M  V30 22893 H 2126.09 1.80934 0.305823 0
M  V30 22894 H 2124.48 2.90169 2.69477 0
M  V30 22895 H 2125.65 4.59158 0.388648 0
M  V30 22896 H 2123.96 4.13283 0.508577 0
M  V30 22897 H 2126.56 4.21607 3.28864 0
M  V30 22898 H 2126.9 2.50397 3.32577 0
M  V30 22899 H 2127.44 3.47673 1.93308 0
M  V30 22900 H 2124.18 6.41581 1.34364 0
M  V30 22901 H 2123.7 5.35995 2.69201 0
M  V30 22902 H 2125.38 5.94035 2.56382 0
M  V30 22903 N 2125.51 -0.576345 1.46683 0
M  V30 22904 C 2126.74 -1.35822 1.55679 0
M  V30 22905 C 2127.15 -1.8815 0.199067 0
M  V30 22906 O 2126.49 -1.64638 -0.814857 0
M  V30 22907 C 2126.55 -2.57736 2.50624 0
M  V30 22908 C 2126.21 -2.26831 3.96733 0
M  V30 22909 C 2127.21 -1.8528 4.85765 0
M  V30 22910 C 2124.9 -2.38779 4.41916 0
M  V30 22911 C 2126.89 -1.5608 6.17995 0
M  V30 22912 C 2124.58 -2.09192 5.74179 0
M  V30 22913 C 2125.58 -1.67909 6.62039 0
M  V30 22914 O 2125.26 -1.38688 7.91847 0
M  V30 22915 H 2125 -0.42105 0.52886 0
M  V30 22916 H 2127.55 -0.706986 1.92849 0
M  V30 22917 H 2125.78 -3.25686 2.08484 0
M  V30 22918 H 2127.47 -3.19807 2.49956 0
M  V30 22919 H 2128.23 -1.75558 4.52111 0
M  V30 22920 H 2124.11 -2.69874 3.7375 0
M  V30 22921 H 2127.66 -1.23783 6.8653 0
M  V30 22922 H 2123.55 -2.1854 6.0738 0
M  V30 22923 H 2124.32 -1.5248 8.04172 0
M  V30 22924 N 2126.99 -1.34495 -0.82151 0
M  V30 22925 C 2127.92 -1.20533 -1.93771 0
M  V30 22926 C 2128.9 -0.0966356 -1.62313 0
M  V30 22927 O 2130.08 -0.262043 -1.8667 0
M  V30 22928 C 2127.21 -0.852607 -3.27793 0
M  V30 22929 C 2126.25 -1.97125 -3.78211 0
M  V30 22930 S 2127.09 -3.5849 -3.97801 0
M  V30 22931 C 2128.24 -3.25262 -5.34748 0
M  V30 22932 H 2128.48 -2.15016 -2.05318 0
M  V30 22933 H 2126.01 -1.19538 -0.977241 0
M  V30 22934 H 2127.97 -0.655892 -4.05226 0
M  V30 22935 H 2126.63 0.0739118 -3.14013 0
M  V30 22936 H 2125.82 -1.67824 -4.75238 0
M  V30 22937 H 2125.42 -2.12553 -3.07729 0
M  V30 22938 H 2127.71 -2.77165 -6.18212 0
M  V30 22939 H 2128.66 -4.21434 -5.69034 0
M  V30 22940 H 2129.07 -2.61408 -5.00326 0
M  V30 22941 N 2128.46 1.04188 -1.18248 0
M  V30 22942 C 2129.69 1.80759 -1.00049 0
M  V30 22943 C 2130.1 1.83665 0.454284 0
M  V30 22944 O 2129.45 1.26996 1.32732 0
M  V30 22945 C 2129.51 3.27737 -1.47745 0
M  V30 22946 C 2129.17 3.48494 -2.95637 0
M  V30 22947 C 2130.17 3.39784 -3.93501 0
M  V30 22948 C 2127.85 3.7513 -3.3404 0
M  V30 22949 C 2129.85 3.57413 -5.27764 0
M  V30 22950 C 2127.53 3.92406 -4.68467 0
M  V30 22951 C 2128.53 3.83547 -5.65137 0
M  V30 22952 O 2128.22 4.0033 -6.97131 0
M  V30 22953 H 2127.95 0.576122 -0.353638 0
M  V30 22954 H 2130.51 1.32208 -1.57195 0
M  V30 22955 H 2128.74 3.77251 -0.84964 0
M  V30 22956 H 2130.43 3.85862 -1.25956 0
M  V30 22957 H 2131.19 3.19172 -3.65177 0
M  V30 22958 H 2127.07 3.81123 -2.59357 0
M  V30 22959 H 2130.61 3.50415 -6.03204 0
M  V30 22960 H 2126.51 4.12512 -4.96492 0
M  V30 22961 H 2127.28 4.17497 -7.04016 0
M  V30 22962 N 2129.94 0.98432 1.23081 0
M  V30 22963 C 2131.19 0.650883 1.90909 0
M  V30 22964 C 2131.5 -0.819701 1.77596 0
M  V30 22965 O 2132.71 -1.26436 2.40263 0
M  V30 22966 C 2131.17 1.11359 3.42239 0
M  V30 22967 C 2130.77 2.60879 3.64206 0
M  V30 22968 C 2132.52 0.854079 4.15819 0
M  V30 22969 C 2130.43 3.00797 5.09191 0
M  V30 22970 H 2129.36 0.239743 0.71487 0
M  V30 22971 H 2132.01 1.19274 1.39449 0
M  V30 22972 H 2130.39 0.499916 3.92832 0
M  V30 22973 H 2131.56 3.27519 3.24142 0
M  V30 22974 H 2129.88 2.84619 3.03942 0
M  V30 22975 H 2132.47 1.12812 5.22664 0
M  V30 22976 H 2132.82 -0.209813 4.15771 0
M  V30 22977 H 2133.35 1.42952 3.71227 0
M  V30 22978 H 2130.09 4.06326 5.14373 0
M  V30 22979 H 2129.61 2.38854 5.5019 0
M  V30 22980 H 2131.29 2.9162 5.77552 0
M  V30 22981 N 2131.42 -1.38259 0.756453 0
M  V30 22982 C 2132.65 -2.04038 0.324328 0
M  V30 22983 C 2133.06 -1.57176 -1.05321 0
M  V30 22984 O 2132.4 -0.741386 -1.68075 0
M  V30 22985 C 2132.46 -3.58472 0.271651 0
M  V30 22986 C 2132.13 -4.28403 1.59121 0
M  V30 22987 C 2133.12 -4.53578 2.54092 0
M  V30 22988 C 2130.81 -4.66536 1.86143 0
M  V30 22989 C 2132.8 -5.15923 3.74302 0
M  V30 22990 C 2130.49 -5.28605 3.06627 0
M  V30 22991 C 2131.49 -5.53233 4.00527 0
M  V30 22992 O 2131.18 -6.14009 5.18892 0
M  V30 22993 H 2130.91 -0.662169 0.136046 0
M  V30 22994 H 2133.46 -1.77878 1.02707 0
M  V30 22995 H 2131.69 -3.83617 -0.487352 0
M  V30 22996 H 2133.38 -4.05687 -0.131344 0
M  V30 22997 H 2134.15 -4.24545 2.34492 0
M  V30 22998 H 2130.03 -4.4671 1.1389 0
M  V30 22999 H 2133.57 -5.35063 4.47609 0
M  V30 23000 H 2129.47 -5.57061 3.26119 0
M  V30 23001 H 2130.24 -6.32495 5.19512 0
M  V30 23002 N 2132.9 -0.505757 -1.49264 0
M  V30 23003 C 2134.15 0.0370719 -2.02466 0
M  V30 23004 C 2134.47 1.36554 -1.38504 0
M  V30 23005 O 2133.73 1.88895 -0.51159 0
M  V30 23006 C 2134.03 0.233245 -3.56638 0
M  V30 23007 C 2133.69 -1.01781 -4.39262 0
M  V30 23008 C 2132.36 -1.36074 -4.6156 0
M  V30 23009 C 2134.71 -1.84918 -4.87293 0
M  V30 23010 C 2132.04 -2.53445 -5.29134 0
M  V30 23011 C 2134.39 -3.01446 -5.56159 0
M  V30 23012 C 2133.05 -3.36113 -5.76701 0
M  V30 23013 H 2132.32 0.0135656 -0.740876 0
M  V30 23014 H 2134.97 -0.666878 -1.79513 0
M  V30 23015 H 2133.27 1.01976 -3.78296 0
M  V30 23016 H 2134.97 0.66778 -3.95401 0
M  V30 23017 H 2131.56 -0.740706 -4.22151 0
M  V30 23018 H 2135.74 -1.59738 -4.69891 0
M  V30 23019 H 2131 -2.80536 -5.4324 0
M  V30 23020 H 2135.17 -3.66189 -5.9235 0
M  V30 23021 H 2132.8 -4.27163 -6.28837 0
M  V30 23022 N 2134.38 1.55765 -0.239796 0
M  V30 23023 C 2135.62 1.99064 0.387489 0
M  V30 23024 C 2135.96 1.12765 1.58107 0
M  V30 23025 O 2135.23 0.189423 1.93575 0
M  V30 23026 C 2135.51 3.51003 0.80429 0
M  V30 23027 C 2135.37 4.48069 -0.394185 0
M  V30 23028 C 2136.69 4.07842 1.65386 0
M  V30 23029 H 2133.8 0.723702 0.139371 0
M  V30 23030 H 2136.45 1.86939 -0.339685 0
M  V30 23031 H 2134.6 3.61466 1.42388 0
M  V30 23032 H 2136.27 4.49595 -1.03255 0
M  V30 23033 H 2134.51 4.21186 -1.03852 0
M  V30 23034 H 2135.18 5.51968 -0.0593288 0
M  V30 23035 H 2137.66 4.00437 1.13092 0
M  V30 23036 H 2136.53 5.14435 1.91436 0
M  V30 23037 H 2136.8 3.55856 2.62333 0
M  V30 23038 N 2135.85 -0.0334016 1.57565 0
M  V30 23039 C 2137.1 -0.724102 1.88254 0
M  V30 23040 C 2137.42 -1.76752 0.837737 0
M  V30 23041 O 2138.62 -2.51051 1.03372 0
M  V30 23042 C 2137.08 -1.33894 3.34067 0
M  V30 23043 C 2136.69 -0.332091 4.46767 0
M  V30 23044 C 2138.43 -2.00977 3.7391 0
M  V30 23045 C 2136.34 -0.955024 5.83638 0
M  V30 23046 H 2135.27 -0.274201 0.702375 0
M  V30 23047 H 2137.92 0.0216608 1.83487 0
M  V30 23048 H 2136.3 -2.13426 3.33565 0
M  V30 23049 H 2137.47 0.436205 4.58731 0
M  V30 23050 H 2135.79 0.236407 4.15728 0
M  V30 23051 H 2138.39 -2.48428 4.73485 0
M  V30 23052 H 2138.73 -2.82605 3.05679 0
M  V30 23053 H 2139.26 -1.28225 3.76568 0
M  V30 23054 H 2136 -0.178244 6.55258 0
M  V30 23055 H 2135.52 -1.69326 5.75403 0
M  V30 23056 H 2137.2 -1.46364 6.30227 0
M  V30 23057 N 2137.33 -1.54609 -0.305591 0
M  V30 23058 C 2138.58 -1.73672 -1.04137 0
M  V30 23059 C 2138.91 -0.520024 -1.87419 0
M  V30 23060 O 2138.16 0.49808 -1.89256 0
M  V30 23061 C 2138.46 -2.97546 -1.97993 0
M  V30 23062 C 2138.13 -4.31535 -1.30723 0
M  V30 23063 C 2136.79 -4.67958 -1.12109 0
M  V30 23064 C 2139.14 -5.14614 -0.825937 0
M  V30 23065 C 2136.47 -5.85045 -0.440427 0
M  V30 23066 C 2138.82 -6.324 -0.159014 0
M  V30 23067 C 2137.49 -6.67489 0.0391208 0
M  V30 23068 H 2136.76 -0.635509 -0.381063 0
M  V30 23069 H 2139.4 -1.88863 -0.316695 0
M  V30 23070 H 2137.71 -2.77116 -2.76973 0
M  V30 23071 H 2139.4 -3.09489 -2.54985 0
M  V30 23072 H 2135.99 -4.02888 -1.46217 0
M  V30 23073 H 2140.18 -4.86977 -0.957472 0
M  V30 23074 H 2135.43 -6.10777 -0.275887 0
M  V30 23075 H 2139.61 -6.96047 0.221841 0
M  V30 23076 H 2137.24 -7.58071 0.568561 0
M  V30 23077 N 2138.81 0.568558 -1.46987 0
M  V30 23078 C 2140.06 1.32251 -1.52291 0
M  V30 23079 C 2140.37 1.94723 -0.184983 0
M  V30 23080 O 2141.58 2.71252 -0.115932 0
M  V30 23081 C 2140.03 2.3976 -2.68408 0
M  V30 23082 C 2139.64 1.83528 -4.08682 0
M  V30 23083 C 2141.39 3.16408 -2.82996 0
M  V30 23084 C 2139.29 2.88751 -5.16117 0
M  V30 23085 H 2138.22 0.497223 -0.56682 0
M  V30 23086 H 2140.87 0.605168 -1.73234 0
M  V30 23087 H 2139.26 3.14357 -2.40823 0
M  V30 23088 H 2140.43 1.1538 -4.46121 0
M  V30 23089 H 2138.75 1.19503 -3.98884 0
M  V30 23090 H 2141.34 3.94962 -3.60429 0
M  V30 23091 H 2141.69 3.69886 -1.91024 0
M  V30 23092 H 2142.22 2.4892 -3.10296 0
M  V30 23093 H 2138.96 2.40142 -6.09928 0
M  V30 23094 H 2138.48 3.55345 -4.83208 0
M  V30 23095 H 2140.16 3.52449 -5.42576 0
M  V30 23096 N 2140.29 1.34929 0.814366 0
M  V30 23097 C 2141.54 1.27105 1.56612 0
M  V30 23098 C 2141.85 -0.154812 1.94986 0
M  V30 23099 O 2143.06 -0.355268 2.69166 0
M  V30 23100 C 2141.51 2.22863 2.82595 0
M  V30 23101 C 2141.12 3.70753 2.51489 0
M  V30 23102 C 2142.86 2.23965 3.6061 0
M  V30 23103 C 2140.77 4.58355 3.73717 0
M  V30 23104 H 2139.7 0.472214 0.587818 0
M  V30 23105 H 2142.35 1.60146 0.895848 0
M  V30 23106 H 2140.73 1.82784 3.51292 0
M  V30 23107 H 2141.91 4.19421 1.90848 0
M  V30 23108 H 2140.22 3.72182 1.86733 0
M  V30 23109 H 2142.82 2.86634 4.51381 0
M  V30 23110 H 2143.16 1.24126 3.97364 0
M  V30 23111 H 2143.7 2.62533 2.98866 0
M  V30 23112 H 2140.44 5.59163 3.42077 0
M  V30 23113 H 2139.96 4.14418 4.3361 0
M  V30 23114 H 2141.63 4.73391 4.41033 0
M  V30 23115 N 2141.77 -1.0356 1.18799 0
M  V30 23116 C 2143.01 -1.76847 0.986484 0
M  V30 23117 C 2143.34 -1.88397 -0.483413 0
M  V30 23118 O 2142.6 -1.39239 -1.37517 0
M  V30 23119 C 2142.9 -3.19959 1.59252 0
M  V30 23120 C 2142.56 -3.28431 3.0894 0
M  V30 23121 C 2141.22 -3.30451 3.49794 0
M  V30 23122 C 2143.58 -3.2812 4.04953 0
M  V30 23123 C 2140.9 -3.29807 4.85226 0
M  V30 23124 C 2143.26 -3.29016 5.40306 0
M  V30 23125 C 2141.92 -3.2933 5.80601 0
M  V30 23126 H 2141.19 -0.647128 0.36098 0
M  V30 23127 H 2143.84 -1.21597 1.47941 0
M  V30 23128 H 2142.14 -3.78243 1.02172 0
M  V30 23129 H 2143.84 -3.75319 1.41197 0
M  V30 23130 H 2140.43 -3.27583 2.76382 0
M  V30 23131 H 2144.61 -3.25746 3.74437 0
M  V30 23132 H 2139.87 -3.2837 5.15736 0
M  V30 23133 H 2144.04 -3.27726 6.14466 0
M  V30 23134 H 2141.67 -3.28585 6.85519 0
M  V30 23135 N 2143.25 -0.990834 -1.22557 0
M  V30 23136 C 2144.49 -0.664218 -1.90873 0
M  V30 23137 C 2144.81 0.80601 -1.77563 0
M  V30 23138 O 2144.08 1.57751 -1.16153 0
M  V30 23139 H 2142.66 -0.242684 -0.70648 0
M  V30 23140 H 2145.33 -1.2569 -1.48957 0
M  V30 23141 H 2144.42 -0.924949 -2.98079 0
M  V30 23142 N 2144.72 1.37856 -0.763775 0
M  V30 23143 C 2145.95 2.04686 -0.334395 0
M  V30 23144 C 2146.37 1.57229 1.0325 0
M  V30 23145 O 2145.73 0.728884 1.66003 0
M  V30 23146 C 2145.78 3.58616 -0.377715 0
M  V30 23147 O 2144.88 4.07641 0.624687 0
M  V30 23148 H 2144.22 0.647714 -0.146161 0
M  V30 23149 H 2146.75 1.76329 -1.03774 0
M  V30 23150 H 2146.76 4.07339 -0.232185 0
M  V30 23151 H 2145.44 3.92514 -1.37496 0
M  V30 23152 H 2144.02 3.7026 0.442931 0
M  V30 23153 N 2146.2 0.513665 1.48994 0
M  V30 23154 C 2147.45 -0.0263341 2.02483 0
M  V30 23155 C 2147.78 -1.35817 1.39226 0
M  V30 23156 O 2147.03 -1.88621 0.5216 0
M  V30 23157 C 2147.33 -0.214329 3.56757 0
M  V30 23158 C 2147 1.0411 4.38716 0
M  V30 23159 C 2145.66 1.3852 4.60832 0
M  V30 23160 C 2148.01 1.87499 4.86306 0
M  V30 23161 C 2145.34 2.56248 5.27782 0
M  V30 23162 C 2147.69 3.04392 5.54553 0
M  V30 23163 C 2146.35 3.39167 5.7491 0
M  V30 23164 H 2145.62 -0.00963634 0.740937 0
M  V30 23165 H 2148.27 0.676388 1.79157 0
M  V30 23166 H 2146.58 -0.999685 3.78832 0
M  V30 23167 H 2148.27 -0.646802 3.95749 0
M  V30 23168 H 2144.86 0.763083 4.21752 0
M  V30 23169 H 2149.05 1.62228 4.69037 0
M  V30 23170 H 2144.3 2.83413 5.41744 0
M  V30 23171 H 2148.48 3.69325 5.904 0
M  V30 23172 H 2146.1 4.30492 6.26562 0
M  V30 23173 N 2147.68 -1.55636 0.248053 0
M  V30 23174 C 2148.93 -1.98972 -0.37637 0
M  V30 23175 C 2149.25 -1.1362 -1.57863 0
M  V30 23176 O 2148.51 -0.187287 -1.94802 0
M  V30 23177 C 2148.81 -3.47664 -0.828526 0
M  V30 23178 C 2148.47 -4.50114 0.266108 0
M  V30 23179 C 2147.14 -4.77851 0.566745 0
M  V30 23180 C 2149.49 -5.11418 1.00506 0
M  V30 23181 C 2146.82 -5.64166 1.61039 0
M  V30 23182 C 2149.17 -5.98865 2.03823 0
M  V30 23183 C 2147.83 -6.24934 2.3455 0
M  V30 23184 H 2147.1 -0.728089 -0.137723 0
M  V30 23185 H 2149.75 -1.8816 0.356118 0
M  V30 23186 H 2148.05 -3.55814 -1.64024 0
M  V30 23187 H 2149.75 -3.78583 -1.32196 0
M  V30 23188 H 2146.34 -4.28595 0.0216504 0
M  V30 23189 H 2150.53 -4.90036 0.786048 0
M  V30 23190 H 2145.78 -5.82619 1.85378 0
M  V30 23191 H 2149.96 -6.45409 2.61573 0
M  V30 23192 H 2147.58 -6.91612 3.15558 0
M  V30 23193 N 2149.16 0.0250451 -1.5758 0
M  V30 23194 C 2150.39 0.72671 -1.93718 0
M  V30 23195 C 2150.8 1.68677 -0.848148 0
M  V30 23196 O 2150.16 1.81658 0.175105 0
M  V30 23197 C 2150.21 1.4803 -3.29802 0
M  V30 23198 O 2149.93 0.55877 -4.34522 0
M  V30 23199 C 2151.43 2.27876 -3.80247 0
M  V30 23200 H 2148.65 0.203986 -0.639242 0
M  V30 23201 H 2151.19 -0.0186251 -2.04492 0
M  V30 23202 H 2149.35 2.17748 -3.20413 0
M  V30 23203 H 2149.76 1.08769 -5.13098 0
M  V30 23204 H 2151.24 2.7614 -4.77965 0
M  V30 23205 H 2151.71 3.09471 -3.11648 0
M  V30 23206 H 2152.32 1.63224 -3.92731 0
M  V30 23207 N 2150.64 1.54769 0.297388 0
M  V30 23208 C 2151.57 1.88972 1.37157 0
M  V30 23209 C 2152.55 0.748993 1.52722 0
M  V30 23210 O 2153.73 1.00504 1.6617 0
M  V30 23211 C 2150.86 2.1402 2.73519 0
M  V30 23212 C 2149.82 3.29865 2.72714 0
M  V30 23213 C 2149.14 3.4034 4.12399 0
M  V30 23214 C 2150.44 4.66881 2.34135 0
M  V30 23215 H 2152.14 2.7894 1.0878 0
M  V30 23216 H 2149.68 1.34212 0.521848 0
M  V30 23217 H 2151.63 2.36533 3.48755 0
M  V30 23218 H 2150.36 1.20827 3.03428 0
M  V30 23219 H 2149.02 3.07281 1.99934 0
M  V30 23220 H 2148.67 2.44657 4.3949 0
M  V30 23221 H 2148.37 4.18214 4.1276 0
M  V30 23222 H 2149.89 3.65118 4.89409 0
M  V30 23223 H 2151.3 4.89101 2.99087 0
M  V30 23224 H 2149.7 5.47495 2.45703 0
M  V30 23225 H 2150.77 4.67354 1.29261 0
M  V30 23226 N 2152.11 -0.560755 1.47286 0
M  V30 23227 C 2153.06 -1.68914 1.59908 0
M  V30 23228 C 2154.06 -1.62849 0.466545 0
M  V30 23229 O 2155.26 -1.68077 0.644218 0
M  V30 23230 H 2151.64 -0.558856 0.503174 0
M  V30 23231 H 2153.61 -1.55405 2.54739 0
M  V30 23232 C 2152.36 -3.07274 1.62721 0
M  V30 23233 H 2151.68 -3.12622 2.49214 0
M  V30 23234 H 2153.12 -3.85927 1.75603 0
M  V30 23235 C 2151.58 -3.34973 0.359852 0
M  V30 23236 O 2152.11 -3.98046 -0.540583 0
M  V30 23237 N 2150.31 -2.89599 0.24097 0
M  V30 23238 H 2149.86 -2.3845 0.974638 0
M  V30 23239 H 2149.82 -3.08503 -0.606066 0
M  V30 23240 N 2153.59 -1.35359 -0.807199 0
M  V30 23241 C 2154.52 -1.30893 -1.93363 0
M  V30 23242 C 2155.5 -0.183475 -1.69108 0
M  V30 23243 O 2156.69 -0.378339 -1.90479 0
M  V30 23244 C 2153.82 -1.07954 -3.30096 0
M  V30 23245 C 2152.77 -2.17133 -3.68832 0
M  V30 23246 C 2152.1 -1.7936 -5.0372 0
M  V30 23247 C 2153.4 -3.59094 -3.79274 0
M  V30 23248 H 2155.09 -2.25145 -1.97357 0
M  V30 23249 H 2152.64 -1.08381 -0.948131 0
M  V30 23250 H 2154.59 -1.03469 -4.085 0
M  V30 23251 H 2153.31 -0.101468 -3.26442 0
M  V30 23252 H 2151.97 -2.20714 -2.92713 0
M  V30 23253 H 2151.62 -0.801733 -4.96569 0
M  V30 23254 H 2151.32 -2.52445 -5.30608 0
M  V30 23255 H 2152.85 -1.764 -5.84564 0
M  V30 23256 H 2154.26 -3.57839 -4.47911 0
M  V30 23257 H 2152.66 -4.30934 -4.17632 0
M  V30 23258 H 2153.73 -3.9529 -2.80845 0
M  V30 23259 N 2155.07 1.02928 -1.19346 0
M  V30 23260 C 2156.32 1.76321 -0.995848 0
M  V30 23261 C 2156.64 1.88651 0.473415 0
M  V30 23262 O 2155.9 1.39967 1.36776 0
M  V30 23263 C 2156.2 3.1911 -1.60946 0
M  V30 23264 C 2155.86 3.26788 -3.10677 0
M  V30 23265 C 2154.53 3.28591 -3.51541 0
M  V30 23266 C 2156.88 3.25968 -4.06687 0
M  V30 23267 C 2154.21 3.27229 -4.86968 0
M  V30 23268 C 2156.56 3.26146 -5.42044 0
M  V30 23269 C 2155.22 3.26247 -5.8234 0
M  V30 23270 H 2154.49 0.645204 -0.364407 0
M  V30 23271 H 2157.14 1.20811 -1.48584 0
M  V30 23272 H 2155.44 3.77696 -1.04177 0
M  V30 23273 H 2157.14 3.74565 -1.43185 0
M  V30 23274 H 2153.73 3.26113 -2.78116 0
M  V30 23275 H 2157.92 3.23756 -3.76159 0
M  V30 23276 H 2153.17 3.2563 -5.1747 0
M  V30 23277 H 2157.35 3.24462 -6.16196 0
M  V30 23278 H 2154.97 3.24945 -6.87252 0
M  V30 23279 N 2156.55 0.997319 1.2203 0
M  V30 23280 C 2157.8 0.671095 1.90208 0
M  V30 23281 C 2158.11 -0.800818 1.78455 0
M  V30 23282 O 2159.32 -1.23881 2.4159 0
M  V30 23283 C 2157.77 1.14983 3.41038 0
M  V30 23284 C 2157.38 2.64727 3.61419 0
M  V30 23285 C 2159.12 0.898134 4.1489 0
M  V30 23286 C 2157.03 3.06181 5.05972 0
M  V30 23287 H 2155.96 0.247312 0.712287 0
M  V30 23288 H 2158.61 1.20747 1.38176 0
M  V30 23289 H 2156.99 0.541553 3.92279 0
M  V30 23290 H 2158.17 3.30938 3.2065 0
M  V30 23291 H 2156.48 2.87827 3.00906 0
M  V30 23292 H 2159.08 1.18349 5.21438 0
M  V30 23293 H 2159.42 -0.165703 4.1597 0
M  V30 23294 H 2159.96 1.46882 3.6969 0
M  V30 23295 H 2156.69 4.11759 5.10034 0
M  V30 23296 H 2156.21 2.44676 5.47625 0
M  V30 23297 H 2157.89 2.97729 5.74427 0
M  V30 23298 N 2158.03 -1.37449 0.771075 0
M  V30 23299 C 2159.27 -1.99314 0.33443 0
M  V30 23300 C 2159.6 -1.61515 -1.0926 0
M  V30 23301 O 2158.87 -0.880278 -1.75008 0
M  V30 23302 H 2157.45 -0.73719 0.120664 0
M  V30 23303 H 2160.11 -1.6794 0.989052 0
M  V30 23304 H 2159.2 -3.09375 0.411526 0
M  V30 23305 N 2159.5 -0.52156 -1.4872 0
M  V30 23306 C 2160.75 0.0156187 -2.02794 0
M  V30 23307 C 2161.08 1.34729 -1.39863 0
M  V30 23308 O 2160.36 1.86812 -0.541426 0
M  V30 23309 C 2160.64 0.146526 -3.59802 0
M  V30 23310 C 2160.49 -1.20972 -4.33227 0
M  V30 23311 C 2161.81 0.87737 -4.31266 0
M  V30 23312 H 2158.93 0.00420207 -0.736988 0
M  V30 23313 H 2161.57 -0.676958 -1.77531 0
M  V30 23314 H 2159.72 0.736393 -3.81457 0
M  V30 23315 H 2161.4 -1.84005 -4.23013 0
M  V30 23316 H 2159.64 -1.79378 -3.94976 0
M  V30 23317 H 2160.31 -1.07121 -5.41506 0
M  V30 23318 H 2162.79 0.376892 -4.1439 0
M  V30 23319 H 2161.66 0.937846 -5.40829 0
M  V30 23320 H 2161.92 1.92578 -3.97953 0
M  V30 23321 N 2160.98 1.55502 -0.256304 0
M  V30 23322 C 2162.23 1.98345 0.366351 0
M  V30 23323 C 2162.54 1.14786 1.58378 0
M  V30 23324 O 2163.75 1.47686 2.27818 0
M  V30 23325 C 2162.21 3.52964 0.703174 0
M  V30 23326 C 2161.81 4.45275 -0.493386 0
M  V30 23327 C 2163.56 4.04441 1.2895 0
M  V30 23328 C 2161.47 5.91252 -0.132195 0
M  V30 23329 H 2160.4 0.740764 0.140656 0
M  V30 23330 H 2163.05 1.79974 -0.358 0
M  V30 23331 H 2161.43 3.67065 1.48591 0
M  V30 23332 H 2162.6 4.42936 -1.27059 0
M  V30 23333 H 2160.92 4.04331 -0.995272 0
M  V30 23334 H 2163.51 5.11032 1.57322 0
M  V30 23335 H 2163.86 3.52348 2.21713 0
M  V30 23336 H 2164.39 3.93703 0.569458 0
M  V30 23337 H 2161.13 6.47401 -1.02721 0
M  V30 23338 H 2160.65 5.96704 0.608619 0
M  V30 23339 H 2162.33 6.46384 0.282295 0
M  V30 23340 N 2162.46 -0.0166879 1.57591 0
M  V30 23341 C 2163.71 -0.704094 1.89012 0
M  V30 23342 C 2164.02 -1.75854 0.856437 0
M  V30 23343 O 2165.23 -2.4994 1.06029 0
M  V30 23344 C 2163.68 -1.30343 3.35468 0
M  V30 23345 C 2163.29 -0.284687 4.47095 0
M  V30 23346 C 2165.04 -1.96999 3.76021 0
M  V30 23347 C 2162.94 -0.893068 5.84618 0
M  V30 23348 H 2161.87 -0.266736 0.705243 0
M  V30 23349 H 2164.52 0.0411208 1.83454 0
M  V30 23350 H 2162.91 -2.09876 3.3581 0
M  V30 23351 H 2164.08 0.484835 4.58242 0
M  V30 23352 H 2162.4 0.280487 4.15454 0
M  V30 23353 H 2164.99 -2.43392 4.76093 0
M  V30 23354 H 2165.34 -2.79347 3.0866 0
M  V30 23355 H 2165.87 -1.24224 3.77906 0
M  V30 23356 H 2162.61 -0.108736 6.5541 0
M  V30 23357 H 2162.13 -1.63214 5.77167 0
M  V30 23358 H 2163.81 -1.39672 6.31744 0
M  V30 23359 N 2163.94 -1.54924 -0.289176 0
M  V30 23360 C 2165.22 -1.65459 -1.04319 0
M  V30 23361 C 2165.6 -0.510528 -2.04834 0
M  V30 23362 O 2164.94 0.491374 -2.23154 0
M  V30 23363 C 2165.15 -3.03984 -1.71449 0
M  V30 23364 C 2166.5 -3.61196 -2.2321 0
M  V30 23365 O 2167.53 -3.06513 -1.81462 0
M  V30 23366 O 2166.38 -4.56967 -2.99739 0
M  V30 23367 H 2163.48 -0.671376 -0.482891 0
M  V30 23368 H 2166.02 -1.67267 -0.286321 0
M  V30 23369 H 2164.8 -3.78693 -0.985267 0
M  V30 23370 H 2164.42 -3.06005 -2.53863 0
M  V30 23371 N 2165.42 0.552936 -1.47582 0
M  V30 23372 C 2166.36 1.68064 -1.60802 0
M  V30 23373 C 2167.36 1.62599 -0.475175 0
M  V30 23374 O 2168.56 1.67733 -0.653122 0
M  V30 23375 H 2164.94 0.556179 -0.506131 0
M  V30 23376 H 2166.91 1.54051 -2.5556 0
M  V30 23377 C 2165.66 3.06407 -1.64348 0
M  V30 23378 H 2164.98 3.11295 -2.50869 0
M  V30 23379 H 2166.42 3.8499 -1.77647 0
M  V30 23380 C 2164.88 3.34777 -0.377611 0
M  V30 23381 O 2165.41 3.98327 0.519466 0
M  V30 23382 N 2163.62 2.89467 -0.256324 0
M  V30 23383 H 2163.16 2.3793 -0.98727 0
M  V30 23384 H 2163.12 3.0882 0.589696 0
M  V30 23385 N 2166.89 1.35785 0.800009 0
M  V30 23386 C 2168.14 1.29425 1.55741 0
M  V30 23387 C 2168.47 -0.129487 1.94068 0
M  V30 23388 O 2167.72 -1.09631 1.6211 0
M  V30 23389 C 2168.02 2.15261 2.85302 0
M  V30 23390 C 2167.69 3.63962 2.66162 0
M  V30 23391 C 2166.35 4.04493 2.60651 0
M  V30 23392 C 2168.7 4.58288 2.48238 0
M  V30 23393 C 2166.03 5.37507 2.35166 0
M  V30 23394 C 2168.38 5.91507 2.24281 0
M  V30 23395 C 2167.05 6.31175 2.17195 0
M  V30 23396 H 2166.32 0.473601 0.569898 0
M  V30 23397 H 2168.96 1.67742 0.923842 0
M  V30 23398 H 2167.27 1.69846 3.53071 0
M  V30 23399 H 2168.97 2.07672 3.43036 0
M  V30 23400 H 2165.56 3.31802 2.71303 0
M  V30 23401 H 2169.74 4.27854 2.51504 0
M  V30 23402 H 2165 5.67235 2.28154 0
M  V30 23403 H 2169.17 6.64171 2.09403 0
M  V30 23404 H 2166.8 7.34175 1.9721 0
M  V30 23405 N 2168.37 -1.02294 1.19891 0
M  V30 23406 C 2169.32 -2.12815 0.938741 0
M  V30 23407 C 2170.31 -1.69058 -0.107611 0
M  V30 23408 O 2171.52 -1.79951 0.042175 0
M  V30 23409 H 2167.9 -0.695408 0.286203 0
M  V30 23410 H 2169.87 -2.31946 1.87732 0
M  V30 23411 C 2168.62 -3.4408 0.500448 0
M  V30 23412 H 2167.94 -3.78172 1.29716 0
M  V30 23413 H 2169.38 -4.2249 0.357569 0
M  V30 23414 C 2167.84 -3.27596 -0.786307 0
M  V30 23415 O 2168.37 -3.56756 -1.84629 0
M  V30 23416 N 2166.57 -2.80865 -0.745861 0
M  V30 23417 H 2166.12 -2.57334 0.116994 0
M  V30 23418 H 2166.08 -2.70217 -1.60718 0
M  V30 23419 N 2169.85 -1.00378 -1.21499 0
M  V30 23420 C 2170.78 -0.521384 -2.23191 0
M  V30 23421 C 2171.8 0.389369 -1.58075 0
M  V30 23422 O 2172.98 0.189763 -1.77488 0
M  V30 23423 C 2170.08 0.262422 -3.37882 0
M  V30 23424 C 2169.26 -0.647107 -4.32587 0
M  V30 23425 C 2168.32 0.0868769 -5.26128 0
M  V30 23426 O 2167.34 -0.531365 -5.66714 0
M  V30 23427 N 2168.54 1.36582 -5.64203 0
M  V30 23428 H 2171.31 -1.39587 -2.65208 0
M  V30 23429 H 2168.87 -0.879774 -1.3591 0
M  V30 23430 H 2170.86 0.762368 -3.97454 0
M  V30 23431 H 2169.43 1.03809 -2.9486 0
M  V30 23432 H 2168.65 -1.32756 -3.71173 0
M  V30 23433 H 2169.94 -1.26613 -4.92795 0
M  V30 23434 H 2169.34 1.88926 -5.3322 0
M  V30 23435 H 2167.9 1.81075 -6.26143 0
M  V30 23436 N 2171.33 1.37038 -0.778354 0
M  V30 23437 C 2172.26 2.28847 -0.127244 0
M  V30 23438 C 2173.27 1.48951 0.657071 0
M  V30 23439 O 2174.46 1.71526 0.494075 0
M  V30 23440 C 2171.56 3.28242 0.843228 0
M  V30 23441 C 2170.74 4.37258 0.111327 0
M  V30 23442 C 2169.79 5.16685 0.996125 0
M  V30 23443 O 2168.82 5.67359 0.457454 0
M  V30 23444 N 2170.02 5.32051 2.32167 0
M  V30 23445 H 2172.79 2.85364 -0.915817 0
M  V30 23446 H 2170.35 1.49085 -0.631281 0
M  V30 23447 H 2172.34 3.78263 1.43873 0
M  V30 23448 H 2170.91 2.72445 1.53273 0
M  V30 23449 H 2170.13 3.88548 -0.66515 0
M  V30 23450 H 2171.42 5.07271 -0.394155 0
M  V30 23451 H 2170.82 4.92476 2.78358 0
M  V30 23452 H 2169.37 5.85356 2.86708 0
M  V30 23453 N 2172.81 0.529439 1.48441 0
M  V30 23454 C 2173.75 -0.233627 2.29615 0
M  V30 23455 C 2174.72 -0.934301 1.37332 0
M  V30 23456 O 2175.91 -0.935433 1.66296 0
M  V30 23457 C 2173.05 -1.27491 3.20687 0
M  V30 23458 C 2172.16 -0.583135 4.28046 0
M  V30 23459 C 2171.3 -1.6073 5.06299 0
M  V30 23460 C 2170.34 -0.898962 6.05463 0
M  V30 23461 N 2169.47 -1.86865 6.76776 0
M  V30 23462 H 2174.31 0.464768 2.94353 0
M  V30 23463 H 2171.85 0.241037 1.45112 0
M  V30 23464 H 2173.81 -1.89092 3.71887 0
M  V30 23465 H 2172.44 -1.9417 2.57872 0
M  V30 23466 H 2171.49 0.146804 3.80117 0
M  V30 23467 H 2172.8 -0.0269268 4.98793 0
M  V30 23468 H 2171.96 -2.29761 5.61511 0
M  V30 23469 H 2170.7 -2.19741 4.35391 0
M  V30 23470 H 2169.7 -0.194579 5.49456 0
M  V30 23471 H 2170.93 -0.314978 6.78369 0
M  V30 23472 H 2168.87 -2.44784 6.08619 0
M  V30 23473 H 2168.79 -1.36386 7.43596 0
M  V30 23474 H 2170.06 -2.55096 7.36577 0
M  V30 23475 N 2174.29 -1.55364 0.264547 0
M  V30 23476 C 2175.23 -2.22106 -0.62749 0
M  V30 23477 C 2176.2 -1.1909 -1.15788 0
M  V30 23478 O 2177.39 -1.47597 -1.20912 0
M  V30 23479 C 2174.53 -2.93783 -1.81068 0
M  V30 23480 C 2173.64 -4.11495 -1.31515 0
M  V30 23481 C 2172.78 -4.70842 -2.45929 0
M  V30 23482 C 2171.81 -5.80768 -1.93326 0
M  V30 23483 N 2170.95 -6.34223 -3.01173 0
M  V30 23484 H 2175.79 -2.97955 -0.0516766 0
M  V30 23485 H 2173.33 -1.47094 -0.0137419 0
M  V30 23486 H 2175.29 -3.33549 -2.50601 0
M  V30 23487 H 2173.92 -2.20376 -2.35869 0
M  V30 23488 H 2172.97 -3.76921 -0.513271 0
M  V30 23489 H 2174.28 -4.908 -0.88977 0
M  V30 23490 H 2173.43 -5.13274 -3.23474 0
M  V30 23491 H 2172.17 -3.90791 -2.91777 0
M  V30 23492 H 2171.18 -5.37797 -1.14257 0
M  V30 23493 H 2172.4 -6.62681 -1.48426 0
M  V30 23494 H 2170.35 -5.5707 -3.46423 0
M  V30 23495 H 2170.27 -7.08771 -2.63021 0
M  V30 23496 H 2171.53 -6.81313 -3.78725 0
M  V30 23497 N 2175.76 0.00833021 -1.57598 0
M  V30 23498 C 2176.71 1.00242 -2.07895 0
M  V30 23499 C 2177.68 1.34651 -0.972534 0
M  V30 23500 O 2178.87 1.44632 -1.24444 0
M  V30 23501 C 2176.01 2.2918 -2.58013 0
M  V30 23502 C 2175.12 2.00747 -3.82524 0
M  V30 23503 C 2174.25 3.23706 -4.21175 0
M  V30 23504 C 2173.29 2.90921 -5.38546 0
M  V30 23505 N 2172.43 4.06392 -5.72529 0
M  V30 23506 H 2177.27 0.566561 -2.92565 0
M  V30 23507 H 2174.81 0.268106 -1.44636 0
M  V30 23508 H 2176.76 3.04546 -2.85145 0
M  V30 23509 H 2175.39 2.7045 -1.76229 0
M  V30 23510 H 2174.45 1.15786 -3.6235 0
M  V30 23511 H 2175.76 1.72576 -4.67995 0
M  V30 23512 H 2174.91 4.07424 -4.49545 0
M  V30 23513 H 2173.65 3.55007 -3.34397 0
M  V30 23514 H 2172.66 2.05609 -5.09907 0
M  V30 23515 H 2173.88 2.60875 -6.26993 0
M  V30 23516 H 2171.83 4.37606 -4.88709 0
M  V30 23517 H 2171.74 3.81717 -6.52555 0
M  V30 23518 H 2173.01 4.90923 -6.05487 0
M  V30 23519 N 2177.24 1.55075 0.280956 0
M  V30 23520 C 2178.49 1.75306 1.01361 0
M  V30 23521 C 2178.82 0.549775 1.86568 0
M  V30 23522 O 2178.07 -0.467908 1.90024 0
M  V30 23523 C 2178.37 3.00658 1.93234 0
M  V30 23524 C 2178.04 4.3356 1.23841 0
M  V30 23525 C 2176.7 4.69683 1.0465 0
M  V30 23526 C 2179.05 5.15863 0.743962 0
M  V30 23527 C 2176.38 5.85671 0.347296 0
M  V30 23528 C 2178.73 6.32573 0.0583841 0
M  V30 23529 C 2177.39 6.67342 -0.145308 0
M  V30 23530 H 2176.66 0.641491 0.370905 0
M  V30 23531 H 2179.31 1.89343 0.286608 0
M  V30 23532 H 2177.62 2.81488 2.72529 0
M  V30 23533 H 2179.31 3.13507 2.50029 0
M  V30 23534 H 2175.9 4.05163 1.39788 0
M  V30 23535 H 2180.09 4.88438 0.879877 0
M  V30 23536 H 2175.34 6.11139 0.178683 0
M  V30 23537 H 2179.52 6.95606 -0.332548 0
M  V30 23538 H 2177.14 7.5707 -0.689091 0
M  V30 23539 N 2178.72 -0.545102 1.47873 0
M  V30 23540 C 2179.97 -1.29914 1.54812 0
M  V30 23541 C 2180.29 -1.93786 0.217214 0
M  V30 23542 O 2179.56 -1.80559 -0.759941 0
M  V30 23543 H 2178.14 -0.482471 0.57029 0
M  V30 23544 H 2180.8 -0.635565 1.84246 0
M  V30 23545 H 2179.9 -2.08635 2.32116 0
M  V30 23546 N 2180.2 -1.36208 -0.792797 0
M  V30 23547 C 2181.45 -1.29992 -1.54746 0
M  V30 23548 C 2181.77 0.121446 -1.94621 0
M  V30 23549 O 2181.04 1.06096 -1.64683 0
M  V30 23550 H 2179.62 -0.478184 -0.573889 0
M  V30 23551 H 2182.28 -1.70466 -0.944845 0
M  V30 23552 H 2181.37 -1.92505 -2.45658 0
M  V30 23553 N 2181.68 1.01656 -1.20431 0
M  V30 23554 C 2182.61 2.10319 -0.910955 0
M  V30 23555 C 2183.62 1.62485 0.1013 0
M  V30 23556 O 2184.81 1.78028 -0.129719 0
M  V30 23557 C 2181.91 3.37148 -0.344189 0
M  V30 23558 C 2181.08 4.14119 -1.40799 0
M  V30 23559 C 2180.14 5.19248 -0.852542 0
M  V30 23560 O 2179.17 5.48161 -1.53324 0
M  V30 23561 N 2180.37 5.79515 0.338032 0
M  V30 23562 H 2183.13 2.36073 -1.84634 0
M  V30 23563 H 2180.7 1.18047 -1.10799 0
M  V30 23564 H 2182.69 4.04679 0.0415379 0
M  V30 23565 H 2181.26 3.08644 0.495757 0
M  V30 23566 H 2180.48 3.41557 -1.96805 0
M  V30 23567 H 2181.77 4.62326 -2.12444 0
M  V30 23568 H 2181.16 5.5836 0.908322 0
M  V30 23569 H 2179.72 6.48395 0.665396 0
M  V30 23570 N 2183.15 1.01021 1.20965 0
M  V30 23571 C 2184.43 0.611192 1.85806 0
M  V30 23572 C 2184.81 -0.910997 1.90431 0
M  V30 23573 O 2184.16 -1.80009 1.40744 0
M  V30 23574 C 2184.37 1.25159 3.25785 0
M  V30 23575 C 2185.72 1.36299 4.02129 0
M  V30 23576 O 2186.74 1.20731 3.35116 0
M  V30 23577 O 2185.6 1.61393 5.22125 0
M  V30 23578 H 2182.69 0.210041 0.799882 0
M  V30 23579 H 2185.24 1.10718 1.28606 0
M  V30 23580 H 2184.01 2.292 3.17148 0
M  V30 23581 H 2183.63 0.742281 3.9061 0
M  V30 23582 N 2184.63 -1.36623 0.78561 0
M  V30 23583 C 2185.88 -1.98589 0.352861 0
M  V30 23584 C 2186.19 -1.63058 -1.08035 0
M  V30 23585 O 2187.4 -2.1823 -1.61518 0
M  V30 23586 C 2185.86 -3.55196 0.579953 0
M  V30 23587 C 2185.46 -3.99656 2.02433 0
M  V30 23588 C 2187.21 -4.23973 0.21152 0
M  V30 23589 C 2185.11 -5.49026 2.19828 0
M  V30 23590 H 2184.04 -0.743022 0.128194 0
M  V30 23591 H 2186.7 -1.55971 0.966705 0
M  V30 23592 H 2185.08 -3.95865 -0.103548 0
M  V30 23593 H 2186.25 -3.70197 2.74392 0
M  V30 23594 H 2184.57 -3.43705 2.35065 0
M  V30 23595 H 2187.16 -5.33743 0.319819 0
M  V30 23596 H 2187.51 -4.07739 -0.839914 0
M  V30 23597 H 2188.04 -3.88654 0.848108 0
M  V30 23598 H 2184.78 -5.70203 3.23341 0
M  V30 23599 H 2184.3 -5.80124 1.52369 0
M  V30 23600 H 2185.98 -6.15196 2.00358 0
M  V30 23601 N 2186.11 -0.537304 -1.48158 0
M  V30 23602 C 2187.36 -0.00588246 -2.02499 0
M  V30 23603 C 2187.68 1.33585 -1.41369 0
M  V30 23604 O 2186.94 1.87767 -0.551542 0
M  V30 23605 C 2187.24 0.157545 -3.57053 0
M  V30 23606 C 2186.9 -1.11076 -4.37005 0
M  V30 23607 C 2185.57 -1.45834 -4.58569 0
M  V30 23608 C 2187.92 -1.95212 -4.83261 0
M  V30 23609 C 2185.25 -2.64612 -5.23639 0
M  V30 23610 C 2187.6 -3.13176 -5.4964 0
M  V30 23611 C 2186.26 -3.4827 -5.69442 0
M  V30 23612 H 2185.53 -0.00215255 -0.740997 0
M  V30 23613 H 2188.18 -0.704805 -1.78058 0
M  V30 23614 H 2186.48 0.93929 -3.80374 0
M  V30 23615 H 2188.18 0.583759 -3.96728 0
M  V30 23616 H 2184.77 -0.830084 -4.20485 0
M  V30 23617 H 2188.96 -1.6967 -4.66397 0
M  V30 23618 H 2184.21 -2.91996 -5.37167 0
M  V30 23619 H 2188.39 -3.78671 -5.8445 0
M  V30 23620 H 2186.01 -4.40406 -6.19634 0
M  V30 23621 N 2187.59 1.55221 -0.272782 0
M  V30 23622 C 2188.52 2.18538 0.657 0
M  V30 23623 C 2189.5 1.14556 1.15393 0
M  V30 23624 O 2190.68 1.43069 1.22733 0
M  V30 23625 C 2187.81 2.80676 1.89575 0
M  V30 23626 C 2186.86 3.97939 1.53449 0
M  V30 23627 S 2187.69 5.31961 0.614675 0
M  V30 23628 C 2188.85 5.97567 1.86185 0
M  V30 23629 H 2189.08 2.97062 0.119003 0
M  V30 23630 H 2186.61 1.54295 -0.0570552 0
M  V30 23631 H 2188.57 3.17108 2.60677 0
M  V30 23632 H 2187.23 2.0205 2.40488 0
M  V30 23633 H 2186.42 4.401 2.45618 0
M  V30 23634 H 2186.03 3.62918 0.903673 0
M  V30 23635 H 2188.32 6.16658 2.80605 0
M  V30 23636 H 2189.26 6.9239 1.4833 0
M  V30 23637 H 2189.67 5.26901 2.02573 0
M  V30 23638 N 2189.07 2.77022e-05 1.576 0
M  V30 23639 C 2190.29 -0.695799 1.94849 0
M  V30 23640 C 2190.71 -1.67306 0.874875 0
M  V30 23641 O 2190.07 -1.81914 -0.146183 0
M  V30 23642 C 2190.12 -1.42764 3.32115 0
M  V30 23643 O 2189.84 -0.48957 4.35356 0
M  V30 23644 C 2191.34 -2.21797 3.83824 0
M  V30 23645 H 2188.56 -0.193791 0.642407 0
M  V30 23646 H 2191.1 0.0511556 2.04436 0
M  V30 23647 H 2189.26 -2.12623 3.23837 0
M  V30 23648 H 2189.67 -1.00592 5.14764 0
M  V30 23649 H 2191.15 -2.68501 4.82298 0
M  V30 23650 H 2191.62 -3.04473 3.16532 0
M  V30 23651 H 2192.23 -1.56955 3.95279 0
M  V30 23652 N 2190.54 -1.55222 -0.272728 0
M  V30 23653 C 2191.45 -1.91218 -1.35915 0
M  V30 23654 C 2192.47 -0.809463 -1.54025 0
M  V30 23655 O 2193.65 -1.10855 -1.68146 0
M  V30 23656 C 2190.71 -2.17698 -2.69831 0
M  V30 23657 C 2189.77 -3.41258 -2.60464 0
M  V30 23658 C 2189.01 -3.66465 -3.87994 0
M  V30 23659 O 2189.23 -2.94178 -4.88688 0
M  V30 23660 O 2188.16 -4.59999 -3.88181 0
M  V30 23661 H 2191.99 -2.83701 -1.08385 0
M  V30 23662 H 2189.57 -1.41772 -0.471276 0
M  V30 23663 H 2191.46 -2.36153 -3.49012 0
M  V30 23664 H 2190.13 -1.28397 -2.97146 0
M  V30 23665 H 2189.04 -3.28137 -1.79657 0
M  V30 23666 H 2190.37 -4.30778 -2.38098 0
M  V30 23667 N 2192.02 0.537252 -1.4816 0
M  V30 23668 C 2192.93 1.66957 -1.6481 0
M  V30 23669 C 2193.95 1.6571 -0.53068 0
M  V30 23670 O 2195.12 1.84794 -0.800816 0
M  V30 23671 C 2192.19 3.03435 -1.67714 0
M  V30 23672 C 2191.25 3.15595 -2.9103 0
M  V30 23673 C 2190.48 4.45562 -2.93786 0
M  V30 23674 O 2190.71 5.32226 -2.05162 0
M  V30 23675 O 2189.64 4.61934 -3.85876 0
M  V30 23676 H 2193.47 1.55849 -2.60662 0
M  V30 23677 H 2191.05 0.709526 -1.31477 0
M  V30 23678 H 2192.93 3.84616 -1.72187 0
M  V30 23679 H 2191.61 3.14884 -0.750333 0
M  V30 23680 H 2190.52 2.33736 -2.92093 0
M  V30 23681 H 2191.85 3.09059 -3.83071 0
M  V30 23682 N 2193.5 1.36626 0.785562 0
M  V30 23683 C 2194.43 1.27134 1.90708 0
M  V30 23684 C 2195.45 0.190014 1.61687 0
M  V30 23685 O 2196.63 0.445045 1.72863 0
M  V30 23686 C 2193.73 0.93977 3.25609 0
M  V30 23687 C 2192.91 2.12376 3.82381 0
M  V30 23688 C 2191.97 1.76464 4.95729 0
M  V30 23689 O 2190.99 2.48598 5.12043 0
M  V30 23690 N 2192.19 0.700594 5.76257 0
M  V30 23691 H 2194.96 2.23765 1.99372 0
M  V30 23692 H 2192.52 1.3007 0.964018 0
M  V30 23693 H 2194.51 0.680624 3.98936 0
M  V30 23694 H 2193.08 0.0624623 3.12538 0
M  V30 23695 H 2192.3 2.54548 3.00997 0
M  V30 23696 H 2193.59 2.91468 4.17042 0
M  V30 23697 H 2192.99 0.101724 5.65609 0
M  V30 23698 H 2191.55 0.501279 6.4987 0
M  V30 23699 N 2194.98 -1.01016 1.20969 0
M  V30 23700 C 2195.93 -2.09689 0.964317 0
M  V30 23701 C 2196.9 -1.6575 -0.107824 0
M  V30 23702 O 2198.08 -1.90762 0.0382323 0
M  V30 23703 C 2195.22 -3.41014 0.52949 0
M  V30 23704 C 2194.33 -3.98395 1.6705 0
M  V30 23705 C 2193.47 -5.17806 1.18534 0
M  V30 23706 C 2192.51 -5.67284 2.29902 0
M  V30 23707 N 2191.64 -6.77951 1.82558 0
M  V30 23708 H 2196.48 -2.30013 1.89467 0
M  V30 23709 H 2194.02 -1.12788 0.944309 0
M  V30 23710 H 2195.98 -4.16397 0.258662 0
M  V30 23711 H 2194.61 -3.20743 -0.363862 0
M  V30 23712 H 2193.66 -3.20046 2.05609 0
M  V30 23713 H 2194.97 -4.31113 2.50885 0
M  V30 23714 H 2194.13 -6.00417 0.870867 0
M  V30 23715 H 2192.87 -4.86669 0.316973 0
M  V30 23716 H 2191.87 -4.83273 2.62158 0
M  V30 23717 H 2193.1 -6.00453 3.17226 0
M  V30 23718 H 2191.04 -6.4863 0.980568 0
M  V30 23719 H 2190.96 -7.09896 2.59969 0
M  V30 23720 H 2192.23 -7.6411 1.54129 0
M  V30 23721 N 2196.46 -1.01661 -1.20428 0
M  V30 23722 C 2197.4 -0.586861 -2.23214 0
M  V30 23723 C 2198.37 0.393056 -1.61382 0
M  V30 23724 O 2199.56 0.292492 -1.88545 0
M  V30 23725 C 2196.7 0.0686858 -3.45032 0
M  V30 23726 C 2195.81 -0.955798 -4.21294 0
M  V30 23727 C 2194.95 -0.271301 -5.30507 0
M  V30 23728 C 2193.99 -1.28254 -5.98513 0
M  V30 23729 N 2193.12 -0.624713 -6.99315 0
M  V30 23730 H 2197.96 -1.468 -2.59333 0
M  V30 23731 H 2195.5 -0.734859 -1.27429 0
M  V30 23732 H 2197.46 0.465892 -4.14591 0
M  V30 23733 H 2196.09 0.913474 -3.09605 0
M  V30 23734 H 2195.14 -1.47116 -3.508 0
M  V30 23735 H 2196.45 -1.72487 -4.68027 0
M  V30 23736 H 2195.61 0.181403 -6.06429 0
M  V30 23737 H 2194.34 0.530078 -4.84811 0
M  V30 23738 H 2193.35 -1.74563 -5.21352 0
M  V30 23739 H 2194.57 -2.0852 -6.46294 0
M  V30 23740 H 2192.52 0.156798 -6.55813 0
M  V30 23741 H 2192.44 -1.33185 -7.44176 0
M  V30 23742 H 2193.71 -0.195599 -7.79255 0
M  V30 23743 N 2197.93 1.36205 -0.792844 0
M  V30 23744 C 2199.16 2.03107 -0.378311 0
M  V30 23745 C 2199.57 1.59913 1.01117 0
M  V30 23746 O 2198.92 0.785687 1.6605 0
M  V30 23747 C 2198.98 3.57626 -0.366598 0
M  V30 23748 C 2198.64 4.24034 -1.70424 0
M  V30 23749 C 2199.64 4.46682 -2.66028 0
M  V30 23750 C 2197.32 4.61437 -1.98447 0
M  V30 23751 C 2199.32 5.05818 -3.87849 0
M  V30 23752 C 2197 5.20289 -3.20534 0
M  V30 23753 C 2198 5.4242 -4.15054 0
M  V30 23754 O 2197.69 6.00035 -5.34988 0
M  V30 23755 H 2197.42 0.658329 -0.153555 0
M  V30 23756 H 2199.98 1.75092 -1.07387 0
M  V30 23757 H 2198.21 3.84774 0.385471 0
M  V30 23758 H 2199.9 4.05893 0.0237374 0
M  V30 23759 H 2200.66 4.18179 -2.45666 0
M  V30 23760 H 2196.54 4.43534 -1.25694 0
M  V30 23761 H 2200.08 5.23007 -4.61637 0
M  V30 23762 H 2195.98 5.48219 -3.40774 0
M  V30 23763 H 2196.75 6.18499 -5.36098 0
M  V30 23764 N 2199.41 0.545154 1.47871 0
M  V30 23765 C 2200.64 0.0210898 2.06589 0
M  V30 23766 C 2201.05 -1.27266 1.4 0
M  V30 23767 O 2200.39 -1.77142 0.486452 0
M  V30 23768 C 2200.46 -0.25787 3.58574 0
M  V30 23769 C 2200.12 0.944652 4.4713 0
M  V30 23770 C 2201.12 1.84707 4.85983 0
M  V30 23771 C 2198.8 1.15593 4.88819 0
M  V30 23772 C 2200.8 2.94456 5.65309 0
M  V30 23773 C 2198.48 2.25652 5.67912 0
M  V30 23774 C 2199.48 3.14915 6.06067 0
M  V30 23775 O 2199.17 4.23069 6.8357 0
M  V30 23776 H 2198.9 0.0373018 0.67497 0
M  V30 23777 H 2201.45 0.754632 1.91035 0
M  V30 23778 H 2199.68 -1.04557 3.72296 0
M  V30 23779 H 2201.37 -0.72585 3.99357 0
M  V30 23780 H 2202.14 1.69585 4.54385 0
M  V30 23781 H 2198.02 0.47036 4.58594 0
M  V30 23782 H 2201.56 3.64156 5.9501 0
M  V30 23783 H 2197.46 2.40752 5.98923 0
M  V30 23784 H 2198.23 4.20966 7.01947 0
M  V30 23785 N 2200.89 -1.55074 0.28101 0
M  V30 23786 C 2201.84 -2.2419 -0.619824 0
M  V30 23787 C 2202.83 -1.24094 -1.15313 0
M  V30 23788 O 2204.04 -1.42007 -1.10608 0
M  V30 23789 H 2200.41 -0.719573 -0.218446 0
M  V30 23790 H 2202.38 -2.98397 -0.0141306 0
M  V30 23791 C 2201.13 -2.98094 -1.78984 0
M  V30 23792 H 2200.46 -3.74908 -1.38867 0
M  V30 23793 H 2201.9 -3.49766 -2.39666 0
M  V30 23794 C 2200.36 -2.03904 -2.68188 0
M  V30 23795 O 2200.89 -1.59407 -3.68717 0
M  V30 23796 N 2199.09 -1.70279 -2.35485 0
M  V30 23797 H 2198.64 -2.06661 -1.53783 0
M  V30 23798 H 2198.6 -1.0753 -2.9544 0
M  V30 23799 N 2202.37 -0.00838561 -1.57598 0
M  V30 23800 C 2203.33 0.965206 -2.07886 0
M  V30 23801 C 2204.33 1.26723 -0.989847 0
M  V30 23802 O 2205.52 1.21101 -1.2522 0
M  V30 23803 C 2202.65 2.28775 -2.52735 0
M  V30 23804 H 2203.85 0.53006 -2.95179 0
M  V30 23805 H 2201.4 0.239256 -1.54458 0
M  V30 23806 H 2202.14 2.76961 -1.6871 0
M  V30 23807 H 2201.92 2.08172 -3.32276 0
M  V30 23808 H 2203.41 2.986 -2.91938 0
M  V30 23809 N 2203.85 1.55365 0.264492 0
M  V30 23810 C 2204.78 1.83768 1.35294 0
M  V30 23811 C 2205.76 0.691361 1.4717 0
M  V30 23812 O 2206.94 0.935267 1.63661 0
M  V30 23813 C 2204.07 2.00684 2.72844 0
M  V30 23814 C 2203.12 3.23268 2.78208 0
M  V30 23815 S 2203.95 4.804 2.36593 0
M  V30 23816 C 2205.1 5.00298 3.76101 0
M  V30 23817 H 2205.34 2.75802 1.10998 0
M  V30 23818 H 2202.87 1.47245 0.46457 0
M  V30 23819 H 2204.83 2.11114 3.52053 0
M  V30 23820 H 2203.49 1.09524 2.94386 0
M  V30 23821 H 2202.68 3.32017 3.79185 0
M  V30 23822 H 2202.28 3.11473 2.07028 0
M  V30 23823 H 2204.58 4.86562 4.71448 0
M  V30 23824 H 2205.52 6.02328 3.72299 0
M  V30 23825 H 2205.93 4.28234 3.67799 0
M  V30 23826 N 2205.33 -0.529387 1.48443 0
M  V30 23827 C 2206.27 -1.63391 1.63009 0
M  V30 23828 C 2207.24 -1.59248 0.472148 0
M  V30 23829 O 2208.43 -1.77664 0.695704 0
M  V30 23830 C 2205.57 -3.0165 1.67635 0
M  V30 23831 C 2204.68 -3.16022 2.94541 0
M  V30 23832 C 2203.82 -4.44844 2.90323 0
M  V30 23833 C 2202.85 -4.52747 4.11931 0
M  V30 23834 N 2201.99 -5.72958 4.05788 0
M  V30 23835 H 2206.83 -1.5028 2.57332 0
M  V30 23836 H 2204.37 -0.731634 1.27615 0
M  V30 23837 H 2206.33 -3.81748 1.68299 0
M  V30 23838 H 2204.96 -3.1353 0.768025 0
M  V30 23839 H 2204.01 -2.29172 3.03619 0
M  V30 23840 H 2205.32 -3.17723 3.84518 0
M  V30 23841 H 2204.47 -5.33233 2.89391 0
M  V30 23842 H 2203.21 -4.45665 1.98076 0
M  V30 23843 H 2202.22 -3.62764 4.13137 0
M  V30 23844 H 2203.44 -4.53663 5.05338 0
M  V30 23845 H 2201.39 -5.74675 3.16361 0
M  V30 23846 H 2201.31 -5.76155 4.8947 0
M  V30 23847 H 2202.57 -6.63633 4.08915 0
M  V30 23848 N 2206.8 -1.37041 -0.778305 0
M  V30 23849 C 2207.75 -1.32272 -1.89137 0
M  V30 23850 C 2208.72 -0.189416 -1.65016 0
M  V30 23851 O 2209.91 -0.377726 -1.87024 0
M  V30 23852 C 2207.05 -1.129 -3.2611 0
M  V30 23853 C 2206.16 -2.35403 -3.62229 0
M  V30 23854 C 2205.29 -2.08954 -4.88376 0
M  V30 23855 C 2204.33 -3.27359 -5.17206 0
M  V30 23856 N 2203.47 -3.00504 -6.34541 0
M  V30 23857 H 2208.31 -2.2744 -1.92548 0
M  V30 23858 H 2205.85 -1.13027 -0.941453 0
M  V30 23859 H 2207.8 -0.996907 -4.05114 0
M  V30 23860 H 2206.43 -0.213815 -3.22091 0
M  V30 23861 H 2205.49 -2.59375 -2.7826 0
M  V30 23862 H 2206.8 -3.23728 -3.79476 0
M  V30 23863 H 2205.95 -1.92739 -5.75271 0
M  V30 23864 H 2204.69 -1.17957 -4.7322 0
M  V30 23865 H 2203.7 -3.4412 -4.2879 0
M  V30 23866 H 2204.92 -4.19198 -5.34275 0
M  V30 23867 H 2202.87 -2.12129 -6.20755 0
M  V30 23868 H 2202.78 -3.8237 -6.52173 0
M  V30 23869 H 2204.05 -2.87891 -7.24389 0
M  V30 23870 N 2208.28 1.00373 -1.21503 0
M  V30 23871 C 2209.21 2.11026 -0.999515 0
M  V30 23872 C 2210.19 1.6993 0.0759372 0
M  V30 23873 O 2211.38 1.94018 -0.0841447 0
M  V30 23874 C 2208.51 3.42677 -0.564769 0
M  V30 23875 C 2207.46 3.97573 -1.58493 0
M  V30 23876 C 2206.79 5.25144 -1.00638 0
M  V30 23877 C 2208.09 4.29491 -2.97212 0
M  V30 23878 H 2209.78 2.29313 -1.92499 0
M  V30 23879 H 2207.33 1.10198 -0.926949 0
M  V30 23880 H 2209.28 4.19486 -0.401165 0
M  V30 23881 H 2208 3.24186 0.396354 0
M  V30 23882 H 2206.66 3.22885 -1.73612 0
M  V30 23883 H 2206.31 5.02986 -0.0369323 0
M  V30 23884 H 2206.01 5.62838 -1.68781 0
M  V30 23885 H 2207.54 6.04597 -0.854121 0
M  V30 23886 H 2208.95 4.97138 -2.85529 0
M  V30 23887 H 2207.35 4.78331 -3.6238 0
M  V30 23888 H 2208.42 3.37714 -3.47962 0
M  V30 23889 N 2209.76 1.02298 1.19887 0
M  V30 23890 C 2211.01 0.714591 1.89045 0
M  V30 23891 C 2211.33 -0.758649 1.79637 0
M  V30 23892 O 2210.6 -1.54616 1.20294 0
M  V30 23893 H 2209.18 0.261329 0.699797 0
M  V30 23894 H 2211.84 1.29595 1.45572 0
M  V30 23895 H 2210.94 1.00365 2.95522 0
M  V30 23896 N 2211.24 -1.35782 0.800057 0
M  V30 23897 C 2212.46 -2.03728 0.388546 0
M  V30 23898 C 2212.89 -1.59911 -0.990453 0
M  V30 23899 O 2212.25 -0.772641 -1.64012 0
M  V30 23900 C 2212.29 -3.57489 0.472663 0
M  V30 23901 O 2211.4 -4.09154 -0.516388 0
M  V30 23902 H 2210.74 -0.643611 0.163282 0
M  V30 23903 H 2213.27 -1.73516 1.08413 0
M  V30 23904 H 2213.28 -4.0658 0.340102 0
M  V30 23905 H 2211.95 -3.88731 1.47855 0
M  V30 23906 H 2210.53 -3.71304 -0.344607 0
M  V30 23907 N 2212.72 -0.552988 -1.4758 0
M  V30 23908 C 2213.66 0.197067 -2.29957 0
M  V30 23909 C 2214.63 0.912335 -1.38801 0
M  V30 23910 O 2215.82 0.908859 -1.67763 0
M  V30 23911 C 2212.96 1.22373 -3.22674 0
M  V30 23912 C 2212.07 0.514963 -4.2892 0
M  V30 23913 C 2211.21 1.52655 -5.08792 0
M  V30 23914 C 2210.24 0.802524 -6.06816 0
M  V30 23915 N 2209.38 1.76074 -6.79663 0
M  V30 23916 H 2214.22 -0.511538 -2.93577 0
M  V30 23917 H 2211.76 -0.264093 -1.4471 0
M  V30 23918 H 2213.72 1.83152 -3.74848 0
M  V30 23919 H 2212.35 1.90042 -2.60929 0
M  V30 23920 H 2211.4 -0.207259 -3.79835 0
M  V30 23921 H 2212.71 -0.0524302 -4.98772 0
M  V30 23922 H 2211.86 2.20799 -5.65095 0
M  V30 23923 H 2210.6 2.12786 -4.38832 0
M  V30 23924 H 2209.61 0.107141 -5.49696 0
M  V30 23925 H 2210.83 0.207016 -6.78784 0
M  V30 23926 H 2208.78 2.35071 -6.12436 0
M  V30 23927 H 2208.7 1.24539 -7.45672 0
M  V30 23928 H 2209.96 2.43346 -7.40542 0
M  V30 23929 N 2214.19 1.54923 -0.28923 0
M  V30 23930 C 2215.14 2.23076 0.592075 0
M  V30 23931 C 2216.11 1.20917 1.13879 0
M  V30 23932 O 2217.3 1.49502 1.18549 0
M  V30 23933 C 2214.44 2.96626 1.76371 0
M  V30 23934 C 2213.55 4.13535 1.24951 0
M  V30 23935 C 2212.68 4.74695 2.38407 0
M  V30 23936 C 2211.72 5.8377 1.84062 0
M  V30 23937 N 2210.86 6.38934 2.91045 0
M  V30 23938 H 2215.7 2.98 0.00426799 0
M  V30 23939 H 2213.24 1.47097 -0.00966114 0
M  V30 23940 H 2215.19 3.37494 2.45262 0
M  V30 23941 H 2213.82 2.24101 2.32333 0
M  V30 23942 H 2212.88 3.7769 0.453241 0
M  V30 23943 H 2214.19 4.92153 0.811576 0
M  V30 23944 H 2213.34 5.18355 3.15267 0
M  V30 23945 H 2212.08 3.95383 2.85523 0
M  V30 23946 H 2211.09 5.39546 1.05687 0
M  V30 23947 H 2212.31 6.64959 1.37865 0
M  V30 23948 H 2210.26 5.62511 3.37516 0
M  V30 23949 H 2210.17 7.12866 2.51712 0
M  V30 23950 H 2211.44 6.87252 3.67838 0
M  V30 23951 N 2215.67 0.0167433 1.57591 0
M  V30 23952 C 2217.08 -0.523803 1.79202 0
M  V30 23953 C 2217.43 -1.72982 0.925826 0
M  V30 23954 O 2216.56 -2.15992 0.13283 0
M  V30 23955 C 2217.15 -0.957034 3.25002 0
M  V30 23956 C 2215.71 -1.44277 3.47651 0
M  V30 23957 C 2214.86 -0.401709 2.74375 0
M  V30 23958 H 2217.81 0.242844 1.56831 0
M  V30 23959 H 2217.83 -1.82213 3.34034 0
M  V30 23960 H 2217.34 -0.0790733 3.88019 0
M  V30 23961 H 2215.44 -2.34107 2.8987 0
M  V30 23962 H 2215.56 -1.45869 4.56354 0
M  V30 23963 H 2213.92 -0.867079 2.39487 0
M  V30 23964 H 2214.7 0.467573 3.40101 0
M  V30 23965 N 2217.15 -1.55503 -0.256249 0
M  V30 23966 C 2218.08 -1.85964 -1.33978 0
M  V30 23967 C 2219.1 -0.745237 -1.44741 0
M  V30 23968 O 2220.28 -1.02327 -1.46258 0
M  V30 23969 C 2217.38 -2.02247 -2.71936 0
M  V30 23970 C 2216.56 -3.33038 -2.83556 0
M  V30 23971 C 2215.62 -3.39179 -4.02298 0
M  V30 23972 O 2214.64 -4.12451 -3.92266 0
M  V30 23973 N 2215.84 -2.67793 -5.15041 0
M  V30 23974 H 2218.61 -2.79492 -1.08186 0
M  V30 23975 H 2216.17 -1.55625 -0.446361 0
M  V30 23976 H 2218.16 -2.03708 -3.49693 0
M  V30 23977 H 2216.73 -1.15507 -2.90477 0
M  V30 23978 H 2215.95 -3.43974 -1.92549 0
M  V30 23979 H 2217.24 -4.19263 -2.88263 0
M  V30 23980 H 2216.64 -2.07977 -5.26082 0
M  V30 23981 H 2215.2 -2.74957 -5.90967 0
M  V30 23982 N 2218.63 0.521507 -1.48721 0
M  V30 23983 C 2219.58 1.62524 -1.63874 0
M  V30 23984 C 2220.55 1.58996 -0.480587 0
M  V30 23985 O 2221.73 1.77293 -0.705116 0
M  V30 23986 C 2218.87 3.00756 -1.69232 0
M  V30 23987 C 2217.98 3.14455 -2.96212 0
M  V30 23988 C 2217.12 4.43298 -2.92678 0
M  V30 23989 C 2216.16 4.50556 -4.14326 0
M  V30 23990 N 2215.29 5.70798 -4.0882 0
M  V30 23991 H 2220.13 1.48913 -2.58126 0
M  V30 23992 H 2217.67 0.724856 -1.28001 0
M  V30 23993 H 2219.63 3.8085 -1.70321 0
M  V30 23994 H 2218.26 3.13119 -0.784641 0
M  V30 23995 H 2217.31 2.27558 -3.0483 0
M  V30 23996 H 2218.62 3.15679 -3.86197 0
M  V30 23997 H 2217.78 5.31691 -2.92215 0
M  V30 23998 H 2216.52 4.44608 -2.00437 0
M  V30 23999 H 2215.52 3.60568 -4.15055 0
M  V30 24000 H 2216.75 4.50977 -5.07737 0
M  V30 24001 H 2214.69 5.7299 -3.19404 0
M  V30 24002 H 2214.61 5.73552 -4.92519 0
M  V30 24003 H 2215.88 6.61455 -4.12429 0
M  V30 24004 N 2220.11 1.37452 0.771027 0
M  V30 24005 C 2221.52 1.29241 1.34735 0
M  V30 24006 C 2221.87 -0.0596564 1.96109 0
M  V30 24007 O 2220.99 -0.9615 1.93866 0
M  V30 24008 C 2221.59 2.34042 2.44969 0
M  V30 24009 C 2220.15 2.29463 2.98368 0
M  V30 24010 C 2219.29 2.17834 1.71592 0
M  V30 24011 H 2222.25 1.48063 0.57123 0
M  V30 24012 H 2222.27 1.98749 3.24467 0
M  V30 24013 H 2221.78 3.32436 2.0027 0
M  V30 24014 H 2219.88 1.34595 3.4744 0
M  V30 24015 H 2219.99 3.22906 3.53933 0
M  V30 24016 H 2218.36 1.64392 1.94544 0
M  V30 24017 H 2219.14 3.18143 1.28995 0
M  V30 24018 N 2221.58 -0.997276 1.22033 0
M  V30 24019 C 2222.83 -1.73037 1.0364 0
M  V30 24020 C 2223.15 -1.90828 -0.429442 0
M  V30 24021 O 2224.35 -2.61419 -0.732949 0
M  V30 24022 C 2222.81 -3.11314 1.80588 0
M  V30 24023 C 2222.42 -3.01469 3.31392 0
M  V30 24024 C 2224.16 -3.88698 1.70628 0
M  V30 24025 C 2222.07 -4.34873 4.00798 0
M  V30 24026 H 2221 -0.648779 0.38419 0
M  V30 24027 H 2223.65 -1.11366 1.45842 0
M  V30 24028 H 2222.03 -3.73641 1.31182 0
M  V30 24029 H 2223.2 -2.48333 3.88159 0
M  V30 24030 H 2221.52 -2.37569 3.4198 0
M  V30 24031 H 2224.12 -4.87431 2.19808 0
M  V30 24032 H 2224.46 -4.1094 0.665895 0
M  V30 24033 H 2224.99 -3.3304 2.17553 0
M  V30 24034 H 2221.73 -4.17832 5.05071 0
M  V30 24035 H 2221.25 -4.87939 3.4882 0
M  V30 24036 H 2222.93 -5.0364 4.06147 0
M  V30 24037 N 2223.06 -1.02932 -1.19343 0
M  V30 24038 C 2224.47 -0.755663 -1.70724 0
M  V30 24039 C 2224.82 0.724644 -1.82328 0
M  V30 24040 O 2223.95 1.56482 -1.49474 0
M  V30 24041 C 2224.54 -1.36508 -3.10082 0
M  V30 24042 C 2223.1 -1.14 -3.58721 0
M  V30 24043 C 2222.25 -1.46287 -2.35575 0
M  V30 24044 H 2225.2 -1.19719 -1.04178 0
M  V30 24045 H 2225.22 -0.762283 -3.72786 0
M  V30 24046 H 2224.73 -2.44246 -3.01605 0
M  V30 24047 H 2222.84 -0.0808556 -3.72512 0
M  V30 24048 H 2222.95 -1.82902 -4.42813 0
M  V30 24049 H 2221.31 -0.882212 -2.38933 0
M  V30 24050 H 2222.1 -2.55109 -2.29727 0
M  V30 24051 N 2224.54 1.35356 -0.807246 0
M  V30 24052 C 2225.96 1.51858 -0.491064 0
M  V30 24053 C 2226.16 1.75637 0.987617 0
M  V30 24054 O 2225.21 1.79818 1.77262 0
M  V30 24055 C 2226.53 2.69342 -1.337 0
M  V30 24056 C 2228.07 2.83219 -1.33251 0
M  V30 24057 C 2228.55 4.03729 -2.16257 0
M  V30 24058 N 2230.04 4.10908 -2.13797 0
M  V30 24059 C 2230.77 5.03272 -2.74781 0
M  V30 24060 N 2230.27 6.00964 -3.44694 0
M  V30 24061 N 2232.06 4.96023 -2.64419 0
M  V30 24062 H 2224.21 1.18178 -1.76487 0
M  V30 24063 H 2226.48 0.578263 -0.75121 0
M  V30 24064 H 2226.18 2.5835 -2.38639 0
M  V30 24065 H 2226.06 3.63958 -0.990682 0
M  V30 24066 H 2228.44 2.93662 -0.290963 0
M  V30 24067 H 2228.53 1.89458 -1.7187 0
M  V30 24068 H 2228.17 3.94047 -3.20452 0
M  V30 24069 H 2228.1 4.96672 -1.74998 0
M  V30 24070 H 2230.59 3.40973 -1.62929 0
M  V30 24071 H 2230.9 6.6804 -3.88513 0
M  V30 24072 H 2229.25 6.01136 -3.48799 0
M  V30 24073 H 2232.44 4.18658 -2.09387 0
M  V30 24074 H 2232.61 5.67814 -3.12235 0
M  V30 24075 N 2226.02 0.560807 1.47284 0
M  V30 24076 C 2227.43 0.128376 1.86258 0
M  V30 24077 C 2227.78 -1.30281 1.46701 0
M  V30 24078 O 2226.91 -1.98065 0.871733 0
M  V30 24079 C 2227.5 0.2262 3.38044 0
M  V30 24080 C 2226.06 -0.151217 3.76096 0
M  V30 24081 C 2225.21 0.572131 2.71334 0
M  V30 24082 H 2228.16 0.770322 1.38751 0
M  V30 24083 H 2228.18 -0.554256 3.76442 0
M  V30 24084 H 2227.69 1.26794 3.66804 0
M  V30 24085 H 2225.79 -1.19393 3.52953 0
M  V30 24086 H 2225.9 0.209849 4.7864 0
M  V30 24087 H 2224.27 0.01481 2.54696 0
M  V30 24088 H 2225.05 1.6151 3.02935 0
M  V30 24089 N 2227.5 -1.54768 0.297442 0
M  V30 24090 C 2228.43 -2.26349 -0.573454 0
M  V30 24091 C 2229.41 -1.26171 -1.14083 0
M  V30 24092 O 2230.59 -1.54936 -1.17083 0
M  V30 24093 C 2227.72 -3.00156 -1.74711 0
M  V30 24094 C 2226.68 -4.07451 -1.31025 0
M  V30 24095 C 2226 -4.68954 -2.56878 0
M  V30 24096 C 2227.3 -5.20409 -0.444092 0
M  V30 24097 H 2229 -2.99391 0.0235657 0
M  V30 24098 H 2226.54 -1.43994 0.0127742 0
M  V30 24099 H 2228.5 -3.48951 -2.36243 0
M  V30 24100 H 2227.22 -2.24686 -2.37031 0
M  V30 24101 H 2225.88 -3.595 -0.718003 0
M  V30 24102 H 2225.53 -3.90128 -3.17505 0
M  V30 24103 H 2225.23 -5.41415 -2.28351 0
M  V30 24104 H 2226.75 -5.2051 -3.1922 0
M  V30 24105 H 2228.16 -5.6512 -0.965 0
M  V30 24106 H 2226.56 -5.99568 -0.252741 0
M  V30 24107 H 2227.63 -4.81976 0.531693 0
M  V30 24108 N 2228.97 -0.0251005 -1.5758 0
M  V30 24109 C 2229.92 0.976133 -2.11127 0
M  V30 24110 C 2230.92 1.33957 -1.03691 0
M  V30 24111 O 2232.12 1.32227 -1.22131 0
M  V30 24112 H 2228.5 0.33255 -0.674474 0
M  V30 24113 H 2230.47 0.499171 -2.94195 0
M  V30 24114 C 2229.22 2.25076 -2.65021 0
M  V30 24115 H 2228.54 1.97984 -3.47336 0
M  V30 24116 H 2229.98 2.93352 -3.06138 0
M  V30 24117 C 2228.44 2.97776 -1.57579 0
M  V30 24118 O 2228.97 3.89731 -0.973272 0
M  V30 24119 N 2227.18 2.60041 -1.2972 0
M  V30 24120 H 2226.72 1.85342 -1.78903 0
M  V30 24121 H 2226.68 3.08993 -0.580564 0
M  V30 24122 N 2230.45 1.55637 0.247999 0
M  V30 24123 C 2231.4 1.90224 1.30703 0
M  V30 24124 C 2232.37 0.756358 1.4788 0
M  V30 24125 O 2233.55 1.00991 1.61881 0
M  V30 24126 C 2230.69 2.20142 2.65766 0
M  V30 24127 C 2229.81 3.4753 2.56606 0
M  V30 24128 C 2228.94 3.67024 3.84014 0
M  V30 24129 C 2227.98 4.88017 3.69467 0
M  V30 24130 N 2227.12 5.04037 4.88765 0
M  V30 24131 H 2231.96 2.80539 1.00507 0
M  V30 24132 H 2229.5 1.38874 0.485031 0
M  V30 24133 H 2231.45 2.35493 3.44382 0
M  V30 24134 H 2230.08 1.33032 2.94113 0
M  V30 24135 H 2229.14 3.40517 1.69565 0
M  V30 24136 H 2230.45 4.36292 2.41767 0
M  V30 24137 H 2229.6 3.82328 4.71074 0
M  V30 24138 H 2228.34 2.76494 4.01749 0
M  V30 24139 H 2227.35 4.72691 2.80791 0
M  V30 24140 H 2228.57 5.80006 3.53228 0
M  V30 24141 H 2226.52 4.16444 5.06863 0
M  V30 24142 H 2226.43 5.86885 4.76552 0
M  V30 24143 H 2227.7 5.23751 5.77326 0
M  V30 24144 N 2231.93 -0.513613 1.48996 0
M  V30 24145 C 2233.18 -1.26507 1.57095 0
M  V30 24146 C 2233.49 -1.93903 0.257126 0
M  V30 24147 O 2234.7 -2.70635 0.216526 0
M  V30 24148 C 2233.16 -2.29633 2.77122 0
M  V30 24149 C 2232.76 -1.68234 4.15212 0
M  V30 24150 C 2234.51 -3.05686 2.94544 0
M  V30 24151 C 2232.41 -2.69396 5.26478 0
M  V30 24152 H 2231.34 -0.475843 0.584884 0
M  V30 24153 H 2234 -0.540456 1.75361 0
M  V30 24154 H 2232.38 -3.05202 2.52324 0
M  V30 24155 H 2233.55 -0.987426 4.50096 0
M  V30 24156 H 2231.87 -1.04616 4.03044 0
M  V30 24157 H 2234.46 -3.81313 3.74839 0
M  V30 24158 H 2234.81 -3.62541 2.04621 0
M  V30 24159 H 2235.34 -2.37232 3.19321 0
M  V30 24160 H 2232.08 -2.1734 6.1842 0
M  V30 24161 H 2231.6 -3.37166 4.96064 0
M  V30 24162 H 2233.28 -3.32069 5.55283 0
M  V30 24163 N 2233.41 -1.37859 -0.763727 0
M  V30 24164 C 2234.34 -1.30151 -1.88662 0
M  V30 24165 C 2235.35 -0.215713 -1.61365 0
M  V30 24166 O 2236.54 -0.472489 -1.72133 0
M  V30 24167 C 2233.64 -0.991453 -3.24073 0
M  V30 24168 C 2232.82 -2.18432 -3.78954 0
M  V30 24169 C 2231.88 -1.84329 -4.92858 0
M  V30 24170 O 2230.9 -2.56713 -5.08023 0
M  V30 24171 N 2232.1 -0.792182 -5.75069 0
M  V30 24172 H 2234.87 -2.26909 -1.95787 0
M  V30 24173 H 2232.43 -1.31588 -0.943203 0
M  V30 24174 H 2234.42 -0.744005 -3.97802 0
M  V30 24175 H 2232.99 -0.112176 -3.12399 0
M  V30 24176 H 2232.21 -2.59304 -2.96909 0
M  V30 24177 H 2233.5 -2.98066 -4.12352 0
M  V30 24178 H 2232.9 -0.191694 -5.65375 0
M  V30 24179 H 2231.45 -0.604604 -6.4899 0
M  V30 24180 N 2234.89 0.990791 -1.22561 0
M  V30 24181 C 2236.14 1.72722 -1.04936 0
M  V30 24182 C 2236.46 1.90508 0.416125 0
M  V30 24183 O 2235.73 1.46624 1.29916 0
M  V30 24184 H 2234.31 0.639959 -0.385308 0
M  V30 24185 H 2236.97 1.19319 -1.54107 0
M  V30 24186 H 2236.06 2.72086 -1.52891 0
M  V30 24187 N 2236.37 1.03564 1.18795 0
M  V30 24188 C 2237.61 0.731269 1.87977 0
M  V30 24189 C 2237.93 -0.743639 1.80913 0
M  V30 24190 O 2239.13 -1.16132 2.45409 0
M  V30 24191 C 2237.59 1.25774 3.37207 0
M  V30 24192 C 2237.2 2.76092 3.52814 0
M  V30 24193 C 2238.94 1.02967 4.11823 0
M  V30 24194 C 2236.85 3.22123 4.95975 0
M  V30 24195 H 2235.78 0.269848 0.704058 0
M  V30 24196 H 2238.43 1.25081 1.34264 0
M  V30 24197 H 2236.81 0.66608 3.90358 0
M  V30 24198 H 2237.99 3.40972 3.09959 0
M  V30 24199 H 2236.3 2.97254 2.91597 0
M  V30 24200 H 2238.9 1.34878 5.17409 0
M  V30 24201 H 2239.24 -0.0332814 4.16287 0
M  V30 24202 H 2239.77 1.58569 3.6483 0
M  V30 24203 H 2236.51 4.27777 4.96676 0
M  V30 24204 H 2236.03 2.61975 5.39564 0
M  V30 24205 H 2237.71 3.15854 5.64664 0
M  V30 24206 N 2237.84 -1.34926 0.814413 0
M  V30 24207 C 2239.09 -1.98835 0.399048 0
M  V30 24208 C 2239.42 -1.6444 -1.03311 0
M  V30 24209 O 2238.7 -0.911689 -1.71809 0
M  V30 24210 C 2238.98 -3.55206 0.591692 0
M  V30 24211 C 2238.83 -3.99372 2.06935 0
M  V30 24212 C 2240.15 -4.40094 0.0222763 0
M  V30 24213 H 2237.27 -0.7223 0.146464 0
M  V30 24214 H 2239.91 -1.59955 1.0254 0
M  V30 24215 H 2238.06 -3.88456 0.0585124 0
M  V30 24216 H 2239.74 -3.76495 2.66551 0
M  V30 24217 H 2237.98 -3.49995 2.56293 0
M  V30 24218 H 2238.65 -5.08197 2.15499 0
M  V30 24219 H 2241.13 -4.13349 0.477716 0
M  V30 24220 H 2240 -5.48582 0.186928 0
M  V30 24221 H 2240.26 -4.28904 -1.07208 0
M  V30 24222 N 2239.32 -0.56861 -1.46985 0
M  V30 24223 C 2240.57 -0.0488342 -2.02441 0
M  V30 24224 C 2240.9 1.30556 -1.44171 0
M  V30 24225 O 2240.15 1.86555 -0.591246 0
M  V30 24226 C 2240.45 0.0817731 -3.57306 0
M  V30 24227 C 2240.12 -1.2032 -4.3455 0
M  V30 24228 C 2238.78 -1.55528 -4.55373 0
M  V30 24229 C 2241.13 -2.05419 -4.79012 0
M  V30 24230 C 2238.46 -2.7566 -5.17908 0
M  V30 24231 C 2240.81 -3.24764 -5.42873 0
M  V30 24232 C 2239.47 -3.60271 -5.61926 0
M  V30 24233 H 2238.74 -0.0178697 -0.740784 0
M  V30 24234 H 2241.39 -0.742415 -1.76523 0
M  V30 24235 H 2239.7 0.858396 -3.82281 0
M  V30 24236 H 2241.39 0.499476 -3.97877 0
M  V30 24237 H 2237.98 -0.919088 -4.1863 0
M  V30 24238 H 2242.17 -1.79524 -4.62693 0
M  V30 24239 H 2237.42 -3.03324 -5.30852 0
M  V30 24240 H 2241.6 -3.90983 -5.76286 0
M  V30 24241 H 2239.22 -4.5345 -6.10153 0
M  V30 24242 N 2240.8 1.54608 -0.305646 0
M  V30 24243 C 2242.08 1.9234 0.355618 0
M  V30 24244 C 2242.46 1.23338 1.71321 0
M  V30 24245 O 2241.8 0.370742 2.25472 0
M  V30 24246 C 2242.01 3.45879 0.465659 0
M  V30 24247 C 2243.36 4.18201 0.734353 0
M  V30 24248 O 2244.39 3.51939 0.549288 0
M  V30 24249 O 2243.25 5.35517 1.09015 0
M  V30 24250 H 2240.34 0.802539 0.199652 0
M  V30 24251 H 2242.89 1.65966 -0.354046 0
M  V30 24252 H 2241.66 3.88238 -0.488529 0
M  V30 24253 H 2241.28 3.78304 1.22361 0
M  V30 24254 N 2242.28 0.033457 1.57564 0
M  V30 24255 C 2243.52 -0.644238 1.91979 0
M  V30 24256 C 2243.85 -1.71885 0.910261 0
M  V30 24257 O 2243.11 -1.95536 -0.0801618 0
M  V30 24258 C 2243.41 -1.29498 3.33114 0
M  V30 24259 C 2243.07 -0.350309 4.49537 0
M  V30 24260 C 2241.73 -0.0903128 4.81115 0
M  V30 24261 C 2244.09 0.298123 5.20347 0
M  V30 24262 C 2241.41 0.825848 5.80859 0
M  V30 24263 C 2243.77 1.20237 6.21068 0
M  V30 24264 C 2242.43 1.47121 6.51085 0
M  V30 24265 H 2241.7 -0.235743 0.7025 0
M  V30 24266 H 2244.35 0.0961512 1.91258 0
M  V30 24267 H 2242.65 -2.11022 3.30117 0
M  V30 24268 H 2244.35 -1.82597 3.57015 0
M  V30 24269 H 2240.94 -0.563131 4.24884 0
M  V30 24270 H 2245.12 0.110322 4.96177 0
M  V30 24271 H 2240.38 1.0418 6.02459 0
M  V30 24272 H 2244.55 1.71098 6.75054 0
M  V30 24273 H 2242.18 2.18277 7.28189 0
M  V30 24274 N 2243.76 -1.55766 -0.239741 0
M  V30 24275 C 2245 -1.78196 -0.968202 0
M  V30 24276 C 2245.33 -0.599971 -1.847 0
M  V30 24277 O 2244.61 0.401491 -1.90311 0
M  V30 24278 C 2244.89 -3.10567 -1.82264 0
M  V30 24279 C 2244.75 -4.39182 -0.971555 0
M  V30 24280 C 2246.06 -3.39226 -2.80382 0
M  V30 24281 H 2243.18 -0.648287 -0.350561 0
M  V30 24282 H 2245.83 -1.88501 -0.238226 0
M  V30 24283 H 2243.98 -3.01913 -2.44501 0
M  V30 24284 H 2245.65 -4.59835 -0.367327 0
M  V30 24285 H 2243.89 -4.3292 -0.2762 0
M  V30 24286 H 2244.56 -5.28201 -1.60337 0
M  V30 24287 H 2247.04 -3.47889 -2.28281 0
M  V30 24288 H 2245.91 -4.3305 -3.37282 0
M  V30 24289 H 2246.17 -2.60491 -3.57207 0
M  V30 24290 N 2245.23 0.505704 -1.49266 0
M  V30 24291 C 2246.46 1.28426 -1.62217 0
M  V30 24292 C 2246.88 1.86533 -0.29173 0
M  V30 24293 O 2246.23 1.67602 0.722204 0
M  V30 24294 C 2246.28 2.41788 -2.68739 0
M  V30 24295 O 2246.01 1.86071 -3.96622 0
M  V30 24296 C 2247.51 3.33235 -2.92352 0
M  V30 24297 H 2244.73 0.389687 -0.546246 0
M  V30 24298 H 2247.27 0.607575 -1.95266 0
M  V30 24299 H 2245.43 3.05296 -2.38481 0
M  V30 24300 H 2245.84 2.60457 -4.55261 0
M  V30 24301 H 2247.31 4.09068 -3.70631 0
M  V30 24302 H 2247.79 3.89945 -2.02088 0
M  V30 24303 H 2248.4 2.75498 -3.24008 0
M  V30 24304 N 2246.71 1.38262 0.756405 0
M  V30 24305 C 2247.64 1.3115 1.87969 0
M  V30 24306 C 2248.66 0.224268 1.61248 0
M  V30 24307 O 2249.85 0.481611 1.7188 0
M  V30 24308 C 2246.95 1.00863 3.23543 0
M  V30 24309 C 2246.12 2.20439 3.7779 0
M  V30 24310 C 2245.18 1.8694 4.91874 0
M  V30 24311 O 2244.2 2.59403 5.06654 0
M  V30 24312 N 2245.41 0.822669 5.74641 0
M  V30 24313 H 2248.17 2.27944 1.94581 0
M  V30 24314 H 2245.73 1.32086 0.936211 0
M  V30 24315 H 2247.72 0.765091 3.97402 0
M  V30 24316 H 2246.29 0.128742 3.12335 0
M  V30 24317 H 2245.51 2.60875 2.9553 0
M  V30 24318 H 2246.8 3.00248 4.10766 0
M  V30 24319 H 2246.2 0.221675 5.65266 0
M  V30 24320 H 2244.76 0.639013 6.4866 0
M  V30 24321 N 2248.19 -0.984277 1.23084 0
M  V30 24322 C 2249.12 -2.0783 0.966397 0
M  V30 24323 C 2250.14 -1.62696 -0.0581849 0
M  V30 24324 O 2251.32 -1.77622 0.176875 0
M  V30 24325 C 2248.42 -3.36117 0.433456 0
M  V30 24326 C 2247.6 -4.1024 1.51729 0
M  V30 24327 C 2246.66 -5.16805 0.989912 0
M  V30 24328 O 2245.68 -5.43903 1.67803 0
M  V30 24329 N 2246.88 -5.80207 -0.184265 0
M  V30 24330 H 2249.65 -2.31094 1.90829 0
M  V30 24331 H 2247.21 -1.15068 1.1389 0
M  V30 24332 H 2249.2 -4.04647 0.0657701 0
M  V30 24333 H 2247.77 -3.0985 -0.413752 0
M  V30 24334 H 2246.99 -3.36219 2.05792 0
M  V30 24335 H 2248.28 -4.5653 2.24627 0
M  V30 24336 H 2247.68 -5.60572 -0.759963 0
M  V30 24337 H 2246.24 -6.49931 -0.493252 0
M  V30 24338 N 2249.67 -1.04192 -1.18244 0
M  V30 24339 C 2250.63 -0.638491 -2.20127 0
M  V30 24340 C 2251.63 0.304777 -1.57885 0
M  V30 24341 O 2252.82 0.0900063 -1.73967 0
M  V30 24342 C 2249.95 0.0637152 -3.4084 0
M  V30 24343 H 2251.15 -1.54012 -2.57333 0
M  V30 24344 H 2248.7 -0.834621 -1.32151 0
M  V30 24345 H 2249.43 0.979081 -3.09167 0
M  V30 24346 H 2249.22 -0.614266 -3.87259 0
M  V30 24347 H 2250.71 0.332439 -4.16275 0
M  V30 24348 N 2251.15 1.34492 -0.821557 0
M  V30 24349 C 2252.39 1.98327 -0.408981 0
M  V30 24350 C 2252.72 1.65138 1.02761 0
M  V30 24351 O 2251.98 0.91438 1.73025 0
M  V30 24352 C 2252.28 3.5304 -0.556574 0
M  V30 24353 C 2251.94 4.06136 -1.95868 0
M  V30 24354 C 2250.6 4.20348 -2.34224 0
M  V30 24355 C 2252.96 4.34713 -2.8753 0
M  V30 24356 C 2250.28 4.60463 -3.6358 0
M  V30 24357 C 2252.64 4.76274 -4.16349 0
M  V30 24358 C 2251.3 4.88691 -4.54684 0
M  V30 24359 H 2250.57 0.72573 -0.149657 0
M  V30 24360 H 2253.22 1.60459 -1.04524 0
M  V30 24361 H 2251.52 3.9146 0.163079 0
M  V30 24362 H 2253.22 4.00408 -0.217896 0
M  V30 24363 H 2249.81 3.95536 -1.65073 0
M  V30 24364 H 2253.99 4.23273 -2.59141 0
M  V30 24365 H 2249.25 4.68268 -3.9311 0
M  V30 24366 H 2253.42 4.97345 -4.87464 0
M  V30 24367 H 2251.05 5.19533 -5.54968 0
M  V30 24368 N 2252.62 0.576397 1.46681 0
M  V30 24369 C 2253.9 -0.00699999 1.95599 0
M  V30 24370 C 2254.28 -1.46587 1.51906 0
M  V30 24371 O 2253.63 -2.1525 0.766793 0
M  V30 24372 C 2253.84 0.158466 3.4864 0
M  V30 24373 C 2255.19 0.0230186 4.24594 0
M  V30 24374 O 2256.21 0.0869799 3.56094 0
M  V30 24375 O 2255.07 -0.117919 5.46373 0
M  V30 24376 H 2252.16 -0.0533695 0.825276 0
M  V30 24377 H 2254.71 0.644271 1.56994 0
M  V30 24378 H 2253.48 1.17289 3.73308 0
M  V30 24379 H 2253.11 -0.529531 3.94058 0
M  V30 24380 N 2254.1 -1.54444 0.313841 0
M  V30 24381 C 2255.35 -1.99568 -0.292484 0
M  V30 24382 C 2255.66 -1.20585 -1.54009 0
M  V30 24383 O 2256.87 -1.56039 -2.2218 0
M  V30 24384 C 2255.33 -3.5533 -0.571689 0
M  V30 24385 C 2254.93 -4.43137 0.658307 0
M  V30 24386 C 2256.68 -4.08948 -1.1385 0
M  V30 24387 C 2254.59 -5.90354 0.351543 0
M  V30 24388 H 2253.52 -0.745474 -0.113066 0
M  V30 24389 H 2256.17 -1.78521 0.42455 0
M  V30 24390 H 2254.55 -3.72327 -1.34865 0
M  V30 24391 H 2255.72 -4.37916 1.43411 0
M  V30 24392 H 2254.04 -4.00358 1.14465 0
M  V30 24393 H 2256.63 -5.16519 -1.38247 0
M  V30 24394 H 2256.98 -3.60334 -2.08483 0
M  V30 24395 H 2257.51 -3.95545 -0.422945 0
M  V30 24396 H 2254.25 -6.43143 1.26678 0
M  V30 24397 H 2253.77 -5.98552 -0.386737 0
M  V30 24398 H 2255.45 -6.46986 -0.0421997 0
M  V30 24399 N 2255.58 -0.0418125 -1.57545 0
M  V30 24400 C 2256.83 0.634987 -1.92603 0
M  V30 24401 C 2257.16 1.71044 -0.919657 0
M  V30 24402 O 2256.43 1.9442 0.055755 0
M  V30 24403 C 2256.72 1.23973 -3.38087 0
M  V30 24404 C 2256.57 0.172978 -4.49467 0
M  V30 24405 C 2257.89 2.1541 -3.83779 0
M  V30 24406 H 2255.01 0.229362 -0.700401 0
M  V30 24407 H 2257.65 -0.101666 -1.89728 0
M  V30 24408 H 2255.8 1.86756 -3.40667 0
M  V30 24409 H 2257.47 -0.458392 -4.59017 0
M  V30 24410 H 2255.72 -0.500072 -4.30908 0
M  V30 24411 H 2256.39 0.635957 -5.48324 0
M  V30 24412 H 2258.86 1.62599 -3.83016 0
M  V30 24413 H 2257.74 2.5467 -4.86245 0
M  V30 24414 H 2258 3.05042 -3.20003 0
M  V30 24415 N 2257.06 1.55891 0.231477 0
M  V30 24416 C 2258.31 1.77642 0.955315 0
M  V30 24417 C 2258.62 0.608579 1.85892 0
M  V30 24418 O 2259.83 0.709476 2.62066 0
M  V30 24419 C 2258.28 3.14555 1.74881 0
M  V30 24420 C 2257.89 4.39033 0.891838 0
M  V30 24421 C 2259.63 3.45637 2.46445 0
M  V30 24422 C 2257.54 5.66974 1.68211 0
M  V30 24423 H 2256.47 0.662271 0.360434 0
M  V30 24424 H 2259.12 1.823 0.209484 0
M  V30 24425 H 2257.5 3.04045 2.53717 0
M  V30 24426 H 2258.68 4.60573 0.144712 0
M  V30 24427 H 2256.99 4.15397 0.28879 0
M  V30 24428 H 2259.59 4.38447 3.06053 0
M  V30 24429 H 2259.93 2.67674 3.18836 0
M  V30 24430 H 2260.47 3.57431 1.74607 0
M  V30 24431 H 2257.21 6.47802 1.00166 0
M  V30 24432 H 2256.73 5.49511 2.40411 0
M  V30 24433 H 2258.4 6.0679 2.24533 0
M  V30 24434 N 2258.54 -0.497781 1.49532 0
M  V30 24435 C 2259.47 -1.61677 1.61046 0
M  V30 24436 C 2260.45 -1.55975 0.459413 0
M  V30 24437 O 2261.63 -1.75985 0.675389 0
M  V30 24438 C 2258.76 -3.00199 1.56838 0
M  V30 24439 C 2257.8 -3.24151 2.77179 0
M  V30 24440 S 2258.64 -3.06926 4.38813 0
M  V30 24441 C 2259.79 -4.47838 4.37255 0
M  V30 24442 H 2260.03 -1.51666 2.55704 0
M  V30 24443 H 2257.56 -0.683177 1.38463 0
M  V30 24444 H 2259.52 -3.80073 1.55096 0
M  V30 24445 H 2258.18 -3.07622 0.634615 0
M  V30 24446 H 2257.37 -4.25283 2.70463 0
M  V30 24447 H 2256.97 -2.52005 2.7635 0
M  V30 24448 H 2259.27 -5.39985 4.09173 0
M  V30 24449 H 2260.21 -4.59602 5.38676 0
M  V30 24450 H 2260.62 -4.28668 3.67293 0
M  V30 24451 N 2260.01 -1.38661 -0.749062 0
M  V30 24452 C 2260.95 -1.30635 -1.87109 0
M  V30 24453 C 2261.93 -0.182538 -1.61572 0
M  V30 24454 O 2263.11 -0.360624 -1.85018 0
M  V30 24455 C 2260.24 -1.02516 -3.22813 0
M  V30 24456 C 2259.28 -2.16896 -3.6723 0
M  V30 24457 S 2260.12 -3.79072 -3.78239 0
M  V30 24458 C 2261.27 -3.53151 -5.16754 0
M  V30 24459 H 2261.5 -2.25597 -1.93632 0
M  V30 24460 H 2259.04 -1.2455 -0.912503 0
M  V30 24461 H 2261 -0.869771 -4.0118 0
M  V30 24462 H 2259.66 -0.0926436 -3.13963 0
M  V30 24463 H 2258.85 -1.92779 -4.65674 0
M  V30 24464 H 2258.45 -2.28566 -2.9603 0
M  V30 24465 H 2260.74 -3.09545 -6.02651 0
M  V30 24466 H 2261.69 -4.51005 -5.45894 0
M  V30 24467 H 2262.09 -2.87562 -4.85766 0
M  V30 24468 N 2261.49 0.977736 -1.23605 0
M  V30 24469 C 2262.42 2.08858 -1.04405 0
M  V30 24470 C 2263.4 1.70053 0.0398754 0
M  V30 24471 O 2264.59 1.93795 -0.12528 0
M  V30 24472 C 2261.72 3.41402 -0.637329 0
M  V30 24473 C 2260.67 3.94121 -1.6689 0
M  V30 24474 C 2260 5.22891 -1.11754 0
M  V30 24475 C 2261.3 4.2309 -3.06255 0
M  V30 24476 H 2262.99 2.25178 -1.9732 0
M  V30 24477 H 2260.54 1.08207 -0.950115 0
M  V30 24478 H 2262.49 4.18541 -0.490054 0
M  V30 24479 H 2261.22 3.24954 0.3275 0
M  V30 24480 H 2259.88 3.1913 -1.80421 0
M  V30 24481 H 2259.52 5.02795 -0.143615 0
M  V30 24482 H 2259.22 5.59131 -1.80682 0
M  V30 24483 H 2260.75 6.02649 -0.982173 0
M  V30 24484 H 2262.16 4.9097 -2.9601 0
M  V30 24485 H 2260.56 4.70537 -3.72445 0
M  V30 24486 H 2261.63 3.30257 -3.55047 0
M  V30 24487 N 2262.97 1.04818 1.1769 0
M  V30 24488 C 2264.22 0.751165 1.87191 0
M  V30 24489 C 2264.53 -0.724409 1.81691 0
M  V30 24490 O 2265.74 -1.13523 2.46627 0
M  V30 24491 C 2264.2 1.29344 3.35854 0
M  V30 24492 C 2263.8 2.79818 3.49865 0
M  V30 24493 C 2265.55 1.07329 4.10707 0
M  V30 24494 C 2263.45 3.27365 4.9253 0
M  V30 24495 H 2262.38 0.2773 0.701157 0
M  V30 24496 H 2265.04 1.26498 1.3293 0
M  V30 24497 H 2263.42 0.707445 3.8963 0
M  V30 24498 H 2264.59 3.4424 3.06326 0
M  V30 24499 H 2262.91 3.0033 2.88428 0
M  V30 24500 H 2265.5 1.40359 5.15949 0
M  V30 24501 H 2265.85 0.0108732 4.16299 0
M  V30 24502 H 2266.38 1.62429 3.63127 0
M  V30 24503 H 2263.12 4.3302 4.92111 0
M  V30 24504 H 2262.64 2.67683 5.36755 0
M  V30 24505 H 2264.32 3.21825 5.61282 0
M  V30 24506 N 2264.45 -1.34055 0.828678 0
M  V30 24507 C 2265.69 -1.99924 0.425429 0
M  V30 24508 C 2266.05 -1.64251 -0.994265 0
M  V30 24509 O 2267.25 -2.23008 -1.5007 0
M  V30 24510 C 2265.53 -3.51837 0.628133 0
M  V30 24511 S 2267.08 -4.37642 0.318588 0
M  V30 24512 H 2263.9 -0.692653 0.160477 0
M  V30 24513 H 2266.5 -1.63242 1.07575 0
M  V30 24514 H 2265.21 -3.75287 1.66095 0
M  V30 24515 H 2264.74 -3.93383 -0.0367107 0
M  V30 24516 H 2266.75 -4.88593 -0.865546 0
M  V30 24517 N 2265.93 -0.584167 -1.46374 0
M  V30 24518 C 2266.86 0.135996 -2.33104 0
M  V30 24519 C 2267.84 0.88223 -1.45433 0
M  V30 24520 O 2269.02 0.857403 -1.74248 0
M  V30 24521 C 2266.15 1.14928 -3.27733 0
M  V30 24522 C 2265.11 0.517788 -4.24856 0
M  V30 24523 C 2264.43 1.63764 -5.09004 0
M  V30 24524 C 2265.73 -0.545977 -5.19439 0
M  V30 24525 H 2267.43 -0.588137 -2.93567 0
M  V30 24526 H 2264.97 -0.284284 -1.41166 0
M  V30 24527 H 2266.93 1.66146 -3.87264 0
M  V30 24528 H 2265.65 1.9037 -2.6538 0
M  V30 24529 H 2264.31 0.0266716 -3.6659 0
M  V30 24530 H 2263.96 2.38177 -4.43036 0
M  V30 24531 H 2263.66 1.22075 -5.7478 0
M  V30 24532 H 2265.18 2.15256 -5.71399 0
M  V30 24533 H 2266.6 -0.118805 -5.73177 0
M  V30 24534 H 2264.99 -0.883274 -5.93564 0
M  V30 24535 H 2266.06 -1.4317 -4.63282 0
M  V30 24536 N 2267.41 1.54275 -0.322027 0
M  V30 24537 C 2268.35 2.25754 0.560167 0
M  V30 24538 C 2269.35 1.27108 1.11982 0
M  V30 24539 O 2270.55 1.4489 1.06804 0
M  V30 24540 H 2266.93 0.725112 0.199291 0
M  V30 24541 H 2268.9 2.98329 -0.0649889 0
M  V30 24542 C 2267.65 3.02734 1.71018 0
M  V30 24543 H 2266.97 3.78458 1.28879 0
M  V30 24544 H 2268.41 3.55997 2.30308 0
M  V30 24545 C 2266.87 2.10942 2.62688 0
M  V30 24546 O 2267.4 1.69127 3.64361 0
M  V30 24547 N 2265.61 1.76463 2.30888 0
M  V30 24548 H 2265.15 2.10665 1.4825 0
M  V30 24549 H 2265.11 1.15325 2.92485 0
M  V30 24550 N 2268.88 0.0501669 1.5752 0
M  V30 24551 C 2269.82 -0.959926 2.07028 0
M  V30 24552 C 2270.79 -1.30456 0.970562 0
M  V30 24553 O 2271.98 -1.41761 1.24242 0
M  V30 24554 C 2269.11 -2.2742 2.50994 0
M  V30 24555 C 2268.15 -2.08268 3.72192 0
M  V30 24556 S 2268.98 -1.36198 5.1789 0
M  V30 24557 C 2270.14 -2.68951 5.65169 0
M  V30 24558 H 2270.37 -0.53858 2.92381 0
M  V30 24559 H 2267.91 -0.162072 1.53547 0
M  V30 24560 H 2269.86 -3.02966 2.76987 0
M  V30 24561 H 2268.53 -2.66683 1.65949 0
M  V30 24562 H 2267.72 -3.0548 4.00871 0
M  V30 24563 H 2267.32 -1.40862 3.46459 0
M  V30 24564 H 2269.61 -3.65123 5.70694 0
M  V30 24565 H 2270.56 -2.44909 6.64399 0
M  V30 24566 H 2270.96 -2.75164 4.92895 0
M  V30 24567 N 2270.36 -1.56011 -0.223207 0
M  V30 24568 C 2271.61 -1.79213 -0.949248 0
M  V30 24569 C 2271.94 -0.619527 -1.84053 0
M  V30 24570 O 2271.22 0.381283 -1.90726 0
M  V30 24571 C 2271.5 -3.12483 -1.7896 0
M  V30 24572 C 2271.35 -4.40188 -0.92492 0
M  V30 24573 C 2272.67 -3.4218 -2.76768 0
M  V30 24574 H 2269.79 -0.651969 -0.343665 0
M  V30 24575 H 2272.43 -1.88743 -0.21822 0
M  V30 24576 H 2270.58 -3.04489 -2.41285 0
M  V30 24577 H 2272.25 -4.60199 -0.318535 0
M  V30 24578 H 2270.5 -4.33188 -0.230268 0
M  V30 24579 H 2271.17 -5.29872 -1.54726 0
M  V30 24580 H 2273.64 -3.50291 -2.24578 0
M  V30 24581 H 2272.52 -4.36603 -3.3267 0
M  V30 24582 H 2272.78 -2.64265 -3.54424 0
M  V30 24583 N 2271.84 0.489844 -1.49794 0
M  V30 24584 C 2273.07 1.26699 -1.6357 0
M  V30 24585 C 2273.48 1.86213 -0.311498 0
M  V30 24586 O 2272.84 1.68359 0.704386 0
M  V30 24587 C 2272.89 2.38924 -2.71289 0
M  V30 24588 O 2272.61 1.81854 -3.98573 0
M  V30 24589 C 2274.11 3.30115 -2.9587 0
M  V30 24590 H 2271.33 0.383871 -0.550349 0
M  V30 24591 H 2273.88 0.58683 -1.95899 0
M  V30 24592 H 2272.03 3.02749 -2.41706 0
M  V30 24593 H 2272.45 2.55614 -4.57997 0
M  V30 24594 H 2273.92 4.05114 -3.74948 0
M  V30 24595 H 2274.4 3.87779 -2.06213 0
M  V30 24596 H 2275 2.72046 -3.26912 0
M  V30 24597 N 2273.32 1.39056 0.741698 0
M  V30 24598 C 2274.25 1.31625 1.86414 0
M  V30 24599 C 2275.23 0.191104 1.61473 0
M  V30 24600 O 2276.41 0.370431 1.84824 0
M  V30 24601 C 2273.54 1.04227 3.22265 0
M  V30 24602 C 2272.59 2.18841 3.66075 0
M  V30 24603 S 2273.42 3.81073 3.76223 0
M  V30 24604 C 2274.57 3.55886 5.14874 0
M  V30 24605 H 2274.81 2.26621 1.92433 0
M  V30 24606 H 2272.34 1.25032 0.905885 0
M  V30 24607 H 2274.3 0.891035 4.00713 0
M  V30 24608 H 2272.96 0.109293 3.1391 0
M  V30 24609 H 2272.15 1.95246 4.64645 0
M  V30 24610 H 2271.75 2.30133 2.94813 0
M  V30 24611 H 2274.05 3.12737 6.01001 0
M  V30 24612 H 2274.99 4.53893 5.43495 0
M  V30 24613 H 2275.4 2.90134 4.84234 0
M  V30 24614 N 2274.8 -0.971167 1.24121 0
M  V30 24615 C 2275.73 -2.06381 0.973767 0
M  V30 24616 C 2276.71 -1.62344 -0.0912376 0
M  V30 24617 O 2277.89 -1.88446 0.0449696 0
M  V30 24618 C 2275.02 -3.3544 0.468805 0
M  V30 24619 C 2274.06 -3.98425 1.52183 0
M  V30 24620 S 2274.9 -4.36497 3.1021 0
M  V30 24621 C 2276.05 -5.68697 2.61408 0
M  V30 24622 H 2276.29 -2.28749 1.89897 0
M  V30 24623 H 2273.82 -1.10861 1.07468 0
M  V30 24624 H 2275.78 -4.10087 0.184084 0
M  V30 24625 H 2274.44 -3.11064 -0.435634 0
M  V30 24626 H 2273.63 -4.91424 1.11885 0
M  V30 24627 H 2273.23 -3.30193 1.75637 0
M  V30 24628 H 2275.52 -6.46056 2.04004 0
M  V30 24629 H 2276.47 -6.13848 3.52982 0
M  V30 24630 H 2276.88 -5.2714 2.01951 0
M  V30 24631 N 2276.27 -1.05441 -1.17133 0
M  V30 24632 C 2277.52 -0.76711 -1.87732 0
M  V30 24633 C 2277.85 0.704221 -1.80982 0
M  V30 24634 O 2277.13 1.51517 -1.21954 0
M  V30 24635 C 2277.41 -1.25139 -3.37657 0
M  V30 24636 C 2277.26 -2.78584 -3.53145 0
M  V30 24637 C 2278.58 -0.8524 -4.31766 0
M  V30 24638 H 2275.7 -0.280141 -0.681682 0
M  V30 24639 H 2278.34 -1.30883 -1.3773 0
M  V30 24640 H 2276.49 -0.790536 -3.80372 0
M  V30 24641 H 2278.17 -3.32812 -3.19428 0
M  V30 24642 H 2276.41 -3.17737 -2.9534 0
M  V30 24643 H 2277.08 -3.07531 -4.58398 0
M  V30 24644 H 2279.56 -1.24918 -3.96906 0
M  V30 24645 H 2278.43 -1.21883 -5.35197 0
M  V30 24646 H 2278.69 0.243407 -4.41429 0
M  V30 24647 N 2277.75 1.33613 -0.835776 0
M  V30 24648 C 2278.66 2.33051 -0.269129 0
M  V30 24649 C 2279.68 1.63209 0.603222 0
M  V30 24650 O 2280.85 1.94886 0.508078 0
M  V30 24651 C 2277.92 3.42325 0.549031 0
M  V30 24652 C 2276.98 4.27893 -0.347231 0
M  V30 24653 C 2276.21 5.31949 0.431976 0
M  V30 24654 O 2276.44 5.45589 1.66399 0
M  V30 24655 O 2275.37 6.01592 -0.192404 0
M  V30 24656 H 2279.2 2.8337 -1.09248 0
M  V30 24657 H 2276.78 1.369 -0.598222 0
M  V30 24658 H 2278.66 4.09017 1.01407 0
M  V30 24659 H 2277.34 2.94228 1.34949 0
M  V30 24660 H 2276.25 3.6408 -0.860043 0
M  V30 24661 H 2277.58 4.79465 -1.11238 0
M  V30 24662 N 2279.23 0.591922 1.46062 0
M  V30 24663 C 2280.46 0.0869299 2.06717 0
M  V30 24664 C 2280.87 -1.22201 1.43918 0
M  V30 24665 O 2280.23 -1.74087 0.547729 0
M  V30 24666 C 2280.28 -0.0758089 3.61421 0
M  V30 24667 O 2280 1.18133 4.21872 0
M  V30 24668 C 2281.5 -0.614083 4.39026 0
M  V30 24669 H 2278.72 0.0616635 0.668161 0
M  V30 24670 H 2281.27 0.815208 1.87549 0
M  V30 24671 H 2279.42 -0.754346 3.79985 0
M  V30 24672 H 2279.84 1.00101 5.14859 0
M  V30 24673 H 2281.31 -0.677097 5.47832 0
M  V30 24674 H 2281.79 -1.63305 4.07711 0
M  V30 24675 H 2282.39 0.029889 4.25289 0
M  V30 24676 N 2280.71 -1.54102 0.330204 0
M  V30 24677 C 2281.99 -1.92882 -0.324974 0
M  V30 24678 C 2282.37 -1.26048 -1.69337 0
M  V30 24679 O 2281.71 -0.406565 -2.24854 0
M  V30 24680 C 2281.92 -3.46577 -0.410573 0
M  V30 24681 C 2283.27 -4.19317 -0.667727 0
M  V30 24682 O 2284.3 -3.52769 -0.493228 0
M  V30 24683 O 2283.15 -5.37183 -1.00482 0
M  V30 24684 H 2280.25 -0.805613 -0.186859 0
M  V30 24685 H 2282.79 -1.65381 0.380405 0
M  V30 24686 H 2281.57 -3.87412 0.550233 0
M  V30 24687 H 2281.19 -3.80202 -1.16327 0
M  V30 24688 N 2282.19 -0.0585199 -1.57491 0
M  V30 24689 C 2283.41 0.623003 -1.97297 0
M  V30 24690 C 2283.83 1.63944 -0.936367 0
M  V30 24691 O 2283.19 1.82331 0.0785661 0
M  V30 24692 C 2283.24 1.3034 -3.37185 0
M  V30 24693 O 2282.96 0.327653 -4.36873 0
M  V30 24694 C 2284.46 2.07399 -3.91791 0
M  V30 24695 H 2281.68 0.169815 -0.649156 0
M  V30 24696 H 2284.22 -0.126995 -2.04105 0
M  V30 24697 H 2282.38 2.00457 -3.31505 0
M  V30 24698 H 2282.79 0.814178 -5.18142 0
M  V30 24699 H 2284.27 2.50416 -4.91931 0
M  V30 24700 H 2284.74 2.92516 -3.27614 0
M  V30 24701 H 2285.35 1.42177 -4.00831 0
M  V30 24702 N 2283.66 1.56128 0.21493 0
M  V30 24703 C 2284.6 1.89451 1.29 0
M  V30 24704 C 2285.61 0.783351 1.42715 0
M  V30 24705 O 2286.8 1.06168 1.43494 0
M  V30 24706 C 2283.9 2.09386 2.66478 0
M  V30 24707 C 2283.07 3.40439 2.74627 0
M  V30 24708 C 2282.13 3.49726 3.93164 0
M  V30 24709 O 2281.16 4.22707 3.81193 0
M  V30 24710 N 2282.36 2.81355 5.0776 0
M  V30 24711 H 2285.12 2.82262 1.00738 0
M  V30 24712 H 2282.68 1.56754 0.404943 0
M  V30 24713 H 2284.68 2.12908 3.44169 0
M  V30 24714 H 2283.25 1.23168 2.87312 0
M  V30 24715 H 2282.47 3.48959 1.83362 0
M  V30 24716 H 2283.75 4.26759 2.77046 0
M  V30 24717 H 2283.15 2.21853 5.20383 0
M  V30 24718 H 2281.71 2.90529 5.83469 0
M  V30 24719 N 2285.14 -0.481893 1.50052 0
M  V30 24720 C 2286.37 -1.26298 1.6451 0
M  V30 24721 C 2286.79 -1.85291 0.323884 0
M  V30 24722 O 2286.15 -1.66779 -0.710939 0
M  V30 24723 C 2286.2 -2.35529 2.73054 0
M  V30 24724 O 2285.3 -3.3989 2.33556 0
M  V30 24725 H 2284.64 -0.372039 0.549985 0
M  V30 24726 H 2287.17 -0.574751 1.96361 0
M  V30 24727 H 2287.18 -2.81005 2.95804 0
M  V30 24728 H 2285.86 -1.91961 3.6895 0
M  V30 24729 H 2284.44 -3.002 2.21211 0
M  V30 24730 N 2286.62 -1.39448 -0.734313 0
M  V30 24731 C 2287.57 -1.38222 -1.84833 0
M  V30 24732 C 2288.54 -0.241819 -1.6433 0
M  V30 24733 O 2289.72 -0.437035 -1.85727 0
M  V30 24734 C 2286.86 -1.23217 -3.22353 0
M  V30 24735 C 2285.98 -2.46808 -3.54556 0
M  V30 24736 C 2285.11 -2.24386 -4.81482 0
M  V30 24737 C 2284.15 -3.43648 -5.0653 0
M  V30 24738 N 2283.29 -3.20539 -6.24659 0
M  V30 24739 H 2288.13 -2.33451 -1.85215 0
M  V30 24740 H 2285.66 -1.15965 -0.905018 0
M  V30 24741 H 2287.62 -1.12529 -4.01738 0
M  V30 24742 H 2286.25 -0.316178 -3.21248 0
M  V30 24743 H 2285.3 -2.68096 -2.69868 0
M  V30 24744 H 2286.62 -3.35636 -3.68985 0
M  V30 24745 H 2285.77 -2.10943 -5.68848 0
M  V30 24746 H 2284.51 -1.32952 -4.69228 0
M  V30 24747 H 2283.51 -3.57588 -4.17625 0
M  V30 24748 H 2284.74 -4.35983 -5.20668 0
M  V30 24749 H 2282.68 -2.31771 -6.13692 0
M  V30 24750 H 2282.6 -4.02925 -6.39678 0
M  V30 24751 H 2283.87 -3.10792 -7.14863 0
M  V30 24752 N 2288.1 0.964571 -1.24635 0
M  V30 24753 C 2289.03 2.06266 -0.999339 0
M  V30 24754 C 2290.04 1.62768 0.032294 0
M  V30 24755 O 2291.23 1.77318 -0.20511 0
M  V30 24756 C 2288.33 3.35384 -0.486875 0
M  V30 24757 C 2287.51 4.07774 -1.58237 0
M  V30 24758 C 2286.56 5.15165 -1.07201 0
M  V30 24759 O 2285.59 5.41165 -1.76435 0
M  V30 24760 N 2286.79 5.80427 0.0919352 0
M  V30 24761 H 2289.56 2.28029 -1.94481 0
M  V30 24762 H 2287.12 1.13242 -1.15706 0
M  V30 24763 H 2289.11 4.04491 -0.130138 0
M  V30 24764 H 2287.68 3.10469 0.364405 0
M  V30 24765 H 2286.9 3.32903 -2.11115 0
M  V30 24766 H 2288.19 4.52899 -2.31862 0
M  V30 24767 H 2287.59 5.6171 0.670685 0
M  V30 24768 H 2286.14 6.50633 0.389791 0
M  V30 24769 N 2289.58 1.0606 1.16572 0
M  V30 24770 C 2290.51 0.613559 2.19797 0
M  V30 24771 C 2291.49 -0.362425 1.58509 0
M  V30 24772 O 2292.67 -0.271961 1.86528 0
M  V30 24773 C 2289.8 -0.100855 3.3855 0
M  V30 24774 C 2288.84 0.831512 4.18316 0
M  V30 24775 S 2289.68 2.32547 4.82371 0
M  V30 24776 C 2290.83 1.62248 6.04505 0
M  V30 24777 H 2291.07 1.4881 2.57377 0
M  V30 24778 H 2288.6 0.87336 1.27326 0
M  V30 24779 H 2290.56 -0.506827 4.07359 0
M  V30 24780 H 2289.22 -0.951551 2.9934 0
M  V30 24781 H 2288.41 0.278159 5.03232 0
M  V30 24782 H 2288.01 1.17725 3.54988 0
M  V30 24783 H 2290.31 0.92674 6.71132 0
M  V30 24784 H 2291.25 2.44945 6.64385 0
M  V30 24785 H 2291.66 1.10609 5.53557 0
M  V30 24786 N 2291.06 -1.33168 0.84285 0
M  V30 24787 C 2291.97 -2.32905 0.281485 0
M  V30 24788 C 2292.98 -1.63527 -0.594558 0
M  V30 24789 O 2294.16 -1.95153 -0.497735 0
M  V30 24790 C 2291.22 -3.42612 -0.530869 0
M  V30 24791 C 2290.28 -4.27703 0.369918 0
M  V30 24792 C 2289.52 -5.32171 -0.40376 0
M  V30 24793 O 2289.74 -5.46464 -1.63504 0
M  V30 24794 O 2288.67 -6.01482 0.224305 0
M  V30 24795 H 2292.5 -2.82787 1.10749 0
M  V30 24796 H 2290.08 -1.36581 0.605474 0
M  V30 24797 H 2291.97 -4.09549 -0.992365 0
M  V30 24798 H 2290.64 -2.9494 -1.33387 0
M  V30 24799 H 2289.55 -3.63619 0.879339 0
M  V30 24800 H 2290.88 -4.78869 1.13779 0
M  V30 24801 N 2292.53 -0.599659 -1.45746 0
M  V30 24802 C 2293.48 0.136386 -2.322 0
M  V30 24803 C 2294.48 0.867557 -1.45498 0
M  V30 24804 O 2295.68 0.784022 -1.62028 0
M  V30 24805 H 2292.06 0.0628457 -0.749369 0
M  V30 24806 H 2294.03 -0.611333 -2.92071 0
M  V30 24807 C 2292.78 1.12561 -3.28976 0
M  V30 24808 H 2292.1 0.572414 -3.95681 0
M  V30 24809 H 2293.54 1.6107 -3.92215 0
M  V30 24810 C 2292 2.19518 -2.55565 0
M  V30 24811 O 2292.53 3.27139 -2.33116 0
M  V30 24812 N 2290.73 1.94586 -2.15835 0
M  V30 24813 H 2290.28 1.07074 -2.34292 0
M  V30 24814 H 2290.24 2.66356 -1.67039 0
M  V30 24815 N 2294.01 1.53925 -0.338371 0
M  V30 24816 C 2295.26 2.00008 0.260697 0
M  V30 24817 C 2295.57 1.2302 1.52071 0
M  V30 24818 O 2296.78 1.59554 2.1967 0
M  V30 24819 C 2295.24 3.56195 0.515087 0
M  V30 24820 C 2294.84 4.42034 -0.728723 0
M  V30 24821 C 2296.59 4.10707 1.0733 0
M  V30 24822 C 2294.49 5.8972 -0.445419 0
M  V30 24823 H 2293.42 0.747179 0.101192 0
M  V30 24824 H 2296.08 1.77823 -0.452897 0
M  V30 24825 H 2294.46 3.74425 1.28925 0
M  V30 24826 H 2295.63 4.35579 -1.50359 0
M  V30 24827 H 2293.95 3.98487 -1.2082 0
M  V30 24828 H 2296.54 5.18653 1.30013 0
M  V30 24829 H 2296.89 3.63605 2.02724 0
M  V30 24830 H 2297.42 3.96168 0.359964 0
M  V30 24831 H 2294.16 6.41046 -1.36894 0
M  V30 24832 H 2293.68 5.99091 0.291464 0
M  V30 24833 H 2295.36 6.46971 -0.0607355 0
M  V30 24834 N 2295.49 0.0668712 1.57458 0
M  V30 24835 C 2296.42 -0.899726 2.1547 0
M  V30 24836 C 2297.4 -1.31379 1.08044 0
M  V30 24837 O 2298.59 -1.38572 1.36057 0
M  V30 24838 C 2295.72 -2.16907 2.71236 0
M  V30 24839 C 2294.67 -1.89456 3.83784 0
M  V30 24840 C 2294 -3.22978 4.26133 0
M  V30 24841 C 2295.3 -1.20372 5.0824 0
M  V30 24842 H 2296.99 -0.416477 2.96489 0
M  V30 24843 H 2294.54 -0.198883 1.4262 0
M  V30 24844 H 2296.49 -2.84939 3.10463 0
M  V30 24845 H 2295.21 -2.67465 1.8743 0
M  V30 24846 H 2293.87 -1.2383 3.45053 0
M  V30 24847 H 2293.52 -3.71368 3.39256 0
M  V30 24848 H 2293.22 -3.05404 5.01998 0
M  V30 24849 H 2294.74 -3.92217 4.67973 0
M  V30 24850 H 2296.16 -1.78466 5.44814 0
M  V30 24851 H 2294.55 -1.13073 5.89351 0
M  V30 24852 H 2295.62 -0.182068 4.84558 0
M  V30 24853 N 2296.97 -1.56239 -0.206647 0
M  V30 24854 C 2298.2 -1.83775 -0.943942 0
M  V30 24855 C 2298.61 -0.645734 -1.7784 0
M  V30 24856 O 2297.95 0.394976 -1.79404 0
M  V30 24857 C 2298.01 -3.05255 -1.89894 0
M  V30 24858 C 2297.67 -4.39642 -1.24757 0
M  V30 24859 C 2298.67 -5.16067 -0.630125 0
M  V30 24860 C 2296.36 -4.86373 -1.25487 0
M  V30 24861 C 2298.35 -6.37394 -0.0286826 0
M  V30 24862 C 2296.04 -6.07638 -0.649592 0
M  V30 24863 C 2297.04 -6.8299 -0.0375645 0
M  V30 24864 O 2296.72 -8.01959 0.558261 0
M  V30 24865 H 2296.46 -0.614602 -0.281497 0
M  V30 24866 H 2299.01 -2.04192 -0.222422 0
M  V30 24867 H 2297.24 -2.80693 -2.65985 0
M  V30 24868 H 2298.93 -3.19535 -2.50305 0
M  V30 24869 H 2299.69 -4.81063 -0.616701 0
M  V30 24870 H 2295.57 -4.27686 -1.72064 0
M  V30 24871 H 2299.12 -6.96149 0.44964 0
M  V30 24872 H 2295.01 -6.42112 -0.660479 0
M  V30 24873 H 2295.78 -8.1724 0.454035 0
M  V30 24874 N 2298.45 0.473929 -1.50305 0
M  V30 24875 C 2299.69 1.22518 -1.6236 0
M  V30 24876 C 2300.05 1.89744 -0.318588 0
M  V30 24877 O 2299.34 1.79002 0.683284 0
M  V30 24878 C 2299.53 2.29544 -2.73942 0
M  V30 24879 C 2299.36 1.72817 -4.15168 0
M  V30 24880 C 2298.13 1.52915 -4.81607 0
M  V30 24881 C 2300.33 1.22472 -4.99505 0
M  V30 24882 N 2298.31 0.914023 -6.07058 0
M  V30 24883 C 2299.68 0.732635 -6.15656 0
M  V30 24884 C 2301.74 1.113 -4.85301 0
M  V30 24885 C 2300.44 0.139849 -7.19164 0
M  V30 24886 C 2302.47 0.534155 -5.88983 0
M  V30 24887 C 2301.83 0.0524324 -7.0438 0
M  V30 24888 H 2297.93 0.437309 -0.648294 0
M  V30 24889 H 2300.51 0.527659 -1.87414 0
M  V30 24890 H 2298.68 2.96726 -2.50616 0
M  V30 24891 H 2300.42 2.96569 -2.75371 0
M  V30 24892 H 2297.17 1.7806 -4.38853 0
M  V30 24893 H 2297.59 0.624952 -6.74109 0
M  V30 24894 H 2302.24 1.47137 -3.96372 0
M  V30 24895 H 2299.95 -0.230733 -8.07771 0
M  V30 24896 H 2303.54 0.450117 -5.80056 0
M  V30 24897 H 2302.42 -0.388462 -7.83237 0
M  V30 24898 N 2299.92 1.39835 0.726907 0
M  V30 24899 C 2301.17 1.36808 1.48211 0
M  V30 24900 C 2301.49 -0.0304947 1.95576 0
M  V30 24901 O 2302.69 -0.18337 2.7088 0
M  V30 24902 C 2301.15 2.40384 2.6785 0
M  V30 24903 C 2300.76 3.85996 2.27401 0
M  V30 24904 C 2302.5 2.46445 3.45637 0
M  V30 24905 C 2300.41 4.81195 3.43811 0
M  V30 24906 H 2299.34 0.508641 0.556597 0
M  V30 24907 H 2301.99 1.65519 0.792187 0
M  V30 24908 H 2300.37 2.04755 3.38957 0
M  V30 24909 H 2301.54 4.30709 1.63788 0
M  V30 24910 H 2299.86 3.83304 1.62686 0
M  V30 24911 H 2302.46 3.1476 4.32238 0
M  V30 24912 H 2302.8 1.49146 3.88666 0
M  V30 24913 H 2303.33 2.81009 2.81565 0
M  V30 24914 H 2300.07 5.79786 3.05824 0
M  V30 24915 H 2299.59 4.41155 4.06377 0
M  V30 24916 H 2301.27 5.00481 4.10034 0
M  V30 24917 N 2301.4 -0.957948 1.25144 0
M  V30 24918 C 2302.35 -2.0754 1.05023 0
M  V30 24919 C 2303.34 -1.69391 -0.0178454 0
M  V30 24920 O 2304.55 -1.79474 0.137504 0
M  V30 24921 H 2300.92 -0.679259 0.322662 0
M  V30 24922 H 2302.9 -2.21669 1.99763 0
M  V30 24923 C 2301.64 -3.40943 0.682134 0
M  V30 24924 H 2300.97 -3.70764 1.4958 0
M  V30 24925 H 2302.41 -4.2 0.581019 0
M  V30 24926 C 2300.87 -3.31303 -0.61155 0
M  V30 24927 O 2301.4 -3.66041 -1.65459 0
M  V30 24928 N 2299.6 -2.84424 -0.595932 0
M  V30 24929 H 2299.15 -2.56352 0.253237 0
M  V30 24930 H 2299.11 -2.78356 -1.46168 0
M  V30 24931 N 2302.88 -1.06677 -1.16008 0
M  V30 24932 C 2303.81 -0.702346 -2.22687 0
M  V30 24933 C 2304.79 0.307003 -1.67307 0
M  V30 24934 O 2305.98 0.181271 -1.93352 0
M  V30 24935 C 2303.11 -0.092099 -3.47178 0
M  V30 24936 C 2302.06 -1.02785 -4.15475 0
M  V30 24937 C 2301.39 -0.280704 -5.33963 0
M  V30 24938 C 2302.69 -2.35854 -4.66015 0
M  V30 24939 H 2304.38 -1.59423 -2.53426 0
M  V30 24940 H 2301.93 -0.767982 -1.21811 0
M  V30 24941 H 2303.88 0.17474 -4.21038 0
M  V30 24942 H 2302.6 0.834821 -3.1575 0
M  V30 24943 H 2301.26 -1.2795 -3.43547 0
M  V30 24944 H 2300.91 0.649458 -4.9879 0
M  V30 24945 H 2300.61 -0.90436 -5.80599 0
M  V30 24946 H 2302.13 -0.0215033 -6.10596 0
M  V30 24947 H 2303.55 -2.15054 -5.31436 0
M  V30 24948 H 2301.94 -2.93752 -5.23288 0
M  V30 24949 H 2303.01 -2.98648 -3.82018 0
M  V30 24950 N 2304.36 1.32719 -0.8499 0
M  V30 24951 C 2305.6 1.97707 -0.451625 0
M  V30 24952 C 2305.94 1.67121 0.989145 0
M  V30 24953 O 2305.21 0.956921 1.69332 0
M  V30 24954 C 2305.49 3.53512 -0.68566 0
M  V30 24955 C 2305.35 3.93745 -2.1745 0
M  V30 24956 C 2306.67 4.39881 -0.138952 0
M  V30 24957 H 2303.79 0.718163 -0.165563 0
M  V30 24958 H 2306.43 1.5718 -1.06745 0
M  V30 24959 H 2304.58 3.88164 -0.161484 0
M  V30 24960 H 2306.25 3.69295 -2.76439 0
M  V30 24961 H 2304.49 3.43076 -2.65483 0
M  V30 24962 H 2305.16 5.02305 -2.28897 0
M  V30 24963 H 2307.64 4.11937 -0.58714 0
M  V30 24964 H 2306.52 5.47893 -0.332309 0
M  V30 24965 H 2306.78 4.31596 0.957984 0
M  V30 24966 N 2305.84 0.60738 1.45426 0
M  V30 24967 C 2307.08 0.102491 2.0224 0
M  V30 24968 C 2307.41 -1.26688 1.47582 0
M  V30 24969 O 2306.67 -1.84922 0.6405 0
M  V30 24970 C 2306.97 0.0129891 3.57398 0
M  V30 24971 C 2306.63 1.318 4.31207 0
M  V30 24972 C 2305.29 1.67547 4.51089 0
M  V30 24973 C 2307.65 2.18047 4.73397 0
M  V30 24974 C 2304.97 2.89294 5.10417 0
M  V30 24975 C 2307.33 3.39043 5.34072 0
M  V30 24976 C 2305.99 3.75043 5.52177 0
M  V30 24977 H 2305.26 0.037504 0.74005 0
M  V30 24978 H 2307.91 0.788956 1.74493 0
M  V30 24979 H 2306.21 -0.756739 3.84423 0
M  V30 24980 H 2307.91 -0.393811 3.99062 0
M  V30 24981 H 2304.5 1.02976 4.16046 0
M  V30 24982 H 2308.68 1.91729 4.5777 0
M  V30 24983 H 2303.94 3.17292 5.22624 0
M  V30 24984 H 2308.11 4.06125 5.65717 0
M  V30 24985 H 2305.74 4.69468 5.97916 0
M  V30 24986 N 2307.31 -1.53743 0.34653 0
M  V30 24987 C 2308.56 -2.0126 -0.249438 0
M  V30 24988 C 2308.89 -1.23389 -1.49963 0
M  V30 24989 O 2308.17 -0.322323 -1.91811 0
M  V30 24990 C 2308.45 -3.5571 -0.560581 0
M  V30 24991 C 2308.3 -4.4429 0.701914 0
M  V30 24992 C 2309.62 -4.18267 -1.36898 0
M  V30 24993 H 2306.74 -0.731584 -0.0891859 0
M  V30 24994 H 2309.38 -1.84155 0.467657 0
M  V30 24995 H 2307.53 -3.70416 -1.17149 0
M  V30 24996 H 2309.21 -4.41414 1.33982 0
M  V30 24997 H 2307.45 -4.13031 1.3262 0
M  V30 24998 H 2308.12 -5.50248 0.439427 0
M  V30 24999 H 2310.6 -4.07276 -0.852376 0
M  V30 25000 H 2309.47 -5.264 -1.55543 0
M  V30 25001 H 2309.73 -3.73082 -2.37196 0
M  V30 25002 N 2308.79 -0.0752207 -1.5742 0
M  V30 25003 C 2310.04 0.592697 -1.92795 0
M  V30 25004 C 2310.35 1.70561 -0.957508 0
M  V30 25005 O 2311.56 2.43333 -1.20421 0
M  V30 25006 C 2310.02 1.10563 -3.42497 0
M  V30 25007 C 2309.62 0.0235334 -4.47994 0
M  V30 25008 C 2311.37 1.74741 -3.86867 0
M  V30 25009 C 2309.28 0.550699 -5.8883 0
M  V30 25010 H 2308.21 0.225164 -0.719595 0
M  V30 25011 H 2310.86 -0.14801 -1.82902 0
M  V30 25012 H 2309.24 1.8994 -3.47475 0
M  V30 25013 H 2310.41 -0.751179 -4.54636 0
M  V30 25014 H 2308.73 -0.522232 -4.13112 0
M  V30 25015 H 2311.32 2.1522 -4.89474 0
M  V30 25016 H 2311.67 2.60876 -3.24421 0
M  V30 25017 H 2312.2 1.01979 -3.84506 0
M  V30 25018 H 2308.94 -0.273572 -6.54929 0
M  V30 25019 H 2308.46 1.29286 -5.85701 0
M  V30 25020 H 2310.14 1.02602 -6.38813 0
M  V30 25021 N 2310.27 1.56347 0.198358 0
M  V30 25022 C 2311.52 1.80433 0.919255 0
M  V30 25023 C 2311.85 0.647898 1.83392 0
M  V30 25024 O 2311.1 -0.366522 1.92237 0
M  V30 25025 C 2311.4 3.10478 1.77025 0
M  V30 25026 C 2311.07 4.39515 1.00685 0
M  V30 25027 C 2309.73 4.7457 0.796062 0
M  V30 25028 C 2312.08 5.19081 0.469468 0
M  V30 25029 C 2309.41 5.86689 0.0363557 0
M  V30 25030 C 2311.76 6.31993 -0.277011 0
M  V30 25031 C 2310.42 6.65633 -0.498847 0
M  V30 25032 H 2309.69 0.66025 0.336379 0
M  V30 25033 H 2312.34 1.90596 0.185839 0
M  V30 25034 H 2310.65 2.95538 2.57225 0
M  V30 25035 H 2312.34 3.26319 2.33059 0
M  V30 25036 H 2308.93 4.12003 1.18115 0
M  V30 25037 H 2313.12 4.92416 0.619729 0
M  V30 25038 H 2308.37 6.11227 -0.14552 0
M  V30 25039 H 2312.55 6.92865 -0.700806 0
M  V30 25040 H 2310.17 7.52353 -1.08943 0
M  V30 25041 N 2311.75 -0.465951 1.50554 0
M  V30 25042 C 2313 -1.21765 1.61801 0
M  V30 25043 C 2313.32 -1.91837 0.320729 0
M  V30 25044 O 2312.58 -1.82993 -0.693692 0
M  V30 25045 C 2312.88 -2.28088 2.75156 0
M  V30 25046 C 2312.54 -1.75232 4.15457 0
M  V30 25047 C 2311.21 -1.60538 4.53631 0
M  V30 25048 C 2313.56 -1.36075 5.03123 0
M  V30 25049 C 2310.89 -1.05118 5.77206 0
M  V30 25050 C 2313.24 -0.820946 6.27251 0
M  V30 25051 C 2311.9 -0.660678 6.64222 0
M  V30 25052 H 2311.17 -0.445571 0.59207 0
M  V30 25053 H 2313.82 -0.512895 1.84504 0
M  V30 25054 H 2312.12 -3.04491 2.46561 0
M  V30 25055 H 2313.82 -2.86018 2.8106 0
M  V30 25056 H 2310.41 -1.87637 3.85344 0
M  V30 25057 H 2314.59 -1.46259 4.74259 0
M  V30 25058 H 2309.85 -0.914513 6.04522 0
M  V30 25059 H 2314.02 -0.508895 6.94538 0
M  V30 25060 H 2311.65 -0.229092 7.59855 0
M  V30 25061 N 2313.23 -1.40218 -0.719481 0
M  V30 25062 C 2314.45 -1.41592 -1.50862 0
M  V30 25063 C 2314.87 -0.0145607 -1.88794 0
M  V30 25064 O 2314.23 0.960566 -1.55175 0
M  V30 25065 C 2314.28 -2.30307 -2.78641 0
M  V30 25066 O 2314 -3.64987 -2.42314 0
M  V30 25067 C 2315.5 -2.4023 -3.72564 0
M  V30 25068 H 2312.72 -0.483078 -0.4657 0
M  V30 25069 H 2315.26 -1.84223 -0.887817 0
M  V30 25070 H 2313.42 -1.91048 -3.37015 0
M  V30 25071 H 2313.83 -4.12062 -3.24507 0
M  V30 25072 H 2315.31 -3.0652 -4.59074 0
M  V30 25073 H 2315.78 -1.42616 -4.154 0
M  V30 25074 H 2316.39 -2.80024 -3.20104 0
M  V30 25075 N 2314.7 0.951297 -1.25651 0
M  V30 25076 C 2315.94 1.71111 -1.11805 0
M  V30 25077 C 2316.31 1.8906 0.334725 0
M  V30 25078 O 2317.51 2.6213 0.595075 0
M  V30 25079 C 2315.78 3.0548 -1.85517 0
M  V30 25080 S 2317.34 3.96674 -1.87604 0
M  V30 25081 H 2314.16 0.588108 -0.399562 0
M  V30 25082 H 2316.76 1.13438 -1.59224 0
M  V30 25083 H 2315.46 2.90089 -2.90304 0
M  V30 25084 H 2314.99 3.68214 -1.38499 0
M  V30 25085 H 2317.01 4.86914 -0.955475 0
M  V30 25086 N 2316.18 1.07291 1.1544 0
M  V30 25087 C 2317.09 0.704096 2.23785 0
M  V30 25088 C 2318.11 -0.284383 1.7166 0
M  V30 25089 O 2319.28 -0.13117 2.00972 0
M  V30 25090 C 2316.35 0.106853 3.46535 0
M  V30 25091 C 2315.41 1.14849 4.13652 0
M  V30 25092 C 2314.64 0.579653 5.30543 0
M  V30 25093 O 2314.87 -0.604485 5.67188 0
M  V30 25094 O 2313.8 1.32424 5.87152 0
M  V30 25095 H 2317.63 1.60761 2.57662 0
M  V30 25096 H 2315.21 0.845825 1.23151 0
M  V30 25097 H 2317.09 -0.223974 4.20804 0
M  V30 25098 H 2315.77 -0.769994 3.14409 0
M  V30 25099 H 2314.68 1.53166 3.41308 0
M  V30 25100 H 2316.01 1.99722 4.49858 0
M  V30 25101 N 2317.66 -1.32267 0.856927 0
M  V30 25102 C 2318.9 -1.98976 0.46774 0
M  V30 25103 C 2319.26 -1.66323 -0.959202 0
M  V30 25104 O 2320.47 -2.26141 -1.45306 0
M  V30 25105 C 2318.74 -3.50425 0.702621 0
M  V30 25106 S 2320.3 -4.36868 0.411346 0
M  V30 25107 H 2317.11 -0.689093 0.175133 0
M  V30 25108 H 2319.72 -1.60923 1.11013 0
M  V30 25109 H 2318.42 -3.7168 1.74018 0
M  V30 25110 H 2317.95 -3.93372 0.0467398 0
M  V30 25111 H 2319.97 -4.90319 -0.761713 0
M  V30 25112 N 2319.14 -0.615084 -1.45102 0
M  V30 25113 C 2320.38 -0.113382 -2.02483 0
M  V30 25114 C 2320.72 1.25561 -1.48149 0
M  V30 25115 O 2319.99 1.82991 -0.659136 0
M  V30 25116 C 2320.28 -0.0825911 -3.60005 0
M  V30 25117 C 2320.13 -1.48279 -4.24657 0
M  V30 25118 C 2321.45 0.601325 -4.35973 0
M  V30 25119 H 2318.57 -0.0426761 -0.735763 0
M  V30 25120 H 2321.21 -0.788491 -1.72866 0
M  V30 25121 H 2319.36 0.49231 -3.85368 0
M  V30 25122 H 2321.03 -2.10534 -4.10455 0
M  V30 25123 H 2319.27 -2.04134 -3.82769 0
M  V30 25124 H 2319.94 -1.41342 -5.33598 0
M  V30 25125 H 2322.42 0.112593 -4.15948 0
M  V30 25126 H 2321.3 0.592001 -5.45698 0
M  V30 25127 H 2321.56 1.66879 -4.09394 0
M  V30 25128 N 2320.62 1.53557 -0.354678 0
M  V30 25129 C 2321.55 2.28321 0.489051 0
M  V30 25130 C 2322.53 1.30318 1.09322 0
M  V30 25131 O 2323.71 1.59175 1.11252 0
M  V30 25132 C 2320.84 3.06433 1.6345 0
M  V30 25133 C 2319.8 4.12033 1.15813 0
M  V30 25134 C 2319.12 4.78164 2.39297 0
M  V30 25135 C 2320.42 5.21698 0.250639 0
M  V30 25136 H 2322.12 2.99097 -0.134666 0
M  V30 25137 H 2319.66 1.43848 -0.0662079 0
M  V30 25138 H 2321.62 3.57479 2.2313 0
M  V30 25139 H 2320.34 2.33329 2.28529 0
M  V30 25140 H 2319 3.61917 0.584083 0
M  V30 25141 H 2318.65 4.01643 3.02807 0
M  V30 25142 H 2318.35 5.49517 2.08099 0
M  V30 25143 H 2319.87 5.31999 2.99682 0
M  V30 25144 H 2321.29 5.68312 0.754595 0
M  V30 25145 H 2319.68 6.00092 0.0300413 0
M  V30 25146 H 2320.75 4.79671 -0.710209 0
M  V30 25147 N 2322.1 0.083568 1.57378 0
M  V30 25148 C 2323.04 -0.879502 2.13386 0
M  V30 25149 C 2324.01 -1.28752 1.04939 0
M  V30 25150 O 2325.2 -1.3713 1.32665 0
M  V30 25151 C 2322.34 -2.13747 2.70936 0
M  V30 25152 C 2321.45 -1.78103 3.93578 0
M  V30 25153 C 2320.59 -2.98599 4.39331 0
M  V30 25154 C 2319.62 -2.59027 5.54591 0
M  V30 25155 N 2318.76 -3.72321 5.95249 0
M  V30 25156 H 2323.6 -0.395024 2.9537 0
M  V30 25157 H 2321.14 -0.183323 1.45953 0
M  V30 25158 H 2323.1 -2.87403 3.02416 0
M  V30 25159 H 2321.73 -2.59715 1.91698 0
M  V30 25160 H 2320.78 -0.944625 3.68485 0
M  V30 25161 H 2322.09 -1.44997 4.7726 0
M  V30 25162 H 2321.24 -3.80521 4.72535 0
M  V30 25163 H 2319.98 -3.34907 3.54526 0
M  V30 25164 H 2318.99 -1.7553 5.21027 0
M  V30 25165 H 2320.21 -2.23876 6.41137 0
M  V30 25166 H 2318.16 -4.08369 5.13392 0
M  V30 25167 H 2318.08 -3.43022 6.737 0
M  V30 25168 H 2319.34 -4.54786 6.3308 0
M  V30 25169 N 2323.57 -1.5645 -0.190064 0
M  V30 25170 C 2324.51 -1.90014 -1.26372 0
M  V30 25171 C 2325.48 -0.760791 -1.43704 0
M  V30 25172 O 2326.67 -1.01229 -1.59013 0
M  V30 25173 C 2323.8 -2.13473 -2.62958 0
M  V30 25174 C 2322.84 -3.36174 -2.62468 0
M  V30 25175 S 2323.67 -4.91141 -2.13403 0
M  V30 25176 C 2324.83 -5.17673 -3.51803 0
M  V30 25177 H 2325.06 -2.80784 -0.977131 0
M  V30 25178 H 2322.6 -1.49294 -0.393788 0
M  V30 25179 H 2324.55 -2.2767 -3.41579 0
M  V30 25180 H 2323.22 -1.23444 -2.88826 0
M  V30 25181 H 2322.41 -3.4973 -3.62912 0
M  V30 25182 H 2322.01 -3.20996 -1.91932 0
M  V30 25183 H 2324.3 -5.08502 -4.47697 0
M  V30 25184 H 2325.25 -6.19405 -3.43138 0
M  V30 25185 H 2325.65 -4.45294 -3.46948 0
M  V30 25186 N 2325.05 0.45796 -1.50799 0
M  V30 25187 C 2326.3 1.20906 -1.62444 0
M  V30 25188 C 2326.63 1.91665 -0.330898 0
M  V30 25189 O 2325.88 1.83358 0.683978 0
M  V30 25190 C 2326.18 2.26625 -2.76362 0
M  V30 25191 C 2325.85 1.73026 -4.16381 0
M  V30 25192 C 2324.51 1.5813 -4.54476 0
M  V30 25193 C 2326.86 1.33405 -5.03838 0
M  V30 25194 C 2324.19 1.02055 -5.77756 0
M  V30 25195 C 2326.54 0.78767 -6.27677 0
M  V30 25196 C 2325.2 0.625444 -6.64563 0
M  V30 25197 H 2324.47 0.442425 -0.594425 0
M  V30 25198 H 2327.12 0.503103 -1.84773 0
M  V30 25199 H 2325.43 3.03179 -2.48172 0
M  V30 25200 H 2327.12 2.84523 -2.82573 0
M  V30 25201 H 2323.71 1.85591 -3.86334 0
M  V30 25202 H 2327.9 1.43742 -4.75028 0
M  V30 25203 H 2323.15 0.882441 -6.04998 0
M  V30 25204 H 2327.33 0.472055 -6.94798 0
M  V30 25205 H 2324.95 0.188792 -7.59966 0
M  V30 25206 N 2326.53 1.40598 0.712035 0
M  V30 25207 C 2327.49 1.40891 1.80783 0
M  V30 25208 C 2328.49 0.30213 1.57936 0
M  V30 25209 O 2329.68 0.561211 1.64912 0
M  V30 25210 C 2326.81 1.20414 3.18925 0
M  V30 25211 H 2328.01 2.38422 1.8192 0
M  V30 25212 H 2325.56 1.26499 0.918028 0
M  V30 25213 H 2326.3 0.236579 3.23436 0
M  V30 25214 H 2326.08 2.00588 3.36908 0
M  V30 25215 H 2327.57 1.23415 3.98947 0
M  V30 25216 N 2328.01 -0.94462 1.26153 0
M  V30 25217 C 2328.94 -2.06017 1.09906 0
M  V30 25218 C 2329.92 -1.70099 0.00522528 0
M  V30 25219 O 2331.1 -1.93395 0.176617 0
M  V30 25220 C 2328.23 -3.39592 0.727622 0
M  V30 25221 C 2327.19 -3.89558 1.77281 0
M  V30 25222 C 2326.51 -5.19744 1.25578 0
M  V30 25223 C 2327.81 -4.14822 3.17365 0
M  V30 25224 H 2329.51 -2.19868 2.03221 0
M  V30 25225 H 2327.05 -1.0565 0.97847 0
M  V30 25226 H 2329.01 -4.17094 0.60085 0
M  V30 25227 H 2327.73 -3.25708 -0.241229 0
M  V30 25228 H 2326.39 -3.14234 1.88819 0
M  V30 25229 H 2326.04 -5.02237 0.276872 0
M  V30 25230 H 2325.74 -5.54144 1.95443 0
M  V30 25231 H 2327.26 -5.99833 1.14161 0
M  V30 25232 H 2328.68 -4.82949 3.08923 0
M  V30 25233 H 2327.07 -4.60497 3.84789 0
M  V30 25234 H 2328.14 -3.20728 3.63678 0
M  V30 25235 N 2329.49 -1.07901 -1.1487 0
M  V30 25236 C 2330.9 -0.80563 -1.37774 0
M  V30 25237 C 2331.1 0.587521 -1.92744 0
M  V30 25238 O 2330.16 1.34525 -2.1368 0
M  V30 25239 C 2331.47 -1.88406 -2.34358 0
M  V30 25240 C 2333.02 -1.90947 -2.48009 0
M  V30 25241 C 2333.49 -2.97889 -3.47888 0
M  V30 25242 N 2334.98 -2.97028 -3.55428 0
M  V30 25243 C 2335.72 -3.76419 -4.32546 0
M  V30 25244 N 2335.22 -4.65676 -5.1295 0
M  V30 25245 N 2337.01 -3.64743 -4.27691 0
M  V30 25246 H 2329.16 -1.97743 -0.77533 0
M  V30 25247 H 2331.42 -0.857839 -0.403506 0
M  V30 25248 H 2331.13 -2.88538 -2.01093 0
M  V30 25249 H 2331 -1.74895 -3.34203 0
M  V30 25250 H 2333.39 -0.914628 -2.80568 0
M  V30 25251 H 2333.47 -2.08536 -1.48143 0
M  V30 25252 H 2333.11 -3.97576 -3.16062 0
M  V30 25253 H 2333.04 -2.77546 -4.47522 0
M  V30 25254 H 2335.54 -2.32332 -2.98044 0
M  V30 25255 H 2335.85 -5.22872 -5.69056 0
M  V30 25256 H 2334.19 -4.69721 -5.12237 0
M  V30 25257 H 2337.38 -2.94385 -3.63944 0
M  V30 25258 H 2337.56 -4.26856 -4.87542 0
M  V30 25259 N 2330.96 1.31811 -0.863929 0
M  V30 25260 C 2331.91 2.26187 -0.286938 0
M  V30 25261 C 2332.9 1.50368 0.572551 0
M  V30 25262 O 2334.09 1.71935 0.420416 0
M  V30 25263 C 2331.22 3.39403 0.515789 0
M  V30 25264 C 2330.3 4.22598 -0.356605 0
M  V30 25265 N 2330.7 4.84653 -1.44724 0
M  V30 25266 C 2328.99 4.45754 -0.147976 0
M  V30 25267 C 2329.69 5.46794 -1.98471 0
M  V30 25268 N 2328.67 5.28253 -1.28256 0
M  V30 25269 H 2332.47 2.71698 -1.12059 0
M  V30 25270 H 2329.99 1.46007 -0.711037 0
M  V30 25271 H 2331.98 4.06034 0.945629 0
M  V30 25272 H 2330.64 2.95436 1.34713 0
M  V30 25273 H 2331.65 4.84485 -1.83017 0
M  V30 25274 H 2328.33 4.12442 0.6479 0
M  V30 25275 H 2329.72 6.06121 -2.89943 0
M  V30 25276 N 2332.44 0.62277 1.44773 0
M  V30 25277 C 2333.67 0.130569 2.06187 0
M  V30 25278 C 2334.08 -1.19666 1.46549 0
M  V30 25279 O 2333.42 -1.74315 0.579667 0
M  V30 25280 C 2333.48 -0.0674351 3.59437 0
M  V30 25281 C 2333.15 1.18034 4.41494 0
M  V30 25282 C 2334.15 2.10209 4.75508 0
M  V30 25283 C 2331.83 1.41341 4.82004 0
M  V30 25284 C 2333.82 3.24008 5.48906 0
M  V30 25285 C 2331.51 2.55439 5.55152 0
M  V30 25286 C 2332.51 3.46599 5.88522 0
M  V30 25287 O 2332.2 4.58708 6.60183 0
M  V30 25288 H 2331.93 0.073028 0.672044 0
M  V30 25289 H 2334.48 0.854835 1.86767 0
M  V30 25290 H 2332.71 -0.846759 3.77315 0
M  V30 25291 H 2334.4 -0.513139 4.02643 0
M  V30 25292 H 2335.17 1.93433 4.44757 0
M  V30 25293 H 2331.05 0.712789 4.55456 0
M  V30 25294 H 2334.59 3.95184 5.7487 0
M  V30 25295 H 2330.49 2.72161 5.85319 0
M  V30 25296 H 2331.26 4.57583 6.78646 0
M  V30 25297 N 2333.92 -1.53367 0.362817 0
M  V30 25298 C 2335.15 -2.05335 -0.228245 0
M  V30 25299 C 2335.56 -1.23627 -1.43224 0
M  V30 25300 O 2334.9 -0.269237 -1.81716 0
M  V30 25301 C 2334.96 -3.52846 -0.688487 0
M  V30 25302 C 2334.63 -4.5526 0.398442 0
M  V30 25303 C 2335.62 -5.04713 1.24741 0
M  V30 25304 C 2333.31 -4.99192 0.557892 0
M  V30 25305 C 2335.3 -5.96698 2.2412 0
M  V30 25306 C 2332.99 -5.90983 1.55505 0
M  V30 25307 C 2333.99 -6.39626 2.39514 0
M  V30 25308 O 2333.68 -7.29609 3.3753 0
M  V30 25309 H 2333.41 -0.674541 -0.0443831 0
M  V30 25310 H 2335.96 -1.98743 0.518703 0
M  V30 25311 H 2334.19 -3.56967 -1.48699 0
M  V30 25312 H 2335.88 -3.87687 -1.20224 0
M  V30 25313 H 2336.65 -4.71523 1.13541 0
M  V30 25314 H 2332.53 -4.60919 -0.0862149 0
M  V30 25315 H 2336.07 -6.34589 2.89729 0
M  V30 25316 H 2331.97 -6.23589 1.66755 0
M  V30 25317 H 2332.73 -7.47598 3.33227 0
M  V30 25318 N 2335.4 -0.091913 -1.57332 0
M  V30 25319 C 2336.65 0.572543 -1.94237 0
M  V30 25320 C 2336.97 1.68388 -0.973428 0
M  V30 25321 O 2336.23 1.95699 0.00753472 0
M  V30 25322 C 2336.53 1.17045 -3.37691 0
M  V30 25323 C 2336.19 0.183224 -4.50528 0
M  V30 25324 C 2334.86 -0.0883122 -4.81119 0
M  V30 25325 C 2337.21 -0.491041 -5.18882 0
M  V30 25326 C 2334.54 -1.04086 -5.77393 0
M  V30 25327 C 2336.89 -1.43204 -6.16178 0
M  V30 25328 C 2335.55 -1.71184 -6.45176 0
M  V30 25329 H 2334.82 0.209508 -0.710765 0
M  V30 25330 H 2337.47 -0.167069 -1.9077 0
M  V30 25331 H 2335.77 1.98624 -3.37721 0
M  V30 25332 H 2337.47 1.69221 -3.63546 0
M  V30 25333 H 2334.06 0.405049 -4.26682 0
M  V30 25334 H 2338.24 -0.294399 -4.95426 0
M  V30 25335 H 2333.5 -1.26468 -5.98177 0
M  V30 25336 H 2337.67 -1.96034 -6.68239 0
M  V30 25337 H 2335.3 -2.45153 -7.19586 0
M  V30 25338 N 2336.88 1.56548 0.181765 0
M  V30 25339 C 2338.1 1.85523 0.915914 0
M  V30 25340 C 2338.52 0.676047 1.76281 0
M  V30 25341 O 2337.88 -0.355045 1.79013 0
M  V30 25342 C 2337.93 3.13431 1.80121 0
M  V30 25343 O 2337.65 4.26803 0.988487 0
M  V30 25344 C 2339.15 3.55678 2.64591 0
M  V30 25345 H 2336.37 0.615765 0.266599 0
M  V30 25346 H 2338.91 2.03661 0.185004 0
M  V30 25347 H 2337.07 2.97149 2.48558 0
M  V30 25348 H 2337.48 4.99724 1.59299 0
M  V30 25349 H 2338.96 4.48107 3.22342 0
M  V30 25350 H 2339.43 2.79298 3.38953 0
M  V30 25351 H 2340.04 3.74535 2.01503 0
M  V30 25352 N 2338.35 -0.449957 1.5104 0
M  V30 25353 C 2339.6 -1.19731 1.62319 0
M  V30 25354 C 2339.92 -1.92638 0.339135 0
M  V30 25355 O 2341.12 -2.69473 0.331116 0
M  V30 25356 C 2339.58 -2.17673 2.86612 0
M  V30 25357 C 2339.19 -1.50472 4.21974 0
M  V30 25358 C 2340.93 -2.92919 3.07244 0
M  V30 25359 C 2338.84 -2.46824 5.37431 0
M  V30 25360 H 2337.77 -0.450608 0.60454 0
M  V30 25361 H 2340.42 -0.465593 1.77495 0
M  V30 25362 H 2338.8 -2.94226 2.65042 0
M  V30 25363 H 2339.97 -0.795636 4.53879 0
M  V30 25364 H 2338.29 -0.874273 4.07118 0
M  V30 25365 H 2340.89 -3.65072 3.90675 0
M  V30 25366 H 2341.23 -3.53536 2.19813 0
M  V30 25367 H 2341.76 -2.23475 3.29095 0
M  V30 25368 H 2338.5 -1.90915 6.27082 0
M  V30 25369 H 2338.02 -3.15823 5.09918 0
M  V30 25370 H 2339.7 -3.08218 5.68868 0
M  V30 25371 N 2339.83 -1.40974 -0.704569 0
M  V30 25372 C 2341.08 -1.3957 -1.46166 0
M  V30 25373 C 2341.4 -0.00257172 -1.95 0
M  V30 25374 O 2340.67 0.954084 -1.71097 0
M  V30 25375 H 2339.25 -0.513713 -0.542317 0
M  V30 25376 H 2341.91 -1.7613 -0.834522 0
M  V30 25377 H 2341.01 -2.07739 -2.32919 0
M  V30 25378 N 2341.31 0.937917 -1.26653 0
M  V30 25379 C 2342.56 1.68744 -1.13565 0
M  V30 25380 C 2342.91 1.89767 0.317207 0
M  V30 25381 O 2342.2 1.4696 1.22937 0
M  V30 25382 C 2342.4 3.06292 -1.84174 0
M  V30 25383 C 2342.23 2.9869 -3.36176 0
M  V30 25384 C 2341 3.01528 -4.05474 0
M  V30 25385 C 2343.2 2.7858 -4.32316 0
M  V30 25386 N 2341.18 2.8426 -5.44123 0
M  V30 25387 C 2342.55 2.69914 -5.58164 0
M  V30 25388 C 2344.6 2.63389 -4.22529 0
M  V30 25389 C 2343.31 2.47606 -6.7534 0
M  V30 25390 C 2345.33 2.42456 -5.39415 0
M  V30 25391 C 2344.69 2.34524 -6.64212 0
M  V30 25392 H 2340.79 0.62472 -0.470372 0
M  V30 25393 H 2343.38 1.10965 -1.59984 0
M  V30 25394 H 2341.55 3.62204 -1.40225 0
M  V30 25395 H 2343.28 3.70123 -1.6368 0
M  V30 25396 H 2340.04 3.11365 -3.56859 0
M  V30 25397 H 2340.46 2.78784 -6.16935 0
M  V30 25398 H 2345.1 2.68286 -3.26776 0
M  V30 25399 H 2342.82 2.4145 -7.71186 0
M  V30 25400 H 2346.41 2.31602 -5.33715 0
M  V30 25401 H 2345.29 2.18542 -7.53133 0
M  V30 25402 N 2342.79 1.08509 1.14296 0
M  V30 25403 C 2343.74 0.710522 2.21482 0
M  V30 25404 C 2344.73 -0.284205 1.66999 0
M  V30 25405 O 2345.94 -0.146661 1.79402 0
M  V30 25406 H 2342.31 0.211742 0.721574 0
M  V30 25407 H 2344.28 1.62388 2.50345 0
M  V30 25408 C 2343.03 0.137068 3.4743 0
M  V30 25409 H 2342.35 0.893661 3.89684 0
M  V30 25410 H 2343.79 -0.0872044 4.2391 0
M  V30 25411 C 2342.25 -1.12532 3.1755 0
M  V30 25412 O 2342.78 -2.21004 3.35441 0
M  V30 25413 N 2340.99 -1.03612 2.71501 0
M  V30 25414 H 2340.54 -0.153358 2.57143 0
M  V30 25415 H 2340.49 -1.88154 2.51884 0
M  V30 25416 N 2344.27 -1.31351 0.870907 0
M  V30 25417 C 2345.52 -1.95943 0.478443 0
M  V30 25418 C 2345.83 -1.69598 -0.974463 0
M  V30 25419 O 2347.03 -2.2806 -1.47312 0
M  V30 25420 C 2345.49 -3.50789 0.804671 0
M  V30 25421 C 2345.1 -3.85973 2.2744 0
M  V30 25422 C 2346.84 -4.21769 0.480722 0
M  V30 25423 C 2344.75 -5.33934 2.54299 0
M  V30 25424 H 2343.68 -0.733366 0.175188 0
M  V30 25425 H 2346.33 -1.49508 1.06394 0
M  V30 25426 H 2344.71 -3.95722 0.148417 0
M  V30 25427 H 2345.89 -3.51997 2.9738 0
M  V30 25428 H 2344.2 -3.2806 2.56448 0
M  V30 25429 H 2346.8 -5.30628 0.658612 0
M  V30 25430 H 2347.14 -4.12255 -0.578907 0
M  V30 25431 H 2347.67 -3.82474 1.09356 0
M  V30 25432 H 2344.41 -5.48485 3.58949 0
M  V30 25433 H 2343.93 -5.69259 1.88955 0
M  V30 25434 H 2345.61 -6.01208 2.39077 0
M  V30 25435 N 2345.74 -0.630439 -1.44441 0
M  V30 25436 C 2346.99 -0.134652 -2.02052 0
M  V30 25437 C 2347.32 1.24324 -1.49579 0
M  V30 25438 O 2346.57 1.83879 -0.669838 0
M  V30 25439 C 2346.87 -0.0698463 -3.57332 0
M  V30 25440 C 2346.54 -1.38643 -4.29056 0
M  V30 25441 C 2345.2 -1.74702 -4.48367 0
M  V30 25442 C 2347.55 -2.25551 -4.69868 0
M  V30 25443 C 2344.88 -2.97378 -5.0575 0
M  V30 25444 C 2347.23 -3.47497 -5.2861 0
M  V30 25445 C 2345.9 -3.8378 -5.4614 0
M  V30 25446 H 2345.17 -0.0492728 -0.73936 0
M  V30 25447 H 2347.81 -0.816617 -1.73216 0
M  V30 25448 H 2346.12 0.695485 -3.85578 0
M  V30 25449 H 2347.82 0.330273 -3.99638 0
M  V30 25450 H 2344.41 -1.09582 -4.14355 0
M  V30 25451 H 2348.59 -1.98987 -4.54662 0
M  V30 25452 H 2343.85 -3.25567 -5.1751 0
M  V30 25453 H 2348.02 -4.15073 -5.59184 0
M  V30 25454 H 2345.65 -4.78921 -5.90372 0
M  V30 25455 N 2347.22 1.53172 -0.370945 0
M  V30 25456 C 2348.5 1.93675 0.27372 0
M  V30 25457 C 2348.88 1.30493 1.65936 0
M  V30 25458 O 2348.23 0.466039 2.23697 0
M  V30 25459 C 2348.44 3.47543 0.31854 0
M  V30 25460 C 2349.79 4.2094 0.556318 0
M  V30 25461 O 2350.81 3.53952 0.399525 0
M  V30 25462 O 2349.67 5.39658 0.862038 0
M  V30 25463 H 2346.76 0.810284 0.165434 0
M  V30 25464 H 2349.31 1.64315 -0.424119 0
M  V30 25465 H 2348.08 3.85817 -0.652755 0
M  V30 25466 H 2347.7 3.83153 1.06206 0
M  V30 25467 N 2348.7 0.100255 1.57281 0
M  V30 25468 C 2349.95 -0.562234 1.94538 0
M  V30 25469 C 2350.28 -1.6787 0.982344 0
M  V30 25470 O 2349.53 -1.957 0.00284375 0
M  V30 25471 C 2349.83 -1.15253 3.38307 0
M  V30 25472 C 2349.5 -0.159329 4.50618 0
M  V30 25473 C 2348.16 0.113826 4.81065 0
M  V30 25474 C 2350.51 0.518552 5.18614 0
M  V30 25475 C 2347.84 1.07147 5.76833 0
M  V30 25476 C 2350.19 1.4647 6.1541 0
M  V30 25477 C 2348.85 1.74603 6.44259 0
M  V30 25478 H 2348.12 -0.205736 0.711866 0
M  V30 25479 H 2350.77 0.177184 1.90679 0
M  V30 25480 H 2349.08 -1.9683 3.3877 0
M  V30 25481 H 2350.77 -1.6729 3.64438 0
M  V30 25482 H 2347.36 -0.382416 4.26891 0
M  V30 25483 H 2351.55 0.320668 4.95263 0
M  V30 25484 H 2346.8 1.29638 5.97498 0
M  V30 25485 H 2350.98 1.99575 6.6719 0
M  V30 25486 H 2348.6 2.48966 7.18276 0
M  V30 25487 N 2350.18 -1.56643 -0.17346 0
M  V30 25488 C 2351.43 -1.82142 -0.891752 0
M  V30 25489 C 2351.76 -0.677768 -1.81989 0
M  V30 25490 O 2351.03 0.320412 -1.91843 0
M  V30 25491 C 2351.32 -3.18018 -1.68928 0
M  V30 25492 C 2351.17 -4.42908 -0.784409 0
M  V30 25493 C 2352.49 -3.50812 -2.65742 0
M  V30 25494 H 2349.61 -0.662572 -0.322749 0
M  V30 25495 H 2352.25 -1.89341 -0.158062 0
M  V30 25496 H 2350.4 -3.12011 -2.31476 0
M  V30 25497 H 2352.07 -4.60979 -0.171965 0
M  V30 25498 H 2350.31 -4.33702 -0.0923355 0
M  V30 25499 H 2350.99 -5.34526 -1.3779 0
M  V30 25500 H 2353.46 -3.57259 -2.1332 0
M  V30 25501 H 2352.34 -4.46965 -3.18612 0
M  V30 25502 H 2352.6 -2.75407 -3.45838 0
M  V30 25503 N 2351.66 0.44194 -1.51277 0
M  V30 25504 C 2352.9 1.19352 -1.6396 0
M  V30 25505 C 2353.24 1.90973 -0.352577 0
M  V30 25506 O 2352.51 1.83402 0.647595 0
M  V30 25507 C 2352.79 2.21417 -2.83983 0
M  V30 25508 C 2352.65 1.5391 -4.22648 0
M  V30 25509 C 2353.97 3.22446 -2.99527 0
M  V30 25510 H 2351.09 0.432549 -0.596716 0
M  V30 25511 H 2353.73 0.483366 -1.83749 0
M  V30 25512 H 2351.88 2.81982 -2.67242 0
M  V30 25513 H 2353.55 0.967177 -4.51047 0
M  V30 25514 H 2351.79 0.84154 -4.25559 0
M  V30 25515 H 2352.46 2.2822 -5.02613 0
M  V30 25516 H 2354.94 2.71931 -3.14949 0
M  V30 25517 H 2353.82 3.91159 -3.85079 0
M  V30 25518 H 2354.08 3.88283 -2.11397 0
M  V30 25519 N 2353.14 1.41345 0.697083 0
M  V30 25520 C 2354.38 1.4083 1.45928 0
M  V30 25521 C 2354.71 0.0167439 1.94193 0
M  V30 25522 O 2353.99 -0.955233 1.69427 0
M  V30 25523 C 2354.27 2.41377 2.67224 0
M  V30 25524 C 2354.13 3.89634 2.24735 0
M  V30 25525 C 2355.44 2.39202 3.69419 0
M  V30 25526 H 2352.56 0.512852 0.529294 0
M  V30 25527 H 2355.21 1.7261 0.794082 0
M  V30 25528 H 2353.36 2.14407 3.23978 0
M  V30 25529 H 2355.03 4.27502 1.7332 0
M  V30 25530 H 2353.27 4.04573 1.56535 0
M  V30 25531 H 2353.94 4.55531 3.11762 0
M  V30 25532 H 2356.42 2.63133 3.22335 0
M  V30 25533 H 2355.29 3.11571 4.51901 0
M  V30 25534 H 2355.55 1.41008 4.1901 0
M  V30 25535 N 2354.61 -0.931187 1.27148 0
M  V30 25536 C 2355.86 -1.673 1.12667 0
M  V30 25537 C 2356.18 -1.92836 -0.327685 0
M  V30 25538 O 2357.38 -2.64937 -0.593345 0
M  V30 25539 C 2355.84 -3.01303 1.96836 0
M  V30 25540 C 2355.45 -2.83478 3.46906 0
M  V30 25541 C 2357.19 -3.79107 1.90992 0
M  V30 25542 C 2355.1 -4.13016 4.23287 0
M  V30 25543 H 2354.03 -0.627501 0.418041 0
M  V30 25544 H 2356.68 -1.03478 1.5154 0
M  V30 25545 H 2355.06 -3.66162 1.50803 0
M  V30 25546 H 2356.23 -2.27408 4.00777 0
M  V30 25547 H 2354.55 -2.19107 3.54092 0
M  V30 25548 H 2357.15 -4.75094 2.45337 0
M  V30 25549 H 2357.49 -4.06832 0.88279 0
M  V30 25550 H 2358.02 -3.2104 2.34901 0
M  V30 25551 H 2354.76 -3.90471 5.2651 0
M  V30 25552 H 2354.28 -4.68763 3.74194 0
M  V30 25553 H 2355.96 -4.81403 4.32273 0
M  V30 25554 N 2356.09 -1.09114 -1.13719 0
M  V30 25555 C 2357.02 -0.749423 -2.21147 0
M  V30 25556 C 2358 0.271446 -1.6792 0
M  V30 25557 O 2359.19 0.140217 -1.93693 0
M  V30 25558 C 2356.32 -0.16572 -3.46904 0
M  V30 25559 C 2355.27 -1.11574 -4.13201 0
M  V30 25560 C 2354.6 -0.393903 -5.33247 0
M  V30 25561 C 2355.9 -2.45686 -4.60908 0
M  V30 25562 H 2357.59 -1.64763 -2.49987 0
M  V30 25563 H 2355.14 -0.793647 -1.20155 0
M  V30 25564 H 2357.09 0.0853919 -4.21313 0
M  V30 25565 H 2355.81 0.767658 -3.1745 0
M  V30 25566 H 2354.47 -1.35208 -3.40756 0
M  V30 25567 H 2354.12 0.543511 -5.00055 0
M  V30 25568 H 2353.82 -1.02731 -5.7855 0
M  V30 25569 H 2355.35 -0.151015 -6.10413 0
M  V30 25570 H 2356.76 -2.26278 -5.26755 0
M  V30 25571 H 2355.16 -3.04785 -5.16939 0
M  V30 25572 H 2356.23 -3.06684 -3.75597 0
M  V30 25573 N 2357.57 1.30887 -0.877861 0
M  V30 25574 C 2358.79 2.01116 -0.506665 0
M  V30 25575 C 2359.22 1.65414 0.895535 0
M  V30 25576 O 2358.58 0.86695 1.59228 0
M  V30 25577 C 2358.63 3.54125 -0.680285 0
M  V30 25578 O 2357.73 4.11469 0.276961 0
M  V30 25579 H 2357.07 0.632996 -0.200529 0
M  V30 25580 H 2359.6 1.669 -1.18345 0
M  V30 25581 H 2359.61 4.03906 -0.576571 0
M  V30 25582 H 2358.29 3.79449 -1.70267 0
M  V30 25583 H 2356.86 3.72682 0.12754 0
M  V30 25584 N 2359.05 0.638091 1.44105 0
M  V30 25585 C 2360.3 0.14278 2.01194 0
M  V30 25586 C 2360.61 -1.2453 1.50837 0
M  V30 25587 O 2361.82 -1.835 2.001 0
M  V30 25588 C 2360.27 0.204484 3.59319 0
M  V30 25589 C 2359.88 1.59431 4.18671 0
M  V30 25590 C 2361.62 -0.234004 4.23855 0
M  V30 25591 C 2359.53 1.61075 5.69042 0
M  V30 25592 H 2358.46 0.0496131 0.752366 0
M  V30 25593 H 2361.11 0.79791 1.65244 0
M  V30 25594 H 2359.49 -0.517877 3.92599 0
M  V30 25595 H 2360.67 2.34081 3.96917 0
M  V30 25596 H 2358.98 1.97747 3.66449 0
M  V30 25597 H 2361.58 -0.241349 5.34155 0
M  V30 25598 H 2361.92 -1.26263 3.9669 0
M  V30 25599 H 2362.46 0.436095 3.95402 0
M  V30 25600 H 2359.19 2.61798 6.00951 0
M  V30 25601 H 2358.71 0.907285 5.92898 0
M  V30 25602 H 2360.39 1.34777 6.32807 0
M  V30 25603 N 2360.53 -1.52973 0.379063 0
M  V30 25604 C 2361.77 -2.01744 -0.206692 0
M  V30 25605 C 2362.1 -1.26542 -1.47312 0
M  V30 25606 O 2361.38 -0.362937 -1.91084 0
M  V30 25607 C 2361.66 -3.56819 -0.485003 0
M  V30 25608 C 2361.52 -4.42701 0.795997 0
M  V30 25609 C 2362.83 -4.21076 -1.27995 0
M  V30 25610 H 2359.95 -0.733311 -0.0736478 0
M  V30 25611 H 2362.6 -1.83121 0.506613 0
M  V30 25612 H 2360.75 -3.72818 -1.09266 0
M  V30 25613 H 2362.42 -4.38473 1.43315 0
M  V30 25614 H 2360.66 -4.10125 1.41351 0
M  V30 25615 H 2361.33 -5.49192 0.556044 0
M  V30 25616 H 2363.81 -4.08992 -0.765795 0
M  V30 25617 H 2362.68 -5.29581 -1.44343 0
M  V30 25618 H 2362.94 -3.7803 -2.29229 0
M  V30 25619 N 2362 -0.108595 -1.57225 0
M  V30 25620 C 2363.25 0.550819 -1.94449 0
M  V30 25621 C 2363.57 1.67876 -0.992103 0
M  V30 25622 O 2362.84 1.95845 -0.0465344 0
M  V30 25623 H 2361.42 0.206466 -0.7179 0
M  V30 25624 H 2364.08 -0.175096 -1.94112 0
M  V30 25625 H 2363.18 0.952207 -2.9722 0
M  V30 25626 N 2363.48 1.56732 0.16515 0
M  V30 25627 C 2364.41 1.92001 1.23333 0
M  V30 25628 C 2365.39 0.783556 1.42475 0
M  V30 25629 O 2366.58 1.03746 1.57382 0
M  V30 25630 C 2363.7 2.17629 2.59529 0
M  V30 25631 C 2362.75 3.40307 2.57087 0
M  V30 25632 S 2363.58 4.94474 2.05562 0
M  V30 25633 C 2364.74 5.23204 3.43523 0
M  V30 25634 H 2364.97 2.82303 0.932338 0
M  V30 25635 H 2362.5 1.49901 0.369987 0
M  V30 25636 H 2364.46 2.33076 3.37914 0
M  V30 25637 H 2363.12 1.28024 2.86825 0
M  V30 25638 H 2362.32 3.55459 3.57302 0
M  V30 25639 H 2361.92 3.24008 1.86801 0
M  V30 25640 H 2364.21 5.1556 4.3955 0
M  V30 25641 H 2365.15 6.24785 3.3324 0
M  V30 25642 H 2365.56 4.50758 3.3982 0
M  V30 25643 N 2364.96 -0.433911 1.51509 0
M  V30 25644 C 2366.21 -1.18306 1.64347 0
M  V30 25645 C 2366.53 -1.91114 0.361349 0
M  V30 25646 O 2365.79 -1.84423 -0.65472 0
M  V30 25647 C 2366.09 -2.222 2.79932 0
M  V30 25648 C 2365.76 -1.6638 4.19081 0
M  V30 25649 C 2364.42 -1.50879 4.56934 0
M  V30 25650 C 2366.77 -1.25372 5.05897 0
M  V30 25651 C 2364.1 -0.928506 5.79306 0
M  V30 25652 C 2366.45 -0.687712 6.28851 0
M  V30 25653 C 2365.11 -0.519638 6.65474 0
M  V30 25654 H 2364.38 -0.432912 0.601388 0
M  V30 25655 H 2367.03 -0.473644 1.8555 0
M  V30 25656 H 2365.34 -2.99193 2.52964 0
M  V30 25657 H 2367.03 -2.79992 2.87064 0
M  V30 25658 H 2363.62 -1.79421 3.89238 0
M  V30 25659 H 2367.81 -1.36166 4.77255 0
M  V30 25660 H 2363.06 -0.786079 6.06326 0
M  V30 25661 H 2367.24 -0.361459 6.95461 0
M  V30 25662 H 2364.86 -0.0678643 7.6017 0
M  V30 25663 N 2366.44 -1.41713 -0.689577 0
M  V30 25664 C 2367.37 -1.4681 -1.81574 0
M  V30 25665 C 2368.35 -0.326134 -1.66944 0
M  V30 25666 O 2369.53 -0.53841 -1.86587 0
M  V30 25667 C 2366.66 -1.35541 -3.19759 0
M  V30 25668 C 2365.62 -2.47611 -3.49103 0
M  V30 25669 C 2364.94 -2.21405 -4.86707 0
M  V30 25670 C 2366.24 -3.89945 -3.47477 0
M  V30 25671 H 2367.94 -2.41061 -1.77566 0
M  V30 25672 H 2365.48 -1.16027 -0.852866 0
M  V30 25673 H 2367.44 -1.37717 -3.98261 0
M  V30 25674 H 2366.16 -0.377765 -3.24408 0
M  V30 25675 H 2364.82 -2.44727 -2.72955 0
M  V30 25676 H 2364.47 -1.21969 -4.87988 0
M  V30 25677 H 2364.17 -2.96506 -5.07304 0
M  V30 25678 H 2365.69 -2.25307 -5.67511 0
M  V30 25679 H 2367.11 -3.94512 -4.15973 0
M  V30 25680 H 2365.5 -4.64778 -3.79607 0
M  V30 25681 H 2366.57 -4.1767 -2.46333 0
M  V30 25682 N 2367.92 0.924431 -1.2764 0
M  V30 25683 C 2368.88 2.00703 -1.10684 0
M  V30 25684 C 2369.88 1.60723 -0.0498106 0
M  V30 25685 O 2371.07 1.71689 -0.294684 0
M  V30 25686 C 2368.2 3.33901 -0.687223 0
M  V30 25687 H 2369.39 2.17175 -2.06821 0
M  V30 25688 H 2366.95 1.10567 -1.10475 0
M  V30 25689 H 2367.68 3.23129 0.275382 0
M  V30 25690 H 2367.47 3.64277 -1.45067 0
M  V30 25691 H 2368.96 4.13398 -0.590925 0
M  V30 25692 N 2369.39 1.09715 1.13139 0
M  V30 25693 C 2370.67 0.747334 1.8076 0
M  V30 25694 C 2371.05 -0.76723 1.96664 0
M  V30 25695 O 2370.4 -1.69073 1.53709 0
M  V30 25696 C 2370.61 1.48981 3.15604 0
M  V30 25697 C 2371.96 1.65753 3.90911 0
M  V30 25698 O 2372.98 1.45257 3.25237 0
M  V30 25699 O 2371.84 1.99679 5.08715 0
M  V30 25700 H 2368.93 0.268796 0.782098 0
M  V30 25701 H 2371.48 1.19953 1.20039 0
M  V30 25702 H 2370.25 2.52094 2.99273 0
M  V30 25703 H 2369.88 1.02998 3.84028 0
M  V30 25704 N 2370.87 -1.30419 0.88479 0
M  V30 25705 C 2372.12 -1.95425 0.499198 0
M  V30 25706 C 2372.43 -1.70622 -0.95642 0
M  V30 25707 O 2373.64 -2.2961 -1.44885 0
M  V30 25708 C 2372.1 -3.49916 0.841832 0
M  V30 25709 C 2371.7 -3.83539 2.31521 0
M  V30 25710 C 2373.45 -4.21236 0.52543 0
M  V30 25711 C 2371.36 -5.31207 2.59948 0
M  V30 25712 H 2370.29 -0.731466 0.182956 0
M  V30 25713 H 2372.94 -1.48371 1.07974 0
M  V30 25714 H 2371.32 -3.95542 0.19038 0
M  V30 25715 H 2372.49 -3.48823 3.01096 0
M  V30 25716 H 2370.81 -3.25322 2.59913 0
M  V30 25717 H 2373.4 -5.299 0.714856 0
M  V30 25718 H 2373.75 -4.12846 -0.535149 0
M  V30 25719 H 2374.28 -3.81292 1.13407 0
M  V30 25720 H 2371.02 -5.44647 3.64746 0
M  V30 25721 H 2370.54 -5.67223 1.94982 0
M  V30 25722 H 2372.22 -5.98639 2.4544 0
M  V30 25723 N 2372.35 -0.645724 -1.43764 0
M  V30 25724 C 2373.6 -0.153448 -2.01115 0
M  V30 25725 C 2373.91 1.23728 -1.51495 0
M  V30 25726 O 2375.12 1.82437 -2.0107 0
M  V30 25727 C 2373.57 -0.223536 -3.59205 0
M  V30 25728 C 2373.18 -1.61649 -4.1782 0
M  V30 25729 C 2374.93 0.211523 -4.23973 0
M  V30 25730 C 2372.83 -1.64091 -5.6818 0
M  V30 25731 H 2371.76 -0.0536024 -0.752092 0
M  V30 25732 H 2374.41 -0.806662 -1.64819 0
M  V30 25733 H 2372.8 0.497049 -3.92868 0
M  V30 25734 H 2373.97 -2.36183 -3.9567 0
M  V30 25735 H 2372.29 -1.99688 -3.65395 0
M  V30 25736 H 2374.88 0.213018 -5.34276 0
M  V30 25737 H 2375.23 1.24158 -3.97354 0
M  V30 25738 H 2375.76 -0.457058 -3.95166 0
M  V30 25739 H 2372.5 -2.64981 -5.99554 0
M  V30 25740 H 2372.02 -0.938715 -5.92409 0
M  V30 25741 H 2373.7 -1.38131 -6.32083 0
M  V30 25742 N 2373.83 1.5277 -0.38717 0
M  V30 25743 C 2374.74 2.30118 0.456401 0
M  V30 25744 C 2375.75 1.36946 1.0734 0
M  V30 25745 O 2376.93 1.70015 1.07968 0
M  V30 25746 C 2374 3.09139 1.56952 0
M  V30 25747 C 2373.06 4.18015 0.977842 0
M  V30 25748 C 2372.29 4.93259 2.03791 0
M  V30 25749 O 2372.51 4.68573 3.25263 0
M  V30 25750 O 2371.45 5.7866 1.6564 0
M  V30 25751 H 2375.27 3.03203 -0.173643 0
M  V30 25752 H 2372.86 1.48636 -0.150945 0
M  V30 25753 H 2374.74 3.58416 2.21621 0
M  V30 25754 H 2373.41 2.38869 2.18456 0
M  V30 25755 H 2372.32 3.72939 0.29446 0
M  V30 25756 H 2373.65 4.90514 0.407042 0
M  V30 25757 N 2375.31 0.116931 1.57166 0
M  V30 25758 C 2376.25 -0.834042 2.15203 0
M  V30 25759 C 2377.22 -1.26497 1.07646 0
M  V30 25760 O 2378.41 -1.34286 1.35543 0
M  V30 25761 C 2375.55 -2.07952 2.75409 0
M  V30 25762 C 2374.66 -1.69714 3.97267 0
M  V30 25763 C 2373.8 -2.89213 4.45566 0
M  V30 25764 C 2372.84 -2.47205 5.59961 0
M  V30 25765 N 2371.97 -3.59611 6.03013 0
M  V30 25766 H 2376.81 -0.332283 2.96142 0
M  V30 25767 H 2374.35 -0.152323 1.46309 0
M  V30 25768 H 2376.31 -2.80923 3.08444 0
M  V30 25769 H 2374.94 -2.5559 1.97163 0
M  V30 25770 H 2373.99 -0.866251 3.70406 0
M  V30 25771 H 2375.3 -1.34841 4.80228 0
M  V30 25772 H 2374.46 -3.70412 4.805 0
M  V30 25773 H 2373.19 -3.27312 3.6155 0
M  V30 25774 H 2372.2 -1.64439 5.24633 0
M  V30 25775 H 2373.42 -2.10226 6.45741 0
M  V30 25776 H 2371.37 -3.97387 5.21938 0
M  V30 25777 H 2371.29 -3.28655 6.80825 0
M  V30 25778 H 2372.56 -4.41255 6.42584 0
M  V30 25779 N 2376.78 -1.56818 -0.156836 0
M  V30 25780 C 2378.01 -1.86685 -0.884998 0
M  V30 25781 C 2378.42 -0.701985 -1.75695 0
M  V30 25782 O 2377.77 0.3377 -1.80569 0
M  V30 25783 C 2377.83 -3.11142 -1.80087 0
M  V30 25784 C 2377.49 -4.43388 -1.10707 0
M  V30 25785 C 2378.49 -5.17811 -0.465623 0
M  V30 25786 C 2376.17 -4.90119 -1.0995 0
M  V30 25787 C 2378.17 -6.37162 0.174114 0
M  V30 25788 C 2375.85 -6.09397 -0.455947 0
M  V30 25789 C 2376.85 -6.82763 0.179742 0
M  V30 25790 O 2376.54 -7.99777 0.813116 0
M  V30 25791 H 2376.27 -0.623246 -0.261802 0
M  V30 25792 H 2378.83 -2.04796 -0.157347 0
M  V30 25793 H 2377.06 -2.89013 -2.5692 0
M  V30 25794 H 2378.75 -3.27336 -2.40012 0
M  V30 25795 H 2379.51 -4.82782 -0.463342 0
M  V30 25796 H 2375.39 -4.32943 -1.5837 0
M  V30 25797 H 2378.93 -6.94367 0.670887 0
M  V30 25798 H 2374.83 -6.43888 -0.455862 0
M  V30 25799 H 2375.6 -8.15382 0.713803 0
M  V30 25800 N 2378.26 0.425871 -1.51737 0
M  V30 25801 C 2379.51 1.17433 -1.64972 0
M  V30 25802 C 2379.84 1.9092 -0.371479 0
M  V30 25803 O 2379.09 1.84768 0.644931 0
M  V30 25804 C 2379.39 2.20712 -2.81106 0
M  V30 25805 C 2379.06 1.64155 -4.19957 0
M  V30 25806 C 2377.72 1.48454 -4.57728 0
M  V30 25807 C 2380.07 1.22687 -5.06554 0
M  V30 25808 C 2377.4 0.897771 -5.7979 0
M  V30 25809 C 2379.75 0.654353 -6.29207 0
M  V30 25810 C 2378.42 0.484339 -6.6574 0
M  V30 25811 H 2377.69 0.429717 -0.603676 0
M  V30 25812 H 2380.33 0.463797 -1.85799 0
M  V30 25813 H 2378.64 2.97847 -2.54547 0
M  V30 25814 H 2380.33 2.78465 -2.88545 0
M  V30 25815 H 2376.92 1.77355 -3.90184 0
M  V30 25816 H 2381.11 1.33633 -4.7797 0
M  V30 25817 H 2376.36 0.753913 -6.06734 0
M  V30 25818 H 2380.54 0.324572 -6.95643 0
M  V30 25819 H 2378.17 0.0275497 -7.60195 0
M  V30 25820 N 2379.74 1.42077 0.682052 0
M  V30 25821 C 2380.99 1.42369 1.44426 0
M  V30 25822 C 2381.32 0.0373397 1.94164 0
M  V30 25823 O 2380.59 -0.93721 1.70431 0
M  V30 25824 C 2380.88 2.44198 2.64649 0
M  V30 25825 C 2380.73 3.91995 2.20589 0
M  V30 25826 C 2382.05 2.43107 3.66861 0
M  V30 25827 H 2379.17 0.518437 0.523825 0
M  V30 25828 H 2381.81 1.73443 0.77573 0
M  V30 25829 H 2379.96 2.17831 3.21686 0
M  V30 25830 H 2381.63 4.29316 1.68776 0
M  V30 25831 H 2379.88 4.06211 1.52235 0
M  V30 25832 H 2380.55 4.58812 3.06913 0
M  V30 25833 H 2383.02 2.66537 3.19526 0
M  V30 25834 H 2381.9 3.16347 4.48571 0
M  V30 25835 H 2382.16 1.45444 4.17491 0
M  V30 25836 N 2381.22 -0.917649 1.28129 0
M  V30 25837 C 2382.44 -1.70553 1.1801 0
M  V30 25838 C 2382.87 -1.86319 -0.258224 0
M  V30 25839 O 2382.23 -1.37051 -1.18687 0
M  V30 25840 C 2382.28 -3.07743 1.87954 0
M  V30 25841 O 2381.38 -3.95028 1.18434 0
M  V30 25842 H 2380.72 -0.522396 0.409876 0
M  V30 25843 H 2383.25 -1.14767 1.69381 0
M  V30 25844 H 2383.26 -3.57998 1.95708 0
M  V30 25845 H 2381.94 -2.95586 2.92578 0
M  V30 25846 H 2380.51 -3.53464 1.18818 0
M  V30 25847 N 2382.7 -1.10314 -1.12555 0
M  V30 25848 C 2384.11 -0.862707 -1.65573 0
M  V30 25849 C 2384.46 0.607223 -1.86567 0
M  V30 25850 O 2383.58 1.46659 -1.59123 0
M  V30 25851 C 2384.18 -1.55952 -3.00773 0
M  V30 25852 C 2382.74 -1.36583 -3.50745 0
M  V30 25853 C 2381.89 -1.60972 -2.25795 0
M  V30 25854 H 2384.84 -1.26102 -0.96353 0
M  V30 25855 H 2384.86 -0.997818 -3.67184 0
M  V30 25856 H 2384.37 -2.62933 -2.85461 0
M  V30 25857 H 2382.47 -0.317596 -3.71244 0
M  V30 25858 H 2382.58 -2.10693 -4.30285 0
M  V30 25859 H 2380.95 -1.03238 -2.32839 0
M  V30 25860 H 2381.73 -2.69202 -2.13038 0
M  V30 25861 N 2384.18 1.29948 -0.891694 0
M  V30 25862 C 2385.4 2.00031 -0.528695 0
M  V30 25863 C 2385.82 1.66797 0.884545 0
M  V30 25864 O 2385.18 0.908697 1.58269 0
M  V30 25865 C 2385.23 3.54621 -0.701876 0
M  V30 25866 O 2384.95 3.86674 -2.05948 0
M  V30 25867 C 2386.45 4.41973 -0.342761 0
M  V30 25868 H 2383.67 0.639343 -0.20367 0
M  V30 25869 H 2386.21 1.65675 -1.19884 0
M  V30 25870 H 2384.37 3.87319 -0.0790149 0
M  V30 25871 H 2384.78 4.81364 -2.083 0
M  V30 25872 H 2386.26 5.49594 -0.514806 0
M  V30 25873 H 2386.73 4.33264 0.719674 0
M  V30 25874 H 2387.34 4.14731 -0.942227 0
M  V30 25875 N 2385.65 0.653339 1.4342 0
M  V30 25876 C 2386.58 -0.0246246 2.33487 0
M  V30 25877 C 2387.56 -0.811837 1.49476 0
M  V30 25878 O 2388.75 -0.773291 1.7814 0
M  V30 25879 C 2385.88 -0.991601 3.32843 0
M  V30 25880 C 2384.83 -0.314493 4.26843 0
M  V30 25881 C 2384.16 -1.39292 5.16238 0
M  V30 25882 C 2385.46 0.793186 5.16242 0
M  V30 25883 H 2387.15 0.727532 2.90426 0
M  V30 25884 H 2384.7 0.351312 1.39649 0
M  V30 25885 H 2386.65 -1.4748 3.9475 0
M  V30 25886 H 2385.38 -1.77492 2.74161 0
M  V30 25887 H 2384.04 0.148264 3.663 0
M  V30 25888 H 2383.68 -2.16768 4.53895 0
M  V30 25889 H 2383.38 -0.945121 5.79949 0
M  V30 25890 H 2384.91 -1.87749 5.81019 0
M  V30 25891 H 2386.32 0.39214 5.71957 0
M  V30 25892 H 2384.72 1.16547 5.88674 0
M  V30 25893 H 2385.79 1.65111 4.55924 0
M  V30 25894 N 2387.13 -1.52563 0.395266 0
M  V30 25895 C 2388.38 -2.01653 -0.185008 0
M  V30 25896 C 2388.71 -1.28149 -1.46315 0
M  V30 25897 O 2387.96 -0.372108 -1.9213 0
M  V30 25898 C 2388.26 -3.53978 -0.493382 0
M  V30 25899 C 2387.93 -4.45528 0.693918 0
M  V30 25900 C 2386.59 -4.70273 1.01962 0
M  V30 25901 C 2388.94 -4.9951 1.48794 0
M  V30 25902 C 2386.27 -5.46248 2.14079 0
M  V30 25903 C 2388.62 -5.76711 2.59975 0
M  V30 25904 C 2387.28 -5.99733 2.93047 0
M  V30 25905 H 2386.55 -0.737901 -0.0676994 0
M  V30 25906 H 2389.2 -1.83909 0.533839 0
M  V30 25907 H 2387.51 -3.69828 -1.29363 0
M  V30 25908 H 2389.2 -3.8946 -0.955095 0
M  V30 25909 H 2385.79 -4.26437 0.430062 0
M  V30 25910 H 2389.98 -4.80313 1.24954 0
M  V30 25911 H 2385.23 -5.62297 2.40066 0
M  V30 25912 H 2389.41 -6.17539 3.21898 0
M  V30 25913 H 2387.03 -6.58386 3.80042 0
M  V30 25914 N 2388.61 -0.125265 -1.57101 0
M  V30 25915 C 2390.03 0.231294 -1.57915 0
M  V30 25916 C 2390.23 1.66264 -1.13836 0
M  V30 25917 O 2389.28 2.38516 -0.828623 0
M  V30 25918 C 2390.59 -0.00771775 -3.00699 0
M  V30 25919 C 2392.14 0.0576933 -3.12947 0
M  V30 25920 C 2392.62 -0.153706 -4.57742 0
M  V30 25921 N 2394.11 -0.0998887 -4.63092 0
M  V30 25922 C 2394.84 -0.238274 -5.72905 0
M  V30 25923 N 2394.34 -0.433179 -6.91444 0
M  V30 25924 N 2396.13 -0.177406 -5.6182 0
M  V30 25925 H 2388.28 -1.0601 -1.84053 0
M  V30 25926 H 2390.55 -0.417944 -0.850898 0
M  V30 25927 H 2390.25 -0.99749 -3.37258 0
M  V30 25928 H 2390.13 0.721387 -3.70238 0
M  V30 25929 H 2392.51 1.038 -2.76242 0
M  V30 25930 H 2392.59 -0.703393 -2.45939 0
M  V30 25931 H 2392.24 -1.13101 -4.95147 0
M  V30 25932 H 2392.17 0.627442 -5.22849 0
M  V30 25933 H 2394.66 0.0469846 -3.77871 0
M  V30 25934 H 2394.97 -0.529468 -7.70984 0
M  V30 25935 H 2393.32 -0.469231 -6.93414 0
M  V30 25936 H 2396.51 -0.0260571 -4.68093 0
M  V30 25937 H 2396.68 -0.288696 -6.47357 0
M  V30 25938 N 2390.09 1.56899 0.148518 0
M  V30 25939 C 2391.33 1.83537 0.862662 0
M  V30 25940 C 2391.67 0.706635 1.80888 0
M  V30 25941 O 2390.94 -0.289851 1.92328 0
M  V30 25942 C 2391.22 3.20665 1.63847 0
M  V30 25943 C 2391.08 4.44099 0.713847 0
M  V30 25944 C 2392.4 3.54996 2.60127 0
M  V30 25945 H 2389.52 0.667623 0.312167 0
M  V30 25946 H 2392.16 1.89569 0.12792 0
M  V30 25947 H 2390.31 3.15654 2.26483 0
M  V30 25948 H 2391.98 4.61195 0.0986049 0
M  V30 25949 H 2390.22 4.33794 0.0233256 0
M  V30 25950 H 2390.89 5.3665 1.29268 0
M  V30 25951 H 2393.37 3.60607 2.0761 0
M  V30 25952 H 2392.25 4.51977 3.1146 0
M  V30 25953 H 2392.51 2.80874 3.41412 0
M  V30 25954 N 2391.57 -0.417818 1.51961 0
M  V30 25955 C 2392.81 -1.16261 1.64822 0
M  V30 25956 C 2393.13 -1.91875 0.37992 0
M  V30 25957 O 2394.33 -2.6871 0.388201 0
M  V30 25958 C 2392.79 -2.11545 2.91165 0
M  V30 25959 C 2392.4 -1.41487 4.25071 0
M  V30 25960 C 2394.14 -2.86336 3.13388 0
M  V30 25961 C 2392.05 -2.35369 5.42545 0
M  V30 25962 H 2390.98 -0.437684 0.613962 0
M  V30 25963 H 2393.63 -0.427839 1.78443 0
M  V30 25964 H 2392.01 -2.88538 2.71223 0
M  V30 25965 H 2393.19 -0.699183 4.55465 0
M  V30 25966 H 2391.5 -0.78772 4.08881 0
M  V30 25967 H 2394.1 -3.56703 3.9833 0
M  V30 25968 H 2394.44 -3.48794 2.27263 0
M  V30 25969 H 2394.97 -2.16445 3.33761 0
M  V30 25970 H 2391.71 -1.7757 6.3099 0
M  V30 25971 H 2391.23 -3.04936 5.16502 0
M  V30 25972 H 2392.91 -2.96083 5.75277 0
M  V30 25973 N 2393.04 -1.42436 -0.674508 0
M  V30 25974 C 2394.46 -1.25369 -0.987668 0
M  V30 25975 C 2394.66 -0.158079 -2.00879 0
M  V30 25976 O 2393.72 0.470589 -2.48076 0
M  V30 25977 C 2395.03 -2.61063 -1.4922 0
M  V30 25978 C 2396.58 -2.6842 -1.60996 0
M  V30 25979 C 2397.05 -4.04482 -2.14845 0
M  V30 25980 N 2398.54 -4.06438 -2.22177 0
M  V30 25981 C 2399.28 -5.08533 -2.64919 0
M  V30 25982 N 2398.77 -6.21011 -3.07111 0
M  V30 25983 N 2400.57 -4.95889 -2.6467 0
M  V30 25984 H 2392.72 -2.124 0.00156237 0
M  V30 25985 H 2394.98 -0.945982 -0.0618268 0
M  V30 25986 H 2394.69 -3.42093 -0.816393 0
M  V30 25987 H 2394.56 -2.85003 -2.47089 0
M  V30 25988 H 2396.95 -1.87736 -2.27683 0
M  V30 25989 H 2397.03 -2.48268 -0.616151 0
M  V30 25990 H 2396.67 -4.85624 -1.48767 0
M  V30 25991 H 2396.6 -4.21986 -3.15017 0
M  V30 25992 H 2399.09 -3.25237 -1.9243 0
M  V30 25993 H 2399.41 -6.94765 -3.38411 0
M  V30 25994 H 2397.75 -6.24516 -3.04967 0
M  V30 25995 H 2400.94 -4.07092 -2.3107 0
M  V30 25996 H 2401.12 -5.75589 -2.97659 0
M  V30 25997 N 2394.52 0.910841 -1.28614 0
M  V30 25998 C 2395.45 2.0303 -1.15329 0
M  V30 25999 C 2396.43 1.70026 -0.0503222 0
M  V30 26000 O 2397.62 1.92859 -0.22783 0
M  V30 26001 C 2394.75 3.37544 -0.817403 0
M  V30 26002 C 2393.7 3.84721 -1.87547 0
M  V30 26003 C 2393.03 5.16232 -1.39314 0
M  V30 26004 C 2394.33 4.06261 -3.28251 0
M  V30 26005 H 2396.02 2.14402 -2.08979 0
M  V30 26006 H 2393.57 1.03019 -1.00614 0
M  V30 26007 H 2395.52 4.15355 -0.711224 0
M  V30 26008 H 2394.24 3.26233 0.154789 0
M  V30 26009 H 2392.9 3.09117 -1.97084 0
M  V30 26010 H 2392.55 5.01327 -0.409934 0
M  V30 26011 H 2392.25 5.48768 -2.10066 0
M  V30 26012 H 2393.78 5.96595 -1.30024 0
M  V30 26013 H 2395.19 4.74588 -3.21619 0
M  V30 26014 H 2393.59 4.50133 -3.96863 0
M  V30 26015 H 2394.66 3.10973 -3.72054 0
M  V30 26016 N 2396 1.10909 1.11969 0
M  V30 26017 C 2396.96 0.765745 2.1603 0
M  V30 26018 C 2397.96 -0.212207 1.59394 0
M  V30 26019 O 2399.15 0.0115747 1.74196 0
M  V30 26020 C 2396.29 0.135113 3.40632 0
M  V30 26021 H 2397.48 1.68753 2.47916 0
M  V30 26022 H 2395.03 0.910249 1.2706 0
M  V30 26023 H 2395.77 -0.797162 3.1435 0
M  V30 26024 H 2395.55 0.839004 3.83018 0
M  V30 26025 H 2397.04 -0.0891735 4.17505 0
M  V30 26026 N 2397.48 -1.29474 0.898573 0
M  V30 26027 C 2398.89 -1.48114 0.594509 0
M  V30 26028 C 2399.09 -1.82023 -0.864278 0
M  V30 26029 O 2398.15 -1.91602 -1.64454 0
M  V30 26030 C 2399.46 -2.59492 1.51936 0
M  V30 26031 C 2401.01 -2.73367 1.52444 0
M  V30 26032 C 2401.49 -3.87872 2.43555 0
M  V30 26033 N 2402.98 -3.95204 2.41596 0
M  V30 26034 C 2403.71 -4.83148 3.08798 0
M  V30 26035 N 2403.21 -5.75791 3.85275 0
M  V30 26036 N 2405 -4.7663 2.97961 0
M  V30 26037 H 2397.15 -1.05739 1.84209 0
M  V30 26038 H 2399.42 -0.52514 0.78926 0
M  V30 26039 H 2399.12 -2.41296 2.55869 0
M  V30 26040 H 2399 -3.56269 1.23905 0
M  V30 26041 H 2401.38 -2.9096 0.492569 0
M  V30 26042 H 2401.46 -1.77169 1.84513 0
M  V30 26043 H 2401.11 -3.71035 3.46836 0
M  V30 26044 H 2401.04 -4.83437 2.08797 0
M  V30 26045 H 2403.53 -3.28939 1.86031 0
M  V30 26046 H 2403.84 -6.39689 4.3361 0
M  V30 26047 H 2402.19 -5.7568 3.89381 0
M  V30 26048 H 2405.38 -4.03239 2.3773 0
M  V30 26049 H 2405.55 -5.44956 3.50609 0
M  V30 26050 N 2398.96 -0.660936 -1.43071 0
M  V30 26051 C 2400.21 -0.17477 -2.00941 0
M  V30 26052 C 2400.52 1.22114 -1.52799 0
M  V30 26053 O 2401.72 1.80294 -2.02994 0
M  V30 26054 C 2400.18 -0.261622 -3.58948 0
M  V30 26055 C 2399.79 -1.66071 -4.16082 0
M  V30 26056 C 2401.53 0.166543 -4.24173 0
M  V30 26057 C 2399.44 -1.70108 -5.66407 0
M  V30 26058 H 2398.37 -0.0615763 -0.751481 0
M  V30 26059 H 2401.02 -0.824098 -1.63954 0
M  V30 26060 H 2399.4 0.455352 -3.93373 0
M  V30 26061 H 2400.58 -2.40366 -3.93142 0
M  V30 26062 H 2398.89 -2.03552 -3.63257 0
M  V30 26063 H 2401.49 0.156339 -5.34471 0
M  V30 26064 H 2401.83 1.19936 -3.98649 0
M  V30 26065 H 2402.36 -0.498945 -3.94659 0
M  V30 26066 H 2399.1 -2.71325 -5.9671 0
M  V30 26067 H 2398.62 -1.00149 -5.9138 0
M  V30 26068 H 2400.3 -1.44827 -6.30582 0
M  V30 26069 N 2400.43 1.52351 -0.403352 0
M  V30 26070 C 2401.68 2.0135 0.173967 0
M  V30 26071 C 2402 1.29108 1.46137 0
M  V30 26072 O 2401.27 0.415287 1.91448 0
M  V30 26073 H 2399.85 0.743964 0.067278 0
M  V30 26074 H 2402.52 1.8732 -0.538268 0
M  V30 26075 H 2401.61 3.09849 0.3742 0
M  V30 26076 N 2401.91 0.133594 1.57033 0
M  V30 26077 C 2403.33 -0.222916 1.58036 0
M  V30 26078 C 2403.53 -1.65658 1.14716 0
M  V30 26079 O 2402.58 -2.38074 0.84126 0
M  V30 26080 C 2403.9 0.0236644 3.00691 0
M  V30 26081 C 2405.45 -0.0410961 3.12973 0
M  V30 26082 C 2405.92 0.177979 4.57654 0
M  V30 26083 N 2407.41 0.124446 4.63033 0
M  V30 26084 C 2408.15 0.268653 5.7277 0
M  V30 26085 N 2407.64 0.469842 6.91205 0
M  V30 26086 N 2409.44 0.207199 5.61718 0
M  V30 26087 H 2401.59 1.06985 1.83489 0
M  V30 26088 H 2403.85 0.42245 0.848669 0
M  V30 26089 H 2403.56 1.01536 3.36724 0
M  V30 26090 H 2403.43 -0.701743 3.70615 0
M  V30 26091 H 2405.82 -1.02333 2.76789 0
M  V30 26092 H 2405.9 0.716426 2.45563 0
M  V30 26093 H 2405.54 1.15725 4.9454 0
M  V30 26094 H 2405.47 -0.599705 5.23174 0
M  V30 26095 H 2407.96 -0.0269446 3.7789 0
M  V30 26096 H 2408.28 0.570347 7.70692 0
M  V30 26097 H 2406.62 0.505997 6.93156 0
M  V30 26098 H 2409.81 0.0508808 4.68072 0
M  V30 26099 H 2409.98 0.323023 6.47194 0
M  V30 26100 N 2403.39 -1.56975 -0.140195 0
M  V30 26101 C 2404.64 -1.82909 -0.85012 0
M  V30 26102 C 2404.95 -0.715924 -1.82027 0
M  V30 26103 O 2406.16 -0.861061 -2.57484 0
M  V30 26104 C 2404.61 -3.24216 -1.56244 0
M  V30 26105 C 2404.22 -4.43486 -0.634352 0
M  V30 26106 C 2405.97 -3.59417 -2.25875 0
M  V30 26107 C 2403.87 -5.75816 -1.34868 0
M  V30 26108 H 2402.8 -0.682159 -0.321209 0
M  V30 26109 H 2405.45 -1.83212 -0.102842 0
M  V30 26110 H 2403.84 -3.18321 -2.35559 0
M  V30 26111 H 2405.01 -4.60633 0.124061 0
M  V30 26112 H 2403.33 -4.16374 -0.0461104 0
M  V30 26113 H 2405.92 -4.55544 -2.7997 0
M  V30 26114 H 2406.27 -2.85807 -3.02688 0
M  V30 26115 H 2406.8 -3.67003 -1.53471 0
M  V30 26116 H 2403.54 -6.5254 -0.62227 0
M  V30 26117 H 2403.06 -5.62593 -2.07964 0
M  V30 26118 H 2404.74 -6.18849 -1.88773 0
M  V30 26119 N 2404.87 0.409753 -1.5218 0
M  V30 26120 C 2405.8 1.50606 -1.78438 0
M  V30 26121 C 2406.78 1.5779 -0.635323 0
M  V30 26122 O 2407.96 1.73074 -0.880853 0
M  V30 26123 C 2405.09 2.88435 -1.93449 0
M  V30 26124 C 2404.05 2.96102 -3.09043 0
M  V30 26125 C 2403.37 4.36179 -3.09276 0
M  V30 26126 C 2404.67 2.67645 -4.48513 0
M  V30 26127 H 2406.37 1.28884 -2.70239 0
M  V30 26128 H 2403.91 0.618582 -1.30037 0
M  V30 26129 H 2405.87 3.65116 -2.10401 0
M  V30 26130 H 2404.59 3.1145 -0.983184 0
M  V30 26131 H 2403.25 2.21866 -2.9184 0
M  V30 26132 H 2402.9 4.56202 -2.11869 0
M  V30 26133 H 2402.6 4.42234 -3.86915 0
M  V30 26134 H 2404.12 5.14795 -3.28357 0
M  V30 26135 H 2405.54 3.34048 -4.65924 0
M  V30 26136 H 2403.93 2.85076 -5.28064 0
M  V30 26137 H 2405 1.63087 -4.56652 0
M  V30 26138 N 2406.35 1.42792 0.666944 0
M  V30 26139 C 2407.76 1.25891 0.981005 0
M  V30 26140 C 2407.96 0.16873 2.00792 0
M  V30 26141 O 2407.02 -0.457426 2.48322 0
M  V30 26142 C 2408.33 2.61851 1.47833 0
M  V30 26143 C 2409.88 2.6927 1.5957 0
M  V30 26144 C 2410.35 4.05616 2.12697 0
M  V30 26145 N 2411.85 4.0761 2.20019 0
M  V30 26146 C 2412.58 5.09931 2.62218 0
M  V30 26147 N 2412.08 6.22631 3.03813 0
M  V30 26148 N 2413.87 4.97286 2.62036 0
M  V30 26149 H 2406.02 2.12396 -0.0128264 0
M  V30 26150 H 2408.28 0.946296 0.0568091 0
M  V30 26151 H 2407.99 3.42522 0.798239 0
M  V30 26152 H 2407.86 2.86309 2.45574 0
M  V30 26153 H 2410.25 1.8894 2.26684 0
M  V30 26154 H 2410.33 2.48592 0.602976 0
M  V30 26155 H 2409.98 4.86406 1.46189 0
M  V30 26156 H 2409.91 4.2365 3.12775 0
M  V30 26157 H 2412.4 3.26253 1.90702 0
M  V30 26158 H 2412.71 6.96549 3.34722 0
M  V30 26159 H 2411.05 6.26124 3.01651 0
M  V30 26160 H 2414.25 4.08312 2.28908 0
M  V30 26161 H 2414.42 5.7716 2.94603 0
M  V30 26162 N 2407.82 -0.904008 1.29095 0
M  V30 26163 C 2408.75 -2.02416 1.16405 0
M  V30 26164 C 2409.74 -1.69996 0.0593384 0
M  V30 26165 O 2410.92 -1.92735 0.238055 0
M  V30 26166 C 2408.05 -3.37106 0.835292 0
M  V30 26167 C 2407 -3.83721 1.89585 0
M  V30 26168 C 2406.33 -5.15486 1.4205 0
M  V30 26169 C 2407.63 -4.04515 3.30401 0
M  V30 26170 H 2409.32 -2.13291 2.10113 0
M  V30 26171 H 2406.87 -1.02484 1.01159 0
M  V30 26172 H 2408.82 -4.14972 0.733241 0
M  V30 26173 H 2407.55 -3.2631 -0.137486 0
M  V30 26174 H 2406.21 -3.08068 1.98721 0
M  V30 26175 H 2405.85 -5.01102 0.436514 0
M  V30 26176 H 2405.55 -5.47646 2.12974 0
M  V30 26177 H 2407.08 -5.95897 1.33186 0
M  V30 26178 H 2408.49 -4.72876 3.24131 0
M  V30 26179 H 2406.89 -4.48022 3.99245 0
M  V30 26180 H 2407.96 -3.08995 3.73698 0
M  V30 26181 N 2409.3 -1.11501 -1.11379 0
M  V30 26182 C 2410.55 -0.859025 -1.82493 0
M  V30 26183 C 2410.86 0.617245 -1.85606 0
M  V30 26184 O 2412.07 0.989507 -2.52826 0
M  V30 26185 C 2410.53 -1.48705 -3.27742 0
M  V30 26186 C 2410.13 -2.9974 -3.32956 0
M  V30 26187 C 2411.88 -1.31092 -4.03751 0
M  V30 26188 C 2409.79 -3.55524 -4.72606 0
M  V30 26189 H 2408.72 -0.317708 -0.683797 0
M  V30 26190 H 2411.37 -1.34033 -1.25329 0
M  V30 26191 H 2409.75 -0.933407 -3.84842 0
M  V30 26192 H 2410.92 -3.61514 -2.85734 0
M  V30 26193 H 2409.24 -3.16636 -2.70427 0
M  V30 26194 H 2411.83 -1.70201 -5.06888 0
M  V30 26195 H 2412.18 -0.253569 -4.15527 0
M  V30 26196 H 2412.71 -1.83324 -3.5304 0
M  V30 26197 H 2409.45 -4.60975 -4.66028 0
M  V30 26198 H 2408.97 -2.98522 -5.20235 0
M  V30 26199 H 2410.65 -3.54002 -5.41564 0
M  V30 26200 N 2410.78 1.28995 -0.905426 0
M  V30 26201 C 2411.73 2.2755 -0.385932 0
M  V30 26202 C 2412.7 1.57245 0.535085 0
M  V30 26203 O 2413.88 1.85195 0.459087 0
M  V30 26204 C 2411.02 3.43052 0.3754 0
M  V30 26205 C 2410.14 4.28127 -0.577167 0
M  V30 26206 C 2409.27 5.30817 0.201785 0
M  V30 26207 C 2408.31 6.0755 -0.744936 0
M  V30 26208 N 2407.45 7.021 -2.91531e-05 0
M  V30 26209 H 2412.29 2.71366 -1.23144 0
M  V30 26210 H 2409.82 1.33462 -0.618566 0
M  V30 26211 H 2411.78 4.08801 0.83292 0
M  V30 26212 H 2410.41 3.0025 1.18532 0
M  V30 26213 H 2409.46 3.62499 -1.15321 0
M  V30 26214 H 2410.78 4.81518 -1.30161 0
M  V30 26215 H 2409.93 6.0241 0.720245 0
M  V30 26216 H 2408.67 4.78172 0.959329 0
M  V30 26217 H 2407.67 5.34816 -1.27485 0
M  V30 26218 H 2408.9 6.62284 -1.5019 0
M  V30 26219 H 2406.85 6.51817 0.739676 0
M  V30 26220 H 2406.76 7.53074 -0.664453 0
M  V30 26221 H 2408.03 7.77904 0.498507 0
M  V30 26222 N 2412.26 0.668514 1.42719 0
M  V30 26223 C 2413.51 0.187804 2.01226 0
M  V30 26224 C 2413.83 -1.20777 1.53094 0
M  V30 26225 O 2413.1 -1.80976 0.749962 0
M  V30 26226 H 2411.68 0.0664403 0.744039 0
M  V30 26227 H 2414.34 0.863614 1.74722 0
M  V30 26228 H 2413.44 0.184221 3.11556 0
M  V30 26229 N 2413.74 -1.52135 0.411426 0
M  V30 26230 C 2414.7 -2.25664 -0.401049 0
M  V30 26231 C 2415.7 -1.28119 -0.97171 0
M  V30 26232 O 2416.89 -1.52042 -0.850227 0
M  V30 26233 C 2414.02 -3.02866 -1.56477 0
M  V30 26234 H 2415.22 -2.98914 0.243003 0
M  V30 26235 H 2412.77 -1.55437 0.163995 0
M  V30 26236 H 2413.5 -2.33971 -2.24562 0
M  V30 26237 H 2413.29 -3.74485 -1.16204 0
M  V30 26238 H 2414.78 -3.58633 -2.13945 0
M  V30 26239 N 2415.22 -0.14192 -1.5696 0
M  V30 26240 C 2416.16 0.799699 -2.16503 0
M  V30 26241 C 2417.13 1.24769 -1.09645 0
M  V30 26242 O 2418.32 1.32112 -1.37663 0
M  V30 26243 C 2415.46 2.03544 -2.78682 0
M  V30 26244 C 2414.57 1.63373 -3.99917 0
M  V30 26245 C 2413.71 2.82088 -4.50111 0
M  V30 26246 C 2412.74 2.38265 -5.63823 0
M  V30 26247 N 2411.88 3.49972 -6.08658 0
M  V30 26248 H 2416.72 0.285127 -2.96633 0
M  V30 26249 H 2414.26 0.129027 -1.46533 0
M  V30 26250 H 2416.22 2.75981 -3.12874 0
M  V30 26251 H 2414.85 2.52421 -2.01205 0
M  V30 26252 H 2413.9 0.807213 -3.71737 0
M  V30 26253 H 2415.21 1.27184 -4.82313 0
M  V30 26254 H 2414.36 3.62721 -4.86332 0
M  V30 26255 H 2413.1 3.21518 -3.66711 0
M  V30 26256 H 2412.11 1.56071 -5.27183 0
M  V30 26257 H 2413.33 1.99927 -6.49004 0
M  V30 26258 H 2411.28 3.89033 -5.28194 0
M  V30 26259 H 2411.2 3.17782 -6.85967 0
M  V30 26260 H 2412.46 4.30977 -6.49522 0
M  V30 26261 N 2416.69 1.57047 0.131868 0
M  V30 26262 C 2417.94 1.83805 0.840237 0
M  V30 26263 C 2418.26 0.725152 1.81015 0
M  V30 26264 O 2417.53 -0.251961 1.94273 0
M  V30 26265 H 2416.11 0.678132 0.313282 0
M  V30 26266 H 2418.77 1.94516 0.122259 0
M  V30 26267 H 2417.87 2.79273 1.3933 0
M  V30 26268 N 2418.17 -0.401677 1.52395 0
M  V30 26269 C 2419.42 -1.14506 1.66046 0
M  V30 26270 C 2419.73 -1.91461 0.400249 0
M  V30 26271 O 2420.94 -2.68283 0.41668 0
M  V30 26272 C 2419.4 -2.08444 2.93392 0
M  V30 26273 C 2419 -1.36971 4.26548 0
M  V30 26274 C 2420.75 -2.82996 3.16407 0
M  V30 26275 C 2418.65 -2.29601 5.45011 0
M  V30 26276 H 2417.58 -0.431147 0.618569 0
M  V30 26277 H 2420.24 -0.408889 1.78886 0
M  V30 26278 H 2418.62 -2.85645 2.74268 0
M  V30 26279 H 2419.79 -0.650836 4.56181 0
M  V30 26280 H 2418.11 -0.744308 4.09694 0
M  V30 26281 H 2420.7 -3.52458 4.02091 0
M  V30 26282 H 2421.05 -3.46364 2.30949 0
M  V30 26283 H 2421.58 -2.12892 3.36038 0
M  V30 26284 H 2418.32 -1.70868 6.32838 0
M  V30 26285 H 2417.84 -2.9944 5.19707 0
M  V30 26286 H 2419.52 -2.89964 5.78385 0
M  V30 26287 N 2419.65 -1.43144 -0.659362 0
M  V30 26288 C 2421.07 -1.26409 -0.974315 0
M  V30 26289 C 2421.27 -0.179376 -2.007 0
M  V30 26290 O 2420.32 0.444251 -2.48561 0
M  V30 26291 C 2421.63 -2.62631 -1.46443 0
M  V30 26292 C 2423.18 -2.70113 -1.5814 0
M  V30 26293 C 2423.66 -4.06738 -2.10543 0
M  V30 26294 N 2425.15 -4.08771 -2.17854 0
M  V30 26295 C 2425.88 -5.11314 -2.5951 0
M  V30 26296 N 2425.38 -6.24234 -3.00507 0
M  V30 26297 N 2427.17 -4.98669 -2.59395 0
M  V30 26298 H 2419.32 -2.12386 0.0240901 0
M  V30 26299 H 2421.59 -0.946584 -0.0517899 0
M  V30 26300 H 2421.29 -3.4294 -0.780063 0
M  V30 26301 H 2421.17 -2.87608 -2.44053 0
M  V30 26302 H 2423.55 -1.9014 -2.25679 0
M  V30 26303 H 2423.63 -2.48908 -0.589784 0
M  V30 26304 H 2423.28 -4.87175 -1.43608 0
M  V30 26305 H 2423.21 -4.25303 -3.10523 0
M  V30 26306 H 2425.7 -3.2726 -1.88969 0
M  V30 26307 H 2426.01 -6.98315 -3.31023 0
M  V30 26308 H 2424.36 -6.27715 -2.98326 0
M  V30 26309 H 2427.55 -4.0952 -2.2674 0
M  V30 26310 H 2427.72 -5.78714 -2.91538 0
M  V30 26311 N 2421.13 0.897149 -1.29572 0
M  V30 26312 C 2422.36 1.68127 -1.20585 0
M  V30 26313 C 2422.77 1.87355 0.233148 0
M  V30 26314 O 2422.13 1.41238 1.15577 0
M  V30 26315 C 2422.18 3.06437 -1.91777 0
M  V30 26316 O 2421.9 2.88086 -3.30058 0
M  V30 26317 C 2423.4 4.00851 -1.89298 0
M  V30 26318 H 2420.62 0.525029 -0.417835 0
M  V30 26319 H 2423.16 1.12174 -1.70989 0
M  V30 26320 H 2421.32 3.59159 -1.45202 0
M  V30 26321 H 2421.73 3.75742 -3.65948 0
M  V30 26322 H 2423.21 4.95306 -2.43671 0
M  V30 26323 H 2423.68 4.30515 -0.869089 0
M  V30 26324 H 2424.29 3.54061 -2.35628 0
M  V30 26325 N 2422.61 1.1209 1.10786 0
M  V30 26326 C 2423.54 0.807793 2.19082 0
M  V30 26327 C 2424.52 -0.226829 1.68581 0
M  V30 26328 O 2425.7 -0.0888134 1.93997 0
M  V30 26329 C 2422.83 0.257637 3.46343 0
M  V30 26330 C 2421.79 1.22491 4.10098 0
M  V30 26331 C 2421.11 0.535145 5.32015 0
M  V30 26332 C 2422.41 2.57819 4.54232 0
M  V30 26333 H 2424.11 1.71333 2.45531 0
M  V30 26334 H 2421.65 0.825225 1.18009 0
M  V30 26335 H 2423.6 0.0263419 4.21392 0
M  V30 26336 H 2422.33 -0.683222 3.19374 0
M  V30 26337 H 2420.99 1.44195 3.37051 0
M  V30 26338 H 2420.64 -0.410739 5.0132 0
M  V30 26339 H 2420.34 1.18034 5.75623 0
M  V30 26340 H 2421.86 0.312802 6.09798 0
M  V30 26341 H 2423.27 2.40164 5.20571 0
M  V30 26342 H 2421.67 3.18384 5.08676 0
M  V30 26343 H 2422.74 3.16534 3.67334 0
M  V30 26344 N 2424.08 -1.28513 0.912254 0
M  V30 26345 C 2425.01 -2.29756 0.416443 0
M  V30 26346 C 2425.99 -1.62111 -0.515166 0
M  V30 26347 O 2427.18 -1.89532 -0.423219 0
M  V30 26348 C 2424.31 -3.45576 -0.345659 0
M  V30 26349 C 2423.26 -4.25108 0.496674 0
M  V30 26350 C 2422.59 -5.33249 -0.393678 0
M  V30 26351 C 2423.89 -4.91998 1.75316 0
M  V30 26352 H 2425.58 -2.71478 1.26254 0
M  V30 26353 H 2423.13 -1.3051 0.608538 0
M  V30 26354 H 2425.08 -4.15489 -0.703349 0
M  V30 26355 H 2423.81 -3.0273 -1.22565 0
M  V30 26356 H 2422.47 -3.5692 0.836863 0
M  V30 26357 H 2422.11 -4.86647 -1.27217 0
M  V30 26358 H 2421.81 -5.87365 0.166312 0
M  V30 26359 H 2423.34 -6.0601 -0.747283 0
M  V30 26360 H 2424.75 -5.5428 1.46446 0
M  V30 26361 H 2423.15 -5.56102 2.25544 0
M  V30 26362 H 2424.22 -4.16573 2.48184 0
M  V30 26363 N 2425.56 -0.676073 -1.42362 0
M  V30 26364 C 2426.81 -0.198866 -2.01521 0
M  V30 26365 C 2427.14 1.19502 -1.53458 0
M  V30 26366 O 2426.39 1.81655 -0.727999 0
M  V30 26367 C 2426.69 -0.183493 -3.56929 0
M  V30 26368 C 2426.36 -1.52223 -4.24428 0
M  V30 26369 C 2425.02 -1.88878 -4.42582 0
M  V30 26370 C 2427.37 -2.40385 -4.62455 0
M  V30 26371 C 2424.7 -3.13317 -4.96033 0
M  V30 26372 C 2427.05 -3.64138 -5.17287 0
M  V30 26373 C 2425.72 -4.0096 -5.33654 0
M  V30 26374 H 2424.99 -0.0727701 -0.737418 0
M  V30 26375 H 2427.63 -0.871311 -1.7053 0
M  V30 26376 H 2425.94 0.572464 -3.87595 0
M  V30 26377 H 2427.63 0.202965 -4.00486 0
M  V30 26378 H 2424.22 -1.22709 -4.10659 0
M  V30 26379 H 2428.41 -2.13351 -4.48102 0
M  V30 26380 H 2423.66 -3.41866 -5.0689 0
M  V30 26381 H 2427.84 -4.32653 -5.45696 0
M  V30 26382 H 2425.47 -4.9746 -5.74837 0
M  V30 26383 N 2427.04 1.51915 -0.419488 0
M  V30 26384 C 2428 2.25874 0.389076 0
M  V30 26385 C 2429 1.28632 0.964901 0
M  V30 26386 O 2430.19 1.52491 0.842152 0
M  V30 26387 C 2427.33 3.03691 1.54869 0
M  V30 26388 H 2428.52 2.98781 -0.258851 0
M  V30 26389 H 2426.07 1.55348 -0.172236 0
M  V30 26390 H 2426.81 2.35158 2.23318 0
M  V30 26391 H 2426.59 3.75096 1.14217 0
M  V30 26392 H 2428.08 3.59762 2.1204 0
M  V30 26393 N 2428.52 0.150242 1.56882 0
M  V30 26394 C 2429.45 -0.784245 2.19936 0
M  V30 26395 C 2430.43 -1.25467 1.14856 0
M  V30 26396 O 2431.61 -1.31165 1.43211 0
M  V30 26397 C 2428.74 -2.02224 2.82352 0
M  V30 26398 C 2427.7 -1.68846 3.93287 0
M  V30 26399 C 2427.02 -2.99936 4.42654 0
M  V30 26400 C 2428.32 -0.932623 5.13906 0
M  V30 26401 H 2430.02 -0.258729 2.9828 0
M  V30 26402 H 2427.56 -0.123004 1.43474 0
M  V30 26403 H 2429.52 -2.68082 3.25131 0
M  V30 26404 H 2428.24 -2.57154 2.01345 0
M  V30 26405 H 2426.9 -1.05365 3.51132 0
M  V30 26406 H 2426.55 -3.52863 3.58464 0
M  V30 26407 H 2426.25 -2.78365 5.17481 0
M  V30 26408 H 2427.77 -3.66859 4.88105 0
M  V30 26409 H 2429.19 -1.49336 5.53509 0
M  V30 26410 H 2427.58 -0.816735 5.94516 0
M  V30 26411 H 2428.65 0.0750421 4.84842 0
M  V30 26412 N 2430 -1.57115 -0.123538 0
M  V30 26413 C 2430.93 -1.95203 -1.18199 0
M  V30 26414 C 2431.91 -0.821056 -1.40348 0
M  V30 26415 O 2433.09 -1.07882 -1.54576 0
M  V30 26416 C 2430.22 -2.24434 -2.53667 0
M  V30 26417 C 2429.26 -3.47003 -2.47974 0
M  V30 26418 S 2430.1 -4.9975 -1.9238 0
M  V30 26419 C 2431.25 -5.32128 -3.2953 0
M  V30 26420 H 2431.49 -2.84675 -0.857162 0
M  V30 26421 H 2429.02 -1.5083 -0.330113 0
M  V30 26422 H 2430.98 -2.41953 -3.31616 0
M  V30 26423 H 2429.64 -1.35584 -2.8333 0
M  V30 26424 H 2428.83 -3.64807 -3.47752 0
M  V30 26425 H 2428.43 -3.28847 -1.78145 0
M  V30 26426 H 2430.73 -5.27032 -4.25727 0
M  V30 26427 H 2431.67 -6.33401 -3.16558 0
M  V30 26428 H 2432.08 -4.59609 -3.2775 0
M  V30 26429 N 2431.47 0.393589 -1.52606 0
M  V30 26430 C 2432.41 1.50199 -1.71801 0
M  V30 26431 C 2433.39 1.5244 -0.565769 0
M  V30 26432 O 2434.57 1.70914 -0.795017 0
M  V30 26433 C 2431.7 2.88682 -1.77145 0
M  V30 26434 C 2430.74 3.04287 -2.98851 0
M  V30 26435 S 2431.58 2.75968 -4.58914 0
M  V30 26436 C 2432.73 4.16652 -4.67067 0
M  V30 26437 H 2432.96 1.33691 -2.65545 0
M  V30 26438 H 2430.5 0.58617 -1.42841 0
M  V30 26439 H 2432.46 3.68486 -1.8091 0
M  V30 26440 H 2431.12 3.0252 -0.845022 0
M  V30 26441 H 2430.31 4.05641 -2.99118 0
M  V30 26442 H 2429.91 2.32369 -2.93054 0
M  V30 26443 H 2432.2 5.10515 -4.454 0
M  V30 26444 H 2433.15 4.21402 -5.69057 0
M  V30 26445 H 2433.55 4.02347 -3.95951 0
M  V30 26446 N 2432.95 1.43492 0.651762 0
M  V30 26447 C 2434.18 1.48843 1.44431 0
M  V30 26448 C 2434.6 0.107988 1.8779 0
M  V30 26449 O 2433.96 -0.898574 1.57465 0
M  V30 26450 C 2434.01 2.44063 2.65453 0
M  V30 26451 O 2433.11 1.9279 3.64562 0
M  V30 26452 H 2432.45 0.503399 0.432996 0
M  V30 26453 H 2434.98 1.88421 0.797418 0
M  V30 26454 H 2434.99 2.61416 3.1325 0
M  V30 26455 H 2433.67 3.44344 2.33238 0
M  V30 26456 H 2432.25 1.85106 3.23713 0
M  V30 26457 N 2434.43 -0.890264 1.30046 0
M  V30 26458 C 2435.36 -2.0117 1.18545 0
M  V30 26459 C 2436.34 -1.69924 0.0773655 0
M  V30 26460 O 2437.53 -1.92472 0.258484 0
M  V30 26461 C 2434.66 -3.36201 0.871 0
M  V30 26462 C 2433.61 -3.81688 1.93644 0
M  V30 26463 C 2432.94 -5.1395 1.47509 0
M  V30 26464 C 2434.24 -4.00988 3.34673 0
M  V30 26465 H 2435.93 -2.1105 2.12363 0
M  V30 26466 H 2433.48 -1.01405 1.0224 0
M  V30 26467 H 2435.43 -4.14171 0.777214 0
M  V30 26468 H 2434.15 -3.26438 -0.102868 0
M  V30 26469 H 2432.81 -3.05943 2.01977 0
M  V30 26470 H 2432.46 -5.00611 0.489639 0
M  V30 26471 H 2432.16 -5.45356 2.1877 0
M  V30 26472 H 2433.68 -5.94451 1.39499 0
M  V30 26473 H 2435.1 -4.69412 3.29128 0
M  V30 26474 H 2433.5 -4.43762 4.03974 0
M  V30 26475 H 2434.57 -3.05014 3.76954 0
M  V30 26476 N 2435.91 -1.12676 -1.1019 0
M  V30 26477 C 2437.32 -0.897633 -1.63705 0
M  V30 26478 C 2437.67 0.567513 -1.87813 0
M  V30 26479 O 2436.8 1.43251 -1.62198 0
M  V30 26480 C 2437.39 -1.62297 -2.97397 0
M  V30 26481 C 2435.95 -1.43992 -3.47769 0
M  V30 26482 C 2435.1 -1.65726 -2.22329 0
M  V30 26483 H 2438.05 -1.28118 -0.936565 0
M  V30 26484 H 2438.07 -1.07548 -3.64985 0
M  V30 26485 H 2437.58 -2.68929 -2.79819 0
M  V30 26486 H 2435.68 -0.396271 -3.70487 0
M  V30 26487 H 2435.79 -2.19773 -4.25719 0
M  V30 26488 H 2434.16 -1.08154 -2.30597 0
M  V30 26489 H 2434.94 -2.7366 -2.0728 0
M  V30 26490 N 2437.39 1.28028 -0.919057 0
M  V30 26491 C 2438.35 2.25389 -0.416221 0
M  V30 26492 C 2439.35 1.54068 0.460411 0
M  V30 26493 O 2440.54 1.72208 0.262714 0
M  V30 26494 C 2437.67 3.38514 0.402647 0
M  V30 26495 H 2438.86 2.71385 -1.27634 0
M  V30 26496 H 2436.42 1.39802 -0.698943 0
M  V30 26497 H 2437.15 2.97887 1.28194 0
M  V30 26498 H 2436.94 3.91449 -0.225767 0
M  V30 26499 H 2438.43 4.10899 0.745118 0
M  V30 26500 N 2438.86 0.683613 1.42002 0
M  V30 26501 C 2439.79 0.024907 2.33487 0
M  V30 26502 C 2440.78 -0.779948 1.51165 0
M  V30 26503 O 2441.96 -0.735331 1.7974 0
M  V30 26504 C 2439.09 -0.920777 3.34872 0
M  V30 26505 C 2438.04 -0.223883 4.27414 0
M  V30 26506 C 2437.37 -1.28311 5.19076 0
M  V30 26507 C 2438.67 0.90251 5.14443 0
M  V30 26508 H 2440.36 0.788972 2.88818 0
M  V30 26509 H 2437.91 0.380854 1.38872 0
M  V30 26510 H 2439.86 -1.39074 3.97789 0
M  V30 26511 H 2438.59 -1.71637 2.77864 0
M  V30 26512 H 2437.25 0.225928 3.65903 0
M  V30 26513 H 2436.89 -2.07092 4.58391 0
M  V30 26514 H 2436.59 -0.821893 5.81824 0
M  V30 26515 H 2438.12 -1.75382 5.8487 0
M  V30 26516 H 2439.53 0.513372 5.70997 0
M  V30 26517 H 2437.93 1.29007 5.86069 0
M  V30 26518 H 2439 1.74745 4.52319 0
M  V30 26519 N 2440.34 -1.5169 0.427538 0
M  V30 26520 C 2441.59 -2.02 -0.142193 0
M  V30 26521 C 2441.92 -1.31224 -1.43564 0
M  V30 26522 O 2441.17 -0.412777 -1.91297 0
M  V30 26523 C 2441.47 -3.54945 -0.418187 0
M  V30 26524 C 2441.14 -4.43956 0.788265 0
M  V30 26525 C 2439.8 -4.68005 1.11915 0
M  V30 26526 C 2442.15 -4.96241 1.59356 0
M  V30 26527 C 2439.48 -5.41585 2.25617 0
M  V30 26528 C 2441.83 -5.71067 2.7215 0
M  V30 26529 C 2440.5 -5.93382 3.05703 0
M  V30 26530 H 2439.77 -0.739171 -0.0520321 0
M  V30 26531 H 2442.41 -1.82735 0.572729 0
M  V30 26532 H 2440.72 -3.72488 -1.21489 0
M  V30 26533 H 2442.42 -3.91398 -0.87227 0
M  V30 26534 H 2439.01 -4.25429 0.520419 0
M  V30 26535 H 2443.19 -4.77554 1.35114 0
M  V30 26536 H 2438.45 -5.57079 2.51939 0
M  V30 26537 H 2442.62 -6.10572 3.34925 0
M  V30 26538 H 2440.25 -6.50177 3.93922 0
M  V30 26539 N 2441.82 -0.15856 -1.568 0
M  V30 26540 C 2442.77 0.79369 -2.1864 0
M  V30 26541 C 2443.76 1.24687 -1.14671 0
M  V30 26542 O 2444.97 1.21401 -1.32898 0
M  V30 26543 H 2441.34 0.274191 -0.700231 0
M  V30 26544 H 2443.32 0.248043 -2.97367 0
M  V30 26545 C 2442.06 2.01805 -2.83143 0
M  V30 26546 H 2441.39 1.67834 -3.62866 0
M  V30 26547 H 2442.83 2.66351 -3.29899 0
M  V30 26548 C 2441.29 2.8335 -1.82249 0
M  V30 26549 O 2441.82 3.8008 -1.30007 0
M  V30 26550 N 2440.02 2.48111 -1.51292 0
M  V30 26551 H 2439.57 1.69513 -1.93967 0
M  V30 26552 H 2439.53 3.02961 -0.840349 0
M  V30 26553 N 2443.3 1.57178 0.115204 0
M  V30 26554 C 2444.55 1.84239 0.820913 0
M  V30 26555 C 2444.86 0.744792 1.80865 0
M  V30 26556 O 2446.07 0.901916 2.56081 0
M  V30 26557 C 2444.52 3.2666 1.51066 0
M  V30 26558 C 2444.13 4.44439 0.563716 0
M  V30 26559 C 2445.88 3.62965 2.20128 0
M  V30 26560 C 2443.78 5.77889 1.25691 0
M  V30 26561 H 2442.71 0.687183 0.310315 0
M  V30 26562 H 2445.36 1.83352 0.0736811 0
M  V30 26563 H 2443.75 3.22028 2.30465 0
M  V30 26564 H 2444.92 4.60377 -0.197328 0
M  V30 26565 H 2443.23 4.16395 -0.020137 0
M  V30 26566 H 2445.83 4.59941 2.72687 0
M  V30 26567 H 2446.17 2.90587 2.98102 0
M  V30 26568 H 2446.71 3.69399 1.47613 0
M  V30 26569 H 2443.45 6.53447 0.518378 0
M  V30 26570 H 2442.97 5.65831 1.98987 0
M  V30 26571 H 2444.65 6.21774 1.78904 0
M  V30 26572 N 2444.78 -0.38549 1.52813 0
M  V30 26573 C 2446.03 -1.12794 1.67696 0
M  V30 26574 C 2446.35 -1.90398 0.421148 0
M  V30 26575 O 2445.62 -1.8759 -0.564518 0
M  V30 26576 H 2444.2 -0.419385 0.618163 0
M  V30 26577 H 2446.86 -0.436938 1.89939 0
M  V30 26578 H 2445.95 -1.82889 2.52899 0
M  V30 26579 N 2446.26 -1.43835 -0.644143 0
M  V30 26580 C 2447.19 -1.52512 -1.76812 0
M  V30 26581 C 2448.17 -0.379081 -1.65822 0
M  V30 26582 O 2449.35 -0.597498 -1.8478 0
M  V30 26583 C 2446.48 -1.45645 -3.15285 0
M  V30 26584 C 2445.44 -2.58592 -3.41049 0
M  V30 26585 C 2444.76 -2.36778 -4.79417 0
M  V30 26586 C 2446.06 -4.00803 -3.34895 0
M  V30 26587 H 2447.76 -2.46588 -1.69807 0
M  V30 26588 H 2445.3 -1.18681 -0.815521 0
M  V30 26589 H 2447.25 -1.50318 -3.93678 0
M  V30 26590 H 2445.98 -0.480781 -3.23042 0
M  V30 26591 H 2444.64 -2.53287 -2.65031 0
M  V30 26592 H 2444.29 -1.37433 -4.83861 0
M  V30 26593 H 2443.99 -3.12496 -4.97614 0
M  V30 26594 H 2445.51 -2.43248 -5.60056 0
M  V30 26595 H 2446.92 -4.07546 -4.03211 0
M  V30 26596 H 2445.32 -4.76619 -3.64628 0
M  V30 26597 H 2446.39 -4.25295 -2.32921 0
M  V30 26598 N 2447.73 0.883355 -1.30517 0
M  V30 26599 C 2448.66 2.00538 -1.1961 0
M  V30 26600 C 2449.64 1.69881 -0.0863759 0
M  V30 26601 O 2450.83 1.92332 -0.268687 0
M  V30 26602 C 2447.96 3.35734 -0.888817 0
M  V30 26603 C 2446.91 3.80656 -1.95665 0
M  V30 26604 C 2446.24 5.13161 -1.50233 0
M  V30 26605 C 2447.54 3.99207 -3.36795 0
M  V30 26606 H 2449.23 2.09921 -2.13479 0
M  V30 26607 H 2446.78 1.00861 -1.02776 0
M  V30 26608 H 2448.73 4.13753 -0.799167 0
M  V30 26609 H 2447.46 3.26488 0.0855552 0
M  V30 26610 H 2446.12 3.04867 -2.03597 0
M  V30 26611 H 2445.76 5.00344 -0.51618 0
M  V30 26612 H 2445.46 5.44188 -2.21659 0
M  V30 26613 H 2446.99 5.93703 -1.4265 0
M  V30 26614 H 2448.4 4.6766 -3.31613 0
M  V30 26615 H 2446.8 4.41614 -4.06322 0
M  V30 26616 H 2447.87 3.03011 -3.78566 0
M  V30 26617 N 2449.21 1.13259 1.09591 0
M  V30 26618 C 2450.14 0.830984 2.18213 0
M  V30 26619 C 2451.12 -0.208936 1.68812 0
M  V30 26620 O 2452.31 -0.0682324 1.9408 0
M  V30 26621 C 2449.44 0.294357 3.4605 0
M  V30 26622 C 2448.39 1.26833 4.08775 0
M  V30 26623 C 2447.72 0.591542 5.31418 0
M  V30 26624 C 2449.02 2.62623 4.51472 0
M  V30 26625 H 2450.71 1.73927 2.437 0
M  V30 26626 H 2448.26 0.837695 1.17127 0
M  V30 26627 H 2450.21 0.0710347 4.2134 0
M  V30 26628 H 2448.93 -0.64931 3.20081 0
M  V30 26629 H 2447.59 1.47762 3.35503 0
M  V30 26630 H 2447.24 -0.357544 5.01728 0
M  V30 26631 H 2446.94 1.24133 5.74339 0
M  V30 26632 H 2448.47 0.377462 6.09432 0
M  V30 26633 H 2449.88 2.45672 5.17994 0
M  V30 26634 H 2448.28 3.23761 5.05271 0
M  V30 26635 H 2449.35 3.20412 3.63956 0
M  V30 26636 N 2450.69 -1.27539 0.925834 0
M  V30 26637 C 2451.94 -1.9445 0.565289 0
M  V30 26638 C 2452.26 -1.72781 -0.89313 0
M  V30 26639 O 2451.52 -1.04898 -1.65212 0
M  V30 26640 C 2451.82 -3.475 0.835357 0
M  V30 26641 C 2451.48 -3.89287 2.27522 0
M  V30 26642 C 2450.15 -4.00406 2.66886 0
M  V30 26643 C 2452.5 -4.1049 3.21166 0
M  V30 26644 C 2449.83 -4.30115 3.99021 0
M  V30 26645 C 2452.18 -4.41682 4.52879 0
M  V30 26646 C 2450.84 -4.51014 4.9208 0
M  V30 26647 H 2450.11 -0.711542 0.206854 0
M  V30 26648 H 2452.76 -1.51645 1.16944 0
M  V30 26649 H 2451.06 -3.91518 0.148511 0
M  V30 26650 H 2452.76 -3.9741 0.535391 0
M  V30 26651 H 2449.35 -3.81168 1.95982 0
M  V30 26652 H 2453.54 -4.01341 2.91957 0
M  V30 26653 H 2448.79 -4.35549 4.29077 0
M  V30 26654 H 2452.97 -4.57036 5.25444 0
M  V30 26655 H 2450.59 -4.73789 5.94498 0
M  V30 26656 N 2452.17 -0.691135 -1.41637 0
M  V30 26657 C 2453.1 -0.037289 -2.3347 0
M  V30 26658 C 2454.08 0.771921 -1.51576 0
M  V30 26659 O 2455.26 0.725788 -1.80128 0
M  V30 26660 C 2452.39 0.903005 -3.35355 0
M  V30 26661 C 2451.35 0.201213 -4.27527 0
M  V30 26662 C 2450.67 1.25556 -5.1975 0
M  V30 26663 C 2451.97 -0.92978 -5.13958 0
M  V30 26664 H 2453.67 -0.804278 -2.88395 0
M  V30 26665 H 2451.21 -0.388214 -1.38668 0
M  V30 26666 H 2453.17 1.36962 -3.98521 0
M  V30 26667 H 2451.89 1.70161 -2.7877 0
M  V30 26668 H 2450.55 -0.24533 -3.65778 0
M  V30 26669 H 2450.2 2.04658 -4.59483 0
M  V30 26670 H 2449.9 0.791026 -5.82251 0
M  V30 26671 H 2451.42 1.72278 -5.85792 0
M  V30 26672 H 2452.84 -0.543647 -5.70717 0
M  V30 26673 H 2451.23 -1.32113 -5.85377 0
M  V30 26674 H 2452.3 -1.77141 -4.51386 0
M  V30 26675 N 2453.65 1.51461 -0.435577 0
M  V30 26676 C 2454.89 2.02372 0.131673 0
M  V30 26677 C 2455.22 1.31922 1.42514 0
M  V30 26678 O 2454.5 0.433606 1.89605 0
M  V30 26679 C 2454.78 3.58373 0.352238 0
M  V30 26680 C 2454.64 4.39441 -0.959754 0
M  V30 26681 C 2455.95 4.25537 1.12279 0
M  V30 26682 H 2453.07 0.735539 0.0463807 0
M  V30 26683 H 2455.72 1.81115 -0.574229 0
M  V30 26684 H 2453.87 3.76616 0.953534 0
M  V30 26685 H 2455.54 4.32852 -1.5949 0
M  V30 26686 H 2453.78 4.04596 -1.56475 0
M  V30 26687 H 2454.45 5.4675 -0.75949 0
M  V30 26688 H 2456.93 4.11553 0.613473 0
M  V30 26689 H 2455.8 5.34574 1.24588 0
M  V30 26690 H 2456.06 3.86277 2.15041 0
M  V30 26691 N 2455.12 0.166873 1.56714 0
M  V30 26692 C 2456.06 -0.803713 2.13578 0
M  V30 26693 C 2457.04 -1.22898 1.06466 0
M  V30 26694 O 2458.22 -1.32154 1.34415 0
M  V30 26695 C 2455.35 -2.08175 2.67172 0
M  V30 26696 C 2454.39 -1.80086 3.86615 0
M  V30 26697 S 2455.23 -0.974068 5.26566 0
M  V30 26698 C 2456.38 -2.26287 5.83562 0
M  V30 26699 H 2456.61 -0.320215 2.9557 0
M  V30 26700 H 2454.15 -0.0477283 1.54326 0
M  V30 26701 H 2456.11 -2.81585 2.98697 0
M  V30 26702 H 2454.77 -2.53639 1.85273 0
M  V30 26703 H 2453.96 -2.74903 4.22427 0
M  V30 26704 H 2453.56 -1.14775 3.55953 0
M  V30 26705 H 2455.85 -3.21784 5.96205 0
M  V30 26706 H 2456.8 -1.9495 6.80735 0
M  V30 26707 H 2457.2 -2.37844 5.11948 0
M  V30 26708 N 2456.6 -1.57237 -0.106866 0
M  V30 26709 C 2457.85 -1.85485 -0.812493 0
M  V30 26710 C 2458.18 -0.753719 -1.79302 0
M  V30 26711 O 2457.43 0.253819 -1.94047 0
M  V30 26712 C 2457.73 -3.20271 -1.58622 0
M  V30 26713 C 2457.4 -4.44637 -0.748889 0
M  V30 26714 C 2456.06 -4.78404 -0.51802 0
M  V30 26715 C 2458.41 -5.20935 -0.16603 0
M  V30 26716 C 2455.74 -5.85903 0.305762 0
M  V30 26717 C 2458.09 -6.29303 0.64501 0
M  V30 26718 C 2456.76 -6.61593 0.886081 0
M  V30 26719 H 2456.03 -0.678739 -0.297312 0
M  V30 26720 H 2458.67 -1.91355 -0.0743996 0
M  V30 26721 H 2456.98 -3.10032 -2.39556 0
M  V30 26722 H 2458.67 -3.39352 -2.13637 0
M  V30 26723 H 2455.26 -4.18189 -0.938932 0
M  V30 26724 H 2459.45 -4.95191 -0.331583 0
M  V30 26725 H 2454.7 -6.09339 0.501635 0
M  V30 26726 H 2458.88 -6.876 1.10357 0
M  V30 26727 H 2456.51 -7.44722 1.52622 0
M  V30 26728 N 2458.08 0.377381 -1.53015 0
M  V30 26729 C 2459.33 1.1185 -1.67847 0
M  V30 26730 C 2459.64 1.908 -0.430659 0
M  V30 26731 O 2460.85 2.67587 -0.459308 0
M  V30 26732 C 2459.3 2.0375 -2.96671 0
M  V30 26733 C 2458.91 1.30168 -4.28673 0
M  V30 26734 C 2460.66 2.77926 -3.2087 0
M  V30 26735 C 2458.56 2.20902 -5.48595 0
M  V30 26736 H 2457.49 0.421252 -0.62535 0
M  V30 26737 H 2460.14 0.380378 -1.79514 0
M  V30 26738 H 2458.53 2.81245 -2.78778 0
M  V30 26739 H 2459.7 0.578179 -4.57158 0
M  V30 26740 H 2458.02 0.679035 -4.10826 0
M  V30 26741 H 2460.61 3.46017 -4.07648 0
M  V30 26742 H 2460.96 3.42646 -2.3643 0
M  V30 26743 H 2461.49 2.07519 -3.39383 0
M  V30 26744 H 2458.23 1.60778 -6.35477 0
M  V30 26745 H 2457.75 2.91134 -5.24405 0
M  V30 26746 H 2459.43 2.80726 -5.82925 0
M  V30 26747 N 2459.56 1.44175 0.636506 0
M  V30 26748 C 2460.81 1.46675 1.39616 0
M  V30 26749 C 2461.13 0.0973032 1.94256 0
M  V30 26750 O 2460.39 -0.900145 1.7377 0
M  V30 26751 C 2460.69 2.47009 2.58305 0
M  V30 26752 C 2460.35 3.92471 2.21985 0
M  V30 26753 C 2459.02 4.32085 2.11793 0
M  V30 26754 C 2461.37 4.84069 1.93202 0
M  V30 26755 C 2458.7 5.61228 1.70997 0
M  V30 26756 C 2461.05 6.13594 1.539 0
M  V30 26757 C 2459.71 6.52168 1.42245 0
M  V30 26758 H 2458.98 0.536721 0.510892 0
M  V30 26759 H 2461.63 1.77356 0.722297 0
M  V30 26760 H 2459.93 2.09792 3.309 0
M  V30 26761 H 2461.63 2.46192 3.16529 0
M  V30 26762 H 2458.22 3.61128 2.30834 0
M  V30 26763 H 2462.4 4.54223 1.99989 0
M  V30 26764 H 2457.66 5.89938 1.60573 0
M  V30 26765 H 2461.83 6.84032 1.30665 0
M  V30 26766 H 2459.46 7.5214 1.10406 0
M  V30 26767 N 2461.04 -0.876421 1.30983 0
M  V30 26768 C 2462.26 -1.66713 1.23376 0
M  V30 26769 C 2462.69 -1.87046 -0.198817 0
M  V30 26770 O 2462.04 -1.40758 -1.14267 0
M  V30 26771 C 2462.09 -3.01608 1.97649 0
M  V30 26772 O 2461.2 -3.9106 1.30942 0
M  V30 26773 H 2460.54 -0.509092 0.426288 0
M  V30 26774 H 2463.07 -1.0932 1.72946 0
M  V30 26775 H 2463.08 -3.5159 2.06998 0
M  V30 26776 H 2461.75 -2.86128 3.01834 0
M  V30 26777 H 2460.33 -3.49505 1.30003 0
M  V30 26778 N 2462.51 -1.13839 -1.08989 0
M  V30 26779 C 2463.76 -0.897541 -1.8063 0
M  V30 26780 C 2464.08 0.577737 -1.86873 0
M  V30 26781 O 2465.28 0.935656 -2.54868 0
M  V30 26782 C 2463.74 -1.55623 -3.24514 0
M  V30 26783 C 2463.35 -3.06735 -3.26523 0
M  V30 26784 C 2465.09 -1.39627 -4.0088 0
M  V30 26785 C 2463 -3.65469 -4.64959 0
M  V30 26786 H 2461.93 -0.332141 -0.676904 0
M  V30 26787 H 2464.58 -1.36662 -1.22457 0
M  V30 26788 H 2462.96 -1.01483 -3.82776 0
M  V30 26789 H 2464.13 -3.67494 -2.78002 0
M  V30 26790 H 2462.45 -3.22301 -2.6365 0
M  V30 26791 H 2465.05 -1.80915 -5.03164 0
M  V30 26792 H 2465.39 -0.341651 -4.14896 0
M  V30 26793 H 2465.92 -1.90772 -3.49072 0
M  V30 26794 H 2462.66 -4.70757 -4.56145 0
M  V30 26795 H 2462.18 -3.0949 -5.13786 0
M  V30 26796 H 2463.86 -3.6541 -5.33933 0
M  V30 26797 N 2463.99 1.27046 -0.932584 0
M  V30 26798 C 2465.24 1.94147 -0.575593 0
M  V30 26799 C 2465.57 1.73253 0.883954 0
M  V30 26800 O 2464.82 1.05773 1.64653 0
M  V30 26801 C 2465.12 3.47053 -0.853774 0
M  V30 26802 C 2464.79 3.88075 -2.29584 0
M  V30 26803 C 2463.45 3.98985 -2.69006 0
M  V30 26804 C 2465.8 4.08781 -3.23338 0
M  V30 26805 C 2463.13 4.27993 -4.01296 0
M  V30 26806 C 2465.48 4.39274 -4.55215 0
M  V30 26807 C 2464.15 4.48398 -4.94465 0
M  V30 26808 H 2463.42 0.710435 -0.210624 0
M  V30 26809 H 2466.06 1.51023 -1.17747 0
M  V30 26810 H 2464.37 3.91434 -0.169272 0
M  V30 26811 H 2466.06 3.9712 -0.556459 0
M  V30 26812 H 2462.65 3.80123 -1.98001 0
M  V30 26813 H 2466.84 3.99787 -2.94081 0
M  V30 26814 H 2462.09 4.33267 -4.31381 0
M  V30 26815 H 2466.27 4.54243 -5.2786 0
M  V30 26816 H 2463.9 4.7063 -5.97002 0
M  V30 26817 N 2465.47 0.698636 1.41269 0
M  V30 26818 C 2466.72 0.230445 2.00782 0
M  V30 26819 C 2467.04 -1.17503 1.55622 0
M  V30 26820 O 2466.31 -1.79345 0.788181 0
M  V30 26821 H 2464.89 0.0822075 0.742463 0
M  V30 26822 H 2467.55 0.90048 1.72851 0
M  V30 26823 H 2466.65 0.250265 3.11095 0
M  V30 26824 N 2466.95 -1.51228 0.443603 0
M  V30 26825 C 2467.88 -2.24486 -0.41005 0
M  V30 26826 C 2468.86 -1.26671 -1.01947 0
M  V30 26827 O 2470.04 -1.55823 -1.06072 0
M  V30 26828 C 2467.17 -3.00006 -1.57206 0
M  V30 26829 C 2466.22 -4.12528 -1.08272 0
M  V30 26830 S 2467.05 -5.35496 -0.0196535 0
M  V30 26831 C 2468.21 -6.14557 -1.18619 0
M  V30 26832 H 2468.44 -2.96544 0.211884 0
M  V30 26833 H 2465.97 -1.52705 0.228182 0
M  V30 26834 H 2467.93 -3.44115 -2.23819 0
M  V30 26835 H 2466.59 -2.27526 -2.16543 0
M  V30 26836 H 2465.78 -4.64671 -1.95185 0
M  V30 26837 H 2465.39 -3.70713 -0.494732 0
M  V30 26838 H 2467.68 -6.44024 -2.10332 0
M  V30 26839 H 2468.62 -7.04586 -0.704596 0
M  V30 26840 H 2469.03 -5.4615 -1.42759 0
M  V30 26841 N 2468.43 -0.175182 -1.56623 0
M  V30 26842 C 2469.65 0.478102 -2.01814 0
M  V30 26843 C 2470.08 1.55755 -1.0546 0
M  V30 26844 O 2469.43 1.81267 -0.0347758 0
M  V30 26845 C 2469.48 1.02981 -3.45583 0
M  V30 26846 O 2468.59 2.14364 -3.52309 0
M  V30 26847 H 2467.93 0.114047 -0.654132 0
M  V30 26848 H 2470.46 -0.280209 -2.02672 0
M  V30 26849 H 2470.47 1.35145 -3.84967 0
M  V30 26850 H 2469.14 0.239483 -4.1521 0
M  V30 26851 H 2467.72 1.83216 -3.24786 0
M  V30 26852 N 2469.91 1.57292 0.0985263 0
M  V30 26853 C 2470.85 2.02823 1.13866 0
M  V30 26854 C 2471.85 0.928691 1.41675 0
M  V30 26855 O 2473.05 1.11387 1.41396 0
M  V30 26856 H 2469.43 0.646324 0.384408 0
M  V30 26857 H 2471.4 2.89376 0.728296 0
M  V30 26858 C 2470.15 2.46558 2.45162 0
M  V30 26859 H 2469.47 3.30744 2.24607 0
M  V30 26860 H 2470.91 2.82196 3.16451 0
M  V30 26861 C 2469.37 1.33747 3.09214 0
M  V30 26862 O 2469.9 0.66471 3.96162 0
M  V30 26863 N 2468.11 1.08932 2.69411 0
M  V30 26864 H 2467.65 1.63821 1.98798 0
M  V30 26865 H 2467.61 0.336513 3.12594 0
M  V30 26866 N 2471.38 -0.369261 1.53213 0
M  V30 26867 C 2472.63 -1.11229 1.69217 0
M  V30 26868 C 2472.96 -1.89409 0.442081 0
M  V30 26869 O 2472.21 -1.87034 -0.575911 0
M  V30 26870 C 2472.51 -2.10127 2.89104 0
M  V30 26871 C 2472.18 -1.48455 4.2576 0
M  V30 26872 C 2470.84 -1.31363 4.62922 0
M  V30 26873 C 2473.19 -1.03802 5.10759 0
M  V30 26874 C 2470.52 -0.681967 5.82723 0
M  V30 26875 C 2472.87 -0.420376 6.31202 0
M  V30 26876 C 2471.54 -0.23692 6.67079 0
M  V30 26877 H 2470.81 -0.407016 0.619209 0
M  V30 26878 H 2473.45 -0.394519 1.87392 0
M  V30 26879 H 2471.76 -2.88195 2.65426 0
M  V30 26880 H 2473.46 -2.67564 2.98681 0
M  V30 26881 H 2470.05 -1.62751 3.96497 0
M  V30 26882 H 2474.23 -1.15802 4.82601 0
M  V30 26883 H 2469.49 -0.528209 6.09114 0
M  V30 26884 H 2473.66 -0.066165 6.96369 0
M  V30 26885 H 2471.29 0.254611 7.59774 0
M  V30 26886 N 2472.86 -1.4451 -0.628851 0
M  V30 26887 C 2473.82 -1.51192 -1.72261 0
M  V30 26888 C 2474.82 -0.393698 -1.55906 0
M  V30 26889 O 2476.01 -0.656405 -1.6136 0
M  V30 26890 C 2473.15 -1.38804 -3.11362 0
M  V30 26891 H 2474.34 -2.48623 -1.6771 0
M  V30 26892 H 2471.89 -1.31636 -0.842714 0
M  V30 26893 H 2472.63 -0.424749 -3.21506 0
M  V30 26894 H 2472.41 -2.1989 -3.2464 0
M  V30 26895 H 2473.9 -1.46465 -3.91072 0
M  V30 26896 N 2474.34 0.869463 -1.31446 0
M  V30 26897 C 2475.57 1.65292 -1.23945 0
M  V30 26898 C 2475.98 1.88166 0.197528 0
M  V30 26899 O 2475.32 1.44035 1.14016 0
M  V30 26900 C 2475.38 3.04319 -1.9139 0
M  V30 26901 C 2475.05 3.04551 -3.40731 0
M  V30 26902 C 2476.04 2.82473 -4.36469 0
M  V30 26903 C 2473.73 3.25656 -3.82431 0
M  V30 26904 C 2475.72 2.8148 -5.71881 0
M  V30 26905 C 2473.41 3.24291 -5.17956 0
M  V30 26906 C 2474.41 3.0223 -6.12492 0
M  V30 26907 O 2474.1 3.00711 -7.45539 0
M  V30 26908 H 2473.83 0.522047 -0.429468 0
M  V30 26909 H 2476.38 1.09347 -1.73875 0
M  V30 26910 H 2474.61 3.61992 -1.3601 0
M  V30 26911 H 2476.3 3.64888 -1.77797 0
M  V30 26912 H 2477.07 2.65949 -4.05581 0
M  V30 26913 H 2472.95 3.41858 -3.0928 0
M  V30 26914 H 2476.49 2.64179 -6.45643 0
M  V30 26915 H 2472.39 3.40355 -5.48479 0
M  V30 26916 H 2473.15 3.16769 -7.54718 0
M  V30 26917 N 2475.82 1.14415 1.08383 0
M  V30 26918 C 2477.06 0.913865 1.81042 0
M  V30 26919 C 2477.4 -0.558177 1.86005 0
M  V30 26920 O 2476.67 -1.41347 1.33609 0
M  V30 26921 C 2476.95 1.51575 3.26645 0
M  V30 26922 C 2476.81 3.05766 3.2989 0
M  V30 26923 C 2478.13 1.19281 4.23627 0
M  V30 26924 H 2475.25 0.333425 0.657265 0
M  V30 26925 H 2477.89 1.41414 1.26894 0
M  V30 26926 H 2476.04 1.0903 3.72887 0
M  V30 26927 H 2477.71 3.57143 2.91971 0
M  V30 26928 H 2475.95 3.40202 2.69157 0
M  V30 26929 H 2476.62 3.42985 4.3251 0
M  V30 26930 H 2479.1 1.56063 3.85725 0
M  V30 26931 H 2477.98 1.64027 5.23819 0
M  V30 26932 H 2478.24 0.108145 4.41968 0
M  V30 26933 N 2477.3 -1.26549 0.939309 0
M  V30 26934 C 2478.24 -2.26447 0.446127 0
M  V30 26935 C 2479.21 -1.58609 -0.493206 0
M  V30 26936 O 2480.4 -1.86347 -0.409824 0
M  V30 26937 C 2477.54 -3.43927 -0.284314 0
M  V30 26938 C 2476.65 -4.26446 0.690474 0
M  V30 26939 C 2475.79 -5.31165 -0.0609778 0
M  V30 26940 C 2474.82 -6.05361 0.905755 0
M  V30 26941 N 2473.96 -7.01853 0.186179 0
M  V30 26942 H 2478.8 -2.68006 1.30296 0
M  V30 26943 H 2476.34 -1.31775 0.653734 0
M  V30 26944 H 2478.3 -4.10866 -0.724241 0
M  V30 26945 H 2476.93 -3.03287 -1.1053 0
M  V30 26946 H 2475.98 -3.59314 1.24892 0
M  V30 26947 H 2477.29 -4.77898 1.42882 0
M  V30 26948 H 2476.44 -6.04107 -0.560274 0
M  V30 26949 H 2475.18 -4.80547 -0.832213 0
M  V30 26950 H 2474.19 -5.31248 1.41619 0
M  V30 26951 H 2475.41 -6.58069 1.67696 0
M  V30 26952 H 2473.36 -6.53549 -0.566599 0
M  V30 26953 H 2473.28 -7.51048 0.863884 0
M  V30 26954 H 2474.54 -7.78953 -0.292084 0
M  V30 26955 N 2478.77 -0.706118 -1.40896 0
M  V30 26956 C 2479.72 -0.0241147 -2.27987 0
M  V30 26957 C 2480.71 0.742179 -1.4276 0
M  V30 26958 O 2481.9 0.615937 -1.65937 0
M  V30 26959 C 2479.03 0.903849 -3.31188 0
M  V30 26960 C 2478.11 0.133244 -4.23891 0
M  V30 26961 N 2478.51 -0.878531 -4.98112 0
M  V30 26962 C 2476.8 0.367191 -4.44486 0
M  V30 26963 C 2477.5 -1.34074 -5.66038 0
M  V30 26964 N 2476.48 -0.66466 -5.39521 0
M  V30 26965 H 2480.28 -0.799708 -2.82811 0
M  V30 26966 H 2477.8 -0.537871 -1.53234 0
M  V30 26967 H 2479.79 1.40768 -3.92416 0
M  V30 26968 H 2478.45 1.67892 -2.77925 0
M  V30 26969 H 2479.46 -1.2591 -5.02362 0
M  V30 26970 H 2476.14 1.11933 -4.02215 0
M  V30 26971 H 2477.53 -2.18091 -6.3552 0
M  V30 26972 N 2480.25 1.50991 -0.451617 0
M  V30 26973 C 2481.16 2.31846 0.35839 0
M  V30 26974 C 2482.18 1.41375 1.01435 0
M  V30 26975 O 2483.35 1.74441 1.0066 0
M  V30 26976 C 2480.42 3.15518 1.43699 0
M  V30 26977 C 2479.48 4.21786 0.799668 0
M  V30 26978 C 2478.71 5.01459 1.82687 0
M  V30 26979 O 2478.94 4.81947 3.05096 0
M  V30 26980 O 2477.87 5.85164 1.40948 0
M  V30 26981 H 2481.7 3.02194 -0.302085 0
M  V30 26982 H 2479.28 1.47862 -0.213851 0
M  V30 26983 H 2481.16 3.67493 2.0622 0
M  V30 26984 H 2479.84 2.4792 2.08129 0
M  V30 26985 H 2478.74 3.73853 0.136018 0
M  V30 26986 H 2480.08 4.91799 0.198632 0
M  V30 26987 N 2481.73 0.183486 1.56528 0
M  V30 26988 C 2482.69 -0.728185 2.17325 0
M  V30 26989 C 2483.69 -1.14937 1.12455 0
M  V30 26990 O 2484.88 -1.06434 1.37903 0
M  V30 26991 C 2482.01 -1.99269 2.76595 0
M  V30 26992 H 2483.21 -0.19872 2.99241 0
M  V30 26993 H 2480.76 -0.0661116 1.5616 0
M  V30 26994 H 2481.5 -2.56495 1.98446 0
M  V30 26995 H 2481.28 -1.69953 3.53353 0
M  V30 26996 H 2482.77 -2.64305 3.23315 0
M  V30 26997 N 2483.21 -1.57342 -0.0901833 0
M  V30 26998 C 2484.46 -1.85969 -0.791209 0
M  V30 26999 C 2484.78 -0.77289 -1.79029 0
M  V30 27000 O 2484.05 0.200364 -1.94873 0
M  V30 27001 H 2482.63 -0.6862 -0.295193 0
M  V30 27002 H 2485.29 -1.94772 -0.070644 0
M  V30 27003 H 2484.38 -2.82869 -1.31877 0
M  V30 27004 N 2484.69 0.36113 -1.53407 0
M  V30 27005 C 2485.94 1.10063 -1.69024 0
M  V30 27006 C 2486.25 1.90333 -0.450871 0
M  V30 27007 O 2487.45 2.67084 -0.487664 0
M  V30 27008 C 2485.91 2.00592 -2.98815 0
M  V30 27009 C 2485.52 1.25614 -4.30029 0
M  V30 27010 C 2487.26 2.74507 -3.23799 0
M  V30 27011 C 2485.17 2.15071 -5.50907 0
M  V30 27012 H 2484.1 0.414595 -0.629783 0
M  V30 27013 H 2486.75 0.361317 -1.79908 0
M  V30 27014 H 2485.13 2.78273 -2.81745 0
M  V30 27015 H 2486.31 0.529659 -4.57746 0
M  V30 27016 H 2484.62 0.635424 -4.11523 0
M  V30 27017 H 2487.22 3.41673 -4.11295 0
M  V30 27018 H 2487.56 3.40119 -2.40051 0
M  V30 27019 H 2488.09 2.03908 -3.41565 0
M  V30 27020 H 2484.83 1.54029 -6.37146 0
M  V30 27021 H 2484.35 2.85556 -5.27464 0
M  V30 27022 H 2486.03 2.74527 -5.8587 0
M  V30 27023 N 2486.16 1.44842 0.621179 0
M  V30 27024 C 2487.44 1.38622 1.37998 0
M  V30 27025 C 2487.82 0.0499306 2.11041 0
M  V30 27026 O 2487.17 -0.96778 2.06993 0
M  V30 27027 C 2487.38 2.591 2.33813 0
M  V30 27028 C 2488.73 3.03598 2.96839 0
M  V30 27029 O 2489.75 2.59376 2.44137 0
M  V30 27030 O 2488.61 3.80302 3.92469 0
M  V30 27031 H 2485.7 0.549437 0.618101 0
M  V30 27032 H 2488.25 1.56948 0.645402 0
M  V30 27033 H 2487.02 3.47955 1.79006 0
M  V30 27034 H 2486.65 2.43038 3.14672 0
M  V30 27035 N 2487.64 -0.862479 1.31905 0
M  V30 27036 C 2488.92 -1.59906 1.12647 0
M  V30 27037 C 2489.3 -2.0872 -0.316067 0
M  V30 27038 O 2488.65 -1.87121 -1.31142 0
M  V30 27039 C 2488.86 -2.75126 2.14724 0
M  V30 27040 C 2490.21 -3.44903 2.47644 0
M  V30 27041 O 2491.23 -2.85342 2.1321 0
M  V30 27042 O 2490.09 -4.52365 3.0664 0
M  V30 27043 H 2487.18 -0.703863 0.434172 0
M  V30 27044 H 2489.73 -0.907289 1.4341 0
M  V30 27045 H 2488.5 -2.36524 3.11724 0
M  V30 27046 H 2488.12 -3.51985 1.84911 0
M  V30 27047 N 2489.12 -1.14988 -1.07775 0
M  V30 27048 C 2490.05 -0.78628 -2.14226 0
M  V30 27049 C 2491.03 0.235319 -1.60888 0
M  V30 27050 O 2492.22 0.122876 -1.88099 0
M  V30 27051 C 2489.34 -0.168493 -3.38281 0
M  V30 27052 C 2488.39 -1.1613 -4.10385 0
M  V30 27053 S 2489.22 -2.70143 -4.62367 0
M  V30 27054 C 2490.38 -2.09772 -5.897 0
M  V30 27055 H 2490.61 -1.68791 -2.44738 0
M  V30 27056 H 2488.14 -0.971778 -1.19983 0
M  V30 27057 H 2490.1 0.181515 -4.10098 0
M  V30 27058 H 2488.76 0.710671 -3.05955 0
M  V30 27059 H 2487.96 -0.677174 -4.9943 0
M  V30 27060 H 2487.56 -1.45562 -3.44511 0
M  V30 27061 H 2489.85 -1.45713 -6.61645 0
M  V30 27062 H 2490.79 -2.96966 -6.42819 0
M  V30 27063 H 2491.2 -1.54248 -5.43017 0
M  V30 27064 N 2490.6 1.26049 -0.946007 0
M  V30 27065 C 2491.85 1.93526 -0.596153 0
M  V30 27066 C 2492.17 1.74181 0.865528 0
M  V30 27067 O 2491.43 1.07513 1.63522 0
M  V30 27068 C 2491.73 3.46127 -0.890536 0
M  V30 27069 C 2491.39 3.85618 -2.33687 0
M  V30 27070 C 2490.06 3.9611 -2.73223 0
M  V30 27071 C 2492.41 4.05329 -3.27655 0
M  V30 27072 C 2489.74 4.23713 -4.05813 0
M  V30 27073 C 2492.09 4.34422 -4.59849 0
M  V30 27074 C 2490.75 4.43129 -4.99193 0
M  V30 27075 H 2490.02 0.708161 -0.218148 0
M  V30 27076 H 2492.67 1.49765 -1.19342 0
M  V30 27077 H 2490.97 3.91233 -0.21078 0
M  V30 27078 H 2492.67 3.96508 -0.598548 0
M  V30 27079 H 2489.26 3.78002 -2.02022 0
M  V30 27080 H 2493.44 3.96646 -2.98305 0
M  V30 27081 H 2488.7 4.28667 -4.35952 0
M  V30 27082 H 2492.87 4.48619 -5.32648 0
M  V30 27083 H 2490.5 4.64271 -6.0196 0
M  V30 27084 N 2492.08 0.71358 1.4052 0
M  V30 27085 C 2493.02 0.0485636 2.32549 0
M  V30 27086 C 2494.02 -0.749193 1.51932 0
M  V30 27087 O 2495.22 -0.652787 1.67746 0
M  V30 27088 H 2491.6 -0.00309817 0.751994 0
M  V30 27089 H 2493.57 0.841494 2.86289 0
M  V30 27090 C 2492.32 -0.860628 3.36881 0
M  V30 27091 H 2491.64 -0.256176 3.98978 0
M  V30 27092 H 2493.08 -1.29393 4.03774 0
M  V30 27093 C 2491.54 -1.98516 2.72201 0
M  V30 27094 O 2492.07 -3.07579 2.58375 0
M  V30 27095 N 2490.28 -1.76819 2.30615 0
M  V30 27096 H 2489.82 -0.881175 2.4206 0
M  V30 27097 H 2489.78 -2.5224 1.87677 0
M  V30 27098 N 2493.55 -1.50749 0.459618 0
M  V30 27099 C 2494.8 -2.02256 -0.0993139 0
M  V30 27100 C 2495.13 -1.34239 -1.40748 0
M  V30 27101 O 2494.38 -0.453261 -1.90379 0
M  V30 27102 C 2494.68 -3.55752 -0.342803 0
M  V30 27103 C 2494.35 -4.42184 0.882257 0
M  V30 27104 C 2493.01 -4.65526 1.21816 0
M  V30 27105 C 2495.36 -4.92749 1.69846 0
M  V30 27106 C 2492.69 -5.36677 2.37054 0
M  V30 27107 C 2495.04 -5.65166 2.84202 0
M  V30 27108 C 2493.71 -5.86764 3.1822 0
M  V30 27109 H 2492.98 -0.740108 -0.0363415 0
M  V30 27110 H 2495.62 -1.81479 0.611361 0
M  V30 27111 H 2493.93 -3.74982 -1.13561 0
M  V30 27112 H 2495.63 -3.9316 -0.789052 0
M  V30 27113 H 2492.22 -4.24229 0.610542 0
M  V30 27114 H 2496.4 -4.74581 1.45213 0
M  V30 27115 H 2491.66 -5.51609 2.63699 0
M  V30 27116 H 2495.83 -6.03331 3.478 0
M  V30 27117 H 2493.46 -6.41675 4.07624 0
M  V30 27118 N 2495.03 -0.191784 -1.56429 0
M  V30 27119 C 2495.94 0.742442 -2.22542 0
M  V30 27120 C 2496.96 1.23725 -1.22345 0
M  V30 27121 O 2498.13 1.2851 -1.55071 0
M  V30 27122 C 2495.2 1.94617 -2.86923 0
M  V30 27123 C 2494.26 1.49626 -4.02381 0
M  V30 27124 C 2493.49 2.64261 -4.63683 0
M  V30 27125 O 2493.72 3.81659 -4.23902 0
M  V30 27126 O 2492.65 2.37164 -5.53206 0
M  V30 27127 H 2496.48 0.209409 -3.02977 0
M  V30 27128 H 2494.06 0.037357 -1.49353 0
M  V30 27129 H 2495.94 2.64976 -3.27667 0
M  V30 27130 H 2494.62 2.46787 -2.0947 0
M  V30 27131 H 2493.53 0.761571 -3.66266 0
M  V30 27132 H 2494.86 1.02126 -4.81488 0
M  V30 27133 N 2496.51 1.57387 0.0818378 0
M  V30 27134 C 2497.74 1.90972 0.796074 0
M  V30 27135 C 2498.15 0.786787 1.71625 0
M  V30 27136 O 2497.51 -0.240481 1.80909 0
M  V30 27137 C 2497.56 3.24251 1.59823 0
M  V30 27138 O 2497.28 4.32225 0.715056 0
M  V30 27139 C 2498.78 3.71785 2.41436 0
M  V30 27140 H 2496 0.631473 0.226899 0
M  V30 27141 H 2498.55 2.04426 0.055108 0
M  V30 27142 H 2496.7 3.12355 2.29157 0
M  V30 27143 H 2497.12 5.08843 1.27196 0
M  V30 27144 H 2498.59 4.67699 2.93192 0
M  V30 27145 H 2499.07 3.00289 3.20505 0
M  V30 27146 H 2499.67 3.86592 1.77276 0
M  V30 27147 N 2497.99 -0.35299 1.53596 0
M  V30 27148 C 2499.24 -1.09428 1.70387 0
M  V30 27149 C 2499.56 -1.8893 0.462146 0
M  V30 27150 O 2498.82 -1.87634 -0.556041 0
M  V30 27151 C 2499.12 -2.07049 2.91317 0
M  V30 27152 C 2498.78 -1.43931 4.27311 0
M  V30 27153 C 2497.45 -1.26446 4.6429 0
M  V30 27154 C 2499.8 -0.983793 5.11831 0
M  V30 27155 C 2497.13 -0.620123 5.83414 0
M  V30 27156 C 2499.48 -0.353405 6.31612 0
M  V30 27157 C 2498.14 -0.166154 6.67293 0
M  V30 27158 H 2497.41 -0.400425 0.623491 0
M  V30 27159 H 2500.06 -0.374622 1.878 0
M  V30 27160 H 2498.36 -2.85363 2.68468 0
M  V30 27161 H 2500.06 -2.64381 3.01502 0
M  V30 27162 H 2496.65 -1.58536 3.98201 0
M  V30 27163 H 2500.83 -1.10677 4.83802 0
M  V30 27164 H 2496.09 -0.463574 6.0964 0
M  V30 27165 H 2500.26 0.00769796 6.964 0
M  V30 27166 H 2497.89 0.335181 7.59461 0
M  V30 27167 N 2499.47 -1.45169 -0.613489 0
M  V30 27168 C 2500.72 -1.48583 -1.36994 0
M  V30 27169 C 2501.04 -0.126579 -1.94589 0
M  V30 27170 O 2500.31 0.843341 -1.76818 0
M  V30 27171 H 2498.89 -0.547163 -0.508549 0
M  V30 27172 H 2501.55 -1.81081 -0.720821 0
M  V30 27173 H 2500.64 -2.22131 -2.19236 0
M  V30 27174 N 2500.95 0.855472 -1.32361 0
M  V30 27175 C 2501.89 1.98538 -1.21183 0
M  V30 27176 C 2502.89 1.68997 -0.116818 0
M  V30 27177 O 2504.09 1.77814 -0.279688 0
M  V30 27178 H 2500.47 0.651471 -0.375619 0
M  V30 27179 H 2502.44 2.05094 -2.16747 0
M  V30 27180 C 2501.19 3.34444 -0.950908 0
M  V30 27181 H 2500.51 3.57705 -1.7857 0
M  V30 27182 H 2501.95 4.14055 -0.912936 0
M  V30 27183 C 2500.41 3.35115 0.346346 0
M  V30 27184 O 2500.94 3.78032 1.35848 0
M  V30 27185 N 2499.15 2.8826 0.368029 0
M  V30 27186 H 2498.69 2.53529 -0.456147 0
M  V30 27187 H 2498.65 2.89091 1.23586 0
M  V30 27188 N 2502.42 1.15558 1.07164 0
M  V30 27189 C 2503.65 0.95602 1.84052 0
M  V30 27190 C 2504.07 -0.490707 1.81587 0
M  V30 27191 O 2503.43 -1.34995 1.21021 0
M  V30 27192 C 2503.48 1.4772 3.28955 0
M  V30 27193 O 2502.58 0.677664 4.06794 0
M  V30 27194 H 2501.92 0.340857 0.569836 0
M  V30 27195 H 2504.45 1.53586 1.35175 0
M  V30 27196 H 2504.46 1.49086 3.79786 0
M  V30 27197 H 2503.14 2.53043 3.30064 0
M  V30 27198 H 2501.72 0.733786 3.65609 0
M  V30 27199 N 2503.9 -1.25546 0.952678 0
M  V30 27200 C 2504.83 -2.24384 0.415564 0
M  V30 27201 C 2505.81 -1.54656 -0.502019 0
M  V30 27202 O 2507 -1.83368 -0.436843 0
M  V30 27203 C 2504.12 -3.3631 -0.401675 0
M  V30 27204 C 2503.17 -4.24055 0.456023 0
M  V30 27205 S 2504 -5.01149 1.88707 0
M  V30 27206 C 2505.16 -6.16543 1.0782 0
M  V30 27207 H 2505.39 -2.69597 1.2532 0
M  V30 27208 H 2502.92 -1.34591 0.75661 0
M  V30 27209 H 2504.88 -4.01234 -0.867259 0
M  V30 27210 H 2503.54 -2.89686 -1.21411 0
M  V30 27211 H 2502.74 -5.03711 -0.170687 0
M  V30 27212 H 2502.34 -3.64055 0.856739 0
M  V30 27213 H 2504.63 -6.76716 0.325935 0
M  V30 27214 H 2505.57 -6.83544 1.84861 0
M  V30 27215 H 2505.98 -5.61203 0.609188 0
M  V30 27216 N 2505.38 -0.721022 -1.40139 0
M  V30 27217 C 2506.63 -0.259839 -2.00019 0
M  V30 27218 C 2506.94 1.15524 -1.57841 0
M  V30 27219 O 2508.15 1.71522 -2.10458 0
M  V30 27220 C 2506.6 -0.413629 -3.57515 0
M  V30 27221 C 2506.21 -1.83569 -4.08664 0
M  V30 27222 C 2507.96 -0.0135133 -4.24498 0
M  V30 27223 C 2505.86 -1.93978 -5.58683 0
M  V30 27224 H 2504.79 -0.0933938 -0.748194 0
M  V30 27225 H 2507.44 -0.892894 -1.60311 0
M  V30 27226 H 2505.83 0.288099 -3.94951 0
M  V30 27227 H 2507 -2.56824 -3.82594 0
M  V30 27228 H 2505.31 -2.18776 -3.54297 0
M  V30 27229 H 2507.91 -0.0704894 -5.34654 0
M  V30 27230 H 2508.25 1.0292 -4.03377 0
M  V30 27231 H 2508.79 -0.665884 -3.92187 0
M  V30 27232 H 2505.53 -2.9639 -5.84665 0
M  V30 27233 H 2505.05 -1.25142 -5.866 0
M  V30 27234 H 2506.73 -1.71442 -6.23872 0
M  V30 27235 N 2506.86 1.50503 -0.467606 0
M  V30 27236 C 2508.1 2.04213 0.0873755 0
M  V30 27237 C 2508.46 1.34213 1.37298 0
M  V30 27238 O 2509.66 1.78459 2.01012 0
M  V30 27239 C 2507.93 3.56375 0.270508 0
M  V30 27240 S 2509.49 4.31729 0.784547 0
M  V30 27241 H 2506.31 0.710782 0.0176028 0
M  V30 27242 H 2508.91 1.84936 -0.633947 0
M  V30 27243 H 2507.62 4.04877 -0.671013 0
M  V30 27244 H 2507.15 3.79999 1.01805 0
M  V30 27245 H 2509.16 4.51491 2.05841 0
M  V30 27246 N 2508.34 0.200077 1.56325 0
M  V30 27247 C 2509.27 -0.713877 2.2232 0
M  V30 27248 C 2510.25 -1.2175 1.1879 0
M  V30 27249 O 2511.43 -1.26543 1.47311 0
M  V30 27250 C 2508.56 -1.93139 2.88643 0
M  V30 27251 C 2507.52 -1.56248 3.9846 0
M  V30 27252 C 2506.84 -2.85701 4.51972 0
M  V30 27253 C 2508.14 -0.768656 5.16613 0
M  V30 27254 H 2509.84 -0.163702 2.98952 0
M  V30 27255 H 2507.38 -0.0772966 1.43792 0
M  V30 27256 H 2509.33 -2.57602 3.33495 0
M  V30 27257 H 2508.06 -2.50618 2.09424 0
M  V30 27258 H 2506.72 -0.941409 3.54306 0
M  V30 27259 H 2506.37 -3.4128 3.69509 0
M  V30 27260 H 2506.07 -2.61761 5.26075 0
M  V30 27261 H 2507.59 -3.51145 4.99529 0
M  V30 27262 H 2509 -1.3165 5.57979 0
M  V30 27263 H 2507.4 -0.627181 5.96814 0
M  V30 27264 H 2508.47 0.229253 4.84358 0
M  V30 27265 N 2509.81 -1.57429 -0.0734901 0
M  V30 27266 C 2511.06 -1.87167 -0.772966 0
M  V30 27267 C 2511.39 -0.791582 -1.77663 0
M  V30 27268 O 2510.64 0.212602 -1.94542 0
M  V30 27269 C 2510.94 -3.23564 -1.51793 0
M  V30 27270 C 2510.61 -4.46126 -0.654406 0
M  V30 27271 C 2509.27 -4.79395 -0.416427 0
M  V30 27272 C 2511.62 -5.2117 -0.0554946 0
M  V30 27273 C 2508.95 -5.85122 0.429972 0
M  V30 27274 C 2511.3 -6.27793 0.778349 0
M  V30 27275 C 2509.97 -6.59564 1.02622 0
M  V30 27276 H 2509.24 -0.684893 -0.282848 0
M  V30 27277 H 2511.88 -1.9147 -0.0337935 0
M  V30 27278 H 2510.19 -3.15044 -2.32926 0
M  V30 27279 H 2511.89 -3.43808 -2.06391 0
M  V30 27280 H 2508.48 -4.20087 -0.850017 0
M  V30 27281 H 2512.66 -4.95783 -0.226471 0
M  V30 27282 H 2507.92 -6.08138 0.630772 0
M  V30 27283 H 2512.09 -6.85105 1.24918 0
M  V30 27284 H 2509.72 -7.41317 1.68384 0
M  V30 27285 N 2511.29 0.344839 -1.53781 0
M  V30 27286 C 2512.22 1.44403 -1.7799 0
M  V30 27287 C 2513.24 1.4877 -0.661165 0
M  V30 27288 O 2514.43 1.51876 -0.937869 0
M  V30 27289 C 2511.53 2.83067 -1.8635 0
M  V30 27290 C 2510.7 3.02155 -3.16261 0
M  V30 27291 C 2509.76 4.21053 -3.15595 0
M  V30 27292 O 2508.78 4.15232 -3.89322 0
M  V30 27293 N 2509.99 5.29525 -2.37873 0
M  V30 27294 H 2512.75 1.24007 -2.72841 0
M  V30 27295 H 2510.31 0.53471 -1.52815 0
M  V30 27296 H 2512.3 3.6078 -1.83357 0
M  V30 27297 H 2510.87 2.96612 -0.98691 0
M  V30 27298 H 2510.09 2.11923 -3.32389 0
M  V30 27299 H 2511.38 3.1179 -4.02075 0
M  V30 27300 H 2510.78 5.37124 -1.77523 0
M  V30 27301 H 2509.34 6.05737 -2.40679 0
M  V30 27302 N 2512.77 1.45492 0.605781 0
M  V30 27303 C 2514.02 1.48876 1.36084 0
M  V30 27304 C 2514.33 0.135367 1.95131 0
M  V30 27305 O 2515.54 0.0468621 2.7146 0
M  V30 27306 C 2513.99 2.6222 2.46513 0
M  V30 27307 C 2513.6 4.03879 1.9387 0
M  V30 27308 C 2515.35 2.74851 3.23507 0
M  V30 27309 C 2513.25 5.08601 3.01792 0
M  V30 27310 H 2512.18 0.553983 0.511487 0
M  V30 27311 H 2514.83 1.71638 0.649059 0
M  V30 27312 H 2513.22 2.32745 3.20384 0
M  V30 27313 H 2514.39 4.4304 1.26696 0
M  V30 27314 H 2512.7 3.95713 1.29615 0
M  V30 27315 H 2515.3 3.5026 4.04007 0
M  V30 27316 H 2515.64 1.81549 3.74627 0
M  V30 27317 H 2516.18 3.0386 2.56737 0
M  V30 27318 H 2512.92 6.03619 2.55587 0
M  V30 27319 H 2512.44 4.74008 3.67527 0
M  V30 27320 H 2514.12 5.33431 3.66143 0
M  V30 27321 N 2514.25 -0.848441 1.32813 0
M  V30 27322 C 2515.48 -1.63536 1.26742 0
M  V30 27323 C 2515.89 -1.88091 -0.163451 0
M  V30 27324 O 2515.25 -1.45431 -1.10255 0
M  V30 27325 C 2515.3 -2.99108 2.03018 0
M  V30 27326 O 2515.02 -2.75637 3.40523 0
M  V30 27327 C 2516.52 -3.93549 2.04045 0
M  V30 27328 H 2513.74 -0.509159 0.437033 0
M  V30 27329 H 2516.29 -1.0575 1.75035 0
M  V30 27330 H 2514.44 -3.53522 1.58432 0
M  V30 27331 H 2514.85 -3.61901 3.79642 0
M  V30 27332 H 2516.33 -4.85922 2.61886 0
M  V30 27333 H 2516.81 -4.26993 1.02827 0
M  V30 27334 H 2517.41 -3.45072 2.48606 0
M  V30 27335 N 2515.73 -1.16125 -1.06549 0
M  V30 27336 C 2516.95 -0.96527 -1.83003 0
M  V30 27337 C 2517.37 0.48651 -1.82424 0
M  V30 27338 O 2516.73 1.33761 -1.24155 0
M  V30 27339 C 2516.78 -1.48189 -3.29731 0
M  V30 27340 O 2516.5 -2.8768 -3.30411 0
M  V30 27341 C 2518 -1.32855 -4.22924 0
M  V30 27342 H 2515.22 -0.342319 -0.577112 0
M  V30 27343 H 2517.76 -1.54091 -1.34447 0
M  V30 27344 H 2515.92 -0.948583 -3.75607 0
M  V30 27345 H 2516.33 -3.11279 -4.22144 0
M  V30 27346 H 2517.81 -1.73837 -5.23913 0
M  V30 27347 H 2518.28 -0.273769 -4.38346 0
M  V30 27348 H 2518.89 -1.85134 -3.82891 0
M  V30 27349 N 2517.2 1.25039 -0.959323 0
M  V30 27350 C 2518.43 1.97487 -0.633541 0
M  V30 27351 C 2518.85 1.70774 0.788525 0
M  V30 27352 O 2518.21 0.966458 1.53393 0
M  V30 27353 C 2518.26 3.49082 -0.904119 0
M  V30 27354 O 2517.36 4.12397 0.0147214 0
M  V30 27355 H 2516.71 0.618962 -0.240379 0
M  V30 27356 H 2519.24 1.59036 -1.28719 0
M  V30 27357 H 2519.25 3.99421 -0.832273 0
M  V30 27358 H 2517.92 3.67853 -1.94054 0
M  V30 27359 H 2516.5 3.72739 -0.10973 0
M  V30 27360 N 2518.68 0.728444 1.39755 0
M  V30 27361 C 2519.65 0.09277 2.29012 0
M  V30 27362 C 2520.65 -0.674 1.45993 0
M  V30 27363 O 2521.84 -0.50399 1.6675 0
M  V30 27364 C 2518.97 -0.878079 3.29397 0
M  V30 27365 H 2520.16 0.879061 2.86727 0
M  V30 27366 H 2517.71 0.493873 1.48292 0
M  V30 27367 H 2518.45 -1.69096 2.76725 0
M  V30 27368 H 2518.23 -0.330983 3.90701 0
M  V30 27369 H 2519.72 -1.31963 3.96201 0
M  V30 27370 N 2520.16 -1.50253 0.475581 0
M  V30 27371 C 2521.41 -2.01951 -0.0777025 0
M  V30 27372 C 2521.73 -1.35934 -1.39811 0
M  V30 27373 O 2521 -0.506156 -1.89248 0
M  V30 27374 H 2519.58 -0.746327 -0.0317059 0
M  V30 27375 H 2522.24 -1.84538 0.627028 0
M  V30 27376 H 2521.34 -3.11281 -0.225941 0
M  V30 27377 N 2521.64 -0.208365 -1.56217 0
M  V30 27378 C 2522.88 0.420825 -1.98999 0
M  V30 27379 C 2523.24 1.58316 -1.09334 0
M  V30 27380 O 2522.53 1.91084 -0.1405 0
M  V30 27381 C 2522.73 0.916736 -3.45443 0
M  V30 27382 C 2522.56 -0.196004 -4.49273 0
M  V30 27383 C 2521.33 -0.658044 -5.00997 0
M  V30 27384 C 2523.52 -1.00965 -5.04292 0
M  V30 27385 N 2521.51 -1.74722 -5.88511 0
M  V30 27386 C 2522.88 -1.94795 -5.88604 0
M  V30 27387 C 2524.93 -1.05058 -4.8669 0
M  V30 27388 C 2523.63 -2.92382 -6.57195 0
M  V30 27389 C 2525.66 -2.01455 -5.5603 0
M  V30 27390 C 2525.02 -2.94027 -6.40099 0
M  V30 27391 H 2521.12 0.121035 -0.772577 0
M  V30 27392 H 2523.71 -0.317109 -1.921 0
M  V30 27393 H 2521.88 1.62407 -3.52815 0
M  V30 27394 H 2523.61 1.51764 -3.75166 0
M  V30 27395 H 2520.36 -0.248995 -4.72945 0
M  V30 27396 H 2520.79 -2.29341 -6.36971 0
M  V30 27397 H 2525.43 -0.348833 -4.21359 0
M  V30 27398 H 2523.15 -3.63525 -7.21717 0
M  V30 27399 H 2526.73 -2.05279 -5.44382 0
M  V30 27400 H 2525.61 -3.67403 -6.92809 0
M  V30 27401 N 2523.12 1.57465 0.0651402 0
M  V30 27402 C 2524.39 1.78652 0.796408 0
M  V30 27403 C 2524.77 0.7976 1.95452 0
M  V30 27404 O 2524.12 -0.167906 2.27882 0
M  V30 27405 C 2524.33 3.25339 1.26316 0
M  V30 27406 C 2525.68 3.89351 1.69384 0
M  V30 27407 O 2526.7 3.2927 1.35866 0
M  V30 27408 O 2525.56 4.95063 2.31462 0
M  V30 27409 H 2522.66 0.733413 0.382144 0
M  V30 27410 H 2525.2 1.69641 0.0447013 0
M  V30 27411 H 2523.97 3.88877 0.434791 0
M  V30 27412 H 2523.6 3.391 2.07598 0
M  V30 27413 N 2524.59 -0.336679 1.53962 0
M  V30 27414 C 2525.84 -1.07402 1.71199 0
M  V30 27415 C 2526.16 -1.88962 0.481509 0
M  V30 27416 O 2525.43 -1.89291 -0.504552 0
M  V30 27417 H 2524.01 -0.399506 0.631192 0
M  V30 27418 H 2526.68 -0.37629 1.91233 0
M  V30 27419 H 2525.77 -1.74751 2.5859 0
M  V30 27420 N 2526.07 -1.45812 -0.598057 0
M  V30 27421 C 2527 -1.5806 -1.7187 0
M  V30 27422 C 2527.98 -0.431644 -1.64532 0
M  V30 27423 O 2529.17 -0.655982 -1.82785 0
M  V30 27424 C 2526.3 -1.55602 -3.10492 0
M  V30 27425 C 2525.25 -2.69311 -3.32649 0
M  V30 27426 C 2524.58 -2.5191 -4.71641 0
M  V30 27427 C 2525.88 -4.11254 -3.21974 0
M  V30 27428 H 2527.57 -2.51866 -1.61876 0
M  V30 27429 H 2525.12 -1.21216 -0.777351 0
M  V30 27430 H 2527.07 -1.62767 -3.88697 0
M  V30 27431 H 2525.8 -0.583311 -3.21349 0
M  V30 27432 H 2524.45 -2.61591 -2.56838 0
M  V30 27433 H 2524.1 -1.52757 -4.79244 0
M  V30 27434 H 2523.8 -3.28169 -4.87421 0
M  V30 27435 H 2525.33 -2.60943 -5.52034 0
M  V30 27436 H 2526.74 -4.20168 -3.90041 0
M  V30 27437 H 2525.14 -4.87979 -3.49281 0
M  V30 27438 H 2526.21 -4.3249 -2.19272 0
M  V30 27439 N 2527.55 0.841385 -1.33261 0
M  V30 27440 C 2528.48 1.96632 -1.2593 0
M  V30 27441 C 2529.46 1.6952 -0.140378 0
M  V30 27442 O 2530.65 1.9138 -0.32974 0
M  V30 27443 C 2527.78 3.32736 -0.995178 0
M  V30 27444 C 2526.73 3.74239 -2.07676 0
M  V30 27445 C 2526.06 5.08122 -1.66483 0
M  V30 27446 C 2527.36 3.8829 -3.49325 0
M  V30 27447 H 2529.05 2.03023 -2.2005 0
M  V30 27448 H 2526.6 0.975406 -1.05933 0
M  V30 27449 H 2528.55 4.11001 -0.930395 0
M  V30 27450 H 2527.27 3.26595 -0.0183578 0
M  V30 27451 H 2525.93 2.98236 -2.13193 0
M  V30 27452 H 2525.58 4.98449 -0.6751 0
M  V30 27453 H 2525.28 5.36861 -2.3886 0
M  V30 27454 H 2526.8 5.88864 -1.61466 0
M  V30 27455 H 2528.22 4.56873 -3.46324 0
M  V30 27456 H 2526.62 4.28463 -4.20166 0
M  V30 27457 H 2527.69 2.90814 -3.88015 0
M  V30 27458 N 2529.03 1.16688 1.05932 0
M  V30 27459 C 2529.96 0.899986 2.15459 0
M  V30 27460 C 2530.94 -0.155124 1.69391 0
M  V30 27461 O 2532.13 -0.00645279 1.94199 0
M  V30 27462 C 2529.26 0.404301 3.44939 0
M  V30 27463 C 2528.21 1.39774 4.04533 0
M  V30 27464 C 2527.54 0.760309 5.29267 0
M  V30 27465 C 2528.84 2.76853 4.42888 0
M  V30 27466 H 2530.53 1.81592 2.38043 0
M  V30 27467 H 2528.08 0.874534 1.14402 0
M  V30 27468 H 2530.03 0.205045 4.20901 0
M  V30 27469 H 2528.75 -0.54715 3.21984 0
M  V30 27470 H 2527.41 1.58361 3.30632 0
M  V30 27471 H 2527.06 -0.197743 5.02611 0
M  V30 27472 H 2526.76 1.42342 5.70099 0
M  V30 27473 H 2528.28 0.571157 6.07923 0
M  V30 27474 H 2529.7 2.62028 5.09916 0
M  V30 27475 H 2528.09 3.39672 4.94715 0
M  V30 27476 H 2529.16 3.31829 3.53578 0
M  V30 27477 N 2530.51 -1.24529 0.96594 0
M  V30 27478 C 2531.92 -1.74419 0.66596 0
M  V30 27479 C 2532.27 -1.78317 -0.818376 0
M  V30 27480 O 2531.39 -1.41144 -1.64035 0
M  V30 27481 C 2531.99 -3.16754 1.20217 0
M  V30 27482 C 2530.55 -3.64159 0.952123 0
M  V30 27483 C 2529.7 -2.42856 1.33852 0
M  V30 27484 H 2532.65 -1.10256 1.14146 0
M  V30 27485 H 2532.67 -3.76243 0.56761 0
M  V30 27486 H 2532.18 -3.13885 2.2825 0
M  V30 27487 H 2530.28 -3.72429 -0.112756 0
M  V30 27488 H 2530.39 -4.51716 1.59653 0
M  V30 27489 H 2528.76 -2.43193 0.756907 0
M  V30 27490 H 2529.54 -2.42668 2.42831 0
M  V30 27491 N 2531.99 -0.735845 -1.39367 0
M  V30 27492 C 2533.23 -0.281039 -1.99732 0
M  V30 27493 C 2533.55 1.13843 -1.59057 0
M  V30 27494 O 2534.75 1.6928 -2.12265 0
M  V30 27495 C 2533.21 -0.451525 -3.57056 0
M  V30 27496 C 2532.82 -1.87893 -4.06694 0
M  V30 27497 C 2534.56 -0.0585362 -4.2446 0
M  V30 27498 C 2532.47 -1.99893 -5.56594 0
M  V30 27499 H 2531.4 -0.101324 -0.747161 0
M  V30 27500 H 2534.05 -0.909847 -1.59355 0
M  V30 27501 H 2532.43 0.246193 -3.95234 0
M  V30 27502 H 2533.61 -2.60868 -3.79848 0
M  V30 27503 H 2531.92 -2.22521 -3.51956 0
M  V30 27504 H 2534.52 -0.127193 -5.34549 0
M  V30 27505 H 2534.86 0.986362 -4.04446 0
M  V30 27506 H 2535.39 -0.707443 -3.91459 0
M  V30 27507 H 2532.13 -3.02574 -5.81489 0
M  V30 27508 H 2531.65 -1.31356 -5.8524 0
M  V30 27509 H 2533.33 -1.7805 -6.22019 0
M  V30 27510 N 2533.46 1.49999 -0.483543 0
M  V30 27511 C 2534.39 2.31644 0.293788 0
M  V30 27512 C 2535.37 1.39114 0.97884 0
M  V30 27513 O 2536.56 1.68031 0.973614 0
M  V30 27514 C 2533.69 3.19183 1.36892 0
M  V30 27515 C 2532.64 4.20366 0.804759 0
M  V30 27516 C 2531.97 4.96725 1.97911 0
M  V30 27517 C 2533.27 5.21945 -0.192404 0
M  V30 27518 H 2534.96 2.9688 -0.387668 0
M  V30 27519 H 2532.51 1.42769 -0.187881 0
M  V30 27520 H 2534.46 3.75103 1.9203 0
M  V30 27521 H 2533.19 2.51857 2.07932 0
M  V30 27522 H 2531.85 3.65565 0.275254 0
M  V30 27523 H 2531.49 4.25861 2.67678 0
M  V30 27524 H 2531.19 5.65176 1.60779 0
M  V30 27525 H 2532.72 5.55483 2.53516 0
M  V30 27526 H 2534.13 5.72663 0.270232 0
M  V30 27527 H 2532.53 5.98188 -0.478648 0
M  V30 27528 H 2533.6 4.71926 -1.11418 0
M  V30 27529 N 2534.94 0.216646 1.56104 0
M  V30 27530 C 2535.89 -0.711997 2.21435 0
M  V30 27531 C 2536.88 -1.20345 1.1922 0
M  V30 27532 O 2538.09 -1.16385 1.37312 0
M  V30 27533 H 2534.46 -0.248014 0.709925 0
M  V30 27534 H 2536.44 -0.137506 2.98083 0
M  V30 27535 C 2535.18 -1.91158 2.90438 0
M  V30 27536 H 2534.51 -1.54251 3.68845 0
M  V30 27537 H 2535.95 -2.53924 3.39557 0
M  V30 27538 C 2534.41 -2.7639 1.9264 0
M  V30 27539 O 2534.94 -3.74993 1.44024 0
M  V30 27540 N 2533.14 -2.42325 1.60396 0
M  V30 27541 H 2532.69 -1.62197 2.00125 0
M  V30 27542 H 2532.65 -2.99634 0.952212 0
M  V30 27543 N 2536.42 -1.57498 -0.0567885 0
M  V30 27544 C 2537.84 -1.54193 -0.411906 0
M  V30 27545 C 2538.04 -0.938973 -1.78285 0
M  V30 27546 O 2537.09 -0.547962 -2.46483 0
M  V30 27547 C 2538.4 -2.98781 -0.339191 0
M  V30 27548 C 2539.95 -3.10192 -0.418294 0
M  V30 27549 C 2540.43 -4.5646 -0.375327 0
M  V30 27550 N 2541.92 -4.61153 -0.434957 0
M  V30 27551 C 2542.65 -5.71829 -0.424164 0
M  V30 27552 N 2542.15 -6.91826 -0.367297 0
M  V30 27553 N 2543.94 -5.60116 -0.471839 0
M  V30 27554 H 2536.09 -1.95053 0.840718 0
M  V30 27555 H 2538.36 -0.893428 0.317003 0
M  V30 27556 H 2538.06 -3.46513 0.601803 0
M  V30 27557 H 2537.94 -3.59445 -1.14364 0
M  V30 27558 H 2540.32 -2.62425 -1.34971 0
M  V30 27559 H 2540.4 -2.52411 0.415006 0
M  V30 27560 H 2540.05 -5.04888 0.552308 0
M  V30 27561 H 2539.98 -5.12121 -1.22636 0
M  V30 27562 H 2542.47 -3.74806 -0.482546 0
M  V30 27563 H 2542.78 -7.71945 -0.3634 0
M  V30 27564 H 2541.13 -6.94198 -0.333757 0
M  V30 27565 H 2544.32 -4.65269 -0.514064 0
M  V30 27566 H 2544.49 -6.46366 -0.459959 0
M  V30 27567 N 2537.9 0.328509 -1.54138 0
M  V30 27568 C 2539.31 0.903244 -1.63396 0
M  V30 27569 C 2539.66 1.89049 -0.524861 0
M  V30 27570 O 2538.78 2.13664 0.343031 0
M  V30 27571 C 2539.38 1.64502 -2.96183 0
M  V30 27572 C 2537.94 2.16855 -3.07654 0
M  V30 27573 C 2537.09 0.992371 -2.58935 0
M  V30 27574 H 2540.04 0.106225 -1.58344 0
M  V30 27575 H 2540.06 2.50892 -2.86066 0
M  V30 27576 H 2539.57 0.926236 -3.76885 0
M  V30 27577 H 2537.67 2.91864 -2.31616 0
M  V30 27578 H 2537.78 2.42195 -4.13375 0
M  V30 27579 H 2536.15 1.37012 -2.14709 0
M  V30 27580 H 2536.93 0.287981 -3.4209 0
M  V30 27581 N 2539.38 1.46127 0.590316 0
M  V30 27582 C 2540.79 1.45299 1.1724 0
M  V30 27583 C 2541.14 0.189758 1.9528 0
M  V30 27584 O 2540.26 -0.707638 2.04503 0
M  V30 27585 C 2540.86 2.63244 2.1328 0
M  V30 27586 C 2539.42 2.65481 2.66828 0
M  V30 27587 C 2538.56 2.37853 1.42553 0
M  V30 27588 H 2541.51 1.54116 0.378665 0
M  V30 27589 H 2541.54 2.38328 2.96614 0
M  V30 27590 H 2541.05 3.55168 1.56453 0
M  V30 27591 H 2539.15 1.77609 3.27545 0
M  V30 27592 H 2539.26 3.65221 3.10082 0
M  V30 27593 H 2537.63 1.87756 1.72104 0
M  V30 27594 H 2538.41 3.31944 0.875683 0
M  V30 27595 N 2540.85 -0.834306 1.33705 0
M  V30 27596 C 2542.13 -1.57481 1.16014 0
M  V30 27597 C 2542.51 -2.09344 -0.271723 0
M  V30 27598 O 2541.86 -1.8986 -1.27143 0
M  V30 27599 C 2542.07 -2.7051 2.20512 0
M  V30 27600 C 2543.42 -3.39572 2.54904 0
M  V30 27601 O 2544.44 -2.80755 2.19214 0
M  V30 27602 O 2543.3 -4.45759 3.16166 0
M  V30 27603 H 2540.39 -0.694495 0.449004 0
M  V30 27604 H 2542.94 -0.876666 1.45302 0
M  V30 27605 H 2541.71 -2.29859 3.16671 0
M  V30 27606 H 2541.33 -3.47984 1.92335 0
M  V30 27607 N 2542.33 -1.17248 -1.05312 0
M  V30 27608 C 2543.57 -0.97093 -1.79867 0
M  V30 27609 C 2543.94 0.491775 -1.85595 0
M  V30 27610 O 2545.14 0.812364 -2.56231 0
M  V30 27611 C 2543.41 -1.59301 -3.19934 0
M  V30 27612 S 2544.97 -1.53748 -4.10983 0
M  V30 27613 H 2541.78 -0.348942 -0.619484 0
M  V30 27614 H 2544.39 -1.49171 -1.26365 0
M  V30 27615 H 2543.09 -2.65008 -3.13367 0
M  V30 27616 H 2542.62 -1.07198 -3.78513 0
M  V30 27617 H 2544.64 -0.544624 -4.93202 0
M  V30 27618 N 2543.81 1.24015 -0.972531 0
M  V30 27619 C 2545.04 1.96804 -0.654452 0
M  V30 27620 C 2545.46 1.71601 0.770368 0
M  V30 27621 O 2544.82 0.982673 1.52359 0
M  V30 27622 C 2544.87 3.48103 -0.941092 0
M  V30 27623 O 2543.97 4.1239 -0.0290197 0
M  V30 27624 H 2543.31 0.616378 -0.24693 0
M  V30 27625 H 2545.84 1.57662 -1.30399 0
M  V30 27626 H 2545.85 3.98516 -0.87459 0
M  V30 27627 H 2544.53 3.65774 -1.97945 0
M  V30 27628 H 2543.1 3.72601 -0.149257 0
M  V30 27629 N 2545.29 0.743226 1.38974 0
M  V30 27630 C 2546.22 0.123914 2.33171 0
M  V30 27631 C 2547.2 -0.715132 1.54337 0
M  V30 27632 O 2548.38 -0.658435 1.82697 0
M  V30 27633 C 2545.51 -0.777918 3.38476 0
M  V30 27634 C 2544.47 -0.0424006 4.27979 0
M  V30 27635 C 2543.79 -1.0618 5.24051 0
M  V30 27636 C 2545.09 1.11989 5.10153 0
M  V30 27637 H 2546.79 0.91076 2.85211 0
M  V30 27638 H 2544.33 0.439412 1.37132 0
M  V30 27639 H 2546.29 -1.22077 4.0333 0
M  V30 27640 H 2545.01 -1.59697 2.84894 0
M  V30 27641 H 2543.67 0.380917 3.64616 0
M  V30 27642 H 2543.32 -1.87463 4.66762 0
M  V30 27643 H 2543.02 -0.574382 5.84786 0
M  V30 27644 H 2544.54 -1.50418 5.91783 0
M  V30 27645 H 2545.96 0.75509 5.68306 0
M  V30 27646 H 2544.35 1.53748 5.8007 0
M  V30 27647 H 2545.42 1.93772 4.445 0
M  V30 27648 N 2546.77 -1.4974 0.491491 0
M  V30 27649 C 2548.04 -1.95238 -0.11895 0
M  V30 27650 C 2548.42 -1.43267 -1.55042 0
M  V30 27651 O 2547.77 -0.642326 -2.19286 0
M  V30 27652 C 2547.98 -3.48975 -0.0413573 0
M  V30 27653 C 2549.33 -4.24029 -0.220059 0
M  V30 27654 O 2550.35 -3.56008 -0.116992 0
M  V30 27655 O 2549.21 -5.44802 -0.430472 0
M  V30 27656 H 2546.31 -0.820868 -0.100521 0
M  V30 27657 H 2548.85 -1.60425 0.553351 0
M  V30 27658 H 2547.62 -3.7941 0.95728 0
M  V30 27659 H 2547.25 -3.90381 -0.754223 0
M  V30 27660 N 2548.24 -0.224922 -1.55987 0
M  V30 27661 C 2549.19 0.683812 -2.20437 0
M  V30 27662 C 2550.16 1.18781 -1.16104 0
M  V30 27663 O 2551.35 1.24629 -1.44472 0
M  V30 27664 C 2548.49 1.88486 -2.8908 0
M  V30 27665 C 2547.6 1.41944 -4.08014 0
M  V30 27666 C 2546.73 2.57832 -4.64431 0
M  V30 27667 C 2545.77 2.08043 -5.7566 0
M  V30 27668 N 2544.91 3.17216 -6.26353 0
M  V30 27669 H 2549.75 0.127488 -2.97727 0
M  V30 27670 H 2547.29 0.0511719 -1.47011 0
M  V30 27671 H 2549.25 2.59008 -3.27064 0
M  V30 27672 H 2547.88 2.41401 -2.14302 0
M  V30 27673 H 2546.93 0.609029 -3.75493 0
M  V30 27674 H 2548.24 1.01439 -4.88377 0
M  V30 27675 H 2547.39 3.36431 -5.04875 0
M  V30 27676 H 2546.13 3.01628 -3.83239 0
M  V30 27677 H 2545.14 1.27907 -5.34715 0
M  V30 27678 H 2546.36 1.65243 -6.58689 0
M  V30 27679 H 2544.31 3.60488 -5.48074 0
M  V30 27680 H 2544.23 2.80973 -7.01848 0
M  V30 27681 H 2545.49 3.95941 -6.71454 0
M  V30 27682 N 2549.72 1.57526 0.0484352 0
M  V30 27683 C 2550.63 2.08656 1.07237 0
M  V30 27684 C 2551.65 1.02097 1.40898 0
M  V30 27685 O 2552.82 1.33715 1.50606 0
M  V30 27686 C 2549.89 2.53975 2.36004 0
M  V30 27687 C 2548.95 3.74933 2.09101 0
M  V30 27688 C 2548.18 4.18081 3.31729 0
M  V30 27689 O 2548.41 3.60903 4.41708 0
M  V30 27690 O 2547.34 5.10685 3.18567 0
M  V30 27691 H 2551.17 2.96264 0.667913 0
M  V30 27692 H 2548.75 1.47046 0.264144 0
M  V30 27693 H 2550.63 2.8354 3.11742 0
M  V30 27694 H 2549.31 1.69486 2.75783 0
M  V30 27695 H 2548.22 3.50416 1.30993 0
M  V30 27696 H 2549.55 4.60346 1.7419 0
M  V30 27697 N 2551.2 -0.32033 1.5431 0
M  V30 27698 C 2552.15 -1.39553 1.80302 0
M  V30 27699 C 2553.13 -1.46777 0.659192 0
M  V30 27700 O 2554.33 -1.51255 0.919287 0
M  V30 27701 C 2551.46 -2.76358 2.0367 0
M  V30 27702 C 2550.54 -2.73434 3.24183 0
M  V30 27703 N 2550.93 -2.40129 4.45165 0
M  V30 27704 C 2549.23 -3.04559 3.25822 0
M  V30 27705 C 2549.93 -2.46021 5.27113 0
M  V30 27706 N 2548.91 -2.82593 4.64373 0
M  V30 27707 H 2552.71 -1.12737 2.71418 0
M  V30 27708 H 2550.22 -0.528829 1.53549 0
M  V30 27709 H 2552.22 -3.53858 2.20431 0
M  V30 27710 H 2550.88 -3.04101 1.1381 0
M  V30 27711 H 2551.89 -2.12919 4.72108 0
M  V30 27712 H 2548.57 -3.37323 2.46007 0
M  V30 27713 H 2549.96 -2.23235 6.33732 0
M  V30 27714 N 2552.68 -1.46438 -0.582558 0
M  V30 27715 C 2554.09 -1.45918 -1.16468 0
M  V30 27716 C 2554.44 -0.200111 -1.95177 0
M  V30 27717 O 2553.57 0.696783 -2.04875 0
M  V30 27718 C 2554.16 -2.64371 -2.11881 0
M  V30 27719 C 2552.72 -2.66892 -2.65416 0
M  V30 27720 C 2551.87 -2.38605 -1.4129 0
M  V30 27721 H 2554.82 -1.54315 -0.370487 0
M  V30 27722 H 2554.84 -2.39898 -2.95346 0
M  V30 27723 H 2554.35 -3.55993 -1.54567 0
M  V30 27724 H 2552.45 -1.79343 -3.26599 0
M  V30 27725 H 2552.56 -3.6686 -3.08141 0
M  V30 27726 H 2550.93 -1.88666 -1.71105 0
M  V30 27727 H 2551.71 -3.32404 -0.858067 0
M  V30 27728 N 2554.16 0.827204 -1.34146 0
M  V30 27729 C 2555.4 1.58004 -1.26012 0
M  V30 27730 C 2555.73 1.94249 0.170937 0
M  V30 27731 O 2555 1.61929 1.10253 0
M  V30 27732 H 2553.58 0.585873 -0.463424 0
M  V30 27733 H 2556.24 0.987922 -1.68006 0
M  V30 27734 H 2555.33 2.50478 -1.86191 0
M  V30 27735 N 2555.63 1.17805 1.04688 0
M  V30 27736 C 2556.86 0.994845 1.81982 0
M  V30 27737 C 2557.28 -0.45208 1.82587 0
M  V30 27738 O 2556.64 -1.32398 1.23857 0
M  V30 27739 C 2556.69 1.54664 3.25747 0
M  V30 27740 O 2555.79 0.763799 4.05265 0
M  V30 27741 H 2555.14 0.352867 0.562477 0
M  V30 27742 H 2557.67 1.56419 1.31887 0
M  V30 27743 H 2557.68 1.57109 3.76538 0
M  V30 27744 H 2556.35 2.59987 3.24622 0
M  V30 27745 H 2554.93 0.811172 3.6397 0
M  V30 27746 N 2557.11 -1.23497 0.979094 0
M  V30 27747 C 2558.36 -1.91498 0.645974 0
M  V30 27748 C 2558.68 -1.76785 -0.822917 0
M  V30 27749 O 2557.95 -1.14642 -1.58852 0
M  V30 27750 H 2556.53 -0.708763 0.235931 0
M  V30 27751 H 2559.19 -1.50149 1.24262 0
M  V30 27752 H 2558.29 -2.98948 0.896464 0
M  V30 27753 N 2558.59 -0.750586 -1.38578 0
M  V30 27754 C 2559.84 -0.305408 -2.00184 0
M  V30 27755 C 2560.17 1.112 -1.59577 0
M  V30 27756 O 2559.42 1.77541 -0.823267 0
M  V30 27757 C 2559.72 -0.372435 -3.55454 0
M  V30 27758 C 2559.39 -1.74507 -4.15762 0
M  V30 27759 C 2558.05 -2.12073 -4.31947 0
M  V30 27760 C 2560.4 -2.64561 -4.49062 0
M  V30 27761 C 2557.73 -3.3917 -4.78728 0
M  V30 27762 C 2560.08 -3.91046 -4.97258 0
M  V30 27763 C 2558.74 -4.28685 -5.1165 0
M  V30 27764 H 2558.01 -0.111757 -0.732524 0
M  V30 27765 H 2560.66 -0.96048 -1.65671 0
M  V30 27766 H 2558.97 0.366203 -3.90085 0
M  V30 27767 H 2560.66 -0.00960966 -4.00999 0
M  V30 27768 H 2557.25 -1.44304 -4.03577 0
M  V30 27769 H 2561.44 -2.36804 -4.36162 0
M  V30 27770 H 2556.69 -3.68255 -4.88056 0
M  V30 27771 H 2560.87 -4.60971 -5.21995 0
M  V30 27772 H 2558.49 -5.27232 -5.47659 0
M  V30 27773 N 2560.07 1.49477 -0.499425 0
M  V30 27774 C 2561.02 2.29097 0.279841 0
M  V30 27775 C 2561.99 1.35422 0.961781 0
M  V30 27776 O 2563.17 1.64377 0.968748 0
M  V30 27777 C 2560.31 3.18053 1.33926 0
M  V30 27778 C 2559.42 4.26784 0.669258 0
M  V30 27779 C 2558.56 5.02958 1.70899 0
M  V30 27780 C 2557.6 6.03529 1.02077 0
M  V30 27781 N 2556.74 6.72874 2.00462 0
M  V30 27782 H 2561.58 2.9523 -0.405369 0
M  V30 27783 H 2559.11 1.45568 -0.211752 0
M  V30 27784 H 2561.07 3.68002 1.96547 0
M  V30 27785 H 2559.7 2.53908 1.99326 0
M  V30 27786 H 2558.75 3.80335 -0.0701903 0
M  V30 27787 H 2560.06 4.98637 0.127416 0
M  V30 27788 H 2559.22 5.56768 2.41028 0
M  V30 27789 H 2557.96 4.30875 2.28468 0
M  V30 27790 H 2556.96 5.48952 0.305242 0
M  V30 27791 H 2558.19 6.77597 0.451589 0
M  V30 27792 H 2556.13 6.03563 2.56997 0
M  V30 27793 H 2556.05 7.40697 1.5134 0
M  V30 27794 H 2557.32 7.31288 2.69885 0
M  V30 27795 N 2561.55 0.233191 1.55865 0
M  V30 27796 C 2562.8 -0.394558 1.98211 0
M  V30 27797 C 2563.12 -1.59461 1.12237 0
M  V30 27798 O 2562.39 -1.94856 0.202016 0
M  V30 27799 H 2560.97 -0.148765 0.732037 0
M  V30 27800 H 2563.63 0.328793 1.92107 0
M  V30 27801 H 2562.72 -0.71301 3.03846 0
M  V30 27802 N 2563.03 -1.57549 -0.0400806 0
M  V30 27803 C 2564.3 -1.79897 -0.767886 0
M  V30 27804 C 2564.68 -0.828594 -1.94159 0
M  V30 27805 O 2564.03 0.131631 -2.28121 0
M  V30 27806 C 2564.24 -3.27307 -1.21124 0
M  V30 27807 C 2565.59 -3.91997 -1.63168 0
M  V30 27808 O 2566.61 -3.3139 -1.3061 0
M  V30 27809 O 2565.47 -4.98683 -2.23557 0
M  V30 27810 H 2562.57 -0.7394 -0.370428 0
M  V30 27811 H 2565.11 -1.69691 -0.0177072 0
M  V30 27812 H 2563.88 -3.89519 -0.372869 0
M  V30 27813 H 2563.51 -3.4236 -2.02177 0
M  V30 27814 N 2564.5 0.312142 -1.54478 0
M  V30 27815 C 2565.74 1.05681 -1.7496 0
M  V30 27816 C 2566.11 1.84868 -0.518446 0
M  V30 27817 O 2567.31 2.62 -0.600805 0
M  V30 27818 C 2565.58 1.9478 -2.99659 0
M  V30 27819 S 2567.14 2.76043 -3.41095 0
M  V30 27820 H 2563.96 0.356595 -0.61511 0
M  V30 27821 H 2566.56 0.33148 -1.92669 0
M  V30 27822 H 2565.26 1.35461 -3.874 0
M  V30 27823 H 2564.79 2.71699 -2.84505 0
M  V30 27824 H 2566.81 3.97282 -2.9729 0
M  V30 27825 N 2565.98 1.46745 0.574784 0
M  V30 27826 C 2567.23 1.52163 1.33006 0
M  V30 27827 C 2567.55 0.178126 1.94185 0
M  V30 27828 O 2566.82 -0.796165 1.78992 0
M  V30 27829 H 2565.4 0.560454 0.493863 0
M  V30 27830 H 2568.06 1.82928 0.672557 0
M  V30 27831 H 2567.16 2.27866 2.13269 0
M  V30 27832 N 2567.46 -0.820078 1.34583 0
M  V30 27833 C 2568.41 -1.95255 1.26404 0
M  V30 27834 C 2569.4 -1.68628 0.161583 0
M  V30 27835 O 2570.61 -1.7701 0.326734 0
M  V30 27836 H 2566.98 -0.641283 0.39276 0
M  V30 27837 H 2568.95 -1.99275 2.22108 0
M  V30 27838 C 2567.7 -3.31806 1.03925 0
M  V30 27839 H 2567.03 -3.52845 1.87991 0
M  V30 27840 H 2568.47 -4.11489 1.02239 0
M  V30 27841 C 2566.92 -3.35915 -0.257374 0
M  V30 27842 O 2567.45 -3.81501 -1.25778 0
M  V30 27843 N 2565.66 -2.89135 -0.291473 0
M  V30 27844 H 2565.21 -2.52231 0.523205 0
M  V30 27845 H 2565.17 -2.92266 -1.15878 0
M  V30 27846 N 2568.94 -1.18359 -1.04062 0
M  V30 27847 C 2570.35 -0.983148 -1.58717 0
M  V30 27848 C 2570.7 0.46716 -1.90557 0
M  V30 27849 O 2569.82 1.34451 -1.69564 0
M  V30 27850 C 2570.42 -1.77833 -2.88376 0
M  V30 27851 C 2568.98 -1.62224 -3.39647 0
M  V30 27852 C 2568.13 -1.77278 -2.13232 0
M  V30 27853 H 2571.08 -1.32902 -0.867335 0
M  V30 27854 H 2571.1 -1.26744 -3.58771 0
M  V30 27855 H 2570.61 -2.83383 -2.65171 0
M  V30 27856 H 2568.71 -0.592101 -3.67865 0
M  V30 27857 H 2568.82 -2.4203 -4.13471 0
M  V30 27858 H 2567.19 -1.20225 -2.2454 0
M  V30 27859 H 2567.97 -2.84263 -1.92482 0
M  V30 27860 N 2570.42 1.22976 -0.98563 0
M  V30 27861 C 2571.64 1.96098 -0.675289 0
M  V30 27862 C 2572.07 1.72409 0.752124 0
M  V30 27863 O 2571.42 0.998778 1.51308 0
M  V30 27864 C 2571.47 3.47085 -0.97796 0
M  V30 27865 O 2570.58 4.12336 -0.0727575 0
M  V30 27866 H 2569.92 0.613724 -0.253454 0
M  V30 27867 H 2572.45 1.5627 -1.32064 0
M  V30 27868 H 2572.46 3.97566 -0.916809 0
M  V30 27869 H 2571.13 3.63654 -2.01813 0
M  V30 27870 H 2569.71 3.72422 -0.188768 0
M  V30 27871 N 2571.89 0.757924 1.38178 0
M  V30 27872 C 2573.14 0.316488 2.00315 0
M  V30 27873 C 2573.47 -1.10022 1.60028 0
M  V30 27874 O 2572.75 -1.75432 0.839866 0
M  V30 27875 C 2573.03 0.444307 3.57348 0
M  V30 27876 C 2572.88 1.90243 4.07587 0
M  V30 27877 C 2574.2 -0.159723 4.3981 0
M  V30 27878 H 2571.32 0.116471 0.727739 0
M  V30 27879 H 2573.96 0.958381 1.64058 0
M  V30 27880 H 2572.11 -0.102165 3.88366 0
M  V30 27881 H 2573.79 2.50755 3.87195 0
M  V30 27882 H 2572.03 2.41602 3.60293 0
M  V30 27883 H 2572.7 1.943 5.16673 0
M  V30 27884 H 2575.18 0.306387 4.1497 0
M  V30 27885 H 2574.05 -0.040071 5.48885 0
M  V30 27886 H 2574.31 -1.24851 4.24104 0
M  V30 27887 N 2573.37 -1.4921 0.507345 0
M  V30 27888 C 2574.62 -2.0207 -0.0348484 0
M  V30 27889 C 2574.94 -1.38869 -1.36896 0
M  V30 27890 O 2574.21 -0.546184 -1.88132 0
M  V30 27891 H 2572.79 -0.746831 -0.0158681 0
M  V30 27892 H 2575.45 -1.83167 0.66603 0
M  V30 27893 H 2574.55 -3.1169 -0.159862 0
M  V30 27894 N 2574.85 -0.241454 -1.55739 0
M  V30 27895 C 2576.1 0.385261 -1.97986 0
M  V30 27896 C 2576.41 1.59466 -1.13269 0
M  V30 27897 O 2577.62 2.29217 -1.45505 0
M  V30 27898 C 2576.07 0.736823 -3.52277 0
M  V30 27899 C 2575.68 -0.450875 -4.45725 0
M  V30 27900 C 2577.43 1.32803 -4.03192 0
M  V30 27901 C 2575.33 -0.0757702 -5.91351 0
M  V30 27902 H 2574.26 0.147718 -0.739389 0
M  V30 27903 H 2576.91 -0.34081 -1.80307 0
M  V30 27904 H 2575.3 1.52087 -3.6563 0
M  V30 27905 H 2576.47 -1.22827 -4.44129 0
M  V30 27906 H 2574.79 -0.956645 -4.05262 0
M  V30 27907 H 2577.38 1.62192 -5.09508 0
M  V30 27908 H 2577.73 2.25065 -3.50216 0
M  V30 27909 H 2578.26 0.607 -3.93142 0
M  V30 27910 H 2575 -0.965386 -6.48352 0
M  V30 27911 H 2574.52 0.66553 -5.96096 0
M  V30 27912 H 2576.2 0.343962 -6.46085 0
M  V30 27913 N 2576.33 1.57568 0.0317248 0
M  V30 27914 C 2577.58 1.89151 0.723071 0
M  V30 27915 C 2577.9 0.838408 1.75502 0
M  V30 27916 O 2577.16 -0.160948 1.95037 0
M  V30 27917 C 2577.46 3.27475 1.43161 0
M  V30 27918 C 2577.12 4.47704 0.535893 0
M  V30 27919 C 2575.79 4.8033 0.289178 0
M  V30 27920 C 2578.14 5.21134 -0.0827041 0
M  V30 27921 C 2575.47 5.83777 -0.584956 0
M  V30 27922 C 2577.82 6.25509 -0.944524 0
M  V30 27923 C 2576.48 6.56612 -1.20073 0
M  V30 27924 H 2575.75 0.692151 0.26459 0
M  V30 27925 H 2578.4 1.91492 -0.0169833 0
M  V30 27926 H 2576.7 3.21109 2.24492 0
M  V30 27927 H 2578.4 3.49159 1.97203 0
M  V30 27928 H 2574.99 4.22193 0.738339 0
M  V30 27929 H 2579.17 4.96209 0.094943 0
M  V30 27930 H 2574.43 6.06251 -0.791787 0
M  V30 27931 H 2578.6 6.81552 -1.43038 0
M  V30 27932 H 2576.23 7.36592 -1.8798 0
M  V30 27933 N 2577.81 -0.303946 1.54641 0
M  V30 27934 C 2579.05 -1.03952 1.73782 0
M  V30 27935 C 2579.38 -1.87364 0.522019 0
M  V30 27936 O 2578.64 -1.89308 -0.496065 0
M  V30 27937 C 2578.94 -1.97676 2.97756 0
M  V30 27938 C 2578.6 -1.30264 4.31674 0
M  V30 27939 C 2577.26 -1.11611 4.68077 0
M  V30 27940 C 2579.62 -0.82046 5.14702 0
M  V30 27941 C 2576.94 -0.434201 5.85091 0
M  V30 27942 C 2579.3 -0.152284 6.32417 0
M  V30 27943 C 2577.96 0.046224 6.67484 0
M  V30 27944 H 2577.23 -0.380387 0.635914 0
M  V30 27945 H 2579.88 -0.314685 1.88897 0
M  V30 27946 H 2578.18 -2.76678 2.77411 0
M  V30 27947 H 2579.88 -2.54656 3.0976 0
M  V30 27948 H 2576.47 -1.45788 4.03043 0
M  V30 27949 H 2580.65 -0.952289 4.87078 0
M  V30 27950 H 2575.91 -0.269387 6.10806 0
M  V30 27951 H 2580.08 0.229248 6.96023 0
M  V30 27952 H 2577.71 0.576627 7.5801 0
M  V30 27953 N 2579.28 -1.47047 -0.566994 0
M  V30 27954 C 2580.53 -1.53169 -1.32459 0
M  V30 27955 C 2580.86 -0.189875 -1.93571 0
M  V30 27956 O 2580.11 0.816212 -1.77866 0
M  V30 27957 C 2580.41 -2.59052 -2.46225 0
M  V30 27958 C 2580.08 -4.02615 -2.03007 0
M  V30 27959 C 2578.74 -4.41698 -1.90936 0
M  V30 27960 C 2581.09 -4.92735 -1.69886 0
M  V30 27961 C 2578.42 -5.68747 -1.44025 0
M  V30 27962 C 2580.77 -6.20238 -1.2445 0
M  V30 27963 C 2579.44 -6.58212 -1.10967 0
M  V30 27964 H 2578.71 -0.560486 -0.484703 0
M  V30 27965 H 2581.35 -1.806 -0.636856 0
M  V30 27966 H 2579.66 -2.25341 -3.20513 0
M  V30 27967 H 2581.36 -2.61013 -3.04422 0
M  V30 27968 H 2577.95 -3.7173 -2.13342 0
M  V30 27969 H 2582.13 -4.63247 -1.78089 0
M  V30 27970 H 2577.39 -5.96927 -1.32243 0
M  V30 27971 H 2581.56 -6.89487 -0.978802 0
M  V30 27972 H 2579.19 -7.56551 -0.743945 0
M  V30 27973 N 2580.76 0.812929 -1.35016 0
M  V30 27974 C 2582.01 1.57202 -1.28123 0
M  V30 27975 C 2582.34 1.93652 0.145835 0
M  V30 27976 O 2581.62 1.60838 1.09368 0
M  V30 27977 C 2581.9 2.86488 -2.18167 0
M  V30 27978 C 2581.75 2.56555 -3.69459 0
M  V30 27979 C 2583.07 3.88142 -2.07446 0
M  V30 27980 H 2580.19 0.570358 -0.466756 0
M  V30 27981 H 2582.83 0.935754 -1.65359 0
M  V30 27982 H 2580.98 3.40785 -1.86541 0
M  V30 27983 H 2582.65 2.0849 -4.11497 0
M  V30 27984 H 2580.9 1.89844 -3.90053 0
M  V30 27985 H 2581.57 3.48792 -4.27841 0
M  V30 27986 H 2584.04 3.43226 -2.35234 0
M  V30 27987 H 2582.92 4.76391 -2.72658 0
M  V30 27988 H 2583.18 4.29341 -1.05446 0
M  V30 27989 N 2582.24 1.18909 1.03433 0
M  V30 27990 C 2583.47 1.01409 1.80917 0
M  V30 27991 C 2583.89 -0.432689 1.83056 0
M  V30 27992 O 2583.25 -1.31077 1.25254 0
M  V30 27993 C 2583.3 1.58111 3.24089 0
M  V30 27994 O 2582.4 0.80674 4.04432 0
M  V30 27995 H 2581.74 0.358813 0.558703 0
M  V30 27996 H 2584.27 1.57809 1.30221 0
M  V30 27997 H 2584.28 1.61093 3.74851 0
M  V30 27998 H 2582.96 2.63415 3.21846 0
M  V30 27999 H 2581.53 0.84973 3.6309 0
M  V30 28000 N 2583.72 -1.22452 0.992137 0
M  V30 28001 C 2584.95 -1.94914 0.684983 0
M  V30 28002 C 2585.36 -1.73515 -0.754261 0
M  V30 28003 O 2584.7 -1.03078 -1.52054 0
M  V30 28004 C 2584.76 -3.47789 0.910115 0
M  V30 28005 C 2584.43 -3.92922 2.33369 0
M  V30 28006 C 2585.42 -4.00657 3.31315 0
M  V30 28007 C 2583.11 -4.2559 2.66792 0
M  V30 28008 C 2585.1 -4.40433 4.60757 0
M  V30 28009 C 2582.79 -4.65046 3.96454 0
M  V30 28010 C 2583.79 -4.72436 4.93248 0
M  V30 28011 O 2583.47 -5.10999 6.20593 0
M  V30 28012 H 2583.21 -0.627036 0.252591 0
M  V30 28013 H 2585.76 -1.56575 1.32941 0
M  V30 28014 H 2583.99 -3.86137 0.20851 0
M  V30 28015 H 2585.68 -4.01466 0.598327 0
M  V30 28016 H 2586.45 -3.7561 3.06826 0
M  V30 28017 H 2582.32 -4.19043 1.92155 0
M  V30 28018 H 2585.87 -4.46116 5.36308 0
M  V30 28019 H 2581.77 -4.89545 4.20733 0
M  V30 28020 H 2582.53 -5.29074 6.24518 0
M  V30 28021 N 2585.2 -0.765242 -1.37774 0
M  V30 28022 C 2586.45 -0.323342 -1.99091 0
M  V30 28023 C 2586.76 1.10444 -1.61436 0
M  V30 28024 O 2587.96 1.64739 -2.15808 0
M  V30 28025 C 2586.42 -0.52716 -3.56018 0
M  V30 28026 C 2586.03 -1.96478 -4.02617 0
M  V30 28027 C 2587.77 -0.148557 -4.2424 0
M  V30 28028 C 2585.68 -2.11654 -5.52229 0
M  V30 28029 H 2584.61 -0.11715 -0.744844 0
M  V30 28030 H 2587.26 -0.943444 -1.57389 0
M  V30 28031 H 2585.64 0.162303 -3.95667 0
M  V30 28032 H 2586.82 -2.68866 -3.74229 0
M  V30 28033 H 2585.13 -2.29937 -3.47157 0
M  V30 28034 H 2587.73 -0.24055 -5.34159 0
M  V30 28035 H 2588.07 0.900351 -4.06447 0
M  V30 28036 H 2588.6 -0.790318 -3.8987 0
M  V30 28037 H 2585.34 -3.1484 -5.7494 0
M  V30 28038 H 2584.86 -1.43741 -5.82322 0
M  V30 28039 H 2586.54 -1.91203 -6.18102 0
M  V30 28040 N 2586.67 1.48939 -0.515251 0
M  V30 28041 C 2587.92 2.01683 0.0261007 0
M  V30 28042 C 2588.24 1.39886 1.36716 0
M  V30 28043 O 2589.44 1.84041 1.99603 0
M  V30 28044 C 2587.9 3.59769 0.0969479 0
M  V30 28045 C 2587.51 4.30545 -1.23833 0
M  V30 28046 C 2589.25 4.20409 0.587908 0
M  V30 28047 C 2587.16 5.80526 -1.12887 0
M  V30 28048 H 2586.09 0.753879 0.0135266 0
M  V30 28049 H 2588.74 1.71342 -0.656817 0
M  V30 28050 H 2587.12 3.86888 0.844626 0
M  V30 28051 H 2588.29 4.15114 -2.00042 0
M  V30 28052 H 2586.61 3.81713 -1.66385 0
M  V30 28053 H 2589.21 5.30261 0.687537 0
M  V30 28054 H 2589.55 3.84732 1.59019 0
M  V30 28055 H 2590.08 3.97665 -0.103652 0
M  V30 28056 H 2586.82 6.20753 -2.10586 0
M  V30 28057 H 2586.34 5.98411 -0.407905 0
M  V30 28058 H 2588.02 6.41866 -0.813445 0
M  V30 28059 N 2588.15 0.249709 1.55609 0
M  V30 28060 C 2589.4 -0.374755 1.98188 0
M  V30 28061 C 2589.72 -1.58863 1.14114 0
M  V30 28062 O 2590.92 -2.28442 1.46718 0
M  V30 28063 C 2589.38 -0.71813 3.52663 0
M  V30 28064 C 2588.99 0.474506 4.4548 0
M  V30 28065 C 2590.73 -1.30663 4.0389 0
M  V30 28066 C 2588.64 0.10713 5.91303 0
M  V30 28067 H 2587.57 -0.143795 0.740162 0
M  V30 28068 H 2590.22 0.350368 1.80124 0
M  V30 28069 H 2588.6 -1.50146 3.66432 0
M  V30 28070 H 2589.77 1.2518 4.43471 0
M  V30 28071 H 2588.09 0.978123 4.04749 0
M  V30 28072 H 2590.69 -1.59487 5.10361 0
M  V30 28073 H 2591.03 -2.23204 3.51405 0
M  V30 28074 H 2591.56 -0.586142 3.93458 0
M  V30 28075 H 2588.3 0.999756 6.47831 0
M  V30 28076 H 2587.82 -0.633908 5.96441 0
M  V30 28077 H 2589.5 -0.309694 6.46258 0
M  V30 28078 N 2589.63 -1.57583 -0.0233682 0
M  V30 28079 C 2590.86 -1.9419 -0.728341 0
M  V30 28080 C 2591.28 -0.850148 -1.67792 0
M  V30 28081 O 2590.64 0.193678 -1.80263 0
M  V30 28082 C 2590.69 -3.2987 -1.45663 0
M  V30 28083 O 2589.79 -3.22523 -2.57008 0
M  V30 28084 H 2589.13 -0.634573 -0.195482 0
M  V30 28085 H 2591.66 -2.04587 0.0228573 0
M  V30 28086 H 2591.67 -3.64893 -1.82529 0
M  V30 28087 H 2590.35 -4.08893 -0.760242 0
M  V30 28088 H 2588.92 -2.9914 -2.22643 0
M  V30 28089 N 2591.11 0.29574 -1.548 0
M  V30 28090 C 2592.36 1.03029 -1.74331 0
M  V30 28091 C 2592.68 1.87084 -0.531948 0
M  V30 28092 O 2591.94 1.89569 0.486019 0
M  V30 28093 C 2592.24 1.96094 -2.98801 0
M  V30 28094 C 2591.9 1.27973 -4.32358 0
M  V30 28095 C 2590.57 1.09127 -4.68663 0
M  V30 28096 C 2592.92 0.793153 -5.1513 0
M  V30 28097 C 2590.25 0.403166 -5.85313 0
M  V30 28098 C 2592.6 0.118743 -6.32489 0
M  V30 28099 C 2591.26 -0.0816217 -6.6745 0
M  V30 28100 H 2590.53 0.377009 -0.637923 0
M  V30 28101 H 2593.18 0.304663 -1.89061 0
M  V30 28102 H 2591.48 2.75203 -2.78874 0
M  V30 28103 H 2593.18 2.53009 -3.11107 0
M  V30 28104 H 2589.77 1.43648 -4.03811 0
M  V30 28105 H 2593.96 0.926444 -4.87576 0
M  V30 28106 H 2589.21 0.236991 -6.10941 0
M  V30 28107 H 2593.39 -0.266157 -6.95891 0
M  V30 28108 H 2591.01 -0.616818 -7.57693 0
M  V30 28109 N 2592.59 1.47346 0.559187 0
M  V30 28110 C 2593.52 1.62561 1.67619 0
M  V30 28111 C 2594.5 0.475115 1.6333 0
M  V30 28112 O 2595.68 0.704214 1.80982 0
M  V30 28113 C 2592.81 1.6378 3.06257 0
M  V30 28114 C 2591.77 2.78036 3.25392 0
M  V30 28115 C 2591.09 2.64326 4.64796 0
M  V30 28116 C 2592.39 4.19646 3.10957 0
M  V30 28117 H 2594.09 2.56069 1.55142 0
M  V30 28118 H 2591.63 1.23234 0.74494 0
M  V30 28119 H 2593.59 1.73015 3.84244 0
M  V30 28120 H 2592.31 0.668306 3.19689 0
M  V30 28121 H 2590.97 2.68308 2.49812 0
M  V30 28122 H 2590.62 1.65409 4.75025 0
M  V30 28123 H 2590.32 3.40977 4.78549 0
M  V30 28124 H 2591.84 2.75487 5.44921 0
M  V30 28125 H 2593.26 4.30361 3.78764 0
M  V30 28126 H 2591.65 4.97068 3.3622 0
M  V30 28127 H 2592.72 4.38152 2.07729 0
M  V30 28128 N 2594.07 -0.805758 1.35445 0
M  V30 28129 C 2595.31 -1.55799 1.281 0
M  V30 28130 C 2595.63 -1.95081 -0.142393 0
M  V30 28131 O 2596.83 -2.69386 -0.338122 0
M  V30 28132 C 2595.29 -2.8117 2.24658 0
M  V30 28133 C 2594.9 -2.49123 3.72346 0
M  V30 28134 C 2596.64 -3.59177 2.26257 0
M  V30 28135 C 2594.55 -3.70791 4.60726 0
M  V30 28136 H 2593.48 -0.5848 0.475947 0
M  V30 28137 H 2596.13 -0.885632 1.60713 0
M  V30 28138 H 2594.51 -3.50121 1.85017 0
M  V30 28139 H 2595.69 -1.88173 4.20627 0
M  V30 28140 H 2594 -1.8436 3.73364 0
M  V30 28141 H 2596.6 -4.49547 2.89503 0
M  V30 28142 H 2596.94 -3.96566 1.26654 0
M  V30 28143 H 2597.47 -2.97189 2.64431 0
M  V30 28144 H 2594.21 -3.3851 5.6133 0
M  V30 28145 H 2593.73 -4.30963 4.1717 0
M  V30 28146 H 2595.41 -4.3801 4.7619 0
M  V30 28147 N 2595.54 -1.19456 -1.02801 0
M  V30 28148 C 2596.79 -0.999202 -1.76476 0
M  V30 28149 C 2597.12 0.468795 -1.88457 0
M  V30 28150 O 2596.4 1.34812 -1.402 0
M  V30 28151 C 2596.68 -1.66987 -3.19041 0
M  V30 28152 C 2596.53 -3.21157 -3.14926 0
M  V30 28153 C 2597.85 -1.39357 -4.17454 0
M  V30 28154 H 2594.97 -0.364404 -0.640608 0
M  V30 28155 H 2597.61 -1.47307 -1.20002 0
M  V30 28156 H 2595.76 -1.26697 -3.6726 0
M  V30 28157 H 2597.44 -3.70666 -2.74598 0
M  V30 28158 H 2595.68 -3.52656 -2.52619 0
M  V30 28159 H 2596.35 -3.6323 -4.15654 0
M  V30 28160 H 2598.83 -1.74289 -3.77839 0
M  V30 28161 H 2597.7 -1.88832 -5.15397 0
M  V30 28162 H 2597.96 -0.318891 -4.40948 0
M  V30 28163 N 2597.02 1.21924 -0.998617 0
M  V30 28164 C 2598.27 1.91106 -0.678701 0
M  V30 28165 C 2598.6 1.775 0.787879 0
M  V30 28166 O 2597.88 1.14753 1.57041 0
M  V30 28167 C 2598.16 3.43127 -1.09251 0
M  V30 28168 C 2598.01 3.65756 -2.61807 0
M  V30 28169 C 2599.33 4.35273 -0.650061 0
M  V30 28170 H 2596.45 0.694008 -0.248037 0
M  V30 28171 H 2599.09 1.43686 -1.24316 0
M  V30 28172 H 2597.24 3.83646 -0.612238 0
M  V30 28173 H 2598.91 3.34605 -3.17549 0
M  V30 28174 H 2597.16 3.0984 -3.03614 0
M  V30 28175 H 2597.83 4.72245 -2.85813 0
M  V30 28176 H 2600.3 4.02301 -1.06267 0
M  V30 28177 H 2599.18 5.403 -0.967838 0
M  V30 28178 H 2599.44 4.39813 0.449061 0
M  V30 28179 N 2598.5 0.772537 1.37367 0
M  V30 28180 C 2599.45 0.147152 2.32134 0
M  V30 28181 C 2600.44 -0.684079 1.54973 0
M  V30 28182 O 2601.65 -0.581053 1.70364 0
M  V30 28183 H 2598.02 0.0287992 0.751448 0
M  V30 28184 H 2599.99 0.962162 2.82462 0
M  V30 28185 C 2598.74 -0.716971 3.40228 0
M  V30 28186 H 2598.07 -0.0867249 3.99706 0
M  V30 28187 H 2599.51 -1.12151 4.08899 0
M  V30 28188 C 2597.96 -1.86792 2.80375 0
M  V30 28189 O 2598.49 -2.96344 2.71188 0
M  V30 28190 N 2596.7 -1.66878 2.37907 0
M  V30 28191 H 2596.25 -0.777716 2.4558 0
M  V30 28192 H 2596.21 -2.44053 1.98206 0
M  V30 28193 N 2599.98 -1.48664 0.523142 0
M  V30 28194 C 2600.91 -2.26344 -0.290478 0
M  V30 28195 C 2601.89 -1.31897 -0.95089 0
M  V30 28196 O 2603.07 -1.61227 -0.976634 0
M  V30 28197 C 2600.2 -3.07918 -1.41083 0
M  V30 28198 C 2599.25 -4.17687 -0.862524 0
M  V30 28199 S 2600.08 -5.34848 0.264229 0
M  V30 28200 C 2601.23 -6.19981 -0.858755 0
M  V30 28201 H 2601.47 -2.95004 0.368778 0
M  V30 28202 H 2599 -1.5128 0.308807 0
M  V30 28203 H 2600.96 -3.55495 -2.05264 0
M  V30 28204 H 2599.62 -2.38685 -2.04178 0
M  V30 28205 H 2598.81 -4.74364 -1.70279 0
M  V30 28206 H 2598.41 -3.72815 -0.297529 0
M  V30 28207 H 2600.71 -6.54268 -1.75898 0
M  V30 28208 H 2601.65 -7.0733 -0.33012 0
M  V30 28209 H 2602.06 -5.5295 -1.13608 0
M  V30 28210 N 2601.46 -0.257958 -1.55475 0
M  V30 28211 C 2602.69 0.366991 -2.03314 0
M  V30 28212 C 2603.09 1.51279 -1.13628 0
M  V30 28213 O 2602.44 1.83124 -0.145366 0
M  V30 28214 C 2602.5 0.926223 -3.47363 0
M  V30 28215 C 2602.16 -0.0887387 -4.56914 0
M  V30 28216 C 2603.16 -0.902213 -5.12012 0
M  V30 28217 C 2600.84 -0.218025 -5.01827 0
M  V30 28218 C 2602.84 -1.83132 -6.10525 0
M  V30 28219 C 2600.53 -1.15063 -6.0017 0
M  V30 28220 C 2601.52 -1.9558 -6.54399 0
M  V30 28221 O 2601.21 -2.87266 -7.50822 0
M  V30 28222 H 2600.94 0.0900325 -0.669978 0
M  V30 28223 H 2603.5 -0.382709 -2.01803 0
M  V30 28224 H 2601.73 1.72569 -3.46059 0
M  V30 28225 H 2603.42 1.46243 -3.7864 0
M  V30 28226 H 2604.18 -0.812975 -4.78138 0
M  V30 28227 H 2600.06 0.39864 -4.59273 0
M  V30 28228 H 2603.61 -2.4602 -6.52779 0
M  V30 28229 H 2599.5 -1.24075 -6.33463 0
M  V30 28230 H 2600.27 -2.81753 -7.68478 0
M  V30 28231 N 2602.93 1.57593 0.0150108 0
M  V30 28232 C 2604.18 1.89086 0.702082 0
M  V30 28233 C 2604.5 0.858308 1.75762 0
M  V30 28234 O 2605.7 1.06295 2.49827 0
M  V30 28235 C 2604.16 3.35606 1.29986 0
M  V30 28236 C 2603.77 4.47125 0.279929 0
M  V30 28237 C 2605.51 3.7623 1.96599 0
M  V30 28238 C 2603.42 5.84713 0.886846 0
M  V30 28239 H 2602.35 0.705527 0.265985 0
M  V30 28240 H 2605 1.83449 -0.0430731 0
M  V30 28241 H 2603.38 3.36033 2.09519 0
M  V30 28242 H 2604.55 4.5819 -0.489711 0
M  V30 28243 H 2602.87 4.15424 -0.284908 0
M  V30 28244 H 2605.47 4.76352 2.42885 0
M  V30 28245 H 2605.81 3.08957 2.79019 0
M  V30 28246 H 2606.34 3.78038 1.23822 0
M  V30 28247 H 2603.08 6.55421 0.101761 0
M  V30 28248 H 2602.6 5.7734 1.626 0
M  V30 28249 H 2604.28 6.31893 1.38999 0
M  V30 28250 N 2604.41 -0.287527 1.54955 0
M  V30 28251 C 2605.38 -1.33819 1.86078 0
M  V30 28252 C 2606.38 -1.43048 0.734439 0
M  V30 28253 O 2607.57 -1.4245 1.00268 0
M  V30 28254 C 2604.7 -2.72141 2.0531 0
M  V30 28255 H 2605.89 -1.0746 2.79986 0
M  V30 28256 H 2603.44 -0.524876 1.47223 0
M  V30 28257 H 2604.18 -3.03702 1.13735 0
M  V30 28258 H 2603.96 -2.66831 2.87304 0
M  V30 28259 H 2605.45 -3.48083 2.30713 0
M  V30 28260 N 2605.89 -1.47641 -0.551365 0
M  V30 28261 C 2607.14 -1.53824 -1.30464 0
M  V30 28262 C 2607.45 -0.207695 -1.94494 0
M  V30 28263 O 2608.66 -0.14758 -2.71099 0
M  V30 28264 C 2607.11 -2.71188 -2.36612 0
M  V30 28265 C 2606.72 -4.10796 -1.78746 0
M  V30 28266 C 2608.47 -2.86669 -3.13083 0
M  V30 28267 C 2606.37 -5.19452 -2.82708 0
M  V30 28268 H 2605.3 -0.572585 -0.490574 0
M  V30 28269 H 2607.95 -1.73928 -0.584909 0
M  V30 28270 H 2606.34 -2.44475 -3.11525 0
M  V30 28271 H 2607.51 -4.47437 -1.10165 0
M  V30 28272 H 2605.83 -4.00251 -1.14839 0
M  V30 28273 H 2608.42 -3.65013 -3.90729 0
M  V30 28274 H 2608.77 -1.95328 -3.67631 0
M  V30 28275 H 2609.3 -3.1318 -2.45282 0
M  V30 28276 H 2606.04 -6.12689 -2.33008 0
M  V30 28277 H 2605.56 -4.87322 -3.49681 0
M  V30 28278 H 2607.24 -5.46652 -3.46093 0
M  V30 28279 N 2607.37 0.798563 -1.3587 0
M  V30 28280 C 2608.62 1.55118 -1.28924 0
M  V30 28281 C 2608.93 1.95154 0.132046 0
M  V30 28282 O 2610.14 2.69562 0.323831 0
M  V30 28283 C 2608.59 2.79975 -2.26146 0
M  V30 28284 C 2608.2 2.47145 -3.73662 0
M  V30 28285 C 2609.94 3.57972 -2.28158 0
M  V30 28286 C 2607.85 3.68342 -4.62686 0
M  V30 28287 H 2606.78 0.582267 -0.479042 0
M  V30 28288 H 2609.43 0.877097 -1.61181 0
M  V30 28289 H 2607.81 3.49135 -1.86871 0
M  V30 28290 H 2608.99 1.8594 -4.21619 0
M  V30 28291 H 2607.3 1.82377 -3.74336 0
M  V30 28292 H 2609.9 4.48005 -2.91883 0
M  V30 28293 H 2610.24 3.95889 -1.28755 0
M  V30 28294 H 2610.78 2.95782 -2.66003 0
M  V30 28295 H 2607.52 3.35528 -5.63117 0
M  V30 28296 H 2607.04 4.28744 -4.1945 0
M  V30 28297 H 2608.71 4.35478 -4.78506 0
M  V30 28298 N 2608.85 1.19999 1.02166 0
M  V30 28299 C 2609.78 0.968077 2.12486 0
M  V30 28300 C 2610.76 -0.101155 1.69799 0
M  V30 28301 O 2611.94 0.0553334 1.94121 0
M  V30 28302 C 2609.07 0.513836 3.43478 0
M  V30 28303 C 2608.03 1.52573 3.99882 0
M  V30 28304 C 2607.35 0.928307 5.2658 0
M  V30 28305 C 2608.65 2.90803 4.33856 0
M  V30 28306 H 2610.35 1.89074 2.32146 0
M  V30 28307 H 2607.89 0.910488 1.11562 0
M  V30 28308 H 2609.85 0.338847 4.20035 0
M  V30 28309 H 2608.57 -0.444436 3.23562 0
M  V30 28310 H 2607.23 1.68799 3.25426 0
M  V30 28311 H 2606.88 -0.0377405 5.02986 0
M  V30 28312 H 2606.58 1.60407 5.65282 0
M  V30 28313 H 2608.1 0.764274 6.05798 0
M  V30 28314 H 2609.51 2.78118 5.01322 0
M  V30 28315 H 2607.91 3.55239 4.83658 0
M  V30 28316 H 2608.98 3.4291 3.42842 0
M  V30 28317 N 2610.32 -1.21392 1.00507 0
M  V30 28318 C 2611.23 -2.27448 0.574846 0
M  V30 28319 C 2612.25 -1.69751 -0.382176 0
M  V30 28320 O 2613.43 -1.99892 -0.245992 0
M  V30 28321 C 2610.49 -3.46579 -0.0916805 0
M  V30 28322 C 2609.55 -4.19548 0.909831 0
M  V30 28323 C 2608.79 -5.32991 0.275017 0
M  V30 28324 O 2609.01 -5.62798 -0.928155 0
M  V30 28325 O 2607.94 -5.93769 0.985982 0
M  V30 28326 H 2611.77 -2.66441 1.45749 0
M  V30 28327 H 2609.35 -1.27791 0.773946 0
M  V30 28328 H 2611.24 -4.18832 -0.464477 0
M  V30 28329 H 2609.91 -3.09486 -0.9487 0
M  V30 28330 H 2608.82 -3.49515 1.33379 0
M  V30 28331 H 2610.15 -4.60552 1.73644 0
M  V30 28332 N 2611.8 -0.779811 -1.36955 0
M  V30 28333 C 2612.75 -0.159461 -2.32053 0
M  V30 28334 C 2613.74 0.675851 -1.55334 0
M  V30 28335 O 2614.95 0.57201 -1.70669 0
M  V30 28336 H 2611.33 -0.0327839 -0.751285 0
M  V30 28337 H 2613.3 -0.977128 -2.81948 0
M  V30 28338 C 2612.05 0.698917 -3.40603 0
M  V30 28339 H 2611.37 0.0655263 -3.99746 0
M  V30 28340 H 2612.81 1.09981 -4.09488 0
M  V30 28341 C 2611.27 1.85302 -2.81362 0
M  V30 28342 O 2611.8 2.94902 -2.72756 0
M  V30 28343 N 2610 1.65614 -2.38789 0
M  V30 28344 H 2609.55 0.764681 -2.45989 0
M  V30 28345 H 2609.51 2.42998 -1.99498 0
M  V30 28346 N 2613.28 1.48384 -0.531019 0
M  V30 28347 C 2614.53 2.025 0.0027017 0
M  V30 28348 C 2614.86 1.40802 1.34183 0
M  V30 28349 O 2614.11 0.543577 1.87999 0
M  V30 28350 C 2614.41 3.56983 0.172679 0
M  V30 28351 C 2614.08 4.37471 -1.09222 0
M  V30 28352 C 2612.74 4.59184 -1.43889 0
M  V30 28353 C 2615.09 4.84085 -1.93162 0
M  V30 28354 C 2612.42 5.24756 -2.6239 0
M  V30 28355 C 2614.77 5.50962 -3.10843 0
M  V30 28356 C 2613.43 5.70913 -3.45853 0
M  V30 28357 H 2612.7 0.740999 0.000988623 0
M  V30 28358 H 2615.35 1.78355 -0.697251 0
M  V30 28359 H 2613.66 3.79973 0.955406 0
M  V30 28360 H 2615.35 3.96477 0.600572 0
M  V30 28361 H 2611.94 4.20833 -0.812251 0
M  V30 28362 H 2616.13 4.67112 -1.67691 0
M  V30 28363 H 2611.38 5.384 -2.89716 0
M  V30 28364 H 2615.56 5.86049 -3.7619 0
M  V30 28365 H 2613.18 6.21496 -4.37775 0
M  V30 28366 N 2614.76 0.2662 1.55336 0
M  V30 28367 C 2615.98 -0.359625 2.04258 0
M  V30 28368 C 2616.41 -1.49342 1.14362 0
M  V30 28369 O 2615.77 -1.80756 0.1404 0
M  V30 28370 C 2615.81 -0.826573 3.50999 0
M  V30 28371 O 2614.92 -1.93459 3.64208 0
M  V30 28372 H 2614.26 -0.0757154 0.659669 0
M  V30 28373 H 2616.79 0.397896 2.00694 0
M  V30 28374 H 2616.8 -1.1247 3.92192 0
M  V30 28375 H 2615.47 0.00300343 4.159 0
M  V30 28376 H 2614.05 -1.63969 3.34916 0
M  V30 28377 N 2616.24 -1.57599 -0.0066531 0
M  V30 28378 C 2617.48 -1.90559 -0.693914 0
M  V30 28379 C 2617.82 -0.866625 -1.73791 0
M  V30 28380 O 2617.09 0.115514 -1.94157 0
M  V30 28381 C 2617.37 -3.34115 -1.34311 0
M  V30 28382 C 2617.23 -4.48723 -0.31111 0
M  V30 28383 C 2618.55 -3.76974 -2.27109 0
M  V30 28384 H 2615.66 -0.693017 -0.250791 0
M  V30 28385 H 2618.31 -1.89951 0.0432754 0
M  V30 28386 H 2616.46 -3.34763 -1.97144 0
M  V30 28387 H 2618.13 -4.60209 0.317025 0
M  V30 28388 H 2616.37 -4.32242 0.367329 0
M  V30 28389 H 2617.04 -5.46109 -0.80427 0
M  V30 28390 H 2619.52 -3.77834 -1.743 0
M  V30 28391 H 2618.39 -4.78184 -2.69502 0
M  V30 28392 H 2618.66 -3.10472 -3.14738 0
M  V30 28393 N 2617.72 0.279305 -1.55105 0
M  V30 28394 C 2618.68 1.32831 -1.86785 0
M  V30 28395 C 2619.68 1.42656 -0.742015 0
M  V30 28396 O 2620.87 1.41916 -1.01022 0
M  V30 28397 C 2618 2.71048 -2.0675 0
M  V30 28398 H 2619.19 1.05974 -2.80552 0
M  V30 28399 H 2616.75 0.517061 -1.475 0
M  V30 28400 H 2617.48 3.03095 -1.15344 0
M  V30 28401 H 2617.27 2.65303 -2.88715 0
M  V30 28402 H 2618.76 3.46854 -2.32555 0
M  V30 28403 N 2619.19 1.47931 0.543528 0
M  V30 28404 C 2620.42 1.58896 1.32513 0
M  V30 28405 C 2620.84 0.244164 1.87215 0
M  V30 28406 O 2620.19 -0.764623 1.6571 0
M  V30 28407 C 2620.24 2.62499 2.48549 0
M  V30 28408 O 2619.97 3.91758 1.96105 0
M  V30 28409 C 2621.47 2.83776 3.40567 0
M  V30 28410 H 2618.69 0.536152 0.403463 0
M  V30 28411 H 2621.23 1.93656 0.657072 0
M  V30 28412 H 2619.39 2.30634 3.11266 0
M  V30 28413 H 2619.8 4.48485 2.71959 0
M  V30 28414 H 2621.27 3.601 4.18368 0
M  V30 28415 H 2621.75 1.92099 3.94962 0
M  V30 28416 H 2622.36 3.16892 2.83654 0
M  V30 28417 N 2620.67 -0.791347 1.36292 0
M  V30 28418 C 2621.58 -1.93525 1.32609 0
M  V30 28419 C 2622.6 -1.72492 0.228572 0
M  V30 28420 O 2623.77 -1.96062 0.460605 0
M  V30 28421 C 2620.84 -3.28357 1.11277 0
M  V30 28422 C 2619.9 -3.62181 2.30486 0
M  V30 28423 C 2619.13 -4.90579 2.10162 0
M  V30 28424 O 2619.36 -5.60163 1.07582 0
M  V30 28425 O 2618.29 -5.23014 2.97893 0
M  V30 28426 H 2622.12 -1.99581 2.28913 0
M  V30 28427 H 2619.7 -0.931323 1.16819 0
M  V30 28428 H 2621.58 -4.09045 1.01291 0
M  V30 28429 H 2620.26 -3.23197 0.180349 0
M  V30 28430 H 2619.16 -2.81806 2.46041 0
M  V30 28431 H 2620.5 -3.72062 3.22228 0
M  V30 28432 N 2622.15 -1.2054 -1.01528 0
M  V30 28433 C 2623.06 -0.97115 -2.13555 0
M  V30 28434 C 2624.08 0.073406 -1.73845 0
M  V30 28435 O 2625.25 -0.114334 -2.01075 0
M  V30 28436 C 2622.32 -0.527699 -3.42661 0
M  V30 28437 C 2621.38 -1.64326 -3.96605 0
M  V30 28438 C 2620.61 -1.22087 -5.19548 0
M  V30 28439 O 2620.83 -0.0901201 -5.70329 0
M  V30 28440 O 2619.77 -2.02881 -5.66677 0
M  V30 28441 H 2623.59 -1.90917 -2.36187 0
M  V30 28442 H 2621.18 -0.989382 -1.11945 0
M  V30 28443 H 2623.06 -0.289695 -4.20403 0
M  V30 28444 H 2621.74 0.381723 -3.21441 0
M  V30 28445 H 2620.64 -1.93556 -3.20136 0
M  V30 28446 H 2621.98 -2.52973 -4.22215 0
M  V30 28447 N 2623.63 1.20858 -1.01149 0
M  V30 28448 C 2624.85 1.94622 -0.716732 0
M  V30 28449 C 2625.28 1.73965 0.715384 0
M  V30 28450 O 2624.64 1.03065 1.49155 0
M  V30 28451 C 2624.68 3.44933 -1.05136 0
M  V30 28452 O 2623.79 4.12089 -0.160204 0
M  V30 28453 H 2623.13 0.60821 -0.266415 0
M  V30 28454 H 2625.66 1.53433 -1.35349 0
M  V30 28455 H 2625.67 3.95532 -1.00093 0
M  V30 28456 H 2624.34 3.59291 -2.09482 0
M  V30 28457 H 2622.92 3.71938 -0.267722 0
M  V30 28458 N 2625.11 0.787064 1.3654 0
M  V30 28459 C 2626.07 0.189818 2.28413 0
M  V30 28460 C 2627.07 -0.611473 1.4872 0
M  V30 28461 O 2628.26 -0.432813 1.68738 0
M  V30 28462 C 2625.39 -0.73758 3.32825 0
M  V30 28463 H 2626.58 0.999881 2.82741 0
M  V30 28464 H 2624.14 0.556324 1.46064 0
M  V30 28465 H 2624.87 -1.57207 2.83648 0
M  V30 28466 H 2624.66 -0.164975 3.91753 0
M  V30 28467 H 2626.15 -1.1504 4.01442 0
M  V30 28468 N 2626.58 -1.48101 0.53888 0
M  V30 28469 C 2627.86 -1.95518 -0.0567765 0
M  V30 28470 C 2628.24 -1.48127 -1.50405 0
M  V30 28471 O 2627.59 -0.711765 -2.17132 0
M  V30 28472 C 2627.8 -3.4893 0.0696875 0
M  V30 28473 C 2629.15 -4.24515 -0.0850455 0
M  V30 28474 O 2630.17 -3.562 -0.00367209 0
M  V30 28475 O 2629.03 -5.45896 -0.256929 0
M  V30 28476 H 2626.12 -0.823651 -0.074355 0
M  V30 28477 H 2628.67 -1.58583 0.604108 0
M  V30 28478 H 2627.44 -3.76172 1.0775 0
M  V30 28479 H 2627.06 -3.92583 -0.629645 0
M  V30 28480 N 2628.06 -0.274434 -1.55192 0
M  V30 28481 C 2629.47 0.223456 -1.85358 0
M  V30 28482 C 2629.82 1.55498 -1.19645 0
M  V30 28483 O 2628.95 2.10906 -0.484535 0
M  V30 28484 C 2629.54 0.412226 -3.36283 0
M  V30 28485 C 2628.1 0.854349 -3.66576 0
M  V30 28486 C 2627.25 -0.0527543 -2.7725 0
M  V30 28487 H 2630.2 -0.496242 -1.50742 0
M  V30 28488 H 2630.22 1.25088 -3.59351 0
M  V30 28489 H 2629.73 -0.557032 -3.84082 0
M  V30 28490 H 2627.83 1.8351 -3.24276 0
M  V30 28491 H 2627.95 0.692143 -4.74074 0
M  V30 28492 H 2626.31 0.46344 -2.50448 0
M  V30 28493 H 2627.09 -1.01788 -3.27863 0
M  V30 28494 N 2629.54 1.576 -0.00170483 0
M  V30 28495 C 2630.47 2.11565 0.988053 0
M  V30 28496 C 2631.45 1.02519 1.35735 0
M  V30 28497 O 2632.64 1.3021 1.44079 0
M  V30 28498 C 2629.77 2.62035 2.27937 0
M  V30 28499 C 2628.72 3.75622 2.05163 0
M  V30 28500 C 2628.05 4.12413 3.40323 0
M  V30 28501 C 2629.35 5.02828 1.41285 0
M  V30 28502 H 2631.04 2.94513 0.538719 0
M  V30 28503 H 2628.59 1.41676 0.257687 0
M  V30 28504 H 2630.54 2.98415 2.97533 0
M  V30 28505 H 2629.26 1.7621 2.74986 0
M  V30 28506 H 2627.92 3.39638 1.37992 0
M  V30 28507 H 2627.57 3.2361 3.85079 0
M  V30 28508 H 2627.27 4.8894 3.25901 0
M  V30 28509 H 2628.79 4.51354 4.11232 0
M  V30 28510 H 2630.21 5.36969 2.00841 0
M  V30 28511 H 2628.6 5.84171 1.37346 0
M  V30 28512 H 2629.67 4.83391 0.382278 0
M  V30 28513 N 2631.02 -0.271076 1.55251 0
M  V30 28514 C 2632.24 -1.02488 1.80308 0
M  V30 28515 C 2632.67 -1.7908 0.575489 0
M  V30 28516 O 2632.03 -1.74968 -0.474956 0
M  V30 28517 C 2632.07 -1.95762 3.02836 0
M  V30 28518 O 2631.18 -3.04563 2.78056 0
M  V30 28519 H 2630.52 -0.292913 0.595901 0
M  V30 28520 H 2633.05 -0.299401 2.02398 0
M  V30 28521 H 2633.06 -2.3768 3.3162 0
M  V30 28522 H 2631.73 -1.39427 3.91833 0
M  V30 28523 H 2630.31 -2.66946 2.60373 0
M  V30 28524 N 2632.5 -1.48217 -0.535675 0
M  V30 28525 C 2633.41 -1.64988 -1.66782 0
M  V30 28526 C 2634.42 -0.532443 -1.65653 0
M  V30 28527 O 2635.6 -0.802782 -1.84709 0
M  V30 28528 C 2632.66 -1.68037 -3.03257 0
M  V30 28529 C 2631.72 -2.91366 -3.15285 0
M  V30 28530 C 2630.96 -2.9426 -4.45249 0
M  V30 28531 O 2631.18 -2.05729 -5.32007 0
M  V30 28532 O 2630.11 -3.86368 -4.61523 0
M  V30 28533 H 2633.94 -2.60828 -1.55571 0
M  V30 28534 H 2631.53 -1.31552 -0.708127 0
M  V30 28535 H 2633.41 -1.72596 -3.84433 0
M  V30 28536 H 2632.08 -0.753684 -3.14804 0
M  V30 28537 H 2630.99 -2.92341 -2.33425 0
M  V30 28538 H 2632.32 -3.834 -3.08651 0
M  V30 28539 N 2633.97 0.784108 -1.3671 0
M  V30 28540 C 2635.25 1.53067 -1.21778 0
M  V30 28541 C 2635.63 2.10208 0.193839 0
M  V30 28542 O 2634.98 1.94448 1.20009 0
M  V30 28543 C 2635.19 2.62139 -2.304 0
M  V30 28544 C 2636.54 3.29878 -2.67331 0
M  V30 28545 O 2637.56 2.72426 -2.29483 0
M  V30 28546 O 2636.42 4.33718 -3.32492 0
M  V30 28547 H 2633.51 0.677352 -0.474471 0
M  V30 28548 H 2636.06 0.822134 -1.48456 0
M  V30 28549 H 2634.83 2.17948 -3.24984 0
M  V30 28550 H 2634.46 3.40606 -2.05118 0
M  V30 28551 N 2635.45 1.21076 1.00888 0
M  V30 28552 C 2636.73 0.934499 1.71833 0
M  V30 28553 C 2637.11 -0.554717 2.03681 0
M  V30 28554 O 2636.46 -1.51851 1.70744 0
M  V30 28555 C 2636.67 1.81555 2.98058 0
M  V30 28556 C 2638.02 2.06206 3.71166 0
M  V30 28557 O 2639.04 1.78872 3.08031 0
M  V30 28558 O 2637.9 2.52412 4.84717 0
M  V30 28559 H 2634.99 0.350083 0.749247 0
M  V30 28560 H 2637.54 1.31987 1.06666 0
M  V30 28561 H 2636.31 2.8236 2.70903 0
M  V30 28562 H 2635.93 1.43075 3.70965 0
M  V30 28563 N 2636.93 -1.2032 1.01789 0
M  V30 28564 C 2638.18 -1.89721 0.70797 0
M  V30 28565 C 2638.51 -1.78931 -0.762504 0
M  V30 28566 O 2637.76 -1.16864 -1.56975 0
M  V30 28567 C 2638.06 -3.40347 1.09082 0
M  V30 28568 C 2637.73 -3.71338 2.55772 0
M  V30 28569 C 2636.39 -3.79506 2.95852 0
M  V30 28570 C 2638.74 -3.85536 3.5073 0
M  V30 28571 C 2636.07 -3.99332 4.29827 0
M  V30 28572 C 2638.42 -4.06872 4.84394 0
M  V30 28573 C 2637.08 -4.1327 5.24179 0
M  V30 28574 H 2636.35 -0.694238 0.259064 0
M  V30 28575 H 2639 -1.42553 1.27871 0
M  V30 28576 H 2637.31 -3.89338 0.438521 0
M  V30 28577 H 2639 -3.92344 0.828705 0
M  V30 28578 H 2635.59 -3.6558 2.23717 0
M  V30 28579 H 2639.78 -3.78579 3.20923 0
M  V30 28580 H 2635.03 -4.02521 4.60203 0
M  V30 28581 H 2639.21 -4.16801 5.57898 0
M  V30 28582 H 2636.83 -4.28385 6.28005 0
M  V30 28583 N 2638.41 -0.794293 -1.3612 0
M  V30 28584 C 2639.32 -0.197337 -2.33769 0
M  V30 28585 C 2640.33 0.653124 -1.61277 0
M  V30 28586 O 2641.51 0.567766 -1.93231 0
M  V30 28587 C 2638.58 0.654038 -3.40475 0
M  V30 28588 C 2637.64 -0.215487 -4.28759 0
M  V30 28589 C 2636.87 0.595349 -5.30369 0
M  V30 28590 O 2637.09 1.83098 -5.40214 0
M  V30 28591 O 2636.03 -0.00731931 -6.019 0
M  V30 28592 H 2639.85 -1.00483 -2.86595 0
M  V30 28593 H 2637.44 -0.555842 -1.38675 0
M  V30 28594 H 2639.32 1.13937 -4.05705 0
M  V30 28595 H 2637.99 1.43933 -2.89939 0
M  V30 28596 H 2636.9 -0.74768 -3.66552 0
M  V30 28597 H 2638.23 -0.964417 -4.82659 0
M  V30 28598 N 2639.89 1.47813 -0.546727 0
M  V30 28599 C 2641.11 2.06887 -0.023322 0
M  V30 28600 C 2641.53 1.40092 1.26569 0
M  V30 28601 O 2640.89 0.493937 1.75689 0
M  V30 28602 C 2640.94 3.61016 0.186912 0
M  V30 28603 O 2640.66 4.25305 -1.05104 0
M  V30 28604 C 2642.16 4.3693 0.748795 0
M  V30 28605 H 2639.38 0.669741 -0.041088 0
M  V30 28606 H 2641.92 1.89967 -0.75715 0
M  V30 28607 H 2640.08 3.77485 0.870837 0
M  V30 28608 H 2640.49 5.17694 -0.842212 0
M  V30 28609 H 2641.97 5.4549 0.845238 0
M  V30 28610 H 2642.44 4.02496 1.75765 0
M  V30 28611 H 2643.05 4.2518 0.100904 0
M  V30 28612 N 2641.36 0.28266 1.55044 0
M  V30 28613 C 2642.61 -0.331954 1.99761 0
M  V30 28614 C 2642.94 -1.55293 1.17108 0
M  V30 28615 O 2642.19 -1.94336 0.230633 0
M  V30 28616 C 2642.49 -0.750877 3.49423 0
M  V30 28617 C 2642.16 0.366307 4.4941 0
M  V30 28618 C 2640.82 0.673048 4.7647 0
M  V30 28619 C 2643.17 1.11873 5.09052 0
M  V30 28620 C 2640.5 1.73566 5.60439 0
M  V30 28621 C 2642.85 2.17112 5.94176 0
M  V30 28622 C 2641.52 2.48413 6.19554 0
M  V30 28623 H 2640.79 -0.121471 0.730976 0
M  V30 28624 H 2643.43 0.397943 1.8732 0
M  V30 28625 H 2641.74 -1.56057 3.59379 0
M  V30 28626 H 2643.44 -1.2373 3.81434 0
M  V30 28627 H 2640.03 0.117116 4.2844 0
M  V30 28628 H 2644.21 0.895011 4.88163 0
M  V30 28629 H 2639.47 1.9831 5.78345 0
M  V30 28630 H 2643.64 2.75884 6.39422 0
M  V30 28631 H 2641.27 3.30886 6.84411 0
M  V30 28632 N 2642.84 -1.57597 0.0100627 0
M  V30 28633 C 2644.07 -1.95005 -0.682387 0
M  V30 28634 C 2644.48 -0.884043 -1.67276 0
M  V30 28635 O 2643.82 0.14464 -1.8313 0
M  V30 28636 C 2643.89 -3.28458 -1.46135 0
M  V30 28637 C 2643.55 -4.52617 -0.631444 0
M  V30 28638 C 2644.55 -5.1983 0.0851819 0
M  V30 28639 C 2642.23 -4.99004 -0.574451 0
M  V30 28640 C 2644.23 -6.31738 0.847677 0
M  V30 28641 C 2641.91 -6.10799 0.191762 0
M  V30 28642 C 2642.91 -6.77024 0.901551 0
M  V30 28643 O 2642.6 -7.86675 1.65524 0
M  V30 28644 H 2642.33 -0.64746 -0.19435 0
M  V30 28645 H 2644.88 -2.05311 0.0603481 0
M  V30 28646 H 2643.11 -3.14589 -2.2488 0
M  V30 28647 H 2644.8 -3.50906 -2.04009 0
M  V30 28648 H 2645.57 -4.84974 0.0503664 0
M  V30 28649 H 2641.45 -4.47276 -1.11646 0
M  V30 28650 H 2644.99 -6.83362 1.40222 0
M  V30 28651 H 2640.89 -6.45096 0.228363 0
M  V30 28652 H 2641.66 -8.03243 1.57301 0
M  V30 28653 N 2644.32 0.262839 -1.55393 0
M  V30 28654 C 2645.23 1.34694 -1.9208 0
M  V30 28655 C 2646.25 1.53506 -0.819254 0
M  V30 28656 O 2647.42 1.67437 -1.11924 0
M  V30 28657 C 2644.49 2.68439 -2.19412 0
M  V30 28658 C 2643.55 2.58286 -3.42909 0
M  V30 28659 C 2642.78 3.85653 -3.68928 0
M  V30 28660 O 2643 4.86805 -2.97283 0
M  V30 28661 O 2641.94 3.85244 -4.62462 0
M  V30 28662 H 2645.76 1.06576 -2.84386 0
M  V30 28663 H 2643.35 0.462239 -1.42069 0
M  V30 28664 H 2645.23 3.47502 -2.38371 0
M  V30 28665 H 2643.91 2.96323 -1.30287 0
M  V30 28666 H 2642.81 1.77564 -3.29275 0
M  V30 28667 H 2644.15 2.3535 -4.32286 0
M  V30 28668 N 2645.8 1.48499 0.527807 0
M  V30 28669 C 2647.05 1.55881 1.28001 0
M  V30 28670 C 2647.36 0.238611 1.94139 0
M  V30 28671 O 2648.57 0.190691 2.7083 0
M  V30 28672 C 2647.02 2.74918 2.32267 0
M  V30 28673 C 2646.63 4.13588 1.72188 0
M  V30 28674 C 2648.37 2.91613 3.08483 0
M  V30 28675 C 2646.28 5.23884 2.74408 0
M  V30 28676 H 2645.21 0.580317 0.481403 0
M  V30 28677 H 2647.86 1.74837 0.557165 0
M  V30 28678 H 2646.24 2.494 3.07596 0
M  V30 28679 H 2647.42 4.49133 1.03033 0
M  V30 28680 H 2645.73 4.02027 1.08457 0
M  V30 28681 H 2648.33 3.71183 3.84873 0
M  V30 28682 H 2648.67 2.01152 3.64477 0
M  V30 28683 H 2649.21 3.17042 2.40269 0
M  V30 28684 H 2645.95 6.16318 2.23231 0
M  V30 28685 H 2645.47 4.92824 3.41884 0
M  V30 28686 H 2647.14 5.52089 3.37352 0
M  V30 28687 N 2647.28 -0.776847 1.37123 0
M  V30 28688 C 2648.52 -1.53673 1.33253 0
M  V30 28689 C 2648.88 -1.92217 -0.0839553 0
M  V30 28690 O 2648.17 -1.60826 -1.04142 0
M  V30 28691 C 2648.37 -2.81607 2.20073 0
M  V30 28692 C 2648.19 -2.55567 3.70021 0
M  V30 28693 C 2646.96 -2.49953 4.39149 0
M  V30 28694 C 2649.16 -2.23909 4.63 0
M  V30 28695 N 2647.14 -2.15943 5.74667 0
M  V30 28696 C 2648.52 -1.99995 5.86858 0
M  V30 28697 C 2650.57 -2.10022 4.51437 0
M  V30 28698 C 2649.27 -1.63596 7.00449 0
M  V30 28699 C 2651.3 -1.75023 5.64908 0
M  V30 28700 C 2650.66 -1.51965 6.87813 0
M  V30 28701 H 2646.76 -0.562847 0.542888 0
M  V30 28702 H 2649.34 -0.906753 1.72296 0
M  V30 28703 H 2647.52 -3.42451 1.83254 0
M  V30 28704 H 2649.25 -3.47457 2.07498 0
M  V30 28705 H 2646 -2.65632 3.92093 0
M  V30 28706 H 2646.43 -2.01649 6.46272 0
M  V30 28707 H 2651.07 -2.26533 3.56991 0
M  V30 28708 H 2648.79 -1.45823 7.94834 0
M  V30 28709 H 2652.37 -1.64943 5.57929 0
M  V30 28710 H 2651.25 -1.25283 7.74128 0
M  V30 28711 N 2648.76 -1.2161 -1.00244 0
M  V30 28712 C 2649.67 -0.993746 -2.12513 0
M  V30 28713 C 2650.68 0.0549633 -1.73913 0
M  V30 28714 O 2651.86 -0.135654 -2.00943 0
M  V30 28715 C 2648.92 -0.564013 -3.42082 0
M  V30 28716 C 2647.98 -1.68523 -3.9484 0
M  V30 28717 C 2647.22 -1.27591 -5.18224 0
M  V30 28718 O 2647.44 -0.150606 -5.70201 0
M  V30 28719 O 2646.37 -2.0888 -5.64493 0
M  V30 28720 H 2650.2 -1.93412 -2.34149 0
M  V30 28721 H 2647.78 -1.0012 -1.10889 0
M  V30 28722 H 2649.67 -0.334268 -4.20072 0
M  V30 28723 H 2648.34 0.347608 -3.21828 0
M  V30 28724 H 2647.25 -1.96941 -3.18065 0
M  V30 28725 H 2648.58 -2.57437 -4.19508 0
M  V30 28726 N 2650.23 1.19778 -1.02425 0
M  V30 28727 C 2651.18 2.22836 -0.601062 0
M  V30 28728 C 2652.15 1.61629 0.382772 0
M  V30 28729 O 2653.34 1.88727 0.280481 0
M  V30 28730 C 2650.48 3.45068 0.0467148 0
M  V30 28731 C 2649.59 4.20677 -0.982604 0
M  V30 28732 C 2648.72 5.30323 -0.305075 0
M  V30 28733 C 2647.76 5.97684 -1.32062 0
M  V30 28734 N 2646.9 6.98903 -0.669228 0
M  V30 28735 H 2651.74 2.58393 -1.48448 0
M  V30 28736 H 2649.28 1.26959 -0.742958 0
M  V30 28737 H 2651.23 4.14879 0.439484 0
M  V30 28738 H 2649.86 3.10181 0.893742 0
M  V30 28739 H 2648.92 3.49857 -1.49347 0
M  V30 28740 H 2650.23 4.6692 -1.75464 0
M  V30 28741 H 2649.38 6.06532 0.142786 0
M  V30 28742 H 2648.12 4.85138 0.499197 0
M  V30 28743 H 2647.13 5.2023 -1.7788 0
M  V30 28744 H 2648.35 6.44953 -2.12631 0
M  V30 28745 H 2646.3 6.55899 0.115037 0
M  V30 28746 H 2646.21 7.43313 -1.37921 0
M  V30 28747 H 2647.48 7.79114 -0.245213 0
M  V30 28748 N 2651.71 0.801501 1.35697 0
M  V30 28749 C 2652.96 0.379494 1.98912 0
M  V30 28750 C 2653.29 -1.05201 1.63594 0
M  V30 28751 O 2652.54 -1.74363 0.888593 0
M  V30 28752 C 2652.84 0.504103 3.53827 0
M  V30 28753 C 2652.51 1.89817 4.08999 0
M  V30 28754 C 2651.17 2.27958 4.23779 0
M  V30 28755 C 2653.52 2.81045 4.38934 0
M  V30 28756 C 2650.85 3.56704 4.6581 0
M  V30 28757 C 2653.2 4.09232 4.82402 0
M  V30 28758 C 2651.86 4.47379 4.95387 0
M  V30 28759 H 2651.13 0.138867 0.727872 0
M  V30 28760 H 2653.78 1.02131 1.61993 0
M  V30 28761 H 2652.09 -0.221174 3.91175 0
M  V30 28762 H 2653.78 0.158431 4.00687 0
M  V30 28763 H 2650.37 1.59183 3.97943 0
M  V30 28764 H 2654.56 2.52829 4.27073 0
M  V30 28765 H 2649.81 3.86115 4.74052 0
M  V30 28766 H 2653.99 4.80027 5.04527 0
M  V30 28767 H 2651.61 5.47195 5.27714 0
M  V30 28768 N 2653.19 -1.47521 0.554558 0
M  V30 28769 C 2654.47 -1.95567 -0.036036 0
M  V30 28770 C 2654.85 -1.49713 -1.48826 0
M  V30 28771 O 2654.19 -0.734755 -2.16365 0
M  V30 28772 C 2654.4 -3.48837 0.106692 0
M  V30 28773 C 2655.75 -4.24581 -0.0400153 0
M  V30 28774 O 2656.78 -3.56184 0.0341079 0
M  V30 28775 O 2655.64 -5.46138 -0.199015 0
M  V30 28776 H 2652.73 -0.824393 -0.0656149 0
M  V30 28777 H 2655.28 -1.57934 0.620894 0
M  V30 28778 H 2654.05 -3.75008 1.11734 0
M  V30 28779 H 2653.67 -3.93229 -0.587971 0
M  V30 28780 N 2654.67 -0.290879 -1.54892 0
M  V30 28781 C 2656.08 0.203783 -1.85585 0
M  V30 28782 C 2656.43 1.5422 -1.21287 0
M  V30 28783 O 2655.55 2.1038 -0.506878 0
M  V30 28784 C 2656.15 0.376535 -3.36701 0
M  V30 28785 C 2654.71 0.815421 -3.67461 0
M  V30 28786 C 2653.86 -0.0821574 -2.77178 0
M  V30 28787 H 2656.81 -0.512202 -1.50207 0
M  V30 28788 H 2656.83 1.21269 -3.60658 0
M  V30 28789 H 2656.34 -0.597738 -3.83469 0
M  V30 28790 H 2654.44 1.80061 -3.26204 0
M  V30 28791 H 2654.55 0.641822 -4.74781 0
M  V30 28792 H 2652.92 0.436851 -2.50926 0
M  V30 28793 H 2653.7 -1.0526 -3.26765 0
M  V30 28794 N 2656.15 1.57589 -0.0184203 0
M  V30 28795 C 2657.42 1.82623 0.700589 0
M  V30 28796 C 2657.8 0.900084 1.90949 0
M  V30 28797 O 2657.15 -0.0468744 2.28452 0
M  V30 28798 C 2657.36 3.31577 1.08893 0
M  V30 28799 C 2658.71 3.97782 1.48507 0
M  V30 28800 O 2659.73 3.36009 1.18221 0
M  V30 28801 O 2658.59 5.06636 2.04894 0
M  V30 28802 H 2655.69 0.752639 0.34273 0
M  V30 28803 H 2658.23 1.6964 -0.0452846 0
M  V30 28804 H 2657 3.90635 0.228044 0
M  V30 28805 H 2656.63 3.49628 1.89331 0
M  V30 28806 N 2657.62 -0.254594 1.5553 0
M  V30 28807 C 2658.59 -1.29842 1.88875 0
M  V30 28808 C 2659.59 -1.41458 0.764616 0
M  V30 28809 O 2660.78 -1.40291 1.03267 0
M  V30 28810 C 2657.91 -2.67725 2.11036 0
M  V30 28811 H 2659.1 -1.01497 2.82203 0
M  V30 28812 H 2656.65 -0.49353 1.48304 0
M  V30 28813 H 2657.39 -3.01221 1.20151 0
M  V30 28814 H 2657.17 -2.60677 2.92899 0
M  V30 28815 H 2658.66 -3.4311 2.38044 0
M  V30 28816 N 2659.1 -1.48777 -0.519925 0
M  V30 28817 C 2660.33 -1.60984 -1.29968 0
M  V30 28818 C 2660.74 -0.273917 -1.86802 0
M  V30 28819 O 2660.1 0.738164 -1.66905 0
M  V30 28820 C 2660.15 -2.6642 -2.44342 0
M  V30 28821 O 2659.87 -3.94828 -1.89848 0
M  V30 28822 C 2661.37 -2.89159 -3.36009 0
M  V30 28823 H 2658.59 -0.542503 -0.394882 0
M  V30 28824 H 2661.14 -1.94677 -0.62618 0
M  V30 28825 H 2659.29 -2.35557 -3.07557 0
M  V30 28826 H 2659.71 -4.52755 -2.6479 0
M  V30 28827 H 2661.18 -3.6671 -4.12586 0
M  V30 28828 H 2661.66 -1.98358 -3.91855 0
M  V30 28829 H 2662.26 -3.21364 -2.78577 0
M  V30 28830 N 2660.58 0.769564 -1.37534 0
M  V30 28831 C 2661.51 1.89212 -1.29351 0
M  V30 28832 C 2662.52 1.61455 -0.208871 0
M  V30 28833 O 2663.71 1.72332 -0.465188 0
M  V30 28834 C 2660.81 3.24491 -0.977706 0
M  V30 28835 C 2659.99 3.79876 -2.16824 0
M  V30 28836 C 2659.05 4.93635 -1.82238 0
M  V30 28837 O 2658.07 5.09106 -2.54557 0
M  V30 28838 N 2659.27 5.754 -0.767798 0
M  V30 28839 H 2662.04 1.96747 -2.26077 0
M  V30 28840 H 2659.6 0.948772 -1.31187 0
M  V30 28841 H 2661.59 3.98114 -0.727135 0
M  V30 28842 H 2660.16 3.12443 -0.0989326 0
M  V30 28843 H 2659.38 2.98005 -2.58043 0
M  V30 28844 H 2660.67 4.13612 -2.96315 0
M  V30 28845 H 2660.07 5.65451 -0.167726 0
M  V30 28846 H 2658.62 6.4924 -0.577087 0
M  V30 28847 N 2662.06 1.22139 0.995977 0
M  V30 28848 C 2663.31 1.04409 1.73508 0
M  V30 28849 C 2663.63 -0.42121 1.89884 0
M  V30 28850 O 2662.89 -1.32865 1.43685 0
M  V30 28851 C 2663.19 1.69685 3.1455 0
M  V30 28852 C 2662.85 3.19571 3.18097 0
M  V30 28853 C 2661.52 3.60469 3.18772 0
M  V30 28854 C 2663.87 4.15522 3.14629 0
M  V30 28855 C 2661.2 4.95807 3.13676 0
M  V30 28856 C 2663.55 5.50832 3.11074 0
M  V30 28857 C 2662.21 5.91115 3.10063 0
M  V30 28858 H 2661.48 0.382061 0.63491 0
M  V30 28859 H 2664.13 1.51859 1.16667 0
M  V30 28860 H 2662.43 1.14553 3.7468 0
M  V30 28861 H 2664.13 1.5346 3.70474 0
M  V30 28862 H 2660.72 2.87003 3.18319 0
M  V30 28863 H 2664.9 3.84944 3.1326 0
M  V30 28864 H 2660.16 5.26253 3.11236 0
M  V30 28865 H 2664.33 6.24909 3.07346 0
M  V30 28866 H 2661.96 6.95951 3.05869 0
M  V30 28867 N 2663.54 -1.19233 1.03059 0
M  V30 28868 C 2664.79 -1.88285 0.723293 0
M  V30 28869 C 2665.1 -1.80596 -0.751301 0
M  V30 28870 O 2666.3 -2.44914 -1.17172 0
M  V30 28871 C 2664.76 -3.37738 1.24344 0
M  V30 28872 C 2664.37 -3.53981 2.74594 0
M  V30 28873 C 2666.11 -4.12256 1.01221 0
M  V30 28874 C 2664.02 -4.97336 3.20017 0
M  V30 28875 H 2662.95 -0.705196 0.266861 0
M  V30 28876 H 2665.6 -1.34793 1.24511 0
M  V30 28877 H 2663.98 -3.90637 0.649526 0
M  V30 28878 H 2665.16 -3.11402 3.39655 0
M  V30 28879 H 2663.47 -2.92854 2.96016 0
M  V30 28880 H 2666.07 -5.17976 1.32684 0
M  V30 28881 H 2666.41 -4.16269 -0.0509279 0
M  V30 28882 H 2666.94 -3.65499 1.57021 0
M  V30 28883 H 2663.68 -4.98485 4.25667 0
M  V30 28884 H 2663.2 -5.4067 2.59685 0
M  V30 28885 H 2664.88 -5.65998 3.13457 0
M  V30 28886 N 2665.01 -0.808686 -1.3527 0
M  V30 28887 C 2665.92 -0.222121 -2.33546 0
M  V30 28888 C 2666.94 0.635982 -1.61961 0
M  V30 28889 O 2668.12 0.547239 -1.93823 0
M  V30 28890 C 2665.18 0.61789 -3.4115 0
M  V30 28891 C 2664.24 -0.26095 -4.28506 0
M  V30 28892 C 2663.48 0.539063 -5.30971 0
M  V30 28893 O 2663.7 1.77358 -5.42126 0
M  V30 28894 O 2662.63 -0.0711584 -6.01858 0
M  V30 28895 H 2666.46 -1.03517 -2.85514 0
M  V30 28896 H 2664.04 -0.570519 -1.38078 0
M  V30 28897 H 2665.93 1.09627 -4.0689 0
M  V30 28898 H 2664.6 1.4085 -2.9145 0
M  V30 28899 H 2663.51 -0.786516 -3.65739 0
M  V30 28900 H 2664.84 -1.01556 -4.81609 0
M  V30 28901 N 2666.49 1.47225 -0.562374 0
M  V30 28902 C 2667.72 2.06551 -0.0451982 0
M  V30 28903 C 2668.13 1.41475 1.25624 0
M  V30 28904 O 2667.47 0.507092 1.76562 0
M  V30 28905 C 2667.54 3.5885 0.216005 0
M  V30 28906 C 2667.2 4.45997 -0.996769 0
M  V30 28907 C 2668.2 4.83794 -1.90367 0
M  V30 28908 C 2665.88 4.87436 -1.2129 0
M  V30 28909 C 2667.88 5.61834 -3.01033 0
M  V30 28910 C 2665.56 5.6524 -2.32265 0
M  V30 28911 C 2666.56 6.02351 -3.21967 0
M  V30 28912 O 2666.25 6.78586 -4.31017 0
M  V30 28913 H 2665.98 0.674489 -0.0451764 0
M  V30 28914 H 2668.53 1.90142 -0.776876 0
M  V30 28915 H 2666.76 3.73491 1.00205 0
M  V30 28916 H 2668.45 4.00177 0.679193 0
M  V30 28917 H 2669.22 4.52375 -1.74876 0
M  V30 28918 H 2665.1 4.58014 -0.523848 0
M  V30 28919 H 2668.64 5.90719 -3.71075 0
M  V30 28920 H 2664.54 5.96072 -2.47726 0
M  V30 28921 H 2665.31 6.96986 -4.2913 0
M  V30 28922 N 2667.97 0.299089 1.54736 0
M  V30 28923 C 2669.21 -0.311644 2.0201 0
M  V30 28924 C 2669.57 -1.51238 1.18284 0
M  V30 28925 O 2670.78 -2.19435 1.55247 0
M  V30 28926 C 2669.05 -0.661165 3.51231 0
M  V30 28927 S 2670.61 -1.25503 4.20469 0
M  V30 28928 H 2667.42 -0.0957393 0.704525 0
M  V30 28929 H 2670.03 0.426515 1.90791 0
M  V30 28930 H 2668.73 0.221243 4.09803 0
M  V30 28931 H 2668.26 -1.43017 3.66483 0
M  V30 28932 H 2670.28 -2.5429 4.26088 0
M  V30 28933 N 2669.45 -1.57577 0.0267774 0
M  V30 28934 C 2670.4 -2.10076 -0.955858 0
M  V30 28935 C 2671.37 -1.00229 -1.32452 0
M  V30 28936 O 2672.55 -1.27635 -1.41824 0
M  V30 28937 C 2669.69 -2.63054 -2.23376 0
M  V30 28938 C 2668.8 -3.86901 -1.92176 0
M  V30 28939 C 2667.94 -4.28281 -3.14244 0
M  V30 28940 C 2666.98 -5.44893 -2.78852 0
M  V30 28941 N 2666.11 -5.8144 -3.93538 0
M  V30 28942 H 2670.95 -2.93754 -0.501251 0
M  V30 28943 H 2668.49 -1.45197 -0.235821 0
M  V30 28944 H 2670.45 -2.91858 -2.98118 0
M  V30 28945 H 2669.08 -1.8221 -2.66457 0
M  V30 28946 H 2668.13 -3.6484 -1.07685 0
M  V30 28947 H 2669.44 -4.71723 -1.62108 0
M  V30 28948 H 2668.6 -4.58509 -3.97309 0
M  V30 28949 H 2667.34 -3.42222 -3.4747 0
M  V30 28950 H 2666.34 -5.1436 -1.94199 0
M  V30 28951 H 2667.57 -6.32649 -2.46844 0
M  V30 28952 H 2665.51 -4.98336 -4.26611 0
M  V30 28953 H 2665.43 -6.60896 -3.67087 0
M  V30 28954 H 2666.7 -6.16273 -4.77314 0
M  V30 28955 N 2670.93 0.246342 -1.55663 0
M  V30 28956 C 2671.86 1.3087 -1.93379 0
M  V30 28957 C 2672.84 1.50177 -0.798799 0
M  V30 28958 O 2674.02 1.62776 -1.05913 0
M  V30 28959 C 2671.15 2.66334 -2.22897 0
M  V30 28960 C 2670.11 2.61721 -3.38653 0
M  V30 28961 C 2669.43 4.00986 -3.53715 0
M  V30 28962 C 2670.73 2.18658 -4.74327 0
M  V30 28963 H 2672.43 0.995502 -2.82365 0
M  V30 28964 H 2669.97 0.47744 -1.35855 0
M  V30 28965 H 2671.93 3.4079 -2.47872 0
M  V30 28966 H 2670.65 2.99291 -1.30738 0
M  V30 28967 H 2669.31 1.89723 -3.13689 0
M  V30 28968 H 2668.96 4.31209 -2.58975 0
M  V30 28969 H 2668.66 3.98787 -4.31558 0
M  V30 28970 H 2670.18 4.7714 -3.81011 0
M  V30 28971 H 2671.59 2.82845 -4.9867 0
M  V30 28972 H 2669.99 2.27569 -5.55277 0
M  V30 28973 H 2671.06 1.13826 -4.71351 0
M  V30 28974 N 2672.4 1.4905 0.512027 0
M  V30 28975 C 2673.37 1.64402 1.59702 0
M  V30 28976 C 2674.37 0.516344 1.52284 0
M  V30 28977 O 2675.56 0.782554 1.55633 0
M  V30 28978 C 2672.69 1.63107 2.99347 0
M  V30 28979 H 2673.88 2.61164 1.47423 0
M  V30 28980 H 2671.44 1.37916 0.735445 0
M  V30 28981 H 2672.17 0.678891 3.17114 0
M  V30 28982 H 2671.96 2.44992 3.0614 0
M  V30 28983 H 2673.45 1.77079 3.78197 0
M  V30 28984 N 2673.88 -0.762259 1.3794 0
M  V30 28985 C 2675.16 -1.5111 1.24198 0
M  V30 28986 C 2675.54 -2.1049 -0.160372 0
M  V30 28987 O 2674.89 -1.96333 -1.169 0
M  V30 28988 C 2675.1 -2.5844 2.34541 0
M  V30 28989 C 2676.45 -3.25583 2.72545 0
M  V30 28990 O 2677.47 -2.68741 2.33788 0
M  V30 28991 O 2676.33 -4.28373 3.3935 0
M  V30 28992 H 2673.42 -0.669718 0.485187 0
M  V30 28993 H 2675.97 -0.798412 1.49745 0
M  V30 28994 H 2674.74 -2.1275 3.2841 0
M  V30 28995 H 2674.36 -3.37299 2.10511 0
M  V30 28996 N 2675.36 -1.22666 -0.989486 0
M  V30 28997 C 2676.61 -1.05328 -1.72952 0
M  V30 28998 C 2676.94 0.411134 -1.90105 0
M  V30 28999 O 2676.19 1.32101 -1.44388 0
M  V30 29000 C 2676.49 -1.71351 -3.13646 0
M  V30 29001 C 2676.16 -3.21253 -3.16397 0
M  V30 29002 C 2674.82 -3.62155 -3.16855 0
M  V30 29003 C 2677.17 -4.17184 -3.12421 0
M  V30 29004 C 2674.5 -4.97463 -3.11042 0
M  V30 29005 C 2676.85 -5.52474 -3.08149 0
M  V30 29006 C 2675.51 -5.92751 -3.06924 0
M  V30 29007 H 2674.78 -0.385423 -0.632875 0
M  V30 29008 H 2677.43 -1.52475 -1.1586 0
M  V30 29009 H 2675.74 -1.16538 -3.74067 0
M  V30 29010 H 2677.43 -1.55423 -3.69655 0
M  V30 29011 H 2674.02 -2.88687 -3.16793 0
M  V30 29012 H 2678.21 -3.866 -3.11214 0
M  V30 29013 H 2673.46 -5.27896 -3.08441 0
M  V30 29014 H 2677.64 -6.2653 -3.04028 0
M  V30 29015 H 2675.26 -6.97563 -3.02174 0
M  V30 29016 N 2676.84 1.18685 -1.0369 0
M  V30 29017 C 2677.8 2.20396 -0.629154 0
M  V30 29018 C 2678.8 1.57755 0.311467 0
M  V30 29019 O 2679.99 1.73928 0.0973801 0
M  V30 29020 C 2677.12 3.4081 0.0781632 0
M  V30 29021 H 2678.32 2.57984 -1.52919 0
M  V30 29022 H 2675.87 1.32503 -0.829011 0
M  V30 29023 H 2676.61 3.0875 0.992178 0
M  V30 29024 H 2676.39 3.87515 -0.597845 0
M  V30 29025 H 2677.88 4.1613 0.350082 0
M  V30 29026 N 2678.32 0.815849 1.34839 0
M  V30 29027 C 2679.59 0.32345 1.92907 0
M  V30 29028 C 2679.97 -1.18825 1.74481 0
M  V30 29029 O 2679.32 -1.99207 1.11932 0
M  V30 29030 C 2679.53 0.745012 3.40955 0
M  V30 29031 C 2680.88 0.739789 4.18106 0
M  V30 29032 O 2681.9 0.687141 3.49509 0
M  V30 29033 O 2680.76 0.806551 5.40516 0
M  V30 29034 H 2677.86 0.086779 0.822434 0
M  V30 29035 H 2680.4 0.900166 1.43858 0
M  V30 29036 H 2679.18 1.78652 3.48137 0
M  V30 29037 H 2678.8 0.143605 3.97341 0
M  V30 29038 N 2679.8 -1.46924 0.570174 0
M  V30 29039 C 2680.76 -2.28642 -0.159893 0
M  V30 29040 C 2681.76 -1.37686 -0.830614 0
M  V30 29041 O 2682.95 -1.60189 -0.684487 0
M  V30 29042 C 2680.08 -3.17729 -1.23535 0
M  V30 29043 H 2681.27 -2.94661 0.558087 0
M  V30 29044 H 2678.83 -1.52828 0.32763 0
M  V30 29045 H 2679.56 -2.56429 -1.98531 0
M  V30 29046 H 2679.35 -3.84683 -0.759058 0
M  V30 29047 H 2680.84 -3.79267 -1.74775 0
M  V30 29048 N 2681.27 -0.307291 -1.54575 0
M  V30 29049 C 2682.2 0.55903 -2.26709 0
M  V30 29050 C 2683.18 1.13277 -1.26895 0
M  V30 29051 O 2684.37 1.16094 -1.55679 0
M  V30 29052 C 2681.5 1.72796 -3.01262 0
M  V30 29053 C 2680.45 1.28428 -4.08277 0
M  V30 29054 C 2679.78 2.53887 -4.7058 0
M  V30 29055 C 2681.08 0.410946 -5.20681 0
M  V30 29056 H 2682.77 -0.0426286 -2.9937 0
M  V30 29057 H 2680.32 -0.0219426 -1.43983 0
M  V30 29058 H 2682.27 2.34017 -3.50448 0
M  V30 29059 H 2681 2.35596 -2.26191 0
M  V30 29060 H 2679.66 0.695098 -3.5995 0
M  V30 29061 H 2679.3 3.15015 -3.92141 0
M  V30 29062 H 2679 2.24899 -5.42858 0
M  V30 29063 H 2680.53 3.15899 -5.22532 0
M  V30 29064 H 2681.94 0.928997 -5.65723 0
M  V30 29065 H 2680.34 0.214559 -5.99716 0
M  V30 29066 H 2681.41 -0.562372 -4.81628 0
M  V30 29067 N 2682.75 1.57561 -0.0351337 0
M  V30 29068 C 2683.66 2.14047 0.960257 0
M  V30 29069 C 2684.68 1.09422 1.35288 0
M  V30 29070 O 2685.85 1.4151 1.43307 0
M  V30 29071 C 2682.92 2.66128 2.22209 0
M  V30 29072 C 2681.98 3.8549 1.88933 0
M  V30 29073 C 2681.21 4.35077 3.09101 0
M  V30 29074 O 2681.44 3.83809 4.21956 0
M  V30 29075 O 2680.37 5.26853 2.91048 0
M  V30 29076 H 2684.2 2.99388 0.509931 0
M  V30 29077 H 2681.78 1.4824 0.185827 0
M  V30 29078 H 2683.66 2.99666 2.96274 0
M  V30 29079 H 2682.34 1.83866 2.66411 0
M  V30 29080 H 2681.24 3.56867 1.12234 0
M  V30 29081 H 2682.58 4.68933 1.49543 0
M  V30 29082 N 2684.23 -0.238084 1.55791 0
M  V30 29083 C 2685.18 -1.29799 1.87446 0
M  V30 29084 C 2686.16 -1.43076 0.736069 0
M  V30 29085 O 2687.36 -1.4617 0.998171 0
M  V30 29086 C 2684.48 -2.65173 2.18032 0
M  V30 29087 C 2683.57 -2.55865 3.38222 0
M  V30 29088 N 2683.96 -2.16194 4.57268 0
M  V30 29089 C 2682.26 -2.8686 3.41508 0
M  V30 29090 C 2682.96 -2.17734 5.39413 0
M  V30 29091 N 2681.94 -2.57581 4.78699 0
M  V30 29092 H 2685.74 -0.981916 2.77012 0
M  V30 29093 H 2683.25 -0.446692 1.56136 0
M  V30 29094 H 2685.25 -3.41676 2.38879 0
M  V30 29095 H 2683.91 -2.9764 1.2977 0
M  V30 29096 H 2684.92 -1.87594 4.82731 0
M  V30 29097 H 2681.6 -3.23809 2.63542 0
M  V30 29098 H 2682.99 -1.89328 6.44674 0
M  V30 29099 N 2685.71 -1.4932 -0.504115 0
M  V30 29100 C 2687.12 -1.51887 -1.08569 0
M  V30 29101 C 2687.47 -0.303289 -1.93842 0
M  V30 29102 O 2686.59 0.587203 -2.08281 0
M  V30 29103 C 2687.19 -2.75231 -1.97569 0
M  V30 29104 C 2685.75 -2.80586 -2.50895 0
M  V30 29105 C 2684.9 -2.45759 -1.28443 0
M  V30 29106 H 2687.85 -1.56062 -0.288167 0
M  V30 29107 H 2687.87 -2.55216 -2.82215 0
M  V30 29108 H 2687.38 -3.63685 -1.35479 0
M  V30 29109 H 2685.48 -1.96404 -3.16633 0
M  V30 29110 H 2685.59 -3.82678 -2.88261 0
M  V30 29111 H 2683.96 -1.97471 -1.60864 0
M  V30 29112 H 2684.74 -3.36485 -0.680661 0
M  V30 29113 N 2687.19 0.754933 -1.38342 0
M  V30 29114 C 2688.12 1.88225 -1.3818 0
M  V30 29115 C 2689.1 1.68284 -0.247902 0
M  V30 29116 O 2690.28 1.88896 -0.450784 0
M  V30 29117 C 2687.41 3.25734 -1.20477 0
M  V30 29118 C 2686.37 3.60274 -2.31056 0
M  V30 29119 C 2685.69 4.96505 -1.9846 0
M  V30 29120 C 2686.99 3.65289 -3.73312 0
M  V30 29121 H 2688.69 1.88618 -2.32516 0
M  V30 29122 H 2686.23 0.906062 -1.11922 0
M  V30 29123 H 2688.18 4.04252 -1.18989 0
M  V30 29124 H 2686.91 3.25817 -0.226023 0
M  V30 29125 H 2685.57 2.84074 -2.31728 0
M  V30 29126 H 2685.22 4.93147 -0.990728 0
M  V30 29127 H 2684.92 5.20584 -2.72519 0
M  V30 29128 H 2686.44 5.77404 -1.98588 0
M  V30 29129 H 2687.85 4.33923 -3.74678 0
M  V30 29130 H 2686.25 4.00875 -4.46564 0
M  V30 29131 H 2687.32 2.65549 -4.05724 0
M  V30 29132 N 2688.66 1.23189 0.982967 0
M  V30 29133 C 2690.08 0.993989 1.24868 0
M  V30 29134 C 2690.28 -0.306463 1.99156 0
M  V30 29135 O 2689.34 -1.02656 2.3069 0
M  V30 29136 C 2690.65 2.1992 2.05074 0
M  V30 29137 C 2692.2 2.24383 2.18223 0
M  V30 29138 C 2692.67 3.44484 3.01819 0
M  V30 29139 N 2694.16 3.44707 3.09404 0
M  V30 29140 C 2694.9 4.34291 3.74405 0
M  V30 29141 N 2694.39 5.34108 4.41249 0
M  V30 29142 N 2696.19 4.22041 3.71265 0
M  V30 29143 H 2688.34 2.06783 0.485217 0
M  V30 29144 H 2690.6 0.90664 0.276963 0
M  V30 29145 H 2690.31 3.14281 1.57861 0
M  V30 29146 H 2690.18 2.20795 3.05825 0
M  V30 29147 H 2692.57 1.30564 2.64645 0
M  V30 29148 H 2692.65 2.27542 1.16869 0
M  V30 29149 H 2692.29 4.3861 2.56094 0
M  V30 29150 H 2692.22 3.38566 4.03336 0
M  V30 29151 H 2694.71 2.72485 2.61841 0
M  V30 29152 H 2695.03 5.98725 4.88618 0
M  V30 29153 H 2693.37 5.3801 4.39966 0
M  V30 29154 H 2696.56 3.43307 3.18211 0
M  V30 29155 H 2696.74 4.9206 4.21641 0
M  V30 29156 N 2690.14 -1.18133 1.04318 0
M  V30 29157 C 2691.39 -1.88455 0.749161 0
M  V30 29158 C 2691.72 -1.80301 -0.721459 0
M  V30 29159 O 2691 -1.20502 -1.52674 0
M  V30 29160 C 2691.28 -3.38836 1.21911 0
M  V30 29161 C 2691.13 -3.55787 2.75201 0
M  V30 29162 C 2692.45 -4.3256 0.811161 0
M  V30 29163 H 2689.57 -0.684324 0.273624 0
M  V30 29164 H 2692.21 -1.38973 1.29563 0
M  V30 29165 H 2690.36 -3.81109 0.754204 0
M  V30 29166 H 2692.03 -3.22589 3.29748 0
M  V30 29167 H 2690.28 -2.98358 3.14905 0
M  V30 29168 H 2690.95 -4.61312 3.03143 0
M  V30 29169 H 2693.42 -3.9808 1.21125 0
M  V30 29170 H 2692.3 -5.36336 1.1677 0
M  V30 29171 H 2692.56 -4.41177 -0.285518 0
M  V30 29172 N 2691.62 -0.822988 -1.34405 0
M  V30 29173 C 2693.03 -0.469911 -1.8069 0
M  V30 29174 C 2693.38 1.0097 -1.68225 0
M  V30 29175 O 2692.51 1.78575 -1.22229 0
M  V30 29176 C 2693.1 -0.846176 -3.28063 0
M  V30 29177 C 2691.66 -0.545468 -3.72427 0
M  V30 29178 C 2690.81 -1.06305 -2.56114 0
M  V30 29179 H 2693.76 -1.01315 -1.22151 0
M  V30 29180 H 2693.78 -0.149989 -3.80204 0
M  V30 29181 H 2693.29 -1.9231 -3.37103 0
M  V30 29182 H 2691.39 0.522044 -3.68925 0
M  V30 29183 H 2691.51 -1.08958 -4.66546 0
M  V30 29184 H 2689.87 -0.484598 -2.50047 0
M  V30 29185 H 2690.65 -2.14642 -2.67925 0
M  V30 29186 N 2693.1 1.4662 -0.577957 0
M  V30 29187 C 2694.05 2.30258 0.158008 0
M  V30 29188 C 2695.02 1.40329 0.888645 0
M  V30 29189 O 2696.2 1.69281 0.880253 0
M  V30 29190 C 2693.34 3.24705 1.16879 0
M  V30 29191 C 2692.45 4.29732 0.442088 0
M  V30 29192 C 2691.59 5.1131 1.43998 0
M  V30 29193 C 2690.63 6.08091 0.699413 0
M  V30 29194 N 2689.76 6.82554 1.64513 0
M  V30 29195 H 2694.6 2.92666 -0.561294 0
M  V30 29196 H 2692.14 1.44241 -0.288616 0
M  V30 29197 H 2694.1 3.77903 1.76763 0
M  V30 29198 H 2692.73 2.64117 1.85586 0
M  V30 29199 H 2691.78 3.79428 -0.271699 0
M  V30 29200 H 2693.09 4.98612 -0.13708 0
M  V30 29201 H 2692.25 5.68762 2.11176 0
M  V30 29202 H 2690.99 4.4238 2.05307 0
M  V30 29203 H 2689.99 5.49798 0.0138251 0
M  V30 29204 H 2691.22 6.79038 0.0917746 0
M  V30 29205 H 2689.16 6.16338 2.24642 0
M  V30 29206 H 2689.08 7.47678 1.11865 0
M  V30 29207 H 2690.35 7.44566 2.30741 0
M  V30 29208 N 2694.58 0.315484 1.5441 0
M  V30 29209 C 2695.99 -0.174233 1.85885 0
M  V30 29210 C 2696.34 -1.52271 1.23726 0
M  V30 29211 O 2695.46 -2.09547 0.540283 0
M  V30 29212 C 2696.06 -0.322922 3.37258 0
M  V30 29213 C 2694.62 -0.756857 3.68712 0
M  V30 29214 C 2693.76 0.126244 2.77012 0
M  V30 29215 H 2696.72 0.536034 1.49373 0
M  V30 29216 H 2696.74 -1.15516 3.62541 0
M  V30 29217 H 2696.25 0.658669 3.8247 0
M  V30 29218 H 2694.35 -1.74848 3.29027 0
M  V30 29219 H 2694.46 -0.566207 4.75742 0
M  V30 29220 H 2692.83 -0.396875 2.51589 0
M  V30 29221 H 2693.61 1.10445 3.25049 0
M  V30 29222 N 2696.05 -1.5754 0.0434891 0
M  V30 29223 C 2697 -2.12251 -0.951427 0
M  V30 29224 C 2698 -1.05247 -1.32738 0
M  V30 29225 O 2699.2 -1.23665 -1.30793 0
M  V30 29226 H 2695.58 -0.678309 -0.324656 0
M  V30 29227 H 2697.55 -2.94758 -0.464803 0
M  V30 29228 C 2696.3 -2.6763 -2.21967 0
M  V30 29229 H 2695.62 -3.49623 -1.93917 0
M  V30 29230 H 2697.06 -3.09541 -2.89759 0
M  V30 29231 C 2695.52 -1.61044 -2.95917 0
M  V30 29232 O 2696.05 -1.01869 -3.88569 0
M  V30 29233 N 2694.26 -1.32746 -2.58509 0
M  V30 29234 H 2693.8 -1.81054 -1.83241 0
M  V30 29235 H 2693.76 -0.616586 -3.08295 0
M  V30 29236 N 2697.53 0.229818 -1.55915 0
M  V30 29237 C 2698.76 0.97253 -1.82618 0
M  V30 29238 C 2699.18 1.78277 -0.62152 0
M  V30 29239 O 2698.53 1.77837 0.409925 0
M  V30 29240 C 2698.58 1.89674 -3.07744 0
M  V30 29241 O 2698.3 1.11926 -4.23561 0
M  V30 29242 C 2699.81 2.75403 -3.47373 0
M  V30 29243 H 2697.03 0.285408 -0.607275 0
M  V30 29244 H 2699.57 0.247543 -2.02996 0
M  V30 29245 H 2697.72 2.57578 -2.89365 0
M  V30 29246 H 2698.14 1.7459 -4.94589 0
M  V30 29247 H 2699.61 3.35969 -4.37982 0
M  V30 29248 H 2700.09 3.47381 -2.68743 0
M  V30 29249 H 2700.7 2.12925 -3.68162 0
M  V30 29250 N 2699.01 1.49585 0.49619 0
M  V30 29251 C 2700.26 1.58561 1.24665 0
M  V30 29252 C 2700.57 0.279737 1.93589 0
M  V30 29253 O 2701.78 0.248095 2.70364 0
M  V30 29254 C 2700.23 2.79783 2.26384 0
M  V30 29255 C 2699.84 4.17148 1.63377 0
M  V30 29256 C 2701.59 2.98091 3.02228 0
M  V30 29257 C 2699.49 5.29587 2.63234 0
M  V30 29258 H 2698.42 0.590397 0.468985 0
M  V30 29259 H 2701.07 1.75979 0.519954 0
M  V30 29260 H 2699.46 2.55869 3.02237 0
M  V30 29261 H 2700.63 4.51218 0.934831 0
M  V30 29262 H 2698.95 4.04237 0.99905 0
M  V30 29263 H 2701.54 3.79264 3.76913 0
M  V30 29264 H 2701.89 2.08838 3.60129 0
M  V30 29265 H 2702.42 3.22067 2.3349 0
M  V30 29266 H 2699.16 6.20915 2.10108 0
M  V30 29267 H 2698.68 4.99965 3.31354 0
M  V30 29268 H 2700.36 5.59121 3.25566 0
M  V30 29269 N 2700.49 -0.747586 1.3874 0
M  V30 29270 C 2701.4 -1.89208 1.38699 0
M  V30 29271 C 2702.41 -1.71678 0.283333 0
M  V30 29272 O 2703.59 -1.94498 0.522748 0
M  V30 29273 C 2700.66 -3.24651 1.21667 0
M  V30 29274 C 2699.72 -3.54664 2.41892 0
M  V30 29275 C 2698.95 -4.83644 2.25663 0
M  V30 29276 O 2699.17 -5.56457 1.25348 0
M  V30 29277 O 2698.11 -5.13272 3.14381 0
M  V30 29278 H 2701.93 -1.92198 2.35146 0
M  V30 29279 H 2699.52 -0.893687 1.19723 0
M  V30 29280 H 2701.4 -4.05616 1.14253 0
M  V30 29281 H 2700.07 -3.2246 0.283081 0
M  V30 29282 H 2698.98 -2.73836 2.54882 0
M  V30 29283 H 2700.31 -3.61622 3.33902 0
M  V30 29284 N 2701.97 -1.23709 -0.97642 0
M  V30 29285 C 2702.9 -1.04627 -2.08747 0
M  V30 29286 C 2703.88 0.0380657 -1.70057 0
M  V30 29287 O 2705.06 -0.127342 -1.93782 0
M  V30 29288 C 2702.19 -0.640962 -3.41334 0
M  V30 29289 C 2701.15 -1.67309 -3.93944 0
M  V30 29290 C 2700.47 -1.1231 -5.22772 0
M  V30 29291 C 2701.77 -3.06705 -4.22764 0
M  V30 29292 H 2703.47 -1.97559 -2.24968 0
M  V30 29293 H 2701.01 -0.951266 -1.08106 0
M  V30 29294 H 2702.97 -0.494507 -4.18488 0
M  V30 29295 H 2701.69 0.324042 -3.24989 0
M  V30 29296 H 2700.35 -1.80761 -3.18937 0
M  V30 29297 H 2700 -0.148965 -5.02779 0
M  V30 29298 H 2699.7 -1.81277 -5.58939 0
M  V30 29299 H 2701.22 -0.988585 -6.02544 0
M  V30 29300 H 2702.63 -2.96532 -4.90654 0
M  V30 29301 H 2701.03 -3.72945 -4.7014 0
M  V30 29302 H 2702.1 -3.55398 -3.29879 0
M  V30 29303 N 2703.44 1.17579 -1.04943 0
M  V30 29304 C 2704.69 1.87111 -0.753156 0
M  V30 29305 C 2705.01 1.81768 0.722475 0
M  V30 29306 O 2706.21 2.46748 1.1326 0
M  V30 29307 C 2704.67 3.35717 -1.29701 0
M  V30 29308 C 2704.28 3.49567 -2.8019 0
M  V30 29309 C 2706.02 4.10593 -1.07767 0
M  V30 29310 C 2703.93 4.92182 -3.27889 0
M  V30 29311 H 2702.86 0.700861 -0.278046 0
M  V30 29312 H 2705.51 1.32795 -1.2664 0
M  V30 29313 H 2703.89 3.89554 -0.711591 0
M  V30 29314 H 2705.06 3.05959 -3.44566 0
M  V30 29315 H 2703.38 2.88108 -3.00637 0
M  V30 29316 H 2705.98 5.158 -1.40908 0
M  V30 29317 H 2706.32 4.16297 -0.0153033 0
M  V30 29318 H 2706.85 3.62954 -1.62816 0
M  V30 29319 H 2703.59 4.9165 -4.33544 0
M  V30 29320 H 2703.11 5.3647 -2.68254 0
M  V30 29321 H 2704.79 5.60939 -3.22422 0
M  V30 29322 N 2704.92 0.830104 1.33967 0
M  V30 29323 C 2705.89 0.26239 2.27693 0
M  V30 29324 C 2706.89 -0.563849 1.5059 0
M  V30 29325 O 2708.08 -0.378911 1.70029 0
M  V30 29326 C 2705.21 -0.631321 3.35003 0
M  V30 29327 H 2706.4 1.08933 2.79417 0
M  V30 29328 H 2703.95 0.602512 1.4422 0
M  V30 29329 H 2704.69 -1.48104 2.88506 0
M  V30 29330 H 2704.47 -0.0402587 3.92079 0
M  V30 29331 H 2705.96 -1.0221 4.04899 0
M  V30 29332 N 2706.4 -1.46311 0.585725 0
M  V30 29333 C 2707.33 -2.27372 -0.194217 0
M  V30 29334 C 2708.31 -1.35811 -0.894092 0
M  V30 29335 O 2709.5 -1.65224 -0.907373 0
M  V30 29336 C 2706.62 -3.13625 -1.27896 0
M  V30 29337 C 2705.67 -4.2097 -0.684592 0
M  V30 29338 S 2706.5 -5.33246 0.490839 0
M  V30 29339 C 2707.66 -6.23065 -0.595028 0
M  V30 29340 H 2707.89 -2.93174 0.493567 0
M  V30 29341 H 2705.42 -1.49834 0.372692 0
M  V30 29342 H 2707.38 -3.63882 -1.90001 0
M  V30 29343 H 2706.04 -2.4713 -1.9387 0
M  V30 29344 H 2705.24 -4.81159 -1.50007 0
M  V30 29345 H 2704.84 -3.73741 -0.139138 0
M  V30 29346 H 2707.13 -6.61139 -1.4799 0
M  V30 29347 H 2708.07 -7.08094 -0.0298201 0
M  V30 29348 H 2708.48 -5.57271 -0.900529 0
M  V30 29349 N 2707.88 -0.323668 -1.54241 0
M  V30 29350 C 2709.16 0.333147 -1.92742 0
M  V30 29351 C 2709.54 1.6987 -1.25329 0
M  V30 29352 O 2708.88 2.25024 -0.39703 0
M  V30 29353 C 2709.09 0.425261 -3.46399 0
M  V30 29354 C 2710.44 0.685497 -4.1903 0
M  V30 29355 O 2711.47 0.508178 -3.52556 0
M  V30 29356 O 2710.33 1.02758 -5.36752 0
M  V30 29357 H 2707.42 0.190272 -0.804814 0
M  V30 29358 H 2709.97 -0.373391 -1.65541 0
M  V30 29359 H 2708.74 -0.533805 -3.87642 0
M  V30 29360 H 2708.36 1.17937 -3.79706 0
M  V30 29361 N 2709.36 1.57515 -0.0518432 0
M  V30 29362 C 2710.29 2.14601 0.920246 0
M  V30 29363 C 2711.27 1.06785 1.32404 0
M  V30 29364 O 2712.45 1.34728 1.39864 0
M  V30 29365 C 2709.58 2.69154 2.19485 0
M  V30 29366 C 2708.54 3.81959 1.93109 0
M  V30 29367 C 2707.86 4.23031 3.2703 0
M  V30 29368 C 2709.16 5.07068 1.25217 0
M  V30 29369 H 2710.86 2.96078 0.444749 0
M  V30 29370 H 2708.4 1.42424 0.212483 0
M  V30 29371 H 2710.36 3.0773 2.87889 0
M  V30 29372 H 2709.08 1.8487 2.69241 0
M  V30 29373 H 2707.74 3.43856 1.27117 0
M  V30 29374 H 2707.39 3.35697 3.74589 0
M  V30 29375 H 2707.09 4.99061 3.1018 0
M  V30 29376 H 2708.61 4.64209 3.96665 0
M  V30 29377 H 2710.03 5.43087 1.83656 0
M  V30 29378 H 2708.42 5.88245 1.18691 0
M  V30 29379 H 2709.49 4.84362 0.228297 0
M  V30 29380 N 2710.84 -0.221546 1.56035 0
M  V30 29381 C 2712.25 -0.788538 1.69231 0
M  V30 29382 C 2712.6 -1.84985 0.653847 0
M  V30 29383 O 2711.72 -2.15519 -0.195027 0
M  V30 29384 C 2712.32 -1.43708 3.06812 0
M  V30 29385 C 2710.88 -1.95146 3.21862 0
M  V30 29386 C 2710.02 -0.811639 2.65156 0
M  V30 29387 H 2712.97 0.00310684 1.587 0
M  V30 29388 H 2713 -2.30589 3.0267 0
M  V30 29389 H 2712.51 -0.664407 3.82371 0
M  V30 29390 H 2710.61 -2.75215 2.51172 0
M  V30 29391 H 2710.72 -2.13143 4.29077 0
M  V30 29392 H 2709.09 -1.21896 2.23637 0
M  V30 29393 H 2709.87 -0.0516383 3.43261 0
M  V30 29394 N 2712.31 -1.49846 -0.48825 0
M  V30 29395 C 2713.25 -1.62072 -1.60648 0
M  V30 29396 C 2714.22 -0.469335 -1.55679 0
M  V30 29397 O 2715.41 -0.686581 -1.75551 0
M  V30 29398 C 2712.54 -1.58746 -2.99194 0
M  V30 29399 C 2711.58 -2.79238 -3.2238 0
M  V30 29400 S 2712.41 -4.40758 -3.04125 0
M  V30 29401 C 2713.57 -4.40098 -4.45044 0
M  V30 29402 H 2713.8 -2.56665 -1.50035 0
M  V30 29403 H 2711.34 -1.38895 -0.674347 0
M  V30 29404 H 2713.29 -1.57513 -3.79078 0
M  V30 29405 H 2711.96 -0.65419 -3.07212 0
M  V30 29406 H 2711.15 -2.73166 -4.23552 0
M  V30 29407 H 2710.75 -2.77949 -2.5024 0
M  V30 29408 H 2713.04 -4.12603 -5.37368 0
M  V30 29409 H 2713.99 -5.41591 -4.56163 0
M  V30 29410 H 2714.39 -3.70015 -4.2632 0
M  V30 29411 N 2713.79 0.740218 -1.39135 0
M  V30 29412 C 2715.04 1.50189 -1.36276 0
M  V30 29413 C 2715.37 1.94152 0.0429794 0
M  V30 29414 O 2714.65 1.6641 1.00688 0
M  V30 29415 C 2714.93 2.74521 -2.33046 0
M  V30 29416 C 2714.78 2.3661 -3.82539 0
M  V30 29417 C 2716.1 3.766 -2.27729 0
M  V30 29418 H 2713.22 0.544814 -0.496333 0
M  V30 29419 H 2715.86 0.846785 -1.70087 0
M  V30 29420 H 2714.01 3.30418 -2.04343 0
M  V30 29421 H 2715.68 1.86384 -4.2197 0
M  V30 29422 H 2713.93 1.68902 -3.99568 0
M  V30 29423 H 2714.6 3.25622 -4.45729 0
M  V30 29424 H 2717.07 3.30274 -2.53097 0
M  V30 29425 H 2715.95 4.61268 -2.97528 0
M  V30 29426 H 2716.21 4.23148 -1.28057 0
M  V30 29427 N 2715.27 1.24225 0.969846 0
M  V30 29428 C 2716.49 1.10857 1.75287 0
M  V30 29429 C 2716.92 -0.335046 1.85092 0
M  V30 29430 O 2716.28 -1.24253 1.32026 0
M  V30 29431 C 2716.33 1.75068 3.15252 0
M  V30 29432 O 2715.43 1.01999 3.99587 0
M  V30 29433 H 2714.77 0.387924 0.538898 0
M  V30 29434 H 2717.3 1.6449 1.21672 0
M  V30 29435 H 2717.31 1.80737 3.65784 0
M  V30 29436 H 2715.99 2.80105 3.07431 0
M  V30 29437 H 2714.56 1.041 3.58075 0
M  V30 29438 N 2716.75 -1.1702 1.05565 0
M  V30 29439 C 2718 -1.87002 0.766452 0
M  V30 29440 C 2718.32 -1.81661 -0.708822 0
M  V30 29441 O 2717.59 -1.24513 -1.5124 0
M  V30 29442 H 2716.17 -0.692324 0.280528 0
M  V30 29443 H 2718.83 -1.41943 1.3356 0
M  V30 29444 H 2717.92 -2.92642 1.08477 0
M  V30 29445 N 2718.23 -0.837197 -1.33524 0
M  V30 29446 C 2719.5 -0.354099 -1.92368 0
M  V30 29447 C 2719.88 1.16034 -1.7635 0
M  V30 29448 O 2719.23 1.97401 -1.15087 0
M  V30 29449 C 2719.44 -0.79916 -3.39727 0
M  V30 29450 C 2720.79 -0.806213 -4.16876 0
M  V30 29451 O 2721.81 -0.742658 -3.48372 0
M  V30 29452 O 2720.67 -0.89244 -5.39164 0
M  V30 29453 H 2717.77 -0.0998523 -0.82095 0
M  V30 29454 H 2720.31 -0.922938 -1.42408 0
M  V30 29455 H 2719.08 -1.84168 -3.4525 0
M  V30 29456 H 2718.71 -0.2068 -3.97062 0
M  V30 29457 N 2719.7 1.45999 -0.593476 0
M  V30 29458 C 2721.12 1.57534 -0.255992 0
M  V30 29459 C 2721.32 1.58699 1.24164 0
M  V30 29460 O 2720.38 1.50972 2.02395 0
M  V30 29461 C 2721.69 2.8645 -0.914711 0
M  V30 29462 C 2723.24 3.00101 -0.889306 0
M  V30 29463 C 2723.71 4.31768 -1.52777 0
M  V30 29464 N 2725.2 4.38492 -1.4926 0
M  V30 29465 C 2725.94 5.3901 -1.9559 0
M  V30 29466 N 2725.43 6.46144 -2.49941 0
M  V30 29467 N 2727.23 5.30279 -1.86442 0
M  V30 29468 H 2719.38 1.43486 -1.56606 0
M  V30 29469 H 2721.64 0.685122 -0.655219 0
M  V30 29470 H 2721.35 2.91439 -1.96866 0
M  V30 29471 H 2721.22 3.74748 -0.429422 0
M  V30 29472 H 2723.61 2.94687 0.156059 0
M  V30 29473 H 2723.69 2.13251 -1.41272 0
M  V30 29474 H 2723.33 4.37939 -2.57239 0
M  V30 29475 H 2723.26 5.1741 -0.979489 0
M  V30 29476 H 2725.75 3.61675 -1.09542 0
M  V30 29477 H 2726.07 7.1907 -2.83122 0
M  V30 29478 H 2724.41 6.46934 -2.53972 0
M  V30 29479 H 2727.6 4.45488 -1.4373 0
M  V30 29480 H 2727.78 6.08471 -2.22862 0
M  V30 29481 N 2721.18 0.331843 1.54067 0
M  V30 29482 C 2722.43 -0.269173 1.99896 0
M  V30 29483 C 2722.74 -1.52591 1.22374 0
M  V30 29484 O 2723.95 -2.20344 1.58621 0
M  V30 29485 C 2722.41 -0.530182 3.55973 0
M  V30 29486 C 2722.01 0.709978 4.42338 0
M  V30 29487 C 2723.76 -1.0907 4.10249 0
M  V30 29488 C 2721.67 0.420416 5.89904 0
M  V30 29489 H 2720.6 -0.104358 0.746743 0
M  V30 29490 H 2723.25 0.445355 1.78014 0
M  V30 29491 H 2721.63 -1.30511 3.73875 0
M  V30 29492 H 2722.8 1.48512 4.36212 0
M  V30 29493 H 2721.12 1.1913 3.98995 0
M  V30 29494 H 2723.71 -1.3221 5.18097 0
M  V30 29495 H 2724.06 -2.04263 3.62743 0
M  V30 29496 H 2724.59 -0.376755 3.96012 0
M  V30 29497 H 2721.33 1.34175 6.41621 0
M  V30 29498 H 2720.85 -0.316857 5.98962 0
M  V30 29499 H 2722.53 0.0333093 6.46991 0
M  V30 29500 N 2722.66 -1.57485 0.0601958 0
M  V30 29501 C 2723.61 -2.08573 -0.920932 0
M  V30 29502 C 2724.59 -0.992849 -1.26615 0
M  V30 29503 O 2725.79 -1.25608 -1.24706 0
M  V30 29504 C 2722.92 -2.64157 -2.19262 0
M  V30 29505 C 2722 -3.8043 -1.8744 0
M  V30 29506 N 2722.39 -4.8985 -1.26017 0
M  V30 29507 C 2720.69 -3.89506 -2.17258 0
M  V30 29508 C 2721.39 -5.70811 -1.12026 0
M  V30 29509 N 2720.37 -5.18707 -1.62615 0
M  V30 29510 H 2724.17 -2.90565 -0.44151 0
M  V30 29511 H 2721.68 -1.6176 -0.144014 0
M  V30 29512 H 2723.68 -2.99066 -2.90457 0
M  V30 29513 H 2722.34 -1.83608 -2.67803 0
M  V30 29514 H 2723.35 -5.09459 -0.931247 0
M  V30 29515 H 2720.03 -3.19914 -2.68256 0
M  V30 29516 H 2721.42 -6.68819 -0.642665 0
M  V30 29517 N 2724.14 0.213268 -1.5615 0
M  V30 29518 C 2725.38 0.943403 -1.81326 0
M  V30 29519 C 2725.74 1.81197 -0.634966 0
M  V30 29520 O 2726.94 2.57648 -0.766211 0
M  V30 29521 C 2725.21 1.75328 -3.1144 0
M  V30 29522 S 2726.77 2.53792 -3.57959 0
M  V30 29523 H 2723.59 0.316755 -0.636543 0
M  V30 29524 H 2726.19 0.208279 -1.94387 0
M  V30 29525 H 2724.9 1.1055 -3.9523 0
M  V30 29526 H 2724.43 2.53056 -3.01208 0
M  V30 29527 H 2726.44 3.77571 -3.21954 0
M  V30 29528 N 2725.62 1.50103 0.480296 0
M  V30 29529 C 2726.55 1.71218 1.58766 0
M  V30 29530 C 2727.53 0.561025 1.60582 0
M  V30 29531 O 2728.71 0.799158 1.76995 0
M  V30 29532 C 2725.84 1.79783 2.97145 0
M  V30 29533 C 2724.8 2.94894 3.10196 0
M  V30 29534 C 2724.12 2.88592 4.50132 0
M  V30 29535 C 2725.42 4.35539 2.88276 0
M  V30 29536 H 2727.12 2.63933 1.4135 0
M  V30 29537 H 2724.66 1.2701 0.678569 0
M  V30 29538 H 2726.62 1.9314 3.74533 0
M  V30 29539 H 2725.34 0.836827 3.15697 0
M  V30 29540 H 2724 2.81173 2.35239 0
M  V30 29541 H 2723.65 1.90357 4.65589 0
M  V30 29542 H 2723.35 3.65864 4.59801 0
M  V30 29543 H 2724.87 3.03985 5.29552 0
M  V30 29544 H 2726.28 4.49834 3.55419 0
M  V30 29545 H 2724.68 5.14191 3.09399 0
M  V30 29546 H 2725.75 4.48547 1.84211 0
M  V30 29547 N 2727.09 -0.732829 1.39526 0
M  V30 29548 C 2728.37 -1.48441 1.27376 0
M  V30 29549 C 2728.75 -2.10783 -0.115688 0
M  V30 29550 O 2728.1 -1.98768 -1.12709 0
M  V30 29551 C 2728.31 -2.53407 2.3997 0
M  V30 29552 C 2729.66 -3.19729 2.7939 0
M  V30 29553 O 2730.68 -2.63721 2.39436 0
M  V30 29554 O 2729.54 -4.21079 3.4836 0
M  V30 29555 H 2726.63 -0.659276 0.499283 0
M  V30 29556 H 2729.18 -0.766469 1.51405 0
M  V30 29557 H 2727.95 -2.05736 3.32849 0
M  V30 29558 H 2727.58 -3.32758 2.17618 0
M  V30 29559 N 2728.57 -1.24737 -0.963244 0
M  V30 29560 C 2729.82 -1.08372 -1.70113 0
M  V30 29561 C 2730.13 0.376654 -1.91939 0
M  V30 29562 O 2731.34 0.660578 -2.63341 0
M  V30 29563 C 2729.8 -1.89104 -3.06215 0
M  V30 29564 C 2729.4 -3.3958 -2.92215 0
M  V30 29565 C 2731.15 -1.81282 -3.83845 0
M  V30 29566 C 2729.06 -4.12639 -4.23655 0
M  V30 29567 H 2727.99 -0.401936 -0.637937 0
M  V30 29568 H 2730.64 -1.48858 -1.07301 0
M  V30 29569 H 2729.02 -1.41436 -3.69881 0
M  V30 29570 H 2730.19 -3.9486 -2.37534 0
M  V30 29571 H 2728.51 -3.48401 -2.28047 0
M  V30 29572 H 2731.1 -2.33166 -4.81184 0
M  V30 29573 H 2731.45 -0.778967 -4.08947 0
M  V30 29574 H 2731.98 -2.26655 -3.26914 0
M  V30 29575 H 2728.72 -5.16402 -4.03744 0
M  V30 29576 H 2728.24 -3.62143 -4.78134 0
M  V30 29577 H 2729.92 -4.19882 -4.92248 0
M  V30 29578 N 2730.05 1.16459 -1.06184 0
M  V30 29579 C 2730.98 2.22982 -0.6929 0
M  V30 29580 C 2731.96 1.67175 0.314092 0
M  V30 29581 O 2733.15 1.93274 0.189465 0
M  V30 29582 C 2730.28 3.47214 -0.077381 0
M  V30 29583 C 2729.23 4.15907 -1.01023 0
M  V30 29584 C 2728.56 5.34077 -0.258067 0
M  V30 29585 C 2729.86 4.67011 -2.33876 0
M  V30 29586 H 2731.55 2.54099 -1.58347 0
M  V30 29587 H 2729.1 1.22136 -0.762812 0
M  V30 29588 H 2731.05 4.2096 0.192586 0
M  V30 29589 H 2729.77 3.15394 0.848199 0
M  V30 29590 H 2728.43 3.44086 -1.26492 0
M  V30 29591 H 2728.08 4.9851 0.670596 0
M  V30 29592 H 2727.78 5.80977 -0.87974 0
M  V30 29593 H 2729.3 6.106 0.00438055 0
M  V30 29594 H 2730.72 5.32343 -2.12799 0
M  V30 29595 H 2729.12 5.24528 -2.91531 0
M  V30 29596 H 2730.19 3.8328 -2.97025 0
M  V30 29597 N 2731.53 0.844266 1.33079 0
M  V30 29598 C 2732.78 0.442585 1.97604 0
M  V30 29599 C 2733.1 -0.999429 1.66858 0
M  V30 29600 O 2732.36 -1.71448 0.943616 0
M  V30 29601 C 2732.66 0.616416 3.52044 0
M  V30 29602 C 2732.32 2.02733 4.02753 0
M  V30 29603 C 2730.99 2.41325 4.16312 0
M  V30 29604 C 2733.34 2.94867 4.29771 0
M  V30 29605 C 2730.67 3.71343 4.54226 0
M  V30 29606 C 2733.02 4.24372 4.69138 0
M  V30 29607 C 2731.68 4.62913 4.80903 0
M  V30 29608 H 2730.95 0.161953 0.723085 0
M  V30 29609 H 2733.6 1.07233 1.58661 0
M  V30 29610 H 2731.9 -0.0966124 3.91681 0
M  V30 29611 H 2733.6 0.285826 3.9998 0
M  V30 29612 H 2730.19 1.71763 3.92677 0
M  V30 29613 H 2734.37 2.66288 4.18813 0
M  V30 29614 H 2729.63 4.01001 4.61528 0
M  V30 29615 H 2733.8 4.95835 4.89 0
M  V30 29616 H 2731.43 5.63706 5.10038 0
M  V30 29617 N 2733.01 -1.45682 0.60121 0
M  V30 29618 C 2733.97 -2.28929 -0.111358 0
M  V30 29619 C 2734.97 -1.39417 -0.801222 0
M  V30 29620 O 2736.16 -1.61605 -0.650355 0
M  V30 29621 C 2733.29 -3.20278 -1.16767 0
M  V30 29622 H 2734.48 -2.93411 0.620463 0
M  V30 29623 H 2732.04 -1.52098 0.359973 0
M  V30 29624 H 2732.77 -2.60583 -1.93047 0
M  V30 29625 H 2732.56 -3.86206 -0.67729 0
M  V30 29626 H 2734.05 -3.82889 -1.66691 0
M  V30 29627 N 2734.48 -0.340009 -1.53889 0
M  V30 29628 C 2735.73 0.257586 -2.00855 0
M  V30 29629 C 2736.06 1.5084 -1.22791 0
M  V30 29630 O 2735.31 1.93346 -0.302601 0
M  V30 29631 C 2735.61 0.620673 -3.51969 0
M  V30 29632 C 2735.28 -0.53285 -4.4774 0
M  V30 29633 C 2733.94 -0.849423 -4.73644 0
M  V30 29634 C 2736.29 -1.30689 -5.04549 0
M  V30 29635 C 2733.62 -1.94247 -5.53611 0
M  V30 29636 C 2735.97 -2.39015 -5.85708 0
M  V30 29637 C 2734.64 -2.71236 -6.09908 0
M  V30 29638 H 2733.91 0.0942573 -0.734981 0
M  V30 29639 H 2736.55 -0.467192 -1.85714 0
M  V30 29640 H 2734.86 1.42611 -3.64924 0
M  V30 29641 H 2736.56 1.09488 -3.85763 0
M  V30 29642 H 2733.15 -0.276048 -4.2771 0
M  V30 29643 H 2737.33 -1.07557 -4.84505 0
M  V30 29644 H 2732.59 -2.19638 -5.70587 0
M  V30 29645 H 2736.76 -2.99426 -6.28742 0
M  V30 29646 H 2734.39 -3.56059 -6.71659 0
M  V30 29647 N 2735.96 1.57451 -0.0685468 0
M  V30 29648 C 2737.19 1.9769 0.610427 0
M  V30 29649 C 2737.61 0.946787 1.63344 0
M  V30 29650 O 2736.96 -0.0669548 1.82377 0
M  V30 29651 C 2737.01 3.38008 1.2819 0
M  V30 29652 O 2736.74 4.37073 0.299829 0
M  V30 29653 C 2738.24 3.93104 2.049 0
M  V30 29654 H 2735.46 0.650224 0.165678 0
M  V30 29655 H 2738 2.0402 -0.139989 0
M  V30 29656 H 2736.16 3.32775 1.98342 0
M  V30 29657 H 2736.57 5.1865 0.781169 0
M  V30 29658 H 2738.04 4.93515 2.47279 0
M  V30 29659 H 2738.52 3.2947 2.90424 0
M  V30 29660 H 2739.13 4.01729 1.39622 0
M  V30 29661 N 2737.44 -0.204984 1.56261 0
M  V30 29662 C 2738.39 -1.25408 1.93756 0
M  V30 29663 C 2739.36 -1.45738 0.796851 0
M  V30 29664 O 2740.54 -1.59034 1.05417 0
M  V30 29665 C 2737.68 -2.59594 2.27388 0
M  V30 29666 C 2736.8 -2.46925 3.54475 0
M  V30 29667 C 2735.93 -3.73747 3.77474 0
M  V30 29668 C 2734.97 -3.55869 4.9802 0
M  V30 29669 N 2734.11 -4.74679 5.17324 0
M  V30 29670 H 2738.95 -0.92732 2.83204 0
M  V30 29671 H 2736.48 -0.446549 1.40158 0
M  V30 29672 H 2738.44 -3.37757 2.44901 0
M  V30 29673 H 2737.07 -2.90332 1.41093 0
M  V30 29674 H 2736.12 -1.6011 3.45064 0
M  V30 29675 H 2737.44 -2.29643 4.42793 0
M  V30 29676 H 2736.59 -4.60351 3.95173 0
M  V30 29677 H 2735.33 -3.93971 2.87468 0
M  V30 29678 H 2734.33 -2.67649 4.80254 0
M  V30 29679 H 2735.56 -3.37099 5.89526 0
M  V30 29680 H 2733.51 -4.95186 4.30264 0
M  V30 29681 H 2733.42 -4.60186 5.99804 0
M  V30 29682 H 2734.69 -5.62663 5.39473 0
M  V30 29683 N 2738.92 -1.50356 -0.472329 0
M  V30 29684 C 2740.34 -1.37754 -0.805977 0
M  V30 29685 C 2740.54 -0.432684 -1.968 0
M  V30 29686 O 2739.59 0.125146 -2.5219 0
M  V30 29687 C 2740.9 -2.79095 -1.11921 0
M  V30 29688 C 2742.45 -2.88001 -1.22574 0
M  V30 29689 C 2742.93 -4.30173 -1.5721 0
M  V30 29690 N 2744.42 -4.33118 -1.64204 0
M  V30 29691 C 2745.15 -5.40119 -1.92507 0
M  V30 29692 N 2744.65 -6.57329 -2.18839 0
M  V30 29693 N 2746.44 -5.27561 -1.93999 0
M  V30 29694 H 2738.59 -2.10363 0.293488 0
M  V30 29695 H 2740.86 -0.945501 0.0687838 0
M  V30 29696 H 2740.56 -3.50068 -0.338442 0
M  V30 29697 H 2740.44 -3.1626 -2.05571 0
M  V30 29698 H 2742.82 -2.17248 -1.99718 0
M  V30 29699 H 2742.9 -2.54381 -0.269062 0
M  V30 29700 H 2742.55 -5.01463 -0.806066 0
M  V30 29701 H 2742.48 -4.61279 -2.54026 0
M  V30 29702 H 2744.97 -3.48599 -1.459 0
M  V30 29703 H 2745.28 -7.34685 -2.39705 0
M  V30 29704 H 2743.63 -6.60506 -2.16234 0
M  V30 29705 H 2746.82 -4.34989 -1.72923 0
M  V30 29706 H 2746.99 -6.11039 -2.15721 0
M  V30 29707 N 2740.4 0.725419 -1.39912 0
M  V30 29708 C 2741.64 1.48735 -1.37861 0
M  V30 29709 C 2741.98 1.94187 0.0223846 0
M  V30 29710 O 2741.25 1.67468 0.989175 0
M  V30 29711 C 2741.53 2.72033 -2.35945 0
M  V30 29712 C 2741.39 2.32539 -3.85027 0
M  V30 29713 C 2742.71 3.74163 -2.31711 0
M  V30 29714 H 2739.83 0.539519 -0.502084 0
M  V30 29715 H 2742.47 0.828697 -1.70975 0
M  V30 29716 H 2740.62 3.28232 -2.07836 0
M  V30 29717 H 2742.29 1.81898 -4.23923 0
M  V30 29718 H 2740.53 1.64654 -4.01337 0
M  V30 29719 H 2741.2 3.20877 -4.49157 0
M  V30 29720 H 2743.68 3.27571 -2.56586 0
M  V30 29721 H 2742.56 4.58087 -3.02403 0
M  V30 29722 H 2742.82 4.21766 -1.32537 0
M  V30 29723 N 2741.88 1.25246 0.956615 0
M  V30 29724 C 2742.81 1.07935 2.07056 0
M  V30 29725 C 2743.79 -0.0110062 1.70096 0
M  V30 29726 O 2744.97 0.158155 1.93555 0
M  V30 29727 C 2742.1 0.695184 3.40271 0
M  V30 29728 C 2741.06 1.73555 3.91232 0
M  V30 29729 C 2740.38 1.20613 5.20919 0
M  V30 29730 C 2741.68 3.13392 4.17831 0
M  V30 29731 H 2743.38 2.01113 2.21797 0
M  V30 29732 H 2740.92 0.968345 1.06579 0
M  V30 29733 H 2742.87 0.561023 4.17649 0
M  V30 29734 H 2741.6 -0.272298 3.25463 0
M  V30 29735 H 2740.26 1.85812 3.16021 0
M  V30 29736 H 2739.91 0.228934 5.02479 0
M  V30 29737 H 2739.61 1.90146 5.55984 0
M  V30 29738 H 2741.13 1.08432 6.00895 0
M  V30 29739 H 2742.54 3.043 4.85875 0
M  V30 29740 H 2740.94 3.80377 4.64148 0
M  V30 29741 H 2742.01 3.60601 3.24183 0
M  V30 29742 N 2743.35 -1.15894 1.068 0
M  V30 29743 C 2744.6 -1.86179 0.786243 0
M  V30 29744 C 2744.92 -1.82403 -0.689515 0
M  V30 29745 O 2744.19 -1.2611 -1.49911 0
M  V30 29746 H 2742.77 -0.68931 0.287856 0
M  V30 29747 H 2745.43 -1.40518 1.35058 0
M  V30 29748 H 2744.53 -2.91475 1.11575 0
M  V30 29749 N 2744.83 -0.851312 -1.32629 0
M  V30 29750 C 2746.11 -0.374482 -1.91982 0
M  V30 29751 C 2746.49 1.14158 -1.7757 0
M  V30 29752 O 2745.84 1.9617 -1.17174 0
M  V30 29753 C 2746.05 -0.835148 -3.3886 0
M  V30 29754 C 2747.39 -0.850383 -4.15997 0
M  V30 29755 O 2748.42 -0.779566 -3.47565 0
M  V30 29756 O 2747.28 -0.949575 -5.38187 0
M  V30 29757 H 2744.37 -0.108554 -0.819845 0
M  V30 29758 H 2746.92 -0.937991 -1.41421 0
M  V30 29759 H 2745.69 -1.8782 -3.43278 0
M  V30 29760 H 2745.31 -0.248902 -3.9682 0
M  V30 29761 N 2746.31 1.45361 -0.608928 0
M  V30 29762 C 2747.53 2.07112 -0.109246 0
M  V30 29763 C 2747.96 1.45035 1.19776 0
M  V30 29764 O 2747.32 0.543558 1.7296 0
M  V30 29765 C 2747.37 3.60597 0.0155111 0
M  V30 29766 O 2746.47 3.98401 1.06539 0
M  V30 29767 H 2745.81 0.659788 -0.0746735 0
M  V30 29768 H 2748.34 1.86592 -0.839316 0
M  V30 29769 H 2748.35 4.07442 0.213293 0
M  V30 29770 H 2747.03 4.05165 -0.938836 0
M  V30 29771 H 2745.6 3.63224 0.84396 0
M  V30 29772 N 2747.79 0.348166 1.53706 0
M  V30 29773 C 2749.04 -0.246443 2.00592 0
M  V30 29774 C 2749.36 -1.50696 1.23756 0
M  V30 29775 O 2748.63 -1.9282 0.345998 0
M  V30 29776 H 2747.21 -0.0940548 0.741055 0
M  V30 29777 H 2749.87 0.470388 1.89138 0
M  V30 29778 H 2748.96 -0.485659 3.08298 0
M  V30 29779 N 2749.27 -1.57412 0.0768958 0
M  V30 29780 C 2750.18 -2.16518 -0.903169 0
M  V30 29781 C 2751.19 -1.12971 -1.32339 0
M  V30 29782 O 2752.37 -1.4526 -1.39504 0
M  V30 29783 C 2749.43 -2.71926 -2.15075 0
M  V30 29784 C 2748.49 -3.90364 -1.78646 0
M  V30 29785 C 2747.73 -4.4312 -2.97457 0
M  V30 29786 O 2747.95 -3.94862 -4.11632 0
M  V30 29787 O 2746.88 -5.34385 -2.76977 0
M  V30 29788 H 2750.71 -3.00635 -0.430374 0
M  V30 29789 H 2748.29 -1.4868 -0.146459 0
M  V30 29790 H 2750.18 -3.07416 -2.88224 0
M  V30 29791 H 2748.85 -1.90865 -2.61443 0
M  V30 29792 H 2747.76 -3.59717 -1.02733 0
M  V30 29793 H 2749.09 -4.72733 -1.37057 0
M  V30 29794 N 2750.74 0.196695 -1.56368 0
M  V30 29795 C 2751.67 1.24651 -1.97445 0
M  V30 29796 C 2752.66 1.4756 -0.846173 0
M  V30 29797 O 2753.84 1.59324 -1.11038 0
M  V30 29798 C 2750.97 2.59108 -2.31258 0
M  V30 29799 C 2749.92 2.50815 -3.46808 0
M  V30 29800 C 2749.25 3.8953 -3.66293 0
M  V30 29801 C 2750.55 2.03457 -4.81043 0
M  V30 29802 H 2752.24 0.905166 -2.85389 0
M  V30 29803 H 2749.79 0.433977 -1.37305 0
M  V30 29804 H 2751.74 3.32731 -2.58588 0
M  V30 29805 H 2750.47 2.9498 -1.40194 0
M  V30 29806 H 2749.13 1.79648 -3.19566 0
M  V30 29807 H 2748.77 4.22752 -2.72562 0
M  V30 29808 H 2748.47 3.84856 -4.44027 0
M  V30 29809 H 2750 4.64777 -3.95998 0
M  V30 29810 H 2751.41 2.66837 -5.07416 0
M  V30 29811 H 2749.81 2.09788 -5.62236 0
M  V30 29812 H 2750.88 0.987726 -4.74734 0
M  V30 29813 N 2752.22 1.50604 0.464349 0
M  V30 29814 C 2753.5 1.52452 1.22547 0
M  V30 29815 C 2753.88 0.273072 2.09326 0
M  V30 29816 O 2753.23 -0.743204 2.16076 0
M  V30 29817 C 2753.44 2.82397 2.05069 0
M  V30 29818 C 2754.79 3.33317 2.6303 0
M  V30 29819 O 2755.81 2.83764 2.15305 0
M  V30 29820 O 2754.67 4.19715 3.50003 0
M  V30 29821 H 2751.76 0.611785 0.55646 0
M  V30 29822 H 2754.31 1.62899 0.47562 0
M  V30 29823 H 2753.08 3.6495 1.41163 0
M  V30 29824 H 2752.7 2.74985 2.87174 0
M  V30 29825 N 2753.7 -0.717989 1.40295 0
M  V30 29826 C 2754.95 -1.47337 1.37748 0
M  V30 29827 C 2755.26 -1.95592 -0.018041 0
M  V30 29828 O 2756.47 -2.70991 -0.166118 0
M  V30 29829 C 2754.92 -2.66314 2.42085 0
M  V30 29830 C 2754.53 -2.24939 3.87436 0
M  V30 29831 C 2756.28 -3.44061 2.48641 0
M  V30 29832 C 2754.18 -3.4074 4.83374 0
M  V30 29833 H 2753.11 -0.553347 0.512175 0
M  V30 29834 H 2755.76 -0.781632 1.6602 0
M  V30 29835 H 2754.15 -3.37646 2.06909 0
M  V30 29836 H 2755.32 -1.61042 4.31743 0
M  V30 29837 H 2753.64 -1.60242 3.84333 0
M  V30 29838 H 2756.23 -4.30225 3.17506 0
M  V30 29839 H 2756.58 -3.87708 1.51618 0
M  V30 29840 H 2757.11 -2.7977 2.82796 0
M  V30 29841 H 2753.85 -3.02126 5.81722 0
M  V30 29842 H 2753.37 -4.0356 4.43733 0
M  V30 29843 H 2755.05 -4.06839 5.03081 0
M  V30 29844 N 2755.18 -1.25752 -0.94996 0
M  V30 29845 C 2756.11 -1.09032 -2.06481 0
M  V30 29846 C 2757.09 0.00198542 -1.701 0
M  V30 29847 O 2758.27 -0.168417 -1.93468 0
M  V30 29848 C 2755.4 -0.71322 -3.39898 0
M  V30 29849 C 2754.36 -1.75628 -3.90306 0
M  V30 29850 C 2753.68 -1.23374 -5.20272 0
M  V30 29851 C 2754.98 -3.15603 -4.16163 0
M  V30 29852 H 2756.68 -2.02287 -2.20727 0
M  V30 29853 H 2754.22 -0.973983 -1.06064 0
M  V30 29854 H 2756.18 -0.583164 -4.17345 0
M  V30 29855 H 2754.9 0.255034 -3.25603 0
M  V30 29856 H 2753.56 -1.87485 -3.15031 0
M  V30 29857 H 2753.21 -0.255579 -5.0235 0
M  V30 29858 H 2752.91 -1.93092 -5.54968 0
M  V30 29859 H 2754.43 -1.11617 -6.00312 0
M  V30 29860 H 2755.85 -3.06873 -4.84254 0
M  V30 29861 H 2754.24 -3.82834 -4.62124 0
M  V30 29862 H 2755.31 -3.62315 -3.22266 0
M  V30 29863 N 2756.66 1.15326 -1.07413 0
M  V30 29864 C 2758.07 1.38115 -0.799783 0
M  V30 29865 C 2758.27 1.92494 0.595687 0
M  V30 29866 O 2757.33 2.13108 1.35429 0
M  V30 29867 C 2758.64 2.35155 -1.87411 0
M  V30 29868 C 2760.19 2.48816 -1.89894 0
M  V30 29869 C 2760.66 3.49148 -2.96412 0
M  V30 29870 N 2762.16 3.56684 -2.95518 0
M  V30 29871 C 2762.89 4.34138 -3.74582 0
M  V30 29872 N 2762.39 5.1492 -4.63497 0
M  V30 29873 N 2764.18 4.29233 -3.62926 0
M  V30 29874 H 2756.33 0.783705 -1.97413 0
M  V30 29875 H 2758.59 0.407139 -0.85612 0
M  V30 29876 H 2758.3 2.02315 -2.87683 0
M  V30 29877 H 2758.17 3.34941 -1.73476 0
M  V30 29878 H 2760.56 2.80953 -0.902726 0
M  V30 29879 H 2760.64 1.49026 -2.07906 0
M  V30 29880 H 2760.29 3.17745 -3.96233 0
M  V30 29881 H 2760.22 4.48695 -2.75646 0
M  V30 29882 H 2762.71 2.99026 -2.31066 0
M  V30 29883 H 2763.02 5.71267 -5.20455 0
M  V30 29884 H 2761.36 5.14224 -4.67546 0
M  V30 29885 H 2764.56 3.65189 -2.92839 0
M  V30 29886 H 2764.73 4.89348 -4.24786 0
M  V30 29887 N 2758.13 0.858334 1.32176 0
M  V30 29888 C 2759.07 0.262875 2.27688 0
M  V30 29889 C 2760.08 -0.567487 1.52589 0
M  V30 29890 O 2761.27 -0.391377 1.74157 0
M  V30 29891 C 2758.37 -0.646879 3.32669 0
M  V30 29892 C 2757.54 0.148449 4.37148 0
M  V30 29893 C 2756.6 -0.687637 5.21688 0
M  V30 29894 O 2755.63 -0.119834 5.69074 0
M  V30 29895 N 2756.83 -2.00172 5.44896 0
M  V30 29896 H 2759.59 1.08361 2.79424 0
M  V30 29897 H 2757.15 0.718673 1.45075 0
M  V30 29898 H 2759.15 -1.21164 3.86137 0
M  V30 29899 H 2757.72 -1.36829 2.81063 0
M  V30 29900 H 2756.94 0.894639 3.83914 0
M  V30 29901 H 2758.22 0.694603 5.04036 0
M  V30 29902 H 2757.62 -2.48632 5.08133 0
M  V30 29903 H 2756.18 -2.51452 6.01344 0
M  V30 29904 N 2759.61 -1.45036 0.616628 0
M  V30 29905 C 2760.54 -2.28801 -0.135146 0
M  V30 29906 C 2761.56 -1.40465 -0.823006 0
M  V30 29907 O 2762.75 -1.64755 -0.68688 0
M  V30 29908 C 2759.85 -3.16454 -1.21286 0
M  V30 29909 C 2759.02 -4.33121 -0.610354 0
M  V30 29910 C 2758.08 -5.01915 -1.58013 0
M  V30 29911 O 2757.1 -5.58413 -1.10291 0
M  V30 29912 N 2758.31 -5.0203 -2.91455 0
M  V30 29913 H 2761.07 -2.93962 0.583663 0
M  V30 29914 H 2758.63 -1.55324 0.45675 0
M  V30 29915 H 2760.62 -3.5934 -1.86163 0
M  V30 29916 H 2759.19 -2.53141 -1.83408 0
M  V30 29917 H 2758.41 -3.93604 0.216708 0
M  V30 29918 H 2759.7 -5.08452 -0.188204 0
M  V30 29919 H 2759.1 -4.57435 -3.32821 0
M  V30 29920 H 2757.66 -5.48752 -3.51731 0
M  V30 29921 N 2761.09 -0.356312 -1.53519 0
M  V30 29922 C 2762.02 0.537874 -2.2177 0
M  V30 29923 C 2763 1.0903 -1.20628 0
M  V30 29924 O 2764.19 1.14818 -1.49496 0
M  V30 29925 C 2761.31 1.74121 -2.90516 0
M  V30 29926 C 2760.36 1.31708 -4.05654 0
M  V30 29927 S 2761.19 0.326142 -5.34506 0
M  V30 29928 C 2762.35 1.53602 -6.0676 0
M  V30 29929 H 2762.58 -0.0417934 -2.97271 0
M  V30 29930 H 2760.11 -0.140399 -1.5376 0
M  V30 29931 H 2762.07 2.4315 -3.30739 0
M  V30 29932 H 2760.73 2.29211 -2.14758 0
M  V30 29933 H 2759.93 2.21463 -4.52736 0
M  V30 29934 H 2759.53 0.706119 -3.67274 0
M  V30 29935 H 2761.82 2.46852 -6.30928 0
M  V30 29936 H 2762.76 1.10675 -6.99397 0
M  V30 29937 H 2763.17 1.73786 -5.37083 0
M  V30 29938 N 2762.57 1.57369 -0.0852427 0
M  V30 29939 C 2763.48 2.16994 0.891674 0
M  V30 29940 C 2764.49 1.13671 1.31738 0
M  V30 29941 O 2765.67 1.45998 1.38732 0
M  V30 29942 C 2762.74 2.73062 2.1363 0
M  V30 29943 C 2761.8 3.91306 1.76573 0
M  V30 29944 C 2761.03 4.44691 2.95103 0
M  V30 29945 O 2761.25 3.97039 4.09532 0
M  V30 29946 O 2760.19 5.35846 2.7414 0
M  V30 29947 H 2764.01 3.00859 0.414424 0
M  V30 29948 H 2761.6 1.48756 0.138572 0
M  V30 29949 H 2763.48 3.0894 2.8659 0
M  V30 29950 H 2762.15 1.92249 2.60427 0
M  V30 29951 H 2761.06 3.60257 1.00824 0
M  V30 29952 H 2762.39 4.73453 1.34548 0
M  V30 29953 N 2764.05 -0.188399 1.5647 0
M  V30 29954 C 2764.96 -1.25376 1.98287 0
M  V30 29955 C 2765.97 -1.49423 0.891561 0
M  V30 29956 O 2767.15 -1.61906 1.19785 0
M  V30 29957 C 2764.21 -2.57665 2.31969 0
M  V30 29958 C 2763.27 -2.41631 3.54842 0
M  V30 29959 C 2762.51 -3.67611 3.86908 0
M  V30 29960 O 2762.73 -4.72066 3.20171 0
M  V30 29961 O 2761.66 -3.62741 4.80315 0
M  V30 29962 H 2765.49 -0.928861 2.89147 0
M  V30 29963 H 2763.08 -0.393929 1.44113 0
M  V30 29964 H 2764.96 -3.35733 2.54679 0
M  V30 29965 H 2763.63 -2.89769 1.44276 0
M  V30 29966 H 2762.54 -1.61652 3.37372 0
M  V30 29967 H 2763.87 -2.14457 4.43022 0
M  V30 29968 N 2765.53 -1.50848 -0.456355 0
M  V30 29969 C 2766.94 -1.38601 -0.791321 0
M  V30 29970 C 2767.14 -0.453533 -1.9633 0
M  V30 29971 O 2766.2 0.098391 -2.52308 0
M  V30 29972 C 2767.51 -2.80267 -1.08954 0
M  V30 29973 C 2769.06 -2.89285 -1.19512 0
M  V30 29974 C 2769.53 -4.31816 -1.52639 0
M  V30 29975 N 2771.02 -4.34835 -1.59601 0
M  V30 29976 C 2771.76 -5.4213 -1.86768 0
M  V30 29977 N 2771.26 -6.59613 -2.11855 0
M  V30 29978 N 2773.05 -5.29589 -1.88392 0
M  V30 29979 H 2765.2 -2.10039 0.315783 0
M  V30 29980 H 2767.46 -0.944719 0.0788082 0
M  V30 29981 H 2767.17 -3.50407 -0.301294 0
M  V30 29982 H 2767.04 -3.18423 -2.02205 0
M  V30 29983 H 2769.43 -2.19354 -1.97402 0
M  V30 29984 H 2769.51 -2.54652 -0.242066 0
M  V30 29985 H 2769.15 -5.0229 -0.752833 0
M  V30 29986 H 2769.08 -4.63947 -2.49119 0
M  V30 29987 H 2771.58 -3.50127 -1.42194 0
M  V30 29988 H 2771.89 -7.37186 -2.31899 0
M  V30 29989 H 2770.23 -6.62762 -2.09216 0
M  V30 29990 H 2773.42 -4.36798 -1.683 0
M  V30 29991 H 2773.6 -6.13293 -2.09227 0
M  V30 29992 N 2767 0.710538 -1.40674 0
M  V30 29993 C 2768.25 1.47047 -1.39224 0
M  V30 29994 C 2768.58 1.945 0.00373492 0
M  V30 29995 O 2767.83 1.68859 0.989194 0
M  V30 29996 C 2768.13 2.70787 -2.33258 0
M  V30 29997 C 2767.8 2.42072 -3.8041 0
M  V30 29998 C 2766.46 2.33951 -4.205 0
M  V30 29999 C 2768.81 2.18086 -4.73379 0
M  V30 30000 C 2766.14 1.99919 -5.51588 0
M  V30 30001 C 2768.49 1.85566 -6.04771 0
M  V30 30002 C 2767.16 1.7593 -6.43898 0
M  V30 30003 H 2766.43 0.538083 -0.509458 0
M  V30 30004 H 2769.07 0.81345 -1.73364 0
M  V30 30005 H 2767.38 3.41351 -1.9232 0
M  V30 30006 H 2769.08 3.2889 -2.29417 0
M  V30 30007 H 2765.67 2.49282 -3.4865 0
M  V30 30008 H 2769.85 2.23313 -4.43221 0
M  V30 30009 H 2765.11 1.91 -5.808 0
M  V30 30010 H 2769.28 1.66021 -6.76321 0
M  V30 30011 H 2766.91 1.49327 -7.4539 0
M  V30 30012 N 2768.48 1.26254 0.943277 0
M  V30 30013 C 2769.73 1.1184 1.69173 0
M  V30 30014 C 2770.06 -0.337858 1.91238 0
M  V30 30015 O 2769.34 -1.24833 1.49154 0
M  V30 30016 C 2769.62 1.88568 3.0678 0
M  V30 30017 C 2769.47 3.42088 2.92054 0
M  V30 30018 C 2770.79 1.67783 4.06862 0
M  V30 30019 H 2767.91 0.407669 0.613983 0
M  V30 30020 H 2770.55 1.55224 1.09569 0
M  V30 30021 H 2768.7 1.51695 3.5766 0
M  V30 30022 H 2770.37 3.88702 2.48412 0
M  V30 30023 H 2768.62 3.69221 2.27725 0
M  V30 30024 H 2769.29 3.91001 3.89644 0
M  V30 30025 H 2771.76 1.99904 3.64935 0
M  V30 30026 H 2770.64 2.23888 5.01164 0
M  V30 30027 H 2770.9 0.621893 4.37704 0
M  V30 30028 N 2769.96 -1.14755 1.08024 0
M  V30 30029 C 2770.92 -2.17909 0.710519 0
M  V30 30030 C 2771.92 -1.58802 -0.252703 0
M  V30 30031 O 2773.11 -1.74169 -0.0327609 0
M  V30 30032 C 2770.24 -3.40866 0.0483802 0
M  V30 30033 H 2771.44 -2.52131 1.62389 0
M  V30 30034 H 2768.99 -1.29335 0.877618 0
M  V30 30035 H 2769.73 -3.12219 -0.876904 0
M  V30 30036 H 2769.51 -3.8503 0.741256 0
M  V30 30037 H 2771 -4.17143 -0.195397 0
M  V30 30038 N 2771.44 -0.865331 -1.31719 0
M  V30 30039 C 2772.66 -0.487451 -2.0159 0
M  V30 30040 C 2773.09 0.911278 -1.64552 0
M  V30 30041 O 2772.45 1.60048 -0.851717 0
M  V30 30042 C 2772.49 -0.646463 -3.54758 0
M  V30 30043 O 2771.6 0.316212 -4.11186 0
M  V30 30044 H 2770.94 -0.194479 -0.634881 0
M  V30 30045 H 2773.47 -1.16747 -1.68022 0
M  V30 30046 H 2773.48 -0.538003 -4.04437 0
M  V30 30047 H 2772.15 -1.66639 -3.81057 0
M  V30 30048 H 2770.73 0.163097 -3.72543 0
M  V30 30049 N 2772.92 1.44707 -0.624311 0
M  V30 30050 C 2773.86 2.32398 0.0969544 0
M  V30 30051 C 2774.86 1.4695 0.842736 0
M  V30 30052 O 2776.06 1.63335 0.756408 0
M  V30 30053 H 2772.44 0.750328 0.0501174 0
M  V30 30054 H 2774.41 2.90991 -0.660818 0
M  V30 30055 C 2773.16 3.30839 1.06961 0
M  V30 30056 H 2772.48 3.96596 0.505172 0
M  V30 30057 H 2773.92 3.94892 1.5439 0
M  V30 30058 C 2772.38 2.59254 2.15149 0
M  V30 30059 O 2772.91 2.38635 3.23135 0
M  V30 30060 N 2771.12 2.19107 1.90894 0
M  V30 30061 H 2770.66 2.36076 1.03082 0
M  V30 30062 H 2770.62 1.71536 2.63482 0
M  V30 30063 N 2774.39 0.364449 1.53328 0
M  V30 30064 C 2775.8 -0.115006 1.86345 0
M  V30 30065 C 2776.16 -1.48258 1.28507 0
M  V30 30066 O 2775.28 -2.07722 0.606675 0
M  V30 30067 C 2775.88 -0.215462 3.38114 0
M  V30 30068 C 2774.43 -0.639171 3.70933 0
M  V30 30069 C 2773.58 0.214309 2.76471 0
M  V30 30070 H 2776.53 0.583284 1.47592 0
M  V30 30071 H 2776.55 -1.03924 3.66033 0
M  V30 30072 H 2776.07 0.780015 3.80181 0
M  V30 30073 H 2774.17 -1.64292 3.34423 0
M  V30 30074 H 2774.28 -0.414567 4.77303 0
M  V30 30075 H 2772.64 -0.316633 2.52724 0
M  V30 30076 H 2773.43 1.20731 3.21371 0
M  V30 30077 N 2775.87 -1.57322 0.0935872 0
M  V30 30078 C 2777.1 -1.99058 -0.582289 0
M  V30 30079 C 2777.52 -0.97227 -1.61023 0
M  V30 30080 O 2776.88 0.0594303 -1.81203 0
M  V30 30081 C 2776.93 -3.39767 -1.20793 0
M  V30 30082 O 2776.03 -3.40698 -2.32376 0
M  V30 30083 H 2775.37 -0.647325 -0.147872 0
M  V30 30084 H 2777.9 -2.03854 0.174552 0
M  V30 30085 H 2777.91 -3.77428 -1.54959 0
M  V30 30086 H 2776.59 -4.13405 -0.454841 0
M  V30 30087 H 2775.16 -3.14831 -1.9984 0
M  V30 30088 N 2777.35 0.180099 -1.56568 0
M  V30 30089 C 2778.3 1.22309 -1.95727 0
M  V30 30090 C 2779.27 1.44452 -0.819936 0
M  V30 30091 O 2780.45 1.57337 -1.07934 0
M  V30 30092 C 2777.59 2.55943 -2.31489 0
M  V30 30093 C 2776.7 2.41254 -3.58358 0
M  V30 30094 C 2775.84 3.67694 -3.83373 0
M  V30 30095 C 2774.88 3.47901 -5.03619 0
M  V30 30096 N 2774.02 4.66389 -5.2481 0
M  V30 30097 H 2778.86 0.882148 -2.84644 0
M  V30 30098 H 2776.39 0.424195 -1.40851 0
M  V30 30099 H 2778.35 3.33818 -2.50243 0
M  V30 30100 H 2776.98 2.88051 -1.45694 0
M  V30 30101 H 2776.03 1.546 -3.47567 0
M  V30 30102 H 2777.34 2.2257 -4.4639 0
M  V30 30103 H 2776.5 4.54006 -4.02447 0
M  V30 30104 H 2775.24 3.89348 -2.93699 0
M  V30 30105 H 2774.24 2.59975 -4.84451 0
M  V30 30106 H 2775.47 3.27677 -5.94815 0
M  V30 30107 H 2773.41 4.88278 -4.38087 0
M  V30 30108 H 2773.33 4.50585 -6.07049 0
M  V30 30109 H 2774.6 5.54009 -5.48356 0
M  V30 30110 N 2778.83 1.51088 0.448349 0
M  V30 30111 C 2780.07 1.63452 1.20046 0
M  V30 30112 C 2780.41 0.344478 1.9112 0
M  V30 30113 O 2779.68 -0.655364 1.83126 0
M  V30 30114 C 2779.96 2.83042 2.22619 0
M  V30 30115 C 2779.82 4.21992 1.55701 0
M  V30 30116 C 2781.14 2.98157 3.23713 0
M  V30 30117 H 2778.26 0.594878 0.435074 0
M  V30 30118 H 2780.9 1.83542 0.491151 0
M  V30 30119 H 2779.05 2.66044 2.83113 0
M  V30 30120 H 2780.72 4.50633 0.986288 0
M  V30 30121 H 2778.96 4.25199 0.859573 0
M  V30 30122 H 2779.63 5.01641 2.30348 0
M  V30 30123 H 2782.11 3.13793 2.73264 0
M  V30 30124 H 2780.99 3.83417 3.92788 0
M  V30 30125 H 2781.25 2.09749 3.89175 0
M  V30 30126 N 2780.31 -0.703068 1.41049 0
M  V30 30127 C 2781.53 -1.49703 1.4354 0
M  V30 30128 C 2781.96 -1.88057 0.0402184 0
M  V30 30129 O 2781.31 -1.54124 -0.954758 0
M  V30 30130 C 2781.36 -2.74079 2.34335 0
M  V30 30131 O 2780.47 -3.71276 1.79522 0
M  V30 30132 H 2779.81 -0.450863 0.487462 0
M  V30 30133 H 2782.34 -0.864827 1.85424 0
M  V30 30134 H 2782.35 -3.22471 2.49953 0
M  V30 30135 H 2781.02 -2.455 3.35712 0
M  V30 30136 H 2779.6 -3.30176 1.73315 0
M  V30 30137 N 2781.78 -1.26752 -0.936569 0
M  V30 30138 C 2783.01 -1.15191 -1.71507 0
M  V30 30139 C 2783.42 0.295004 -1.86886 0
M  V30 30140 O 2782.77 1.21344 -1.37918 0
M  V30 30141 C 2782.83 -1.75324 -3.1385 0
M  V30 30142 C 2782.49 -3.24451 -3.21839 0
M  V30 30143 C 2783.49 -4.21207 -3.04764 0
M  V30 30144 C 2781.17 -3.64998 -3.45082 0
M  V30 30145 C 2783.17 -5.56487 -3.10806 0
M  V30 30146 C 2780.85 -5.00411 -3.50759 0
M  V30 30147 C 2781.85 -5.95965 -3.33638 0
M  V30 30148 O 2781.54 -7.28912 -3.39032 0
M  V30 30149 H 2781.27 -0.401771 -0.543651 0
M  V30 30150 H 2783.83 -1.6796 -1.18231 0
M  V30 30151 H 2782.06 -1.17023 -3.68568 0
M  V30 30152 H 2783.75 -1.58603 -3.73631 0
M  V30 30153 H 2784.51 -3.91219 -2.86658 0
M  V30 30154 H 2780.39 -2.91105 -3.57462 0
M  V30 30155 H 2783.93 -6.31049 -2.97361 0
M  V30 30156 H 2779.83 -5.30058 -3.68386 0
M  V30 30157 H 2780.6 -7.37245 -3.55545 0
M  V30 30158 N 2783.26 1.1418 -1.08631 0
M  V30 30159 C 2784.17 2.22948 -0.730165 0
M  V30 30160 C 2785.19 1.71981 0.26433 0
M  V30 30161 O 2786.36 2.01112 0.107706 0
M  V30 30162 C 2783.43 3.46387 -0.147288 0
M  V30 30163 C 2782.49 4.12284 -1.19669 0
M  V30 30164 C 2781.72 5.2983 -0.64153 0
M  V30 30165 O 2781.95 5.67855 0.538251 0
M  V30 30166 O 2780.88 5.85567 -1.39267 0
M  V30 30167 H 2784.71 2.55768 -1.63757 0
M  V30 30168 H 2782.29 1.22155 -0.860139 0
M  V30 30169 H 2784.17 4.21037 0.174849 0
M  V30 30170 H 2782.85 3.15286 0.733248 0
M  V30 30171 H 2781.76 3.39497 -1.57139 0
M  V30 30172 H 2783.09 4.47496 -2.04958 0
M  V30 30173 N 2784.74 0.872304 1.31258 0
M  V30 30174 C 2786.15 0.536649 1.78821 0
M  V30 30175 C 2786.5 -0.946564 1.71856 0
M  V30 30176 O 2785.63 -1.73916 1.28772 0
M  V30 30177 C 2786.22 0.967352 3.24696 0
M  V30 30178 C 2784.78 0.683316 3.70146 0
M  V30 30179 C 2783.93 1.15737 2.51992 0
M  V30 30180 H 2786.88 1.05779 1.18307 0
M  V30 30181 H 2786.9 0.290996 3.79386 0
M  V30 30182 H 2786.41 2.04689 3.29733 0
M  V30 30183 H 2784.51 -0.38476 3.70608 0
M  V30 30184 H 2784.63 1.26198 4.62181 0
M  V30 30185 H 2782.99 0.577067 2.48077 0
M  V30 30186 H 2783.77 2.24438 2.59774 0
M  V30 30187 N 2786.22 -1.44374 0.631976 0
M  V30 30188 C 2787.47 -2.01253 0.13425 0
M  V30 30189 C 2787.78 -1.50307 -1.25168 0
M  V30 30190 O 2788.99 -1.9932 -1.84347 0
M  V30 30191 C 2787.44 -3.59402 0.18925 0
M  V30 30192 C 2787.05 -4.19344 1.57655 0
M  V30 30193 C 2788.79 -4.23752 -0.25197 0
M  V30 30194 C 2786.7 -5.6972 1.58661 0
M  V30 30195 H 2785.63 -0.75257 0.0464233 0
M  V30 30196 H 2788.28 -1.65581 0.790898 0
M  V30 30197 H 2786.66 -3.92376 -0.534515 0
M  V30 30198 H 2787.84 -3.97905 2.32396 0
M  V30 30199 H 2786.15 -3.67284 1.96192 0
M  V30 30200 H 2788.75 -5.34048 -0.26399 0
M  V30 30201 H 2789.09 -3.96152 -1.27944 0
M  V30 30202 H 2789.63 -3.95584 0.419329 0
M  V30 30203 H 2786.37 -6.02055 2.59248 0
M  V30 30204 H 2785.89 -5.93278 0.882143 0
M  V30 30205 H 2787.56 -6.33372 1.32093 0
M  V30 30206 N 2787.7 -0.372575 -1.53133 0
M  V30 30207 C 2788.92 0.215478 -2.05775 0
M  V30 30208 C 2789.34 1.41884 -1.24557 0
M  V30 30209 O 2788.7 1.80214 -0.287983 0
M  V30 30210 C 2788.75 0.602098 -3.56451 0
M  V30 30211 O 2788.47 -0.553435 -4.3459 0
M  V30 30212 C 2789.97 1.2478 -4.25376 0
M  V30 30213 H 2787.19 0.0364411 -0.67001 0
M  V30 30214 H 2789.73 -0.532968 -1.97433 0
M  V30 30215 H 2787.89 1.30045 -3.6492 0
M  V30 30216 H 2788.3 -0.239428 -5.23953 0
M  V30 30217 H 2789.78 1.46882 -5.32099 0
M  V30 30218 H 2790.25 2.2102 -3.79535 0
M  V30 30219 H 2790.86 0.590678 -4.21178 0
M  V30 30220 N 2789.17 1.5727 -0.101929 0
M  V30 30221 C 2790.4 1.9894 0.568357 0
M  V30 30222 C 2790.82 0.981222 1.61299 0
M  V30 30223 O 2790.17 -0.0282548 1.82478 0
M  V30 30224 C 2790.23 3.40651 1.20991 0
M  V30 30225 O 2789.95 4.3761 0.207052 0
M  V30 30226 C 2791.45 3.97362 1.96516 0
M  V30 30227 H 2788.67 0.653592 0.151848 0
M  V30 30228 H 2791.21 2.03677 -0.183233 0
M  V30 30229 H 2789.37 3.36907 1.91239 0
M  V30 30230 H 2789.78 5.2019 0.67098 0
M  V30 30231 H 2791.25 4.98649 2.36755 0
M  V30 30232 H 2791.73 3.35557 2.8337 0
M  V30 30233 H 2792.34 4.046 1.31069 0
M  V30 30234 N 2790.65 -0.171793 1.56661 0
M  V30 30235 C 2791.88 -0.904082 1.86102 0
M  V30 30236 C 2792.3 -1.75847 0.687258 0
M  V30 30237 O 2791.65 -1.79236 -0.343639 0
M  V30 30238 C 2791.7 -1.78121 3.14571 0
M  V30 30239 O 2791.42 -0.961291 4.27423 0
M  V30 30240 C 2792.93 -2.62321 3.57355 0
M  V30 30241 H 2790.15 -0.262673 0.61745 0
M  V30 30242 H 2792.69 -0.172032 2.03775 0
M  V30 30243 H 2790.84 -2.46661 2.98726 0
M  V30 30244 H 2791.26 -1.56114 5.00728 0
M  V30 30245 H 2792.73 -3.19482 4.5015 0
M  V30 30246 H 2793.21 -3.37168 2.81451 0
M  V30 30247 H 2793.82 -1.99114 3.75811 0
M  V30 30248 N 2792.13 -1.51324 -0.44033 0
M  V30 30249 C 2793.06 -1.75367 -1.54171 0
M  V30 30250 C 2794.04 -0.603403 -1.59038 0
M  V30 30251 O 2795.23 -0.845804 -1.74814 0
M  V30 30252 C 2792.36 -1.87598 -2.92274 0
M  V30 30253 C 2791.31 -3.03014 -3.02269 0
M  V30 30254 C 2790.64 -3.00425 -4.42322 0
M  V30 30255 C 2791.94 -4.43029 -2.76627 0
M  V30 30256 H 2793.63 -2.67588 -1.34302 0
M  V30 30257 H 2791.18 -1.28764 -0.644656 0
M  V30 30258 H 2793.13 -2.03002 -3.69281 0
M  V30 30259 H 2791.85 -0.920234 -3.13368 0
M  V30 30260 H 2790.51 -2.87311 -2.27701 0
M  V30 30261 H 2790.16 -2.02634 -4.60379 0
M  V30 30262 H 2789.86 -3.77926 -4.49939 0
M  V30 30263 H 2791.38 -3.17918 -5.21306 0
M  V30 30264 H 2792.8 -4.59099 -3.43368 0
M  V30 30265 H 2791.2 -5.22213 -2.95657 0
M  V30 30266 H 2792.27 -4.53273 -1.72254 0
M  V30 30267 N 2793.61 0.695578 -1.41419 0
M  V30 30268 C 2795.02 1.00617 -1.23889 0
M  V30 30269 C 2795.22 2.01092 -0.128241 0
M  V30 30270 O 2794.28 2.4735 0.507364 0
M  V30 30271 C 2795.59 1.53079 -2.58819 0
M  V30 30272 C 2797.14 1.64963 -2.66001 0
M  V30 30273 C 2797.62 2.20826 -4.01248 0
M  V30 30274 N 2799.11 2.28187 -4.03094 0
M  V30 30275 C 2799.84 2.72439 -5.04544 0
M  V30 30276 N 2799.34 3.16296 -6.16384 0
M  V30 30277 N 2801.13 2.72002 -4.91906 0
M  V30 30278 H 2793.28 0.0299688 -2.12379 0
M  V30 30279 H 2795.55 0.0758631 -0.94496 0
M  V30 30280 H 2795.25 0.867087 -3.40844 0
M  V30 30281 H 2795.13 2.51293 -2.81304 0
M  V30 30282 H 2797.51 2.30444 -1.84335 0
M  V30 30283 H 2797.59 0.652939 -2.47326 0
M  V30 30284 H 2797.24 1.5596 -4.83362 0
M  V30 30285 H 2797.17 3.21247 -4.17263 0
M  V30 30286 H 2799.66 1.97237 -3.22345 0
M  V30 30287 H 2799.97 3.48688 -6.89664 0
M  V30 30288 H 2798.32 3.14204 -6.1992 0
M  V30 30289 H 2801.51 2.37088 -4.03617 0
M  V30 30290 H 2801.68 3.06171 -5.71107 0
M  V30 30291 N 2795.09 1.27247 0.929833 0
M  V30 30292 C 2796.5 1.04606 1.2054 0
M  V30 30293 C 2796.7 -0.221719 2.00276 0
M  V30 30294 O 2795.76 -0.927792 2.34837 0
M  V30 30295 C 2797.07 2.2842 1.95562 0
M  V30 30296 C 2798.62 2.33437 2.08509 0
M  V30 30297 C 2799.1 3.56975 2.86937 0
M  V30 30298 N 2800.59 3.5752 2.94506 0
M  V30 30299 C 2801.32 4.4978 3.55648 0
M  V30 30300 N 2800.82 5.52342 4.18199 0
M  V30 30301 N 2802.61 4.37408 3.53031 0
M  V30 30302 H 2794.76 2.08655 0.397076 0
M  V30 30303 H 2797.02 0.917571 0.23826 0
M  V30 30304 H 2796.73 3.20694 1.44389 0
M  V30 30305 H 2796.6 2.33568 2.96186 0
M  V30 30306 H 2798.99 1.41671 2.58869 0
M  V30 30307 H 2799.07 2.32294 1.07113 0
M  V30 30308 H 2798.72 4.49077 2.37261 0
M  V30 30309 H 2798.65 3.55369 3.88614 0
M  V30 30310 H 2801.14 2.83345 2.50048 0
M  V30 30311 H 2801.45 6.1891 4.62785 0
M  V30 30312 H 2799.8 5.56187 4.16751 0
M  V30 30313 H 2802.99 3.56494 3.03364 0
M  V30 30314 H 2803.16 5.095 4.00391 0
M  V30 30315 N 2796.57 -1.13603 1.09235 0
M  V30 30316 C 2797.51 -2.18953 0.72996 0
M  V30 30317 C 2798.48 -1.63586 -0.287887 0
M  V30 30318 O 2799.67 -1.90041 -0.16997 0
M  V30 30319 C 2796.81 -3.44754 0.154549 0
M  V30 30320 C 2795.92 -4.14232 1.2262 0
M  V30 30321 C 2795.06 -5.27642 0.61375 0
M  V30 30322 C 2794.09 -5.88967 1.66684 0
M  V30 30323 N 2793.23 -6.93813 1.07557 0
M  V30 30324 H 2798.07 -2.49299 1.63261 0
M  V30 30325 H 2795.61 -1.22411 0.815715 0
M  V30 30326 H 2797.57 -4.16735 -0.19685 0
M  V30 30327 H 2796.2 -3.14864 -0.711377 0
M  V30 30328 H 2795.25 -3.40554 1.69491 0
M  V30 30329 H 2796.56 -4.55895 2.02388 0
M  V30 30330 H 2795.71 -6.06333 0.211082 0
M  V30 30331 H 2794.45 -4.87224 -0.215498 0
M  V30 30332 H 2793.46 -5.08974 2.07908 0
M  V30 30333 H 2794.68 -6.31459 2.49872 0
M  V30 30334 H 2792.63 -6.55454 0.267567 0
M  V30 30335 H 2792.55 -7.34007 1.81024 0
M  V30 30336 H 2793.81 -7.76359 0.699042 0
M  V30 30337 N 2798.04 -0.879253 -1.30793 0
M  V30 30338 C 2798.98 -0.299065 -2.2724 0
M  V30 30339 C 2799.99 0.543139 -1.53473 0
M  V30 30340 O 2801.18 0.36362 -1.74757 0
M  V30 30341 C 2798.28 0.593872 -3.33656 0
M  V30 30342 C 2797.45 -0.217977 -4.36857 0
M  V30 30343 C 2796.51 0.604554 -5.22716 0
M  V30 30344 O 2795.54 0.0292838 -5.69192 0
M  V30 30345 N 2796.74 1.91478 -5.48011 0
M  V30 30346 H 2799.5 -1.12793 -2.77665 0
M  V30 30347 H 2797.06 -0.741662 -1.43913 0
M  V30 30348 H 2799.06 1.15005 -3.88015 0
M  V30 30349 H 2797.63 1.32341 -2.83204 0
M  V30 30350 H 2796.85 -0.955603 -3.82442 0
M  V30 30351 H 2798.13 -0.774702 -5.02868 0
M  V30 30352 H 2797.53 2.40516 -5.12024 0
M  V30 30353 H 2796.09 2.41854 -6.05269 0
M  V30 30354 N 2799.52 1.44037 -0.639624 0
M  V30 30355 C 2800.43 2.3452 0.0611965 0
M  V30 30356 C 2801.45 1.53107 0.82669 0
M  V30 30357 O 2802.62 1.85807 0.777027 0
M  V30 30358 C 2799.69 3.31206 1.02486 0
M  V30 30359 C 2798.75 4.28525 0.257804 0
M  V30 30360 C 2797.98 5.20592 1.17557 0
M  V30 30361 O 2798.21 5.16776 2.41452 0
M  V30 30362 O 2797.14 5.98322 0.655302 0
M  V30 30363 H 2800.97 2.95915 -0.683232 0
M  V30 30364 H 2798.55 1.43951 -0.399809 0
M  V30 30365 H 2800.43 3.90697 1.57905 0
M  V30 30366 H 2799.11 2.72333 1.74975 0
M  V30 30367 H 2798.01 3.72555 -0.339632 0
M  V30 30368 H 2799.35 4.90342 -0.42724 0
M  V30 30369 N 2801 0.380691 1.52933 0
M  V30 30370 C 2801.91 -0.466152 2.29922 0
M  V30 30371 C 2802.93 -1.0792 1.36489 0
M  V30 30372 O 2804.1 -1.08687 1.69555 0
M  V30 30373 C 2801.17 -1.58261 3.08471 0
M  V30 30374 C 2800.23 -0.995553 4.17597 0
M  V30 30375 C 2799.46 -2.0588 4.92391 0
M  V30 30376 O 2799.68 -3.27246 4.6719 0
M  V30 30377 O 2798.62 -1.68092 5.77952 0
M  V30 30378 H 2802.44 0.160788 3.03274 0
M  V30 30379 H 2800.03 0.144643 1.48698 0
M  V30 30380 H 2801.91 -2.23139 3.57473 0
M  V30 30381 H 2800.59 -2.19467 2.37941 0
M  V30 30382 H 2799.49 -0.310266 3.72811 0
M  V30 30383 H 2800.83 -0.427831 4.90337 0
M  V30 30384 N 2802.48 -1.57214 0.110268 0
M  V30 30385 C 2803.72 -1.95181 -0.55065 0
M  V30 30386 C 2804.06 -0.993151 -1.66884 0
M  V30 30387 O 2803.33 -0.0288249 -1.94479 0
M  V30 30388 C 2803.61 -3.43157 -1.09157 0
M  V30 30389 C 2803.47 -4.49794 0.0225989 0
M  V30 30390 C 2804.79 -3.92782 -1.98521 0
M  V30 30391 H 2801.91 -0.709711 -0.198694 0
M  V30 30392 H 2804.55 -1.89106 0.184057 0
M  V30 30393 H 2802.7 -3.48465 -1.71769 0
M  V30 30394 H 2804.37 -4.5659 0.657524 0
M  V30 30395 H 2802.61 -4.28326 0.686943 0
M  V30 30396 H 2803.28 -5.50571 -0.396963 0
M  V30 30397 H 2805.76 -3.89723 -1.45793 0
M  V30 30398 H 2804.64 -4.96857 -2.33289 0
M  V30 30399 H 2804.9 -3.32963 -2.90841 0
M  V30 30400 N 2803.96 0.163482 -1.5675 0
M  V30 30401 C 2805.18 0.898231 -1.8694 0
M  V30 30402 C 2805.61 1.7469 -0.697486 0
M  V30 30403 O 2804.96 1.77824 0.353296 0
M  V30 30404 C 2805.01 1.74436 -3.15602 0
M  V30 30405 O 2804.12 2.84684 -2.98376 0
M  V30 30406 H 2803.46 0.251167 -0.614664 0
M  V30 30407 H 2805.99 0.159262 -2.03979 0
M  V30 30408 H 2806 2.14271 -3.47206 0
M  V30 30409 H 2804.67 1.12103 -4.00507 0
M  V30 30410 H 2803.25 2.48375 -2.78144 0
M  V30 30411 N 2805.43 1.51555 0.432299 0
M  V30 30412 C 2806.4 1.72636 1.50762 0
M  V30 30413 C 2807.4 0.59634 1.49333 0
M  V30 30414 O 2808.59 0.863952 1.51266 0
M  V30 30415 C 2805.72 1.78746 2.90281 0
M  V30 30416 H 2806.91 2.68611 1.33372 0
M  V30 30417 H 2804.46 1.41621 0.661304 0
M  V30 30418 H 2805.2 0.846032 3.1307 0
M  V30 30419 H 2804.98 2.60875 2.92723 0
M  V30 30420 H 2806.47 1.96877 3.68279 0
M  V30 30421 N 2806.91 -0.688069 1.41786 0
M  V30 30422 C 2808.16 -1.45028 1.41756 0
M  V30 30423 C 2808.49 -1.94178 0.0291086 0
M  V30 30424 O 2807.77 -1.70032 -0.944426 0
M  V30 30425 C 2808.05 -2.65682 2.43074 0
M  V30 30426 C 2807.9 -2.22249 3.91057 0
M  V30 30427 C 2809.22 -3.67888 2.41549 0
M  V30 30428 H 2806.34 -0.526018 0.516212 0
M  V30 30429 H 2808.98 -0.783075 1.73112 0
M  V30 30430 H 2807.13 -3.22606 2.16466 0
M  V30 30431 H 2808.8 -1.70594 4.28597 0
M  V30 30432 H 2807.05 -1.53955 4.05562 0
M  V30 30433 H 2807.72 -3.08855 4.57507 0
M  V30 30434 H 2810.19 -3.20653 2.65181 0
M  V30 30435 H 2809.07 -4.49908 3.14442 0
M  V30 30436 H 2809.33 -4.18103 1.43673 0
M  V30 30437 N 2808.39 -1.27739 -0.923072 0
M  V30 30438 C 2809.64 -1.14517 -1.67373 0
M  V30 30439 C 2809.97 0.307391 -1.91752 0
M  V30 30440 O 2809.24 1.22444 -1.51121 0
M  V30 30441 C 2809.53 -1.93425 -3.03741 0
M  V30 30442 C 2809.38 -3.46691 -2.86575 0
M  V30 30443 C 2810.7 -1.74235 -4.04141 0
M  V30 30444 H 2807.82 -0.417385 -0.60742 0
M  V30 30445 H 2810.46 -1.56948 -1.07086 0
M  V30 30446 H 2808.61 -1.57366 -3.55201 0
M  V30 30447 H 2810.28 -3.92605 -2.42196 0
M  V30 30448 H 2808.52 -3.72797 -2.21822 0
M  V30 30449 H 2809.2 -3.9715 -3.83374 0
M  V30 30450 H 2811.67 -2.05684 -3.61709 0
M  V30 30451 H 2810.55 -2.31833 -4.97539 0
M  V30 30452 H 2810.81 -0.691449 -4.36659 0
M  V30 30453 N 2809.87 1.13022 -1.09836 0
M  V30 30454 C 2810.8 2.20665 -0.76349 0
M  V30 30455 C 2811.78 1.6809 0.260748 0
M  V30 30456 O 2812.96 1.93778 0.127881 0
M  V30 30457 C 2810.09 3.46792 -0.187805 0
M  V30 30458 C 2809.05 4.12482 -1.14203 0
M  V30 30459 C 2808.37 5.32986 -0.427849 0
M  V30 30460 C 2809.67 4.59334 -2.48615 0
M  V30 30461 H 2811.37 2.48933 -1.66351 0
M  V30 30462 H 2808.91 1.19647 -0.801282 0
M  V30 30463 H 2810.87 4.21359 0.0585635 0
M  V30 30464 H 2809.59 3.17932 0.747429 0
M  V30 30465 H 2808.25 3.39888 -1.37375 0
M  V30 30466 H 2807.9 5.00391 0.511659 0
M  V30 30467 H 2807.6 5.77884 -1.06413 0
M  V30 30468 H 2809.12 6.10305 -0.189879 0
M  V30 30469 H 2810.54 5.25304 -2.29628 0
M  V30 30470 H 2808.93 5.14988 -3.08071 0
M  V30 30471 H 2810 3.73637 -3.09069 0
M  V30 30472 N 2811.35 0.886177 1.30325 0
M  V30 30473 C 2812.28 0.311112 2.27079 0
M  V30 30474 C 2813.29 -0.534992 1.53758 0
M  V30 30475 O 2814.48 -0.354347 1.74948 0
M  V30 30476 C 2811.58 -0.576169 3.33966 0
M  V30 30477 C 2810.75 0.241141 4.36735 0
M  V30 30478 C 2809.81 -0.576824 5.23029 0
M  V30 30479 O 2808.84 0.000902282 5.692 0
M  V30 30480 N 2810.04 -1.88569 5.49019 0
M  V30 30481 H 2812.81 1.14264 2.77063 0
M  V30 30482 H 2810.37 0.749284 1.43518 0
M  V30 30483 H 2812.36 -1.12946 3.8862 0
M  V30 30484 H 2810.93 -1.30837 2.83902 0
M  V30 30485 H 2810.15 0.975872 3.8193 0
M  V30 30486 H 2811.44 0.80136 5.0245 0
M  V30 30487 H 2810.83 -2.37797 5.13292 0
M  V30 30488 H 2809.39 -2.3864 6.06543 0
M  V30 30489 N 2812.82 -1.43695 0.647253 0
M  V30 30490 C 2814.24 -1.56475 0.314283 0
M  V30 30491 C 2814.44 -1.63198 -1.18189 0
M  V30 30492 O 2813.5 -1.58379 -1.96652 0
M  V30 30493 C 2814.81 -2.82858 1.02039 0
M  V30 30494 C 2816.36 -2.96593 1.00007 0
M  V30 30495 C 2816.83 -4.258 1.68696 0
M  V30 30496 N 2818.32 -4.32651 1.65432 0
M  V30 30497 C 2819.06 -5.3138 2.1546 0
M  V30 30498 N 2818.55 -6.36422 2.7375 0
M  V30 30499 N 2820.35 -5.22994 2.05994 0
M  V30 30500 H 2812.5 -1.37575 1.61824 0
M  V30 30501 H 2814.76 -0.660332 0.680195 0
M  V30 30502 H 2814.47 -2.83931 2.07547 0
M  V30 30503 H 2814.34 -3.72896 0.568211 0
M  V30 30504 H 2816.73 -2.95063 -0.0465801 0
M  V30 30505 H 2816.81 -2.0786 1.4909 0
M  V30 30506 H 2816.45 -4.2809 2.73315 0
M  V30 30507 H 2816.38 -5.13419 1.17085 0
M  V30 30508 H 2818.87 -3.5736 1.2289 0
M  V30 30509 H 2819.19 -7.08067 3.09614 0
M  V30 30510 H 2817.53 -6.37062 2.77808 0
M  V30 30511 H 2820.72 -4.39846 1.60165 0
M  V30 30512 H 2820.9 -5.9978 2.45292 0
M  V30 30513 N 2814.3 -0.388796 -1.52729 0
M  V30 30514 C 2815.27 0.434505 -2.25044 0
M  V30 30515 C 2816.27 0.990622 -1.26662 0
M  V30 30516 O 2817.46 0.872704 -1.50763 0
M  V30 30517 C 2814.59 1.60956 -3.00509 0
M  V30 30518 H 2815.78 -0.198602 -2.99242 0
M  V30 30519 H 2813.33 -0.140902 -1.55664 0
M  V30 30520 H 2814.07 2.28011 -2.30611 0
M  V30 30521 H 2813.85 1.21751 -3.72719 0
M  V30 30522 H 2815.34 2.19245 -3.55417 0
M  V30 30523 N 2815.78 1.57153 -0.118604 0
M  V30 30524 C 2817.01 1.99243 0.546431 0
M  V30 30525 C 2817.42 0.997176 1.60789 0
M  V30 30526 O 2816.76 -0.0181422 1.83691 0
M  V30 30527 C 2816.82 3.37745 1.23161 0
M  V30 30528 C 2816.49 4.55891 0.318146 0
M  V30 30529 C 2817.48 5.18009 -0.44308 0
M  V30 30530 C 2815.17 5.01776 0.229333 0
M  V30 30531 C 2817.16 6.24398 -1.28085 0
M  V30 30532 C 2814.85 6.08027 -0.612073 0
M  V30 30533 C 2815.85 6.69205 -1.3658 0
M  V30 30534 O 2815.54 7.73403 -2.19323 0
M  V30 30535 H 2815.27 0.65931 0.149286 0
M  V30 30536 H 2817.82 2.04408 -0.201639 0
M  V30 30537 H 2816.05 3.29333 2.02674 0
M  V30 30538 H 2817.74 3.64126 1.79352 0
M  V30 30539 H 2818.51 4.83475 -0.384335 0
M  V30 30540 H 2814.39 4.53905 0.805691 0
M  V30 30541 H 2817.93 6.72079 -1.86964 0
M  V30 30542 H 2813.83 6.4199 -0.672213 0
M  V30 30543 H 2814.6 7.90498 -2.12261 0
M  V30 30544 N 2817.26 -0.155167 1.56834 0
M  V30 30545 C 2818.67 -0.507523 1.51315 0
M  V30 30546 C 2818.87 -1.83808 0.825647 0
M  V30 30547 O 2817.93 -2.49427 0.392754 0
M  V30 30548 C 2819.24 -0.525368 2.96075 0
M  V30 30549 C 2820.79 -0.611451 3.0697 0
M  V30 30550 C 2821.27 -0.660036 4.53219 0
M  V30 30551 N 2822.76 -0.722484 4.57531 0
M  V30 30552 C 2823.49 -0.780923 5.68057 0
M  V30 30553 N 2822.99 -0.799206 6.88175 0
M  V30 30554 N 2824.78 -0.82118 5.56069 0
M  V30 30555 H 2816.93 0.717098 1.99929 0
M  V30 30556 H 2819.2 0.260512 0.911503 0
M  V30 30557 H 2818.9 0.383936 3.49598 0
M  V30 30558 H 2818.78 -1.36618 3.5159 0
M  V30 30559 H 2821.16 -1.51118 2.53471 0
M  V30 30560 H 2821.24 0.256351 2.54512 0
M  V30 30561 H 2820.89 0.235499 5.07354 0
M  V30 30562 H 2820.82 -1.54421 5.0345 0
M  V30 30563 H 2823.31 -0.715984 3.71055 0
M  V30 30564 H 2823.62 -0.845418 7.68162 0
M  V30 30565 H 2821.97 -0.767216 6.90752 0
M  V30 30566 H 2825.16 -0.80401 4.61143 0
M  V30 30567 H 2825.33 -0.863259 6.42224 0
M  V30 30568 N 2818.74 -1.51782 -0.424256 0
M  V30 30569 C 2819.98 -1.64771 -1.17025 0
M  V30 30570 C 2820.31 -0.372557 -1.91408 0
M  V30 30571 O 2819.58 0.612076 -1.86093 0
M  V30 30572 H 2818.16 -0.607289 -0.434981 0
M  V30 30573 H 2820.82 -1.88766 -0.485135 0
M  V30 30574 H 2819.91 -2.48163 -1.89266 0
M  V30 30575 N 2820.21 0.68054 -1.42149 0
M  V30 30576 C 2821.16 1.7867 -1.41637 0
M  V30 30577 C 2822.15 1.58292 -0.288522 0
M  V30 30578 O 2823.34 1.68868 -0.530325 0
M  V30 30579 C 2820.47 3.1709 -1.31564 0
M  V30 30580 C 2819.56 3.43111 -2.49271 0
M  V30 30581 N 2819.95 3.39747 -3.74708 0
M  V30 30582 C 2818.24 3.73723 -2.43408 0
M  V30 30583 C 2818.95 3.65092 -4.52861 0
M  V30 30584 N 2817.92 3.85575 -3.83188 0
M  V30 30585 H 2821.72 1.74454 -2.36523 0
M  V30 30586 H 2819.24 0.881147 -1.36417 0
M  V30 30587 H 2821.23 3.96349 -1.29279 0
M  V30 30588 H 2819.89 3.22507 -0.376752 0
M  V30 30589 H 2820.91 3.1978 -4.07383 0
M  V30 30590 H 2817.58 3.8642 -1.58069 0
M  V30 30591 H 2818.97 3.685 -5.61834 0
M  V30 30592 N 2821.69 1.28226 0.916285 0
M  V30 30593 C 2822.62 1.14468 2.03518 0
M  V30 30594 C 2823.6 0.0431143 1.70045 0
M  V30 30595 O 2824.79 0.219653 1.92954 0
M  V30 30596 C 2821.92 0.803087 3.37887 0
M  V30 30597 C 2820.87 1.85914 3.85512 0
M  V30 30598 C 2820.2 1.37125 5.16818 0
M  V30 30599 C 2821.5 3.26526 4.07649 0
M  V30 30600 H 2823.19 2.08068 2.15286 0
M  V30 30601 H 2820.74 1.00176 1.03444 0
M  V30 30602 H 2822.69 0.693611 4.15653 0
M  V30 30603 H 2821.42 -0.168617 3.26164 0
M  V30 30604 H 2820.07 1.95772 3.0995 0
M  V30 30605 H 2819.72 0.388678 5.01496 0
M  V30 30606 H 2819.42 2.07738 5.49653 0
M  V30 30607 H 2820.95 1.27494 5.97141 0
M  V30 30608 H 2822.36 3.19604 4.75948 0
M  V30 30609 H 2820.76 3.94951 4.51811 0
M  V30 30610 H 2821.83 3.70732 3.12547 0
M  V30 30611 N 2823.17 -1.12438 1.10433 0
M  V30 30612 C 2824.13 -2.16353 0.75658 0
M  V30 30613 C 2825.13 -1.59302 -0.218962 0
M  V30 30614 O 2826.32 -1.74199 0.0041903 0
M  V30 30615 C 2823.46 -3.40686 0.120672 0
M  V30 30616 H 2824.65 -2.48629 1.677 0
M  V30 30617 H 2822.2 -1.27444 0.904854 0
M  V30 30618 H 2822.94 -3.14009 -0.810481 0
M  V30 30619 H 2822.72 -3.83371 0.82276 0
M  V30 30620 H 2824.21 -4.17463 -0.106871 0
M  V30 30621 N 2824.65 -0.893076 -1.29853 0
M  V30 30622 C 2826.07 -0.588225 -1.48365 0
M  V30 30623 C 2826.27 0.871986 -1.81655 0
M  V30 30624 O 2825.32 1.65265 -1.90903 0
M  V30 30625 C 2826.63 -1.50835 -2.60133 0
M  V30 30626 C 2828.18 -1.51284 -2.74011 0
M  V30 30627 C 2828.66 -2.41909 -3.88901 0
M  V30 30628 N 2830.15 -2.39918 -3.96224 0
M  V30 30629 C 2830.88 -3.06747 -4.84452 0
M  V30 30630 N 2830.38 -3.8283 -5.77419 0
M  V30 30631 N 2832.17 -2.95938 -4.77888 0
M  V30 30632 H 2824.32 -1.83759 -1.06519 0
M  V30 30633 H 2826.59 -0.787027 -0.528481 0
M  V30 30634 H 2826.29 -2.54844 -2.42379 0
M  V30 30635 H 2826.17 -1.22394 -3.56791 0
M  V30 30636 H 2828.55 -0.48023 -2.91166 0
M  V30 30637 H 2828.63 -1.8376 -1.77949 0
M  V30 30638 H 2828.28 -3.4526 -3.72502 0
M  V30 30639 H 2828.21 -2.06746 -4.84318 0
M  V30 30640 H 2830.7 -1.84634 -3.29725 0
M  V30 30641 H 2831.01 -4.30894 -6.41522 0
M  V30 30642 H 2829.36 -3.86938 -5.77325 0
M  V30 30643 H 2832.55 -2.36019 -4.04244 0
M  V30 30644 H 2832.72 -3.48296 -5.46438 0
M  V30 30645 N 2826.13 1.4335 -0.654865 0
M  V30 30646 C 2827.54 1.56306 -0.322577 0
M  V30 30647 C 2827.74 1.63823 1.17321 0
M  V30 30648 O 2826.8 1.5942 1.9581 0
M  V30 30649 C 2828.11 2.82313 -1.03538 0
M  V30 30650 C 2829.66 2.96059 -1.01579 0
M  V30 30651 C 2830.14 4.24899 -1.70952 0
M  V30 30652 N 2831.63 4.31767 -1.67724 0
M  V30 30653 C 2832.36 5.3023 -2.18275 0
M  V30 30654 N 2831.86 6.34961 -2.77121 0
M  V30 30655 N 2833.65 5.21894 -2.08765 0
M  V30 30656 H 2825.8 1.36715 -1.62551 0
M  V30 30657 H 2828.06 0.656715 -0.683688 0
M  V30 30658 H 2827.77 2.82827 -2.0905 0
M  V30 30659 H 2827.64 3.72589 -0.587979 0
M  V30 30660 H 2830.03 2.95084 0.0309315 0
M  V30 30661 H 2830.11 2.07067 -1.5019 0
M  V30 30662 H 2829.76 4.26635 -2.75582 0
M  V30 30663 H 2829.69 5.12791 -1.19806 0
M  V30 30664 H 2832.18 3.56704 -1.24784 0
M  V30 30665 H 2832.49 7.06415 -3.13365 0
M  V30 30666 H 2830.84 6.3558 -2.81182 0
M  V30 30667 H 2834.03 4.38991 -1.62496 0
M  V30 30668 H 2834.2 5.98471 -2.48469 0
M  V30 30669 N 2827.61 0.39689 1.52521 0
M  V30 30670 C 2828.85 -0.182501 2.01274 0
M  V30 30671 C 2829.17 -1.46683 1.28488 0
M  V30 30672 O 2828.44 -1.91622 0.407167 0
M  V30 30673 H 2827.02 -0.0704311 0.743672 0
M  V30 30674 H 2829.69 0.530322 1.87546 0
M  V30 30675 H 2828.78 -0.387331 3.09687 0
M  V30 30676 N 2829.08 -1.57088 0.126936 0
M  V30 30677 C 2830.33 -1.95465 -0.529133 0
M  V30 30678 C 2830.66 -1.0107 -1.66178 0
M  V30 30679 O 2829.91 -0.0360598 -1.95667 0
M  V30 30680 C 2830.21 -3.40214 -1.09494 0
M  V30 30681 C 2829.88 -4.50824 -0.0828222 0
M  V30 30682 C 2828.54 -4.80803 0.195461 0
M  V30 30683 C 2830.89 -5.17659 0.606502 0
M  V30 30684 C 2828.22 -5.74931 1.16922 0
M  V30 30685 C 2830.57 -6.12835 1.56894 0
M  V30 30686 C 2829.24 -6.41203 1.85513 0
M  V30 30687 H 2828.51 -0.715256 -0.193624 0
M  V30 30688 H 2831.15 -1.9035 0.209523 0
M  V30 30689 H 2829.46 -3.42062 -1.91052 0
M  V30 30690 H 2831.16 -3.67225 -1.61081 0
M  V30 30691 H 2827.75 -4.27478 -0.309904 0
M  V30 30692 H 2831.93 -4.94647 0.404684 0
M  V30 30693 H 2827.19 -5.95212 1.39761 0
M  V30 30694 H 2831.36 -6.63707 2.10871 0
M  V30 30695 H 2828.99 -7.13947 2.61121 0
M  V30 30696 N 2830.56 0.146848 -1.56914 0
M  V30 30697 C 2831.81 0.857866 -1.82547 0
M  V30 30698 C 2832.12 1.82329 -0.708201 0
M  V30 30699 O 2833.33 2.57847 -0.850139 0
M  V30 30700 C 2831.79 1.57617 -3.23551 0
M  V30 30701 C 2831.39 0.653146 -4.43213 0
M  V30 30702 C 2833.14 2.27396 -3.58457 0
M  V30 30703 C 2831.04 1.37308 -5.75239 0
M  V30 30704 H 2829.97 0.324098 -0.680791 0
M  V30 30705 H 2832.63 0.110607 -1.83166 0
M  V30 30706 H 2831.01 2.36906 -3.17319 0
M  V30 30707 H 2832.18 -0.104533 -4.60681 0
M  V30 30708 H 2830.5 0.0637605 -4.16351 0
M  V30 30709 H 2833.09 2.81899 -4.54354 0
M  V30 30710 H 2833.44 3.03896 -2.84522 0
M  V30 30711 H 2833.97 1.55025 -3.6635 0
M  V30 30712 H 2830.71 0.649927 -6.5227 0
M  V30 30713 H 2830.23 2.10347 -5.61707 0
M  V30 30714 H 2831.91 1.91395 -6.18043 0
M  V30 30715 N 2832.04 1.52005 0.4162 0
M  V30 30716 C 2833.28 1.67389 1.17305 0
M  V30 30717 C 2833.64 0.391864 1.87959 0
M  V30 30718 O 2834.84 0.421717 2.65471 0
M  V30 30719 C 2833.12 2.85758 2.14656 0
M  V30 30720 S 2834.67 3.21586 2.98543 0
M  V30 30721 H 2831.49 0.589507 0.397495 0
M  V30 30722 H 2834.09 1.89977 0.461397 0
M  V30 30723 H 2832.8 3.7732 1.61425 0
M  V30 30724 H 2832.33 2.65422 2.9037 0
M  V30 30725 H 2834.34 2.69659 4.16531 0
M  V30 30726 N 2833.52 -0.672992 1.42508 0
M  V30 30727 C 2834.46 -1.78649 1.46127 0
M  V30 30728 C 2835.43 -1.63124 0.313036 0
M  V30 30729 O 2836.62 -1.83652 0.51737 0
M  V30 30730 C 2833.76 -3.16691 1.37116 0
M  V30 30731 C 2832.87 -3.4349 2.61989 0
M  V30 30732 C 2832.01 -4.71271 2.45107 0
M  V30 30733 C 2831.05 -4.9111 3.65345 0
M  V30 30734 N 2830.18 -6.10133 3.47394 0
M  V30 30735 H 2835.02 -1.7489 2.41283 0
M  V30 30736 H 2832.56 -0.853745 1.1979 0
M  V30 30737 H 2834.52 -3.96465 1.29888 0
M  V30 30738 H 2833.15 -3.19569 0.455546 0
M  V30 30739 H 2832.2 -2.57956 2.79576 0
M  V30 30740 H 2833.51 -3.54043 3.51361 0
M  V30 30741 H 2832.67 -5.59139 2.35475 0
M  V30 30742 H 2831.41 -4.63004 1.53227 0
M  V30 30743 H 2830.41 -4.01684 3.75407 0
M  V30 30744 H 2831.64 -5.01221 4.58208 0
M  V30 30745 H 2829.58 -6.03036 2.58233 0
M  V30 30746 H 2829.5 -6.21555 4.30355 0
M  V30 30747 H 2830.77 -7.00675 3.41578 0
M  V30 30748 N 2835 -1.2871 -0.909472 0
M  V30 30749 C 2835.94 -1.13004 -2.01243 0
M  V30 30750 C 2836.91 -0.0259976 -1.6608 0
M  V30 30751 O 2838.1 -0.191721 -1.89834 0
M  V30 30752 C 2835.24 -0.802374 -3.35643 0
M  V30 30753 C 2834.35 -1.98588 -3.83649 0
M  V30 30754 C 2833.49 -1.59846 -5.06579 0
M  V30 30755 C 2832.52 -2.74836 -5.46929 0
M  V30 30756 N 2831.66 -2.36557 -6.61048 0
M  V30 30757 H 2836.5 -2.07374 -2.14009 0
M  V30 30758 H 2834.04 -1.03207 -1.04818 0
M  V30 30759 H 2836 -0.593129 -4.12962 0
M  V30 30760 H 2834.63 0.1044 -3.22631 0
M  V30 30761 H 2833.68 -2.30713 -3.02449 0
M  V30 30762 H 2834.99 -2.84786 -4.0951 0
M  V30 30763 H 2834.14 -1.35153 -5.91455 0
M  V30 30764 H 2832.88 -0.707838 -4.82536 0
M  V30 30765 H 2831.89 -3.00223 -4.60593 0
M  V30 30766 H 2833.11 -3.64548 -5.72959 0
M  V30 30767 H 2831.06 -1.4997 -6.38627 0
M  V30 30768 H 2830.98 -3.16289 -6.86656 0
M  V30 30769 H 2832.24 -2.15159 -7.49218 0
M  V30 30770 N 2836.47 1.1185 -1.11028 0
M  V30 30771 C 2837.7 1.87307 -0.878851 0
M  V30 30772 C 2838.12 1.79956 0.571078 0
M  V30 30773 O 2837.47 1.1778 1.39407 0
M  V30 30774 C 2837.52 3.36285 -1.32646 0
M  V30 30775 O 2837.25 3.43471 -2.71954 0
M  V30 30776 C 2838.75 4.28661 -1.12982 0
M  V30 30777 H 2835.97 0.592453 -0.315025 0
M  V30 30778 H 2838.51 1.41489 -1.47652 0
M  V30 30779 H 2836.67 3.79623 -0.772336 0
M  V30 30780 H 2837.08 4.36205 -2.91248 0
M  V30 30781 H 2838.55 5.31452 -1.49208 0
M  V30 30782 H 2839.03 4.39146 -0.0689899 0
M  V30 30783 H 2839.64 3.9111 -1.67071 0
M  V30 30784 N 2837.95 0.89995 1.29378 0
M  V30 30785 C 2839.18 0.541421 1.9969 0
M  V30 30786 C 2839.59 -0.873907 1.67357 0
M  V30 30787 O 2838.95 -1.57687 0.918756 0
M  V30 30788 C 2839 0.724442 3.54167 0
M  V30 30789 O 2838.72 2.08406 3.85355 0
M  V30 30790 C 2840.22 0.370896 4.41746 0
M  V30 30791 H 2837.44 0.207737 0.638033 0
M  V30 30792 H 2839.99 1.20937 1.64908 0
M  V30 30793 H 2838.14 0.103675 3.87261 0
M  V30 30794 H 2838.56 2.1136 4.80028 0
M  V30 30795 H 2840.03 0.54979 5.49255 0
M  V30 30796 H 2840.51 -0.692071 4.33713 0
M  V30 30797 H 2841.11 0.968615 4.14123 0
M  V30 30798 N 2839.43 -1.43001 0.662458 0
M  V30 30799 C 2840.66 -2.06564 0.186039 0
M  V30 30800 C 2841.08 -1.49381 -1.14311 0
M  V30 30801 O 2840.44 -0.607376 -1.70823 0
M  V30 30802 C 2840.49 -3.60406 0.118333 0
M  V30 30803 O 2839.59 -4.02081 -0.916788 0
M  V30 30804 H 2838.93 -0.656562 0.0991096 0
M  V30 30805 H 2841.46 -1.83349 0.90799 0
M  V30 30806 H 2841.47 -4.07953 -0.0619264 0
M  V30 30807 H 2840.15 -4.01401 1.08856 0
M  V30 30808 H 2838.72 -3.66106 -0.70857 0
M  V30 30809 N 2840.91 -0.404973 -1.52308 0
M  V30 30810 C 2841.86 0.437281 -2.28453 0
M  V30 30811 C 2842.85 1.04946 -1.32977 0
M  V30 30812 O 2844.06 0.988132 -1.50452 0
M  V30 30813 H 2840.43 0.159792 -0.734827 0
M  V30 30814 H 2842.4 -0.226202 -2.97541 0
M  V30 30815 C 2841.15 1.54399 -3.11539 0
M  V30 30816 H 2840.47 1.08227 -3.84873 0
M  V30 30817 H 2841.91 2.10722 -3.6793 0
M  V30 30818 C 2840.37 2.50898 -2.24838 0
M  V30 30819 O 2840.9 3.54683 -1.8858 0
M  V30 30820 N 2839.11 2.21009 -1.88689 0
M  V30 30821 H 2838.66 1.36642 -2.18373 0
M  V30 30822 H 2838.61 2.85822 -1.30971 0
M  V30 30823 N 2842.39 1.57018 -0.135265 0
M  V30 30824 C 2843.33 2.16162 0.80887 0
M  V30 30825 C 2844.3 1.09115 1.25232 0
M  V30 30826 O 2845.49 1.37101 1.32695 0
M  V30 30827 C 2842.63 2.77817 2.04724 0
M  V30 30828 C 2841.74 3.99221 1.65067 0
M  V30 30829 C 2840.88 4.48911 2.83994 0
M  V30 30830 C 2839.92 5.62808 2.40653 0
M  V30 30831 N 2839.05 6.07168 3.52549 0
M  V30 30832 H 2843.89 2.96509 0.297699 0
M  V30 30833 H 2841.43 1.46477 0.135238 0
M  V30 30834 H 2843.39 3.11702 2.77305 0
M  V30 30835 H 2842.02 2.00133 2.53272 0
M  V30 30836 H 2841.07 3.71391 0.822964 0
M  V30 30837 H 2842.38 4.81769 1.29227 0
M  V30 30838 H 2841.54 4.8479 3.64779 0
M  V30 30839 H 2840.27 3.65345 3.2307 0
M  V30 30840 H 2839.28 5.26517 1.58305 0
M  V30 30841 H 2840.5 6.48151 2.02676 0
M  V30 30842 H 2838.45 5.26541 3.91269 0
M  V30 30843 H 2838.37 6.84614 3.20687 0
M  V30 30844 H 2839.64 6.4769 4.33726 0
M  V30 30845 N 2843.86 -0.138524 1.5699 0
M  V30 30846 C 2844.79 -1.17237 2.01935 0
M  V30 30847 C 2845.78 -1.44318 0.900356 0
M  V30 30848 O 2846.96 -1.55093 1.16875 0
M  V30 30849 C 2844.09 -2.50347 2.40715 0
M  V30 30850 C 2843.04 -2.3777 3.55878 0
M  V30 30851 C 2842.37 -3.75667 3.80498 0
M  V30 30852 C 2843.67 -1.85463 4.88263 0
M  V30 30853 H 2845.36 -0.798622 2.88552 0
M  V30 30854 H 2842.91 -0.382719 1.38821 0
M  V30 30855 H 2844.86 -3.22905 2.70759 0
M  V30 30856 H 2843.59 -2.89574 1.51045 0
M  V30 30857 H 2842.25 -1.67663 3.26013 0
M  V30 30858 H 2841.89 -4.12344 2.88064 0
M  V30 30859 H 2841.59 -3.68111 4.58005 0
M  V30 30860 H 2843.12 -4.4976 4.12975 0
M  V30 30861 H 2844.53 -2.47821 5.1697 0
M  V30 30862 H 2842.93 -1.88777 5.69634 0
M  V30 30863 H 2844 -0.810851 4.78072 0
M  V30 30864 N 2845.34 -1.52224 -0.408133 0
M  V30 30865 C 2846.25 -1.78529 -1.52199 0
M  V30 30866 C 2847.27 -0.67092 -1.60545 0
M  V30 30867 O 2848.44 -0.956436 -1.77241 0
M  V30 30868 C 2845.51 -1.93133 -2.87924 0
M  V30 30869 C 2844.57 -3.17038 -2.89457 0
M  V30 30870 C 2843.8 -3.30936 -4.18709 0
M  V30 30871 O 2844.03 -2.50076 -5.12658 0
M  V30 30872 O 2842.96 -4.24092 -4.27118 0
M  V30 30873 H 2846.79 -2.73074 -1.32906 0
M  V30 30874 H 2844.37 -1.3708 -0.594088 0
M  V30 30875 H 2846.25 -2.04556 -3.68422 0
M  V30 30876 H 2844.93 -1.01777 -3.07283 0
M  V30 30877 H 2843.84 -3.11073 -2.07809 0
M  V30 30878 H 2845.17 -4.08178 -2.75048 0
M  V30 30879 N 2846.82 0.665425 -1.42863 0
M  V30 30880 C 2847.77 1.79997 -1.47322 0
M  V30 30881 C 2848.76 1.65787 -0.347992 0
M  V30 30882 O 2849.97 1.72282 -0.521436 0
M  V30 30883 H 2846.34 0.593659 -0.461598 0
M  V30 30884 H 2848.31 1.73356 -2.42879 0
M  V30 30885 C 2847.06 3.182 -1.40157 0
M  V30 30886 H 2846.39 3.29766 -2.26041 0
M  V30 30887 H 2847.83 3.97577 -1.47338 0
M  V30 30888 C 2846.29 3.36695 -0.117552 0
M  V30 30889 O 2846.82 3.93116 0.825989 0
M  V30 30890 N 2845.02 2.90583 -0.0316729 0
M  V30 30891 H 2844.57 2.44853 -0.80029 0
M  V30 30892 H 2844.53 3.03334 0.826782 0
M  V30 30893 N 2848.3 1.29191 0.902633 0
M  V30 30894 C 2849.55 1.16761 1.64958 0
M  V30 30895 C 2849.87 -0.281846 1.92952 0
M  V30 30896 O 2849.14 -1.19341 1.55353 0
M  V30 30897 H 2847.72 0.429129 0.611439 0
M  V30 30898 H 2850.38 1.62076 1.08247 0
M  V30 30899 H 2849.48 1.71548 2.60725 0
M  V30 30900 N 2849.78 -1.1126 1.1162 0
M  V30 30901 C 2851.02 -1.82677 0.864501 0
M  V30 30902 C 2851.35 -1.85163 -0.611531 0
M  V30 30903 O 2850.62 -1.32354 -1.44427 0
M  V30 30904 H 2849.2 -0.676481 0.316833 0
M  V30 30905 H 2851.86 -1.34664 1.40896 0
M  V30 30906 H 2850.95 -2.8648 1.23837 0
M  V30 30907 N 2851.25 -0.906798 -1.28899 0
M  V30 30908 C 2852.48 -0.552004 -1.994 0
M  V30 30909 C 2852.9 0.865019 -1.67818 0
M  V30 30910 O 2852.25 1.57197 -0.927105 0
M  V30 30911 C 2852.31 -0.743214 -3.53778 0
M  V30 30912 O 2852.03 -2.10447 -3.84244 0
M  V30 30913 C 2853.53 -0.394318 -4.41543 0
M  V30 30914 H 2850.75 -0.211118 -0.636923 0
M  V30 30915 H 2853.29 -1.21809 -1.64264 0
M  V30 30916 H 2851.45 -0.124211 -3.87201 0
M  V30 30917 H 2851.86 -2.13903 -4.78901 0
M  V30 30918 H 2853.33 -0.578911 -5.48956 0
M  V30 30919 H 2853.81 0.669061 -4.34074 0
M  V30 30920 H 2854.42 -0.990564 -4.13604 0
M  V30 30921 N 2852.73 1.42648 -0.670032 0
M  V30 30922 C 2853.68 2.27975 0.0339146 0
M  V30 30923 C 2854.67 1.40825 0.778271 0
M  V30 30924 O 2855.86 1.64316 0.657968 0
M  V30 30925 C 2852.99 3.2878 0.987842 0
M  V30 30926 C 2852.07 4.23414 0.241078 0
M  V30 30927 N 2852.46 5.00186 -0.75148 0
M  V30 30928 C 2850.76 4.43407 0.480191 0
M  V30 30929 C 2851.46 5.69267 -1.19625 0
M  V30 30930 N 2850.44 5.41038 -0.52714 0
M  V30 30931 H 2854.24 2.84754 -0.727475 0
M  V30 30932 H 2851.76 1.54553 -0.4987 0
M  V30 30933 H 2853.75 3.88706 1.50709 0
M  V30 30934 H 2852.41 2.73562 1.74911 0
M  V30 30935 H 2853.42 5.05403 -1.13084 0
M  V30 30936 H 2850.1 3.99237 1.22133 0
M  V30 30937 H 2851.49 6.40865 -2.01847 0
M  V30 30938 N 2854.21 0.413044 1.52091 0
M  V30 30939 C 2855.63 0.0641116 1.59471 0
M  V30 30940 C 2855.83 -1.42399 1.42565 0
M  V30 30941 O 2854.88 -2.19127 1.25457 0
M  V30 30942 C 2856.2 0.562526 2.95391 0
M  V30 30943 C 2857.74 0.520842 3.08636 0
M  V30 30944 C 2858.22 0.995831 4.47043 0
M  V30 30945 N 2859.71 0.952812 4.53294 0
M  V30 30946 C 2860.45 1.29148 5.58667 0
M  V30 30947 N 2859.94 1.7018 6.71573 0
M  V30 30948 N 2861.73 1.2112 5.48896 0
M  V30 30949 H 2853.89 1.38156 1.61328 0
M  V30 30950 H 2856.15 0.567798 0.75915 0
M  V30 30951 H 2855.85 1.60277 3.13056 0
M  V30 30952 H 2855.73 -0.0257212 3.77191 0
M  V30 30953 H 2858.12 -0.510361 2.90653 0
M  V30 30954 H 2858.2 1.14519 2.28733 0
M  V30 30955 H 2857.84 2.02538 4.65769 0
M  V30 30956 H 2857.77 0.348255 5.25447 0
M  V30 30957 H 2860.26 0.651184 3.72247 0
M  V30 30958 H 2860.57 1.94323 7.4797 0
M  V30 30959 H 2858.92 1.74087 6.72844 0
M  V30 30960 H 2862.11 0.889477 4.59571 0
M  V30 30961 H 2862.28 1.47844 6.30909 0
M  V30 30962 N 2855.69 -1.56945 0.143591 0
M  V30 30963 C 2856.6 -2.20154 -0.810524 0
M  V30 30964 C 2857.62 -1.18482 -1.27428 0
M  V30 30965 O 2858.79 -1.51046 -1.33218 0
M  V30 30966 C 2855.86 -2.80803 -2.03349 0
M  V30 30967 C 2854.92 -3.9759 -1.61929 0
M  V30 30968 C 2854.15 -4.55337 -2.78395 0
M  V30 30969 O 2854.37 -4.11965 -3.94514 0
M  V30 30970 O 2853.31 -5.45651 -2.54063 0
M  V30 30971 H 2857.13 -3.0219 -0.302477 0
M  V30 30972 H 2854.72 -1.49168 -0.0832663 0
M  V30 30973 H 2856.6 -3.19364 -2.74926 0
M  V30 30974 H 2855.28 -2.01782 -2.53112 0
M  V30 30975 H 2854.18 -3.63751 -0.87384 0
M  V30 30976 H 2855.52 -4.7812 -1.16884 0
M  V30 30977 N 2857.17 0.130197 -1.57061 0
M  V30 30978 C 2858.11 1.16021 -1.99519 0
M  V30 30979 C 2859.08 1.4177 -0.865477 0
M  V30 30980 O 2860.27 1.53824 -1.12885 0
M  V30 30981 C 2857.41 2.48449 -2.39514 0
M  V30 30982 C 2856.52 2.29731 -3.65852 0
M  V30 30983 C 2855.66 3.55311 -3.94876 0
M  V30 30984 C 2854.7 3.31702 -5.14432 0
M  V30 30985 N 2853.83 4.49456 -5.39383 0
M  V30 30986 H 2858.67 0.791144 -2.87306 0
M  V30 30987 H 2856.21 0.37917 -1.42129 0
M  V30 30988 H 2858.17 3.25687 -2.60736 0
M  V30 30989 H 2856.8 2.8327 -1.54784 0
M  V30 30990 H 2855.85 1.43464 -3.5231 0
M  V30 30991 H 2857.16 2.08255 -4.53245 0
M  V30 30992 H 2856.32 4.40972 -4.16687 0
M  V30 30993 H 2855.06 3.79807 -3.05937 0
M  V30 30994 H 2854.06 2.44431 -4.92477 0
M  V30 30995 H 2855.29 3.08588 -6.04938 0
M  V30 30996 H 2853.23 4.74094 -4.534 0
M  V30 30997 H 2853.15 4.31045 -6.21077 0
M  V30 30998 H 2854.42 5.36283 -5.65704 0
M  V30 30999 N 2858.65 1.52438 0.400055 0
M  V30 31000 C 2859.59 1.76429 1.488 0
M  V30 31001 C 2860.56 0.607059 1.54609 0
M  V30 31002 O 2861.75 0.845593 1.71039 0
M  V30 31003 C 2858.89 1.92901 2.86152 0
M  V30 31004 C 2858 3.20572 2.89581 0
M  V30 31005 C 2857.14 3.27425 4.1829 0
M  V30 31006 C 2856.17 4.49262 4.15728 0
M  V30 31007 N 2855.31 4.53457 5.36024 0
M  V30 31008 H 2860.15 2.69279 1.27644 0
M  V30 31009 H 2857.69 1.33422 0.619428 0
M  V30 31010 H 2859.65 2.00436 3.65898 0
M  V30 31011 H 2858.28 1.03423 3.05783 0
M  V30 31012 H 2857.33 3.22164 2.02273 0
M  V30 31013 H 2858.64 4.10363 2.83555 0
M  V30 31014 H 2857.79 3.34081 5.06433 0
M  V30 31015 H 2856.53 2.35588 4.27024 0
M  V30 31016 H 2855.54 4.42743 3.25974 0
M  V30 31017 H 2856.76 5.42403 4.08627 0
M  V30 31018 H 2854.71 3.64507 5.45408 0
M  V30 31019 H 2854.63 5.37105 5.32028 0
M  V30 31020 H 2855.89 4.64354 6.26095 0
M  V30 31021 N 2860.12 -0.657839 1.43214 0
M  V30 31022 C 2861.03 -1.80005 1.50451 0
M  V30 31023 C 2862.05 -1.69528 0.39194 0
M  V30 31024 O 2863.23 -1.90779 0.645383 0
M  V30 31025 C 2860.29 -3.16256 1.42067 0
M  V30 31026 C 2859.35 -3.38563 2.63957 0
M  V30 31027 C 2858.58 -4.68314 2.55964 0
M  V30 31028 O 2858.81 -5.47359 1.60483 0
M  V30 31029 O 2857.74 -4.92239 3.46387 0
M  V30 31030 H 2861.57 -1.76854 2.46893 0
M  V30 31031 H 2859.15 -0.815738 1.25164 0
M  V30 31032 H 2861.03 -3.97529 1.39817 0
M  V30 31033 H 2859.71 -3.20007 0.48758 0
M  V30 31034 H 2858.62 -2.57072 2.71781 0
M  V30 31035 H 2859.95 -3.39655 3.56223 0
M  V30 31036 N 2861.6 -1.29668 -0.895769 0
M  V30 31037 C 2862.83 -1.20888 -1.68526 0
M  V30 31038 C 2863.25 0.226563 -1.86731 0
M  V30 31039 O 2862.61 1.16344 -1.39046 0
M  V30 31040 C 2862.66 -1.9315 -3.04509 0
M  V30 31041 O 2861.76 -1.25122 -3.92961 0
M  V30 31042 H 2861.1 -0.418684 -0.515364 0
M  V30 31043 H 2863.63 -1.71304 -1.11875 0
M  V30 31044 H 2863.64 -2.01756 -3.54625 0
M  V30 31045 H 2862.32 -2.97553 -2.90577 0
M  V30 31046 H 2860.89 -1.248 -3.51396 0
M  V30 31047 N 2863.08 1.10667 -1.12208 0
M  V30 31048 C 2864.31 1.86364 -0.898668 0
M  V30 31049 C 2864.72 1.80552 0.551959 0
M  V30 31050 O 2864.08 1.19252 1.3815 0
M  V30 31051 C 2864.13 3.34859 -1.36205 0
M  V30 31052 O 2863.85 3.40568 -2.75582 0
M  V30 31053 C 2865.35 4.27438 -1.17522 0
M  V30 31054 H 2862.57 0.589078 -0.321291 0
M  V30 31055 H 2865.12 1.39915 -1.49144 0
M  V30 31056 H 2863.27 3.78783 -0.812556 0
M  V30 31057 H 2863.69 4.33091 -2.95858 0
M  V30 31058 H 2865.16 5.29839 -1.54836 0
M  V30 31059 H 2865.64 4.39048 -0.115563 0
M  V30 31060 H 2866.24 3.89316 -1.7121 0
M  V30 31061 N 2864.56 0.913621 1.28416 0
M  V30 31062 C 2865.97 0.593268 1.77023 0
M  V30 31063 C 2866.32 -0.89141 1.74781 0
M  V30 31064 O 2865.44 -1.69731 1.3424 0
M  V30 31065 C 2866.04 1.07016 3.21454 0
M  V30 31066 C 2864.6 0.800729 3.67784 0
M  V30 31067 C 2863.75 1.23696 2.48183 0
M  V30 31068 H 2866.7 1.0949 1.14881 0
M  V30 31069 H 2866.72 0.411547 3.78268 0
M  V30 31070 H 2866.23 2.15075 3.23054 0
M  V30 31071 H 2864.33 -0.266659 3.71645 0
M  V30 31072 H 2864.44 1.40838 4.57932 0
M  V30 31073 H 2862.81 0.655699 2.46115 0
M  V30 31074 H 2863.59 2.32589 2.52502 0
M  V30 31075 N 2866.04 -1.4229 0.677588 0
M  V30 31076 C 2867.26 -2.06355 0.207938 0
M  V30 31077 C 2867.69 -1.50585 -1.1272 0
M  V30 31078 O 2867.04 -0.62546 -1.7017 0
M  V30 31079 C 2867.09 -3.6026 0.156552 0
M  V30 31080 O 2866.2 -4.0303 -0.874091 0
M  V30 31081 H 2865.54 -0.655474 0.106068 0
M  V30 31082 H 2868.07 -1.82375 0.927386 0
M  V30 31083 H 2868.08 -4.07996 -0.018654 0
M  V30 31084 H 2866.75 -4.00224 1.13108 0
M  V30 31085 H 2865.33 -3.66837 -0.6697 0
M  V30 31086 N 2867.51 -0.421104 -1.5187 0
M  V30 31087 C 2868.74 0.149904 -2.06356 0
M  V30 31088 C 2869.16 1.37849 -1.29008 0
M  V30 31089 O 2868.51 1.79206 -0.34517 0
M  V30 31090 C 2868.56 0.488391 -3.58186 0
M  V30 31091 O 2868.29 -0.691417 -4.3261 0
M  V30 31092 C 2869.79 1.11184 -4.29131 0
M  V30 31093 H 2867.01 0.0151068 -0.67083 0
M  V30 31094 H 2869.55 -0.59551 -1.95637 0
M  V30 31095 H 2867.71 1.1837 -3.68873 0
M  V30 31096 H 2868.12 -0.405998 -5.22926 0
M  V30 31097 H 2869.59 1.29879 -5.36503 0
M  V30 31098 H 2870.07 2.08833 -3.86375 0
M  V30 31099 H 2870.68 0.456384 -4.22844 0
M  V30 31100 N 2868.99 1.56866 -0.151912 0
M  V30 31101 C 2869.96 2.15814 0.771823 0
M  V30 31102 C 2870.96 1.10117 1.17179 0
M  V30 31103 O 2872.15 1.35731 1.09191 0
M  V30 31104 C 2869.28 2.72524 2.04801 0
M  V30 31105 H 2870.47 2.9878 0.258969 0
M  V30 31106 H 2868.02 1.55995 0.0975606 0
M  V30 31107 H 2868.76 1.93238 2.60441 0
M  V30 31108 H 2868.54 3.49857 1.77038 0
M  V30 31109 H 2870.03 3.17925 2.70765 0
M  V30 31110 N 2870.47 -0.121866 1.57128 0
M  V30 31111 C 2871.7 -0.848351 1.89256 0
M  V30 31112 C 2872.12 -1.7278 0.743557 0
M  V30 31113 O 2871.48 -1.78699 -0.306025 0
M  V30 31114 C 2871.53 -1.66007 3.20116 0
M  V30 31115 O 2870.63 -2.76673 3.05819 0
M  V30 31116 H 2869.97 -0.234782 0.621107 0
M  V30 31117 H 2872.5 -0.105124 2.0433 0
M  V30 31118 H 2872.51 -2.0499 3.52765 0
M  V30 31119 H 2871.19 -1.01445 4.03338 0
M  V30 31120 H 2869.76 -2.40913 2.84632 0
M  V30 31121 N 2871.95 -1.52648 -0.391965 0
M  V30 31122 C 2872.88 -1.80183 -1.48514 0
M  V30 31123 C 2873.86 -0.653694 -1.57038 0
M  V30 31124 O 2875.04 -0.900992 -1.72034 0
M  V30 31125 C 2872.17 -1.96802 -2.86158 0
M  V30 31126 C 2871.13 -3.12477 -2.92476 0
M  V30 31127 C 2870.45 -3.14345 -4.3254 0
M  V30 31128 C 2871.75 -4.51606 -2.62392 0
M  V30 31129 H 2873.45 -2.71725 -1.25721 0
M  V30 31130 H 2870.99 -1.3075 -0.603364 0
M  V30 31131 H 2872.95 -2.14647 -3.62635 0
M  V30 31132 H 2871.67 -1.01946 -3.10281 0
M  V30 31133 H 2870.33 -2.9441 -2.18445 0
M  V30 31134 H 2869.98 -2.17178 -4.53699 0
M  V30 31135 H 2869.68 -3.92049 -4.37688 0
M  V30 31136 H 2871.2 -3.34342 -5.10928 0
M  V30 31137 H 2872.62 -4.6979 -3.28588 0
M  V30 31138 H 2871.01 -5.31355 -2.78894 0
M  V30 31139 H 2872.08 -4.58524 -1.57746 0
M  V30 31140 N 2873.43 0.650235 -1.43561 0
M  V30 31141 C 2874.84 1.23148 -1.40326 0
M  V30 31142 C 2875.19 1.95898 -0.108847 0
M  V30 31143 O 2874.31 2.01402 0.791595 0
M  V30 31144 C 2874.91 2.23982 -2.54199 0
M  V30 31145 C 2873.47 2.77577 -2.5422 0
M  V30 31146 C 2872.61 1.52266 -2.31755 0
M  V30 31147 H 2875.57 0.442069 -1.52419 0
M  V30 31148 H 2875.59 3.06216 -2.25859 0
M  V30 31149 H 2875.1 1.71005 -3.48395 0
M  V30 31150 H 2873.2 3.34609 -1.63913 0
M  V30 31151 H 2873.31 3.24919 -3.52086 0
M  V30 31152 H 2871.68 1.7972 -1.80479 0
M  V30 31153 H 2872.46 1.01219 -3.28039 0
M  V30 31154 N 2874.9 1.30141 0.88888 0
M  V30 31155 C 2876.13 1.2178 1.67882 0
M  V30 31156 C 2876.55 -0.216657 1.86848 0
M  V30 31157 O 2875.91 -1.15605 1.39661 0
M  V30 31158 C 2875.96 1.94762 3.0348 0
M  V30 31159 O 2875.06 1.27204 3.92292 0
M  V30 31160 H 2874.41 0.421411 0.513136 0
M  V30 31161 H 2876.94 1.71895 1.10965 0
M  V30 31162 H 2876.95 2.03634 3.5355 0
M  V30 31163 H 2875.62 2.9909 2.88995 0
M  V30 31164 H 2874.2 1.26662 3.5073 0
M  V30 31165 N 2876.38 -1.1007 1.12794 0
M  V30 31166 C 2877.61 -1.85615 0.907221 0
M  V30 31167 C 2878.02 -1.81116 -0.547149 0
M  V30 31168 O 2877.36 -1.20078 -1.39022 0
M  V30 31169 C 2877.43 -3.3483 1.30878 0
M  V30 31170 C 2877.09 -3.63085 2.77522 0
M  V30 31171 C 2878.09 -3.59366 3.75702 0
M  V30 31172 C 2875.77 -3.91641 3.1452 0
M  V30 31173 C 2877.77 -3.83804 5.08895 0
M  V30 31174 C 2875.45 -4.15734 4.47893 0
M  V30 31175 C 2876.45 -4.11806 5.4489 0
M  V30 31176 O 2876.14 -4.35283 6.75858 0
M  V30 31177 H 2875.87 -0.593369 0.323865 0
M  V30 31178 H 2878.42 -1.40035 1.50264 0
M  V30 31179 H 2876.65 -3.81085 0.656585 0
M  V30 31180 H 2878.34 -3.91772 1.0616 0
M  V30 31181 H 2879.11 -3.37339 3.48464 0
M  V30 31182 H 2874.99 -3.93826 2.39628 0
M  V30 31183 H 2878.53 -3.80653 5.84593 0
M  V30 31184 H 2874.43 -4.37241 4.74859 0
M  V30 31185 H 2875.2 -4.52779 6.81861 0
M  V30 31186 N 2877.86 -0.920419 -1.2793 0
M  V30 31187 C 2879.14 -0.475721 -1.89727 0
M  V30 31188 C 2879.52 1.04584 -1.83372 0
M  V30 31189 O 2878.87 1.89683 -1.27408 0
M  V30 31190 C 2879.08 -1.0136 -3.33957 0
M  V30 31191 C 2880.42 -1.0697 -4.10905 0
M  V30 31192 O 2881.45 -0.962707 -3.42944 0
M  V30 31193 O 2880.31 -1.23352 -5.32397 0
M  V30 31194 H 2877.4 -0.151859 -0.812938 0
M  V30 31195 H 2879.95 -1.01164 -1.3625 0
M  V30 31196 H 2878.72 -2.05752 -3.32839 0
M  V30 31197 H 2878.34 -0.458898 -3.94943 0
M  V30 31198 N 2879.34 1.41929 -0.685124 0
M  V30 31199 C 2880.56 2.06242 -0.218878 0
M  V30 31200 C 2880.99 1.5118 1.1192 0
M  V30 31201 O 2880.35 0.634476 1.69835 0
M  V30 31202 C 2880.39 3.60172 -0.175655 0
M  V30 31203 O 2879.5 4.03488 0.852705 0
M  V30 31204 H 2878.84 0.654902 -0.109542 0
M  V30 31205 H 2881.37 1.81881 -0.937045 0
M  V30 31206 H 2881.38 4.08 -0.00298323 0
M  V30 31207 H 2880.05 3.99619 -1.15229 0
M  V30 31208 H 2878.63 3.67187 0.650236 0
M  V30 31209 N 2880.82 0.429152 1.51644 0
M  V30 31210 C 2882.06 -0.140251 2.02314 0
M  V30 31211 C 2882.4 -1.43072 1.31317 0
M  V30 31212 O 2881.67 -1.89787 0.425565 0
M  V30 31213 C 2881.95 -0.367427 3.58221 0
M  V30 31214 C 2881.81 0.941117 4.39844 0
M  V30 31215 C 2883.13 -1.14082 4.25057 0
M  V30 31216 H 2880.24 -0.0494983 0.735336 0
M  V30 31217 H 2882.89 0.566546 1.81357 0
M  V30 31218 H 2881.04 -0.96949 3.76209 0
M  V30 31219 H 2882.71 1.57653 4.33524 0
M  V30 31220 H 2880.95 1.54758 4.05256 0
M  V30 31221 H 2881.62 0.736306 5.47067 0
M  V30 31222 H 2884.1 -0.630913 4.11289 0
M  V30 31223 H 2882.97 -1.26853 5.34041 0
M  V30 31224 H 2883.24 -2.16676 3.85362 0
M  V30 31225 N 2882.29 -1.56783 0.160229 0
M  V30 31226 C 2883.52 -2.00913 -0.49413 0
M  V30 31227 C 2883.94 -1.04041 -1.57546 0
M  V30 31228 O 2883.29 -0.0394902 -1.82457 0
M  V30 31229 C 2883.35 -3.44907 -1.08265 0
M  V30 31230 O 2883.07 -4.38077 -0.0444934 0
M  V30 31231 C 2884.57 -4.04382 -1.81633 0
M  V30 31232 H 2881.79 -0.658778 -0.127486 0
M  V30 31233 H 2884.33 -2.02857 0.258701 0
M  V30 31234 H 2882.49 -3.43773 -1.78603 0
M  V30 31235 H 2882.9 -5.22322 -0.477452 0
M  V30 31236 H 2884.37 -5.07093 -2.18085 0
M  V30 31237 H 2884.85 -3.45842 -2.70721 0
M  V30 31238 H 2885.46 -4.09186 -1.15962 0
M  V30 31239 N 2883.77 0.113531 -1.57191 0
M  V30 31240 C 2884.72 1.13898 -2.00738 0
M  V30 31241 C 2885.69 1.40844 -0.880465 0
M  V30 31242 O 2886.88 1.52618 -1.1451 0
M  V30 31243 C 2884.02 2.45895 -2.42136 0
M  V30 31244 C 2883.13 2.25838 -3.68268 0
M  V30 31245 C 2882.26 3.51103 -3.98623 0
M  V30 31246 C 2881.3 3.26227 -5.17921 0
M  V30 31247 N 2880.44 4.4371 -5.44119 0
M  V30 31248 H 2885.28 0.760626 -2.88129 0
M  V30 31249 H 2882.82 0.364074 -1.42523 0
M  V30 31250 H 2884.77 3.22904 -2.64176 0
M  V30 31251 H 2883.4 2.81612 -1.5778 0
M  V30 31252 H 2882.46 1.39719 -3.53812 0
M  V30 31253 H 2883.77 2.03436 -4.55428 0
M  V30 31254 H 2882.92 4.36528 -4.21341 0
M  V30 31255 H 2881.66 3.76541 -3.09949 0
M  V30 31256 H 2880.67 2.39193 -4.95042 0
M  V30 31257 H 2881.89 3.02154 -6.08177 0
M  V30 31258 H 2879.84 4.69258 -4.58402 0
M  V30 31259 H 2879.75 4.24433 -6.25614 0
M  V30 31260 H 2881.02 5.30253 -5.7136 0
M  V30 31261 N 2885.25 1.52854 0.383864 0
M  V30 31262 C 2886.66 1.60034 0.961562 0
M  V30 31263 C 2887.01 0.456366 1.90819 0
M  V30 31264 O 2886.14 -0.419836 2.12288 0
M  V30 31265 C 2886.73 2.9006 1.75073 0
M  V30 31266 C 2885.29 2.99636 2.27805 0
M  V30 31267 C 2884.44 2.55189 1.08507 0
M  V30 31268 H 2887.39 1.57858 0.163241 0
M  V30 31269 H 2887.41 2.76835 2.61041 0
M  V30 31270 H 2886.92 3.73301 1.0615 0
M  V30 31271 H 2885.02 2.20944 3.00024 0
M  V30 31272 H 2885.14 4.04374 2.5694 0
M  V30 31273 H 2883.5 2.0963 1.44663 0
M  V30 31274 H 2884.28 3.40829 0.41112 0
M  V30 31275 N 2886.73 -0.642612 1.43904 0
M  V30 31276 C 2887.64 -1.78399 1.52352 0
M  V30 31277 C 2888.66 -1.69103 0.409899 0
M  V30 31278 O 2889.83 -1.90084 0.665581 0
M  V30 31279 C 2886.9 -3.14731 1.45414 0
M  V30 31280 C 2885.96 -3.35744 2.67533 0
M  V30 31281 C 2885.19 -4.65573 2.60917 0
M  V30 31282 O 2885.41 -5.45626 1.6628 0
M  V30 31283 O 2884.35 -4.88538 3.51589 0
M  V30 31284 H 2888.17 -1.74225 2.48755 0
M  V30 31285 H 2885.76 -0.802417 1.26022 0
M  V30 31286 H 2887.64 -3.96023 1.44026 0
M  V30 31287 H 2886.32 -3.19472 0.521494 0
M  V30 31288 H 2885.22 -2.54175 2.74492 0
M  V30 31289 H 2886.56 -3.35858 3.59806 0
M  V30 31290 N 2888.21 -1.30611 -0.881966 0
M  V30 31291 C 2889.15 -1.17247 -1.98801 0
M  V30 31292 C 2890.12 -0.0612197 -1.65987 0
M  V30 31293 O 2891.31 -0.231944 -1.89385 0
M  V30 31294 C 2888.45 -0.873389 -3.33865 0
M  V30 31295 C 2887.56 -2.06682 -3.7935 0
M  V30 31296 C 2886.7 -1.70556 -5.03075 0
M  V30 31297 C 2885.74 -2.86376 -5.40976 0
M  V30 31298 N 2884.87 -2.50526 -6.55882 0
M  V30 31299 H 2889.71 -2.11867 -2.09563 0
M  V30 31300 H 2887.25 -1.05407 -1.02605 0
M  V30 31301 H 2889.21 -0.680591 -4.11611 0
M  V30 31302 H 2887.84 0.0359415 -3.2278 0
M  V30 31303 H 2886.89 -2.37076 -2.97488 0
M  V30 31304 H 2888.2 -2.93408 -4.03377 0
M  V30 31305 H 2887.36 -1.47668 -5.88455 0
M  V30 31306 H 2886.1 -0.810032 -4.80926 0
M  V30 31307 H 2885.1 -3.09925 -4.54121 0
M  V30 31308 H 2886.33 -3.76619 -5.65097 0
M  V30 31309 H 2884.27 -1.63482 -6.35303 0
M  V30 31310 H 2884.19 -3.30783 -6.79793 0
M  V30 31311 H 2885.46 -2.31002 -7.44485 0
M  V30 31312 N 2889.69 1.0947 -1.13376 0
M  V30 31313 C 2890.6 2.1965 -0.824068 0
M  V30 31314 C 2891.61 1.72947 0.191149 0
M  V30 31315 O 2892.79 2.01388 0.022311 0
M  V30 31316 C 2889.85 3.45451 -0.29407 0
M  V30 31317 C 2888.91 4.06837 -1.37047 0
M  V30 31318 C 2888.15 5.26633 -0.865672 0
M  V30 31319 O 2888.37 5.69627 0.29692 0
M  V30 31320 O 2887.3 5.79133 -1.63978 0
M  V30 31321 H 2891.13 2.48592 -1.74458 0
M  V30 31322 H 2888.71 1.18397 -0.911176 0
M  V30 31323 H 2890.6 4.214 -0.00388446 0
M  V30 31324 H 2889.27 3.18112 0.598865 0
M  V30 31325 H 2888.18 3.32527 -1.71397 0
M  V30 31326 H 2889.51 4.38401 -2.23754 0
M  V30 31327 N 2891.16 0.92719 1.2744 0
M  V30 31328 C 2892.11 0.424499 2.26863 0
M  V30 31329 C 2893.08 -0.508319 1.58131 0
M  V30 31330 O 2894.27 -0.427587 1.85947 0
M  V30 31331 C 2891.41 -0.317119 3.4364 0
M  V30 31332 C 2890.52 0.64975 4.27086 0
M  V30 31333 C 2889.65 -0.11166 5.31083 0
M  V30 31334 C 2888.69 0.847949 6.06198 0
M  V30 31335 N 2887.83 0.119198 7.01999 0
M  V30 31336 H 2892.67 1.27732 2.69237 0
M  V30 31337 H 2890.21 0.64113 1.32393 0
M  V30 31338 H 2892.16 -0.763413 4.10156 0
M  V30 31339 H 2890.79 -1.13419 3.02219 0
M  V30 31340 H 2889.85 1.21457 3.60489 0
M  V30 31341 H 2891.16 1.38315 4.79239 0
M  V30 31342 H 2890.31 -0.617894 6.03545 0
M  V30 31343 H 2889.05 -0.87803 4.79731 0
M  V30 31344 H 2888.06 1.36544 5.32575 0
M  V30 31345 H 2889.28 1.61409 6.59639 0
M  V30 31346 H 2887.23 -0.628936 6.52978 0
M  V30 31347 H 2887.14 0.792178 7.51838 0
M  V30 31348 H 2888.41 -0.3664 7.78638 0
M  V30 31349 N 2892.64 -1.41564 0.692641 0
M  V30 31350 C 2893.57 -2.29196 -0.013673 0
M  V30 31351 C 2894.59 -1.4463 -0.747391 0
M  V30 31352 O 2895.78 -1.68164 -0.598581 0
M  V30 31353 C 2892.88 -3.22438 -1.04341 0
M  V30 31354 C 2892.05 -4.35747 -0.379908 0
M  V30 31355 C 2891.11 -5.09585 -1.31186 0
M  V30 31356 O 2890.13 -5.63474 -0.805356 0
M  V30 31357 N 2891.34 -5.16773 -2.64434 0
M  V30 31358 H 2894.1 -2.90455 0.738666 0
M  V30 31359 H 2891.66 -1.52684 0.538442 0
M  V30 31360 H 2893.65 -3.68703 -1.66854 0
M  V30 31361 H 2892.22 -2.62507 -1.69731 0
M  V30 31362 H 2891.44 -3.91902 0.425044 0
M  V30 31363 H 2892.73 -5.08735 0.0815798 0
M  V30 31364 H 2892.13 -4.74434 -3.08106 0
M  V30 31365 H 2890.69 -5.66625 -3.22149 0
M  V30 31366 N 2894.12 -0.437188 -1.51415 0
M  V30 31367 C 2895.05 0.410131 -2.25501 0
M  V30 31368 C 2896.06 0.986421 -1.29513 0
M  V30 31369 O 2897.25 0.880587 -1.55267 0
M  V30 31370 C 2894.35 1.5857 -2.99514 0
M  V30 31371 C 2893.53 1.12831 -4.22597 0
M  V30 31372 C 2892.59 2.17399 -4.79191 0
M  V30 31373 O 2891.61 1.7684 -5.41033 0
M  V30 31374 N 2892.81 3.49881 -4.6321 0
M  V30 31375 H 2895.58 -0.224836 -2.98855 0
M  V30 31376 H 2893.14 -0.266069 -1.59699 0
M  V30 31377 H 2895.13 2.28146 -3.34262 0
M  V30 31378 H 2893.7 2.12602 -2.29171 0
M  V30 31379 H 2892.92 0.259626 -3.93344 0
M  V30 31380 H 2894.21 0.800107 -5.0247 0
M  V30 31381 H 2893.61 3.85565 -4.13951 0
M  V30 31382 H 2892.16 4.15352 -5.02321 0
M  V30 31383 N 2895.6 1.56696 -0.168541 0
M  V30 31384 C 2897.01 1.58493 0.187658 0
M  V30 31385 C 2897.21 1.18378 1.63061 0
M  V30 31386 O 2896.27 0.894083 2.36141 0
M  V30 31387 C 2897.58 3.00563 -0.0906386 0
M  V30 31388 C 2899.13 3.12987 -0.02863 0
M  V30 31389 C 2899.61 4.57144 -0.279879 0
M  V30 31390 N 2901.1 4.62641 -0.227558 0
M  V30 31391 C 2901.83 5.7203 -0.396174 0
M  V30 31392 N 2901.33 6.89987 -0.623694 0
M  V30 31393 N 2903.12 5.61117 -0.332272 0
M  V30 31394 H 2895.27 1.8106 -1.11045 0
M  V30 31395 H 2897.53 0.839048 -0.44125 0
M  V30 31396 H 2897.24 3.34379 -1.09012 0
M  V30 31397 H 2897.11 3.72086 0.619012 0
M  V30 31398 H 2899.5 2.78999 0.961422 0
M  V30 31399 H 2899.58 2.43906 -0.770948 0
M  V30 31400 H 2899.23 4.9184 -1.26713 0
M  V30 31401 H 2899.16 5.2438 0.483017 0
M  V30 31402 H 2901.65 3.77857 -0.0572387 0
M  V30 31403 H 2901.96 7.69231 -0.741881 0
M  V30 31404 H 2900.31 6.91856 -0.660275 0
M  V30 31405 H 2903.5 4.67843 -0.155133 0
M  V30 31406 H 2903.67 6.46314 -0.467108 0
M  V30 31407 N 2897.08 -0.105193 1.57249 0
M  V30 31408 C 2898.04 -1.11249 2.0039 0
M  V30 31409 C 2899.04 -1.33526 0.895964 0
M  V30 31410 O 2900.23 -1.29809 1.16169 0
M  V30 31411 C 2897.36 -2.46391 2.35593 0
M  V30 31412 H 2898.55 -0.741373 2.90592 0
M  V30 31413 H 2896.11 -0.349929 1.52332 0
M  V30 31414 H 2896.84 -2.88398 1.48315 0
M  V30 31415 H 2896.63 -2.31572 3.16412 0
M  V30 31416 H 2898.12 -3.18859 2.69663 0
M  V30 31417 N 2898.55 -1.53055 -0.375752 0
M  V30 31418 C 2899.46 -1.81717 -1.48378 0
M  V30 31419 C 2900.48 -0.704823 -1.59086 0
M  V30 31420 O 2901.66 -0.993816 -1.75172 0
M  V30 31421 C 2898.72 -1.99197 -2.83763 0
M  V30 31422 C 2897.78 -3.23107 -2.82667 0
M  V30 31423 C 2897.02 -3.39743 -4.11595 0
M  V30 31424 O 2897.24 -2.60894 -5.07238 0
M  V30 31425 O 2896.17 -4.33056 -4.18026 0
M  V30 31426 H 2900 -2.75832 -1.27084 0
M  V30 31427 H 2897.58 -1.38309 -0.564877 0
M  V30 31428 H 2899.47 -2.12325 -3.64 0
M  V30 31429 H 2898.14 -1.08272 -3.05056 0
M  V30 31430 H 2897.05 -3.15411 -2.01164 0
M  V30 31431 H 2898.38 -4.13921 -2.66328 0
M  V30 31432 N 2900.03 0.634971 -1.44242 0
M  V30 31433 C 2900.94 1.77588 -1.53296 0
M  V30 31434 C 2901.96 1.68883 -0.418861 0
M  V30 31435 O 2903.13 1.89728 -0.675652 0
M  V30 31436 C 2900.2 3.13956 -1.47081 0
M  V30 31437 C 2899.26 3.34321 -2.6931 0
M  V30 31438 C 2898.49 4.64183 -2.63382 0
M  V30 31439 O 2898.72 5.44736 -1.69171 0
M  V30 31440 O 2897.65 4.86666 -3.54174 0
M  V30 31441 H 2901.48 1.72904 -2.49676 0
M  V30 31442 H 2899.06 0.795723 -1.26446 0
M  V30 31443 H 2900.94 3.95254 -1.46124 0
M  V30 31444 H 2899.62 3.19191 -0.538429 0
M  V30 31445 H 2898.53 2.52716 -2.75836 0
M  V30 31446 H 2899.86 3.33945 -3.61582 0
M  V30 31447 N 2901.51 1.31076 0.875027 0
M  V30 31448 C 2902.76 1.20234 1.62445 0
M  V30 31449 C 2903.08 -0.240854 1.93507 0
M  V30 31450 O 2902.35 -1.16019 1.57849 0
M  V30 31451 H 2900.93 0.442002 0.602199 0
M  V30 31452 H 2903.59 1.64336 1.04785 0
M  V30 31453 H 2902.69 1.7704 2.57028 0
M  V30 31454 N 2902.99 -1.08867 1.13955 0
M  V30 31455 C 2904.4 -1.33217 0.878947 0
M  V30 31456 C 2904.6 -1.95639 -0.482444 0
M  V30 31457 O 2903.66 -2.20642 -1.22774 0
M  V30 31458 C 2904.97 -2.23828 2.00802 0
M  V30 31459 C 2906.52 -2.37321 2.04077 0
M  V30 31460 C 2907 -3.31272 3.16264 0
M  V30 31461 N 2908.49 -3.38847 3.15811 0
M  V30 31462 C 2909.22 -4.1156 3.99257 0
M  V30 31463 N 2908.72 -4.87021 4.9273 0
M  V30 31464 N 2910.51 -4.07343 3.87334 0
M  V30 31465 H 2902.66 -0.667275 2.01646 0
M  V30 31466 H 2904.93 -0.356532 0.878401 0
M  V30 31467 H 2904.63 -1.85198 2.98989 0
M  V30 31468 H 2904.51 -3.24257 1.92709 0
M  V30 31469 H 2906.89 -2.75212 1.06499 0
M  V30 31470 H 2906.97 -1.36651 2.16241 0
M  V30 31471 H 2906.62 -2.94103 4.14084 0
M  V30 31472 H 2906.55 -4.3186 3.01337 0
M  V30 31473 H 2909.04 -2.85046 2.48107 0
M  V30 31474 H 2909.35 -5.39951 5.52877 0
M  V30 31475 H 2907.7 -4.8609 4.96731 0
M  V30 31476 H 2910.89 -3.47494 3.13633 0
M  V30 31477 H 2911.06 -4.63749 4.52594 0
M  V30 31478 N 2904.47 -0.933936 -1.26946 0
M  V30 31479 C 2905.88 -0.635128 -1.46418 0
M  V30 31480 C 2906.08 0.813753 -1.84338 0
M  V30 31481 O 2905.14 1.59107 -1.96064 0
M  V30 31482 C 2906.45 -1.59034 -2.55203 0
M  V30 31483 C 2908 -1.59925 -2.69059 0
M  V30 31484 C 2908.47 -2.54159 -3.81008 0
M  V30 31485 N 2909.97 -2.52402 -3.88391 0
M  V30 31486 C 2910.7 -3.22004 -4.74448 0
M  V30 31487 N 2910.2 -4.01007 -5.64947 0
M  V30 31488 N 2911.99 -3.10992 -4.68231 0
M  V30 31489 H 2904.14 -1.87055 -1.00619 0
M  V30 31490 H 2906.4 -0.803442 -0.503175 0
M  V30 31491 H 2906.11 -2.62426 -2.34149 0
M  V30 31492 H 2905.98 -1.33683 -3.52716 0
M  V30 31493 H 2908.37 -0.57262 -2.89491 0
M  V30 31494 H 2908.45 -1.89328 -1.72013 0
M  V30 31495 H 2908.1 -3.56936 -3.6133 0
M  V30 31496 H 2908.03 -2.22049 -4.77495 0
M  V30 31497 H 2910.52 -1.95031 -3.23684 0
M  V30 31498 H 2910.83 -4.51085 -6.27488 0
M  V30 31499 H 2909.17 -4.05109 -5.64723 0
M  V30 31500 H 2912.37 -2.4876 -3.9653 0
M  V30 31501 H 2912.54 -3.65504 -5.3508 0
M  V30 31502 N 2905.94 1.41194 -0.700139 0
M  V30 31503 C 2906.85 2.34569 -0.0383266 0
M  V30 31504 C 2907.87 1.56476 0.761009 0
M  V30 31505 O 2909.05 1.88935 0.69752 0
M  V30 31506 C 2906.11 3.35255 0.883463 0
M  V30 31507 C 2905.17 4.29233 0.0758202 0
M  V30 31508 C 2904.41 5.2511 0.953707 0
M  V30 31509 O 2904.63 5.26551 2.19317 0
M  V30 31510 O 2903.56 6.00563 0.400943 0
M  V30 31511 H 2907.39 2.92751 -0.808125 0
M  V30 31512 H 2904.97 1.42126 -0.460504 0
M  V30 31513 H 2906.86 3.97043 1.41192 0
M  V30 31514 H 2905.53 2.79509 1.63267 0
M  V30 31515 H 2904.44 3.70779 -0.49734 0
M  V30 31516 H 2905.77 4.88089 -0.634827 0
M  V30 31517 N 2907.42 0.445212 1.51181 0
M  V30 31518 C 2908.84 0.0979234 1.59299 0
M  V30 31519 C 2909.04 -1.39343 1.45553 0
M  V30 31520 O 2908.09 -2.16417 1.30077 0
M  V30 31521 C 2909.41 0.625057 2.94132 0
M  V30 31522 C 2910.96 0.586191 3.07462 0
M  V30 31523 C 2911.43 1.09043 4.4483 0
M  V30 31524 N 2912.92 1.04875 4.51171 0
M  V30 31525 C 2913.66 1.40969 5.55801 0
M  V30 31526 N 2913.15 1.84387 6.67812 0
M  V30 31527 N 2914.95 1.32736 5.46203 0
M  V30 31528 H 2907.1 1.41547 1.58361 0
M  V30 31529 H 2909.36 0.583773 0.746936 0
M  V30 31530 H 2909.07 1.66881 3.09586 0
M  V30 31531 H 2908.94 0.0542925 3.77161 0
M  V30 31532 H 2911.33 -0.448594 2.9167 0
M  V30 31533 H 2911.41 1.19345 2.26253 0
M  V30 31534 H 2911.05 2.12372 4.61368 0
M  V30 31535 H 2910.98 0.459631 5.2459 0
M  V30 31536 H 2913.47 0.729997 3.70782 0
M  V30 31537 H 2913.79 2.10145 7.43679 0
M  V30 31538 H 2912.13 1.8832 6.69 0
M  V30 31539 H 2915.32 0.986758 4.57581 0
M  V30 31540 H 2915.49 1.61193 6.27631 0
M  V30 31541 N 2908.9 -1.56605 0.176849 0
M  V30 31542 C 2909.86 -2.17014 -0.737391 0
M  V30 31543 C 2910.86 -1.11967 -1.15412 0
M  V30 31544 O 2912.05 -1.37451 -1.07018 0
M  V30 31545 C 2909.19 -2.75748 -2.0044 0
M  V30 31546 H 2910.38 -2.99154 -0.211403 0
M  V30 31547 H 2907.93 -1.56131 -0.0727308 0
M  V30 31548 H 2908.67 -1.97357 -2.57334 0
M  V30 31549 H 2908.45 -3.52629 -1.7145 0
M  V30 31550 H 2909.94 -3.22192 -2.65673 0
M  V30 31551 N 2910.38 0.0968524 -1.57302 0
M  V30 31552 C 2911.33 1.11762 -2.01935 0
M  V30 31553 C 2912.3 1.39902 -0.895354 0
M  V30 31554 O 2913.48 1.51395 -1.16122 0
M  V30 31555 C 2910.62 2.43313 -2.4473 0
M  V30 31556 C 2909.73 2.21919 -3.70643 0
M  V30 31557 C 2908.87 3.46855 -4.02324 0
M  V30 31558 C 2907.91 3.20716 -5.21352 0
M  V30 31559 N 2907.04 4.37914 -5.48795 0
M  V30 31560 H 2911.88 0.730024 -2.8892 0
M  V30 31561 H 2909.42 0.348937 -1.42902 0
M  V30 31562 H 2911.38 3.20084 -2.67586 0
M  V30 31563 H 2910.01 2.79923 -1.60758 0
M  V30 31564 H 2909.06 1.35959 -3.55274 0
M  V30 31565 H 2910.37 1.98595 -4.57561 0
M  V30 31566 H 2909.53 4.32035 -4.25947 0
M  V30 31567 H 2908.27 3.73232 -3.13925 0
M  V30 31568 H 2907.27 2.33929 -4.97551 0
M  V30 31569 H 2908.5 2.95687 -6.11348 0
M  V30 31570 H 2906.44 4.6437 -4.63354 0
M  V30 31571 H 2906.36 4.17774 -6.3008 0
M  V30 31572 H 2907.63 5.24163 -5.76952 0
M  V30 31573 N 2911.86 1.53252 0.36763 0
M  V30 31574 C 2913.27 1.42979 0.709166 0
M  V30 31575 C 2913.47 0.567227 1.93351 0
M  V30 31576 O 2912.53 0.0488793 2.52453 0
M  V30 31577 C 2913.84 2.86142 0.924287 0
M  V30 31578 C 2915.39 2.95761 1.02443 0
M  V30 31579 C 2915.86 4.39981 1.27203 0
M  V30 31580 N 2917.36 4.43401 1.33978 0
M  V30 31581 C 2918.09 5.52097 1.54842 0
M  V30 31582 N 2917.59 6.70843 1.73037 0
M  V30 31583 N 2919.38 5.39672 1.57195 0
M  V30 31584 H 2911.53 2.07841 -0.437705 0
M  V30 31585 H 2913.79 0.938517 -0.133754 0
M  V30 31586 H 2913.5 3.51568 0.0964837 0
M  V30 31587 H 2913.37 3.2967 1.83296 0
M  V30 31588 H 2915.76 2.3049 1.84277 0
M  V30 31589 H 2915.84 2.5563 0.0931852 0
M  V30 31590 H 2915.49 5.05824 0.458704 0
M  V30 31591 H 2915.42 4.77683 2.21646 0
M  V30 31592 H 2917.91 3.57822 1.21539 0
M  V30 31593 H 2918.22 7.49452 1.88525 0
M  V30 31594 H 2916.56 6.73833 1.70219 0
M  V30 31595 H 2919.76 4.45868 1.42547 0
M  V30 31596 H 2919.93 6.24448 1.73115 0
M  V30 31597 N 2913.34 -0.627313 1.44577 0
M  V30 31598 C 2914.27 -1.7524 1.47728 0
M  V30 31599 C 2915.28 -1.58535 0.370221 0
M  V30 31600 O 2916.47 -1.66778 0.63618 0
M  V30 31601 C 2913.57 -3.1301 1.29916 0
M  V30 31602 C 2912.74 -3.56139 2.53937 0
M  V30 31603 C 2911.8 -4.728 2.30969 0
M  V30 31604 O 2910.83 -4.80918 3.04478 0
M  V30 31605 N 2912.03 -5.64758 1.34271 0
M  V30 31606 H 2914.79 -1.73008 2.44721 0
M  V30 31607 H 2912.36 -0.811997 1.40065 0
M  V30 31608 H 2914.35 -3.8878 1.12392 0
M  V30 31609 H 2912.92 -3.09863 0.412723 0
M  V30 31610 H 2912.14 -2.70537 2.86711 0
M  V30 31611 H 2913.43 -3.81707 3.36418 0
M  V30 31612 H 2912.82 -5.60896 0.735672 0
M  V30 31613 H 2911.38 -6.40142 1.22724 0
M  V30 31614 N 2914.81 -1.31539 -0.868063 0
M  V30 31615 C 2915.76 -1.19349 -1.97546 0
M  V30 31616 C 2916.73 -0.0788214 -1.65913 0
M  V30 31617 O 2917.92 -0.252018 -1.89128 0
M  V30 31618 C 2915.06 -0.90875 -3.3292 0
M  V30 31619 C 2914.17 -2.10693 -3.77137 0
M  V30 31620 C 2913.3 -1.75882 -5.01238 0
M  V30 31621 C 2912.34 -2.92097 -5.37908 0
M  V30 31622 N 2911.48 -2.57468 -6.53188 0
M  V30 31623 H 2916.32 -2.14077 -2.07304 0
M  V30 31624 H 2913.86 -1.06489 -1.01481 0
M  V30 31625 H 2915.81 -0.72421 -4.10866 0
M  V30 31626 H 2914.44 0.00170436 -3.228 0
M  V30 31627 H 2913.5 -2.40218 -2.94956 0
M  V30 31628 H 2914.81 -2.9767 -4.00243 0
M  V30 31629 H 2913.96 -1.53901 -5.86855 0
M  V30 31630 H 2912.7 -0.860995 -4.8004 0
M  V30 31631 H 2911.71 -3.14725 -4.50809 0
M  V30 31632 H 2912.93 -3.82592 -5.61071 0
M  V30 31633 H 2910.88 -1.70211 -6.33533 0
M  V30 31634 H 2910.79 -3.37975 -6.76246 0
M  V30 31635 H 2912.06 -2.38886 -7.41993 0
M  V30 31636 N 2916.29 1.08262 -1.1453 0
M  V30 31637 C 2917.2 2.18764 -0.847318 0
M  V30 31638 C 2918.22 1.7314 0.172795 0
M  V30 31639 O 2919.39 2.014 0.000949935 0
M  V30 31640 C 2916.46 3.45119 -0.330693 0
M  V30 31641 C 2915.52 4.05361 -1.41355 0
M  V30 31642 C 2914.75 5.25685 -0.92148 0
M  V30 31643 O 2914.98 5.6991 0.236487 0
M  V30 31644 O 2913.91 5.77361 -1.70111 0
M  V30 31645 H 2917.74 2.46728 -1.77085 0
M  V30 31646 H 2915.32 1.17424 -0.923682 0
M  V30 31647 H 2917.2 4.21372 -0.0485793 0
M  V30 31648 H 2915.88 3.18729 0.565091 0
M  V30 31649 H 2914.78 3.3069 -1.74914 0
M  V30 31650 H 2916.12 4.36003 -2.28391 0
M  V30 31651 N 2917.77 0.940655 1.26449 0
M  V30 31652 C 2919.02 0.588814 1.94064 0
M  V30 31653 C 2919.35 -0.869822 1.73631 0
M  V30 31654 O 2918.62 -1.62223 1.07302 0
M  V30 31655 C 2918.91 0.93126 3.4785 0
M  V30 31656 C 2918.76 2.4446 3.7757 0
M  V30 31657 C 2920.08 0.446306 4.37831 0
M  V30 31658 H 2917.2 0.215392 0.704823 0
M  V30 31659 H 2919.84 1.17478 1.49328 0
M  V30 31660 H 2917.99 0.432607 3.86084 0
M  V30 31661 H 2919.66 3.01594 3.49054 0
M  V30 31662 H 2917.9 2.8883 3.23666 0
M  V30 31663 H 2918.58 2.63472 4.85063 0
M  V30 31664 H 2921.05 0.873849 4.06821 0
M  V30 31665 H 2919.93 0.714744 5.44227 0
M  V30 31666 H 2920.19 -0.653738 4.3724 0
M  V30 31667 N 2919.25 -1.40821 0.707617 0
M  V30 31668 C 2920.66 -1.55001 0.380367 0
M  V30 31669 C 2920.86 -1.68064 -1.1116 0
M  V30 31670 O 2919.92 -1.66578 -1.89758 0
M  V30 31671 C 2921.23 -2.78275 1.13945 0
M  V30 31672 C 2922.78 -2.92085 1.12497 0
M  V30 31673 C 2923.26 -4.18262 1.86604 0
M  V30 31674 N 2924.75 -4.25245 1.83633 0
M  V30 31675 C 2925.48 -5.21763 2.37804 0
M  V30 31676 N 2924.98 -6.24239 3.00496 0
M  V30 31677 N 2926.77 -5.13787 2.27991 0
M  V30 31678 H 2918.92 -1.30587 1.67513 0
M  V30 31679 H 2921.18 -0.630888 0.70759 0
M  V30 31680 H 2920.89 -2.74873 2.19403 0
M  V30 31681 H 2920.76 -3.7015 0.725858 0
M  V30 31682 H 2923.15 -2.94995 0.0786083 0
M  V30 31683 H 2923.23 -2.0135 1.57771 0
M  V30 31684 H 2922.88 -4.16113 2.91226 0
M  V30 31685 H 2922.81 -5.07991 1.38755 0
M  V30 31686 H 2925.3 -3.51827 1.37936 0
M  V30 31687 H 2925.61 -6.94298 3.39367 0
M  V30 31688 H 2923.96 -6.24706 3.04578 0
M  V30 31689 H 2927.15 -4.32657 1.78676 0
M  V30 31690 H 2927.32 -5.88837 2.7051 0
M  V30 31691 N 2920.73 -0.453223 -1.50943 0
M  V30 31692 C 2921.64 0.355922 -2.31884 0
M  V30 31693 C 2922.65 1.01285 -1.41483 0
M  V30 31694 O 2923.83 1.00474 -1.74548 0
M  V30 31695 C 2920.89 1.43363 -3.15671 0
M  V30 31696 C 2919.95 0.795179 -4.21871 0
M  V30 31697 C 2919.19 1.82153 -5.01653 0
M  V30 31698 O 2919.41 3.04583 -4.82271 0
M  V30 31699 O 2918.34 1.40325 -5.85314 0
M  V30 31700 H 2922.17 -0.305301 -3.02162 0
M  V30 31701 H 2919.75 -0.215424 -1.47839 0
M  V30 31702 H 2921.64 2.05829 -3.67712 0
M  V30 31703 H 2920.31 2.07865 -2.48141 0
M  V30 31704 H 2919.22 0.13204 -3.73867 0
M  V30 31705 H 2920.55 0.193398 -4.9182 0
M  V30 31706 N 2922.2 1.56509 -0.185151 0
M  V30 31707 C 2923.43 2.02114 0.465242 0
M  V30 31708 C 2923.85 1.0645 1.55081 0
M  V30 31709 O 2923.21 0.0463171 1.81241 0
M  V30 31710 C 2923.26 3.46231 1.00778 0
M  V30 31711 O 2922.36 3.53667 2.12117 0
M  V30 31712 H 2921.7 0.654845 0.10988 0
M  V30 31713 H 2924.23 2.0249 -0.293108 0
M  V30 31714 H 2924.24 3.8582 1.32691 0
M  V30 31715 H 2922.92 4.15354 0.21304 0
M  V30 31716 H 2921.5 3.25946 1.81144 0
M  V30 31717 N 2923.68 -0.0885089 1.57351 0
M  V30 31718 C 2924.63 -1.1069 2.02525 0
M  V30 31719 C 2925.6 -1.39425 0.902761 0
M  V30 31720 O 2926.78 -1.50777 1.16923 0
M  V30 31721 C 2923.92 -2.42011 2.46017 0
M  V30 31722 C 2923.04 -2.1995 3.71814 0
M  V30 31723 C 2922.17 -3.44717 4.04158 0
M  V30 31724 C 2921.21 -3.17946 5.23045 0
M  V30 31725 N 2920.35 -4.34997 5.51109 0
M  V30 31726 H 2925.19 -0.714691 2.89303 0
M  V30 31727 H 2922.72 -0.341353 1.43085 0
M  V30 31728 H 2924.68 -3.1866 2.6928 0
M  V30 31729 H 2923.31 -2.79066 1.6224 0
M  V30 31730 H 2922.36 -1.34073 3.5599 0
M  V30 31731 H 2923.68 -1.96165 4.58607 0
M  V30 31732 H 2922.83 -4.2977 4.28232 0
M  V30 31733 H 2921.57 -3.71562 3.159 0
M  V30 31734 H 2920.57 -2.31288 4.98785 0
M  V30 31735 H 2921.8 -2.9244 6.12907 0
M  V30 31736 H 2919.75 -4.61906 4.6581 0
M  V30 31737 H 2919.66 -4.14426 6.32287 0
M  V30 31738 H 2920.93 -5.21096 5.79724 0
M  V30 31739 N 2925.16 -1.53445 -0.359498 0
M  V30 31740 C 2926.4 -1.71627 -1.11011 0
M  V30 31741 C 2926.76 -0.461353 -1.86375 0
M  V30 31742 O 2927.96 -0.519955 -2.63723 0
M  V30 31743 C 2926.24 -2.93528 -2.03902 0
M  V30 31744 S 2927.79 -3.32445 -2.86402 0
M  V30 31745 H 2924.61 -0.603854 -0.375342 0
M  V30 31746 H 2927.21 -1.91559 -0.390571 0
M  V30 31747 H 2925.92 -3.83051 -1.4731 0
M  V30 31748 H 2925.45 -2.76016 -2.80319 0
M  V30 31749 H 2927.46 -2.84933 -4.06236 0
M  V30 31750 O 2926.68 0.505475 -1.53386 0
M  V30 31751 H 2927.37 1.1604 -1.55095 0
M  V30 END ATOM
M  V30 BEGIN BOND
M  V30 END BOND
M  V30 END CTAB
M  END
$$$$
