drugbank_target|Q9UQQ2 SH2B adapter protein 3 (DB06589)
 OpenBabel12092120583D

  0  0  0     0  0            999 V3000
M  V30 BEGIN CTAB
M  V30 COUNTS 8775 8910 0 0 0
M  V30 BEGIN ATOM
M  V30 1 H -0.908 1.98254 -0.117106 0
M  V30 2 N 0 1.576 0 0
M  V30 3 C 0.933 2.03868 1.02534 0
M  V30 4 C 1.911 0.928543 1.3348 0
M  V30 5 O 3.095 1.19667 1.45644 0
M  V30 6 C 0.222 2.43627 2.35294 0
M  V30 7 C -0.732 3.65373 2.2001 0
M  V30 8 S 0.101 5.13292 1.52614 0
M  V30 9 C 1.257 5.56322 2.86805 0
M  V30 10 H 1.49 2.90518 0.631377 0
M  V30 11 H -0.977 1.52953 0.210867 0
M  V30 12 H 0.981 2.67203 3.11629 0
M  V30 13 H -0.358 1.57376 2.7183 0
M  V30 14 H -1.165 3.90944 3.18086 0
M  V30 15 H -1.563 3.418 1.51819 0
M  V30 16 H 0.729 5.58782 3.83104 0
M  V30 17 H 1.672 6.56266 2.65933 0
M  V30 18 H 2.08 4.83886 2.90714 0
M  V30 19 N 1.4781 -0.272755 1.55222 0
M  V30 20 C 2.4261 -1.35705 1.88909 0
M  V30 21 C 3.4201 -1.5112 0.765456 0
M  V30 22 O 4.6261 -1.52901 0.949802 0
M  V30 23 H 1.0011 -0.453868 0.59959 0
M  V30 24 H 2.9721 -1.04544 2.79487 0
M  V30 25 C 1.7211 -2.71049 2.17779 0
M  V30 26 H 1.0441 -2.59979 3.03728 0
M  V30 27 H 2.4841 -3.45858 2.45272 0
M  V30 28 C 0.9431 -3.22165 0.985473 0
M  V30 29 O 1.4731 -4.01096 0.220233 0
M  V30 30 N -0.3209 -2.7985 0.783108 0
M  V30 31 H -0.7739 -2.15775 1.40708 0
M  V30 32 H -0.8159 -3.14397 -0.0130392 0
M  V30 33 N 2.9562 -1.48159 -0.537278 0
M  V30 34 C 4.2042 -1.55497 -1.29094 0
M  V30 35 C 4.5252 -0.227454 -1.93669 0
M  V30 36 O 3.7952 0.750386 -1.80959 0
M  V30 37 H 2.3752 -0.572832 -0.47945 0
M  V30 38 H 5.0372 -1.84579 -0.625818 0
M  V30 39 H 4.1332 -2.33216 -2.07405 0
M  V30 40 N 4.4343 0.785586 -1.36625 0
M  V30 41 C 5.8453 1.36101 -1.27803 0
M  V30 42 C 6.1963 1.96035 0.0804875 0
M  V30 43 O 5.3213 1.92834 0.982042 0
M  V30 44 C 5.9163 2.47442 -2.31426 0
M  V30 45 C 4.4753 3.00789 -2.26281 0
M  V30 46 C 3.6223 1.73896 -2.15999 0
M  V30 47 H 6.5733 0.586928 -1.47448 0
M  V30 48 H 6.5943 3.2656 -1.95291 0
M  V30 49 H 6.1063 2.03791 -3.30289 0
M  V30 50 H 4.2073 3.48851 -1.30896 0
M  V30 51 H 4.3203 3.57343 -3.19128 0
M  V30 52 H 2.6843 1.9628 -1.62316 0
M  V30 53 H 3.4673 1.32368 -3.16755 0
M  V30 54 N 5.9124 1.20967 1.01018 0
M  V30 55 C 6.8754 0.965918 2.07853 0
M  V30 56 C 7.8754 -0.0610545 1.60684 0
M  V30 57 O 9.0654 0.175681 1.73312 0
M  V30 58 C 6.1974 0.455513 3.37843 0
M  V30 59 H 7.3904 1.91365 2.3091 0
M  V30 60 H 4.9434 1.02594 1.17916 0
M  V30 61 H 5.6784 -0.497381 3.20463 0
M  V30 62 H 5.4634 1.19622 3.73407 0
M  V30 63 H 6.9534 0.304667 4.16487 0
M  V30 64 N 7.3905 -1.2043 1.01659 0
M  V30 65 C 8.3205 -2.25466 0.607226 0
M  V30 66 C 9.3015 -1.65853 -0.377716 0
M  V30 67 O 10.4865 -1.92409 -0.263149 0
M  V30 68 C 7.6165 -3.47256 -0.0552949 0
M  V30 69 C 6.5705 -4.19462 0.850632 0
M  V30 70 C 5.8965 -5.34673 0.0538859 0
M  V30 71 C 7.1965 -4.75603 2.15868 0
M  V30 72 H 8.8905 -2.59962 1.48526 0
M  V30 73 H 6.4365 -1.2496 0.715605 0
M  V30 74 H 8.3895 -4.19917 -0.353233 0
M  V30 75 H 7.1135 -3.11924 -0.968045 0
M  V30 76 H 5.7725 -3.48667 1.13257 0
M  V30 77 H 5.4205 -4.95585 -0.860514 0
M  V30 78 H 5.1205 -5.83913 0.657192 0
M  V30 79 H 6.6445 -6.10138 -0.237598 0
M  V30 80 H 8.0585 -5.40083 1.92311 0
M  V30 81 H 6.4555 -5.3528 2.71284 0
M  V30 82 H 7.5255 -3.94346 2.82169 0
M  V30 83 N 8.8686 -0.792821 -1.36206 0
M  V30 84 C 9.8006 -0.151469 -2.28699 0
M  V30 85 C 10.8136 0.641262 -1.49638 0
M  V30 86 O 12.0026 0.475885 -1.72039 0
M  V30 87 C 9.1026 0.808424 -3.29117 0
M  V30 88 C 8.2756 0.0650202 -4.37352 0
M  V30 89 C 7.3346 0.941358 -5.17711 0
M  V30 90 O 6.3606 0.397352 -5.67811 0
M  V30 91 N 7.5626 2.2652 -5.3448 0
M  V30 92 H 10.3276 -0.945982 -2.84379 0
M  V30 93 H 7.8886 -0.647032 -1.48409 0
M  V30 94 H 9.8806 1.3986 -3.79765 0
M  V30 95 H 8.4506 1.5038 -2.74052 0
M  V30 96 H 7.6706 -0.706255 -3.87822 0
M  V30 97 H 8.9586 -0.447847 -5.06825 0
M  V30 98 H 8.3566 2.73128 -4.95396 0
M  V30 99 H 6.9136 2.80493 -5.88359 0
M  V30 100 N 10.3467 1.47872 -0.545128 0
M  V30 101 C 11.7577 1.86384 -0.108581 0
M  V30 102 C 12.1087 1.45309 1.31832 0
M  V30 103 O 11.2337 0.850641 1.9898 0
M  V30 104 C 11.8287 3.38265 -0.190274 0
M  V30 105 C 10.3877 3.75914 0.191164 0
M  V30 106 C 9.5347 2.71926 -0.543273 0
M  V30 107 H 12.4857 1.39561 -0.755537 0
M  V30 108 H 12.5067 3.75831 0.594217 0
M  V30 109 H 12.0187 3.6813 -1.2289 0
M  V30 110 H 10.1197 3.51665 1.23136 0
M  V30 111 H 10.2327 4.78836 -0.158987 0
M  V30 112 H 8.5967 2.54697 0.0122495 0
M  V30 113 H 9.3797 3.04634 -1.58282 0
M  V30 114 N 11.8248 0.280983 1.55075 0
M  V30 115 C 13.0498 -0.340154 2.04592 0
M  V30 116 C 13.4748 -1.48246 1.15779 0
M  V30 117 O 12.8328 -1.80614 0.15761 0
M  V30 118 C 12.8808 -0.793104 3.5177 0
M  V30 119 O 11.9848 -1.89981 3.66034 0
M  V30 120 H 11.3258 -0.0694289 0.66036 0
M  V30 121 H 13.8558 0.416993 2.00306 0
M  V30 122 H 13.8658 -1.08729 3.93245 0
M  V30 123 H 12.5408 0.0426163 4.15878 0
M  V30 124 H 11.1178 -1.60771 3.36463 0
M  V30 125 N 13.3029 -1.57598 0.00835791 0
M  V30 126 C 14.5279 -1.95617 -0.689103 0
M  V30 127 C 14.9529 -0.883753 -1.66046 0
M  V30 128 O 14.3109 0.157352 -1.80616 0
M  V30 129 C 14.3589 -3.32736 -1.38994 0
M  V30 130 O 13.4629 -3.27631 -2.50463 0
M  V30 131 H 12.8039 -0.638379 -0.182668 0
M  V30 132 H 15.3339 -2.045 0.064036 0
M  V30 133 H 15.3439 -3.68494 -1.75147 0
M  V30 134 H 14.0189 -4.1034 -0.677778 0
M  V30 135 H 12.5959 -3.03561 -2.16576 0
M  V30 136 N 14.781 0.264519 -1.55364 0
M  V30 137 C 16.192 0.834936 -1.6699 0
M  V30 138 C 16.543 1.86718 -0.602552 0
M  V30 139 O 15.668 2.14899 0.254425 0
M  V30 140 C 16.263 1.5212 -3.02729 0
M  V30 141 C 14.822 2.03954 -3.16354 0
M  V30 142 C 13.969 0.884498 -2.62815 0
M  V30 143 H 16.92 0.0406869 -1.58648 0
M  V30 144 H 16.941 2.38853 -2.96191 0
M  V30 145 H 16.453 0.769668 -3.80392 0
M  V30 146 H 14.554 2.82041 -2.43482 0
M  V30 147 H 14.667 2.24902 -4.23032 0
M  V30 148 H 13.031 1.2802 -2.20188 0
M  V30 149 H 13.814 0.14634 -3.42988 0
M  V30 150 N 16.2591 1.48442 0.529413 0
M  V30 151 C 17.4841 1.60406 1.31471 0
M  V30 152 C 17.9091 0.264738 1.86228 0
M  V30 153 O 17.2671 -0.763668 1.64432 0
M  V30 154 C 17.3151 2.65419 2.44101 0
M  V30 155 O 16.4191 2.22618 3.47153 0
M  V30 156 H 15.7601 0.537863 0.389357 0
M  V30 157 H 18.2901 1.94432 0.636965 0
M  V30 158 H 18.3001 2.86709 2.90279 0
M  V30 159 H 16.9751 3.62652 2.03608 0
M  V30 160 H 15.5521 2.11543 3.0709 0
M  V30 161 N 17.7372 -0.778329 1.37039 0
M  V30 162 C 18.9622 -1.57248 1.35233 0
M  V30 163 C 19.3872 -1.87999 -0.0615568 0
M  V30 164 O 18.7452 -1.48734 -1.03672 0
M  V30 165 C 18.7932 -2.86353 2.19167 0
M  V30 166 O 17.8972 -3.80442 1.59178 0
M  V30 167 H 17.2382 -0.476569 0.462362 0
M  V30 168 H 19.7682 -0.963853 1.80474 0
M  V30 169 H 19.7782 -3.35519 2.32145 0
M  V30 170 H 18.4532 -2.63299 3.21942 0
M  V30 171 H 17.0302 -3.39067 1.55203 0
M  V30 172 N 19.2153 -1.21501 -1.00376 0
M  V30 173 C 20.1783 -0.976927 -2.07337 0
M  V30 174 C 21.1783 0.0525322 -1.60714 0
M  V30 175 O 22.3683 -0.184869 -1.73216 0
M  V30 176 C 19.5003 -0.473423 -3.37597 0
M  V30 177 H 20.6933 -1.92587 -2.29892 0
M  V30 178 H 18.2463 -1.03217 -1.17371 0
M  V30 179 H 18.9813 0.480379 -3.20722 0
M  V30 180 H 18.7663 -1.216 -3.72768 0
M  V30 181 H 20.2563 -0.32675 -4.1632 0
M  V30 182 N 20.6934 1.19889 -1.02296 0
M  V30 183 C 22.1044 1.71124 -0.746568 0
M  V30 184 C 22.4554 1.81939 0.734335 0
M  V30 185 O 21.5804 1.48639 1.57275 0
M  V30 186 C 22.1754 3.10804 -1.34857 0
M  V30 187 C 20.7344 3.59323 -1.1209 0
M  V30 188 C 19.8814 2.3635 -1.45031 0
M  V30 189 H 22.8324 1.04813 -1.19163 0
M  V30 190 H 22.8534 3.73186 -0.742437 0
M  V30 191 H 22.3654 3.029 -2.42638 0
M  V30 192 H 20.4664 3.7255 -0.0610337 0
M  V30 193 H 20.5794 4.4378 -1.80544 0
M  V30 194 H 18.9434 2.39399 -0.869487 0
M  V30 195 H 19.7264 2.31081 -2.53883 0
M  V30 196 N 22.1715 0.800033 1.35784 0
M  V30 197 C 23.3965 0.388511 2.03729 0
M  V30 198 C 23.8215 -0.990481 1.5991 0
M  V30 199 O 23.1795 -1.64013 0.772612 0
M  V30 200 C 23.2275 0.4726 3.5749 0
M  V30 201 O 22.3315 -0.51646 4.09153 0
M  V30 202 H 21.6725 0.163271 0.643614 0
M  V30 203 H 24.2025 1.0841 1.73518 0
M  V30 204 H 24.2125 0.34003 4.06581 0
M  V30 205 H 22.8875 1.47848 3.88734 0
M  V30 206 H 21.4645 -0.344673 3.71304 0
M  V30 207 N 23.6496 -1.47581 0.552962 0
M  V30 208 C 24.6126 -2.28439 -0.186605 0
M  V30 209 C 25.6126 -1.36706 -0.84665 0
M  V30 210 O 26.8026 -1.59378 -0.703164 0
M  V30 211 C 23.9346 -3.16264 -1.2724 0
M  V30 212 H 25.1276 -2.95294 0.523609 0
M  V30 213 H 22.6806 -1.532 0.309745 0
M  V30 214 H 23.4156 -2.54091 -2.01514 0
M  V30 215 H 23.2006 -3.83769 -0.803968 0
M  V30 216 H 24.6906 -3.77198 -1.79196 0
M  V30 217 N 25.1277 -0.289203 -1.54924 0
M  V30 218 C 26.3527 0.329299 -2.04769 0
M  V30 219 C 26.7777 1.4763 -1.16564 0
M  V30 220 O 26.1357 1.80527 -0.167186 0
M  V30 221 C 26.1837 0.774438 -3.52186 0
M  V30 222 O 25.2877 1.88038 -3.67036 0
M  V30 223 H 24.6287 0.0659259 -0.660719 0
M  V30 224 H 27.1587 -0.42761 -2.00082 0
M  V30 225 H 27.1687 1.06642 -3.93816 0
M  V30 226 H 25.8437 -0.0646707 -4.1585 0
M  V30 227 H 24.4207 1.58985 -3.3731 0
M  V30 228 N 26.6058 1.57591 -0.0167156 0
M  V30 229 C 28.0168 1.79201 0.523834 0
M  V30 230 C 28.3678 0.925796 1.72984 0
M  V30 231 O 27.4928 0.132792 2.15992 0
M  V30 232 C 28.0878 3.25 0.957091 0
M  V30 233 C 26.6468 3.47648 1.44283 0
M  V30 234 C 25.7938 2.74374 0.401757 0
M  V30 235 H 28.7448 1.56831 -0.242816 0
M  V30 236 H 28.7658 3.34031 1.82219 0
M  V30 237 H 28.2778 3.88019 0.0791415 0
M  V30 238 H 26.3788 2.89866 2.34113 0
M  V30 239 H 26.4918 4.56352 1.45877 0
M  V30 240 H 24.8558 2.39485 0.867121 0
M  V30 241 H 25.6388 3.40102 -0.467513 0
M  V30 242 N 28.0839 -0.256276 1.55502 0
M  V30 243 C 29.0469 -1.30047 1.88734 0
M  V30 244 C 30.0469 -1.4154 0.763086 0
M  V30 245 O 31.2369 -1.40403 1.03115 0
M  V30 246 C 28.3689 -2.67953 2.10747 0
M  V30 247 H 29.5619 -1.01802 2.82093 0
M  V30 248 H 27.1149 -0.495134 1.4825 0
M  V30 249 H 27.8499 -3.01351 1.19825 0
M  V30 250 H 27.6349 -2.60993 2.92617 0
M  V30 251 H 29.1249 -3.43368 2.37673 0
M  V30 252 N 29.562 -1.4872 -0.521534 0
M  V30 253 C 30.525 -1.63379 -1.60748 0
M  V30 254 C 31.525 -0.50661 -1.52611 0
M  V30 255 O 32.715 -0.772601 -1.5613 0
M  V30 256 C 29.847 -1.61192 -3.00383 0
M  V30 257 H 31.04 -2.60217 -1.49087 0
M  V30 258 H 28.593 -1.37444 -0.744235 0
M  V30 259 H 29.328 -0.65863 -3.17541 0
M  V30 260 H 29.113 -2.43032 -3.07698 0
M  V30 261 H 30.603 -1.7466 -3.7932 0
M  V30 262 N 31.0401 0.771051 -1.3745 0
M  V30 263 C 32.0031 1.86598 -1.33093 0
M  V30 264 C 33.0031 1.59076 -0.234845 0
M  V30 265 O 34.1931 1.67145 -0.490732 0
M  V30 266 C 31.3251 3.23747 -1.06773 0
M  V30 267 H 32.5181 1.91873 -2.30488 0
M  V30 268 H 30.0711 0.970876 -1.2249 0
M  V30 269 H 30.8061 3.24148 -0.099129 0
M  V30 270 H 30.5911 3.45115 -1.86112 0
M  V30 271 H 32.0811 4.03824 -1.06377 0
M  V30 272 N 32.5182 1.22032 0.997298 0
M  V30 273 C 33.9292 1.0397 1.55071 0
M  V30 274 C 34.2802 -0.398192 1.92117 0
M  V30 275 O 33.4052 -1.28254 1.74298 0
M  V30 276 C 34.0002 1.88109 2.81781 0
M  V30 277 C 32.5592 1.74357 3.33581 0
M  V30 278 C 31.7062 1.84846 2.06706 0
M  V30 279 H 34.6572 1.35941 0.818883 0
M  V30 280 H 34.6782 1.39589 3.53971 0
M  V30 281 H 34.1902 2.92754 2.54787 0
M  V30 282 H 32.2912 0.72427 3.65493 0
M  V30 283 H 32.4042 2.56772 4.04481 0
M  V30 284 H 30.7682 1.28238 2.20062 0
M  V30 285 H 31.5512 2.91014 1.82114 0
M  V30 286 N 33.9963 -1.19345 1.0293 0
M  V30 287 C 35.4123 -1.41069 0.746446 0
M  V30 288 C 35.6123 -1.90078 -0.668776 0
M  V30 289 O 34.6683 -2.0778 -1.4347 0
M  V30 290 C 35.9813 -2.42141 1.78292 0
M  V30 291 C 37.5293 -2.55887 1.80252 0
M  V30 292 C 38.0043 -3.60214 2.8286 0
M  V30 293 N 39.4953 -3.67711 2.81679 0
M  V30 294 C 40.2303 -4.48128 3.57727 0
M  V30 295 N 39.7263 -5.32248 4.43491 0
M  V30 296 N 41.5193 -4.42782 3.46267 0
M  V30 297 H 33.6703 -0.858536 1.94275 0
M  V30 298 H 35.9333 -0.439541 0.839945 0
M  V30 299 H 35.6393 -2.13155 2.79746 0
M  V30 300 H 35.5133 -3.41323 1.60557 0
M  V30 301 H 37.9003 -2.84196 0.794757 0
M  V30 302 H 37.9813 -1.56858 2.02062 0
M  V30 303 H 37.6253 -3.32647 3.83807 0
M  V30 304 H 37.5553 -4.58895 2.58307 0
M  V30 305 H 40.0463 -3.07634 2.19476 0
M  V30 306 H 40.3593 -5.90729 4.98256 0
M  V30 307 H 38.7043 -5.31707 4.47564 0
M  V30 308 H 41.8953 -3.76107 2.78677 0
M  V30 309 H 42.0683 -5.05215 4.05785 0
M  V30 310 N 35.4744 -0.807222 -1.35358 0
M  V30 311 C 36.7224 -0.387122 -1.98358 0
M  V30 312 C 37.0434 1.04942 -1.64354 0
M  V30 313 O 36.3134 1.72615 -0.926339 0
M  V30 314 H 34.8934 -0.140154 -0.733734 0
M  V30 315 H 37.5554 -1.0332 -1.6526 0
M  V30 316 H 36.6514 -0.493352 -3.08176 0
M  V30 317 N 36.9525 1.47285 -0.560781 0
M  V30 318 C 38.1985 2.03347 -0.0463654 0
M  V30 319 C 38.5535 1.42702 1.2905 0
M  V30 320 O 37.8465 0.574619 1.8278 0
M  V30 321 C 38.0405 3.57258 0.100784 0
M  V30 322 C 37.8695 4.32827 -1.22027 0
M  V30 323 C 36.6395 4.72588 -1.78854 0
M  V30 324 C 38.8375 4.67739 -2.13834 0
M  V30 325 N 36.8195 5.32816 -3.04927 0
M  V30 326 C 38.1905 5.28307 -3.24487 0
M  V30 327 C 40.2455 4.49667 -2.13784 0
M  V30 328 C 38.9485 5.72711 -4.35194 0
M  V30 329 C 40.9745 4.95073 -3.23506 0
M  V30 330 C 40.3365 5.55693 -4.32879 0
M  V30 331 H 36.4355 0.779755 -0.0592166 0
M  V30 332 H 39.0195 1.79723 -0.748857 0
M  V30 333 H 37.1905 3.80642 0.772404 0
M  V30 334 H 38.9225 3.9996 0.617589 0
M  V30 335 H 35.6775 4.54656 -1.32609 0
M  V30 336 H 36.1015 5.67471 -3.69197 0
M  V30 337 H 40.7435 4.02154 -1.30507 0
M  V30 338 H 38.4615 6.19214 -5.1923 0
M  V30 339 H 42.0475 4.82859 -3.24559 0
M  V30 340 H 40.9275 5.90188 -5.1638 0
M  V30 341 N 38.4306 0.297415 1.54768 0
M  V30 342 C 39.6556 -0.318435 2.04941 0
M  V30 343 C 40.0806 -1.4701 1.17345 0
M  V30 344 O 39.4386 -1.80436 0.176758 0
M  V30 345 C 39.4866 -0.755749 3.52592 0
M  V30 346 O 38.5906 -1.86088 3.68028 0
M  V30 347 H 37.9316 -0.062421 0.661059 0
M  V30 348 H 40.4616 0.438215 1.99852 0
M  V30 349 H 40.4716 -1.04552 3.94376 0
M  V30 350 H 39.1466 0.0867233 4.1581 0
M  V30 351 H 37.7236 -1.57193 3.38149 0
M  V30 352 N 39.9087 -1.5758 0.0250728 0
M  V30 353 C 40.8187 -2.1343 -0.973905 0
M  V30 354 C 41.8347 -1.08556 -1.35984 0
M  V30 355 O 43.0107 -1.40592 -1.44207 0
M  V30 356 C 40.0757 -2.64703 -2.23904 0
M  V30 357 C 39.1367 -3.84276 -1.91391 0
M  V30 358 C 38.3697 -4.33095 -3.11873 0
M  V30 359 O 38.5927 -3.81107 -4.24398 0
M  V30 360 O 37.5267 -5.24984 -2.94406 0
M  V30 361 H 41.3527 -2.99057 -0.529036 0
M  V30 362 H 38.9377 -1.48118 -0.195288 0
M  V30 363 H 40.8197 -2.97769 -2.98181 0
M  V30 364 H 39.4947 -1.82161 -2.6758 0
M  V30 365 H 38.4017 -3.56143 -1.14511 0
M  V30 366 H 39.7347 -4.67968 -1.52534 0
M  V30 367 N 41.3868 0.248026 -1.55636 0
M  V30 368 C 42.6338 0.976224 -1.77415 0
M  V30 369 C 42.9618 1.85361 -0.589193 0
M  V30 370 O 42.2168 1.90973 0.427529 0
M  V30 371 C 42.5158 1.86819 -3.04686 0
M  V30 372 C 42.1818 1.14625 -4.36087 0
M  V30 373 C 40.8438 0.946723 -4.71795 0
M  V30 374 C 43.1958 0.634463 -5.17324 0
M  V30 375 C 40.5238 0.223091 -5.86276 0
M  V30 376 C 42.8758 -0.0756959 -6.32555 0
M  V30 377 C 41.5398 -0.286711 -6.66884 0
M  V30 378 H 40.8098 0.357226 -0.649208 0
M  V30 379 H 43.4568 0.246415 -1.89908 0
M  V30 380 H 41.7618 2.66502 -2.872 0
M  V30 381 H 43.4588 2.43329 -3.18735 0
M  V30 382 H 40.0488 1.3117 -4.08035 0
M  V30 383 H 44.2328 0.77616 -4.90193 0
M  V30 384 H 39.4888 0.0491185 -6.1138 0
M  V30 385 H 43.6628 -0.479899 -6.94745 0
M  V30 386 H 41.2898 -0.849389 -7.5544 0
M  V30 387 N 42.8649 1.48995 0.513639 0
M  V30 388 C 44.1049 1.59452 1.27885 0
M  V30 389 C 44.4689 0.269479 1.90099 0
M  V30 390 O 45.6699 0.249139 2.67643 0
M  V30 391 C 43.9409 2.71277 2.32688 0
M  V30 392 S 45.4999 3.01604 3.18717 0
M  V30 393 H 42.3179 0.562565 0.434789 0
M  V30 394 H 44.9199 1.86595 0.583301 0
M  V30 395 H 43.6239 3.66089 1.8549 0
M  V30 396 H 43.1549 2.46086 3.06929 0
M  V30 397 H 45.1699 2.42155 4.331 0
M  V30 398 N 44.343 -0.763751 1.37857 0
M  V30 399 C 45.253 -1.90817 1.36478 0
M  V30 400 C 46.269 -1.71997 0.263248 0
M  V30 401 O 47.445 -1.95095 0.499979 0
M  V30 402 C 44.51 -3.2605 1.17864 0
M  V30 403 C 43.571 -3.57467 2.3773 0
M  V30 404 C 42.804 -4.86249 2.19995 0
M  V30 405 O 43.027 -5.57884 1.18836 0
M  V30 406 O 41.961 -5.16911 3.08361 0
M  V30 407 H 45.787 -1.94933 2.32884 0
M  V30 408 H 43.372 -0.907619 1.1867 0
M  V30 409 H 45.254 -4.06924 1.09504 0
M  V30 410 H 43.929 -3.22769 0.245372 0
M  V30 411 H 42.836 -2.76796 2.51664 0
M  V30 412 H 44.169 -3.655 3.29652 0
M  V30 413 N 45.8211 -1.22559 -0.990812 0
M  V30 414 C 46.7511 -1.0218 -2.09956 0
M  V30 415 C 47.7321 0.0579394 -1.70001 0
M  V30 416 O 48.9171 -0.104684 -1.93918 0
M  V30 417 C 46.0471 -0.601023 -3.4206 0
M  V30 418 C 45.0011 -1.62694 -3.95872 0
M  V30 419 C 44.3271 -1.06193 -5.24049 0
M  V30 420 C 45.6271 -3.01743 -4.2632 0
M  V30 421 H 47.3211 -1.94916 -2.27262 0
M  V30 422 H 44.8671 -0.938566 -1.09211 0
M  V30 423 H 46.8201 -0.445561 -4.19038 0
M  V30 424 H 45.5441 0.362005 -3.24588 0
M  V30 425 H 44.2031 -1.77021 -3.21028 0
M  V30 426 H 43.8511 -0.0901903 -5.02919 0
M  V30 427 H 43.5511 -1.74732 -5.61019 0
M  V30 428 H 45.0751 -0.918092 -6.03658 0
M  V30 429 H 46.4891 -2.90777 -4.94087 0
M  V30 430 H 44.8861 -3.67425 -4.74467 0
M  V30 431 H 45.9561 -3.51518 -3.34011 0
M  V30 432 N 47.2992 1.18797 -1.03562 0
M  V30 433 C 48.2492 2.20161 -0.592724 0
M  V30 434 C 49.2332 1.56772 0.362133 0
M  V30 435 O 50.4252 1.76062 0.182009 0
M  V30 436 C 47.5542 3.43266 0.0481024 0
M  V30 437 C 46.6402 4.13786 -0.9296 0
M  V30 438 N 47.0312 4.60388 -2.09467 0
M  V30 439 C 45.3292 4.39572 -0.754499 0
M  V30 440 C 46.0302 5.14619 -2.71187 0
M  V30 441 N 45.0062 5.05826 -1.991 0
M  V30 442 H 48.8082 2.53877 -1.48066 0
M  V30 443 H 46.3222 1.34946 -0.903514 0
M  V30 444 H 48.3192 4.15136 0.383058 0
M  V30 445 H 46.9792 3.11048 0.931636 0
M  V30 446 H 47.9902 4.54999 -2.47379 0
M  V30 447 H 44.6672 4.17425 0.0793713 0
M  V30 448 H 46.0572 5.60917 -3.69895 0
M  V30 449 N 48.7773 0.814389 1.34928 0
M  V30 450 C 49.7403 0.235759 2.27984 0
M  V30 451 C 50.7403 -0.581412 1.49921 0
M  V30 452 O 51.9303 -0.398758 1.69575 0
M  V30 453 C 49.0623 -0.670433 3.34242 0
M  V30 454 H 50.2553 1.05659 2.80671 0
M  V30 455 H 47.8083 0.585614 1.44915 0
M  V30 456 H 48.5433 -1.51466 2.86755 0
M  V30 457 H 48.3283 -0.0860822 3.92005 0
M  V30 458 H 49.8183 -1.06935 4.03676 0
M  V30 459 N 50.2554 -1.46986 0.568584 0
M  V30 460 C 51.5014 -2.02741 0.0488709 0
M  V30 461 C 51.8344 -1.44077 -1.30214 0
M  V30 462 O 51.1094 -0.600552 -1.84996 0
M  V30 463 C 51.3924 -3.60086 -0.032047 0
M  V30 464 C 51.2454 -4.29162 1.34686 0
M  V30 465 C 52.5644 -4.33838 -0.739798 0
M  V30 466 H 49.6834 -0.736749 0.0192338 0
M  V30 467 H 52.3254 -1.75289 0.733065 0
M  V30 468 H 50.4754 -3.83606 -0.61473 0
M  V30 469 H 52.1474 -4.16948 1.97362 0
M  V30 470 H 50.3904 -3.89073 1.91846 0
M  V30 471 H 51.0614 -5.37826 1.24285 0
M  V30 472 H 53.5374 -4.15378 -0.244939 0
M  V30 473 H 52.4134 -5.43537 -0.765406 0
M  V30 474 H 52.6744 -4.03875 -1.79827 0
M  V30 475 N 51.7335 -0.305618 -1.54608 0
M  V30 476 C 52.6965 0.555591 -2.22364 0
M  V30 477 C 53.6965 1.05768 -1.21119 0
M  V30 478 O 54.8865 0.952972 -1.45822 0
M  V30 479 C 52.0185 1.76974 -2.91364 0
M  V30 480 H 53.2115 -0.0364572 -2.99878 0
M  V30 481 H 50.7645 -0.0565007 -1.56198 0
M  V30 482 H 51.4995 2.40151 -2.17941 0
M  V30 483 H 51.2845 1.41732 -3.65588 0
M  V30 484 H 52.7745 2.38148 -3.43038 0
M  V30 485 N 53.2116 1.57565 -0.0334293 0
M  V30 486 C 54.1746 2.09393 0.932048 0
M  V30 487 C 55.1746 1.00986 1.25134 0
M  V30 488 O 56.3646 1.27129 1.19096 0
M  V30 489 C 53.4966 2.56338 2.2473 0
M  V30 490 H 54.6896 2.95984 0.483085 0
M  V30 491 H 52.2426 1.54819 0.21468 0
M  V30 492 H 52.9776 1.7309 2.74245 0
M  V30 493 H 52.7626 3.35542 2.02865 0
M  V30 494 H 54.2526 2.96646 2.93923 0
M  V30 495 N 54.6897 -0.239769 1.55765 0
M  V30 496 C 55.6527 -1.28038 1.90103 0
M  V30 497 C 56.6527 -1.40723 0.778055 0
M  V30 498 O 57.8427 -1.39301 1.04599 0
M  V30 499 C 54.9747 -2.65702 2.13577 0
M  V30 500 H 56.1677 -0.988048 2.83157 0
M  V30 501 H 53.7207 -0.479382 1.48767 0
M  V30 502 H 54.4557 -3.00063 1.23015 0
M  V30 503 H 54.2407 -2.57875 2.95369 0
M  V30 504 H 55.7307 -3.40828 2.41301 0
M  V30 505 N 56.1678 -1.49265 -0.50573 0
M  V30 506 C 57.5838 -1.35923 -0.836486 0
M  V30 507 C 57.7838 -0.388704 -1.97715 0
M  V30 508 O 56.8398 0.181336 -2.51848 0
M  V30 509 C 58.1528 -2.76531 -1.18115 0
M  V30 510 C 59.7008 -2.85197 -1.28964 0
M  V30 511 C 60.1758 -4.26561 -1.66761 0
M  V30 512 N 61.6668 -4.2935 -1.73819 0
M  V30 513 C 62.4018 -5.35693 -2.045 0
M  V30 514 N 61.8978 -6.52287 -2.33438 0
M  V30 515 N 63.6908 -5.23105 -2.05711 0
M  V30 516 H 55.8418 -2.10965 0.246519 0
M  V30 517 H 58.1048 -0.9468 0.0476887 0
M  V30 518 H 57.8108 -3.49226 -0.416398 0
M  V30 519 H 57.6848 -3.11599 -2.1257 0
M  V30 520 H 60.0718 -2.12742 -2.04511 0
M  V30 521 H 60.1528 -2.53718 -0.325704 0
M  V30 522 H 59.7968 -4.99541 -0.917656 0
M  V30 523 H 59.7268 -4.55502 -2.64246 0
M  V30 524 H 62.2178 -3.4526 -1.53635 0
M  V30 525 H 62.5308 -7.29158 -2.56024 0
M  V30 526 H 60.8758 -6.55521 -2.30905 0
M  V30 527 H 64.0668 -4.31026 -1.82577 0
M  V30 528 H 64.2398 -6.06078 -2.29289 0
M  V30 529 N 57.6459 0.756429 -1.3826 0
M  V30 530 C 58.5559 1.9009 -1.37488 0
M  V30 531 C 59.5719 1.71855 -0.272366 0
M  V30 532 O 60.7479 1.94827 -0.510318 0
M  V30 533 C 57.8129 3.25421 -1.19592 0
M  V30 534 C 56.8739 3.56202 -2.39622 0
M  V30 535 C 56.1069 4.85075 -2.2257 0
M  V30 536 O 56.3299 5.57246 -1.21793 0
M  V30 537 O 55.2639 5.15269 -3.11098 0
M  V30 538 H 59.0899 1.93695 -2.33914 0
M  V30 539 H 56.6749 0.901313 -1.1915 0
M  V30 540 H 58.5569 4.06337 -1.11661 0
M  V30 541 H 57.2319 3.22634 -0.262486 0
M  V30 542 H 56.1389 2.75458 -2.53128 0
M  V30 543 H 57.4719 3.63747 -3.31586 0
M  V30 544 N 59.124 1.23083 0.984299 0
M  V30 545 C 60.054 1.03292 2.09411 0
M  V30 546 C 61.035 -0.048923 1.7003 0
M  V30 547 O 62.22 0.114967 1.93859 0
M  V30 548 C 59.35 0.619155 3.41736 0
M  V30 549 C 58.304 1.64791 3.95004 0
M  V30 550 C 57.63 1.0897 5.23478 0
M  V30 551 C 58.93 3.03999 4.24714 0
M  V30 552 H 60.624 1.96119 2.26225 0
M  V30 553 H 58.17 0.944344 1.08711 0
M  V30 554 H 60.123 0.467777 4.18796 0
M  V30 555 H 58.847 -0.344786 3.24775 0
M  V30 556 H 57.506 1.78721 3.20085 0
M  V30 557 H 57.154 0.11686 5.02864 0
M  V30 558 H 56.854 1.77704 5.60085 0
M  V30 559 H 58.378 0.950093 6.03163 0
M  V30 560 H 59.792 2.93393 4.92538 0
M  V30 561 H 58.189 3.69936 4.72512 0
M  V30 562 H 59.259 3.53285 3.32142 0
M  V30 563 N 60.6021 -1.18246 1.0419 0
M  V30 564 C 61.5651 -2.20128 0.638452 0
M  V30 565 C 62.5651 -1.57885 -0.304805 0
M  V30 566 O 63.7551 -1.73967 -0.0900369 0
M  V30 567 C 60.8871 -3.4084 -0.0637751 0
M  V30 568 H 62.0801 -2.57336 1.54007 0
M  V30 569 H 59.6331 -1.32152 0.834598 0
M  V30 570 H 60.3681 -3.09166 -0.979136 0
M  V30 571 H 60.1531 -3.8726 0.614198 0
M  V30 572 H 61.6431 -4.16274 -0.332512 0
M  V30 573 N 62.0802 -0.821533 -1.34494 0
M  V30 574 C 63.4962 -0.507117 -1.51329 0
M  V30 575 C 63.6962 0.968964 -1.76673 0
M  V30 576 O 62.7522 1.75348 -1.81685 0
M  V30 577 C 64.0652 -1.36544 -2.67911 0
M  V30 578 C 65.6132 -1.36242 -2.81793 0
M  V30 579 C 66.0882 -2.2052 -4.01416 0
M  V30 580 N 67.5792 -2.18136 -4.08621 0
M  V30 581 C 68.3142 -2.80095 -5.00334 0
M  V30 582 N 67.8102 -3.51039 -5.9728 0
M  V30 583 N 69.6032 -2.69656 -4.93196 0
M  V30 584 H 61.7542 -1.77729 -1.16302 0
M  V30 585 H 64.0172 -0.757291 -0.570276 0
M  V30 586 H 63.7232 -2.41361 -2.55808 0
M  V30 587 H 63.5972 -1.02917 -3.62888 0
M  V30 588 H 65.9842 -0.322041 -2.93338 0
M  V30 589 H 66.0652 -1.73866 -1.87628 0
M  V30 590 H 65.7092 -3.24607 -3.90631 0
M  V30 591 H 65.6392 -1.80247 -4.94791 0
M  V30 592 H 68.1302 -1.6653 -3.39229 0
M  V30 593 H 68.4432 -3.95565 -6.63889 0
M  V30 594 H 66.7882 -3.55145 -5.97409 0
M  V30 595 H 69.9792 -2.13808 -4.16418 0
M  V30 596 H 70.1522 -3.1823 -5.64476 0
M  V30 597 N 63.5583 1.46682 -0.576371 0
M  V30 598 C 64.4903 2.28341 0.198231 0
M  V30 599 C 65.5033 1.38141 0.861453 0
M  V30 600 O 66.6923 1.62797 0.732082 0
M  V30 601 C 63.7923 3.12986 1.29972 0
M  V30 602 C 62.9653 4.31271 0.729639 0
M  V30 603 C 62.0243 4.97363 1.71803 0
M  V30 604 O 61.0503 5.55156 1.25658 0
M  V30 605 N 62.2523 4.93796 3.05198 0
M  V30 606 H 65.0173 2.9546 -0.502324 0
M  V30 607 H 62.5783 1.56525 -0.413715 0
M  V30 608 H 64.5703 3.54066 1.96008 0
M  V30 609 H 63.1403 2.47984 1.90323 0
M  V30 610 H 62.3603 3.94052 -0.108012 0
M  V30 611 H 63.6483 5.07739 0.328438 0
M  V30 612 H 63.0463 4.48077 3.45317 0
M  V30 613 H 61.6033 5.38837 3.6674 0
M  V30 614 N 65.0364 0.313813 1.54444 0
M  V30 615 C 66.2664 -0.293491 2.04505 0
M  V30 616 C 66.6744 -1.47086 1.19005 0
M  V30 617 O 66.0174 -1.82481 0.211257 0
M  V30 618 C 66.0794 -0.800455 3.50475 0
M  V30 619 C 65.7434 0.253322 4.56297 0
M  V30 620 C 66.7404 1.08612 5.08428 0
M  V30 621 C 64.4254 0.398708 5.00715 0
M  V30 622 C 66.4194 2.05013 6.0353 0
M  V30 623 C 64.1064 1.36614 5.95634 0
M  V30 624 C 65.1044 2.19033 6.46926 0
M  V30 625 O 64.7924 3.14134 7.39983 0
M  V30 626 H 64.5244 -0.0658325 0.672787 0
M  V30 627 H 67.0784 0.455177 2.00293 0
M  V30 628 H 65.3084 -1.59987 3.52053 0
M  V30 629 H 66.9974 -1.32504 3.83663 0
M  V30 630 H 67.7634 0.984736 4.74898 0
M  V30 631 H 63.6424 -0.23289 4.60411 0
M  V30 632 H 67.1864 2.69382 6.4349 0
M  V30 633 H 63.0834 1.4682 6.28581 0
M  V30 634 H 63.8514 3.0926 7.57826 0
M  V30 635 N 66.5145 -1.57545 0.0417849 0
M  V30 636 C 67.7605 -1.93424 -0.629168 0
M  V30 637 C 68.1155 -0.919564 -1.69002 0
M  V30 638 O 67.4085 0.0626178 -1.91498 0
M  V30 639 C 67.6025 -3.33794 -1.27735 0
M  V30 640 C 67.4315 -4.48822 -0.280806 0
M  V30 641 C 66.2015 -5.05148 0.123869 0
M  V30 642 C 68.3995 -5.12148 0.470012 0
M  V30 643 N 66.3815 -6.03703 1.11426 0
M  V30 644 C 67.7525 -6.05921 1.31377 0
M  V30 645 C 69.8075 -4.95078 0.529343 0
M  V30 646 C 68.5105 -6.84459 2.21152 0
M  V30 647 C 70.5365 -5.74235 1.41448 0
M  V30 648 C 69.8985 -6.67634 2.24598 0
M  V30 649 H 65.9975 -0.755418 -0.202158 0
M  V30 650 H 68.5815 -1.94378 0.111923 0
M  V30 651 H 66.7525 -3.33635 -1.98852 0
M  V30 652 H 68.4845 -3.56988 -1.90635 0
M  V30 653 H 65.2395 -4.72923 -0.253178 0
M  V30 654 H 65.6635 -6.57674 1.60607 0
M  V30 655 H 70.3055 -4.22683 -0.0992798 0
M  V30 656 H 68.0235 -7.56151 2.85063 0
M  V30 657 H 71.6095 -5.63057 1.46484 0
M  V30 658 H 70.4895 -7.27817 2.9198 0
M  V30 659 N 67.9926 0.231505 -1.5589 0
M  V30 660 C 68.9226 1.29022 -1.94617 0
M  V30 661 C 69.9036 1.4941 -0.813067 0
M  V30 662 O 71.0886 1.6176 -1.07459 0
M  V30 663 C 68.2186 2.64199 -2.25424 0
M  V30 664 C 67.1726 2.58484 -3.41131 0
M  V30 665 C 66.4986 3.97599 -3.57518 0
M  V30 666 C 67.7986 2.1413 -4.76388 0
M  V30 667 H 69.4926 0.968563 -2.83301 0
M  V30 668 H 67.0386 0.464479 -1.36303 0
M  V30 669 H 68.9916 3.38413 -2.51107 0
M  V30 670 H 67.7156 2.98032 -1.33583 0
M  V30 671 H 66.3746 1.86727 -3.15481 0
M  V30 672 H 66.0226 4.28723 -2.6307 0
M  V30 673 H 65.7226 3.94659 -4.35337 0
M  V30 674 H 67.2466 4.7349 -3.85538 0
M  V30 675 H 68.6606 2.78083 -5.01341 0
M  V30 676 H 67.0576 2.2227 -5.57419 0
M  V30 677 H 68.1276 1.09331 -4.72414 0
M  V30 678 N 69.4707 1.49531 0.497807 0
M  V30 679 C 70.7177 1.59179 1.25173 0
M  V30 680 C 71.0457 0.279932 1.92475 0
M  V30 681 O 70.3007 -0.732383 1.81479 0
M  V30 682 C 70.5997 2.70252 2.33878 0
M  V30 683 C 70.2657 4.11644 1.84012 0
M  V30 684 C 68.9277 4.50121 1.70132 0
M  V30 685 C 71.2797 5.00121 1.46725 0
M  V30 686 C 68.6077 5.74845 1.17348 0
M  V30 687 C 70.9597 6.25366 0.95392 0
M  V30 688 C 69.6237 6.6267 0.801538 0
M  V30 689 H 68.8937 0.582478 0.45804 0
M  V30 690 H 71.5407 1.83373 0.551948 0
M  V30 691 H 69.8457 2.40041 3.09657 0
M  V30 692 H 71.5427 2.74925 2.9192 0
M  V30 693 H 68.1327 3.81274 1.95775 0
M  V30 694 H 72.3167 4.71048 1.56294 0
M  V30 695 H 67.5727 6.02444 1.04264 0
M  V30 696 H 71.7467 6.93301 0.656225 0
M  V30 697 H 69.3737 7.59197 0.390351 0
M  V30 698 N 70.9488 -0.749086 1.3866 0
M  V30 699 C 71.9118 -1.84457 1.36045 0
M  V30 700 C 72.9118 -1.58682 0.260122 0
M  V30 701 O 74.1018 -1.66343 0.517261 0
M  V30 702 C 71.2338 -3.22008 1.11911 0
M  V30 703 H 72.4268 -1.88182 2.33512 0
M  V30 704 H 69.9798 -0.951266 1.24019 0
M  V30 705 H 70.7148 -3.2395 0.150686 0
M  V30 706 H 70.4998 -3.42111 1.91579 0
M  V30 707 H 71.9898 -4.0208 1.12788 0
M  V30 708 N 72.4269 -1.23603 -0.977757 0
M  V30 709 C 73.8429 -0.999251 -1.24447 0
M  V30 710 C 74.0429 0.298053 -1.99283 0
M  V30 711 O 73.0989 1.01681 -2.31122 0
M  V30 712 C 74.4119 -2.20784 -2.04144 0
M  V30 713 C 75.9599 -2.25303 -2.17273 0
M  V30 714 C 76.4349 -3.45755 -3.00362 0
M  V30 715 N 77.9259 -3.4601 -3.07947 0
M  V30 716 C 78.6609 -4.35868 -3.72568 0
M  V30 717 N 78.1569 -5.35966 -4.38991 0
M  V30 718 N 79.9499 -4.23605 -3.6948 0
M  V30 719 H 72.1009 -2.06986 -0.476483 0
M  V30 720 H 74.3639 -0.907801 -0.273134 0
M  V30 721 H 74.0699 -3.14945 -1.56533 0
M  V30 722 H 73.9439 -2.22085 -3.04891 0
M  V30 723 H 76.3309 -1.3168 -2.64092 0
M  V30 724 H 76.4119 -2.28033 -1.15907 0
M  V30 725 H 76.0559 -4.39687 -2.5424 0
M  V30 726 H 75.9859 -3.40266 -4.01904 0
M  V30 727 H 78.4769 -2.73588 -2.60688 0
M  V30 728 H 78.7899 -6.00783 -4.86086 0
M  V30 729 H 77.1349 -5.39863 -4.37691 0
M  V30 730 H 80.3259 -3.44647 -3.16759 0
M  V30 731 H 80.4989 -4.93836 -4.1956 0
M  V30 732 N 73.905 1.17692 -1.04816 0
M  V30 733 C 74.815 2.25229 -0.65643 0
M  V30 734 C 75.831 1.71018 0.320761 0
M  V30 735 O 77.007 2.00649 0.173805 0
M  V30 736 C 74.072 3.46684 -0.0332629 0
M  V30 737 C 73.133 4.15997 -1.06042 0
M  V30 738 C 72.366 5.31654 -0.466893 0
M  V30 739 O 72.589 5.65777 0.724758 0
M  V30 740 O 71.523 5.89831 -1.1993 0
M  V30 741 H 75.349 2.61016 -1.55255 0
M  V30 742 H 72.934 1.24919 -0.81949 0
M  V30 743 H 74.816 4.20234 0.313256 0
M  V30 744 H 73.491 3.12703 0.836566 0
M  V30 745 H 72.398 3.44482 -1.45886 0
M  V30 746 H 73.731 4.53996 -1.90127 0
M  V30 747 N 75.3831 0.828654 1.34056 0
M  V30 748 C 76.3331 0.226828 2.26869 0
M  V30 749 C 77.3171 -0.612243 1.48796 0
M  V30 750 O 78.5091 -0.465884 1.70759 0
M  V30 751 C 75.6381 -0.605654 3.37915 0
M  V30 752 C 74.7241 0.244361 4.23395 0
M  V30 753 N 75.1151 1.31815 4.88322 0
M  V30 754 C 73.4131 0.0296616 4.4599 0
M  V30 755 C 74.1141 1.83895 5.51867 0
M  V30 756 N 73.0901 1.14196 5.3147 0
M  V30 757 H 76.8921 1.04811 2.74576 0
M  V30 758 H 74.4061 0.67205 1.47842 0
M  V30 759 H 76.4031 -1.05302 4.03382 0
M  V30 760 H 75.0631 -1.42504 2.91758 0
M  V30 761 H 76.0741 1.70099 4.8917 0
M  V30 762 H 72.7511 -0.757097 4.10578 0
M  V30 763 H 74.1411 2.7376 6.136 0
M  V30 764 N 76.8612 -1.46375 0.584142 0
M  V30 765 C 78.2722 -1.86031 0.157959 0
M  V30 766 C 78.6232 -1.48753 -1.27933 0
M  V30 767 O 77.7482 -0.903098 -1.96655 0
M  V30 768 C 78.3432 -3.37642 0.279892 0
M  V30 769 C 76.9022 -3.76289 -0.09143 0
M  V30 770 C 76.0492 -2.7039 0.615178 0
M  V30 771 H 79.0002 -1.37509 0.792274 0
M  V30 772 H 79.0212 -3.77275 -0.494364 0
M  V30 773 H 78.5332 -3.64742 1.32607 0
M  V30 774 H 76.6342 -3.54806 -1.13769 0
M  V30 775 H 76.7472 -4.78246 0.285886 0
M  V30 776 H 75.1112 -2.5464 0.0552833 0
M  V30 777 H 75.8942 -3.0033 1.66303 0
M  V30 778 N 78.3393 -0.321999 -1.54275 0
M  V30 779 C 79.2713 0.578671 -2.21775 0
M  V30 780 C 80.2843 1.08109 -1.21722 0
M  V30 781 O 81.4733 0.994938 -1.482 0
M  V30 782 C 78.5733 1.80661 -2.86731 0
M  V30 783 C 77.7463 1.44314 -4.12907 0
M  V30 784 C 76.8053 2.52845 -4.61472 0
M  V30 785 O 75.8313 2.17054 -5.2619 0
M  V30 786 N 77.0333 3.83748 -4.35566 0
M  V30 787 H 79.7983 0.000709447 -2.997 0
M  V30 788 H 77.3593 -0.145132 -1.61248 0
M  V30 789 H 79.3513 2.52655 -3.16145 0
M  V30 790 H 77.9213 2.29245 -2.12521 0
M  V30 791 H 77.1413 0.554906 -3.90275 0
M  V30 792 H 78.4293 1.17598 -4.95023 0
M  V30 793 H 77.8273 4.15625 -3.83761 0
M  V30 794 H 76.3843 4.51977 -4.69638 0
M  V30 795 N 79.8174 1.5752 -0.0501392 0
M  V30 796 C 80.7674 2.07981 0.934231 0
M  V30 797 C 81.7514 0.984745 1.27246 0
M  V30 798 O 82.9434 1.24809 1.25506 0
M  V30 799 C 80.0724 2.62751 2.20945 0
M  V30 800 C 79.1584 3.79225 1.89865 0
M  V30 801 N 79.5494 4.89036 1.29142 0
M  V30 802 C 77.8474 3.88111 2.19741 0
M  V30 803 C 78.5484 5.70084 1.15669 0
M  V30 804 N 77.5244 5.17659 1.65923 0
M  V30 805 H 81.3264 2.90277 0.460053 0
M  V30 806 H 78.8404 1.61665 0.15434 0
M  V30 807 H 80.8374 2.97205 2.9236 0
M  V30 808 H 79.4974 1.81894 2.6897 0
M  V30 809 H 80.5084 5.08854 0.963756 0
M  V30 810 H 77.1854 3.18194 2.70293 0
M  V30 811 H 78.5754 6.68395 0.685356 0
M  V30 812 N 81.2955 -0.223234 1.56011 0
M  V30 813 C 82.2585 -1.26014 1.9145 0
M  V30 814 C 83.2585 -1.3989 0.792937 0
M  V30 815 O 84.4485 -1.38184 1.0607 0
M  V30 816 C 81.5805 -2.63422 2.16383 0
M  V30 817 H 82.7735 -0.95796 2.84189 0
M  V30 818 H 80.3265 -0.463576 1.49267 0
M  V30 819 H 81.0615 -2.98741 1.2619 0
M  V30 820 H 80.8465 -2.54728 2.98088 0
M  V30 821 H 82.3365 -3.38249 2.44903 0
M  V30 822 N 82.7736 -1.49793 -0.48987 0
M  V30 823 C 84.1846 -1.52914 -1.07118 0
M  V30 824 C 84.5356 -0.321738 -1.93544 0
M  V30 825 O 83.6606 0.567338 -2.08831 0
M  V30 826 C 84.2556 -2.771 -1.94938 0
M  V30 827 C 82.8146 -2.82963 -2.48212 0
M  V30 828 C 81.9616 -2.46972 -1.26096 0
M  V30 829 H 84.9126 -1.56329 -0.273289 0
M  V30 830 H 84.9336 -2.57892 -2.79771 0
M  V30 831 H 84.4456 -3.64959 -1.32009 0
M  V30 832 H 82.5466 -1.99411 -3.14748 0
M  V30 833 H 82.6596 -3.85406 -2.84603 0
M  V30 834 H 81.0236 -1.98994 -1.58976 0
M  V30 835 H 81.8066 -3.37118 -0.648581 0
M  V30 836 N 84.2517 0.741722 -1.39055 0
M  V30 837 C 85.1817 1.869 -1.39966 0
M  V30 838 C 86.1627 1.6804 -0.26392 0
M  V30 839 O 87.3477 1.88458 -0.468755 0
M  V30 840 C 84.4777 3.24572 -1.23574 0
M  V30 841 C 83.4317 3.58056 -2.34477 0
M  V30 842 C 82.7577 4.94593 -2.0318 0
M  V30 843 C 84.0577 3.61716 -3.76774 0
M  V30 844 H 85.7517 1.86395 -2.34302 0
M  V30 845 H 83.2977 0.895361 -1.1278 0
M  V30 846 H 85.2507 4.031 -1.22834 0
M  V30 847 H 83.9747 3.25587 -0.257045 0
M  V30 848 H 82.6337 2.81854 -2.34423 0
M  V30 849 H 82.2817 4.92181 -1.03765 0
M  V30 850 H 81.9817 5.17964 -2.77465 0
M  V30 851 H 83.5057 5.75486 -2.04079 0
M  V30 852 H 84.9197 4.30335 -3.78794 0
M  V30 853 H 83.3167 3.96603 -4.50362 0
M  V30 854 H 84.3867 2.61672 -4.08235 0
M  V30 855 N 85.7298 1.2412 0.971189 0
M  V30 856 C 87.1458 1.00584 1.23916 0
M  V30 857 C 87.3458 -0.287481 1.99439 0
M  V30 858 O 86.4018 -1.00454 2.31658 0
M  V30 859 C 87.7148 2.21864 2.0297 0
M  V30 860 C 89.2628 2.26452 2.16076 0
M  V30 861 C 89.7378 3.47343 2.98524 0
M  V30 862 N 91.2288 3.47639 3.06107 0
M  V30 863 C 91.9638 4.37837 3.70251 0
M  V30 864 N 91.4598 5.38286 4.36142 0
M  V30 865 N 93.2528 4.25558 3.67228 0
M  V30 866 H 85.4038 2.07236 0.465499 0
M  V30 867 H 87.6668 0.909236 0.268315 0
M  V30 868 H 87.3728 3.15771 1.54861 0
M  V30 869 H 87.2468 2.23698 3.03709 0
M  V30 870 H 89.6338 1.33078 2.6339 0
M  V30 871 H 89.7148 2.28645 1.14696 0
M  V30 872 H 89.3588 4.41029 2.51905 0
M  V30 873 H 89.2888 3.42393 4.00093 0
M  V30 874 H 91.7798 2.74966 2.59233 0
M  V30 875 H 92.0928 6.03352 4.82894 0
M  V30 876 H 90.4378 5.42176 4.34822 0
M  V30 877 H 93.6288 3.46322 3.14927 0
M  V30 878 H 93.8018 4.96054 4.16935 0
M  V30 879 N 87.2079 -1.17134 1.05439 0
M  V30 880 C 88.1709 -2.19439 0.661764 0
M  V30 881 C 89.1709 -1.58199 -0.288042 0
M  V30 882 O 90.3609 -1.74053 -0.0715803 0
M  V30 883 C 87.4929 -3.40889 -0.0276209 0
M  V30 884 H 88.6859 -2.55688 1.56728 0
M  V30 885 H 86.2389 -1.31259 0.848567 0
M  V30 886 H 86.9739 -3.10187 -0.94629 0
M  V30 887 H 86.7589 -3.86586 0.655238 0
M  V30 888 H 88.2489 -4.16603 -0.288342 0
M  V30 889 N 88.686 -0.835752 -1.33615 0
M  V30 890 C 89.596 -0.269088 -2.33052 0
M  V30 891 C 90.612 0.603251 -1.63208 0
M  V30 892 O 91.788 0.508112 -1.94885 0
M  V30 893 C 88.853 0.549091 -3.42324 0
M  V30 894 C 87.914 -0.347156 -4.27894 0
M  V30 895 C 87.147 0.43207 -5.31948 0
M  V30 896 O 87.37 1.66409 -5.45586 0
M  V30 897 O 86.304 -0.192298 -6.01593 0
M  V30 898 H 90.13 -1.09243 -2.83372 0
M  V30 899 H 87.715 -0.598198 -1.36901 0
M  V30 900 H 89.597 1.01414 -4.09015 0
M  V30 901 H 88.272 1.34955 -2.94226 0
M  V30 902 H 87.179 -0.859979 -3.64081 0
M  V30 903 H 88.512 -1.1123 -4.79467 0
M  V30 904 N 90.1641 1.46063 -0.591896 0
M  V30 905 C 91.0941 2.33172 0.123673 0
M  V30 906 C 92.0751 1.45897 0.87453 0
M  V30 907 O 93.2601 1.74698 0.848181 0
M  V30 908 C 90.3901 3.28336 1.13194 0
M  V30 909 C 89.3441 4.25124 0.495324 0
M  V30 910 C 88.6701 5.09863 1.61071 0
M  V30 911 C 89.9701 5.19143 -0.573425 0
M  V30 912 H 91.6641 2.93252 -0.603646 0
M  V30 913 H 89.2101 1.41014 -0.291741 0
M  V30 914 H 91.1631 3.88137 1.64097 0
M  V30 915 H 89.8871 2.66383 1.88965 0
M  V30 916 H 88.5461 3.66599 0.00729452 0
M  V30 917 H 88.1941 4.44288 2.35832 0
M  V30 918 H 87.8941 5.75417 1.19035 0
M  V30 919 H 89.4181 5.72529 2.12233 0
M  V30 920 H 90.8321 5.73106 -0.1491 0
M  V30 921 H 89.2291 5.93089 -0.914636 0
M  V30 922 H 90.2991 4.62519 -1.45617 0
M  V30 923 N 91.6422 0.330177 1.54103 0
M  V30 924 C 92.8882 -0.270806 2.00984 0
M  V30 925 C 93.2212 -1.51265 1.21789 0
M  V30 926 O 92.4962 -1.92142 0.301927 0
M  V30 927 C 92.7792 -0.598339 3.55094 0
M  V30 928 C 92.6322 0.654674 4.4501 0
M  V30 929 C 93.9512 -1.41334 4.16789 0
M  V30 930 H 91.0702 -0.0969531 0.730595 0
M  V30 931 H 93.7122 0.448066 1.84641 0
M  V30 932 H 91.8622 -1.21078 3.69151 0
M  V30 933 H 93.5342 1.29285 4.42813 0
M  V30 934 H 91.7772 1.28224 4.14416 0
M  V30 935 H 92.4482 0.380944 5.50684 0
M  V30 936 H 94.9242 -0.895597 4.06347 0
M  V30 937 H 93.8002 -1.61127 5.24718 0
M  V30 938 H 94.0612 -2.41146 3.70541 0
M  V30 939 N 93.1203 -1.57491 0.0584922 0
M  V30 940 C 94.3453 -1.97711 -0.62652 0
M  V30 941 C 94.7703 -0.936132 -1.63151 0
M  V30 942 O 94.1283 0.099811 -1.81025 0
M  V30 943 C 94.1763 -3.36989 -1.28338 0
M  V30 944 O 93.2803 -3.35433 -2.39913 0
M  V30 945 H 92.6213 -0.643868 -0.162266 0
M  V30 946 H 95.1513 -2.04193 0.129064 0
M  V30 947 H 95.1613 -3.73879 -1.63335 0
M  V30 948 H 93.8363 -4.12289 -0.546889 0
M  V30 949 H 92.4133 -3.10298 -2.06809 0
M  V30 950 N 94.5984 0.214957 -1.56127 0
M  V30 951 C 95.5284 1.2695 -1.95974 0
M  V30 952 C 96.5094 1.48539 -0.828868 0
M  V30 953 O 97.6944 1.60611 -1.09168 0
M  V30 954 C 94.8244 2.61794 -2.28214 0
M  V30 955 C 93.7784 2.54851 -3.43853 0
M  V30 956 C 93.1044 3.93785 -3.61715 0
M  V30 957 C 94.4044 2.09065 -4.78632 0
M  V30 958 H 96.0984 0.93846 -2.84312 0
M  V30 959 H 93.6444 0.449996 -1.36788 0
M  V30 960 H 95.5974 3.35731 -2.54682 0
M  V30 961 H 94.3214 2.96599 -1.36736 0
M  V30 962 H 92.9804 1.8337 -3.17444 0
M  V30 963 H 92.6284 4.25908 -2.67602 0
M  V30 964 H 92.3284 3.90019 -4.39498 0
M  V30 965 H 93.8524 4.69374 -3.90539 0
M  V30 966 H 95.2664 2.7275 -5.04262 0
M  V30 967 H 93.6634 2.16346 -5.59745 0
M  V30 968 H 94.7334 1.04315 -4.73547 0
M  V30 969 N 96.0765 1.50051 0.48192 0
M  V30 970 C 97.0085 1.64263 1.59844 0
M  V30 971 C 98.0215 0.52451 1.54119 0
M  V30 972 O 99.2105 0.797293 1.59704 0
M  V30 973 C 96.3105 1.60102 2.98698 0
M  V30 974 C 95.4835 2.87767 3.29407 0
M  V30 975 C 94.5425 2.76397 4.47762 0
M  V30 976 O 93.5685 3.50348 4.48603 0
M  V30 977 N 94.7705 1.89222 5.48794 0
M  V30 978 H 97.5355 2.60566 1.48073 0
M  V30 979 H 95.0965 1.47379 0.670149 0
M  V30 980 H 97.0885 1.50123 3.75826 0
M  V30 981 H 95.6585 0.715798 3.04294 0
M  V30 982 H 94.8785 3.11954 2.40994 0
M  V30 983 H 96.1665 3.72365 3.4673 0
M  V30 984 H 95.5645 1.28434 5.50928 0
M  V30 985 H 94.1215 1.85154 6.24949 0
M  V30 986 N 97.5546 -0.734337 1.39446 0
M  V30 987 C 98.8016 -1.49391 1.36706 0
M  V30 988 C 99.1296 -1.94465 -0.0367813 0
M  V30 989 O 98.3846 -1.67154 -1.01774 0
M  V30 990 C 98.6836 -2.74711 2.28623 0
M  V30 991 C 98.3496 -2.48501 3.76242 0
M  V30 992 C 97.0116 -2.41062 4.16464 0
M  V30 993 C 99.3636 -2.26098 4.69606 0
M  V30 994 C 96.6916 -2.09262 5.48112 0
M  V30 995 C 99.0436 -1.95814 6.01531 0
M  V30 996 C 97.7076 -1.86845 6.40816 0
M  V30 997 H 96.9776 -0.546661 0.500243 0
M  V30 998 H 99.6246 -0.842788 1.71957 0
M  V30 999 H 97.9296 -3.44569 1.86492 0
M  V30 1000 H 99.6266 -3.32741 2.23796 0
M  V30 1001 H 96.2166 -2.55169 3.44364 0
M  V30 1002 H 100.401 -2.30812 4.39363 0
M  V30 1003 H 95.6566 -2.00841 5.77471 0
M  V30 1004 H 99.8306 -1.77488 6.73403 0
M  V30 1005 H 97.4576 -1.6197 7.42745 0
M  V30 1006 N 99.0327 -1.24633 -0.964593 0
M  V30 1007 C 100.261 -1.11501 -1.74285 0
M  V30 1008 C 100.676 0.332165 -1.85855 0
M  V30 1009 O 100.033 1.22903 -1.34911 0
M  V30 1010 C 100.084 -1.75258 -3.16175 0
M  V30 1011 O 99.8047 -3.14318 -3.05182 0
M  V30 1012 C 101.306 -1.67776 -4.10324 0
M  V30 1013 H 98.5257 -0.389407 -0.546446 0
M  V30 1014 H 101.07 -1.64801 -1.21083 0
M  V30 1015 H 99.2247 -1.25954 -3.66353 0
M  V30 1016 H 99.6387 -3.4551 -3.94618 0
M  V30 1017 H 101.113 -2.17064 -5.0753 0
M  V30 1018 H 101.59 -0.639584 -4.34518 0
M  V30 1019 H 102.196 -2.16522 -3.66058 0
M  V30 1020 N 100.511 1.16574 -1.06058 0
M  V30 1021 C 101.788 1.83048 -0.689416 0
M  V30 1022 C 102.168 1.94122 0.829443 0
M  V30 1023 O 101.516 1.48249 1.7388 0
M  V30 1024 C 101.726 3.20186 -1.38859 0
M  V30 1025 C 103.074 3.95989 -1.53226 0
M  V30 1026 O 104.098 3.29696 -1.3483 0
M  V30 1027 O 102.957 5.14813 -1.83384 0
M  V30 1028 H 100.051 0.790258 -0.243764 0
M  V30 1029 H 102.597 1.23797 -1.16071 0
M  V30 1030 H 101.369 3.07146 -2.4244 0
M  V30 1031 H 100.992 3.87112 -0.907216 0
M  V30 1032 N 101.989 0.842826 1.3317 0
M  V30 1033 C 102.919 0.294028 2.31641 0
M  V30 1034 C 103.9 -0.600401 1.59151 0
M  V30 1035 O 105.085 -0.523124 1.87022 0
M  V30 1036 C 102.215 -0.528416 3.43257 0
M  V30 1037 C 101.169 0.27056 4.27144 0
M  V30 1038 C 100.495 -0.675881 5.30411 0
M  V30 1039 C 101.795 1.48981 5.00602 0
M  V30 1040 H 103.489 1.11681 2.77791 0
M  V30 1041 H 101.035 0.538478 1.33553 0
M  V30 1042 H 102.988 -0.922674 4.11175 0
M  V30 1043 H 101.712 -1.38445 2.95805 0
M  V30 1044 H 100.371 0.646427 3.60856 0
M  V30 1045 H 100.019 -1.52842 4.79216 0
M  V30 1046 H 99.7189 -0.145374 5.8742 0
M  V30 1047 H 101.243 -1.06757 6.01195 0
M  V30 1048 H 102.657 1.16849 5.61266 0
M  V30 1049 H 101.054 1.95739 5.6728 0
M  V30 1050 H 102.124 2.25746 4.29147 0
M  V30 1051 N 103.467 -1.45747 0.599634 0
M  V30 1052 C 104.714 -2.02292 0.0917284 0
M  V30 1053 C 105.042 -1.46906 -1.27472 0
M  V30 1054 O 104.297 -0.630652 -1.8526 0
M  V30 1055 C 104.596 -3.57399 -0.00602758 0
M  V30 1056 C 104.262 -4.31902 1.29503 0
M  V30 1057 C 102.924 -4.51974 1.65144 0
M  V30 1058 C 105.276 -4.74551 2.15525 0
M  V30 1059 C 102.604 -5.11949 2.86574 0
M  V30 1060 C 104.956 -5.35868 3.36196 0
M  V30 1061 C 103.62 -5.54165 3.72099 0
M  V30 1062 H 102.89 -0.740239 0.0335658 0
M  V30 1063 H 105.537 -1.7491 0.779661 0
M  V30 1064 H 103.842 -3.84014 -0.777183 0
M  V30 1065 H 105.539 -3.98846 -0.415038 0
M  V30 1066 H 102.129 -4.16588 1.00761 0
M  V30 1067 H 106.313 -4.58784 1.8929 0
M  V30 1068 H 101.569 -5.24305 3.14507 0
M  V30 1069 H 105.743 -5.6787 4.03109 0
M  V30 1070 H 103.37 -6.00406 4.6628 0
M  V30 1071 N 104.945 -0.338344 -1.53925 0
M  V30 1072 C 105.877 0.555117 -2.22376 0
M  V30 1073 C 106.89 1.06812 -1.22862 0
M  V30 1074 O 108.079 0.979163 -1.49247 0
M  V30 1075 C 105.179 1.77609 -2.88631 0
M  V30 1076 C 104.352 1.39927 -4.14414 0
M  V30 1077 C 103.411 2.47936 -4.64127 0
M  V30 1078 O 102.437 2.11461 -5.28463 0
M  V30 1079 N 103.639 3.79107 -4.39612 0
M  V30 1080 H 106.404 -0.0310778 -2.99684 0
M  V30 1081 H 103.965 -0.162226 -1.61085 0
M  V30 1082 H 105.957 2.49287 -3.18807 0
M  V30 1083 H 104.527 2.26978 -2.14941 0
M  V30 1084 H 103.747 0.513481 -3.90841 0
M  V30 1085 H 105.035 1.12341 -4.96243 0
M  V30 1086 H 104.433 4.11531 -3.88148 0
M  V30 1087 H 102.99 4.4697 -4.74406 0
M  V30 1088 N 106.423 1.57458 -0.0668435 0
M  V30 1089 C 107.839 1.56947 0.289772 0
M  V30 1090 C 108.039 1.07584 1.70376 0
M  V30 1091 O 107.095 0.739486 2.41429 0
M  V30 1092 C 108.408 3.0052 0.103943 0
M  V30 1093 C 109.956 3.12517 0.173857 0
M  V30 1094 C 110.431 4.57997 0.0163682 0
M  V30 1095 N 111.922 4.63144 0.0721352 0
M  V30 1096 C 112.657 5.73394 -0.0253794 0
M  V30 1097 N 112.153 6.92576 -0.176133 0
M  V30 1098 N 113.946 5.62091 0.0313305 0
M  V30 1099 H 106.097 1.87863 -0.991027 0
M  V30 1100 H 108.36 0.86583 -0.38606 0
M  V30 1101 H 108.066 3.40729 -0.871572 0
M  V30 1102 H 107.94 3.67304 0.858366 0
M  V30 1103 H 110.327 2.72197 1.13985 0
M  V30 1104 H 110.408 2.48381 -0.611586 0
M  V30 1105 H 110.052 4.99005 -0.946374 0
M  V30 1106 H 109.982 5.20158 0.821153 0
M  V30 1107 H 112.473 3.77436 0.187263 0
M  V30 1108 H 112.786 7.72418 -0.242821 0
M  V30 1109 H 111.131 6.94678 -0.211429 0
M  V30 1110 H 114.322 4.67867 0.147773 0
M  V30 1111 H 114.495 6.47982 -0.048121 0
M  V30 1112 N 107.901 -0.206675 1.56239 0
M  V30 1113 C 109.131 -0.943975 1.83773 0
M  V30 1114 C 109.539 -1.77841 0.645703 0
M  V30 1115 O 108.882 -1.79403 -0.395008 0
M  V30 1116 C 108.944 -1.899 3.05251 0
M  V30 1117 C 108.608 -1.24764 4.39639 0
M  V30 1118 C 109.605 -0.630216 5.16066 0
M  V30 1119 C 107.29 -1.25496 4.8637 0
M  V30 1120 C 109.284 -0.0287946 6.37393 0
M  V30 1121 C 106.971 -0.649698 6.07637 0
M  V30 1122 C 107.969 -0.0376845 6.8299 0
M  V30 1123 O 107.657 0.55812 8.0196 0
M  V30 1124 H 107.389 -0.281508 0.614597 0
M  V30 1125 H 109.943 -0.222458 2.04192 0
M  V30 1126 H 108.173 -2.6599 2.80689 0
M  V30 1127 H 109.862 -2.5031 3.1953 0
M  V30 1128 H 110.628 -0.616785 4.81062 0
M  V30 1129 H 106.507 -1.72072 4.27683 0
M  V30 1130 H 110.051 0.449518 6.9615 0
M  V30 1131 H 105.948 -0.660592 6.42111 0
M  V30 1132 H 106.716 0.453891 8.17241 0
M  V30 1133 N 109.379 -1.50304 -0.473955 0
M  V30 1134 C 110.626 -1.6115 -1.22625 0
M  V30 1135 C 110.954 -0.310517 -1.92005 0
M  V30 1136 O 110.209 0.703419 -1.82621 0
M  V30 1137 C 110.508 -2.73938 -2.29549 0
M  V30 1138 C 110.174 -4.14519 -1.7744 0
M  V30 1139 C 108.836 -4.5277 -1.62949 0
M  V30 1140 C 111.188 -5.02392 -1.3875 0
M  V30 1141 C 108.516 -5.76639 -1.08187 0
M  V30 1142 C 110.868 -6.26805 -0.854309 0
M  V30 1143 C 109.532 -6.63861 -0.696011 0
M  V30 1144 H 108.802 -0.589691 -0.448715 0
M  V30 1145 H 111.449 -1.84228 -0.522705 0
M  V30 1146 H 109.754 -2.44937 -3.05799 0
M  V30 1147 H 111.451 -2.79534 -2.87509 0
M  V30 1148 H 108.041 -3.8434 -1.89685 0
M  V30 1149 H 112.225 -4.73474 -1.4878 0
M  V30 1150 H 107.481 -6.04027 -0.946666 0
M  V30 1151 H 111.655 -6.94258 -0.545843 0
M  V30 1152 H 109.282 -7.59722 -0.26952 0
M  V30 1153 N 110.857 0.726932 -1.39834 0
M  V30 1154 C 112.097 1.4992 -1.38936 0
M  V30 1155 C 112.461 1.91996 0.0126883 0
M  V30 1156 O 113.662 2.68399 0.146715 0
M  V30 1157 C 111.933 2.70013 -2.34153 0
M  V30 1158 S 113.492 3.59563 -2.51515 0
M  V30 1159 H 110.31 0.51271 -0.492595 0
M  V30 1160 H 112.912 0.85107 -1.76003 0
M  V30 1161 H 111.616 2.37254 -3.34871 0
M  V30 1162 H 111.147 3.39748 -1.98331 0
M  V30 1163 H 113.162 4.63973 -1.75909 0
M  V30 1164 N 112.336 1.25143 0.95797 0
M  V30 1165 C 113.752 1.01892 1.22842 0
M  V30 1166 C 113.952 -0.266311 1.99732 0
M  V30 1167 O 113.008 -0.979913 2.3271 0
M  V30 1168 C 114.321 2.24004 2.00606 0
M  V30 1169 C 115.869 2.28731 2.13662 0
M  V30 1170 C 116.344 3.5049 2.94823 0
M  V30 1171 N 117.835 3.50866 3.02403 0
M  V30 1172 C 118.57 4.4174 3.65586 0
M  V30 1173 N 118.066 5.42882 4.30408 0
M  V30 1174 N 119.859 4.29429 3.62694 0
M  V30 1175 H 112.01 2.07718 0.443493 0
M  V30 1176 H 114.273 0.912031 0.258657 0
M  V30 1177 H 113.979 3.17395 1.51503 0
M  V30 1178 H 113.853 2.26907 3.01319 0
M  V30 1179 H 116.24 1.35865 2.61963 0
M  V30 1180 H 116.321 2.29848 1.12265 0
M  V30 1181 H 115.965 4.43676 2.47213 0
M  V30 1182 H 115.895 3.46617 3.96439 0
M  V30 1183 H 118.386 2.777 2.56302 0
M  V30 1184 H 118.699 6.0844 4.76467 0
M  V30 1185 H 117.044 5.46758 4.29047 0
M  V30 1186 H 120.235 3.49643 3.11236 0
M  V30 1187 H 120.408 5.00448 4.1165 0
M  V30 1188 N 113.814 -1.1601 1.06675 0
M  V30 1189 C 114.724 -2.24156 0.692179 0
M  V30 1190 C 115.74 -1.71507 -0.293513 0
M  V30 1191 O 116.916 -2.009 -0.141861 0
M  V30 1192 C 113.981 -3.46587 0.0884131 0
M  V30 1193 C 113.042 -4.14257 1.12646 0
M  V30 1194 C 112.275 -5.30844 0.551416 0
M  V30 1195 O 112.498 -5.66858 -0.634656 0
M  V30 1196 O 111.432 -5.87848 1.29298 0
M  V30 1197 H 115.258 -2.58513 1.59388 0
M  V30 1198 H 112.843 -1.23599 0.83926 0
M  V30 1199 H 114.725 -4.20679 -0.246361 0
M  V30 1200 H 113.4 -3.13994 -0.786712 0
M  V30 1201 H 112.307 -3.42118 1.51348 0
M  V30 1202 H 113.64 -4.50914 1.97325 0
M  V30 1203 N 115.292 -0.849877 -1.32721 0
M  V30 1204 C 116.538 -0.451591 -1.97708 0
M  V30 1205 C 116.871 0.989175 -1.6712 0
M  V30 1206 O 116.146 1.69334 -0.956891 0
M  V30 1207 C 116.429 -0.685598 -3.53513 0
M  V30 1208 C 116.282 -2.17444 -3.93749 0
M  V30 1209 C 117.601 -0.138874 -4.39881 0
M  V30 1210 H 114.72 -0.16555 -0.718166 0
M  V30 1211 H 117.362 -1.06742 -1.57182 0
M  V30 1212 H 115.512 -0.161416 -3.88165 0
M  V30 1213 H 117.184 -2.76433 -3.693 0
M  V30 1214 H 115.427 -2.65476 -3.43081 0
M  V30 1215 H 116.098 -2.28888 -5.02309 0
M  V30 1216 H 118.574 -0.587068 -4.11938 0
M  V30 1217 H 117.45 -0.332213 -5.47894 0
M  V30 1218 H 117.711 0.95806 -4.31594 0
M  V30 1219 N 116.77 1.45427 -0.607355 0
M  V30 1220 C 118.186 1.57283 -0.270985 0
M  V30 1221 C 118.386 1.59875 1.22647 0
M  V30 1222 O 117.442 1.52893 2.00948 0
M  V30 1223 C 118.755 2.85566 -0.941952 0
M  V30 1224 C 120.303 2.9924 -0.917849 0
M  V30 1225 C 120.778 4.30293 -1.56882 0
M  V30 1226 N 122.269 4.37051 -1.5343 0
M  V30 1227 C 123.004 5.37123 -2.00715 0
M  V30 1228 N 122.5 6.43734 -2.56084 0
M  V30 1229 N 124.293 5.28479 -1.91484 0
M  V30 1230 H 116.444 1.41988 -1.57966 0
M  V30 1231 H 118.707 0.67885 -0.661715 0
M  V30 1232 H 118.413 2.8955 -1.99633 0
M  V30 1233 H 118.287 3.74322 -0.465096 0
M  V30 1234 H 120.674 2.94822 0.127984 0
M  V30 1235 H 120.755 2.11895 -1.43297 0
M  V30 1236 H 120.399 4.35469 -2.61398 0
M  V30 1237 H 120.329 5.16454 -1.02873 0
M  V30 1238 H 122.82 3.60615 -1.12982 0
M  V30 1239 H 123.133 7.16341 -2.89958 0
M  V30 1240 H 121.478 6.44485 -2.60122 0
M  V30 1241 H 124.669 4.44098 -1.47967 0
M  V30 1242 H 124.842 6.0632 -2.28648 0
M  V30 1243 N 118.248 0.346503 1.53744 0
M  V30 1244 C 119.525 -0.304532 1.93215 0
M  V30 1245 C 119.905 -1.67993 1.27834 0
M  V30 1246 O 119.253 -2.24411 0.430352 0
M  V30 1247 C 119.463 -0.373852 3.46992 0
M  V30 1248 C 120.811 -0.62329 4.2 0
M  V30 1249 O 121.835 -0.455847 3.53271 0
M  V30 1250 O 120.694 -0.947879 5.38217 0
M  V30 1251 H 117.788 -0.178318 0.807547 0
M  V30 1252 H 120.334 0.397895 1.64969 0
M  V30 1253 H 119.106 0.591224 3.86808 0
M  V30 1254 H 118.729 -1.12294 3.81413 0
M  V30 1255 N 119.726 -1.57421 0.075193 0
M  V30 1256 C 120.974 -1.93236 -0.591974 0
M  V30 1257 C 121.295 -0.956241 -1.69944 0
M  V30 1258 O 120.565 -0.00494792 -1.95899 0
M  V30 1259 H 119.145 -0.713355 -0.22166 0
M  V30 1260 H 121.807 -1.9444 0.133848 0
M  V30 1261 H 120.903 -2.95131 -1.01509 0
M  V30 1262 N 121.204 0.198386 -1.56346 0
M  V30 1263 C 122.62 0.549085 -1.49857 0
M  V30 1264 C 122.82 1.86016 -0.774611 0
M  V30 1265 O 121.876 2.50416 -0.323776 0
M  V30 1266 C 123.189 0.606868 -2.94512 0
M  V30 1267 C 124.737 0.695925 -3.05165 0
M  V30 1268 C 125.212 0.784848 -4.51225 0
M  V30 1269 N 126.703 0.848463 -4.55363 0
M  V30 1270 C 127.438 0.937378 -5.65686 0
M  V30 1271 N 126.934 0.9888 -6.85707 0
M  V30 1272 N 128.727 0.974312 -5.53592 0
M  V30 1273 H 120.878 -0.661655 -2.01831 0
M  V30 1274 H 123.141 -0.235261 -0.918344 0
M  V30 1275 H 122.847 -0.28732 -3.50524 0
M  V30 1276 H 122.721 1.46268 -3.47686 0
M  V30 1277 H 125.108 1.58055 -2.49204 0
M  V30 1278 H 125.189 -0.186022 -2.55123 0
M  V30 1279 H 124.833 -0.0954072 -5.0781 0
M  V30 1280 H 124.763 1.68255 -4.98997 0
M  V30 1281 H 127.254 0.818103 -3.68938 0
M  V30 1282 H 127.567 1.05707 -7.65536 0
M  V30 1283 H 125.912 0.957534 -6.88372 0
M  V30 1284 H 129.103 0.930954 -4.58749 0
M  V30 1285 H 129.276 1.04015 -6.39597 0
M  V30 1286 N 122.682 1.50554 0.465978 0
M  V30 1287 C 123.645 1.69233 1.54574 0
M  V30 1288 C 124.645 0.562901 1.50626 0
M  V30 1289 O 125.835 0.830016 1.53155 0
M  V30 1290 C 122.967 1.7223 2.94193 0
M  V30 1291 H 124.16 2.65571 1.39327 0
M  V30 1292 H 121.713 1.40111 0.692711 0
M  V30 1293 H 122.448 0.77603 3.14878 0
M  V30 1294 H 122.233 2.54285 2.98466 0
M  V30 1295 H 123.723 1.88618 3.72576 0
M  V30 1296 N 124.16 -0.719506 1.40217 0
M  V30 1297 C 125.571 -1.29848 1.34151 0
M  V30 1298 C 125.922 -1.96196 0.0131349 0
M  V30 1299 O 125.047 -1.973 -0.88892 0
M  V30 1300 C 125.642 -2.36118 2.42968 0
M  V30 1301 C 124.201 -2.8965 2.40374 0
M  V30 1302 C 123.348 -1.63393 2.24049 0
M  V30 1303 H 126.299 -0.51591 1.5008 0
M  V30 1304 H 126.32 -3.16871 2.10649 0
M  V30 1305 H 125.832 -1.878 3.39636 0
M  V30 1306 H 123.933 -3.42208 1.47392 0
M  V30 1307 H 124.046 -3.4171 3.35814 0
M  V30 1308 H 122.41 -1.88312 1.71495 0
M  V30 1309 H 123.193 -1.17104 3.2271 0
M  V30 1310 N 125.638 -1.25649 -0.95132 0
M  V30 1311 C 126.886 -1.10375 -1.69298 0
M  V30 1312 C 127.207 0.355339 -1.91735 0
M  V30 1313 O 126.477 1.25188 -1.50681 0
M  V30 1314 H 125.057 -0.405461 -0.627384 0
M  V30 1315 H 127.719 -1.57823 -1.14358 0
M  V30 1316 H 126.815 -1.61465 -2.67087 0
M  V30 1317 N 127.117 1.15442 -1.07289 0
M  V30 1318 C 128.533 1.38201 -0.798288 0
M  V30 1319 C 128.733 1.92429 0.597769 0
M  V30 1320 O 127.789 2.12962 1.3566 0
M  V30 1321 C 129.102 2.35357 -1.87156 0
M  V30 1322 C 130.65 2.49021 -1.89624 0
M  V30 1323 C 131.125 3.49468 -2.96034 0
M  V30 1324 N 132.616 3.57003 -2.95132 0
M  V30 1325 C 133.351 4.34543 -3.74112 0
M  V30 1326 N 132.847 5.15421 -4.6294 0
M  V30 1327 N 134.64 4.29625 -3.62462 0
M  V30 1328 H 126.791 0.78584 -1.97328 0
M  V30 1329 H 129.054 0.408065 -0.855679 0
M  V30 1330 H 128.76 2.02626 -2.87464 0
M  V30 1331 H 128.634 3.35129 -1.73114 0
M  V30 1332 H 131.021 2.81051 -0.899687 0
M  V30 1333 H 131.102 1.4925 -2.07745 0
M  V30 1334 H 130.746 3.18173 -3.95889 0
M  V30 1335 H 130.676 4.48992 -2.75161 0
M  V30 1336 H 133.167 2.99276 -2.30743 0
M  V30 1337 H 133.48 5.7183 -5.19837 0
M  V30 1338 H 131.825 5.14729 -4.66989 0
M  V30 1339 H 135.016 3.65505 -2.92444 0
M  V30 1340 H 135.189 4.89807 -4.24256 0
M  V30 1341 N 128.595 0.856903 1.32268 0
M  V30 1342 C 129.872 0.382583 1.91822 0
M  V30 1343 C 130.252 -1.13407 1.78051 0
M  V30 1344 O 129.6 -1.95673 1.18001 0
M  V30 1345 C 129.81 0.849446 3.38505 0
M  V30 1346 C 131.158 0.867936 4.15634 0
M  V30 1347 O 132.182 0.794232 3.47232 0
M  V30 1348 O 131.041 0.972286 5.37781 0
M  V30 1349 H 128.135 0.112014 0.819379 0
M  V30 1350 H 130.681 0.943952 1.41024 0
M  V30 1351 H 129.453 1.89267 3.42482 0
M  V30 1352 H 129.076 0.265652 3.96712 0
M  V30 1353 N 130.073 -1.45103 0.615059 0
M  V30 1354 C 131.303 -2.06254 0.119596 0
M  V30 1355 C 131.711 -1.4591 -1.20445 0
M  V30 1356 O 131.054 -0.570384 -1.7462 0
M  V30 1357 C 131.116 -3.59396 -0.0865591 0
M  V30 1358 C 130.78 -4.42116 1.15683 0
M  V30 1359 C 131.777 -4.7662 2.07676 0
M  V30 1360 C 129.462 -4.82749 1.38775 0
M  V30 1361 C 131.456 -5.50622 3.21082 0
M  V30 1362 C 129.143 -5.56504 2.52481 0
M  V30 1363 C 130.141 -5.90358 3.43463 0
M  V30 1364 O 129.829 -6.62615 4.55189 0
M  V30 1365 H 129.561 -0.672423 0.0694512 0
M  V30 1366 H 132.115 -1.87219 0.844885 0
M  V30 1367 H 130.345 -3.76859 -0.866823 0
M  V30 1368 H 132.034 -4.02365 -0.534555 0
M  V30 1369 H 132.8 -4.4578 1.91063 0
M  V30 1370 H 128.679 -4.55829 0.688545 0
M  V30 1371 H 132.223 -5.76965 3.92119 0
M  V30 1372 H 128.12 -5.86759 2.69043 0
M  V30 1373 H 128.888 -6.81071 4.53966 0
M  V30 1374 N 131.551 -0.354651 -1.53558 0
M  V30 1375 C 132.967 -0.00315426 -1.596 0
M  V30 1376 C 133.167 1.47741 -1.37021 0
M  V30 1377 O 132.223 2.23759 -1.16996 0
M  V30 1378 C 133.536 -0.44929 -2.97325 0
M  V30 1379 C 135.084 -0.402578 -3.104 0
M  V30 1380 C 135.559 -0.824355 -4.5052 0
M  V30 1381 N 137.05 -0.778979 -4.56603 0
M  V30 1382 C 137.785 -1.07715 -5.63192 0
M  V30 1383 N 137.281 -1.44405 -6.77583 0
M  V30 1384 N 139.074 -1.00066 -5.53121 0
M  V30 1385 H 131.225 -1.31893 -1.66487 0
M  V30 1386 H 133.488 -0.538388 -0.780284 0
M  V30 1387 H 133.194 -1.48202 -3.1895 0
M  V30 1388 H 133.068 0.169772 -3.76818 0
M  V30 1389 H 135.455 0.621004 -2.88492 0
M  V30 1390 H 135.536 -1.05699 -2.32941 0
M  V30 1391 H 135.18 -1.846 -4.73165 0
M  V30 1392 H 135.11 -0.147304 -5.26394 0
M  V30 1393 H 137.601 -0.508528 -3.74463 0
M  V30 1394 H 137.914 -1.65612 -7.54846 0
M  V30 1395 H 136.259 -1.4826 -6.79002 0
M  V30 1396 H 139.45 -0.713293 -4.62633 0
M  V30 1397 H 139.623 -1.23638 -6.36096 0
M  V30 1398 N 133.029 1.57378 -0.0835403 0
M  V30 1399 C 134.306 1.85363 0.624507 0
M  V30 1400 C 134.686 0.978239 1.87066 0
M  V30 1401 O 134.034 0.0475908 2.2845 0
M  V30 1402 C 134.244 3.35795 0.950947 0
M  V30 1403 C 135.592 4.03581 1.31939 0
M  V30 1404 O 136.616 3.40609 1.04232 0
M  V30 1405 O 135.475 5.14672 1.83779 0
M  V30 1406 H 132.569 0.766162 0.311329 0
M  V30 1407 H 135.115 1.69307 -0.115362 0
M  V30 1408 H 133.887 3.91244 0.0663899 0
M  V30 1409 H 133.51 3.57154 1.74719 0
M  V30 1410 N 134.507 -0.190092 1.56449 0
M  V30 1411 C 135.735 -0.925772 1.85033 0
M  V30 1412 C 136.15 -1.76638 0.666658 0
M  V30 1413 O 135.507 -1.78822 -0.364565 0
M  V30 1414 C 135.558 -1.81786 3.12468 0
M  V30 1415 O 135.279 -1.01118 4.26271 0
M  V30 1416 C 136.78 -2.6648 3.54265 0
M  V30 1417 H 134 -0.269872 0.614337 0
M  V30 1418 H 136.544 -0.195837 2.0356 0
M  V30 1419 H 134.699 -2.50136 2.95822 0
M  V30 1420 H 135.113 -1.61956 4.98869 0
M  V30 1421 H 136.587 -3.24722 4.46385 0
M  V30 1422 H 137.064 -3.40434 2.77491 0
M  V30 1423 H 137.67 -2.03493 3.73458 0
M  V30 1424 N 135.985 -1.50799 -0.457987 0
M  V30 1425 C 137.233 -1.62121 -1.2067 0
M  V30 1426 C 137.554 -0.329793 -1.92191 0
M  V30 1427 O 136.824 0.653409 -1.84682 0
M  V30 1428 H 135.404 -0.597441 -0.448411 0
M  V30 1429 H 138.066 -1.87637 -0.527096 0
M  V30 1430 H 137.162 -2.43882 -1.94751 0
M  V30 1431 N 137.463 0.71206 -1.40597 0
M  V30 1432 C 138.879 1.02058 -1.22704 0
M  V30 1433 C 139.079 2.01228 -0.104729 0
M  V30 1434 O 138.135 2.4674 0.53624 0
M  V30 1435 C 139.448 1.56094 -2.57012 0
M  V30 1436 C 140.996 1.6806 -2.64054 0
M  V30 1437 C 141.471 2.25501 -3.9864 0
M  V30 1438 N 142.962 2.32882 -4.004 0
M  V30 1439 C 143.697 2.78317 -5.01325 0
M  V30 1440 N 143.193 3.23478 -6.12645 0
M  V30 1441 N 144.986 2.77733 -4.88693 0
M  V30 1442 H 137.137 0.0547896 -2.12329 0
M  V30 1443 H 139.4 0.0869027 -0.944008 0
M  V30 1444 H 139.106 0.906865 -3.39807 0
M  V30 1445 H 138.98 2.54564 -2.78347 0
M  V30 1446 H 141.367 2.32583 -1.81629 0
M  V30 1447 H 141.448 0.681802 -2.46546 0
M  V30 1448 H 141.092 1.61598 -4.81506 0
M  V30 1449 H 141.022 3.26102 -4.13479 0
M  V30 1450 H 143.513 2.00991 -3.20017 0
M  V30 1451 H 143.826 3.56725 -6.85542 0
M  V30 1452 H 142.171 3.21429 -6.16205 0
M  V30 1453 H 145.362 2.4179 -4.00818 0
M  V30 1454 H 145.535 3.12826 -5.67489 0
M  V30 1455 N 138.941 1.26152 0.944643 0
M  V30 1456 C 140.189 1.11271 1.6871 0
M  V30 1457 C 140.51 -0.345166 1.91921 0
M  V30 1458 O 139.78 -1.24387 1.51343 0
M  V30 1459 H 138.36 0.408783 0.625224 0
M  V30 1460 H 141.022 1.58427 1.1352 0
M  V30 1461 H 140.118 1.62879 2.66227 0
M  V30 1462 N 140.419 -1.14872 1.07899 0
M  V30 1463 C 141.83 -1.67367 0.827363 0
M  V30 1464 C 142.181 -1.85236 -0.646693 0
M  V30 1465 O 141.306 -1.55974 -1.50004 0
M  V30 1466 C 141.901 -3.04016 1.49532 0
M  V30 1467 C 140.46 -3.53566 1.29106 0
M  V30 1468 C 139.607 -2.29161 1.56143 0
M  V30 1469 H 142.558 -0.990083 1.24028 0
M  V30 1470 H 142.579 -3.69219 0.919643 0
M  V30 1471 H 142.091 -2.90978 2.56814 0
M  V30 1472 H 140.192 -3.71835 0.238713 0
M  V30 1473 H 140.305 -4.34661 2.01511 0
M  V30 1474 H 138.669 -2.34978 0.982717 0
M  V30 1475 H 139.452 -2.18705 2.64619 0
M  V30 1476 N 141.898 -0.863906 -1.31812 0
M  V30 1477 C 143.309 -0.52522 -1.7916 0
M  V30 1478 C 143.66 0.957518 -1.71248 0
M  V30 1479 O 142.785 1.74734 -1.27659 0
M  V30 1480 C 143.38 -0.9466 -3.25307 0
M  V30 1481 C 141.939 -0.659668 -3.70574 0
M  V30 1482 C 141.086 -1.14126 -2.52726 0
M  V30 1483 H 144.037 -1.05022 -1.1898 0
M  V30 1484 H 144.058 -0.266766 -3.79564 0
M  V30 1485 H 143.57 -2.02579 -3.31034 0
M  V30 1486 H 141.671 0.408416 -3.70355 0
M  V30 1487 H 141.784 -1.23245 -4.62977 0
M  V30 1488 H 140.148 -0.561216 -2.4844 0
M  V30 1489 H 140.931 -2.22775 -2.61201 0
M  V30 1490 N 143.376 1.44774 -0.622745 0
M  V30 1491 C 144.339 2.29069 0.0774015 0
M  V30 1492 C 145.339 1.4059 0.780461 0
M  V30 1493 O 146.529 1.62551 0.626322 0
M  V30 1494 C 143.661 3.21974 1.12006 0
M  V30 1495 H 144.854 2.92459 -0.663901 0
M  V30 1496 H 142.407 1.51548 -0.382486 0
M  V30 1497 H 143.142 2.63417 1.89162 0
M  V30 1498 H 142.927 3.87168 0.619951 0
M  V30 1499 H 144.417 3.85318 1.60995 0
M  V30 1500 N 144.854 0.36279 1.53368 0
M  V30 1501 C 145.801 -0.485008 2.25646 0
M  V30 1502 C 146.771 -1.07982 1.2621 0
M  V30 1503 O 147.956 -1.11284 1.54986 0
M  V30 1504 C 145.096 -1.62023 3.04701 0
M  V30 1505 C 144.209 -1.05086 4.19024 0
M  V30 1506 C 143.344 -2.15496 4.85525 0
M  V30 1507 C 142.383 -1.5601 5.91884 0
M  V30 1508 N 141.52 -2.60241 6.52088 0
M  V30 1509 H 146.36 0.137864 2.97681 0
M  V30 1510 H 143.897 0.0798061 1.46883 0
M  V30 1511 H 145.855 -2.28887 3.48807 0
M  V30 1512 H 144.485 -2.2138 2.34927 0
M  V30 1513 H 143.537 -0.27259 3.79422 0
M  V30 1514 H 144.849 -0.575926 4.95464 0
M  V30 1515 H 144.003 -2.90186 5.32801 0
M  V30 1516 H 142.742 -2.66341 4.08551 0
M  V30 1517 H 141.747 -0.798338 5.43973 0
M  V30 1518 H 142.972 -1.05994 6.70777 0
M  V30 1519 H 140.918 -3.10304 5.77968 0
M  V30 1520 H 140.835 -2.17426 7.24059 0
M  V30 1521 H 142.103 -3.34641 7.04014 0
M  V30 1522 N 146.332 -1.57332 0.0918853 0
M  V30 1523 C 147.295 -2.12708 -0.85369 0
M  V30 1524 C 148.295 -1.05561 -1.213 0
M  V30 1525 O 149.485 -1.31461 -1.14296 0
M  V30 1526 C 146.617 -2.64503 -2.15061 0
M  V30 1527 H 147.81 -2.97573 -0.3729 0
M  V30 1528 H 145.363 -1.55509 -0.157072 0
M  V30 1529 H 146.098 -1.83149 -2.67632 0
M  V30 1530 H 145.883 -3.4284 -1.90272 0
M  V30 1531 H 147.373 -3.07351 -2.82711 0
M  V30 1532 N 147.81 0.181792 -1.56548 0
M  V30 1533 C 148.72 1.24538 -1.98815 0
M  V30 1534 C 149.736 1.49045 -0.897861 0
M  V30 1535 O 150.912 1.61399 -1.20467 0
M  V30 1536 C 147.977 2.56683 -2.33055 0
M  V30 1537 C 147.038 2.40131 -3.55859 0
M  V30 1538 C 146.271 3.65975 -3.88456 0
M  V30 1539 O 146.494 4.70711 -3.22161 0
M  V30 1540 O 145.428 3.6071 -4.81842 0
M  V30 1541 H 149.254 0.916647 -2.89536 0
M  V30 1542 H 146.839 0.387842 -1.44278 0
M  V30 1543 H 148.721 3.34655 -2.56094 0
M  V30 1544 H 147.396 2.89157 -1.45498 0
M  V30 1545 H 146.303 1.60226 -3.38051 0
M  V30 1546 H 147.636 2.12585 -4.43924 0
M  V30 1547 N 149.288 1.51039 0.449983 0
M  V30 1548 C 150.251 1.70863 1.5277 0
M  V30 1549 C 151.251 0.578846 1.5002 0
M  V30 1550 O 152.441 0.846213 1.52266 0
M  V30 1551 C 149.573 1.75341 2.9235 0
M  V30 1552 H 150.766 2.67034 1.36502 0
M  V30 1553 H 148.319 1.40838 0.677812 0
M  V30 1554 H 149.054 0.809383 3.14037 0
M  V30 1555 H 148.839 2.57436 2.95752 0
M  V30 1556 H 150.329 1.92559 3.70555 0
M  V30 1557 N 150.766 -0.704594 1.40972 0
M  V30 1558 C 151.991 -1.49858 1.43378 0
M  V30 1559 C 152.416 -1.88061 0.038184 0
M  V30 1560 O 151.774 -1.5402 -0.956425 0
M  V30 1561 C 151.822 -2.74333 2.34038 0
M  V30 1562 O 150.926 -3.7147 1.7912 0
M  V30 1563 H 150.267 -0.45139 0.486974 0
M  V30 1564 H 152.797 -0.866832 1.8533 0
M  V30 1565 H 152.807 -3.22741 2.49604 0
M  V30 1566 H 151.482 -2.45863 3.35446 0
M  V30 1567 H 150.059 -3.30363 1.72958 0
M  V30 1568 N 152.244 -1.26651 -0.937939 0
M  V30 1569 C 153.655 -1.1125 -1.49934 0
M  V30 1570 C 154.006 0.306077 -1.93798 0
M  V30 1571 O 153.131 1.19792 -1.80219 0
M  V30 1572 C 153.726 -2.01339 -2.72485 0
M  V30 1573 C 152.285 -1.90074 -3.24883 0
M  V30 1574 C 151.432 -1.94498 -1.97651 0
M  V30 1575 H 154.383 -1.39693 -0.753091 0
M  V30 1576 H 154.404 -1.56319 -3.46907 0
M  V30 1577 H 153.916 -3.04577 -2.40529 0
M  V30 1578 H 152.017 -0.897827 -3.61621 0
M  V30 1579 H 152.13 -2.75778 -3.9177 0
M  V30 1580 H 150.494 -1.38591 -2.13693 0
M  V30 1581 H 151.277 -2.99372 -1.68022 0
M  V30 1582 N 153.722 1.14298 -1.08507 0
M  V30 1583 C 154.632 2.23027 -0.727753 0
M  V30 1584 C 155.648 1.71952 0.26619 0
M  V30 1585 O 156.824 2.011 0.109882 0
M  V30 1586 C 153.889 3.46403 -0.143541 0
M  V30 1587 C 152.95 4.12413 -1.19223 0
M  V30 1588 C 152.183 5.29899 -0.635798 0
M  V30 1589 O 152.406 5.67796 0.544393 0
M  V30 1590 O 151.34 5.85717 -1.38634 0
M  V30 1591 H 155.166 2.55945 -1.63481 0
M  V30 1592 H 152.751 1.22248 -0.858817 0
M  V30 1593 H 154.633 4.21018 0.179404 0
M  V30 1594 H 153.308 3.15206 0.736659 0
M  V30 1595 H 152.215 3.39667 -1.56772 0
M  V30 1596 H 153.548 4.47718 -2.04474 0
M  V30 1597 N 155.201 0.870884 1.31352 0
M  V30 1598 C 156.612 0.534714 1.78879 0
M  V30 1599 C 156.963 -0.948423 1.71754 0
M  V30 1600 O 156.088 -1.74055 1.28584 0
M  V30 1601 C 156.683 0.963839 3.24801 0
M  V30 1602 C 155.242 0.679311 3.70219 0
M  V30 1603 C 154.389 1.15465 2.52117 0
M  V30 1604 H 157.34 1.05651 1.18421 0
M  V30 1605 H 157.361 0.286892 3.79417 0
M  V30 1606 H 156.873 2.04332 3.29955 0
M  V30 1607 H 154.974 -0.388769 3.70566 0
M  V30 1608 H 155.087 1.25698 4.62317 0
M  V30 1609 H 153.451 0.574383 2.48139 0
M  V30 1610 H 154.234 2.24157 2.60016 0
M  V30 1611 N 156.679 -1.44442 0.630414 0
M  V30 1612 C 157.927 -2.01653 0.134351 0
M  V30 1613 C 158.248 -1.49836 -1.24796 0
M  V30 1614 O 157.518 -0.701684 -1.82902 0
M  V30 1615 H 156.098 -0.74554 0.0466769 0
M  V30 1616 H 158.76 -1.76952 0.816955 0
M  V30 1617 H 157.856 -3.11935 0.101498 0
M  V30 1618 N 158.157 -0.370918 -1.53173 0
M  V30 1619 C 159.568 0.107139 -1.86392 0
M  V30 1620 C 159.919 1.47714 -1.29132 0
M  V30 1621 O 159.044 2.07464 -0.615439 0
M  V30 1622 C 159.639 0.201187 -3.38202 0
M  V30 1623 C 158.198 0.623507 -3.712 0
M  V30 1624 C 157.345 -0.225978 -2.76378 0
M  V30 1625 H 160.296 -0.58951 -1.47345 0
M  V30 1626 H 160.317 1.02377 -3.66468 0
M  V30 1627 H 159.829 -0.796058 -3.79848 0
M  V30 1628 H 157.93 1.62879 -3.35114 0
M  V30 1629 H 158.043 0.394414 -4.77474 0
M  V30 1630 H 156.407 0.305962 -2.52856 0
M  V30 1631 H 157.19 -1.22086 -3.20858 0
M  V30 1632 N 159.635 1.57281 -0.100228 0
M  V30 1633 C 160.883 1.94153 0.561157 0
M  V30 1634 C 161.204 0.983157 1.68401 0
M  V30 1635 O 160.474 0.0361132 1.95867 0
M  V30 1636 H 159.054 0.716791 0.210283 0
M  V30 1637 H 161.716 1.94202 -0.164765 0
M  V30 1638 H 160.812 2.96709 0.968008 0
M  V30 1639 N 161.113 -0.173488 1.56642 0
M  V30 1640 C 162.524 -0.736155 1.71574 0
M  V30 1641 C 162.875 -1.82888 0.710389 0
M  V30 1642 O 162 -2.16017 -0.1287 0
M  V30 1643 C 162.595 -1.34211 3.11083 0
M  V30 1644 C 161.154 -1.85162 3.27707 0
M  V30 1645 C 160.301 -0.729765 2.67525 0
M  V30 1646 H 163.252 0.0518786 1.58615 0
M  V30 1647 H 163.273 -2.21178 3.09613 0
M  V30 1648 H 162.785 -0.546579 3.84232 0
M  V30 1649 H 160.886 -2.67366 2.59512 0
M  V30 1650 H 160.999 -1.99855 4.35425 0
M  V30 1651 H 159.363 -1.14965 2.27278 0
M  V30 1652 H 160.146 0.0538806 3.43258 0
M  V30 1653 N 162.591 -1.51276 -0.441967 0
M  V30 1654 C 163.554 -1.7167 -1.51862 0
M  V30 1655 C 164.554 -0.586793 -1.49711 0
M  V30 1656 O 165.744 -0.854276 -1.51815 0
M  V30 1657 C 162.876 -1.76889 -2.91416 0
M  V30 1658 H 164.069 -2.67754 -1.35084 0
M  V30 1659 H 161.622 -1.41196 -0.670333 0
M  V30 1660 H 162.357 -0.826026 -3.13604 0
M  V30 1661 H 162.142 -2.59001 -2.94382 0
M  V30 1662 H 163.632 -1.94522 -3.69528 0
M  V30 1663 N 164.069 0.697108 -1.41344 0
M  V30 1664 C 165.032 1.79281 -1.42797 0
M  V30 1665 C 166.032 1.57607 -0.318837 0
M  V30 1666 O 167.222 1.64309 -0.578642 0
M  V30 1667 C 164.354 3.17632 -1.23785 0
M  V30 1668 H 165.547 1.79385 -2.40335 0
M  V30 1669 H 163.1 0.904582 -1.27464 0
M  V30 1670 H 163.835 3.23167 -0.270814 0
M  V30 1671 H 163.62 3.34765 -2.04144 0
M  V30 1672 H 165.11 3.97617 -1.27633 0
M  V30 1673 N 165.547 1.27147 0.931209 0
M  V30 1674 C 166.958 1.12044 1.49342 0
M  V30 1675 C 167.309 -0.295795 1.93957 0
M  V30 1676 O 166.434 -1.18835 1.80852 0
M  V30 1677 C 167.029 2.02781 2.71414 0
M  V30 1678 C 165.588 1.91794 3.2387 0
M  V30 1679 C 164.735 1.95543 1.96617 0
M  V30 1680 H 167.686 1.40091 0.745672 0
M  V30 1681 H 167.707 1.58156 3.46074 0
M  V30 1682 H 167.219 3.05848 2.38911 0
M  V30 1683 H 165.32 0.916992 3.6114 0
M  V30 1684 H 165.433 2.77852 3.90302 0
M  V30 1685 H 163.797 1.39722 2.12955 0
M  V30 1686 H 164.58 3.00259 1.66432 0
M  V30 1687 N 167.025 -1.13721 1.09112 0
M  V30 1688 C 168.273 -1.84559 0.823562 0
M  V30 1689 C 168.594 -1.83754 -0.652658 0
M  V30 1690 O 167.864 -1.29102 -1.47342 0
M  V30 1691 H 166.444 -0.683376 0.301673 0
M  V30 1692 H 169.106 -1.37771 1.37859 0
M  V30 1693 H 168.202 -2.8917 1.17419 0
M  V30 1694 N 168.503 -0.877838 -1.30888 0
M  V30 1695 C 169.433 -0.35534 -2.3078 0
M  V30 1696 C 170.414 0.557994 -1.60687 0
M  V30 1697 O 171.599 0.473355 -1.88343 0
M  V30 1698 C 168.729 0.437221 -3.44537 0
M  V30 1699 C 167.683 -0.383715 -4.26276 0
M  V30 1700 C 167.009 0.535014 -5.32017 0
M  V30 1701 C 168.309 -1.62201 -4.96476 0
M  V30 1702 H 170.003 -1.19007 -2.74732 0
M  V30 1703 H 167.549 -0.573698 -1.32078 0
M  V30 1704 H 169.502 0.813334 -4.13477 0
M  V30 1705 H 168.226 1.30553 -2.99372 0
M  V30 1706 H 166.885 -0.741874 -3.59015 0
M  V30 1707 H 166.533 1.40083 -4.831 0
M  V30 1708 H 166.233 -0.0104211 -5.87599 0
M  V30 1709 H 167.757 0.907799 -6.03814 0
M  V30 1710 H 169.171 -1.31689 -5.5797 0
M  V30 1711 H 167.568 -2.10711 -5.61891 0
M  V30 1712 H 168.638 -2.37044 -4.23011 0
M  V30 1713 N 169.982 1.44106 -0.638065 0
M  V30 1714 C 171.393 1.85316 -0.226894 0
M  V30 1715 C 171.744 1.53399 1.22324 0
M  V30 1716 O 170.869 0.975463 1.93167 0
M  V30 1717 C 171.464 3.3637 -0.405013 0
M  V30 1718 C 170.023 3.76369 -0.0482902 0
M  V30 1719 C 169.17 2.67921 -0.715108 0
M  V30 1720 H 172.121 1.34474 -0.842764 0
M  V30 1721 H 172.142 3.7885 0.354 0
M  V30 1722 H 171.654 3.59569 -1.46053 0
M  V30 1723 H 169.755 3.58784 1.00522 0
M  V30 1724 H 169.868 4.76856 -0.463187 0
M  V30 1725 H 168.232 2.54259 -0.149753 0
M  V30 1726 H 169.015 2.93951 -1.77335 0
M  V30 1727 N 171.46 0.379036 1.52974 0
M  V30 1728 C 172.407 -0.461048 2.26148 0
M  V30 1729 C 173.377 -1.06637 1.27349 0
M  V30 1730 O 174.562 -1.09633 1.56157 0
M  V30 1731 C 171.702 -1.58782 3.06402 0
M  V30 1732 C 170.815 -1.00636 4.20115 0
M  V30 1733 C 169.95 -2.10334 4.87784 0
M  V30 1734 C 168.989 -1.49724 5.93506 0
M  V30 1735 N 168.126 -2.5331 6.54812 0
M  V30 1736 H 172.966 0.169429 2.97518 0
M  V30 1737 H 170.503 0.0953806 1.4679 0
M  V30 1738 H 172.461 -2.25174 3.51215 0
M  V30 1739 H 171.091 -2.18876 2.37261 0
M  V30 1740 H 170.143 -0.232332 3.7969 0
M  V30 1741 H 171.455 -0.523343 4.96047 0
M  V30 1742 H 170.609 -2.84519 5.35849 0
M  V30 1743 H 169.348 -2.61992 4.11353 0
M  V30 1744 H 168.353 -0.740598 5.44789 0
M  V30 1745 H 169.578 -0.988732 6.71864 0
M  V30 1746 H 167.524 -3.04156 5.81227 0
M  V30 1747 H 167.441 -2.09734 7.26325 0
M  V30 1748 H 168.709 -3.27155 7.07524 0
M  V30 1749 N 172.938 -1.57226 0.108567 0
M  V30 1750 C 173.901 -2.13602 -0.831082 0
M  V30 1751 C 174.901 -1.06841 -1.20173 0
M  V30 1752 O 176.091 -1.32666 -1.12895 0
M  V30 1753 C 173.223 -2.66769 -2.12243 0
M  V30 1754 H 174.416 -2.97951 -0.341317 0
M  V30 1755 H 171.969 -1.55667 -0.14057 0
M  V30 1756 H 172.704 -1.85977 -2.65675 0
M  V30 1757 H 172.489 -3.44839 -1.86625 0
M  V30 1758 H 173.979 -3.10332 -2.79435 0
M  V30 1759 N 174.416 0.165178 -1.56732 0
M  V30 1760 C 175.832 0.517174 -1.50988 0
M  V30 1761 C 176.032 1.84331 -0.813894 0
M  V30 1762 O 175.088 2.49672 -0.37682 0
M  V30 1763 C 176.401 0.544261 -2.95733 0
M  V30 1764 C 177.949 0.631039 -3.06573 0
M  V30 1765 C 178.424 0.68896 -4.52788 0
M  V30 1766 N 179.915 0.751683 -4.5706 0
M  V30 1767 C 180.65 0.817177 -5.67547 0
M  V30 1768 N 180.146 0.843129 -6.8765 0
M  V30 1769 N 181.939 0.856668 -5.55534 0
M  V30 1770 H 174.09 -0.704318 -2.00382 0
M  V30 1771 H 176.353 -0.254687 -0.913148 0
M  V30 1772 H 176.059 -0.361607 -3.49836 0
M  V30 1773 H 175.933 1.3886 -3.5071 0
M  V30 1774 H 178.32 1.52733 -2.52501 0
M  V30 1775 H 178.401 -0.240095 -2.54671 0
M  V30 1776 H 178.045 -0.2031 -5.07494 0
M  V30 1777 H 177.975 1.57633 -5.02454 0
M  V30 1778 H 180.466 0.739661 -3.70591 0
M  V30 1779 H 180.779 0.894448 -7.67606 0
M  V30 1780 H 179.124 0.811304 -6.90248 0
M  V30 1781 H 182.315 0.833437 -4.60621 0
M  V30 1782 H 182.488 0.904247 -6.4166 0
M  V30 1783 N 175.894 1.51508 0.433938 0
M  V30 1784 C 177.119 1.68443 1.21003 0
M  V30 1785 C 177.544 0.382636 1.84167 0
M  V30 1786 O 176.902 -0.65755 1.68956 0
M  V30 1787 C 176.95 2.80405 2.26727 0
M  V30 1788 O 176.054 2.44245 3.32292 0
M  V30 1789 H 175.395 0.561536 0.354363 0
M  V30 1790 H 177.925 1.9809 0.512024 0
M  V30 1791 H 177.935 3.0459 2.71457 0
M  V30 1792 H 176.61 3.74867 1.80132 0
M  V30 1793 H 175.187 2.30644 2.93015 0
M  V30 1794 N 177.372 -0.689602 1.41712 0
M  V30 1795 C 178.597 -1.48329 1.44959 0
M  V30 1796 C 179.022 -1.8801 0.0581283 0
M  V30 1797 O 178.38 -1.55026 -0.940035 0
M  V30 1798 C 178.428 -2.71835 2.36935 0
M  V30 1799 O 177.532 -3.69549 1.8305 0
M  V30 1800 H 176.873 -0.446199 0.491734 0
M  V30 1801 H 179.403 -0.847127 1.86239 0
M  V30 1802 H 179.413 -3.20076 2.53013 0
M  V30 1803 H 178.088 -2.42291 3.38035 0
M  V30 1804 H 176.665 -3.2851 1.76452 0
M  V30 1805 N 178.85 -1.27639 -0.924453 0
M  V30 1806 C 179.76 -1.12466 -2.05885 0
M  V30 1807 C 180.776 -0.053869 -1.73917 0
M  V30 1808 O 181.952 -0.261012 -1.99702 0
M  V30 1809 C 179.017 -0.776768 -3.37886 0
M  V30 1810 C 178.078 -1.92878 -3.83532 0
M  V30 1811 C 177.311 -1.59739 -5.09234 0
M  V30 1812 O 177.534 -0.506782 -5.68144 0
M  V30 1813 O 176.468 -2.43761 -5.50331 0
M  V30 1814 H 180.294 -2.07671 -2.21599 0
M  V30 1815 H 177.879 -1.06857 -1.04413 0
M  V30 1816 H 179.761 -0.596229 -4.17161 0
M  V30 1817 H 178.436 0.145732 -3.23372 0
M  V30 1818 H 177.343 -2.1644 -3.0513 0
M  V30 1819 H 178.676 -2.8316 -4.02593 0
M  V30 1820 N 180.328 1.1314 -1.09713 0
M  V30 1821 C 181.238 2.22242 -0.751367 0
M  V30 1822 C 182.254 1.72224 0.247938 0
M  V30 1823 O 183.43 2.01205 0.0885463 0
M  V30 1824 C 180.495 3.46231 -0.180274 0
M  V30 1825 C 179.556 4.11125 -1.2359 0
M  V30 1826 C 178.789 5.29195 -0.691966 0
M  V30 1827 O 179.012 5.68342 0.48414 0
M  V30 1828 O 177.946 5.84214 -1.44838 0
M  V30 1829 H 181.772 2.54197 -1.66186 0
M  V30 1830 H 179.357 1.21331 -0.871735 0
M  V30 1831 H 181.239 4.21185 0.134739 0
M  V30 1832 H 179.914 3.1597 0.703185 0
M  V30 1833 H 178.821 3.37985 -1.60366 0
M  V30 1834 H 180.154 4.45524 -2.09211 0
M  V30 1835 N 181.806 0.884767 1.30421 0
M  V30 1836 C 182.736 0.367574 2.30589 0
M  V30 1837 C 183.717 -0.549464 1.60981 0
M  V30 1838 O 184.902 -0.46336 1.88591 0
M  V30 1839 C 182.032 -0.418944 3.44764 0
M  V30 1840 C 180.986 0.406316 4.26067 0
M  V30 1841 C 180.312 -0.506793 5.32293 0
M  V30 1842 C 181.612 1.64832 4.95608 0
M  V30 1843 H 183.306 1.20462 2.74097 0
M  V30 1844 H 180.852 0.580695 1.31772 0
M  V30 1845 H 182.805 -0.791395 4.13902 0
M  V30 1846 H 181.529 -1.28964 3.0006 0
M  V30 1847 H 180.188 0.760903 3.58617 0
M  V30 1848 H 179.836 -1.37519 4.83836 0
M  V30 1849 H 179.536 0.0415828 5.87585 0
M  V30 1850 H 181.06 -0.875764 6.04287 0
M  V30 1851 H 182.474 1.34646 5.57264 0
M  V30 1852 H 180.871 2.13688 5.60765 0
M  V30 1853 H 181.941 2.39284 4.21748 0
M  V30 1854 N 183.284 -1.43765 0.645699 0
M  V30 1855 C 184.247 -2.29163 -0.0409488 0
M  V30 1856 C 185.247 -1.41813 -0.757996 0
M  V30 1857 O 186.437 -1.63527 -0.600382 0
M  V30 1858 C 183.569 -3.23716 -1.06869 0
M  V30 1859 H 184.762 -2.91366 0.710345 0
M  V30 1860 H 182.315 -1.5092 0.406547 0
M  V30 1861 H 183.05 -2.66393 -1.84947 0
M  V30 1862 H 182.835 -3.88105 -0.558277 0
M  V30 1863 H 184.325 -3.87831 -1.54845 0
M  V30 1864 N 184.763 -0.387143 -1.52771 0
M  V30 1865 C 186.174 0.0873634 -1.86495 0
M  V30 1866 C 186.525 1.46336 -1.30691 0
M  V30 1867 O 185.65 2.068 -0.637409 0
M  V30 1868 C 186.245 0.165305 -3.38396 0
M  V30 1869 C 184.804 0.584101 -3.7184 0
M  V30 1870 C 183.951 -0.255279 -2.76122 0
M  V30 1871 H 186.902 -0.605104 -1.46711 0
M  V30 1872 H 186.923 0.984848 -3.67534 0
M  V30 1873 H 186.435 -0.836301 -3.78982 0
M  V30 1874 H 184.536 1.59315 -3.36823 0
M  V30 1875 H 184.649 0.343749 -4.77865 0
M  V30 1876 H 183.013 0.279126 -2.53166 0
M  V30 1877 H 183.796 -1.25482 -3.19545 0
M  V30 1878 N 186.241 1.57166 -0.116904 0
M  V30 1879 C 187.652 1.82169 0.408809 0
M  V30 1880 C 188.003 1.03393 1.66746 0
M  V30 1881 O 187.128 0.269886 2.1471 0
M  V30 1882 C 187.723 3.30429 0.748466 0
M  V30 1883 C 186.282 3.5612 1.21882 0
M  V30 1884 C 185.429 2.76374 0.226452 0
M  V30 1885 H 188.38 1.5497 -0.342063 0
M  V30 1886 H 188.401 3.44943 1.60607 0
M  V30 1887 H 187.913 3.87737 -0.167784 0
M  V30 1888 H 186.014 3.04168 2.15204 0
M  V30 1889 H 186.127 4.64705 1.16559 0
M  V30 1890 H 184.491 2.44515 0.713063 0
M  V30 1891 H 185.274 3.3644 -0.682859 0
M  V30 1892 N 187.719 -0.156864 1.56817 0
M  V30 1893 C 189.135 -0.50916 1.5126 0
M  V30 1894 C 189.335 -1.83897 0.823658 0
M  V30 1895 O 188.391 -2.49469 0.390055 0
M  V30 1896 C 189.704 -0.52857 2.96018 0
M  V30 1897 C 191.252 -0.614771 3.06903 0
M  V30 1898 C 191.727 -0.664938 4.53147 0
M  V30 1899 N 193.218 -0.727433 4.57452 0
M  V30 1900 C 193.953 -0.787067 5.67973 0
M  V30 1901 N 193.449 -0.806649 6.88088 0
M  V30 1902 N 195.242 -0.827195 5.5598 0
M  V30 1903 H 187.393 0.714935 2.00006 0
M  V30 1904 H 189.656 0.259526 0.911784 0
M  V30 1905 H 189.362 0.380154 3.49639 0
M  V30 1906 H 189.236 -1.36998 3.51442 0
M  V30 1907 H 191.623 -1.51392 2.53307 0
M  V30 1908 H 191.704 0.253597 2.5454 0
M  V30 1909 H 191.348 0.230011 5.07379 0
M  V30 1910 H 191.278 -1.54966 5.03282 0
M  V30 1911 H 193.769 -0.719998 3.70978 0
M  V30 1912 H 194.082 -0.853727 7.6807 0
M  V30 1913 H 192.427 -0.774687 6.90669 0
M  V30 1914 H 195.618 -0.808998 4.61056 0
M  V30 1915 H 195.791 -0.870206 6.4213 0
M  V30 1916 N 189.197 -1.51736 -0.425897 0
M  V30 1917 C 190.608 -1.5732 -1.00536 0
M  V30 1918 C 190.959 -0.403537 -1.92005 0
M  V30 1919 O 190.084 0.478256 -2.11049 0
M  V30 1920 C 190.679 -2.85119 -1.8301 0
M  V30 1921 C 189.238 -2.93236 -2.35987 0
M  V30 1922 C 188.385 -2.52098 -1.15508 0
M  V30 1923 H 191.336 -1.57348 -0.206739 0
M  V30 1924 H 191.357 -2.69526 -2.68581 0
M  V30 1925 H 190.869 -3.7023 -1.16411 0
M  V30 1926 H 188.97 -2.12581 -3.06007 0
M  V30 1927 H 189.083 -3.9713 -2.68001 0
M  V30 1928 H 187.447 -2.05558 -1.50393 0
M  V30 1929 H 188.23 -3.39565 -0.505014 0
M  V30 1930 N 190.675 0.682077 -1.42076 0
M  V30 1931 C 192.086 1.26246 -1.37546 0
M  V30 1932 C 192.437 1.96092 -0.0651481 0
M  V30 1933 O 191.562 1.99587 0.836297 0
M  V30 1934 C 192.157 2.29594 -2.49143 0
M  V30 1935 C 190.716 2.83175 -2.47969 0
M  V30 1936 C 189.863 1.57395 -2.28303 0
M  V30 1937 H 192.814 0.475937 -1.51395 0
M  V30 1938 H 192.835 3.11175 -2.18976 0
M  V30 1939 H 192.347 1.78729 -3.44496 0
M  V30 1940 H 190.448 3.3818 -1.56413 0
M  V30 1941 H 190.561 3.32687 -3.44755 0
M  V30 1942 H 188.925 1.83699 -1.76428 0
M  V30 1943 H 189.708 1.08507 -3.25701 0
M  V30 1944 N 192.153 1.28127 0.917671 0
M  V30 1945 C 193.401 1.14825 1.66312 0
M  V30 1946 C 193.722 -0.304379 1.9261 0
M  V30 1947 O 192.992 -1.21149 1.53947 0
M  V30 1948 H 191.572 0.421953 0.616413 0
M  V30 1949 H 194.234 1.608 1.10134 0
M  V30 1950 H 193.33 1.68489 2.62712 0
M  V30 1951 N 193.631 -1.12557 1.10312 0
M  V30 1952 C 195.042 -1.65574 0.862678 0
M  V30 1953 C 195.393 -1.86566 -0.607256 0
M  V30 1954 O 194.518 -1.59121 -1.46662 0
M  V30 1955 C 195.113 -3.00776 1.55947 0
M  V30 1956 C 193.672 -3.50748 1.36576 0
M  V30 1957 C 192.819 -2.25797 1.60968 0
M  V30 1958 H 195.77 -0.963552 1.26101 0
M  V30 1959 H 195.791 -3.67185 0.997753 0
M  V30 1960 H 195.303 -2.85465 2.62928 0
M  V30 1961 H 193.404 -3.71245 0.317531 0
M  V30 1962 H 193.517 -4.30289 2.10686 0
M  V30 1963 H 191.881 -2.32841 1.03234 0
M  V30 1964 H 192.664 -2.13043 2.69198 0
M  V30 1965 N 195.109 -0.891671 -1.2995 0
M  V30 1966 C 196.349 -0.520296 -1.97667 0
M  V30 1967 C 196.713 0.914797 -1.68806 0
M  V30 1968 O 197.914 1.39263 -2.29911 0
M  V30 1969 C 196.185 -0.795222 -3.48441 0
M  V30 1970 S 197.744 -0.526953 -4.35624 0
M  V30 1971 H 194.562 -0.19333 -0.684211 0
M  V30 1972 H 197.164 -1.15238 -1.57926 0
M  V30 1973 H 195.868 -1.83805 -3.66938 0
M  V30 1974 H 195.399 -0.15095 -3.9311 0
M  V30 1975 H 197.414 0.631533 -4.92165 0
M  V30 1976 N 196.587 1.43421 -0.653314 0
M  V30 1977 C 197.812 2.06678 -0.172846 0
M  V30 1978 C 198.237 1.48648 1.15262 0
M  V30 1979 O 197.595 0.596457 1.71208 0
M  V30 1980 C 197.643 3.60474 -0.0953184 0
M  V30 1981 O 196.747 4.01487 0.942442 0
M  V30 1982 H 196.088 0.657181 -0.0949155 0
M  V30 1983 H 198.618 1.83925 -0.896265 0
M  V30 1984 H 198.628 4.07905 0.0879728 0
M  V30 1985 H 197.303 4.02088 -1.06291 0
M  V30 1986 H 195.88 3.65646 0.731932 0
M  V30 1987 N 198.065 0.39524 1.52563 0
M  V30 1988 C 199.312 -0.185044 2.01653 0
M  V30 1989 C 199.64 -1.46317 1.28146 0
M  V30 1990 O 198.895 -1.9213 0.372074 0
M  V30 1991 C 199.194 -0.493444 3.53977 0
M  V30 1992 C 198.86 0.69384 4.4553 0
M  V30 1993 C 197.522 1.01954 4.70275 0
M  V30 1994 C 199.874 1.48785 4.99512 0
M  V30 1995 C 197.202 2.14069 5.46252 0
M  V30 1996 C 199.554 2.59965 5.76716 0
M  V30 1997 C 198.218 2.93037 5.99738 0
M  V30 1998 H 197.488 -0.0677123 0.7379 0
M  V30 1999 H 200.135 0.533807 1.8391 0
M  V30 2000 H 198.44 -1.29369 3.69825 0
M  V30 2001 H 200.137 -0.955163 3.89458 0
M  V30 2002 H 196.727 0.429987 4.26438 0
M  V30 2003 H 200.911 1.24946 4.80315 0
M  V30 2004 H 196.167 2.40056 5.62302 0
M  V30 2005 H 200.341 3.21887 6.17545 0
M  V30 2006 H 197.968 3.8003 6.58393 0
M  V30 2007 N 199.544 -1.57102 0.125237 0
M  V30 2008 C 200.476 -2.12726 -0.853237 0
M  V30 2009 C 201.489 -1.07145 -1.22571 0
M  V30 2010 O 202.678 -1.34497 -1.17358 0
M  V30 2011 C 199.778 -2.61709 -2.15317 0
M  V30 2012 C 198.951 -3.91456 -1.95143 0
M  V30 2013 C 198.01 -4.25973 -3.08923 0
M  V30 2014 O 197.036 -4.94682 -2.81564 0
M  V30 2015 N 198.238 -3.83795 -4.35524 0
M  V30 2016 H 201.003 -2.97307 -0.377964 0
M  V30 2017 H 198.564 -1.61792 -0.0590011 0
M  V30 2018 H 200.556 -2.81826 -2.90441 0
M  V30 2019 H 199.126 -1.81974 -2.54174 0
M  V30 2020 H 198.346 -3.80185 -1.04177 0
M  V30 2021 H 199.634 -4.76283 -1.78976 0
M  V30 2022 H 199.032 -3.2839 -4.60626 0
M  V30 2023 H 197.589 -4.09008 -5.07499 0
M  V30 2024 N 201.022 0.148545 -1.56898 0
M  V30 2025 C 201.972 1.1886 -1.94567 0
M  V30 2026 C 202.956 1.3863 -0.816735 0
M  V30 2027 O 204.148 1.40218 -1.08018 0
M  V30 2028 C 201.277 2.52262 -2.32849 0
M  V30 2029 C 200.363 2.36092 -3.52309 0
M  V30 2030 N 200.754 1.89674 -4.6889 0
M  V30 2031 C 199.052 2.66848 -3.57363 0
M  V30 2032 C 199.753 1.86511 -5.50989 0
M  V30 2033 N 198.729 2.29766 -4.92655 0
M  V30 2034 H 202.531 0.821793 -2.82177 0
M  V30 2035 H 200.045 0.356615 -1.58436 0
M  V30 2036 H 202.042 3.27447 -2.58039 0
M  V30 2037 H 200.702 2.89727 -1.46589 0
M  V30 2038 H 201.713 1.59663 -4.92674 0
M  V30 2039 H 198.39 3.08198 -2.81639 0
M  V30 2040 H 199.78 1.52128 -6.54452 0
M  V30 2041 N 202.5 1.5196 0.417844 0
M  V30 2042 C 203.747 1.65591 1.16559 0
M  V30 2043 C 204.075 0.381565 1.90721 0
M  V30 2044 O 203.33 -0.635156 1.85106 0
M  V30 2045 C 203.629 2.82269 2.19223 0
M  V30 2046 C 203.295 4.20819 1.61933 0
M  V30 2047 C 201.957 4.58506 1.46033 0
M  V30 2048 C 204.309 5.07196 1.20008 0
M  V30 2049 C 201.637 5.80257 0.867113 0
M  V30 2050 C 203.989 6.29544 0.621086 0
M  V30 2051 C 202.653 6.65987 0.449144 0
M  V30 2052 H 201.923 0.605939 0.42652 0
M  V30 2053 H 204.57 1.86041 0.45397 0
M  V30 2054 H 202.875 2.56118 2.96498 0
M  V30 2055 H 204.572 2.90012 2.76936 0
M  V30 2056 H 201.162 3.91116 1.7529 0
M  V30 2057 H 205.346 4.7867 1.31105 0
M  V30 2058 H 200.602 6.07124 0.721833 0
M  V30 2059 H 204.776 6.95805 0.287798 0
M  V30 2060 H 202.403 7.60199 -0.012632 0
M  V30 2061 N 203.978 -0.674533 1.42435 0
M  V30 2062 C 205.394 -0.98769 1.25367 0
M  V30 2063 C 205.594 -2.00879 0.158044 0
M  V30 2064 O 204.65 -2.48075 -0.470633 0
M  V30 2065 C 205.963 -1.49224 2.6106 0
M  V30 2066 C 207.511 -1.61 2.68417 0
M  V30 2067 C 207.986 -2.14852 4.04478 0
M  V30 2068 N 209.477 -2.22185 4.06434 0
M  V30 2069 C 210.212 -2.64928 5.08528 0
M  V30 2070 N 209.708 -3.07121 6.21006 0
M  V30 2071 N 211.501 -2.64679 4.95885 0
M  V30 2072 H 203.652 0.00152503 2.124 0
M  V30 2073 H 205.915 -0.0618434 0.945981 0
M  V30 2074 H 205.621 -0.816453 3.42092 0
M  V30 2075 H 205.495 -2.47094 2.84999 0
M  V30 2076 H 207.882 -2.27686 1.87732 0
M  V30 2077 H 207.963 -0.616195 2.48267 0
M  V30 2078 H 207.607 -1.48775 4.85622 0
M  V30 2079 H 207.537 -3.15024 4.2198 0
M  V30 2080 H 210.028 -1.92435 3.25234 0
M  V30 2081 H 210.341 -3.38423 6.94759 0
M  V30 2082 H 208.686 -3.04978 6.24511 0
M  V30 2083 H 211.877 -2.31078 4.07088 0
M  V30 2084 H 212.05 -2.9767 5.75584 0
M  V30 2085 N 205.456 -1.28612 -0.910864 0
M  V30 2086 C 206.872 -1.06381 -1.18976 0
M  V30 2087 C 207.072 0.191998 -2.00583 0
M  V30 2088 O 206.128 0.892869 -2.36187 0
M  V30 2089 C 207.441 -2.31295 -1.92154 0
M  V30 2090 C 208.989 -2.36503 -2.05025 0
M  V30 2091 C 209.464 -3.61191 -2.81612 0
M  V30 2092 N 210.955 -3.61847 -2.89172 0
M  V30 2093 C 211.69 -4.55004 -3.4894 0
M  V30 2094 N 211.186 -5.58482 -4.09963 0
M  V30 2095 N 212.979 -4.42594 -3.46506 0
M  V30 2096 H 205.13 -2.09221 -0.366094 0
M  V30 2097 H 207.393 -0.921003 -0.224629 0
M  V30 2098 H 207.099 -3.228 -1.39618 0
M  V30 2099 H 206.973 -2.37934 -2.9269 0
M  V30 2100 H 209.36 -1.45494 -2.5674 0
M  V30 2101 H 209.441 -2.33857 -1.03657 0
M  V30 2102 H 209.085 -4.52545 -2.30576 0
M  V30 2103 H 209.015 -3.61092 -3.83302 0
M  V30 2104 H 211.506 -2.87022 -2.45819 0
M  V30 2105 H 211.819 -6.25704 -4.53557 0
M  V30 2106 H 210.164 -5.62305 -4.08459 0
M  V30 2107 H 213.355 -3.60953 -2.98045 0
M  V30 2108 H 213.528 -5.15381 -3.92793 0
M  V30 2109 N 206.934 1.1197 -1.10907 0
M  V30 2110 C 208.159 1.87942 -0.877064 0
M  V30 2111 C 208.584 1.79341 0.567314 0
M  V30 2112 O 207.942 1.15184 1.40009 0
M  V30 2113 C 207.99 3.34926 -1.33629 0
M  V30 2114 O 207.094 4.09303 -0.504447 0
M  V30 2115 H 206.435 0.583785 -0.316371 0
M  V30 2116 H 208.965 1.4157 -1.47712 0
M  V30 2117 H 208.975 3.8577 -1.32837 0
M  V30 2118 H 207.65 3.40504 -2.3881 0
M  V30 2119 H 206.227 3.68393 -0.577993 0
M  V30 2120 N 208.412 0.89855 1.29475 0
M  V30 2121 C 209.342 0.39201 2.30186 0
M  V30 2122 C 210.323 -0.532359 1.61555 0
M  V30 2123 O 211.508 -0.443331 1.89072 0
M  V30 2124 C 208.638 -0.382353 3.45189 0
M  V30 2125 C 207.592 0.451483 4.25612 0
M  V30 2126 C 206.918 -0.450307 5.328 0
M  V30 2127 C 208.218 1.70079 4.93832 0
M  V30 2128 H 209.912 1.23362 2.72804 0
M  V30 2129 H 207.458 0.594638 1.31149 0
M  V30 2130 H 209.411 -0.747451 4.14718 0
M  V30 2131 H 208.135 -1.25774 3.01411 0
M  V30 2132 H 206.794 0.798897 3.57789 0
M  V30 2133 H 206.442 -1.32379 4.85268 0
M  V30 2134 H 206.142 0.103902 5.87508 0
M  V30 2135 H 207.666 -0.811623 6.05182 0
M  V30 2136 H 209.08 1.40549 5.55805 0
M  V30 2137 H 207.477 2.19623 5.58467 0
M  V30 2138 H 208.547 2.43744 4.19186 0
M  V30 2139 N 209.89 -1.43072 0.660911 0
M  V30 2140 C 211.306 -1.56169 0.329173 0
M  V30 2141 C 211.506 -1.64317 -1.16629 0
M  V30 2142 O 210.562 -1.60245 -1.95135 0
M  V30 2143 C 211.875 -2.81873 1.04729 0
M  V30 2144 C 213.423 -2.95627 1.02828 0
M  V30 2145 C 213.898 -4.24174 1.72744 0
M  V30 2146 N 215.389 -4.31055 1.69545 0
M  V30 2147 C 216.124 -5.29304 2.20511 0
M  V30 2148 N 215.62 -6.33786 2.79799 0
M  V30 2149 N 217.413 -5.21008 2.10966 0
M  V30 2150 H 209.564 -1.36027 1.63127 0
M  V30 2151 H 211.827 -0.653823 0.686454 0
M  V30 2152 H 211.533 -2.81942 2.10242 0
M  V30 2153 H 211.407 -3.72338 0.603702 0
M  V30 2154 H 213.794 -2.95094 -0.0184742 0
M  V30 2155 H 213.875 -2.06431 1.51063 0
M  V30 2156 H 213.519 -4.25467 2.7738 0
M  V30 2157 H 213.449 -5.1228 1.2197 0
M  V30 2158 H 215.94 -3.56174 1.26288 0
M  V30 2159 H 216.253 -7.05086 3.16344 0
M  V30 2160 H 214.598 -6.34387 2.83863 0
M  V30 2161 H 217.789 -4.38301 1.64347 0
M  V30 2162 H 217.962 -5.97416 2.50993 0
M  V30 2163 N 211.368 -0.403325 -1.52352 0
M  V30 2164 C 212.318 0.442244 -2.2367 0
M  V30 2165 C 213.302 1.01823 -1.24583 0
M  V30 2166 O 214.494 0.942005 -1.49851 0
M  V30 2167 C 211.623 1.5615 -3.05732 0
M  V30 2168 C 210.709 0.996575 -4.12225 0
M  V30 2169 N 211.1 0.157804 -5.05554 0
M  V30 2170 C 209.398 1.26767 -4.27605 0
M  V30 2171 C 210.099 -0.155853 -5.81491 0
M  V30 2172 N 209.075 0.451775 -5.41719 0
M  V30 2173 H 212.877 -0.204964 -2.93184 0
M  V30 2174 H 210.391 -0.213418 -1.60992 0
M  V30 2175 H 212.388 2.17981 -3.55373 0
M  V30 2176 H 211.048 2.21139 -2.37755 0
M  V30 2177 H 212.059 -0.206049 -5.1749 0
M  V30 2178 H 208.736 1.91757 -3.70858 0
M  V30 2179 H 210.126 -0.836329 -6.66675 0
M  V30 2180 N 212.846 1.57033 -0.133567 0
M  V30 2181 C 214.095 1.94861 0.520768 0
M  V30 2182 C 214.408 1.02012 1.66892 0
M  V30 2183 O 215.614 1.29365 2.38699 0
M  V30 2184 C 214.07 3.46362 0.977809 0
M  V30 2185 C 213.678 4.47773 -0.142674 0
M  V30 2186 C 215.422 3.93083 1.60269 0
M  V30 2187 C 213.329 5.90468 0.331883 0
M  V30 2188 H 212.259 0.727453 0.198315 0
M  V30 2189 H 214.91 1.82227 -0.215759 0
M  V30 2190 H 213.292 3.54282 1.7692 0
M  V30 2191 H 214.466 4.51536 -0.919317 0
M  V30 2192 H 212.781 4.10891 -0.675124 0
M  V30 2193 H 215.378 4.97121 1.96914 0
M  V30 2194 H 215.721 3.33876 2.48662 0
M  V30 2195 H 216.254 3.88025 0.876453 0
M  V30 2196 H 212.993 6.53463 -0.516341 0
M  V30 2197 H 212.513 5.90094 1.07469 0
M  V30 2198 H 214.192 6.42179 0.788332 0
M  V30 2199 N 214.325 -0.140222 1.56975 0
M  V30 2200 C 215.572 -0.851687 1.83719 0
M  V30 2201 C 215.9 -1.80862 0.715485 0
M  V30 2202 O 215.155 -1.93464 -0.294956 0
M  V30 2203 C 215.454 -1.65386 3.16832 0
M  V30 2204 C 215.12 -0.843112 4.42947 0
M  V30 2205 C 213.782 -0.619464 4.77196 0
M  V30 2206 C 216.134 -0.276582 5.20466 0
M  V30 2207 C 213.462 0.181312 5.8642 0
M  V30 2208 C 215.814 0.51127 6.30531 0
M  V30 2209 C 214.478 0.745432 6.63325 0
M  V30 2210 H 213.748 -0.311654 0.672274 0
M  V30 2211 H 216.395 -0.115006 1.91154 0
M  V30 2212 H 214.7 -2.46084 3.04877 0
M  V30 2213 H 216.397 -2.20793 3.34741 0
M  V30 2214 H 212.987 -1.0275 4.16101 0
M  V30 2215 H 217.171 -0.436632 4.94376 0
M  V30 2216 H 212.427 0.372165 6.10266 0
M  V30 2217 H 216.601 0.957354 6.89788 0
M  V30 2218 H 214.228 1.36778 7.47794 0
M  V30 2219 N 215.803 -1.52179 -0.40978 0
M  V30 2220 C 217.219 -1.40968 -0.74835 0
M  V30 2221 C 217.419 -0.513657 -1.94843 0
M  V30 2222 O 216.475 0.0208026 -2.52491 0
M  V30 2223 C 217.788 -2.83483 -1.0029 0
M  V30 2224 C 219.336 -2.92821 -1.10565 0
M  V30 2225 C 219.811 -4.36303 -1.39296 0
M  V30 2226 N 221.302 -4.39535 -1.46162 0
M  V30 2227 C 222.037 -5.47614 -1.70018 0
M  V30 2228 N 221.533 -6.65812 -1.91483 0
M  V30 2229 N 223.326 -5.35129 -1.72027 0
M  V30 2230 H 215.477 -2.0897 0.380186 0
M  V30 2231 H 217.74 -0.94185 0.107805 0
M  V30 2232 H 217.446 -3.51168 -0.193461 0
M  V30 2233 H 217.32 -3.24487 -1.92323 0
M  V30 2234 H 219.707 -2.25318 -1.90568 0
M  V30 2235 H 219.788 -2.55276 -0.16369 0
M  V30 2236 H 219.432 -5.04366 -0.598109 0
M  V30 2237 H 219.362 -4.71385 -2.34743 0
M  V30 2238 H 221.853 -3.54332 -1.31367 0
M  V30 2239 H 222.166 -7.43964 -2.09134 0
M  V30 2240 H 220.511 -6.68879 -1.88749 0
M  V30 2241 H 223.702 -4.41764 -1.54796 0
M  V30 2242 H 223.875 -6.19433 -1.9028 0
M  V30 2243 N 217.281 0.66697 -1.42791 0
M  V30 2244 C 218.697 0.981027 -1.25889 0
M  V30 2245 C 218.897 2.00793 -0.168695 0
M  V30 2246 O 217.953 2.48321 0.45747 0
M  V30 2247 C 219.266 1.47838 -2.61848 0
M  V30 2248 C 220.814 1.59575 -2.69267 0
M  V30 2249 C 221.289 2.12704 -4.05612 0
M  V30 2250 N 222.78 2.20026 -4.07606 0
M  V30 2251 C 223.515 2.62227 -5.09926 0
M  V30 2252 N 223.011 3.03824 -6.22626 0
M  V30 2253 N 224.804 2.62045 -4.97281 0
M  V30 2254 H 216.955 -0.0127891 -2.12396 0
M  V30 2255 H 219.218 0.0568258 -0.946295 0
M  V30 2256 H 218.924 0.798299 -3.4252 0
M  V30 2257 H 218.798 2.45579 -2.86305 0
M  V30 2258 H 221.185 2.26687 -1.88936 0
M  V30 2259 H 221.266 0.60302 -2.48591 0
M  V30 2260 H 220.91 1.46198 -4.86404 0
M  V30 2261 H 220.84 3.12782 -4.23645 0
M  V30 2262 H 223.331 1.90708 -3.2625 0
M  V30 2263 H 223.644 3.34734 -6.96544 0
M  V30 2264 H 221.989 3.01662 -6.26119 0
M  V30 2265 H 225.18 2.28916 -4.08308 0
M  V30 2266 H 225.353 2.94613 -5.77154 0
M  V30 2267 N 218.759 1.29093 0.90403 0
M  V30 2268 C 220.175 1.07011 1.1841 0
M  V30 2269 C 220.375 -0.181358 2.00682 0
M  V30 2270 O 219.431 -0.880331 2.36657 0
M  V30 2271 C 220.744 2.32311 1.90924 0
M  V30 2272 C 222.292 2.37587 2.03768 0
M  V30 2273 C 222.767 3.62679 2.79693 0
M  V30 2274 N 224.258 3.63376 2.87249 0
M  V30 2275 C 224.993 4.56848 3.46522 0
M  V30 2276 N 224.489 5.60648 4.06996 0
M  V30 2277 N 226.282 4.44426 3.44154 0
M  V30 2278 H 218.433 2.09412 0.354993 0
M  V30 2279 H 220.696 0.922181 0.219742 0
M  V30 2280 H 220.402 3.23536 1.37905 0
M  V30 2281 H 220.276 2.39483 2.91424 0
M  V30 2282 H 222.663 1.46853 2.55965 0
M  V30 2283 H 222.744 2.34403 1.02415 0
M  V30 2284 H 222.388 4.53762 2.28173 0
M  V30 2285 H 222.318 3.63119 3.81381 0
M  V30 2286 H 224.809 2.88321 2.44293 0
M  V30 2287 H 225.122 6.28101 4.50232 0
M  V30 2288 H 223.467 5.64463 4.05471 0
M  V30 2289 H 226.658 3.62529 2.96126 0
M  V30 2290 H 226.831 5.17457 3.90054 0
M  V30 2291 N 220.237 -1.11381 1.11499 0
M  V30 2292 C 221.462 -1.87475 0.887019 0
M  V30 2293 C 221.887 -1.79639 -0.557796 0
M  V30 2294 O 221.245 -1.15924 -1.39396 0
M  V30 2295 C 221.293 -3.34213 1.35403 0
M  V30 2296 O 220.397 -4.0903 0.526146 0
M  V30 2297 H 219.738 -0.582099 0.319463 0
M  V30 2298 H 222.268 -1.40785 1.48461 0
M  V30 2299 H 222.278 -3.8506 1.34881 0
M  V30 2300 H 220.953 -3.39232 2.40612 0
M  V30 2301 H 219.53 -3.68082 0.597522 0
M  V30 2302 N 221.715 -0.905404 -1.28997 0
M  V30 2303 C 222.678 -0.392253 -2.25819 0
M  V30 2304 C 223.678 0.476753 -1.5357 0
M  V30 2305 O 224.868 0.280994 -1.71919 0
M  V30 2306 C 222 0.438588 -3.38067 0
M  V30 2307 H 223.193 -1.24743 -2.72725 0
M  V30 2308 H 220.746 -0.684051 -1.40536 0
M  V30 2309 H 221.481 1.31352 -2.96508 0
M  V30 2310 H 221.266 -0.184167 -3.91667 0
M  V30 2311 H 222.756 0.78873 -4.10084 0
M  V30 2312 N 223.193 1.4272 -0.668489 0
M  V30 2313 C 224.441 2.01226 -0.187769 0
M  V30 2314 C 224.762 1.53092 1.2078 0
M  V30 2315 O 224.032 0.74993 1.80977 0
M  V30 2316 H 222.612 0.744041 -0.0664272 0
M  V30 2317 H 225.274 1.74723 -0.863583 0
M  V30 2318 H 224.37 3.11556 -0.184166 0
M  V30 2319 N 224.671 0.411399 1.52136 0
M  V30 2320 C 225.581 -0.419774 2.30814 0
M  V30 2321 C 226.597 -1.0515 1.38634 0
M  V30 2322 O 227.773 -1.05252 1.71709 0
M  V30 2323 C 224.838 -1.52019 3.11594 0
M  V30 2324 C 223.899 -0.91129 4.19516 0
M  V30 2325 C 223.132 -1.95927 4.96436 0
M  V30 2326 O 223.355 -3.17775 4.73683 0
M  V30 2327 O 222.289 -1.56423 5.81219 0
M  V30 2328 H 226.115 0.221805 3.02889 0
M  V30 2329 H 223.7 0.174547 1.48377 0
M  V30 2330 H 225.582 -2.15898 3.61892 0
M  V30 2331 H 224.257 -2.14633 2.42311 0
M  V30 2332 H 223.164 -0.235157 3.7336 0
M  V30 2333 H 224.497 -0.32904 4.91099 0
M  V30 2334 N 226.149 -1.5696 0.141893 0
M  V30 2335 C 227.079 -2.19516 -0.795936 0
M  V30 2336 C 228.06 -1.14187 -1.26077 0
M  V30 2337 O 229.245 -1.42511 -1.31925 0
M  V30 2338 C 226.375 -2.81272 -2.03723 0
M  V30 2339 C 225.329 -3.92384 -1.70936 0
M  V30 2340 C 224.655 -4.41052 -3.02287 0
M  V30 2341 C 225.955 -5.13403 -0.959954 0
M  V30 2342 H 227.649 -2.98138 -0.274596 0
M  V30 2343 H 225.195 -1.43406 -0.130636 0
M  V30 2344 H 227.148 -3.237 -2.69808 0
M  V30 2345 H 225.872 -1.99973 -2.58221 0
M  V30 2346 H 224.531 -3.50566 -1.07232 0
M  V30 2347 H 224.179 -3.56582 -3.54765 0
M  V30 2348 H 223.879 -5.15993 -2.81114 0
M  V30 2349 H 225.403 -4.86146 -3.69451 0
M  V30 2350 H 226.817 -5.52706 -1.52279 0
M  V30 2351 H 225.214 -5.94073 -0.848357 0
M  V30 2352 H 226.284 -4.84875 0.0492434 0
M  V30 2353 N 227.627 0.131896 -1.57047 0
M  V30 2354 C 229.038 0.690407 -1.73465 0
M  V30 2355 C 229.389 1.8094 -0.758629 0
M  V30 2356 O 228.514 2.16282 0.0713813 0
M  V30 2357 C 229.109 1.25916 -3.14532 0
M  V30 2358 C 227.668 1.76409 -3.32501 0
M  V30 2359 C 226.815 0.658579 -2.69366 0
M  V30 2360 H 229.766 -0.0939144 -1.58422 0
M  V30 2361 H 229.787 2.12892 -3.15369 0
M  V30 2362 H 229.299 0.444515 -3.85546 0
M  V30 2363 H 227.4 2.60391 -2.66509 0
M  V30 2364 H 227.513 1.88241 -4.4057 0
M  V30 2365 H 225.877 1.08899 -2.30246 0
M  V30 2366 H 226.66 -0.14487 -3.42994 0
M  V30 2367 N 229.106 1.52395 0.401703 0
M  V30 2368 C 230.069 1.75636 1.47257 0
M  V30 2369 C 231.069 0.62628 1.48103 0
M  V30 2370 O 232.259 0.894227 1.49497 0
M  V30 2371 C 229.391 1.84553 2.86624 0
M  V30 2372 H 230.584 2.71241 1.27938 0
M  V30 2373 H 228.137 1.42923 0.632662 0
M  V30 2374 H 228.872 0.908882 3.11303 0
M  V30 2375 H 228.657 2.66715 2.87412 0
M  V30 2376 H 230.147 2.04251 3.64241 0
M  V30 2377 N 230.584 -0.659388 1.43143 0
M  V30 2378 C 231.547 -1.75432 1.47501 0
M  V30 2379 C 232.547 -1.56707 0.360512 0
M  V30 2380 O 233.737 -1.62717 0.622002 0
M  V30 2381 C 230.869 -3.14239 1.32162 0
M  V30 2382 H 232.062 -1.7295 2.45006 0
M  V30 2383 H 229.615 -0.870469 1.29817 0
M  V30 2384 H 230.35 -3.22336 0.356401 0
M  V30 2385 H 230.135 -3.29235 2.12948 0
M  V30 2386 H 231.625 -3.94094 1.3813 0
M  V30 2387 N 232.062 -1.29571 -0.897171 0
M  V30 2388 C 233.012 -1.11539 -1.98855 0
M  V30 2389 C 233.996 -0.0340716 -1.60864 0
M  V30 2390 O 235.188 -0.256062 -1.75138 0
M  V30 2391 C 232.317 -0.796603 -3.3393 0
M  V30 2392 C 231.403 -1.91758 -3.78272 0
M  V30 2393 N 231.794 -3.16143 -3.94826 0
M  V30 2394 C 230.092 -1.81119 -4.07568 0
M  V30 2395 C 230.793 -3.89293 -4.32233 0
M  V30 2396 N 229.769 -3.17255 -4.41419 0
M  V30 2397 H 233.571 -2.05894 -2.09726 0
M  V30 2398 H 231.085 -1.20732 -1.08616 0
M  V30 2399 H 233.082 -0.648459 -4.11826 0
M  V30 2400 H 231.742 0.139003 -3.24402 0
M  V30 2401 H 232.753 -3.5157 -3.80288 0
M  V30 2402 H 229.43 -0.948461 -4.06584 0
M  V30 2403 H 230.82 -4.9635 -4.52865 0
M  V30 2404 N 233.54 1.10788 -1.12088 0
M  V30 2405 C 234.768 1.86461 -0.896651 0
M  V30 2406 C 235.183 1.80492 0.553912 0
M  V30 2407 O 234.54 1.19102 1.38278 0
M  V30 2408 C 234.591 3.35006 -1.35843 0
M  V30 2409 O 234.312 3.40866 -2.75213 0
M  V30 2410 C 235.813 4.27565 -1.1706 0
M  V30 2411 H 233.033 0.589425 -0.320654 0
M  V30 2412 H 235.577 1.40076 -1.48993 0
M  V30 2413 H 233.732 3.7887 -0.808458 0
M  V30 2414 H 234.146 4.33411 -2.9539 0
M  V30 2415 H 235.62 5.30007 -1.54263 0
M  V30 2416 H 236.097 4.3906 -0.110814 0
M  V30 2417 H 236.703 3.89501 -1.70789 0
M  V30 2418 N 235.018 0.912232 1.28515 0
M  V30 2419 C 235.981 0.404223 2.25607 0
M  V30 2420 C 236.981 -0.468602 1.53821 0
M  V30 2421 O 238.171 -0.271873 1.72065 0
M  V30 2422 C 235.303 -0.420653 3.38295 0
M  V30 2423 H 236.496 1.26188 2.7206 0
M  V30 2424 H 234.049 0.691495 1.40171 0
M  V30 2425 H 234.784 -1.29777 2.97201 0
M  V30 2426 H 234.569 0.204935 3.91564 0
M  V30 2427 H 236.059 -0.766971 4.10496 0
M  V30 2428 N 236.496 -1.42363 0.676048 0
M  V30 2429 C 237.459 -2.29199 0.00766941 0
M  V30 2430 C 238.459 -1.43389 -0.727745 0
M  V30 2431 O 239.649 -1.64764 -0.56556 0
M  V30 2432 C 236.781 -3.2591 -0.999785 0
M  V30 2433 H 237.974 -2.89794 0.771988 0
M  V30 2434 H 235.527 -1.50024 0.438468 0
M  V30 2435 H 236.262 -2.70256 -1.79255 0
M  V30 2436 H 236.047 -3.89202 -0.475829 0
M  V30 2437 H 237.537 -3.91028 -1.46583 0
M  V30 2438 N 237.974 -0.419461 -1.51915 0
M  V30 2439 C 238.937 0.389116 -2.25873 0
M  V30 2440 C 239.937 0.964924 -1.28631 0
M  V30 2441 O 241.127 0.842179 -1.52489 0
M  V30 2442 C 238.259 1.54874 -3.03689 0
M  V30 2443 H 239.452 -0.258799 -2.98781 0
M  V30 2444 H 237.005 -0.172209 -1.55348 0
M  V30 2445 H 237.74 2.23323 -2.35154 0
M  V30 2446 H 237.525 1.14223 -3.75094 0
M  V30 2447 H 239.015 2.12046 -3.59759 0
M  V30 2448 N 239.452 1.56882 -0.150215 0
M  V30 2449 C 240.863 1.82995 0.370076 0
M  V30 2450 C 241.214 1.06907 1.64515 0
M  V30 2451 O 240.339 0.315369 2.1409 0
M  V30 2452 C 240.934 3.31942 0.678208 0
M  V30 2453 C 239.493 3.58625 1.14301 0
M  V30 2454 C 238.64 2.76792 0.167778 0
M  V30 2455 H 241.591 1.54209 -0.374858 0
M  V30 2456 H 241.612 3.48272 1.53254 0
M  V30 2457 H 241.124 3.87294 -0.249991 0
M  V30 2458 H 239.225 3.08664 2.08704 0
M  V30 2459 H 239.338 4.67073 1.06676 0
M  V30 2460 H 237.702 2.45972 0.661037 0
M  V30 2461 H 238.485 3.34916 -0.754069 0
M  V30 2462 N 240.93 -0.123565 1.57115 0
M  V30 2463 C 242.178 -0.83051 1.84247 0
M  V30 2464 C 242.499 -1.80629 0.73471 0
M  V30 2465 O 241.769 -1.94403 -0.241688 0
M  V30 2466 H 240.349 -0.309694 0.679778 0
M  V30 2467 H 243.011 -0.111976 1.94578 0
M  V30 2468 H 242.107 -1.37852 2.80006 0
M  V30 2469 N 242.408 -1.52605 -0.393616 0
M  V30 2470 C 243.636 -1.71294 -1.16043 0
M  V30 2471 C 244.051 -0.429259 -1.83855 0
M  V30 2472 O 243.408 0.595921 -1.72496 0
M  V30 2473 C 243.459 -2.8593 -2.21193 0
M  V30 2474 O 243.18 -4.09329 -1.56146 0
M  V30 2475 C 244.681 -3.16259 -3.10636 0
M  V30 2476 H 241.901 -0.573641 -0.348104 0
M  V30 2477 H 244.445 -1.99234 -0.461092 0
M  V30 2478 H 242.6 -2.60465 -2.86769 0
M  V30 2479 H 243.014 -4.73323 -2.25978 0
M  V30 2480 H 244.488 -3.99946 -3.80456 0
M  V30 2481 H 244.965 -2.3045 -3.73884 0
M  V30 2482 H 245.571 -3.43547 -2.50711 0
M  V30 2483 N 243.887 0.651787 -1.4349 0
M  V30 2484 C 245.298 1.233 -1.40193 0
M  V30 2485 C 245.649 1.9591 -0.106727 0
M  V30 2486 O 244.774 2.01316 0.793773 0
M  V30 2487 C 245.369 2.24257 -2.53957 0
M  V30 2488 C 243.928 2.77852 -2.5392 0
M  V30 2489 C 243.075 1.52517 -2.3159 0
M  V30 2490 H 246.026 0.443717 -1.52371 0
M  V30 2491 H 246.047 3.0646 -2.25528 0
M  V30 2492 H 245.559 1.71382 -3.4821 0
M  V30 2493 H 243.66 3.34786 -1.63551 0
M  V30 2494 H 243.773 3.25299 -3.51735 0
M  V30 2495 H 242.137 1.79915 -1.80285 0
M  V30 2496 H 242.92 1.01574 -3.27929 0
M  V30 2497 N 245.365 1.30045 0.890287 0
M  V30 2498 C 246.613 1.18327 1.63839 0
M  V30 2499 C 246.934 -0.263455 1.93212 0
M  V30 2500 O 246.204 -1.17856 1.56482 0
M  V30 2501 H 244.784 0.434933 0.607324 0
M  V30 2502 H 247.446 1.631 1.06698 0
M  V30 2503 H 246.542 1.74024 2.59079 0
M  V30 2504 N 246.843 -1.10192 1.12674 0
M  V30 2505 C 247.753 -2.20172 0.810026 0
M  V30 2506 C 248.769 -1.72821 -0.202188 0
M  V30 2507 O 249.945 -2.01369 -0.0351691 0
M  V30 2508 C 247.01 -3.45631 0.272007 0
M  V30 2509 C 246.071 -4.07704 1.34447 0
M  V30 2510 C 245.304 -5.27175 0.832029 0
M  V30 2511 O 245.527 -5.69425 -0.333284 0
M  V30 2512 O 244.461 -5.80168 1.60277 0
M  V30 2513 H 248.287 -2.49701 1.72867 0
M  V30 2514 H 245.872 -1.18977 0.903597 0
M  V30 2515 H 247.754 -4.21394 -0.0230219 0
M  V30 2516 H 246.429 -3.17723 -0.619164 0
M  V30 2517 H 245.336 -3.33614 1.6927 0
M  V30 2518 H 246.669 -4.3982 2.2095 0
M  V30 2519 N 248.321 -0.919034 -1.28029 0
M  V30 2520 C 249.284 -0.416182 -2.2539 0
M  V30 2521 C 250.284 0.460438 -1.54067 0
M  V30 2522 O 251.474 0.262744 -1.72207 0
M  V30 2523 C 248.606 0.402707 -3.38513 0
M  V30 2524 H 249.799 -1.27629 -2.71387 0
M  V30 2525 H 247.352 -0.698919 -1.39803 0
M  V30 2526 H 248.087 1.282 -2.97885 0
M  V30 2527 H 247.872 -0.225698 -3.9145 0
M  V30 2528 H 249.362 0.745191 -4.10897 0
M  V30 2529 N 249.799 1.42003 -0.683588 0
M  V30 2530 C 250.762 2.29191 -0.0198243 0
M  V30 2531 C 251.762 1.43773 0.72013 0
M  V30 2532 O 252.952 1.65061 0.556815 0
M  V30 2533 C 250.084 3.26435 0.982487 0
M  V30 2534 H 251.277 2.8938 -0.787345 0
M  V30 2535 H 248.83 1.49789 -0.446418 0
M  V30 2536 H 249.565 2.71203 1.77819 0
M  V30 2537 H 249.35 3.89449 0.455182 0
M  V30 2538 H 250.84 3.918 1.44508 0
M  V30 2539 N 251.277 0.427512 1.51691 0
M  V30 2540 C 252.187 -0.39527 2.31246 0
M  V30 2541 C 253.203 -1.03674 1.39742 0
M  V30 2542 O 254.379 -1.03425 1.72816 0
M  V30 2543 C 251.444 -1.48706 3.13189 0
M  V30 2544 C 250.505 -0.866743 4.20459 0
M  V30 2545 C 249.738 -1.90651 4.98486 0
M  V30 2546 O 249.961 -3.12733 4.77026 0
M  V30 2547 O 248.895 -1.5025 5.82845 0
M  V30 2548 H 252.721 0.253918 3.02637 0
M  V30 2549 H 250.306 0.190274 1.48183 0
M  V30 2550 H 252.188 -2.12047 3.64162 0
M  V30 2551 H 250.863 -2.12051 2.44573 0
M  V30 2552 H 249.77 -0.195544 3.73589 0
M  V30 2553 H 251.103 -0.276934 4.9142 0
M  V30 2554 N 252.755 -1.56801 0.158532 0
M  V30 2555 C 253.983 -2.00859 -0.496303 0
M  V30 2556 C 254.398 -1.03871 -1.57659 0
M  V30 2557 O 253.755 -0.0375165 -1.82461 0
M  V30 2558 C 253.806 -3.4479 -1.08638 0
M  V30 2559 O 253.527 -4.38072 -0.0492322 0
M  V30 2560 C 255.028 -4.04185 -1.8207 0
M  V30 2561 H 252.248 -0.65864 -0.128199 0
M  V30 2562 H 254.792 -2.02885 0.256506 0
M  V30 2563 H 252.947 -3.43579 -1.78975 0
M  V30 2564 H 253.361 -5.2227 -0.483102 0
M  V30 2565 H 254.835 -5.06857 -2.18633 0
M  V30 2566 H 255.312 -3.45549 -2.71095 0
M  V30 2567 H 255.918 -4.0906 -1.16405 0
M  V30 2568 N 254.233 0.115231 -1.57178 0
M  V30 2569 C 255.644 0.67197 -1.74188 0
M  V30 2570 C 255.995 1.80125 -0.777777 0
M  V30 2571 O 255.12 2.16346 0.0484376 0
M  V30 2572 C 255.715 1.22573 -3.1585 0
M  V30 2573 C 254.274 1.72872 -3.34353 0
M  V30 2574 C 253.421 0.629972 -2.70049 0
M  V30 2575 H 256.372 -0.110712 -1.58313 0
M  V30 2576 H 256.393 2.09535 -3.17609 0
M  V30 2577 H 255.905 0.403598 -3.85996 0
M  V30 2578 H 254.006 2.5755 -2.69256 0
M  V30 2579 H 254.119 1.83557 -4.42542 0
M  V30 2580 H 252.483 1.0645 -2.31388 0
M  V30 2581 H 253.266 -0.181241 -3.42821 0
M  V30 2582 N 255.711 1.52812 0.385517 0
M  V30 2583 C 256.674 1.77188 1.45386 0
M  V30 2584 C 257.674 0.641953 1.4743 0
M  V30 2585 O 258.864 0.910033 1.4854 0
M  V30 2586 C 255.996 1.87582 2.8465 0
M  V30 2587 H 257.189 2.72583 1.25054 0
M  V30 2588 H 254.742 1.43586 0.617467 0
M  V30 2589 H 255.477 0.941849 3.10322 0
M  V30 2590 H 255.262 2.69748 2.84567 0
M  V30 2591 H 256.752 2.08102 3.62054 0
M  V30 2592 N 257.189 -0.644168 1.43834 0
M  V30 2593 C 258.605 -0.960875 1.27434 0
M  V30 2594 C 258.805 -2.00499 0.200618 0
M  V30 2595 O 257.861 -2.49018 -0.417906 0
M  V30 2596 C 259.174 -1.43653 2.64167 0
M  V30 2597 C 260.722 -1.55271 2.71772 0
M  V30 2598 C 261.197 -2.06224 4.08944 0
M  V30 2599 N 262.688 -2.13513 4.11055 0
M  V30 2600 C 263.423 -2.54081 5.14033 0
M  V30 2601 N 262.919 -2.9388 6.27381 0
M  V30 2602 N 264.712 -2.54101 5.01387 0
M  V30 2603 H 256.863 0.0465779 2.12349 0
M  V30 2604 H 259.126 -0.0417638 0.94708 0
M  V30 2605 H 258.832 -0.743706 3.43747 0
M  V30 2606 H 258.706 -2.40993 2.90176 0
M  V30 2607 H 261.093 -2.23653 1.92519 0
M  V30 2608 H 261.174 -0.563395 2.49519 0
M  V30 2609 H 260.818 -1.38441 4.88668 0
M  V30 2610 H 260.748 -3.06003 4.28567 0
M  V30 2611 H 263.239 -1.85493 3.29242 0
M  V30 2612 H 263.552 -3.2361 7.01781 0
M  V30 2613 H 261.897 -2.91663 6.30839 0
M  V30 2614 H 265.088 -2.22391 4.11898 0
M  V30 2615 H 265.261 -2.85394 5.81768 0
M  V30 2616 N 258.668 -1.30515 -0.883378 0
M  V30 2617 C 260.079 -1.17509 -1.45081 0
M  V30 2618 C 260.43 0.223605 -1.94922 0
M  V30 2619 O 259.555 1.12041 -1.85137 0
M  V30 2620 C 260.15 -2.12715 -2.63701 0
M  V30 2621 C 258.709 -2.03682 -3.16529 0
M  V30 2622 C 257.856 -2.02706 -1.89224 0
M  V30 2623 H 260.807 -1.42762 -0.693165 0
M  V30 2624 H 260.828 -1.70891 -3.39965 0
M  V30 2625 H 260.34 -3.14505 -2.27395 0
M  V30 2626 H 258.441 -1.05039 -3.57488 0
M  V30 2627 H 258.554 -2.92146 -3.7972 0
M  V30 2628 H 256.918 -1.4753 -2.07622 0
M  V30 2629 H 257.701 -3.06229 -1.55174 0
M  V30 2630 N 260.146 1.09593 -1.13257 0
M  V30 2631 C 261.394 1.81375 -0.891492 0
M  V30 2632 C 261.715 1.86049 0.584009 0
M  V30 2633 O 260.985 1.34481 1.42449 0
M  V30 2634 H 259.565 0.671708 -0.326828 0
M  V30 2635 H 262.227 1.3256 -1.42877 0
M  V30 2636 H 261.323 2.84612 -1.28071 0
M  V30 2637 N 261.624 0.925811 1.2754 0
M  V30 2638 C 262.554 0.440748 2.29303 0
M  V30 2639 C 263.535 -0.497971 1.62648 0
M  V30 2640 O 264.72 -0.403126 1.8997 0
M  V30 2641 C 261.85 -0.309048 3.45922 0
M  V30 2642 C 260.804 0.54166 4.24559 0
M  V30 2643 C 260.13 -0.337191 5.33636 0
M  V30 2644 C 261.43 1.80516 4.90114 0
M  V30 2645 H 263.124 1.29121 2.70126 0
M  V30 2646 H 260.67 0.622323 1.29858 0
M  V30 2647 H 262.623 -0.659315 4.1621 0
M  V30 2648 H 261.347 -1.19352 3.04011 0
M  V30 2649 H 260.006 0.874609 3.56014 0
M  V30 2650 H 259.654 -1.22056 4.87966 0
M  V30 2651 H 259.354 0.228497 5.87156 0
M  V30 2652 H 260.878 -0.683072 6.06767 0
M  V30 2653 H 262.292 1.52307 5.52698 0
M  V30 2654 H 260.689 2.3142 5.53683 0
M  V30 2655 H 261.759 2.52581 4.13921 0
M  V30 2656 N 263.102 -1.41638 0.69111 0
M  V30 2657 C 264.065 -2.29178 0.0319786 0
M  V30 2658 C 265.065 -1.44153 -0.712496 0
M  V30 2659 O 266.255 -1.65354 -0.548053 0
M  V30 2660 C 263.387 -3.26952 -0.965161 0
M  V30 2661 H 264.58 -2.88959 0.802681 0
M  V30 2662 H 262.133 -1.4955 0.454356 0
M  V30 2663 H 262.868 -2.72142 -1.76378 0
M  V30 2664 H 262.653 -3.89685 -0.434522 0
M  V30 2665 H 264.143 -3.92561 -1.42428 0
M  V30 2666 N 264.58 -0.43555 -1.51462 0
M  V30 2667 C 265.527 0.376797 -2.27703 0
M  V30 2668 C 266.497 1.01838 -1.31219 0
M  V30 2669 O 267.682 1.03762 -1.60119 0
M  V30 2670 C 264.822 1.47301 -3.12084 0
M  V30 2671 C 263.935 0.849744 -4.2356 0
M  V30 2672 C 263.07 1.92086 -4.95254 0
M  V30 2673 C 262.109 1.27593 -5.98654 0
M  V30 2674 N 261.246 2.28833 -6.63762 0
M  V30 2675 H 266.086 -0.279734 -2.96684 0
M  V30 2676 H 263.623 -0.149795 -1.46335 0
M  V30 2677 H 265.581 2.11984 -3.59331 0
M  V30 2678 H 264.211 2.0992 -2.45221 0
M  V30 2679 H 263.263 0.0912529 -3.80291 0
M  V30 2680 H 264.575 0.338878 -4.97648 0
M  V30 2681 H 263.729 2.64435 -5.46039 0
M  V30 2682 H 262.468 2.46545 -4.20793 0
M  V30 2683 H 261.473 0.537893 -5.47162 0
M  V30 2684 H 262.698 0.738693 -6.7507 0
M  V30 2685 H 260.644 2.82375 -5.92115 0
M  V30 2686 H 260.561 1.82632 -7.33608 0
M  V30 2687 H 261.829 3.00671 -7.19178 0
M  V30 2688 N 266.058 1.56714 -0.166846 0
M  V30 2689 C 267.005 2.17746 0.765193 0
M  V30 2690 C 267.975 1.11614 1.23011 0
M  V30 2691 O 269.16 1.39745 1.29908 0
M  V30 2692 C 266.3 2.81882 1.9909 0
M  V30 2693 C 265.413 4.02462 1.56997 0
M  V30 2694 C 264.548 4.54537 2.749 0
M  V30 2695 C 263.587 5.67538 2.29275 0
M  V30 2696 N 262.724 6.14142 3.40255 0
M  V30 2697 H 267.564 2.97048 0.237952 0
M  V30 2698 H 265.101 1.4672 0.105725 0
M  V30 2699 H 267.059 3.17221 2.70974 0
M  V30 2700 H 265.689 2.05191 2.49192 0
M  V30 2701 H 264.741 3.72973 0.748037 0
M  V30 2702 H 266.053 4.84273 1.19503 0
M  V30 2703 H 265.207 4.92035 3.54946 0
M  V30 2704 H 263.946 3.71774 3.1565 0
M  V30 2705 H 262.951 5.29597 1.47674 0
M  V30 2706 H 264.176 6.52099 1.89588 0
M  V30 2707 H 262.122 5.3431 3.8059 0
M  V30 2708 H 262.039 6.9093 3.06841 0
M  V30 2709 H 263.307 6.56289 4.206 0
M  V30 2710 N 267.536 -0.106894 1.57237 0
M  V30 2711 C 268.783 -0.812526 1.85484 0
M  V30 2712 C 269.111 -1.79304 0.753687 0
M  V30 2713 O 268.366 -1.94047 -0.253853 0
M  V30 2714 C 268.665 -1.58628 3.20268 0
M  V30 2715 C 268.331 -0.748967 4.44636 0
M  V30 2716 C 266.993 -0.518104 4.78403 0
M  V30 2717 C 269.345 -0.166122 5.20935 0
M  V30 2718 C 266.673 0.305659 5.85903 0
M  V30 2719 C 269.025 0.644899 6.29304 0
M  V30 2720 C 267.689 0.885965 6.61594 0
M  V30 2721 H 266.959 -0.297324 0.678734 0
M  V30 2722 H 269.606 -0.0744332 1.91355 0
M  V30 2723 H 267.911 -2.39562 3.10028 0
M  V30 2724 H 269.608 -2.13643 3.39349 0
M  V30 2725 H 266.198 -0.939006 4.18187 0
M  V30 2726 H 270.382 -0.33167 4.95191 0
M  V30 2727 H 265.638 0.501528 6.0934 0
M  V30 2728 H 269.812 1.10345 6.87602 0
M  V30 2729 H 267.439 1.52609 7.44725 0
M  V30 2730 N 269.014 -1.53014 -0.377408 0
M  V30 2731 C 269.944 -1.81589 -1.46791 0
M  V30 2732 C 270.925 -0.668622 -1.56408 0
M  V30 2733 O 272.11 -0.917337 -1.71168 0
M  V30 2734 C 269.24 -1.99519 -2.8427 0
M  V30 2735 C 268.194 -3.15249 -2.89486 0
M  V30 2736 C 267.52 -3.18451 -4.29527 0
M  V30 2737 C 268.82 -4.54084 -2.58079 0
M  V30 2738 H 270.514 -2.7291 -1.23127 0
M  V30 2739 H 268.06 -1.31319 -0.590883 0
M  V30 2740 H 270.013 -2.18092 -3.60575 0
M  V30 2741 H 268.737 -1.04897 -3.09296 0
M  V30 2742 H 267.396 -2.96477 -2.15631 0
M  V30 2743 H 267.044 -2.2149 -4.5161 0
M  V30 2744 H 266.744 -3.962 -4.33934 0
M  V30 2745 H 268.268 -3.39193 -5.07721 0
M  V30 2746 H 269.682 -4.72899 -3.24098 0
M  V30 2747 H 268.079 -5.33987 -2.7382 0
M  V30 2748 H 269.149 -4.60006 -1.53372 0
M  V30 2749 N 270.492 0.636531 -1.44174 0
M  V30 2750 C 271.903 1.21806 -1.41493 0
M  V30 2751 C 272.254 1.95785 -0.1275 0
M  V30 2752 O 271.379 2.02147 0.772376 0
M  V30 2753 C 271.974 2.21551 -2.56321 0
M  V30 2754 C 270.533 2.75143 -2.56853 0
M  V30 2755 C 269.68 1.50052 -2.33195 0
M  V30 2756 H 272.631 0.427531 -1.52833 0
M  V30 2757 H 272.652 3.0405 -2.28765 0
M  V30 2758 H 272.164 1.67679 -3.50008 0
M  V30 2759 H 270.265 3.33033 -1.67093 0
M  V30 2760 H 270.378 3.2155 -3.55165 0
M  V30 2761 H 268.742 1.77993 -1.82183 0
M  V30 2762 H 269.525 0.980903 -3.28988 0
M  V30 2763 N 271.97 1.30982 0.876444 0
M  V30 2764 C 273.216 1.21484 1.63136 0
M  V30 2765 C 273.571 -0.226339 1.91064 0
M  V30 2766 O 272.864 -1.15788 1.52656 0
M  V30 2767 C 273.058 1.98572 2.9716 0
M  V30 2768 C 272.887 3.50039 2.82317 0
M  V30 2769 C 271.657 4.19393 2.81847 0
M  V30 2770 C 273.855 4.45111 2.57644 0
M  V30 2771 N 271.837 5.57061 2.57985 0
M  V30 2772 C 273.208 5.70402 2.42986 0
M  V30 2773 C 275.263 4.3461 2.42937 0
M  V30 2774 C 273.966 6.8638 2.15115 0
M  V30 2775 C 275.992 5.50365 2.16454 0
M  V30 2776 C 275.354 6.74642 2.02578 0
M  V30 2777 H 271.453 0.499632 0.601575 0
M  V30 2778 H 274.037 1.65094 1.03209 0
M  V30 2779 H 272.208 1.5734 3.55104 0
M  V30 2780 H 273.94 1.81146 3.61895 0
M  V30 2781 H 270.695 3.71303 2.93991 0
M  V30 2782 H 271.119 6.29529 2.49043 0
M  V30 2783 H 275.761 3.39199 2.52396 0
M  V30 2784 H 273.479 7.81824 2.04394 0
M  V30 2785 H 277.065 5.44154 2.05884 0
M  V30 2786 H 275.945 7.62699 1.82374 0
M  V30 2787 N 273.449 -1.08991 1.13837 0
M  V30 2788 C 274.674 -1.85551 0.926585 0
M  V30 2789 C 275.099 -1.80782 -0.519566 0
M  V30 2790 O 274.457 -1.18855 -1.36906 0
M  V30 2791 C 274.505 -3.31266 1.42462 0
M  V30 2792 O 273.609 -4.07822 0.612789 0
M  V30 2793 H 272.95 -0.575192 0.331738 0
M  V30 2794 H 275.48 -1.37604 1.51414 0
M  V30 2795 H 275.49 -3.82112 1.43019 0
M  V30 2796 H 274.165 -3.34052 2.47754 0
M  V30 2797 H 272.742 -3.66731 0.675463 0
M  V30 2798 N 274.927 -0.932562 -1.27047 0
M  V30 2799 C 275.857 -0.452902 -2.29066 0
M  V30 2800 C 276.838 0.489338 -1.62909 0
M  V30 2801 O 278.023 0.393046 -1.90181 0
M  V30 2802 C 275.153 0.290698 -3.46081 0
M  V30 2803 C 274.107 -0.564168 -4.24265 0
M  V30 2804 C 273.433 0.308886 -5.33807 0
M  V30 2805 C 274.733 -1.83112 -4.89149 0
M  V30 2806 H 276.427 -1.30552 -2.69437 0
M  V30 2807 H 273.973 -0.629201 -1.29526 0
M  V30 2808 H 275.926 0.637233 -4.16554 0
M  V30 2809 H 274.65 1.17738 -3.0464 0
M  V30 2810 H 273.309 -0.893477 -3.55545 0
M  V30 2811 H 272.957 1.19467 -4.88607 0
M  V30 2812 H 272.657 -0.259633 -5.87026 0
M  V30 2813 H 274.181 0.650884 -6.07121 0
M  V30 2814 H 275.595 -1.55236 -5.51883 0
M  V30 2815 H 273.992 -2.34353 -5.52448 0
M  V30 2816 H 275.062 -2.54772 -4.12576 0
M  V30 2817 N 276.405 1.4127 -0.698611 0
M  V30 2818 C 277.368 2.29158 -0.044132 0
M  V30 2819 C 278.368 1.44529 0.704841 0
M  V30 2820 O 279.558 1.65643 0.539276 0
M  V30 2821 C 276.69 3.27459 0.947809 0
M  V30 2822 H 277.883 2.88529 -0.817994 0
M  V30 2823 H 275.436 1.49307 -0.46228 0
M  V30 2824 H 276.171 2.73073 1.74933 0
M  V30 2825 H 275.956 3.8991 0.41385 0
M  V30 2826 H 277.446 3.93311 1.40344 0
M  V30 2827 N 277.883 0.443576 1.51229 0
M  V30 2828 C 279.299 0.0962001 1.5931 0
M  V30 2829 C 279.499 -1.39501 1.45402 0
M  V30 2830 O 278.555 -2.16557 1.29843 0
M  V30 2831 C 279.868 0.621875 2.94199 0
M  V30 2832 C 281.416 0.582865 3.07525 0
M  V30 2833 C 281.891 1.08562 4.44948 0
M  V30 2834 N 283.382 1.04387 4.51284 0
M  V30 2835 C 284.117 1.40368 5.55954 0
M  V30 2836 N 283.613 1.83664 6.68011 0
M  V30 2837 N 285.406 1.32145 5.46346 0
M  V30 2838 H 277.557 1.41376 1.58514 0
M  V30 2839 H 279.82 0.582965 0.747567 0
M  V30 2840 H 279.526 1.66546 3.09767 0
M  V30 2841 H 279.4 0.0502125 3.77167 0
M  V30 2842 H 281.787 -0.451749 2.91622 0
M  V30 2843 H 281.868 1.191 2.26382 0
M  V30 2844 H 281.512 2.11873 4.61598 0
M  V30 2845 H 281.442 0.453956 5.2464 0
M  V30 2846 H 283.933 0.725986 3.70861 0
M  V30 2847 H 284.246 2.0934 7.43906 0
M  V30 2848 H 282.591 1.87596 6.69203 0
M  V30 2849 H 285.782 0.981808 4.57688 0
M  V30 2850 H 285.955 1.60514 6.27805 0
M  V30 2851 N 279.361 -1.56624 0.175154 0
M  V30 2852 C 280.271 -2.21741 -0.766042 0
M  V30 2853 C 281.287 -1.21023 -1.25018 0
M  V30 2854 O 282.463 -1.53697 -1.3015 0
M  V30 2855 C 279.528 -2.84839 -1.97655 0
M  V30 2856 C 278.589 -4.00769 -1.53892 0
M  V30 2857 C 277.822 -4.60849 -2.69173 0
M  V30 2858 O 278.045 -4.19823 -3.86141 0
M  V30 2859 O 276.979 -5.50655 -2.43028 0
M  V30 2860 H 280.805 -3.02738 -0.241585 0
M  V30 2861 H 278.39 -1.49305 -0.053222 0
M  V30 2862 H 280.272 -3.24834 -2.68442 0
M  V30 2863 H 278.947 -2.06836 -2.48999 0
M  V30 2864 H 277.854 -3.65436 -0.80044 0
M  V30 2865 H 279.187 -4.80376 -1.07236 0
M  V30 2866 N 280.839 0.0985539 -1.57292 0
M  V30 2867 C 282.25 0.653457 -1.74891 0
M  V30 2868 C 282.601 1.7929 -0.796838 0
M  V30 2869 O 281.726 2.16385 0.0254886 0
M  V30 2870 C 282.321 1.19216 -3.17133 0
M  V30 2871 C 280.88 1.69316 -3.36168 0
M  V30 2872 C 280.027 0.601294 -2.70702 0
M  V30 2873 H 282.978 -0.127497 -1.58187 0
M  V30 2874 H 282.999 2.06154 -3.19814 0
M  V30 2875 H 282.511 0.362635 -3.86402 0
M  V30 2876 H 280.612 2.5468 -2.71972 0
M  V30 2877 H 280.725 1.78853 -4.44464 0
M  V30 2878 H 279.089 1.0399 -2.32504 0
M  V30 2879 H 279.872 -0.217592 -3.4261 0
M  V30 2880 N 282.317 1.53212 0.369288 0
M  V30 2881 C 283.728 1.60943 0.946276 0
M  V30 2882 C 284.079 0.47452 1.90375 0
M  V30 2883 O 283.204 -0.399597 2.12679 0
M  V30 2884 C 283.799 2.91715 1.72302 0
M  V30 2885 C 282.358 3.01792 2.24941 0
M  V30 2886 C 281.505 2.56211 1.06072 0
M  V30 2887 H 284.456 1.58007 0.148198 0
M  V30 2888 H 284.477 2.79309 2.58393 0
M  V30 2889 H 283.989 3.74295 1.0259 0
M  V30 2890 H 282.09 2.23791 2.97906 0
M  V30 2891 H 282.203 4.06803 2.53077 0
M  V30 2892 H 280.567 2.10998 1.4266 0
M  V30 2893 H 281.35 3.41206 0.378639 0
M  V30 2894 N 283.795 -0.628877 1.44509 0
M  V30 2895 C 285.206 -1.21054 1.42137 0
M  V30 2896 C 285.557 -1.95715 0.137881 0
M  V30 2897 O 284.682 -2.02554 -0.761645 0
M  V30 2898 C 285.277 -2.20189 2.57493 0
M  V30 2899 C 283.836 -2.73777 2.58308 0
M  V30 2900 C 282.983 -1.48813 2.33987 0
M  V30 2901 H 285.934 -0.41942 1.53057 0
M  V30 2902 H 285.955 -3.02833 2.30375 0
M  V30 2903 H 285.467 -1.6582 3.50892 0
M  V30 2904 H 283.568 -3.32142 1.68856 0
M  V30 2905 H 283.681 -3.19662 3.56865 0
M  V30 2906 H 282.045 -1.77024 1.83124 0
M  V30 2907 H 282.828 -0.963442 3.29504 0
M  V30 2908 N 285.273 -1.31445 -0.869486 0
M  V30 2909 C 286.183 -1.21097 -2.0093 0
M  V30 2910 C 287.199 -0.127584 -1.73532 0
M  V30 2911 O 288.375 -0.345477 -1.98415 0
M  V30 2912 C 285.44 -0.919378 -3.34288 0
M  V30 2913 C 284.501 -2.08971 -3.75006 0
M  V30 2914 C 283.734 -1.81194 -5.02001 0
M  V30 2915 O 283.957 -0.747296 -5.65484 0
M  V30 2916 O 282.891 -2.66883 -5.39497 0
M  V30 2917 H 286.717 -2.16883 -2.12592 0
M  V30 2918 H 284.302 -1.11189 -0.997868 0
M  V30 2919 H 286.184 -0.772625 -4.14257 0
M  V30 2920 H 284.859 0.00844772 -3.23699 0
M  V30 2921 H 283.766 -2.29187 -2.95676 0
M  V30 2922 H 285.099 -2.9998 -3.90221 0
M  V30 2923 N 286.751 1.08385 -1.14413 0
M  V30 2924 C 287.714 2.13486 -0.834048 0
M  V30 2925 C 288.714 1.59988 0.161418 0
M  V30 2926 O 289.904 1.74071 -0.0669575 0
M  V30 2927 C 287.036 3.4003 -0.243354 0
M  V30 2928 H 288.229 2.42425 -1.7655 0
M  V30 2929 H 285.782 1.24101 -0.950189 0
M  V30 2930 H 286.517 3.16726 0.696807 0
M  V30 2931 H 286.302 3.80157 -0.960367 0
M  V30 2932 H 287.792 4.17577 -0.0436242 0
M  V30 2933 N 288.23 0.939286 1.26551 0
M  V30 2934 C 289.16 0.465044 2.28822 0
M  V30 2935 C 290.141 -0.480692 1.63167 0
M  V30 2936 O 291.326 -0.382955 1.90387 0
M  V30 2937 C 288.456 -0.27234 3.46231 0
M  V30 2938 C 287.41 0.58666 4.2396 0
M  V30 2939 C 286.736 -0.280573 5.33963 0
M  V30 2940 C 288.036 1.85704 4.88171 0
M  V30 2941 H 289.73 1.31979 2.68741 0
M  V30 2942 H 287.276 0.636061 1.29191 0
M  V30 2943 H 289.229 -0.615133 4.16886 0
M  V30 2944 H 287.953 -1.16121 3.0526 0
M  V30 2945 H 286.612 0.91232 3.55067 0
M  V30 2946 H 286.26 -1.16874 4.89234 0
M  V30 2947 H 285.96 0.29076 5.8688 0
M  V30 2948 H 287.484 -0.618678 6.07458 0
M  V30 2949 H 288.898 1.58161 5.51052 0
M  V30 2950 H 287.295 2.37279 5.51197 0
M  V30 2951 H 288.365 2.56957 4.11219 0
M  V30 2952 N 289.708 -1.40897 0.706093 0
M  V30 2953 C 290.655 -2.30751 0.0474474 0
M  V30 2954 C 291.625 -1.47678 -0.76029 0
M  V30 2955 O 292.81 -1.76441 -0.726177 0
M  V30 2956 C 289.95 -3.33815 -0.875309 0
M  V30 2957 C 289.063 -4.31961 -0.0580623 0
M  V30 2958 C 288.198 -5.22093 -0.979425 0
M  V30 2959 C 287.237 -6.11902 -0.155706 0
M  V30 2960 N 286.374 -6.94482 -1.03144 0
M  V30 2961 H 291.214 -2.86513 0.819413 0
M  V30 2962 H 288.751 -1.41102 0.415783 0
M  V30 2963 H 290.709 -3.92129 -1.42446 0
M  V30 2964 H 289.339 -2.79579 -1.61356 0
M  V30 2965 H 288.391 -3.75507 0.608147 0
M  V30 2966 H 289.703 -4.95415 0.580082 0
M  V30 2967 H 288.857 -5.85292 -1.59744 0
M  V30 2968 H 287.596 -4.5889 -1.65141 0
M  V30 2969 H 286.601 -5.47742 0.475309 0
M  V30 2970 H 287.826 -6.77162 0.512635 0
M  V30 2971 H 285.772 -6.33877 -1.68924 0
M  V30 2972 H 285.689 -7.54665 -0.449108 0
M  V30 2973 H 286.957 -7.6214 -1.63593 0
M  V30 2974 N 291.186 -0.45159 -1.50991 0
M  V30 2975 C 292.096 0.358431 -2.31846 0
M  V30 2976 C 293.112 1.01438 -1.41373 0
M  V30 2977 O 294.288 1.00663 -1.74439 0
M  V30 2978 C 291.353 1.43704 -3.15515 0
M  V30 2979 C 290.414 0.799742 -4.21785 0
M  V30 2980 C 289.647 1.82696 -5.01456 0
M  V30 2981 O 289.87 3.05105 -4.81941 0
M  V30 2982 O 288.804 1.40958 -5.85162 0
M  V30 2983 H 292.63 -0.302032 -3.02194 0
M  V30 2984 H 290.215 -0.213825 -1.47862 0
M  V30 2985 H 292.097 2.06227 -3.67489 0
M  V30 2986 H 290.772 2.08133 -2.47916 0
M  V30 2987 H 289.679 0.136084 -3.73852 0
M  V30 2988 H 291.012 0.198718 -4.91799 0
M  V30 2989 N 292.664 1.56529 -0.183458 0
M  V30 2990 C 293.627 2.17324 0.728223 0
M  V30 2991 C 294.627 1.12453 1.14939 0
M  V30 2992 O 295.817 1.37902 1.06437 0
M  V30 2993 C 292.949 2.76591 1.99274 0
M  V30 2994 H 294.142 2.99241 0.198772 0
M  V30 2995 H 291.695 1.5616 0.0661391 0
M  V30 2996 H 292.43 1.98441 2.56499 0
M  V30 2997 H 292.215 3.5335 1.69959 0
M  V30 2998 H 293.705 3.23311 2.6431 0
M  V30 2999 N 294.142 -0.090211 1.57342 0
M  V30 3000 C 295.388 -0.793982 1.86611 0
M  V30 3001 C 295.721 -1.78142 0.773252 0
M  V30 3002 O 294.996 -1.93271 -0.218304 0
M  V30 3003 C 295.279 -1.51839 3.26523 0
M  V30 3004 C 295.132 -0.548609 4.46442 0
M  V30 3005 C 296.451 -2.46779 3.64401 0
M  V30 3006 H 293.57 -0.287186 0.678744 0
M  V30 3007 H 296.212 -0.0575076 1.89913 0
M  V30 3008 H 294.362 -2.14617 3.23839 0
M  V30 3009 H 296.034 0.0725513 4.61243 0
M  V30 3010 H 294.277 0.137614 4.33582 0
M  V30 3011 H 294.948 -1.09271 5.41076 0
M  V30 3012 H 297.424 -1.94089 3.68061 0
M  V30 3013 H 296.3 -2.94479 4.63221 0
M  V30 3014 H 296.561 -3.30758 2.93346 0
M  V30 3015 N 295.62 -1.53406 -0.361157 0
M  V30 3016 C 296.55 -1.83136 -1.44857 0
M  V30 3017 C 297.531 -0.685174 -1.5569 0
M  V30 3018 O 298.716 -0.93544 -1.70186 0
M  V30 3019 C 295.846 -2.02522 -2.82138 0
M  V30 3020 C 294.8 -3.18302 -2.86126 0
M  V30 3021 C 294.126 -3.22989 -4.26125 0
M  V30 3022 C 295.426 -4.56796 -2.53248 0
M  V30 3023 H 297.12 -2.74201 -1.20226 0
M  V30 3024 H 294.666 -1.31938 -0.576922 0
M  V30 3025 H 296.619 -2.21904 -3.58241 0
M  V30 3026 H 295.343 -1.08172 -3.08166 0
M  V30 3027 H 294.002 -2.98747 -2.12475 0
M  V30 3028 H 293.65 -2.26267 -4.49235 0
M  V30 3029 H 293.35 -4.00781 -4.29708 0
M  V30 3030 H 294.874 -3.44559 -5.04094 0
M  V30 3031 H 296.288 -4.7631 -3.19064 0
M  V30 3032 H 294.685 -5.36862 -2.68141 0
M  V30 3033 H 295.755 -4.61606 -1.48484 0
M  V30 3034 N 297.098 0.621204 -1.44841 0
M  V30 3035 C 298.514 0.94048 -1.28946 0
M  V30 3036 C 298.714 2.00154 -0.23249 0
M  V30 3037 O 297.77 2.49651 0.378237 0
M  V30 3038 C 299.083 1.39433 -2.66419 0
M  V30 3039 C 300.631 1.50927 -2.74208 0
M  V30 3040 C 301.106 1.99692 -4.12174 0
M  V30 3041 N 302.597 2.06947 -4.144 0
M  V30 3042 C 303.332 2.45871 -5.1801 0
M  V30 3043 N 302.828 2.83862 -6.31977 0
M  V30 3044 N 304.621 2.46092 -5.05366 0
M  V30 3045 H 296.772 -0.0803548 -2.12248 0
M  V30 3046 H 299.035 0.0266913 -0.947624 0
M  V30 3047 H 298.741 0.688925 -3.44887 0
M  V30 3048 H 298.615 2.36347 -2.93973 0
M  V30 3049 H 301.002 2.20561 -1.96053 0
M  V30 3050 H 301.083 0.523627 -2.50383 0
M  V30 3051 H 300.727 1.30649 -4.90809 0
M  V30 3052 H 300.657 2.99146 -4.33381 0
M  V30 3053 H 303.148 1.80232 -3.32152 0
M  V30 3054 H 303.461 3.12405 -7.0684 0
M  V30 3055 H 301.806 2.8159 -6.35399 0
M  V30 3056 H 304.997 2.1581 -4.15384 0
M  V30 3057 H 305.17 2.76102 -5.86235 0
M  V30 3058 N 298.576 1.31904 0.862503 0
M  V30 3059 C 299.806 1.24817 1.64634 0
M  V30 3060 C 300.214 -0.187579 1.88268 0
M  V30 3061 O 299.557 -1.13253 1.44635 0
M  V30 3062 C 299.619 1.92996 3.03303 0
M  V30 3063 C 299.283 3.42336 3.02746 0
M  V30 3064 C 300.28 4.37956 2.80162 0
M  V30 3065 C 297.965 3.84147 3.2363 0
M  V30 3066 C 299.959 5.73361 2.78453 0
M  V30 3067 C 297.646 5.19663 3.21549 0
M  V30 3068 C 298.644 6.14081 2.98988 0
M  V30 3069 O 298.332 7.47118 2.96766 0
M  V30 3070 H 298.064 0.432222 0.519769 0
M  V30 3071 H 300.618 1.7445 1.08427 0
M  V30 3072 H 298.848 1.37922 3.61268 0
M  V30 3073 H 300.537 1.79723 3.63943 0
M  V30 3074 H 301.303 4.06981 2.63802 0
M  V30 3075 H 297.182 3.11083 3.40218 0
M  V30 3076 H 300.726 6.4703 2.60763 0
M  V30 3077 H 296.623 5.5027 3.37451 0
M  V30 3078 H 297.391 7.56382 3.12775 0
M  V30 3079 N 300.054 -1.07777 1.14986 0
M  V30 3080 C 301.279 -1.84558 0.946213 0
M  V30 3081 C 301.704 -1.81323 -0.500362 0
M  V30 3082 O 301.062 -1.20301 -1.35637 0
M  V30 3083 C 301.11 -3.29736 1.45968 0
M  V30 3084 O 300.214 -4.07149 0.65601 0
M  V30 3085 H 299.555 -0.571641 0.33782 0
M  V30 3086 H 302.085 -1.35991 1.52865 0
M  V30 3087 H 302.095 -3.80574 1.47063 0
M  V30 3088 H 300.77 -3.31406 2.51283 0
M  V30 3089 H 299.347 -3.65994 0.714322 0
M  V30 3090 N 301.532 -0.945985 -1.26051 0
M  V30 3091 C 302.462 -0.477172 -2.28572 0
M  V30 3092 C 303.443 0.472032 -1.63419 0
M  V30 3093 O 304.628 0.372853 -1.90587 0
M  V30 3094 C 301.758 0.253975 -3.4637 0
M  V30 3095 C 300.712 -0.609135 -4.23643 0
M  V30 3096 C 300.038 0.252252 -5.34105 0
M  V30 3097 C 301.338 -1.8829 -4.8718 0
M  V30 3098 H 303.032 -1.33402 -2.68038 0
M  V30 3099 H 300.578 -0.642904 -1.28852 0
M  V30 3100 H 302.531 0.593016 -4.17207 0
M  V30 3101 H 301.255 1.145 -3.05871 0
M  V30 3102 H 299.914 -0.931138 -3.54578 0
M  V30 3103 H 299.562 1.14278 -4.89846 0
M  V30 3104 H 299.262 -0.32188 -5.86718 0
M  V30 3105 H 300.786 0.586454 -6.07777 0
M  V30 3106 H 302.2 -1.61081 -5.50205 0
M  V30 3107 H 300.597 -2.40199 -5.49931 0
M  V30 3108 H 301.667 -2.59134 -4.09851 0
M  V30 3109 N 303.011 1.40521 -0.713556 0
M  V30 3110 C 303.974 2.29098 -0.0684347 0
M  V30 3111 C 304.974 1.45268 0.689472 0
M  V30 3112 O 306.164 1.66205 0.521677 0
M  V30 3113 C 303.296 3.28446 0.913024 0
M  V30 3114 H 304.489 2.87645 -0.84855 0
M  V30 3115 H 302.042 1.48809 -0.47809 0
M  V30 3116 H 302.777 2.74913 1.72027 0
M  V30 3117 H 302.562 3.90327 0.372472 0
M  V30 3118 H 304.052 3.94777 1.36165 0
M  V30 3119 N 304.489 0.459591 1.5075 0
M  V30 3120 C 305.766 -0.160371 1.94941 0
M  V30 3121 C 306.146 -1.58048 1.39943 0
M  V30 3122 O 305.494 -2.206 0.595629 0
M  V30 3123 C 305.704 -0.115432 3.48809 0
M  V30 3124 C 307.052 -0.310026 4.23467 0
M  V30 3125 O 308.076 -0.192543 3.55679 0
M  V30 3126 O 306.935 -0.546031 5.43765 0
M  V30 3127 H 304.029 -0.117925 0.818549 0
M  V30 3128 H 306.575 0.519169 1.61563 0
M  V30 3129 H 305.347 0.87652 3.81357 0
M  V30 3130 H 304.97 -0.836928 3.88692 0
M  V30 3131 N 305.967 -1.56429 0.191757 0
M  V30 3132 C 306.877 -2.22541 -0.742481 0
M  V30 3133 C 307.893 -1.22342 -1.23727 0
M  V30 3134 O 309.069 -1.55069 -1.28513 0
M  V30 3135 C 306.134 -2.8692 -1.94623 0
M  V30 3136 C 305.195 -4.02378 -1.49633 0
M  V30 3137 C 304.428 -4.63678 -2.6427 0
M  V30 3138 O 304.651 -4.23895 -3.81666 0
M  V30 3139 O 303.585 -5.53202 -2.37174 0
M  V30 3140 H 307.411 -3.02977 -0.209462 0
M  V30 3141 H 304.996 -1.49353 -0.0373832 0
M  V30 3142 H 306.878 -3.27663 -2.64982 0
M  V30 3143 H 305.553 -2.09466 -2.46791 0
M  V30 3144 H 304.46 -3.66265 -0.761636 0
M  V30 3145 H 305.793 -4.81487 -1.02134 0
M  V30 3146 N 307.445 0.0818655 -1.57387 0
M  V30 3147 C 308.408 1.08265 -2.02018 0
M  V30 3148 C 309.408 1.32183 -0.915664 0
M  V30 3149 O 310.598 1.28073 -1.18081 0
M  V30 3150 C 307.73 2.42871 -2.39221 0
M  V30 3151 H 308.923 0.698204 -2.91659 0
M  V30 3152 H 306.476 0.327303 -1.52835 0
M  V30 3153 H 307.211 2.86167 -1.52575 0
M  V30 3154 H 306.996 2.26855 -3.19811 0
M  V30 3155 H 308.486 3.14826 -2.74362 0
M  V30 3156 N 308.923 1.53595 0.353017 0
M  V30 3157 C 310.148 1.7462 1.11904 0
M  V30 3158 C 310.573 0.479721 1.8188 0
M  V30 3159 O 309.931 -0.567066 1.72204 0
M  V30 3160 C 309.979 2.92029 2.11545 0
M  V30 3161 O 309.083 2.61516 3.18878 0
M  V30 3162 H 308.424 0.579531 0.324099 0
M  V30 3163 H 310.954 2.00525 0.406301 0
M  V30 3164 H 310.964 3.18551 2.5493 0
M  V30 3165 H 309.639 3.83888 1.60008 0
M  V30 3166 H 308.216 2.45852 2.80377 0
M  V30 3167 N 310.401 -0.613514 1.45168 0
M  V30 3168 C 311.334 -1.73809 1.47871 0
M  V30 3169 C 312.312 -1.59097 0.33568 0
M  V30 3170 O 313.496 -1.8074 0.535299 0
M  V30 3171 C 310.623 -3.11574 1.32813 0
M  V30 3172 C 309.669 -3.4489 2.50905 0
M  V30 3173 S 310.502 -3.40393 4.13392 0
M  V30 3174 C 311.658 -4.80749 4.00789 0
M  V30 3175 H 311.891 -1.71252 2.43023 0
M  V30 3176 H 309.424 -0.789658 1.32679 0
M  V30 3177 H 311.382 -3.91065 1.24812 0
M  V30 3178 H 310.043 -3.11652 0.391418 0
M  V30 3179 H 309.236 -4.45183 2.36279 0
M  V30 3180 H 308.838 -2.72901 2.55736 0
M  V30 3181 H 311.13 -5.7041 3.65567 0
M  V30 3182 H 312.073 -5.00431 5.00974 0
M  V30 3183 H 312.481 -4.56151 3.32545 0
M  V30 3184 N 311.879 -1.3236 -0.855495 0
M  V30 3185 C 313.156 -1.13491 -1.59309 0
M  V30 3186 C 313.536 0.30503 -2.08885 0
M  V30 3187 O 312.884 1.30151 -1.87811 0
M  V30 3188 C 313.094 -2.16176 -2.73987 0
M  V30 3189 C 314.442 -2.49463 -3.43589 0
M  V30 3190 O 315.466 -2.14715 -2.84211 0
M  V30 3191 O 314.325 -3.09027 -4.50738 0
M  V30 3192 H 311.419 -0.437887 -0.701559 0
M  V30 3193 H 313.965 -1.43887 -0.899696 0
M  V30 3194 H 312.737 -3.1297 -2.34873 0
M  V30 3195 H 312.36 -1.86769 -3.51003 0
M  V30 3196 N 313.357 1.07166 -1.15556 0
M  V30 3197 C 314.582 1.84053 -0.955988 0
M  V30 3198 C 315.007 1.81586 0.490739 0
M  V30 3199 O 314.365 1.21018 1.34997 0
M  V30 3200 C 314.413 3.28957 -1.47714 0
M  V30 3201 O 313.517 4.06795 -0.677593 0
M  V30 3202 H 312.858 0.569842 -0.340847 0
M  V30 3203 H 315.388 1.35178 -1.53584 0
M  V30 3204 H 315.398 3.79788 -1.4908 0
M  V30 3205 H 314.073 3.30068 -2.53037 0
M  V30 3206 H 312.65 3.6561 -0.733721 0
M  V30 3207 N 314.835 0.952656 1.25548 0
M  V30 3208 C 316.083 0.605176 1.92826 0
M  V30 3209 C 316.404 -0.860261 1.74999 0
M  V30 3210 O 315.674 -1.6125 1.11244 0
M  V30 3211 H 314.254 0.220832 0.713612 0
M  V30 3212 H 316.916 1.21047 1.52754 0
M  V30 3213 H 316.012 0.832798 3.00784 0
M  V30 3214 N 316.313 -1.40141 0.720998 0
M  V30 3215 C 317.276 -2.29058 0.0805834 0
M  V30 3216 C 318.276 -1.45632 -0.681758 0
M  V30 3217 O 319.466 -1.6648 -0.512856 0
M  V30 3218 C 316.598 -3.28925 -0.895593 0
M  V30 3219 H 317.791 -2.87191 0.863793 0
M  V30 3220 H 315.344 -1.48553 0.485975 0
M  V30 3221 H 316.079 -2.75822 -1.70566 0
M  V30 3222 H 315.864 -3.90519 -0.351766 0
M  V30 3223 H 317.354 -3.95494 -1.34069 0
M  V30 3224 N 317.792 -0.46758 -1.50504 0
M  V30 3225 C 319.208 -0.121533 -1.59137 0
M  V30 3226 C 319.408 1.3717 -1.47603 0
M  V30 3227 O 318.464 2.14464 -1.33272 0
M  V30 3228 C 319.777 -0.6686 -2.93173 0
M  V30 3229 C 321.325 -0.631716 -3.06559 0
M  V30 3230 C 321.8 -1.15627 -4.43164 0
M  V30 3231 N 323.291 -1.11553 -4.49567 0
M  V30 3232 C 324.026 -1.49195 -5.5365 0
M  V30 3233 N 323.522 -1.94269 -6.65005 0
M  V30 3234 N 325.315 -1.4082 -5.44175 0
M  V30 3235 H 317.466 -1.4388 -1.56245 0
M  V30 3236 H 319.729 -0.594784 -0.738198 0
M  V30 3237 H 319.435 -1.71453 -3.07078 0
M  V30 3238 H 319.309 -0.11021 -3.77039 0
M  V30 3239 H 321.696 0.405297 -2.92304 0
M  V30 3240 H 321.777 -1.22687 -2.24458 0
M  V30 3241 H 321.421 -2.1919 -4.58168 0
M  V30 3242 H 321.351 -0.537365 -5.23851 0
M  V30 3243 H 323.842 -0.784895 -3.69659 0
M  V30 3244 H 324.155 -2.21148 -7.40482 0
M  V30 3245 H 322.5 -1.98219 -6.66134 0
M  V30 3246 H 325.691 -1.0545 -4.56068 0
M  V30 3247 H 325.864 -1.70481 -6.25172 0
M  V30 3248 N 319.27 1.56325 -0.20005 0
M  V30 3249 C 320.516 1.98772 0.431408 0
M  V30 3250 C 320.871 1.0849 1.58895 0
M  V30 3251 O 320.164 0.130331 1.91156 0
M  V30 3252 C 320.358 3.4495 0.935103 0
M  V30 3253 C 320.187 4.49371 -0.172096 0
M  V30 3254 C 318.957 5.0134 -0.631377 0
M  V30 3255 C 321.155 5.04822 -0.982806 0
M  V30 3256 N 319.137 5.89433 -1.71588 0
M  V30 3257 C 320.508 5.89632 -1.91661 0
M  V30 3258 C 322.563 4.87242 -1.02467 0
M  V30 3259 C 321.266 6.58741 -2.88881 0
M  V30 3260 C 323.292 5.57094 -1.98494 0
M  V30 3261 C 322.654 6.41655 -2.90617 0
M  V30 3262 H 318.753 0.771922 0.125144 0
M  V30 3263 H 321.337 1.92266 -0.306883 0
M  V30 3264 H 319.508 3.51946 1.64282 0
M  V30 3265 H 321.24 3.74354 1.53758 0
M  V30 3266 H 317.995 4.73071 -0.223827 0
M  V30 3267 H 318.419 6.38182 -2.25948 0
M  V30 3268 H 323.061 4.21538 -0.326408 0
M  V30 3269 H 320.779 7.23641 -3.5968 0
M  V30 3270 H 324.365 5.45466 -2.0238 0
M  V30 3271 H 323.245 6.94755 -3.63711 0
M  V30 3272 N 320.748 -0.0735177 1.57428 0
M  V30 3273 C 321.68 -1.11423 2.00294 0
M  V30 3274 C 322.693 -1.35084 0.908637 0
M  V30 3275 O 323.882 -1.33355 1.18654 0
M  V30 3276 C 320.982 -2.46548 2.32523 0
M  V30 3277 C 320.155 -2.42867 3.63778 0
M  V30 3278 C 319.214 -3.60087 3.83697 0
M  V30 3279 O 318.24 -3.41595 4.55304 0
M  V30 3280 N 319.442 -4.80372 3.25919 0
M  V30 3281 H 322.207 -0.749206 2.90184 0
M  V30 3282 H 319.768 -0.262195 1.59763 0
M  V30 3283 H 321.76 -3.23607 2.43024 0
M  V30 3284 H 320.33 -2.75059 1.48531 0
M  V30 3285 H 319.55 -1.51206 3.64047 0
M  V30 3286 H 320.838 -2.37506 4.49965 0
M  V30 3287 H 320.236 -4.983 2.67795 0
M  V30 3288 H 318.793 -5.54948 3.41871 0
M  V30 3289 N 322.226 -1.5378 -0.344866 0
M  V30 3290 C 323.642 -1.44015 -0.687888 0
M  V30 3291 C 323.842 -0.595834 -1.92489 0
M  V30 3292 O 322.898 -0.0863064 -2.52352 0
M  V30 3293 C 324.211 -2.87481 -0.881758 0
M  V30 3294 C 325.759 -2.97247 -0.980459 0
M  V30 3295 C 326.234 -4.41819 -1.20665 0
M  V30 3296 N 327.725 -4.45339 -1.27389 0
M  V30 3297 C 328.46 -5.54333 -1.46639 0
M  V30 3298 N 327.956 -6.73335 -1.63071 0
M  V30 3299 N 329.749 -5.41944 -1.49176 0
M  V30 3300 H 321.9 -2.07169 0.468475 0
M  V30 3301 H 324.163 -0.93643 0.147655 0
M  V30 3302 H 323.869 -3.51672 -0.0443444 0
M  V30 3303 H 323.743 -3.32352 -1.78388 0
M  V30 3304 H 326.13 -2.33197 -1.8084 0
M  V30 3305 H 326.211 -2.5574 -0.0552713 0
M  V30 3306 H 325.855 -5.06449 -0.383652 0
M  V30 3307 H 325.785 -4.80917 -2.14539 0
M  V30 3308 H 328.276 -3.59585 -1.1622 0
M  V30 3309 H 328.589 -7.52165 -1.77391 0
M  V30 3310 H 326.934 -6.76282 -1.60209 0
M  V30 3311 H 330.125 -4.47932 -1.3592 0
M  V30 3312 H 330.298 -6.26946 -1.63837 0
M  V30 3313 N 323.704 0.605807 -1.45491 0
M  V30 3314 C 324.952 1.36207 -1.49305 0
M  V30 3315 C 325.273 1.94519 -0.136863 0
M  V30 3316 O 324.543 1.77261 0.833983 0
M  V30 3317 H 323.123 0.50565 -0.549843 0
M  V30 3318 H 325.785 0.711239 -1.81459 0
M  V30 3319 H 324.881 2.18058 -2.23287 0
M  V30 3320 N 325.182 1.32811 0.848464 0
M  V30 3321 C 326.598 1.11937 1.13764 0
M  V30 3322 C 326.798 -0.0960789 2.01271 0
M  V30 3323 O 325.854 -0.779165 2.40178 0
M  V30 3324 C 327.167 2.402 1.809 0
M  V30 3325 C 328.715 2.46016 1.93508 0
M  V30 3326 C 329.19 3.74215 2.64059 0
M  V30 3327 N 330.681 3.75232 2.71579 0
M  V30 3328 C 331.416 4.71134 3.26833 0
M  V30 3329 N 330.912 5.77406 3.8285 0
M  V30 3330 N 332.705 4.58623 3.24995 0
M  V30 3331 H 324.856 2.1073 0.265855 0
M  V30 3332 H 327.119 0.930671 0.180431 0
M  V30 3333 H 326.825 3.29093 1.24058 0
M  V30 3334 H 326.699 2.51628 2.81004 0
M  V30 3335 H 329.086 1.57577 2.49506 0
M  V30 3336 H 329.167 2.38536 0.923811 0
M  V30 3337 H 328.811 4.63031 2.08722 0
M  V30 3338 H 328.741 3.78968 3.65637 0
M  V30 3339 H 331.232 2.98423 2.31845 0
M  V30 3340 H 331.545 6.46632 4.23187 0
M  V30 3341 H 329.89 5.81152 3.81165 0
M  V30 3342 H 333.081 3.74762 2.80484 0
M  V30 3343 H 333.254 5.33535 3.67756 0
M  V30 3344 N 326.66 -1.06551 1.16123 0
M  V30 3345 C 327.59 -2.15935 0.88851 0
M  V30 3346 C 328.571 -1.69306 -0.164135 0
M  V30 3347 O 329.756 -1.94193 -0.0167857 0
M  V30 3348 C 326.886 -3.45149 0.385942 0
M  V30 3349 C 325.84 -4.05271 1.3762 0
M  V30 3350 C 325.166 -5.29664 0.732137 0
M  V30 3351 C 326.466 -4.44355 2.74493 0
M  V30 3352 H 328.16 -2.39006 1.80323 0
M  V30 3353 H 325.706 -1.14866 0.868435 0
M  V30 3354 H 327.659 -4.21004 0.182647 0
M  V30 3355 H 326.383 -3.21689 -0.564274 0
M  V30 3356 H 325.042 -3.3147 1.56599 0
M  V30 3357 H 324.69 -5.02499 -0.224483 0
M  V30 3358 H 324.39 -5.70848 1.39307 0
M  V30 3359 H 325.914 -6.08218 0.538802 0
M  V30 3360 H 327.328 -5.11303 2.59311 0
M  V30 3361 H 325.725 -4.96515 3.37035 0
M  V30 3362 H 326.795 -3.55339 3.29943 0
M  V30 3363 N 328.138 -0.959301 -1.25041 0
M  V30 3364 C 329.101 -0.487677 -2.23952 0
M  V30 3365 C 330.101 0.41119 -1.55454 0
M  V30 3366 O 331.291 0.207825 -1.72956 0
M  V30 3367 C 328.423 0.294807 -3.39623 0
M  V30 3368 H 329.616 -1.36198 -2.67189 0
M  V30 3369 H 327.169 -0.743042 -1.37508 0
M  V30 3370 H 327.904 1.18658 -3.01813 0
M  V30 3371 H 327.689 -0.35012 -3.90534 0
M  V30 3372 H 329.179 0.614089 -4.1306 0
M  V30 3373 N 329.616 1.39756 -0.72842 0
M  V30 3374 C 330.546 2.33289 -0.0991354 0
M  V30 3375 C 331.527 1.53568 0.731489 0
M  V30 3376 O 332.712 1.81987 0.677807 0
M  V30 3377 C 329.842 3.3763 0.813834 0
M  V30 3378 C 328.796 4.2791 0.0878663 0
M  V30 3379 C 328.122 5.22894 1.11741 0
M  V30 3380 C 329.422 5.11314 -1.06563 0
M  V30 3381 H 331.116 2.86163 -0.880408 0
M  V30 3382 H 328.662 1.37591 -0.424819 0
M  V30 3383 H 330.615 4.0201 1.26355 0
M  V30 3384 H 329.339 2.83181 1.62715 0
M  V30 3385 H 327.998 3.65 -0.342159 0
M  V30 3386 H 327.646 4.64744 1.92412 0
M  V30 3387 H 327.346 5.84143 0.636477 0
M  V30 3388 H 328.87 5.90151 1.56697 0
M  V30 3389 H 330.284 5.69076 -0.694671 0
M  V30 3390 H 328.681 5.81671 -1.47577 0
M  V30 3391 H 329.751 4.46534 -1.89038 0
M  V30 3392 N 331.094 0.475555 1.50254 0
M  V30 3393 C 332.51 0.12997 1.5907 0
M  V30 3394 C 332.71 -1.36385 1.48328 0
M  V30 3395 O 331.766 -2.13754 1.34407 0
M  V30 3396 C 333.079 0.684139 2.92814 0
M  V30 3397 C 334.627 0.647965 3.0622 0
M  V30 3398 C 335.102 1.17975 4.42545 0
M  V30 3399 N 336.593 1.13936 4.48969 0
M  V30 3400 C 337.328 1.52129 5.52851 0
M  V30 3401 N 336.824 1.97793 6.63965 0
M  V30 3402 N 338.617 1.43704 5.4342 0
M  V30 3403 H 330.768 1.44706 1.55479 0
M  V30 3404 H 333.031 0.598691 0.735033 0
M  V30 3405 H 332.737 1.73079 3.06164 0
M  V30 3406 H 332.611 0.130204 3.76975 0
M  V30 3407 H 334.998 -0.38979 2.92514 0
M  V30 3408 H 335.079 1.23876 2.23805 0
M  V30 3409 H 334.723 2.21616 4.57 0
M  V30 3410 H 334.653 0.565138 5.23559 0
M  V30 3411 H 337.144 0.804488 3.69238 0
M  V30 3412 H 337.457 2.25072 7.39299 0
M  V30 3413 H 335.802 2.01749 6.65073 0
M  V30 3414 H 338.993 1.07867 4.55502 0
M  V30 3415 H 339.166 1.73794 6.24259 0
M  V30 3416 N 332.573 -1.56217 0.208337 0
M  V30 3417 C 333.989 -1.58919 -0.14729 0
M  V30 3418 C 334.189 -1.22486 -1.59998 0
M  V30 3419 O 333.245 -0.953849 -2.3379 0
M  V30 3420 C 334.558 -3.00236 0.167048 0
M  V30 3421 C 336.106 -3.12813 0.108219 0
M  V30 3422 C 336.581 -4.56284 0.396049 0
M  V30 3423 N 338.072 -4.61912 0.345142 0
M  V30 3424 C 338.807 -5.70837 0.541523 0
M  V30 3425 N 338.303 -6.88178 0.798968 0
M  V30 3426 N 340.096 -5.60091 0.474867 0
M  V30 3427 H 332.247 -1.78177 1.15614 0
M  V30 3428 H 334.51 -0.827555 0.462446 0
M  V30 3429 H 334.216 -3.31499 1.1748 0
M  V30 3430 H 334.09 -3.7354 -0.524184 0
M  V30 3431 H 336.477 -2.81354 -0.890157 0
M  V30 3432 H 336.558 -2.41866 0.832729 0
M  V30 3433 H 336.202 -4.88458 1.3918 0
M  V30 3434 H 336.132 -5.25439 -0.349502 0
M  V30 3435 H 338.623 -3.77589 0.153316 0
M  V30 3436 H 338.936 -7.67095 0.93727 0
M  V30 3437 H 337.281 -6.89953 0.836013 0
M  V30 3438 H 340.472 -4.67297 0.274064 0
M  V30 3439 H 340.645 -6.44917 0.631326 0
M  V30 3440 N 334.051 0.0651679 -1.57465 0
M  V30 3441 C 335.014 1.06117 -2.03155 0
M  V30 3442 C 336.014 1.31204 -0.929632 0
M  V30 3443 O 337.204 1.26813 -1.19432 0
M  V30 3444 C 334.336 2.4032 -2.41783 0
M  V30 3445 H 335.529 0.667231 -2.92383 0
M  V30 3446 H 333.082 0.311075 -1.53173 0
M  V30 3447 H 333.817 2.84532 -1.55601 0
M  V30 3448 H 333.602 2.23451 -3.22199 0
M  V30 3449 H 335.092 3.11898 -2.77685 0
M  V30 3450 N 335.529 1.53961 0.336706 0
M  V30 3451 C 336.94 1.62914 0.911925 0
M  V30 3452 C 337.291 0.514795 1.89326 0
M  V30 3453 O 336.416 -0.354395 2.13478 0
M  V30 3454 C 337.011 2.95304 1.66076 0
M  V30 3455 C 335.57 3.06496 2.18489 0
M  V30 3456 C 334.717 2.58403 1.00613 0
M  V30 3457 H 337.668 1.58285 0.114649 0
M  V30 3458 H 337.689 2.84727 2.5241 0
M  V30 3459 H 337.201 3.76387 0.946276 0
M  V30 3460 H 335.302 2.3006 2.93092 0
M  V30 3461 H 335.415 4.1208 2.44391 0
M  V30 3462 H 333.779 2.13977 1.38152 0
M  V30 3463 H 334.562 3.41932 0.306179 0
M  V30 3464 N 337.007 -0.598083 1.45811 0
M  V30 3465 C 338.255 -1.35413 1.50026 0
M  V30 3466 C 338.576 -1.94444 0.147177 0
M  V30 3467 O 337.846 -1.77701 -0.824571 0
M  V30 3468 H 336.426 -0.502727 0.552517 0
M  V30 3469 H 339.088 -0.701606 1.81834 0
M  V30 3470 H 338.184 -2.16871 2.2444 0
M  V30 3471 N 338.485 -1.33259 -0.841409 0
M  V30 3472 C 339.896 -1.22066 -1.41269 0
M  V30 3473 C 340.247 0.161479 -1.95534 0
M  V30 3474 O 339.372 1.06094 -1.88608 0
M  V30 3475 C 339.967 -2.20996 -2.568 0
M  V30 3476 C 338.526 -2.13649 -3.09888 0
M  V30 3477 C 337.673 -2.08623 -1.82679 0
M  V30 3478 H 340.624 -1.44895 -0.647395 0
M  V30 3479 H 340.645 -1.81621 -3.34356 0
M  V30 3480 H 340.157 -3.2158 -2.17274 0
M  V30 3481 H 338.258 -1.16359 -3.53965 0
M  V30 3482 H 338.371 -3.04079 -3.70234 0
M  V30 3483 H 336.735 -1.54061 -2.02824 0
M  V30 3484 H 337.518 -3.1101 -1.45353 0
M  V30 3485 N 339.963 1.05934 -1.16686 0
M  V30 3486 C 341.24 1.75643 -0.860747 0
M  V30 3487 C 341.62 2.01144 0.640641 0
M  V30 3488 O 340.968 1.64147 1.58959 0
M  V30 3489 C 341.178 3.05493 -1.68745 0
M  V30 3490 C 342.526 3.79581 -1.90271 0
M  V30 3491 O 343.55 3.15344 -1.65641 0
M  V30 3492 O 342.409 4.9499 -2.31618 0
M  V30 3493 H 339.503 0.763426 -0.317977 0
M  V30 3494 H 342.049 1.1217 -1.27342 0
M  V30 3495 H 340.821 2.8264 -2.70611 0
M  V30 3496 H 340.444 3.76702 -1.27206 0
M  V30 3497 N 341.441 0.965919 1.2453 0
M  V30 3498 C 342.689 0.625593 1.92174 0
M  V30 3499 C 343.01 -0.841652 1.75901 0
M  V30 3500 O 342.28 -1.60061 1.12948 0
M  V30 3501 H 340.86 0.228388 0.71123 0
M  V30 3502 H 343.522 1.2266 1.51461 0
M  V30 3503 H 342.618 0.864653 2.99884 0
M  V30 3504 N 342.919 -1.39368 0.735821 0
M  V30 3505 C 344.33 -1.83313 0.354015 0
M  V30 3506 C 344.681 -1.61461 -1.11466 0
M  V30 3507 O 343.806 -1.10621 -1.85989 0
M  V30 3508 C 344.401 -3.32781 0.635769 0
M  V30 3509 C 342.96 -3.75142 0.307448 0
M  V30 3510 C 342.107 -2.62358 0.897974 0
M  V30 3511 H 345.058 -1.28349 0.933398 0
M  V30 3512 H 345.079 -3.80388 -0.0921773 0
M  V30 3513 H 344.591 -3.48654 1.70476 0
M  V30 3514 H 342.692 -3.64857 -0.755674 0
M  V30 3515 H 342.805 -4.72532 0.790583 0
M  V30 3516 H 341.169 -2.52624 0.324551 0
M  V30 3517 H 341.952 -2.81036 1.97164 0
M  V30 3518 N 344.397 -0.483516 -1.5 0
M  V30 3519 C 345.674 0.129337 -1.95172 0
M  V30 3520 C 346.054 1.55802 -1.4244 0
M  V30 3521 O 345.402 2.19625 -0.630649 0
M  V30 3522 C 345.612 0.0599251 -3.48949 0
M  V30 3523 C 346.96 0.242617 -4.23906 0
M  V30 3524 O 347.984 0.135933 -3.55941 0
M  V30 3525 O 346.843 0.459454 -5.44565 0
M  V30 3526 H 343.937 0.104887 -0.820322 0
M  V30 3527 H 346.483 -0.544807 -1.60717 0
M  V30 3528 H 345.255 -0.937079 -3.79914 0
M  V30 3529 H 344.878 0.774984 -3.89974 0
M  V30 3530 N 345.875 1.56104 -0.216619 0
M  V30 3531 C 347.291 1.58995 0.13886 0
M  V30 3532 C 347.491 1.23333 1.59346 0
M  V30 3533 O 346.547 0.966234 2.33281 0
M  V30 3534 C 347.86 3.00143 -0.182968 0
M  V30 3535 C 349.408 3.12751 -0.124807 0
M  V30 3536 C 349.883 4.56068 -0.420241 0
M  V30 3537 N 351.374 4.61723 -0.369634 0
M  V30 3538 C 352.109 5.70542 -0.571789 0
M  V30 3539 N 351.605 6.87744 -0.835453 0
M  V30 3540 N 353.398 5.59831 -0.504563 0
M  V30 3541 H 345.549 1.77562 -1.16557 0
M  V30 3542 H 347.812 0.825091 -0.466828 0
M  V30 3543 H 347.518 3.30871 -1.19237 0
M  V30 3544 H 347.392 3.73813 0.504367 0
M  V30 3545 H 349.779 2.81822 0.875223 0
M  V30 3546 H 349.86 2.41421 -0.845544 0
M  V30 3547 H 349.504 4.87713 -1.41769 0
M  V30 3548 H 349.434 5.25617 0.321631 0
M  V30 3549 H 351.925 3.77502 -0.173338 0
M  V30 3550 H 352.238 7.66587 -0.977938 0
M  V30 3551 H 350.583 6.895 -0.872592 0
M  V30 3552 H 353.774 4.67145 -0.298842 0
M  V30 3553 H 353.947 6.44573 -0.665519 0
M  V30 3554 N 347.353 -0.0568162 1.57498 0
M  V30 3555 C 348.599 -0.75422 1.88253 0
M  V30 3556 C 348.932 -1.76461 0.810865 0
M  V30 3557 O 348.207 -1.93691 -0.177259 0
M  V30 3558 C 348.49 -1.44878 3.2967 0
M  V30 3559 C 348.343 -0.453789 4.47505 0
M  V30 3560 C 349.662 -2.38994 3.69554 0
M  V30 3561 H 346.781 -0.272724 0.684683 0
M  V30 3562 H 349.423 -0.0172113 1.89992 0
M  V30 3563 H 347.573 -2.077 3.28318 0
M  V30 3564 H 349.245 0.170371 4.60985 0
M  V30 3565 H 347.488 0.229552 4.33192 0
M  V30 3566 H 348.159 -0.977699 5.43273 0
M  V30 3567 H 350.635 -1.86239 3.72095 0
M  V30 3568 H 349.511 -2.84587 4.69363 0
M  V30 3569 H 349.772 -3.24461 3.00296 0
M  V30 3570 N 348.832 -1.54138 -0.328536 0
M  V30 3571 C 349.762 -1.86167 -1.40939 0
M  V30 3572 C 350.743 -0.718044 -1.54202 0
M  V30 3573 O 351.928 -0.971328 -1.68163 0
M  V30 3574 C 349.058 -2.08461 -2.77779 0
M  V30 3575 C 348.012 -3.24299 -2.7931 0
M  V30 3576 C 347.338 -3.31955 -4.19178 0
M  V30 3577 C 348.638 -4.62065 -2.43502 0
M  V30 3578 H 350.332 -2.76689 -1.14383 0
M  V30 3579 H 347.878 -1.33132 -0.548806 0
M  V30 3580 H 349.831 -2.29453 -3.53454 0
M  V30 3581 H 348.555 -1.14684 -3.05802 0
M  V30 3582 H 347.214 -3.03187 -2.0609 0
M  V30 3583 H 346.862 -2.35745 -4.44335 0
M  V30 3584 H 346.562 -4.09805 -4.2111 0
M  V30 3585 H 348.086 -3.55175 -4.96672 0
M  V30 3586 H 349.5 -4.8297 -3.08889 0
M  V30 3587 H 347.897 -5.42429 -2.56693 0
M  V30 3588 H 348.967 -4.64652 -1.38659 0
M  V30 3589 N 350.31 0.590341 -1.46126 0
M  V30 3590 C 351.22 1.72793 -1.58681 0
M  V30 3591 C 352.236 1.67516 -0.470566 0
M  V30 3592 O 353.412 1.87562 -0.733642 0
M  V30 3593 C 350.477 3.09287 -1.5666 0
M  V30 3594 C 349.538 3.25886 -2.79458 0
M  V30 3595 C 348.771 4.55869 -2.77524 0
M  V30 3596 O 348.994 5.3928 -1.85832 0
M  V30 3597 O 347.928 4.75552 -3.68964 0
M  V30 3598 H 351.754 1.65149 -2.54872 0
M  V30 3599 H 349.339 0.756486 -1.28832 0
M  V30 3600 H 351.221 3.90577 -1.58202 0
M  V30 3601 H 349.896 3.17385 -0.636271 0
M  V30 3602 H 348.803 2.44119 -2.83472 0
M  V30 3603 H 350.136 3.22675 -3.71674 0
M  V30 3604 N 351.788 1.33704 0.83433 0
M  V30 3605 C 352.718 1.26967 1.95963 0
M  V30 3606 C 353.699 0.149337 1.69443 0
M  V30 3607 O 354.884 0.339852 1.91203 0
M  V30 3608 C 352.014 1.01275 3.32206 0
M  V30 3609 C 350.968 2.09652 3.73136 0
M  V30 3610 C 350.294 1.69166 5.07235 0
M  V30 3611 C 351.594 3.51372 3.86439 0
M  V30 3612 H 353.288 2.2112 2.01857 0
M  V30 3613 H 350.834 1.06447 0.969793 0
M  V30 3614 H 352.787 0.952106 4.10503 0
M  V30 3615 H 351.511 0.0356203 3.26581 0
M  V30 3616 H 350.17 2.14766 2.97104 0
M  V30 3617 H 349.818 0.701437 4.98085 0
M  V30 3618 H 349.518 2.41694 5.35591 0
M  V30 3619 H 351.042 1.64576 5.88003 0
M  V30 3620 H 352.456 3.48734 4.55036 0
M  V30 3621 H 350.853 4.22425 4.26236 0
M  V30 3622 H 351.923 3.89546 2.88759 0
M  V30 3623 N 353.266 -1.05314 1.17247 0
M  V30 3624 C 354.513 -1.78293 0.960091 0
M  V30 3625 C 354.841 -1.87658 -0.51136 0
M  V30 3626 O 354.096 -1.3718 -1.39571 0
M  V30 3627 C 354.395 -3.2229 1.54479 0
M  V30 3628 C 354.061 -3.32987 3.04024 0
M  V30 3629 C 352.723 -3.35613 3.44844 0
M  V30 3630 C 355.075 -3.34102 4.00031 0
M  V30 3631 C 352.403 -3.36982 4.8027 0
M  V30 3632 C 354.755 -3.3701 5.35357 0
M  V30 3633 C 353.419 -3.37923 5.75642 0
M  V30 3634 H 352.689 -0.652422 0.351322 0
M  V30 3635 H 355.336 -1.23782 1.46117 0
M  V30 3636 H 353.641 -3.7972 0.965391 0
M  V30 3637 H 355.338 -3.77376 1.35603 0
M  V30 3638 H 351.928 -3.31655 2.71483 0
M  V30 3639 H 356.112 -3.31276 3.69554 0
M  V30 3640 H 351.368 -3.35999 5.10798 0
M  V30 3641 H 355.542 -3.36822 6.09528 0
M  V30 3642 H 353.169 -3.38738 6.80559 0
M  V30 3643 N 354.744 -0.972509 -1.24016 0
M  V30 3644 C 356.021 -0.553733 -1.87598 0
M  V30 3645 C 356.401 0.969158 -1.87538 0
M  V30 3646 O 355.749 1.84255 -1.35139 0
M  V30 3647 C 355.959 -1.15076 -3.29482 0
M  V30 3648 C 357.307 -1.23862 -4.06132 0
M  V30 3649 O 358.331 -1.10363 -3.38672 0
M  V30 3650 O 357.19 -1.45252 -5.26844 0
M  V30 3651 H 354.284 -0.185331 -0.805966 0
M  V30 3652 H 356.83 -1.06709 -1.31952 0
M  V30 3653 H 355.602 -2.19333 -3.2405 0
M  V30 3654 H 355.225 -0.621746 -3.92709 0
M  V30 3655 N 356.222 1.38976 -0.743202 0
M  V30 3656 C 357.633 1.83123 -0.363732 0
M  V30 3657 C 357.984 1.6205 1.10609 0
M  V30 3658 O 357.109 1.11606 1.854 0
M  V30 3659 C 357.704 3.32439 -0.653408 0
M  V30 3660 C 356.263 3.74974 -0.327338 0
M  V30 3661 C 355.41 2.61878 -0.911875 0
M  V30 3662 H 358.361 1.27852 -0.940191 0
M  V30 3663 H 358.382 3.80432 0.0720031 0
M  V30 3664 H 357.894 3.47745 -1.72323 0
M  V30 3665 H 355.995 3.65252 0.736314 0
M  V30 3666 H 356.108 4.72106 -0.815631 0
M  V30 3667 H 354.472 2.52448 -0.337944 0
M  V30 3668 H 355.255 2.79987 -1.98651 0
M  V30 3669 N 357.7 0.491464 1.49741 0
M  V30 3670 C 359.111 0.0413169 1.86654 0
M  V30 3671 C 359.462 -1.36985 1.40462 0
M  V30 3672 O 358.587 -2.01917 0.778354 0
M  V30 3673 C 359.182 0.0682023 3.38731 0
M  V30 3674 C 357.741 -0.32656 3.74981 0
M  V30 3675 C 356.888 0.444888 2.73708 0
M  V30 3676 H 359.839 0.704733 1.42194 0
M  V30 3677 H 359.86 -0.729322 3.73445 0
M  V30 3678 H 359.372 1.09539 3.72321 0
M  V30 3679 H 357.473 -1.35734 3.46997 0
M  V30 3680 H 357.586 -0.013741 4.79098 0
M  V30 3681 H 355.95 -0.104062 2.54487 0
M  V30 3682 H 356.733 1.47197 3.10142 0
M  V30 3683 N 359.178 -1.55987 0.224894 0
M  V30 3684 C 360.125 -2.20436 -0.68385 0
M  V30 3685 C 361.095 -1.16102 -1.18783 0
M  V30 3686 O 362.28 -1.4447 -1.24632 0
M  V30 3687 C 359.42 -2.89076 -1.88491 0
M  V30 3688 C 358.533 -4.08012 -1.41951 0
M  V30 3689 C 357.668 -4.64426 -2.5784 0
M  V30 3690 C 356.707 -5.75656 -2.08053 0
M  V30 3691 N 355.844 -6.26347 -3.17227 0
M  V30 3692 H 360.684 -2.97727 -0.12754 0
M  V30 3693 H 358.221 -1.47011 -0.0511978 0
M  V30 3694 H 360.179 -3.27059 -2.59014 0
M  V30 3695 H 358.809 -2.14298 -2.41405 0
M  V30 3696 H 357.861 -3.75492 -0.609095 0
M  V30 3697 H 359.173 -4.88375 -1.01447 0
M  V30 3698 H 358.327 -5.04869 -3.3644 0
M  V30 3699 H 357.066 -3.83233 -3.01635 0
M  V30 3700 H 356.071 -5.34712 -1.27916 0
M  V30 3701 H 357.296 -6.58686 -1.65255 0
M  V30 3702 H 355.242 -5.48067 -3.60497 0
M  V30 3703 H 355.159 -7.01843 -2.80986 0
M  V30 3704 H 356.427 -6.71447 -3.95953 0
M  V30 3705 N 360.656 0.0484629 -1.57525 0
M  V30 3706 C 361.881 0.759177 -1.93006 0
M  V30 3707 C 362.306 1.69125 -0.823317 0
M  V30 3708 O 361.664 1.79931 0.222364 0
M  V30 3709 C 361.712 1.50899 -3.27509 0
M  V30 3710 O 360.816 2.62112 -3.18388 0
M  V30 3711 H 360.157 0.205564 -0.631379 0
M  V30 3712 H 362.687 0.00972959 -2.04598 0
M  V30 3713 H 362.697 1.88317 -3.6194 0
M  V30 3714 H 361.372 0.825269 -4.0763 0
M  V30 3715 H 359.949 2.27379 -2.95556 0
M  V30 3716 N 362.134 1.5431 0.320358 0
M  V30 3717 C 363.359 1.76954 1.08175 0
M  V30 3718 C 363.784 0.518193 1.80821 0
M  V30 3719 O 363.142 -0.530411 1.73368 0
M  V30 3720 C 363.19 2.96451 2.05303 0
M  V30 3721 O 362.294 2.68221 3.13259 0
M  V30 3722 H 361.635 0.586275 0.311733 0
M  V30 3723 H 364.165 2.01342 0.363676 0
M  V30 3724 H 364.175 3.23887 2.48116 0
M  V30 3725 H 362.85 3.87196 1.51829 0
M  V30 3726 H 361.427 2.51744 2.75099 0
M  V30 3727 N 363.613 -0.582584 1.46437 0
M  V30 3728 C 365.029 -0.905962 1.31394 0
M  V30 3729 C 365.229 -1.99468 0.285476 0
M  V30 3730 O 364.285 -2.50566 -0.311914 0
M  V30 3731 C 365.598 -1.3232 2.70022 0
M  V30 3732 C 367.146 -1.43604 2.78113 0
M  V30 3733 C 367.621 -1.88694 4.17323 0
M  V30 3734 N 369.112 -1.95887 4.19741 0
M  V30 3735 C 369.847 -2.32051 5.24347 0
M  V30 3736 N 369.343 -2.67006 6.39281 0
M  V30 3737 N 371.136 -2.32606 5.11713 0
M  V30 3738 H 363.287 0.1366 2.1196 0
M  V30 3739 H 365.55 -0.00155736 0.947999 0
M  V30 3740 H 365.256 -0.597242 3.46592 0
M  V30 3741 H 365.13 -2.28469 3.00136 0
M  V30 3742 H 367.517 -2.15286 2.01832 0
M  V30 3743 H 367.598 -0.457059 2.51684 0
M  V30 3744 H 367.242 -1.1759 4.941 0
M  V30 3745 H 367.172 -2.8755 4.4116 0
M  V30 3746 H 369.663 -1.71362 3.36814 0
M  V30 3747 H 369.976 -2.93554 7.14875 0
M  V30 3748 H 368.321 -2.64644 6.42642 0
M  V30 3749 H 371.512 -2.04721 4.2096 0
M  V30 3750 H 371.685 -2.60462 5.93349 0
M  V30 3751 N 365.091 -1.34144 -0.827227 0
M  V30 3752 C 366.502 -1.23557 -1.39966 0
M  V30 3753 C 366.853 0.140731 -1.95695 0
M  V30 3754 O 365.978 1.04087 -1.89723 0
M  V30 3755 C 366.573 -2.23708 -2.54441 0
M  V30 3756 C 365.132 -2.16924 -3.07605 0
M  V30 3757 C 364.279 -2.10549 -1.80456 0
M  V30 3758 H 367.23 -1.45573 -0.631991 0
M  V30 3759 H 367.251 -1.85157 -3.32411 0
M  V30 3760 H 366.763 -3.23866 -2.13851 0
M  V30 3761 H 364.864 -1.20107 -3.52711 0
M  V30 3762 H 364.977 -3.07988 -3.66988 0
M  V30 3763 H 363.341 -1.56203 -2.01178 0
M  V30 3764 H 364.124 -3.12535 -1.42046 0
M  V30 3765 N 366.569 1.04691 -1.17803 0
M  V30 3766 C 367.516 2.12557 -0.899343 0
M  V30 3767 C 368.486 1.65339 0.158771 0
M  V30 3768 O 369.671 1.90789 0.0204797 0
M  V30 3769 C 366.811 3.42481 -0.424315 0
M  V30 3770 C 365.924 4.03346 -1.54713 0
M  V30 3771 C 365.059 5.21208 -1.02546 0
M  V30 3772 C 364.098 5.74089 -2.12339 0
M  V30 3773 N 363.235 6.83247 -1.61612 0
M  V30 3774 H 368.075 2.35734 -1.823 0
M  V30 3775 H 365.612 1.1564 -0.909159 0
M  V30 3776 H 367.57 4.16996 -0.130421 0
M  V30 3777 H 366.2 3.19471 0.462377 0
M  V30 3778 H 365.252 3.2622 -1.95664 0
M  V30 3779 H 366.564 4.38628 -2.37501 0
M  V30 3780 H 365.718 6.02812 -0.685718 0
M  V30 3781 H 364.457 4.87414 -0.167084 0
M  V30 3782 H 363.462 4.91111 -2.47165 0
M  V30 3783 H 364.687 6.0993 -2.98601 0
M  V30 3784 H 362.633 6.5134 -0.780533 0
M  V30 3785 H 362.55 7.17559 -2.38003 0
M  V30 3786 H 363.818 7.68491 -1.30545 0
M  V30 3787 N 368.047 0.979072 1.23499 0
M  V30 3788 C 368.977 0.537606 2.27227 0
M  V30 3789 C 369.958 -0.428539 1.64613 0
M  V30 3790 O 371.143 -0.322191 1.91509 0
M  V30 3791 C 368.273 -0.162052 3.46922 0
M  V30 3792 C 367.227 0.721242 4.21879 0
M  V30 3793 C 366.553 -0.110555 5.34586 0
M  V30 3794 C 367.853 2.01141 4.82016 0
M  V30 3795 H 369.547 1.40462 2.64406 0
M  V30 3796 H 367.093 0.67684 1.27102 0
M  V30 3797 H 369.046 -0.482192 4.18632 0
M  V30 3798 H 367.77 -1.06351 3.08799 0
M  V30 3799 H 366.429 1.02482 3.51984 0
M  V30 3800 H 366.077 -1.0125 4.92704 0
M  V30 3801 H 365.777 0.477325 5.85658 0
M  V30 3802 H 367.301 -0.425107 6.09118 0
M  V30 3803 H 368.715 1.75612 5.45741 0
M  V30 3804 H 367.112 2.54695 5.43369 0
M  V30 3805 H 368.182 2.69909 4.02836 0
M  V30 3806 N 369.525 -1.3858 0.750561 0
M  V30 3807 C 370.457 -2.29057 0.0810714 0
M  V30 3808 C 371.47 -1.47596 -0.686973 0
M  V30 3809 O 372.659 -1.70495 -0.528563 0
M  V30 3810 C 369.759 -3.26475 -0.909247 0
M  V30 3811 C 368.932 -4.36945 -0.199478 0
M  V30 3812 C 367.991 -5.14572 -1.10011 0
M  V30 3813 O 367.017 -5.66321 -0.57177 0
M  V30 3814 N 368.219 -5.27262 -2.42849 0
M  V30 3815 H 370.984 -2.87153 0.858087 0
M  V30 3816 H 368.545 -1.50328 0.60109 0
M  V30 3817 H 370.537 -3.75285 -1.51471 0
M  V30 3818 H 369.107 -2.69298 -1.58736 0
M  V30 3819 H 368.327 -3.8981 0.586664 0
M  V30 3820 H 369.615 -5.07963 0.291783 0
M  V30 3821 H 369.013 -4.86763 -2.88233 0
M  V30 3822 H 367.57 -5.79456 -2.98453 0
M  V30 3823 N 371.003 -0.499398 -1.49478 0
M  V30 3824 C 371.966 0.268838 -2.27618 0
M  V30 3825 C 372.966 0.895383 -1.33565 0
M  V30 3826 O 374.156 0.760164 -1.56739 0
M  V30 3827 C 371.288 1.38559 -3.11471 0
M  V30 3828 H 372.481 -0.416812 -2.96989 0
M  V30 3829 H 370.034 -0.254313 -1.54217 0
M  V30 3830 H 370.769 2.10544 -2.46661 0
M  V30 3831 H 370.554 0.941797 -3.80621 0
M  V30 3832 H 372.044 1.92678 -3.70493 0
M  V30 3833 N 372.481 1.55866 -0.233164 0
M  V30 3834 C 373.444 2.1953 0.658715 0
M  V30 3835 C 374.444 1.16053 1.11303 0
M  V30 3836 O 375.634 1.41218 1.01996 0
M  V30 3837 C 372.766 2.82791 1.90373 0
M  V30 3838 H 373.959 2.99721 0.10347 0
M  V30 3839 H 371.512 1.56291 0.0164245 0
M  V30 3840 H 372.247 2.06501 2.50056 0
M  V30 3841 H 372.032 3.58578 1.58632 0
M  V30 3842 H 373.522 3.31556 2.53891 0
M  V30 3843 N 373.959 -0.0401083 1.57549 0
M  V30 3844 C 375.199 -0.738098 1.90608 0
M  V30 3845 C 375.563 -1.73107 0.830539 0
M  V30 3846 O 376.764 -2.4765 1.04513 0
M  V30 3847 C 375.035 -1.39985 3.28845 0
M  V30 3848 S 376.594 -2.12852 3.83718 0
M  V30 3849 H 373.412 -0.24477 0.667539 0
M  V30 3850 H 376.014 0.00693599 1.95499 0
M  V30 3851 H 374.718 -0.663775 4.04997 0
M  V30 3852 H 374.249 -2.18366 3.2723 0
M  V30 3853 H 376.264 -3.39842 3.61555 0
M  V30 3854 N 375.437 -1.54477 -0.31217 0
M  V30 3855 C 376.662 -1.77526 -1.07235 0
M  V30 3856 C 377.087 -0.527775 -1.80544 0
M  V30 3857 O 376.445 0.52121 -1.73646 0
M  V30 3858 C 376.493 -2.97535 -2.03728 0
M  V30 3859 O 375.597 -2.69878 -3.11833 0
M  V30 3860 H 374.938 -0.58792 -0.30862 0
M  V30 3861 H 377.468 -2.01532 -0.352993 0
M  V30 3862 H 377.478 -3.25198 -2.46395 0
M  V30 3863 H 376.153 -3.87996 -1.49774 0
M  V30 3864 H 374.73 -2.53199 -2.7376 0
M  V30 3865 N 376.915 0.57481 -1.46744 0
M  V30 3866 C 378.14 1.36341 -1.56288 0
M  V30 3867 C 378.565 1.86954 -0.207347 0
M  V30 3868 O 377.923 1.62006 0.813871 0
M  V30 3869 C 377.971 2.52147 -2.57787 0
M  V30 3870 O 377.075 3.53834 -2.11838 0
M  V30 3871 H 376.416 0.405713 -0.525636 0
M  V30 3872 H 378.946 0.696453 -1.92382 0
M  V30 3873 H 378.956 2.98958 -2.77648 0
M  V30 3874 H 377.631 2.14663 -3.5622 0
M  V30 3875 H 376.208 3.1345 -2.01999 0
M  V30 3876 N 378.394 1.34581 0.820102 0
M  V30 3877 C 379.643 1.26437 1.57151 0
M  V30 3878 C 379.956 -0.163111 1.94919 0
M  V30 3879 O 381.162 -0.366722 2.69012 0
M  V30 3880 C 379.618 2.21658 2.83541 0
M  V30 3881 C 379.226 3.69679 2.53065 0
M  V30 3882 C 380.97 2.22428 3.61561 0
M  V30 3883 C 378.877 4.56761 3.75664 0
M  V30 3884 H 377.807 0.469707 0.589823 0
M  V30 3885 H 380.458 1.59763 0.902656 0
M  V30 3886 H 378.84 1.81287 3.52067 0
M  V30 3887 H 380.014 4.18605 1.92631 0
M  V30 3888 H 378.329 3.71384 1.88316 0
M  V30 3889 H 380.926 2.8471 4.52597 0
M  V30 3890 H 381.269 1.22434 3.97889 0
M  V30 3891 H 381.802 2.61259 2.99981 0
M  V30 3892 H 378.541 5.57702 3.44454 0
M  V30 3893 H 378.061 4.12568 4.35371 0
M  V30 3894 H 379.74 4.71509 4.43044 0
M  V30 3895 N 379.872 -1.04064 1.18357 0
M  V30 3896 C 380.804 -2.12114 0.868358 0
M  V30 3897 C 381.817 -1.62247 -0.134045 0
M  V30 3898 O 383.006 -1.78253 0.0937933 0
M  V30 3899 C 380.106 -3.37773 0.276132 0
M  V30 3900 C 379.279 -4.16874 1.3242 0
M  V30 3901 C 378.338 -5.20861 0.747662 0
M  V30 3902 O 377.364 -5.51141 1.42239 0
M  V30 3903 N 378.566 -5.78715 -0.454823 0
M  V30 3904 H 381.331 -2.39748 1.79836 0
M  V30 3905 H 378.892 -1.20258 1.08396 0
M  V30 3906 H 380.884 -4.04513 -0.123133 0
M  V30 3907 H 379.454 -3.07581 -0.557895 0
M  V30 3908 H 378.674 -3.45456 1.89878 0
M  V30 3909 H 379.962 -4.66516 2.03078 0
M  V30 3910 H 379.36 -5.56415 -1.02073 0
M  V30 3911 H 377.917 -6.46921 -0.79601 0
M  V30 3912 N 381.35 -0.985608 -1.22978 0
M  V30 3913 C 382.26 -0.538548 -2.28335 0
M  V30 3914 C 383.276 0.409163 -1.69121 0
M  V30 3915 O 384.452 0.277797 -1.99475 0
M  V30 3916 C 381.517 0.146867 -3.46389 0
M  V30 3917 C 380.578 -0.842896 -4.20944 0
M  V30 3918 C 379.811 -0.190095 -5.33361 0
M  V30 3919 O 380.034 1.01767 -5.61248 0
M  V30 3920 O 378.968 -0.891289 -5.95264 0
M  V30 3921 H 382.794 -1.41487 -2.68729 0
M  V30 3922 H 380.379 -0.753495 -1.29007 0
M  V30 3923 H 382.261 0.531125 -4.1804 0
M  V30 3924 H 380.936 0.997871 -3.07935 0
M  V30 3925 H 379.843 -1.27795 -3.51595 0
M  V30 3926 H 381.176 -1.66287 -4.6326 0
M  V30 3927 N 382.828 1.3818 -0.7579 0
M  V30 3928 C 384.074 2.00316 -0.316453 0
M  V30 3929 C 384.407 1.60026 1.10025 0
M  V30 3930 O 383.682 0.839835 1.75434 0
M  V30 3931 C 383.965 3.57349 -0.444245 0
M  V30 3932 C 383.818 4.07591 -1.90236 0
M  V30 3933 C 385.137 4.3981 0.1598 0
M  V30 3934 H 382.256 0.727741 -0.116459 0
M  V30 3935 H 384.898 1.6406 -0.958352 0
M  V30 3936 H 383.048 3.88365 0.102233 0
M  V30 3937 H 384.72 3.87199 -2.50748 0
M  V30 3938 H 382.963 3.60297 -2.41595 0
M  V30 3939 H 383.634 5.16677 -1.94291 0
M  V30 3940 H 386.11 4.14971 -0.306314 0
M  V30 3941 H 384.986 5.48885 0.0401675 0
M  V30 3942 H 385.247 4.24102 1.24859 0
M  V30 3943 N 384.306 0.507319 1.49211 0
M  V30 3944 C 385.722 0.163682 1.58758 0
M  V30 3945 C 385.922 -1.33208 1.51188 0
M  V30 3946 O 384.978 -2.10855 1.38911 0
M  V30 3947 C 386.291 0.746095 2.91297 0
M  V30 3948 C 387.839 0.712773 3.04776 0
M  V30 3949 C 388.314 1.27336 4.39943 0
M  V30 3950 N 389.805 1.23433 4.46451 0
M  V30 3951 C 390.54 1.63821 5.495 0
M  V30 3952 N 390.036 2.11832 6.5962 0
M  V30 3953 N 391.829 1.55198 5.4025 0
M  V30 3954 H 383.98 1.47972 1.52375 0
M  V30 3955 H 386.243 0.614147 0.722168 0
M  V30 3956 H 385.949 1.79534 3.02424 0
M  V30 3957 H 385.823 0.210137 3.76614 0
M  V30 3958 H 388.21 -0.327656 2.93275 0
M  V30 3959 H 388.291 1.28595 2.21127 0
M  V30 3960 H 387.935 2.3126 4.52196 0
M  V30 3961 H 387.865 0.676066 5.22242 0
M  V30 3962 H 390.356 0.882627 3.67448 0
M  V30 3963 H 390.669 2.40703 7.34358 0
M  V30 3964 H 389.014 2.1581 6.60644 0
M  V30 3965 H 392.205 1.17505 4.53112 0
M  V30 3966 H 392.378 1.86997 6.20432 0
M  V30 3967 N 385.784 -1.5574 0.241426 0
M  V30 3968 C 387.03 -1.99846 -0.378555 0
M  V30 3969 C 387.385 -1.12665 -1.55963 0
M  V30 3970 O 386.678 -0.180966 -1.90743 0
M  V30 3971 C 386.872 -3.47308 -0.843317 0
M  V30 3972 C 386.701 -4.48756 0.291178 0
M  V30 3973 C 385.471 -4.9949 0.764077 0
M  V30 3974 C 387.669 -5.02039 1.11631 0
M  V30 3975 N 385.651 -5.84676 1.87156 0
M  V30 3976 C 387.022 -5.84343 2.07226 0
M  V30 3977 C 389.077 -4.84354 1.15349 0
M  V30 3978 C 387.78 -6.50851 3.06245 0
M  V30 3979 C 389.806 -5.51636 2.13195 0
M  V30 3980 C 389.168 -6.33724 3.07528 0
M  V30 3981 H 385.267 -0.774968 -0.104634 0
M  V30 3982 H 387.851 -1.91385 0.357751 0
M  V30 3983 H 386.022 -3.56178 -1.54893 0
M  V30 3984 H 387.754 -3.78299 -1.43779 0
M  V30 3985 H 384.509 -4.72311 0.349175 0
M  V30 3986 H 384.933 -6.31967 2.42789 0
M  V30 3987 H 389.575 -4.20525 0.438057 0
M  V30 3988 H 387.293 -7.1385 3.78739 0
M  V30 3989 H 390.879 -5.39909 2.16771 0
M  V30 3990 H 389.759 -6.84867 3.82003 0
M  V30 3991 N 387.262 0.0317525 -1.57568 0
M  V30 3992 C 388.502 0.727979 -1.90997 0
M  V30 3993 C 388.866 1.72664 -0.839708 0
M  V30 3994 O 390.067 2.47092 -1.05825 0
M  V30 3995 C 388.338 1.38239 -3.29583 0
M  V30 3996 S 389.897 2.10814 -3.84841 0
M  V30 3997 H 386.715 0.241226 -0.668828 0
M  V30 3998 H 389.317 -0.0173037 -1.95492 0
M  V30 3999 H 388.021 0.642288 -4.05343 0
M  V30 4000 H 387.552 2.16628 -3.28384 0
M  V30 4001 H 389.567 3.3792 -3.63352 0
M  V30 4002 N 388.74 1.54641 0.303973 0
M  V30 4003 C 389.968 1.77768 1.05858 0
M  V30 4004 C 390.383 0.535722 1.8104 0
M  V30 4005 O 389.74 -0.494337 1.75677 0
M  V30 4006 C 389.791 2.9834 2.04146 0
M  V30 4007 O 389.512 4.17736 1.32015 0
M  V30 4008 C 391.013 3.33832 2.91669 0
M  V30 4009 H 388.233 0.592961 0.314067 0
M  V30 4010 H 390.777 2.01583 0.344149 0
M  V30 4011 H 388.932 2.76742 2.71096 0
M  V30 4012 H 389.346 4.85693 1.97998 0
M  V30 4013 H 390.82 4.21448 3.56491 0
M  V30 4014 H 391.297 2.51857 3.59812 0
M  V30 4015 H 391.903 3.57579 2.30254 0
M  V30 4016 N 390.218 -0.567019 1.47046 0
M  V30 4017 C 391.634 -0.891975 1.32348 0
M  V30 4018 C 391.834 -1.99154 0.306616 0
M  V30 4019 O 390.89 -2.50883 -0.28532 0
M  V30 4020 C 392.203 -1.29449 2.7141 0
M  V30 4021 C 393.751 -1.40646 2.79621 0
M  V30 4022 C 394.226 -1.84257 4.19301 0
M  V30 4023 N 395.717 -1.91424 4.21795 0
M  V30 4024 C 396.452 -2.26476 5.26779 0
M  V30 4025 N 395.948 -2.60211 6.42077 0
M  V30 4026 N 397.741 -2.27166 5.14152 0
M  V30 4027 H 389.892 0.159074 2.11803 0
M  V30 4028 H 392.155 0.00849752 0.947962 0
M  V30 4029 H 391.861 -0.560448 3.47206 0
M  V30 4030 H 391.735 -2.25273 3.02542 0
M  V30 4031 H 394.122 -2.13133 2.04104 0
M  V30 4032 H 394.203 -0.430339 2.52154 0
M  V30 4033 H 393.847 -1.12343 4.95319 0
M  V30 4034 H 393.777 -2.82855 4.44185 0
M  V30 4035 H 396.268 -1.6778 3.38612 0
M  V30 4036 H 396.581 -2.85956 7.17948 0
M  V30 4037 H 394.926 -2.57813 6.45413 0
M  V30 4038 H 398.117 -2.00244 4.23107 0
M  V30 4039 H 398.29 -2.54154 5.96079 0
M  V30 4040 N 391.696 -1.35014 -0.812953 0
M  V30 4041 C 392.626 -1.30069 -1.93919 0
M  V30 4042 C 393.607 -0.176275 -1.69184 0
M  V30 4043 O 394.792 -0.370227 -1.90638 0
M  V30 4044 C 391.922 -1.06547 -3.30552 0
M  V30 4045 C 390.876 -2.15561 -3.69753 0
M  V30 4046 C 390.202 -1.77214 -5.04479 0
M  V30 4047 C 391.502 -3.57476 -3.808 0
M  V30 4048 H 393.196 -2.24303 -1.98314 0
M  V30 4049 H 390.742 -1.07977 -0.952736 0
M  V30 4050 H 392.695 -1.01729 -4.08937 0
M  V30 4051 H 391.419 -0.0875719 -3.26483 0
M  V30 4052 H 390.078 -2.19466 -2.9365 0
M  V30 4053 H 389.726 -0.780589 -4.96906 0
M  V30 4054 H 389.426 -2.50184 -5.31678 0
M  V30 4055 H 390.95 -1.7391 -5.8531 0
M  V30 4056 H 392.364 -3.55929 -4.4943 0
M  V30 4057 H 390.761 -4.29152 -4.19462 0
M  V30 4058 H 391.831 -3.94091 -2.82525 0
M  V30 4059 N 393.175 1.03435 -1.18907 0
M  V30 4060 C 394.085 2.15075 -0.937015 0
M  V30 4061 C 395.101 1.73706 0.101085 0
M  V30 4062 O 396.277 2.01232 -0.0822948 0
M  V30 4063 C 393.342 3.43458 -0.473057 0
M  V30 4064 C 392.403 3.99172 -1.57989 0
M  V30 4065 C 391.636 5.21427 -1.13797 0
M  V30 4066 O 391.859 5.704 0.000725941 0
M  V30 4067 O 390.793 5.69837 -1.9383 0
M  V30 4068 H 394.619 2.39198 -1.87131 0
M  V30 4069 H 392.204 1.13506 -0.971427 0
M  V30 4070 H 394.086 4.20811 -0.222702 0
M  V30 4071 H 392.761 3.20793 0.432869 0
M  V30 4072 H 391.668 3.23178 -1.88433 0
M  V30 4073 H 393.001 4.2619 -2.46217 0
M  V30 4074 N 394.653 0.992116 1.22453 0
M  V30 4075 C 395.586 0.486701 2.22949 0
M  V30 4076 C 396.564 -0.45259 1.56174 0
M  V30 4077 O 397.748 -0.378317 1.84665 0
M  V30 4078 C 394.875 -0.294537 3.37417 0
M  V30 4079 C 393.921 0.590628 4.22391 0
M  V30 4080 S 394.754 2.04546 4.94895 0
M  V30 4081 C 395.91 1.27369 6.12803 0
M  V30 4082 H 396.143 1.33828 2.65475 0
M  V30 4083 H 393.676 0.799023 1.32117 0
M  V30 4084 H 395.634 -0.739241 4.03789 0
M  V30 4085 H 394.295 -1.12139 2.934 0
M  V30 4086 H 393.488 -0.0104375 5.03999 0
M  V30 4087 H 393.09 0.972064 3.61147 0
M  V30 4088 H 395.382 0.540943 6.75337 0
M  V30 4089 H 396.325 2.06502 6.7732 0
M  V30 4090 H 396.733 0.787324 5.58983 0
M  V30 4091 N 396.131 -1.37776 0.765217 0
M  V30 4092 C 397.542 -1.82521 0.392819 0
M  V30 4093 C 397.893 -1.63789 -1.08017 0
M  V30 4094 O 397.018 -1.14542 -1.83601 0
M  V30 4095 C 397.613 -3.31358 0.706214 0
M  V30 4096 C 396.172 -3.74406 0.386952 0
M  V30 4097 C 395.319 -2.60394 0.953422 0
M  V30 4098 H 398.27 -1.2634 0.960412 0
M  V30 4099 H 398.291 -3.80498 -0.0114706 0
M  V30 4100 H 397.803 -3.44959 1.77833 0
M  V30 4101 H 395.904 -3.66377 -0.678112 0
M  V30 4102 H 396.017 -4.70749 0.890636 0
M  V30 4103 H 394.381 -2.51878 0.378064 0
M  V30 4104 H 395.164 -2.76791 2.03081 0
M  V30 4105 N 397.609 -0.515225 -1.4894 0
M  V30 4106 C 398.886 0.0879088 -1.95402 0
M  V30 4107 C 399.266 1.52745 -1.45712 0
M  V30 4108 O 398.614 2.18238 -0.677093 0
M  V30 4109 C 398.824 -0.0141055 -3.48997 0
M  V30 4110 C 400.172 0.152646 -4.24326 0
M  V30 4111 O 401.196 0.0604025 -3.56149 0
M  V30 4112 O 400.055 0.34384 -5.45417 0
M  V30 4113 H 397.149 0.0874636 -0.822362 0
M  V30 4114 H 399.695 -0.578775 -1.59525 0
M  V30 4115 H 398.467 -1.01745 -3.77841 0
M  V30 4116 H 398.09 0.692091 -3.9153 0
M  V30 4117 N 399.087 1.5561 -0.249682 0
M  V30 4118 C 400.035 2.22894 0.664906 0
M  V30 4119 C 401.029 1.21743 1.17792 0
M  V30 4120 O 402.235 1.39748 1.13449 0
M  V30 4121 H 398.61 0.715022 0.232912 0
M  V30 4122 H 400.581 2.98307 0.0742998 0
M  V30 4123 C 399.33 2.94424 1.84959 0
M  V30 4124 H 398.653 3.72031 1.46399 0
M  V30 4125 H 400.093 3.44862 2.4667 0
M  V30 4126 C 398.552 1.98454 2.72245 0
M  V30 4127 O 399.082 1.51939 3.71857 0
M  V30 4128 N 397.288 1.65496 2.38871 0
M  V30 4129 H 396.835 2.03517 1.57919 0
M  V30 4130 H 396.793 1.0155 2.97548 0
M  V30 4131 N 400.565 -0.0233959 1.57583 0
M  V30 4132 C 401.495 -1.02162 2.09965 0
M  V30 4133 C 402.476 -1.3735 1.00344 0
M  V30 4134 O 403.661 -1.46135 1.27899 0
M  V30 4135 C 400.791 -2.32081 2.58371 0
M  V30 4136 C 399.745 -2.1112 3.72307 0
M  V30 4137 C 399.071 -3.46848 4.06941 0
M  V30 4138 C 400.371 -1.49276 5.00514 0
M  V30 4139 H 402.065 -0.585557 2.93618 0
M  V30 4140 H 399.611 -0.280218 1.41247 0
M  V30 4141 H 401.564 -3.02249 2.93639 0
M  V30 4142 H 400.288 -2.77758 1.71808 0
M  V30 4143 H 398.947 -1.43384 3.37397 0
M  V30 4144 H 398.595 -3.90184 3.17436 0
M  V30 4145 H 398.295 -3.33646 4.83688 0
M  V30 4146 H 399.819 -4.18369 4.44747 0
M  V30 4147 H 401.233 -2.09368 5.33702 0
M  V30 4148 H 399.63 -1.46632 5.8191 0
M  V30 4149 H 400.7 -0.459217 4.82721 0
M  V30 4150 N 402.043 -1.548 -0.295768 0
M  V30 4151 C 403.273 -1.78069 -1.04762 0
M  V30 4152 C 403.681 -0.542847 -1.81245 0
M  V30 4153 O 403.024 0.497051 -1.76848 0
M  V30 4154 C 403.086 -2.93881 -2.07061 0
M  V30 4155 C 402.75 -4.31777 -1.49725 0
M  V30 4156 C 403.747 -5.11613 -0.924581 0
M  V30 4157 C 401.432 -4.78389 -1.5313 0
M  V30 4158 C 403.426 -6.36184 -0.393594 0
M  V30 4159 C 401.113 -6.02921 -0.996447 0
M  V30 4160 C 402.111 -6.81654 -0.428569 0
M  V30 4161 O 401.799 -8.0384 0.0981593 0
M  V30 4162 H 401.531 -0.597475 -0.316226 0
M  V30 4163 H 404.085 -2.02584 -0.338973 0
M  V30 4164 H 402.315 -2.65003 -2.81621 0
M  V30 4165 H 404.004 -3.04679 -2.6819 0
M  V30 4166 H 404.77 -4.76743 -0.891136 0
M  V30 4167 H 400.649 -4.17132 -1.9627 0
M  V30 4168 H 404.193 -6.97582 0.0503014 0
M  V30 4169 H 400.09 -6.37277 -1.02706 0
M  V30 4170 H 400.858 -8.18499 -0.0146455 0
M  V30 4171 N 403.521 0.559213 -1.47345 0
M  V30 4172 C 404.749 1.34194 -1.57479 0
M  V30 4173 C 405.164 1.87463 -0.224261 0
M  V30 4174 O 404.521 1.64888 0.782185 0
M  V30 4175 C 404.572 2.51324 -2.59843 0
M  V30 4176 O 404.293 2.00256 -3.89653 0
M  V30 4177 C 405.794 3.43563 -2.80142 0
M  V30 4178 H 403.014 0.409136 -0.531835 0
M  V30 4179 H 405.558 0.677609 -1.92947 0
M  V30 4180 H 403.713 3.13699 -2.27314 0
M  V30 4181 H 404.127 2.76708 -4.4557 0
M  V30 4182 H 405.601 4.2217 -3.55635 0
M  V30 4183 H 406.078 3.9698 -1.87892 0
M  V30 4184 H 406.684 2.87005 -3.1386 0
M  V30 4185 N 404.999 1.35443 0.805782 0
M  V30 4186 C 406.246 1.28761 1.56291 0
M  V30 4187 C 406.574 -0.137747 1.94012 0
M  V30 4188 O 405.829 -1.1032 1.61642 0
M  V30 4189 C 406.128 2.14045 2.86216 0
M  V30 4190 C 405.794 3.62826 2.67709 0
M  V30 4191 C 404.456 4.0338 2.6237 0
M  V30 4192 C 406.808 4.57227 2.50186 0
M  V30 4193 C 404.136 5.36501 2.37451 0
M  V30 4194 C 406.488 5.90547 2.26797 0
M  V30 4195 C 405.152 6.30245 2.1988 0
M  V30 4196 H 404.422 0.471171 0.571908 0
M  V30 4197 H 407.069 1.67347 0.930974 0
M  V30 4198 H 405.374 1.68342 3.53791 0
M  V30 4199 H 407.071 2.0621 3.43917 0
M  V30 4200 H 403.661 3.30644 2.72713 0
M  V30 4201 H 407.845 4.2678 2.53323 0
M  V30 4202 H 403.101 5.66259 2.30567 0
M  V30 4203 H 407.275 6.63274 2.12228 0
M  V30 4204 H 404.902 7.33328 2.00333 0
M  V30 4205 N 406.477 -1.02803 1.19454 0
M  V30 4206 C 407.723 -1.76478 0.999171 0
M  V30 4207 C 408.056 -1.88456 -0.468828 0
M  V30 4208 O 407.331 -1.40198 -1.34814 0
M  V30 4209 C 407.614 -3.19044 1.66981 0
M  V30 4210 C 407.467 -3.14932 3.21151 0
M  V30 4211 C 408.786 -4.17456 1.39349 0
M  V30 4212 H 405.905 -0.640614 0.364393 0
M  V30 4213 H 408.547 -1.20005 1.47305 0
M  V30 4214 H 406.697 -3.67263 1.2669 0
M  V30 4215 H 408.369 -2.74605 3.70661 0
M  V30 4216 H 406.612 -2.52625 3.52652 0
M  V30 4217 H 407.283 -4.1566 3.63223 0
M  V30 4218 H 409.759 -3.77842 1.74283 0
M  V30 4219 H 408.635 -5.154 1.88823 0
M  V30 4220 H 408.896 -4.40949 0.318813 0
M  V30 4221 N 407.956 -0.998596 -1.21925 0
M  V30 4222 C 408.886 -0.573688 -2.26343 0
M  V30 4223 C 409.867 0.402296 -1.65274 0
M  V30 4224 O 411.052 0.291683 -1.91997 0
M  V30 4225 C 408.182 0.106839 -3.47136 0
M  V30 4226 C 407.136 -0.788269 -4.20678 0
M  V30 4227 C 406.462 0.0254927 -5.34694 0
M  V30 4228 C 407.762 -2.08784 -4.78755 0
M  V30 4229 H 409.456 -1.44651 -2.62138 0
M  V30 4230 H 407.002 -0.696975 -1.26009 0
M  V30 4231 H 408.955 0.415531 -4.19346 0
M  V30 4232 H 407.679 1.01424 -3.10452 0
M  V30 4233 H 406.338 -1.08069 -3.50309 0
M  V30 4234 H 405.986 0.933989 -4.94253 0
M  V30 4235 H 405.686 -0.570437 -5.84825 0
M  V30 4236 H 407.21 0.328147 -6.09718 0
M  V30 4237 H 408.624 -1.84272 -5.42878 0
M  V30 4238 H 407.021 -2.63307 -5.39249 0
M  V30 4239 H 408.091 -2.76284 -3.98491 0
M  V30 4240 N 409.434 1.37368 -0.772513 0
M  V30 4241 C 410.381 2.30262 -0.157488 0
M  V30 4242 C 411.351 1.51137 0.688965 0
M  V30 4243 O 412.536 1.79704 0.641168 0
M  V30 4244 C 409.676 3.37611 0.715045 0
M  V30 4245 C 408.789 4.31746 -0.148098 0
M  V30 4246 C 407.924 5.26171 0.729213 0
M  V30 4247 C 406.963 6.11948 -0.136418 0
M  V30 4248 N 406.1 6.98613 0.698914 0
M  V30 4249 H 410.94 2.82277 -0.955179 0
M  V30 4250 H 408.477 1.38957 -0.482631 0
M  V30 4251 H 410.435 3.98479 1.23575 0
M  V30 4252 H 409.065 2.86959 1.47833 0
M  V30 4253 H 408.117 3.72178 -0.786613 0
M  V30 4254 H 409.429 4.92084 -0.81579 0
M  V30 4255 H 408.583 5.92247 1.31637 0
M  V30 4256 H 407.322 4.66246 1.43059 0
M  V30 4257 H 406.327 5.4485 -0.736102 0
M  V30 4258 H 407.552 6.73945 -0.835134 0
M  V30 4259 H 405.498 6.41215 1.38489 0
M  V30 4260 H 405.415 7.55948 0.0885358 0
M  V30 4261 H 406.683 7.69077 1.27044 0
M  V30 4262 N 410.912 0.523116 1.48665 0
M  V30 4263 C 412.158 -0.0134963 2.02796 0
M  V30 4264 C 412.491 -1.34582 1.40004 0
M  V30 4265 O 411.766 -1.86756 0.543381 0
M  V30 4266 C 412.049 -0.14276 3.59817 0
M  V30 4267 C 411.902 1.21425 4.331 0
M  V30 4268 C 413.221 -0.872856 4.31357 0
M  V30 4269 H 410.34 -0.00343074 0.736992 0
M  V30 4270 H 412.982 0.678816 1.7746 0
M  V30 4271 H 411.132 -0.732401 3.81534 0
M  V30 4272 H 412.804 1.84447 4.2282 0
M  V30 4273 H 411.047 1.79791 3.94788 0
M  V30 4274 H 411.718 1.07687 5.41394 0
M  V30 4275 H 414.194 -0.372555 4.14429 0
M  V30 4276 H 413.07 -0.932185 5.40927 0
M  V30 4277 H 413.331 -1.92161 3.98154 0
M  V30 4278 N 412.39 -1.55475 0.257931 0
M  V30 4279 C 413.337 -2.21837 -0.636939 0
M  V30 4280 C 414.307 -1.18596 -1.16294 0
M  V30 4281 O 415.492 -1.47081 -1.21539 0
M  V30 4282 C 412.632 -2.9301 -1.82317 0
M  V30 4283 C 411.745 -4.10931 -1.33265 0
M  V30 4284 C 410.88 -4.69791 -2.47931 0
M  V30 4285 C 409.919 -5.7994 -1.95796 0
M  V30 4286 N 409.056 -6.32935 -3.0387 0
M  V30 4287 H 413.896 -2.9793 -0.0643591 0
M  V30 4288 H 411.433 -1.47086 -0.0200031 0
M  V30 4289 H 413.391 -3.3248 -2.52018 0
M  V30 4290 H 412.021 -2.1937 -2.36805 0
M  V30 4291 H 411.073 -3.76699 -0.52931 0
M  V30 4292 H 412.385 -4.90417 -0.910654 0
M  V30 4293 H 411.539 -5.11892 -3.25656 0
M  V30 4294 H 410.278 -3.89545 -2.93438 0
M  V30 4295 H 409.283 -5.37305 -1.16546 0
M  V30 4296 H 410.508 -6.62043 -1.51246 0
M  V30 4297 H 408.454 -5.55591 -3.48791 0
M  V30 4298 H 408.371 -7.07645 -2.66035 0
M  V30 4299 H 409.639 -6.79695 -3.81621 0
M  V30 4300 N 413.868 0.0150385 -1.57593 0
M  V30 4301 C 415.145 0.7392 -1.81094 0
M  V30 4302 C 415.525 1.92817 -0.859344 0
M  V30 4303 O 414.873 2.28301 0.095362 0
M  V30 4304 C 415.083 1.15907 -3.29191 0
M  V30 4305 C 416.431 1.56918 -3.9454 0
M  V30 4306 O 417.455 1.25328 -3.33424 0
M  V30 4307 O 416.314 2.15604 -5.02173 0
M  V30 4308 H 413.408 0.358631 -0.745193 0
M  V30 4309 H 415.954 -0.00926156 -1.69697 0
M  V30 4310 H 414.726 0.310921 -3.90063 0
M  V30 4311 H 414.349 1.96711 -3.45529 0
M  V30 4312 N 415.346 1.54954 0.287554 0
M  V30 4313 C 416.762 1.46469 0.633964 0
M  V30 4314 C 416.962 0.666865 1.90145 0
M  V30 4315 O 416.018 0.179906 2.51858 0
M  V30 4316 C 417.331 2.90556 0.774454 0
M  V30 4317 C 418.879 3.00681 0.869462 0
M  V30 4318 C 419.354 4.45993 1.04184 0
M  V30 4319 N 420.845 4.4976 1.10772 0
M  V30 4320 C 421.58 5.59393 1.25964 0
M  V30 4321 N 421.076 6.78923 1.37968 0
M  V30 4322 N 422.869 5.47107 1.28959 0
M  V30 4323 H 415.02 2.05288 -0.545041 0
M  V30 4324 H 417.283 0.930305 -0.182308 0
M  V30 4325 H 416.989 3.51594 -0.086207 0
M  V30 4326 H 416.863 3.38743 1.6593 0
M  V30 4327 H 419.25 2.39749 1.7206 0
M  V30 4328 H 419.331 2.55769 -0.0396831 0
M  V30 4329 H 418.975 5.07524 0.195422 0
M  V30 4330 H 418.905 4.88548 1.96542 0
M  V30 4331 H 421.396 3.63651 1.02794 0
M  V30 4332 H 421.709 7.58231 1.49353 0
M  V30 4333 H 420.054 6.81763 1.34999 0
M  V30 4334 H 423.245 4.52668 1.19202 0
M  V30 4335 H 423.418 6.32595 1.40455 0
M  V30 4336 N 416.824 -0.551391 1.4764 0
M  V30 4337 C 418.052 -1.33357 1.58189 0
M  V30 4338 C 418.467 -1.87342 0.234199 0
M  V30 4339 O 417.824 -1.65301 -0.77343 0
M  V30 4340 C 417.875 -2.49942 2.61173 0
M  V30 4341 O 417.596 -1.98187 3.90709 0
M  V30 4342 C 419.097 -3.42072 2.8196 0
M  V30 4343 H 416.317 -0.40631 0.533998 0
M  V30 4344 H 418.861 -0.667367 1.93304 0
M  V30 4345 H 417.016 -3.12489 2.28975 0
M  V30 4346 H 417.43 -2.74342 4.47031 0
M  V30 4347 H 418.904 -4.20278 3.57869 0
M  V30 4348 H 419.381 -3.95978 1.89995 0
M  V30 4349 H 419.987 -2.85336 3.15378 0
M  V30 4350 N 418.302 -1.35869 -0.798587 0
M  V30 4351 C 419.579 -1.20145 -1.54352 0
M  V30 4352 C 419.959 0.216161 -2.0999 0
M  V30 4353 O 419.307 1.22068 -1.93162 0
M  V30 4354 C 419.517 -2.27602 -2.64572 0
M  V30 4355 C 420.865 -2.63811 -3.32699 0
M  V30 4356 O 421.889 -2.26576 -2.74849 0
M  V30 4357 O 420.748 -3.27866 -4.37226 0
M  V30 4358 H 417.842 -0.467248 -0.682355 0
M  V30 4359 H 420.388 -1.47574 -0.837859 0
M  V30 4360 H 419.16 -3.2265 -2.21388 0
M  V30 4361 H 418.783 -2.01488 -3.42766 0
M  V30 4362 N 419.78 1.02168 -1.19998 0
M  V30 4363 C 421.029 1.75091 -1.0013 0
M  V30 4364 C 421.342 1.89923 0.467835 0
M  V30 4365 O 422.548 2.59888 0.785515 0
M  V30 4366 C 421.004 3.14892 -1.74273 0
M  V30 4367 C 420.612 3.0809 -3.25245 0
M  V30 4368 C 422.356 3.9206 -1.62755 0
M  V30 4369 C 420.263 4.42867 -3.91948 0
M  V30 4370 H 419.193 0.656394 -0.37103 0
M  V30 4371 H 421.844 1.14284 -1.43567 0
M  V30 4372 H 420.226 3.7621 -1.2362 0
M  V30 4373 H 421.4 2.5611 -3.83072 0
M  V30 4374 H 419.715 2.44416 -3.3712 0
M  V30 4375 H 422.312 4.91764 -2.09934 0
M  V30 4376 H 422.655 4.12199 -0.582894 0
M  V30 4377 H 423.188 3.37359 -2.10793 0
M  V30 4378 H 419.927 4.27931 -4.96543 0
M  V30 4379 H 419.447 4.94874 -3.3891 0
M  V30 4380 H 421.126 5.11728 -3.95909 0
M  V30 4381 N 421.258 1.00505 1.21394 0
M  V30 4382 C 422.507 0.683159 1.89778 0
M  V30 4383 C 422.82 -0.789471 1.7896 0
M  V30 4384 O 424.026 -1.22344 2.42372 0
M  V30 4385 C 422.482 1.17146 3.40301 0
M  V30 4386 C 422.09 2.67017 3.5973 0
M  V30 4387 C 423.834 0.924461 4.14311 0
M  V30 4388 C 421.741 3.09387 5.04017 0
M  V30 4389 H 420.671 0.25183 0.710702 0
M  V30 4390 H 423.322 1.21622 1.37406 0
M  V30 4391 H 421.704 0.566451 3.91928 0
M  V30 4392 H 422.878 3.32968 3.18542 0
M  V30 4393 H 421.193 2.89732 2.99073 0
M  V30 4394 H 423.79 1.21658 5.20676 0
M  V30 4395 H 424.133 -0.139286 4.16067 0
M  V30 4396 H 424.666 1.49226 3.6875 0
M  V30 4397 H 421.405 4.14989 5.07409 0
M  V30 4398 H 420.925 2.48149 5.46061 0
M  V30 4399 H 422.604 3.01371 5.72525 0
M  V30 4400 N 422.737 -1.36956 0.779787 0
M  V30 4401 C 423.984 -1.99491 0.347766 0
M  V30 4402 C 424.312 -1.61898 -1.07793 0
M  V30 4403 O 423.567 -0.86071 -1.75756 0
M  V30 4404 C 423.866 -3.54585 0.447686 0
M  V30 4405 C 423.532 -4.1197 1.83279 0
M  V30 4406 C 422.194 -4.27356 2.2118 0
M  V30 4407 C 424.546 -4.43354 2.74019 0
M  V30 4408 C 421.874 -4.71432 3.4924 0
M  V30 4409 C 424.226 -4.88858 4.01497 0
M  V30 4410 C 422.89 -5.0245 4.39432 0
M  V30 4411 H 422.16 -0.729991 0.127257 0
M  V30 4412 H 424.807 -1.63599 0.995376 0
M  V30 4413 H 423.112 -3.90773 -0.283447 0
M  V30 4414 H 424.809 -4.00888 0.0945948 0
M  V30 4415 H 421.399 -4.00428 1.52825 0
M  V30 4416 H 425.583 -4.31045 2.45995 0
M  V30 4417 H 420.839 -4.80141 3.78516 0
M  V30 4418 H 425.013 -5.12108 4.71931 0
M  V30 4419 H 422.64 -5.36362 5.38721 0
M  V30 4420 N 424.215 -0.530993 -1.48385 0
M  V30 4421 C 425.125 0.23503 -2.3342 0
M  V30 4422 C 426.141 0.93801 -1.46552 0
M  V30 4423 O 427.317 0.912745 -1.7953 0
M  V30 4424 C 424.382 1.26778 -3.22689 0
M  V30 4425 C 423.443 0.575038 -4.25431 0
M  V30 4426 C 422.676 1.55858 -5.10435 0
M  V30 4427 O 422.899 2.79129 -4.97437 0
M  V30 4428 O 421.833 1.09742 -5.91811 0
M  V30 4429 H 425.659 -0.461794 -3.00169 0
M  V30 4430 H 423.244 -0.291903 -1.46521 0
M  V30 4431 H 425.126 1.86457 -3.77904 0
M  V30 4432 H 423.801 1.94699 -2.586 0
M  V30 4433 H 422.708 -0.0622782 -3.74048 0
M  V30 4434 H 424.041 -0.062253 -4.92161 0
M  V30 4435 N 425.693 1.55336 -0.266172 0
M  V30 4436 C 426.939 1.99692 0.353681 0
M  V30 4437 C 427.272 1.1543 1.56172 0
M  V30 4438 O 426.547 0.222218 1.93226 0
M  V30 4439 C 426.83 3.52316 0.74466 0
M  V30 4440 C 426.683 4.47337 -0.470101 0
M  V30 4441 C 428.002 4.10588 1.58447 0
M  V30 4442 H 425.121 0.725961 0.12708 0
M  V30 4443 H 427.763 1.86336 -0.371333 0
M  V30 4444 H 425.913 3.63829 1.36239 0
M  V30 4445 H 427.585 4.4778 -1.10864 0
M  V30 4446 H 425.828 4.19364 -1.10978 0
M  V30 4447 H 426.499 5.51788 -0.15291 0
M  V30 4448 H 428.975 4.02297 1.06286 0
M  V30 4449 H 427.851 5.17607 1.82686 0
M  V30 4450 H 428.112 3.60253 2.56262 0
M  V30 4451 N 427.171 -0.0066808 1.57599 0
M  V30 4452 C 428.419 -0.691552 1.899 0
M  V30 4453 C 428.74 -1.74682 0.866672 0
M  V30 4454 O 428.01 -1.95661 -0.0968189 0
M  V30 4455 H 426.59 -0.258416 0.700878 0
M  V30 4456 H 429.252 0.0326655 1.94873 0
M  V30 4457 H 428.348 -1.16702 2.8946 0
M  V30 4458 N 428.649 -1.55105 -0.279332 0
M  V30 4459 C 429.926 -1.66119 -1.03267 0
M  V30 4460 C 430.306 -0.523525 -2.04505 0
M  V30 4461 O 429.654 0.477194 -2.23462 0
M  V30 4462 C 429.864 -3.05067 -1.69515 0
M  V30 4463 C 431.212 -3.62606 -2.20912 0
M  V30 4464 O 432.236 -3.07659 -1.79512 0
M  V30 4465 O 431.095 -4.58861 -2.96831 0
M  V30 4466 H 428.189 -0.674429 -0.478618 0
M  V30 4467 H 430.735 -1.67446 -0.275694 0
M  V30 4468 H 429.507 -3.79311 -0.9612 0
M  V30 4469 H 429.13 -3.07611 -2.51915 0
M  V30 4470 N 430.127 0.543554 -1.4793 0
M  V30 4471 C 431.037 1.67657 -1.64098 0
M  V30 4472 C 432.053 1.65934 -0.523622 0
M  V30 4473 O 433.229 1.85133 -0.792943 0
M  V30 4474 C 430.294 3.04146 -1.66421 0
M  V30 4475 C 429.355 3.16831 -2.89684 0
M  V30 4476 C 428.588 4.46809 -2.91886 0
M  V30 4477 O 428.811 5.33095 -2.02895 0
M  V30 4478 O 427.745 4.63573 -3.83906 0
M  V30 4479 H 431.571 1.56957 -2.59997 0
M  V30 4480 H 429.156 0.715116 -1.31173 0
M  V30 4481 H 431.038 3.85346 -1.70548 0
M  V30 4482 H 429.713 3.152 -0.736923 0
M  V30 4483 H 428.62 2.34977 -2.91095 0
M  V30 4484 H 429.953 3.10687 -3.81752 0
M  V30 4485 N 431.605 1.3629 0.791371 0
M  V30 4486 C 432.537 1.26321 1.91248 0
M  V30 4487 C 433.55 0.18313 1.61767 0
M  V30 4488 O 434.739 0.437682 1.73051 0
M  V30 4489 C 431.839 0.925901 3.26007 0
M  V30 4490 C 431.012 2.10746 3.83281 0
M  V30 4491 C 430.071 1.74352 4.96475 0
M  V30 4492 O 429.097 2.46416 5.13096 0
M  V30 4493 N 430.299 0.676058 5.7655 0
M  V30 4494 H 433.064 2.22915 2.00323 0
M  V30 4495 H 430.625 1.29659 0.969546 0
M  V30 4496 H 432.617 0.663636 3.99222 0
M  V30 4497 H 431.187 0.0491581 3.12561 0
M  V30 4498 H 430.407 2.53264 3.02077 0
M  V30 4499 H 431.695 2.8969 4.18279 0
M  V30 4500 H 431.093 0.0776467 5.65647 0
M  V30 4501 H 429.65 0.473612 6.50077 0
M  V30 4502 N 433.083 -1.0153 1.20538 0
M  V30 4503 C 434.015 -2.10224 0.913155 0
M  V30 4504 C 435.028 -1.62495 -0.0995998 0
M  V30 4505 O 436.217 -1.78014 0.131582 0
M  V30 4506 C 433.317 -3.37111 0.347717 0
M  V30 4507 C 432.49 -4.13971 1.41233 0
M  V30 4508 C 431.549 -5.19158 0.857976 0
M  V30 4509 O 430.575 -5.48 1.53897 0
M  V30 4510 N 431.777 -5.7955 -0.331966 0
M  V30 4511 H 434.542 -2.35879 1.84881 0
M  V30 4512 H 432.103 -1.17931 1.10923 0
M  V30 4513 H 434.095 -4.04683 -0.0373026 0
M  V30 4514 H 432.665 -3.08696 -0.492527 0
M  V30 4515 H 431.885 -3.41351 1.97163 0
M  V30 4516 H 433.173 -4.62103 2.12928 0
M  V30 4517 H 432.571 -5.58455 -0.902478 0
M  V30 4518 H 431.128 -6.48464 -0.65861 0
M  V30 4519 N 434.561 -1.01147 -1.20859 0
M  V30 4520 C 435.491 -0.597663 -2.25722 0
M  V30 4521 C 436.472 0.384744 -1.65692 0
M  V30 4522 O 437.657 0.271303 -1.92296 0
M  V30 4523 C 434.787 0.0700149 -3.47229 0
M  V30 4524 C 433.741 -0.832843 -4.19819 0
M  V30 4525 C 433.067 -0.0312202 -5.34691 0
M  V30 4526 C 434.367 -2.1385 -4.76514 0
M  V30 4527 H 436.061 -1.47423 -2.60589 0
M  V30 4528 H 433.607 -0.710301 -1.25263 0
M  V30 4529 H 435.56 0.37103 -4.19763 0
M  V30 4530 H 434.284 0.981259 -3.11511 0
M  V30 4531 H 432.943 -1.11778 -3.49144 0
M  V30 4532 H 432.591 0.881515 -4.95215 0
M  V30 4533 H 432.291 -0.632434 -5.84187 0
M  V30 4534 H 433.815 0.26346 -6.10031 0
M  V30 4535 H 435.229 -1.9002 -5.40893 0
M  V30 4536 H 433.626 -2.69012 -5.36426 0
M  V30 4537 H 434.696 -2.80495 -3.95538 0
M  V30 4538 N 436.039 1.36541 -0.78704 0
M  V30 4539 C 436.987 2.31965 -0.171724 0
M  V30 4540 C 437.981 1.55689 0.667631 0
M  V30 4541 O 439.187 1.70969 0.562981 0
M  V30 4542 H 435.562 0.751101 -0.0367545 0
M  V30 4543 H 437.533 2.81428 -0.992017 0
M  V30 4544 C 436.282 3.40968 0.680904 0
M  V30 4545 H 435.605 3.99775 0.0443961 0
M  V30 4546 H 437.045 4.10063 1.07815 0
M  V30 4547 C 435.504 2.82338 1.83813 0
M  V30 4548 O 436.034 2.74311 2.93456 0
M  V30 4549 N 434.24 2.39661 1.6435 0
M  V30 4550 H 433.787 2.46389 0.751668 0
M  V30 4551 H 433.745 2.00779 2.4194 0
M  V30 4552 N 437.518 0.538854 1.48102 0
M  V30 4553 C 438.743 0.0102694 2.07397 0
M  V30 4554 C 439.168 -1.26562 1.39153 0
M  V30 4555 O 438.526 -1.75357 0.460387 0
M  V30 4556 C 438.574 -0.187602 3.60112 0
M  V30 4557 O 437.678 -1.25432 3.92862 0
M  V30 4558 H 437.019 0.0430975 0.6626 0
M  V30 4559 H 439.549 0.749301 1.90385 0
M  V30 4560 H 439.559 -0.407517 4.0596 0
M  V30 4561 H 438.234 0.744386 4.09184 0
M  V30 4562 H 436.811 -1.01636 3.58782 0
M  V30 4563 N 438.996 -1.55193 0.274407 0
M  V30 4564 C 440.242 -2.00604 -0.33608 0
M  V30 4565 C 440.597 -1.15948 -1.53538 0
M  V30 4566 O 439.89 -0.221385 -1.90317 0
M  V30 4567 C 440.084 -3.49019 -0.769458 0
M  V30 4568 C 439.913 -4.48038 0.386301 0
M  V30 4569 C 438.683 -4.97757 0.869854 0
M  V30 4570 C 440.881 -4.99558 1.22254 0
M  V30 4571 N 438.863 -5.80575 1.99515 0
M  V30 4572 C 440.234 -5.79816 2.19575 0
M  V30 4573 C 442.289 -4.81799 1.25597 0
M  V30 4574 C 440.992 -6.44208 3.19981 0
M  V30 4575 C 443.018 -5.46989 2.24848 0
M  V30 4576 C 442.38 -6.27058 3.20901 0
M  V30 4577 H 438.479 -0.777013 -0.088172 0
M  V30 4578 H 441.063 -1.90583 0.398266 0
M  V30 4579 H 439.234 -3.59383 -1.47303 0
M  V30 4580 H 440.966 -3.81263 -1.35722 0
M  V30 4581 H 437.721 -4.71464 0.449281 0
M  V30 4582 H 438.145 -6.26675 2.5614 0
M  V30 4583 H 442.787 -4.19501 0.527158 0
M  V30 4584 H 440.505 -7.05656 3.93796 0
M  V30 4585 H 444.091 -5.35189 2.28174 0
M  V30 4586 H 442.971 -6.7661 3.96445 0
M  V30 4587 N 440.474 -0.00167713 -1.576 0
M  V30 4588 C 441.407 1.02317 -2.03977 0
M  V30 4589 C 442.385 1.33381 -0.929963 0
M  V30 4590 O 443.569 1.45517 -1.19822 0
M  V30 4591 C 440.696 2.35035 -2.43878 0
M  V30 4592 C 439.742 2.19621 -3.65607 0
M  V30 4593 S 440.575 1.52068 -5.13455 0
M  V30 4594 C 441.731 2.86212 -5.56627 0
M  V30 4595 H 441.964 0.628285 -2.90585 0
M  V30 4596 H 439.497 0.209239 -1.52976 0
M  V30 4597 H 441.455 3.11345 -2.67534 0
M  V30 4598 H 440.116 2.71663 -1.57665 0
M  V30 4599 H 439.309 3.1767 -3.91282 0
M  V30 4600 H 438.911 1.51455 -3.41961 0
M  V30 4601 H 441.203 3.82509 -5.59189 0
M  V30 4602 H 442.146 2.65235 -6.56549 0
M  V30 4603 H 442.554 2.90199 -4.84195 0
M  V30 4604 N 441.952 1.55251 0.271103 0
M  V30 4605 C 442.915 1.87484 1.31842 0
M  V30 4606 C 443.915 0.749545 1.42262 0
M  V30 4607 O 445.105 1.01771 1.4138 0
M  V30 4608 C 442.237 2.0818 2.69951 0
M  V30 4609 H 443.43 2.81108 1.0449 0
M  V30 4610 H 440.983 1.47771 0.509258 0
M  V30 4611 H 441.718 1.16944 3.02481 0
M  V30 4612 H 441.503 2.90114 2.63774 0
M  V30 4613 H 442.993 2.34385 3.4562 0
M  V30 4614 N 443.43 -0.535701 1.48216 0
M  V30 4615 C 444.34 -1.66785 1.64985 0
M  V30 4616 C 445.356 -1.65654 0.532414 0
M  V30 4617 O 446.532 -1.8471 0.80275 0
M  V30 4618 C 443.597 -3.0326 1.68031 0
M  V30 4619 C 442.658 -3.1529 2.9136 0
M  V30 4620 C 441.891 -4.45255 2.94252 0
M  V30 4621 O 442.114 -5.32011 2.05719 0
M  V30 4622 O 441.048 -4.6153 3.86359 0
M  V30 4623 H 444.874 -1.55576 2.60825 0
M  V30 4624 H 442.459 -0.70815 1.31551 0
M  V30 4625 H 444.341 -3.84436 1.72589 0
M  V30 4626 H 443.016 -3.14805 0.753628 0
M  V30 4627 H 441.923 -2.3343 2.92337 0
M  V30 4628 H 443.256 -3.08658 3.83394 0
M  V30 4629 N 444.908 -1.36708 -0.784132 0
M  V30 4630 C 445.838 -1.34153 -1.91116 0
M  V30 4631 C 446.819 -0.212121 -1.68772 0
M  V30 4632 O 448.004 -0.410581 -1.8981 0
M  V30 4633 C 445.134 -1.13535 -3.28218 0
M  V30 4634 C 444.088 -2.23356 -3.65097 0
M  V30 4635 C 443.414 -1.87875 -5.00607 0
M  V30 4636 C 444.714 -3.65473 -3.73131 0
M  V30 4637 H 446.408 -2.28459 -1.93512 0
M  V30 4638 H 443.954 -1.09973 -0.929618 0
M  V30 4639 H 445.907 -1.10381 -4.06687 0
M  V30 4640 H 444.631 -0.156804 -3.26223 0
M  V30 4641 H 443.29 -2.25645 -2.88929 0
M  V30 4642 H 442.938 -0.885814 -4.95139 0
M  V30 4643 H 442.638 -2.61406 -5.26252 0
M  V30 4644 H 444.162 -1.86286 -5.81489 0
M  V30 4645 H 445.576 -3.65382 -4.41779 0
M  V30 4646 H 443.973 -4.37953 -4.10265 0
M  V30 4647 H 445.043 -3.99995 -2.74102 0
M  V30 4648 N 446.386 1.0089 -1.21074 0
M  V30 4649 C 447.611 1.78727 -1.05221 0
M  V30 4650 C 448.036 1.83932 0.393795 0
M  V30 4651 O 447.394 1.28004 1.28393 0
M  V30 4652 C 447.442 3.20665 -1.64944 0
M  V30 4653 O 446.546 4.02632 -0.892273 0
M  V30 4654 H 445.887 0.550973 -0.370574 0
M  V30 4655 H 448.417 1.26847 -1.60534 0
M  V30 4656 H 448.427 3.71352 -1.69002 0
M  V30 4657 H 447.102 3.16191 -2.70177 0
M  V30 4658 H 445.679 3.61207 -0.926492 0
M  V30 4659 N 447.864 1.01787 1.20321 0
M  V30 4660 C 448.774 0.598898 2.26827 0
M  V30 4661 C 449.79 -0.36418 1.70146 0
M  V30 4662 O 450.966 -0.224812 2.00141 0
M  V30 4663 C 448.031 -0.0549769 3.46656 0
M  V30 4664 C 447.092 0.954205 4.18561 0
M  V30 4665 C 446.325 0.331439 5.3267 0
M  V30 4666 O 446.548 -0.86851 5.63749 0
M  V30 4667 O 445.482 1.0488 5.92692 0
M  V30 4668 H 449.308 1.48562 2.64883 0
M  V30 4669 H 446.893 0.787434 1.26964 0
M  V30 4670 H 448.775 -0.420102 4.19301 0
M  V30 4671 H 447.45 -0.915876 3.10473 0
M  V30 4672 H 446.357 1.37072 3.48083 0
M  V30 4673 H 447.69 1.78511 4.58688 0
M  V30 4674 N 449.342 -1.36122 0.79427 0
M  V30 4675 C 450.582 -2.00942 0.374376 0
M  V30 4676 C 450.946 -1.61666 -1.03577 0
M  V30 4677 O 452.147 -2.19113 -1.55701 0
M  V30 4678 C 450.418 -3.53323 0.538327 0
M  V30 4679 S 451.977 -4.38311 0.20703 0
M  V30 4680 H 448.795 -0.696515 0.142785 0
M  V30 4681 H 451.397 -1.65929 1.03382 0
M  V30 4682 H 450.101 -3.79395 1.56484 0
M  V30 4683 H 449.632 -3.93162 -0.136882 0
M  V30 4684 H 451.647 -4.8623 -0.989695 0
M  V30 4685 N 450.82 -0.546701 -1.47814 0
M  V30 4686 C 452.048 -0.0232857 -2.06887 0
M  V30 4687 C 452.463 1.26571 -1.4009 0
M  V30 4688 O 451.82 1.7569 -0.493906 0
M  V30 4689 C 451.871 0.186975 -3.61016 0
M  V30 4690 O 451.592 -1.05097 -4.25307 0
M  V30 4691 C 453.093 0.748872 -4.36929 0
M  V30 4692 H 450.313 -0.0410763 -0.669742 0
M  V30 4693 H 452.857 -0.757117 -1.89968 0
M  V30 4694 H 451.012 0.870903 -3.77484 0
M  V30 4695 H 451.426 -0.842121 -5.17695 0
M  V30 4696 H 452.9 0.845334 -5.45489 0
M  V30 4697 H 453.377 1.75772 -4.02493 0
M  V30 4698 H 453.983 0.100979 -4.2518 0
M  V30 4699 N 452.299 1.55045 -0.282633 0
M  V30 4700 C 453.547 1.99365 0.331334 0
M  V30 4701 C 453.868 1.1725 1.55812 0
M  V30 4702 O 453.138 0.263871 1.94115 0
M  V30 4703 H 451.718 0.736397 0.125414 0
M  V30 4704 H 454.38 1.90964 -0.389711 0
M  V30 4705 H 453.476 3.0596 0.616036 0
M  V30 4706 N 453.777 0.010035 1.57597 0
M  V30 4707 C 455.193 -0.346164 1.55801 0
M  V30 4708 C 455.393 -1.74144 1.01371 0
M  V30 4709 O 454.449 -2.43938 0.651968 0
M  V30 4710 C 455.762 -0.212216 2.9995 0
M  V30 4711 C 457.31 -0.286409 3.11687 0
M  V30 4712 C 457.785 -0.18147 4.5764 0
M  V30 4713 N 459.276 -0.239056 4.62583 0
M  V30 4714 C 460.011 -0.181351 5.73113 0
M  V30 4715 N 459.507 -0.073661 6.92761 0
M  V30 4716 N 461.3 -0.233949 5.61613 0
M  V30 4717 H 453.451 0.922657 1.91313 0
M  V30 4718 H 455.714 0.354595 0.879185 0
M  V30 4719 H 455.42 0.748169 3.4365 0
M  V30 4720 H 455.294 -0.990224 3.6397 0
M  V30 4721 H 457.681 -1.23724 2.67911 0
M  V30 4722 H 457.762 0.521645 2.50425 0
M  V30 4723 H 457.406 0.765863 5.02093 0
M  V30 4724 H 457.336 -1.00814 5.1686 0
M  V30 4725 H 459.827 -0.32321 3.76515 0
M  V30 4726 H 460.14 -0.0358003 7.72792 0
M  V30 4727 H 458.485 -0.0391461 6.94989 0
M  V30 4728 H 461.676 -0.316347 4.6703 0
M  V30 4729 H 461.849 -0.185514 6.47734 0
M  V30 4730 N 455.255 -1.55392 -0.262866 0
M  V30 4731 C 456.503 -1.76127 -0.991147 0
M  V30 4732 C 456.824 -0.571083 -1.8645 0
M  V30 4733 O 456.094 0.413698 -1.91482 0
M  V30 4734 H 454.674 -0.649528 -0.368948 0
M  V30 4735 H 457.336 -1.9281 -0.284655 0
M  V30 4736 H 456.432 -2.6663 -1.62219 0
M  V30 4737 N 456.733 0.527833 -1.48498 0
M  V30 4738 C 457.663 1.64136 -1.66077 0
M  V30 4739 C 458.644 1.62286 -0.509625 0
M  V30 4740 O 459.829 1.79449 -0.742413 0
M  V30 4741 C 456.959 3.02717 -1.70234 0
M  V30 4742 C 455.913 3.19426 -2.8487 0
M  V30 4743 C 455.239 4.5909 -2.74118 0
M  V30 4744 C 456.539 3.01993 -4.26142 0
M  V30 4745 H 458.233 1.4968 -2.593 0
M  V30 4746 H 455.779 0.718654 -1.24785 0
M  V30 4747 H 457.732 3.80491 -1.8112 0
M  V30 4748 H 456.456 3.18201 -0.735911 0
M  V30 4749 H 455.115 2.4407 -2.73542 0
M  V30 4750 H 454.763 4.71413 -1.7544 0
M  V30 4751 H 454.463 4.71214 -3.51042 0
M  V30 4752 H 455.987 5.3896 -2.86974 0
M  V30 4753 H 457.401 3.69558 -4.38292 0
M  V30 4754 H 455.798 3.2561 -5.04082 0
M  V30 4755 H 456.868 1.98396 -4.42456 0
M  V30 4756 N 458.211 1.37122 0.776871 0
M  V30 4757 C 459.121 1.34651 1.9211 0
M  V30 4758 C 460.137 0.246824 1.7224 0
M  V30 4759 O 461.313 0.48134 1.95563 0
M  V30 4760 C 458.378 1.14748 3.2716 0
M  V30 4761 C 457.439 2.34308 3.5972 0
M  V30 4762 C 456.672 2.15345 4.88326 0
M  V30 4763 O 456.895 1.13507 5.58992 0
M  V30 4764 O 455.829 3.03414 5.1983 0
M  V30 4765 H 459.655 2.31013 1.97146 0
M  V30 4766 H 457.24 1.17799 0.918901 0
M  V30 4767 H 459.122 1.05616 4.0795 0
M  V30 4768 H 457.797 0.214562 3.22988 0
M  V30 4769 H 456.704 2.49011 2.79185 0
M  V30 4770 H 458.037 3.26149 3.68629 0
M  V30 4771 N 459.689 -1.00246 1.21608 0
M  V30 4772 C 460.914 -1.78167 1.06167 0
M  V30 4773 C 461.339 -1.84138 -0.384035 0
M  V30 4774 O 460.697 -1.28683 -1.27712 0
M  V30 4775 C 460.745 -3.19786 1.66642 0
M  V30 4776 O 459.849 -4.02153 0.913613 0
M  V30 4777 H 459.19 -0.549 0.37349 0
M  V30 4778 H 461.72 -1.25994 1.61204 0
M  V30 4779 H 461.73 -3.70451 1.70969 0
M  V30 4780 H 460.405 -3.14754 2.7185 0
M  V30 4781 H 458.982 -3.60711 0.945635 0
M  V30 4782 N 461.167 -1.02423 -1.1978 0
M  V30 4783 C 462.395 -0.737456 -1.93311 0
M  V30 4784 C 462.81 0.703023 -1.75223 0
M  V30 4785 O 462.167 1.47761 -1.07112 0
M  V30 4786 C 462.218 -1.0733 -3.45199 0
M  V30 4787 O 461.939 -2.4572 -3.62702 0
M  V30 4788 C 463.44 -0.80866 -4.35862 0
M  V30 4789 H 460.66 -0.2702 -0.614193 0
M  V30 4790 H 463.204 -1.36747 -1.52054 0
M  V30 4791 H 461.359 -0.488545 -3.84307 0
M  V30 4792 H 461.773 -2.58081 -4.56612 0
M  V30 4793 H 463.247 -1.09365 -5.41057 0
M  V30 4794 H 463.724 0.257025 -4.38447 0
M  V30 4795 H 464.33 -1.37592 -4.02428 0
M  V30 4796 N 462.645 1.35699 -0.801477 0
M  V30 4797 C 463.555 2.33661 -0.209691 0
M  V30 4798 C 464.571 1.6162 0.644591 0
M  V30 4799 O 465.747 1.93529 0.557545 0
M  V30 4800 C 462.812 3.40816 0.636033 0
M  V30 4801 C 461.873 4.28639 -0.238147 0
M  V30 4802 C 461.106 5.30676 0.567307 0
M  V30 4803 O 461.329 5.41174 1.8024 0
M  V30 4804 O 460.263 6.01887 -0.0391336 0
M  V30 4805 H 464.089 2.8606 -1.01996 0
M  V30 4806 H 461.674 1.38379 -0.563164 0
M  V30 4807 H 463.556 4.06301 1.11791 0
M  V30 4808 H 462.231 2.90696 1.42399 0
M  V30 4809 H 461.138 3.66152 -0.767044 0
M  V30 4810 H 462.471 4.82143 -0.989915 0
M  V30 4811 N 464.123 0.554532 1.47522 0
M  V30 4812 C 465.086 -0.184174 2.28459 0
M  V30 4813 C 466.086 -0.845195 1.36796 0
M  V30 4814 O 467.276 -0.701467 1.59452 0
M  V30 4815 C 464.408 -1.26903 3.16399 0
M  V30 4816 H 465.601 0.526751 2.95238 0
M  V30 4817 H 463.154 0.311375 1.53167 0
M  V30 4818 H 463.889 -2.01244 2.54306 0
M  V30 4819 H 463.674 -0.799883 3.83854 0
M  V30 4820 H 465.164 -1.78794 3.77389 0
M  V30 4821 N 465.601 -1.54893 0.290851 0
M  V30 4822 C 466.511 -2.26812 -0.59945 0
M  V30 4823 C 467.527 -1.29963 -1.15696 0
M  V30 4824 O 468.703 -1.62928 -1.18391 0
M  V30 4825 C 465.768 -2.98716 -1.75982 0
M  V30 4826 C 464.829 -4.1108 -1.2374 0
M  V30 4827 C 464.062 -4.79546 -2.34246 0
M  V30 4828 O 464.285 -4.47309 -3.53936 0
M  V30 4829 O 463.219 -5.67165 -2.01512 0
M  V30 4830 H 467.045 -3.03696 -0.0163561 0
M  V30 4831 H 464.63 -1.49289 0.0576755 0
M  V30 4832 H 466.512 -3.43851 -2.43607 0
M  V30 4833 H 465.187 -2.24737 -2.3297 0
M  V30 4834 H 464.094 -3.70367 -0.527163 0
M  V30 4835 H 465.427 -4.87007 -0.71307 0
M  V30 4836 N 467.08 -0.0183926 -1.57589 0
M  V30 4837 C 468.013 1.00148 -2.0505 0
M  V30 4838 C 468.991 1.32387 -0.944058 0
M  V30 4839 O 470.175 1.44237 -1.21358 0
M  V30 4840 C 467.302 2.32435 -2.46357 0
M  V30 4841 C 466.348 2.15731 -3.67916 0
M  V30 4842 S 467.181 1.46613 -5.15039 0
M  V30 4843 C 468.337 2.80293 -5.59631 0
M  V30 4844 H 468.57 0.597429 -2.91235 0
M  V30 4845 H 466.103 0.193002 -1.53189 0
M  V30 4846 H 468.061 3.0849 -2.70822 0
M  V30 4847 H 466.722 2.69975 -1.60537 0
M  V30 4848 H 465.915 3.13502 -3.9463 0
M  V30 4849 H 465.517 1.4782 -3.43548 0
M  V30 4850 H 467.809 3.76557 -5.63215 0
M  V30 4851 H 468.752 2.58256 -6.59325 0
M  V30 4852 H 469.16 2.85047 -4.87246 0
M  V30 4853 N 468.558 1.5553 0.254621 0
M  V30 4854 C 469.508 1.86057 1.31783 0
M  V30 4855 C 470.492 0.720827 1.4385 0
M  V30 4856 O 471.684 0.982586 1.47222 0
M  V30 4857 C 468.813 2.15203 2.67475 0
M  V30 4858 C 467.899 3.35484 2.59444 0
M  V30 4859 N 468.29 4.54945 2.2104 0
M  V30 4860 C 466.588 3.38441 2.90472 0
M  V30 4861 C 467.289 5.3707 2.23453 0
M  V30 4862 N 466.265 4.75936 2.62652 0
M  V30 4863 H 470.067 2.75953 1.01129 0
M  V30 4864 H 467.581 1.55653 0.463255 0
M  V30 4865 H 469.578 2.35235 3.44195 0
M  V30 4866 H 468.238 1.26601 2.99002 0
M  V30 4867 H 469.249 4.8071 1.92712 0
M  V30 4868 H 465.926 2.60087 3.2659 0
M  V30 4869 H 467.316 6.42626 1.96166 0
M  V30 4870 N 470.036 -0.519951 1.48776 0
M  V30 4871 C 471.285 -1.27175 1.56555 0
M  V30 4872 C 471.598 -1.9401 0.248869 0
M  V30 4873 O 472.804 -2.70725 0.205004 0
M  V30 4874 C 471.26 -2.30811 2.76142 0
M  V30 4875 C 470.868 -1.7 4.14493 0
M  V30 4876 C 472.612 -3.06937 2.9324 0
M  V30 4877 C 470.519 -2.71635 5.25327 0
M  V30 4878 H 469.449 -0.478329 0.582853 0
M  V30 4879 H 472.1 -0.547916 1.75129 0
M  V30 4880 H 470.482 -3.06274 2.51023 0
M  V30 4881 H 471.656 -1.00658 4.49672 0
M  V30 4882 H 469.971 -1.06331 4.02595 0
M  V30 4883 H 472.568 -3.82905 3.73213 0
M  V30 4884 H 472.911 -3.63409 2.03075 0
M  V30 4885 H 473.444 -2.38589 3.18308 0
M  V30 4886 H 470.183 -2.1997 6.1749 0
M  V30 4887 H 469.703 -3.39275 4.94624 0
M  V30 4888 H 471.382 -3.34429 5.53865 0
M  V30 4889 N 471.514 -1.37532 -0.769588 0
M  V30 4890 C 472.925 -1.29382 -1.346 0
M  V30 4891 C 473.276 0.0576039 -1.96115 0
M  V30 4892 O 472.401 0.95947 -1.93967 0
M  V30 4893 C 472.996 -2.34298 -2.44724 0
M  V30 4894 C 471.555 -2.29776 -2.98128 0
M  V30 4895 C 470.702 -2.18013 -1.71364 0
M  V30 4896 H 473.653 -1.48123 -0.56968 0
M  V30 4897 H 473.674 -1.99089 -3.24259 0
M  V30 4898 H 473.186 -3.32645 -1.99922 0
M  V30 4899 H 471.287 -1.34959 -3.47299 0
M  V30 4900 H 471.4 -3.23276 -3.53595 0
M  V30 4901 H 469.764 -1.64595 -1.94372 0
M  V30 4902 H 470.547 -3.18278 -1.28662 0
M  V30 4903 N 472.992 0.995999 -1.22138 0
M  V30 4904 C 474.217 1.77601 -1.0711 0
M  V30 4905 C 474.642 1.84339 0.374264 0
M  V30 4906 O 474 1.29359 1.27028 0
M  V30 4907 C 474.048 3.18897 -1.68336 0
M  V30 4908 O 473.152 4.01663 -0.934928 0
M  V30 4909 H 472.493 0.547011 -0.376397 0
M  V30 4910 H 475.023 1.25137 -1.6187 0
M  V30 4911 H 475.033 3.69539 -1.72931 0
M  V30 4912 H 473.708 3.13308 -2.73516 0
M  V30 4913 H 472.285 3.60204 -0.964751 0
M  V30 4914 N 474.47 1.03057 1.19235 0
M  V30 4915 C 475.433 0.617418 2.20727 0
M  V30 4916 C 476.433 -0.319856 1.57587 0
M  V30 4917 O 477.623 -0.106633 1.73873 0
M  V30 4918 C 474.755 -0.096296 3.40764 0
M  V30 4919 H 475.948 1.51544 2.58794 0
M  V30 4920 H 473.501 0.821949 1.32942 0
M  V30 4921 H 474.236 -1.00859 3.08217 0
M  V30 4922 H 474.021 0.577217 3.87828 0
M  V30 4923 H 475.511 -0.372219 4.15938 0
M  V30 4924 N 475.948 -1.35272 0.808662 0
M  V30 4925 C 476.878 -2.32315 0.234981 0
M  V30 4926 C 477.859 -1.57572 -0.64071 0
M  V30 4927 O 479.044 -1.8563 -0.570551 0
M  V30 4928 C 476.174 -3.41801 -0.615601 0
M  V30 4929 C 475.128 -4.27694 0.161767 0
M  V30 4930 C 474.454 -5.28519 -0.810649 0
M  V30 4931 C 475.754 -5.04231 1.36193 0
M  V30 4932 H 477.448 -2.80543 1.04575 0
M  V30 4933 H 474.994 -1.3488 0.504315 0
M  V30 4934 H 476.947 -4.08693 -1.02702 0
M  V30 4935 H 475.671 -2.92186 -1.45928 0
M  V30 4936 H 474.33 -3.62384 0.554382 0
M  V30 4937 H 473.978 -4.75171 -1.64988 0
M  V30 4938 H 473.678 -5.8686 -0.294822 0
M  V30 4939 H 475.202 -5.98283 -1.22023 0
M  V30 4940 H 476.616 -5.64058 1.02528 0
M  V30 4941 H 475.013 -5.72077 1.81239 0
M  V30 4942 H 476.083 -4.34753 2.14751 0
M  V30 4943 N 477.426 -0.562348 -1.47226 0
M  V30 4944 C 478.336 0.185466 -2.33866 0
M  V30 4945 C 479.352 0.906713 -1.48508 0
M  V30 4946 O 480.528 0.874458 -1.81425 0
M  V30 4947 C 477.593 1.19904 -3.25306 0
M  V30 4948 C 476.654 0.484669 -4.26555 0
M  V30 4949 C 475.887 1.44996 -5.13626 0
M  V30 4950 O 476.11 2.68515 -5.03245 0
M  V30 4951 O 475.044 0.971642 -5.94006 0
M  V30 4952 H 478.87 -0.525361 -2.99121 0
M  V30 4953 H 476.455 -0.322916 -1.45868 0
M  V30 4954 H 478.337 1.78399 -3.81774 0
M  V30 4955 H 477.012 1.8917 -2.62672 0
M  V30 4956 H 475.919 -0.141605 -3.73832 0
M  V30 4957 H 477.252 -0.166634 -4.91918 0
M  V30 4958 N 478.904 1.54736 -0.299062 0
M  V30 4959 C 480.315 1.8569 0.193971 0
M  V30 4960 C 480.666 1.22101 1.53577 0
M  V30 4961 O 479.791 0.51799 2.10109 0
M  V30 4962 C 480.386 3.36895 0.358733 0
M  V30 4963 C 478.945 3.67887 0.795986 0
M  V30 4964 C 478.092 2.77131 -0.096807 0
M  V30 4965 H 481.043 1.49934 -0.520134 0
M  V30 4966 H 481.064 3.61294 1.19361 0
M  V30 4967 H 480.576 3.83148 -0.617998 0
M  V30 4968 H 478.677 3.27151 1.78334 0
M  V30 4969 H 478.79 4.75114 0.616718 0
M  V30 4970 H 477.154 2.51153 0.423581 0
M  V30 4971 H 477.937 3.26204 -1.06986 0
M  V30 4972 N 480.382 0.0267497 1.57577 0
M  V30 4973 C 481.607 -0.666227 1.96408 0
M  V30 4974 C 482.032 -1.65004 0.903071 0
M  V30 4975 O 481.39 -1.80787 -0.136263 0
M  V30 4976 C 481.438 -1.35101 3.34335 0
M  V30 4977 O 480.542 -2.46623 3.30531 0
M  V30 4978 H 479.883 -0.175206 0.640468 0
M  V30 4979 H 482.413 0.0878977 2.04411 0
M  V30 4980 H 482.423 -1.70834 3.70513 0
M  V30 4981 H 481.098 -0.629844 4.11103 0
M  V30 4982 H 479.675 -2.13019 3.06068 0
M  V30 4983 N 481.861 -1.55662 -0.24637 0
M  V30 4984 C 483.089 -1.81575 -0.991876 0
M  V30 4985 C 483.504 -0.602545 -1.78927 0
M  V30 4986 O 482.861 0.428795 -1.77391 0
M  V30 4987 C 482.912 -3.05711 -1.92933 0
M  V30 4988 O 482.633 -4.22348 -1.1642 0
M  V30 4989 C 484.134 -3.44428 -2.79078 0
M  V30 4990 H 481.354 -0.604209 -0.291844 0
M  V30 4991 H 483.898 -2.02722 -0.269095 0
M  V30 4992 H 482.053 -2.86612 -2.60638 0
M  V30 4993 H 482.467 -4.92706 -1.79835 0
M  V30 4994 H 483.941 -4.34388 -3.40603 0
M  V30 4995 H 484.418 -2.65037 -3.50217 0
M  V30 4996 H 485.024 -3.65879 -2.16824 0
M  V30 4997 N 483.339 0.512053 -1.4905 0
M  V30 4998 C 484.564 1.2959 -1.6193 0
M  V30 4999 C 484.989 1.85906 -0.286454 0
M  V30 5000 O 484.347 1.65312 0.744426 0
M  V30 5001 C 484.395 2.40987 -2.68249 0
M  V30 5002 O 483.499 3.44531 -2.26654 0
M  V30 5003 H 482.84 0.383053 -0.542371 0
M  V30 5004 H 485.37 0.614231 -1.95162 0
M  V30 5005 H 485.38 2.86913 -2.90078 0
M  V30 5006 H 484.055 1.99361 -3.65004 0
M  V30 5007 H 482.632 3.046 -2.15112 0
M  V30 5008 N 484.817 1.37938 0.762283 0
M  V30 5009 C 486.042 1.37059 1.55659 0
M  V30 5010 C 486.467 -0.0396123 1.88058 0
M  V30 5011 O 485.825 -1.01929 1.49934 0
M  V30 5012 C 485.873 2.22494 2.83776 0
M  V30 5013 O 484.977 1.63607 3.78559 0
M  V30 5014 H 484.318 0.467892 0.47114 0
M  V30 5015 H 486.848 1.81587 0.942725 0
M  V30 5016 H 486.858 2.36045 3.32786 0
M  V30 5017 H 485.533 3.24993 2.59524 0
M  V30 5018 H 484.11 1.5915 3.37233 0
M  V30 5019 N 486.295 -0.989507 1.22664 0
M  V30 5020 C 487.52 -1.77031 1.08051 0
M  V30 5021 C 487.945 -1.84535 -0.364483 0
M  V30 5022 O 487.303 -1.3003 -1.2634 0
M  V30 5023 C 487.351 -3.18 1.70024 0
M  V30 5024 O 486.455 -4.01161 0.956216 0
M  V30 5025 H 485.796 -0.545008 0.379292 0
M  V30 5026 H 488.326 -1.24277 1.62531 0
M  V30 5027 H 488.336 -3.68616 1.74888 0
M  V30 5028 H 487.011 -3.11853 2.75174 0
M  V30 5029 H 485.588 -3.59687 0.98384 0
M  V30 5030 N 487.773 -1.03688 -1.18687 0
M  V30 5031 C 489.184 -0.766488 -1.70241 0
M  V30 5032 C 489.535 0.713052 -1.82784 0
M  V30 5033 O 488.66 1.55529 -1.50465 0
M  V30 5034 C 489.255 -1.38475 -3.09209 0
M  V30 5035 C 487.814 -1.16276 -3.5799 0
M  V30 5036 C 486.961 -1.4778 -2.34641 0
M  V30 5037 H 489.912 -1.20378 -1.03415 0
M  V30 5038 H 489.933 -0.785939 -3.72295 0
M  V30 5039 H 489.445 -2.46157 -3.00048 0
M  V30 5040 H 487.546 -0.104508 -3.72453 0
M  V30 5041 H 487.659 -1.8571 -4.41643 0
M  V30 5042 H 486.023 -0.897366 -2.38368 0
M  V30 5043 H 486.806 -2.56562 -2.28102 0
M  V30 5044 N 489.251 1.34841 -0.815825 0
M  V30 5045 C 490.667 1.51543 -0.500697 0
M  V30 5046 C 490.867 1.76261 0.976444 0
M  V30 5047 O 489.923 1.8094 1.76117 0
M  V30 5048 C 491.236 2.68487 -1.35407 0
M  V30 5049 C 492.784 2.82368 -1.35046 0
M  V30 5050 C 493.259 4.02347 -2.18816 0
M  V30 5051 N 494.75 4.09542 -2.16402 0
M  V30 5052 C 495.485 5.01517 -2.77971 0
M  V30 5053 N 494.981 5.98763 -3.48503 0
M  V30 5054 N 496.774 4.94334 -2.67563 0
M  V30 5055 H 488.925 1.17055 -1.77234 0
M  V30 5056 H 491.188 0.573481 -0.754866 0
M  V30 5057 H 490.894 2.56829 -2.40274 0
M  V30 5058 H 490.768 3.63321 -1.01377 0
M  V30 5059 H 493.155 2.93471 -0.309604 0
M  V30 5060 H 493.236 1.88363 -1.73069 0
M  V30 5061 H 492.88 3.92004 -3.22948 0
M  V30 5062 H 492.81 4.95551 -1.78148 0
M  V30 5063 H 495.301 3.39932 -1.65091 0
M  V30 5064 H 495.614 6.6556 -3.92747 0
M  V30 5065 H 493.959 5.98909 -3.52609 0
M  V30 5066 H 497.15 4.1732 -2.12041 0
M  V30 5067 H 497.323 5.6582 -3.15834 0
M  V30 5068 N 490.729 0.570148 1.46925 0
M  V30 5069 C 491.977 0.0508523 2.02036 0
M  V30 5070 C 492.298 -1.30885 1.44548 0
M  V30 5071 O 491.568 -1.85647 0.625453 0
M  V30 5072 H 490.148 0.0158088 0.746833 0
M  V30 5073 H 492.81 0.743086 1.80178 0
M  V30 5074 H 491.906 -0.027575 3.12088 0
M  V30 5075 N 492.207 -1.54576 0.307264 0
M  V30 5076 C 493.432 -2.05139 -0.305379 0
M  V30 5077 C 493.857 -1.18278 -1.46259 0
M  V30 5078 O 493.215 -0.188243 -1.8032 0
M  V30 5079 C 493.263 -3.53066 -0.733283 0
M  V30 5080 O 492.367 -3.69206 -1.83741 0
M  V30 5081 H 491.708 -0.661444 -0.0582105 0
M  V30 5082 H 494.238 -1.99569 0.450931 0
M  V30 5083 H 494.248 -3.95034 -1.02039 0
M  V30 5084 H 492.923 -4.15746 0.113198 0
M  V30 5085 H 491.5 -3.39143 -1.55037 0
M  V30 5086 N 493.685 -0.035106 -1.57561 0
M  V30 5087 C 494.913 0.652258 -1.9635 0
M  V30 5088 C 495.328 1.65317 -0.911897 0
M  V30 5089 O 494.685 1.82194 0.105657 0
M  V30 5090 C 494.736 1.35337 -3.35211 0
M  V30 5091 O 494.457 0.392548 -4.36338 0
M  V30 5092 C 495.958 2.13199 -3.88666 0
M  V30 5093 H 493.178 0.179444 -0.646561 0
M  V30 5094 H 495.722 -0.0966459 -2.04271 0
M  V30 5095 H 493.877 2.05362 -3.28489 0
M  V30 5096 H 494.291 0.891097 -5.16875 0
M  V30 5097 H 495.765 2.577 -4.88154 0
M  V30 5098 H 496.242 2.97353 -3.23231 0
M  V30 5099 H 496.848 1.48118 -3.98674 0
M  V30 5100 N 495.163 1.55791 0.238111 0
M  V30 5101 C 496.44 1.68798 0.98826 0
M  V30 5102 C 496.82 0.577562 2.03045 0
M  V30 5103 O 496.168 -0.41778 2.24648 0
M  V30 5104 C 496.378 3.09454 1.61367 0
M  V30 5105 C 497.726 3.68335 2.11221 0
M  V30 5106 O 498.75 3.1231 1.71292 0
M  V30 5107 O 497.609 4.6657 2.84561 0
M  V30 5108 H 494.703 0.686881 0.460568 0
M  V30 5109 H 497.249 1.68118 0.231202 0
M  V30 5110 H 496.021 3.81726 0.860295 0
M  V30 5111 H 495.644 3.14182 2.4367 0
M  V30 5112 N 496.642 -0.504142 1.49319 0
M  V30 5113 C 497.867 -1.28729 1.62615 0
M  V30 5114 C 498.292 -1.85752 0.296309 0
M  V30 5115 O 497.65 -1.65704 -0.735649 0
M  V30 5116 C 497.698 -2.39561 2.69524 0
M  V30 5117 O 496.802 -3.43324 2.28478 0
M  V30 5118 H 496.143 -0.380172 0.544395 0
M  V30 5119 H 498.673 -0.603872 1.95485 0
M  V30 5120 H 498.683 -2.8537 2.91595 0
M  V30 5121 H 497.358 -1.97423 3.66056 0
M  V30 5122 H 495.935 -3.03455 2.16725 0
M  V30 5123 N 498.12 -1.38341 -0.754957 0
M  V30 5124 C 499.05 -1.38176 -1.88227 0
M  V30 5125 C 500.031 -0.247873 -1.68284 0
M  V30 5126 O 501.216 -0.45075 -1.88896 0
M  V30 5127 C 498.346 -1.20471 -3.25736 0
M  V30 5128 C 497.3 -2.3105 -3.60278 0
M  V30 5129 C 496.626 -1.98452 -4.96509 0
M  V30 5130 C 497.926 -3.73305 -3.65295 0
M  V30 5131 H 499.62 -2.32512 -1.88622 0
M  V30 5132 H 497.166 -1.1192 -0.906082 0
M  V30 5133 H 499.119 -1.18982 -4.04254 0
M  V30 5134 H 497.843 -0.225965 -3.25817 0
M  V30 5135 H 496.502 -2.31723 -2.84078 0
M  V30 5136 H 496.15 -0.990641 -4.93148 0
M  V30 5137 H 495.85 -2.7251 -5.20588 0
M  V30 5138 H 497.374 -1.98578 -5.77407 0
M  V30 5139 H 498.788 -3.7467 -4.3393 0
M  V30 5140 H 497.185 -4.46557 -4.00883 0
M  V30 5141 H 498.255 -4.05719 -2.65556 0
M  V30 5142 N 499.598 0.982988 -1.23187 0
M  V30 5143 C 500.546 2.09616 -1.00817 0
M  V30 5144 C 501.54 1.6932 0.0519995 0
M  V30 5145 O 502.746 1.79715 -0.101284 0
M  V30 5146 H 499.121 0.685628 -0.308899 0
M  V30 5147 H 501.092 2.25652 -1.95253 0
M  V30 5148 C 499.841 3.42249 -0.613243 0
M  V30 5149 H 499.164 3.73705 -1.42073 0
M  V30 5150 H 500.604 4.21086 -0.496208 0
M  V30 5151 C 499.063 3.30002 0.678233 0
M  V30 5152 O 499.593 3.6263 1.72807 0
M  V30 5153 N 497.799 2.83164 0.653165 0
M  V30 5154 H 497.346 2.56811 -0.201492 0
M  V30 5155 H 497.304 2.75352 1.51752 0
M  V30 5156 N 501.076 1.04316 1.18135 0
M  V30 5157 C 502.008 0.594444 2.21357 0
M  V30 5158 C 503.021 -0.337215 1.59269 0
M  V30 5159 O 504.21 -0.131337 1.78016 0
M  V30 5160 C 501.31 -0.151251 3.38562 0
M  V30 5161 C 500.483 0.788907 4.30227 0
M  V30 5162 C 499.542 0.0860572 5.2613 0
M  V30 5163 O 498.568 0.717302 5.64662 0
M  V30 5164 N 499.77 -1.17969 5.68387 0
M  V30 5165 H 502.535 1.48227 2.60478 0
M  V30 5166 H 500.096 0.92396 1.32946 0
M  V30 5167 H 502.088 -0.631352 3.99745 0
M  V30 5168 H 500.658 -0.940639 2.98112 0
M  V30 5169 H 499.878 1.44882 3.6661 0
M  V30 5170 H 501.166 1.42738 4.88368 0
M  V30 5171 H 500.564 -1.71302 5.3914 0
M  V30 5172 H 499.121 -1.60402 6.31755 0
M  V30 5173 N 502.554 -1.34406 0.822964 0
M  V30 5174 C 503.802 -1.97892 0.410245 0
M  V30 5175 C 504.123 -1.65567 -1.03017 0
M  V30 5176 O 503.393 -0.94642 -1.71522 0
M  V30 5177 H 501.973 -0.732049 0.148707 0
M  V30 5178 H 504.635 -1.64043 1.05242 0
M  V30 5179 H 503.731 -3.07579 0.529284 0
M  V30 5180 N 504.032 -0.577932 -1.46621 0
M  V30 5181 C 504.995 0.147805 -2.28723 0
M  V30 5182 C 505.995 0.823325 -1.38123 0
M  V30 5183 O 507.185 0.676011 -1.60548 0
M  V30 5184 C 504.317 1.21853 -3.18378 0
M  V30 5185 H 505.51 -0.573654 -2.94362 0
M  V30 5186 H 503.063 -0.335703 -1.52652 0
M  V30 5187 H 503.798 1.97173 -2.57475 0
M  V30 5188 H 503.583 0.738714 -3.85078 0
M  V30 5189 H 505.073 1.72768 -3.80186 0
M  V30 5190 N 505.51 1.54411 -0.315457 0
M  V30 5191 C 506.735 2.05299 0.294496 0
M  V30 5192 C 507.16 1.19052 1.4563 0
M  V30 5193 O 506.518 0.197804 1.80218 0
M  V30 5194 C 506.566 3.5345 0.714549 0
M  V30 5195 O 505.67 3.70175 1.81781 0
M  V30 5196 H 505.011 0.661743 0.0547019 0
M  V30 5197 H 507.541 1.99327 -0.461508 0
M  V30 5198 H 507.551 3.9557 0.999426 0
M  V30 5199 H 506.226 4.1568 -0.135244 0
M  V30 5200 H 504.803 3.3996 1.53236 0
M  V30 5201 N 506.988 0.0434614 1.5754 0
M  V30 5202 C 508.399 -0.493343 1.80064 0
M  V30 5203 C 508.75 -1.71388 0.955023 0
M  V30 5204 O 507.875 -2.15736 0.169434 0
M  V30 5205 C 508.47 -0.90179 3.26578 0
M  V30 5206 C 507.029 -1.38362 3.50047 0
M  V30 5207 C 506.176 -0.355129 2.75017 0
M  V30 5208 H 509.127 0.2694 1.56397 0
M  V30 5209 H 509.148 -1.76523 3.37075 0
M  V30 5210 H 508.66 -0.013271 3.88098 0
M  V30 5211 H 506.761 -2.29159 2.93798 0
M  V30 5212 H 506.874 -1.3811 4.58762 0
M  V30 5213 H 505.238 -0.826348 2.40922 0
M  V30 5214 H 506.021 0.525172 3.39259 0
M  V30 5215 N 508.466 -1.55915 -0.229846 0
M  V30 5216 C 509.714 -1.7819 -0.953565 0
M  V30 5217 C 510.035 -0.610504 -1.85197 0
M  V30 5218 O 509.305 0.372988 -1.92316 0
M  V30 5219 H 507.885 -0.657208 -0.355087 0
M  V30 5220 H 510.547 -1.9337 -0.243693 0
M  V30 5221 H 509.643 -2.70011 -1.56527 0
M  V30 5222 N 509.944 0.496216 -1.49584 0
M  V30 5223 C 511.192 1.24756 -1.58998 0
M  V30 5224 C 511.513 1.92968 -0.280775 0
M  V30 5225 O 510.783 1.82959 0.700198 0
M  V30 5226 H 509.363 0.463471 -0.585836 0
M  V30 5227 H 512.025 0.574678 -1.86235 0
M  V30 5228 H 511.121 2.00895 -2.38847 0
M  V30 5229 N 511.423 1.38739 0.74761 0
M  V30 5230 C 512.353 1.39173 1.87492 0
M  V30 5231 C 513.334 0.256794 1.6815 0
M  V30 5232 O 514.519 0.460762 1.88655 0
M  V30 5233 C 511.649 1.22197 3.25093 0
M  V30 5234 C 510.603 2.32957 3.59047 0
M  V30 5235 C 509.929 2.01082 4.95449 0
M  V30 5236 C 511.229 3.75237 3.6331 0
M  V30 5237 H 512.923 2.3351 1.87386 0
M  V30 5238 H 510.469 1.12399 0.900134 0
M  V30 5239 H 512.422 1.21124 4.03617 0
M  V30 5240 H 511.146 0.243241 3.25693 0
M  V30 5241 H 509.805 2.33226 2.82845 0
M  V30 5242 H 509.453 1.01678 4.92616 0
M  V30 5243 H 509.153 2.75267 5.19136 0
M  V30 5244 H 510.677 2.01638 5.76346 0
M  V30 5245 H 512.091 3.76966 4.31937 0
M  V30 5246 H 510.488 4.48677 3.98509 0
M  V30 5247 H 511.558 4.07122 2.634 0
M  V30 5248 N 512.901 -0.976442 1.23707 0
M  V30 5249 C 513.831 -2.08749 1.04624 0
M  V30 5250 C 514.812 -1.70057 -0.0380956 0
M  V30 5251 O 515.997 -1.93782 0.127308 0
M  V30 5252 C 513.127 -3.41335 0.640902 0
M  V30 5253 C 512.081 -3.93947 1.67302 0
M  V30 5254 C 511.407 -5.22774 1.12301 0
M  V30 5255 C 512.707 -4.22769 3.06697 0
M  V30 5256 H 514.401 -2.24972 1.97555 0
M  V30 5257 H 511.947 -1.08108 0.951247 0
M  V30 5258 H 513.9 -4.18489 0.494434 0
M  V30 5259 H 512.624 -3.24988 -0.324099 0
M  V30 5260 H 511.283 -3.18941 1.80755 0
M  V30 5261 H 510.931 -5.0278 0.148877 0
M  V30 5262 H 510.631 -5.58942 1.81267 0
M  V30 5263 H 512.155 -6.02546 0.988479 0
M  V30 5264 H 513.569 -4.90659 2.96524 0
M  V30 5265 H 511.966 -4.70147 3.72937 0
M  V30 5266 H 513.036 -3.29885 3.55392 0
M  V30 5267 N 514.379 -1.04941 -1.1758 0
M  V30 5268 C 515.656 -0.671918 -1.83697 0
M  V30 5269 C 516.036 0.847929 -1.93322 0
M  V30 5270 O 515.384 1.75287 -1.46583 0
M  V30 5271 C 515.594 -1.35797 -3.21497 0
M  V30 5272 C 516.942 -1.4944 -3.97433 0
M  V30 5273 O 517.966 -1.31678 -3.30967 0
M  V30 5274 O 516.825 -1.78463 -5.1654 0
M  V30 5275 H 513.919 -0.236212 -0.792548 0
M  V30 5276 H 516.465 -1.14884 -1.24899 0
M  V30 5277 H 515.237 -2.39498 -3.09446 0
M  V30 5278 H 514.86 -0.870236 -3.8796 0
M  V30 5279 N 515.857 1.33968 -0.830081 0
M  V30 5280 C 517.268 1.80439 -0.479455 0
M  V30 5281 C 517.619 1.68756 1.00079 0
M  V30 5282 O 516.744 1.23171 1.77927 0
M  V30 5283 C 517.339 3.27611 -0.863505 0
M  V30 5284 C 515.898 3.72133 -0.565145 0
M  V30 5285 C 515.045 2.55549 -1.07657 0
M  V30 5286 H 517.996 1.21614 -1.0196 0
M  V30 5287 H 518.017 3.8012 -0.170083 0
M  V30 5288 H 517.529 3.36082 -1.94089 0
M  V30 5289 H 515.63 3.69196 0.502536 0
M  V30 5290 H 515.743 4.65963 -1.11422 0
M  V30 5291 H 514.107 2.49788 -0.497807 0
M  V30 5292 H 514.89 2.66786 -2.16055 0
M  V30 5293 N 517.335 0.585699 1.46312 0
M  V30 5294 C 518.298 -0.135673 2.28798 0
M  V30 5295 C 519.298 -0.815988 1.38558 0
M  V30 5296 O 520.488 -0.667487 1.60904 0
M  V30 5297 C 517.62 -1.20163 3.1902 0
M  V30 5298 H 518.813 0.589257 2.94054 0
M  V30 5299 H 516.366 0.343794 1.52472 0
M  V30 5300 H 517.101 -1.95804 2.58517 0
M  V30 5301 H 516.886 -0.718282 3.85465 0
M  V30 5302 H 518.376 -1.70749 3.81096 0
M  V30 5303 N 518.813 -1.54241 0.323641 0
M  V30 5304 C 520.053 -2.0248 -0.279502 0
M  V30 5305 C 520.417 -1.20672 -1.49339 0
M  V30 5306 O 521.618 -1.58715 -2.1694 0
M  V30 5307 C 519.889 -3.52238 -0.605266 0
M  V30 5308 S 521.448 -4.22411 -1.18805 0
M  V30 5309 H 518.266 -0.705957 -0.0845313 0
M  V30 5310 H 520.868 -1.90089 0.456781 0
M  V30 5311 H 519.572 -4.094 0.286339 0
M  V30 5312 H 519.103 -3.6871 -1.37174 0
M  V30 5313 H 521.118 -4.30075 -2.47487 0
M  V30 5314 N 520.291 -0.0518155 -1.57515 0
M  V30 5315 C 521.223 0.951542 -2.08515 0
M  V30 5316 C 522.236 1.27436 -1.01311 0
M  V30 5317 O 523.425 1.23504 -1.28876 0
M  V30 5318 C 520.525 2.27291 -2.5138 0
M  V30 5319 C 519.698 2.13191 -3.81927 0
M  V30 5320 C 518.757 3.28458 -4.11098 0
M  V30 5321 O 517.783 3.04334 -4.81009 0
M  V30 5322 N 518.985 4.52954 -3.63061 0
M  V30 5323 H 521.75 0.516242 -2.9522 0
M  V30 5324 H 519.311 0.13441 -1.61341 0
M  V30 5325 H 521.303 3.03272 -2.67971 0
M  V30 5326 H 519.873 2.62386 -1.69919 0
M  V30 5327 H 519.093 1.21798 -3.74912 0
M  V30 5328 H 520.381 2.00999 -4.67415 0
M  V30 5329 H 519.779 4.75444 -3.06545 0
M  V30 5330 H 518.336 5.26026 -3.84889 0
M  V30 5331 N 521.769 1.56035 0.221574 0
M  V30 5332 C 522.716 1.92413 1.27459 0
M  V30 5333 C 523.686 0.781323 1.46576 0
M  V30 5334 O 524.871 1.03721 1.60145 0
M  V30 5335 C 522.011 2.24617 2.61995 0
M  V30 5336 C 521.124 3.51831 2.50677 0
M  V30 5337 C 520.259 3.73482 3.77736 0
M  V30 5338 C 519.298 4.94211 3.6114 0
M  V30 5339 N 518.435 5.12252 4.80148 0
M  V30 5340 H 523.275 2.82203 0.957355 0
M  V30 5341 H 520.812 1.39676 0.461415 0
M  V30 5342 H 522.77 2.41298 3.40339 0
M  V30 5343 H 521.4 1.38 2.91815 0
M  V30 5344 H 520.452 3.43343 1.63767 0
M  V30 5345 H 521.764 4.40328 2.34334 0
M  V30 5346 H 520.918 3.9026 4.64523 0
M  V30 5347 H 519.657 2.83266 3.97003 0
M  V30 5348 H 518.662 4.77384 2.72736 0
M  V30 5349 H 519.887 5.85912 3.43343 0
M  V30 5350 H 517.833 4.24978 4.99729 0
M  V30 5351 H 517.75 5.94881 4.66532 0
M  V30 5352 H 519.018 5.33465 5.68362 0
M  V30 5353 N 523.247 -0.488276 1.49845 0
M  V30 5354 C 524.475 -1.26527 1.63702 0
M  V30 5355 C 524.89 -1.8618 0.313447 0
M  V30 5356 O 524.247 -1.68432 -0.702624 0
M  V30 5357 C 524.298 -2.3864 2.71538 0
M  V30 5358 O 524.019 -1.81437 3.98763 0
M  V30 5359 C 525.52 -3.29805 2.96215 0
M  V30 5360 H 522.74 -0.383295 0.55075 0
M  V30 5361 H 525.284 -0.584779 1.95961 0
M  V30 5362 H 523.439 -3.02496 2.42023 0
M  V30 5363 H 523.853 -2.55135 4.58265 0
M  V30 5364 H 525.327 -4.04722 3.75372 0
M  V30 5365 H 525.804 -3.87563 2.06619 0
M  V30 5366 H 526.41 -2.71703 3.27196 0
M  V30 5367 N 524.725 -1.39134 -0.740242 0
M  V30 5368 C 526.002 -1.26584 -1.49117 0
M  V30 5369 C 526.382 0.126902 -2.10718 0
M  V30 5370 O 525.73 1.13765 -1.98166 0
M  V30 5371 C 525.94 -2.38619 -2.54681 0
M  V30 5372 C 527.288 -2.77685 -3.21211 0
M  V30 5373 O 528.312 -2.38029 -2.64991 0
M  V30 5374 O 527.171 -3.46115 -4.22926 0
M  V30 5375 H 524.265 -0.495769 -0.661923 0
M  V30 5376 H 526.811 -1.50995 -0.774514 0
M  V30 5377 H 525.583 -3.3175 -2.07504 0
M  V30 5378 H 525.206 -2.15845 -3.33911 0
M  V30 5379 N 526.204 0.969867 -1.24223 0
M  V30 5380 C 527.154 2.04913 -0.999732 0
M  V30 5381 C 528.138 1.60795 0.0580636 0
M  V30 5382 O 529.33 1.76317 -0.155392 0
M  V30 5383 C 526.459 3.37942 -0.604154 0
M  V30 5384 C 525.545 3.88628 -1.69791 0
M  V30 5385 N 525.936 4.12274 -2.93025 0
M  V30 5386 C 524.234 4.17268 -1.57492 0
M  V30 5387 C 524.935 4.53808 -3.63914 0
M  V30 5388 N 523.911 4.58855 -2.91468 0
M  V30 5389 H 527.713 2.21168 -1.93551 0
M  V30 5390 H 525.227 1.15349 -1.14317 0
M  V30 5391 H 527.224 4.14863 -0.411665 0
M  V30 5392 H 525.884 3.23075 0.324465 0
M  V30 5393 H 526.895 3.99789 -3.29225 0
M  V30 5394 H 523.572 4.11346 -0.714175 0
M  V30 5395 H 524.962 4.80534 -4.69614 0
M  V30 5396 N 527.682 1.05563 1.17022 0
M  V30 5397 C 528.929 0.767937 1.87374 0
M  V30 5398 C 529.257 -0.705224 1.81265 0
M  V30 5399 O 528.512 -1.5318 1.21796 0
M  V30 5400 C 528.811 1.19849 3.36706 0
M  V30 5401 C 528.477 2.6745 3.63017 0
M  V30 5402 C 527.139 3.0777 3.69907 0
M  V30 5403 C 529.491 3.62811 3.74189 0
M  V30 5404 C 526.819 4.42307 3.85463 0
M  V30 5405 C 529.171 4.97087 3.91264 0
M  V30 5406 C 527.835 5.37055 3.96394 0
M  V30 5407 H 527.105 0.281008 0.68565 0
M  V30 5408 H 529.752 1.32339 1.38415 0
M  V30 5409 H 528.057 0.562096 3.87747 0
M  V30 5410 H 529.754 0.953038 3.8951 0
M  V30 5411 H 526.344 2.35228 3.58282 0
M  V30 5412 H 530.528 3.32798 3.68183 0
M  V30 5413 H 525.784 4.72769 3.87684 0
M  V30 5414 H 529.958 5.70869 3.9885 0
M  V30 5415 H 527.585 6.41308 4.082 0
M  V30 5416 N 529.16 -1.33526 0.837174 0
M  V30 5417 C 530.09 -2.31764 0.284206 0
M  V30 5418 C 531.071 -1.58896 -0.607142 0
M  V30 5419 O 532.256 -1.86798 -0.531047 0
M  V30 5420 C 529.386 -3.43029 -0.542962 0
M  V30 5421 C 528.34 -4.27255 0.252451 0
M  V30 5422 C 527.666 -5.3012 -0.69836 0
M  V30 5423 C 528.966 -5.01229 1.46858 0
M  V30 5424 H 530.66 -2.78262 1.10502 0
M  V30 5425 H 528.206 -1.3378 0.532812 0
M  V30 5426 H 530.159 -4.1078 -0.940096 0
M  V30 5427 H 528.883 -2.95216 -1.39697 0
M  V30 5428 H 527.542 -3.61127 0.631124 0
M  V30 5429 H 527.19 -4.78564 -1.54872 0
M  V30 5430 H 526.89 -5.87353 -0.170274 0
M  V30 5431 H 528.414 -6.00737 -1.09305 0
M  V30 5432 H 529.828 -5.61756 1.14469 0
M  V30 5433 H 528.225 -5.68104 1.93333 0
M  V30 5434 H 529.295 -4.301 2.23924 0
M  V30 5435 N 530.638 -0.59345 -1.46 0
M  V30 5436 C 531.863 -0.0872365 -2.07216 0
M  V30 5437 C 532.288 1.2131 -1.43755 0
M  V30 5438 O 531.646 1.73528 -0.525152 0
M  V30 5439 C 531.694 0.0538197 -3.6056 0
M  V30 5440 O 530.798 1.10765 -3.97247 0
M  V30 5441 H 530.139 -0.0676598 -0.660544 0
M  V30 5442 H 532.669 -0.819445 -1.87473 0
M  V30 5443 H 532.679 0.256567 -4.07193 0
M  V30 5444 H 531.354 -0.895739 -4.0614 0
M  V30 5445 H 529.931 0.882501 -3.62307 0
M  V30 5446 N 532.116 1.54067 -0.331816 0
M  V30 5447 C 533.356 2.02625 0.26876 0
M  V30 5448 C 533.72 1.21462 1.48697 0
M  V30 5449 O 534.921 1.59863 2.16096 0
M  V30 5450 C 533.192 3.52554 0.586577 0
M  V30 5451 S 534.751 4.23035 1.16563 0
M  V30 5452 H 531.569 0.706395 0.0807862 0
M  V30 5453 H 534.171 1.89844 -0.466856 0
M  V30 5454 H 532.875 4.09242 -0.308046 0
M  V30 5455 H 532.406 3.69432 1.35217 0
M  V30 5456 H 534.421 4.31382 2.45203 0
M  V30 5457 N 533.594 0.0601682 1.57485 0
M  V30 5458 C 534.824 -0.620037 1.97076 0
M  V30 5459 C 535.232 -1.64381 0.936784 0
M  V30 5460 O 534.575 -1.83497 -0.0863377 0
M  V30 5461 C 534.637 -1.35617 3.32939 0
M  V30 5462 C 534.301 -0.487208 4.54396 0
M  V30 5463 C 535.298 0.250428 5.19297 0
M  V30 5464 C 532.983 -0.415494 5.00579 0
M  V30 5465 C 534.977 1.04812 6.28723 0
M  V30 5466 C 532.664 0.385879 6.0988 0
M  V30 5467 C 533.662 1.11637 6.73815 0
M  V30 5468 O 533.35 1.90454 7.81014 0
M  V30 5469 H 533.082 -0.173664 0.653312 0
M  V30 5470 H 535.636 0.1256 2.05016 0
M  V30 5471 H 533.866 -2.14763 3.2158 0
M  V30 5472 H 535.555 -1.92749 3.57215 0
M  V30 5473 H 536.321 0.204546 4.84568 0
M  V30 5474 H 532.2 -0.973679 4.506 0
M  V30 5475 H 535.744 1.6188 6.78558 0
M  V30 5476 H 531.641 0.433366 6.44044 0
M  V30 5477 H 532.409 1.82762 7.97835 0
M  V30 5478 N 535.072 -1.5615 -0.213296 0
M  V30 5479 C 536.483 -1.69645 -0.779582 0
M  V30 5480 C 536.834 -0.663615 -1.84636 0
M  V30 5481 O 535.959 0.183633 -2.15619 0
M  V30 5482 C 536.554 -3.07567 -1.42084 0
M  V30 5483 C 535.113 -3.22889 -1.93442 0
M  V30 5484 C 534.26 -2.65581 -0.797612 0
M  V30 5485 H 537.211 -1.58696 0.0114951 0
M  V30 5486 H 537.232 -3.03884 -2.28986 0
M  V30 5487 H 536.744 -3.82716 -0.644187 0
M  V30 5488 H 534.845 -2.52623 -2.73884 0
M  V30 5489 H 534.958 -4.30197 -2.10872 0
M  V30 5490 H 533.322 -2.24278 -1.20712 0
M  V30 5491 H 534.105 -3.43284 -0.033494 0
M  V30 5492 N 536.55 0.480323 -1.50102 0
M  V30 5493 C 537.796 1.23208 -1.61837 0
M  V30 5494 C 538.151 1.89878 -0.310509 0
M  V30 5495 O 537.444 1.7871 0.690897 0
M  V30 5496 C 537.638 2.30708 -2.72963 0
M  V30 5497 C 537.467 1.74583 -4.14428 0
M  V30 5498 C 536.237 1.54964 -4.80951 0
M  V30 5499 C 538.435 1.24597 -4.98979 0
M  V30 5500 N 536.417 0.939855 -6.06663 0
M  V30 5501 C 537.788 0.758834 -6.15339 0
M  V30 5502 C 539.843 1.13365 -4.84822 0
M  V30 5503 C 538.546 0.17046 -7.19098 0
M  V30 5504 C 540.572 0.559221 -5.8875 0
M  V30 5505 C 539.934 0.082415 -7.04352 0
M  V30 5506 H 536.033 0.440065 -0.646426 0
M  V30 5507 H 538.617 0.535632 -1.87187 0
M  V30 5508 H 536.788 2.9779 -2.4935 0
M  V30 5509 H 538.52 2.97738 -2.74106 0
M  V30 5510 H 535.275 1.79926 -4.38091 0
M  V30 5511 H 535.699 0.653641 -6.73837 0
M  V30 5512 H 540.341 1.48823 -3.95742 0
M  V30 5513 H 538.059 -0.196347 -8.07861 0
M  V30 5514 H 541.645 0.474804 -5.79859 0
M  V30 5515 H 540.525 -0.355119 -7.83396 0
M  V30 5516 N 538.028 1.39524 0.732853 0
M  V30 5517 C 539.275 1.36865 1.49246 0
M  V30 5518 C 539.603 -0.0347118 1.94469 0
M  V30 5519 O 538.858 -1.01596 1.67262 0
M  V30 5520 C 539.157 2.28916 2.74468 0
M  V30 5521 C 538.823 3.76506 2.481 0
M  V30 5522 C 537.485 4.16721 2.40619 0
M  V30 5523 C 539.837 4.69846 2.25598 0
M  V30 5524 C 537.165 5.48334 2.08679 0
M  V30 5525 C 539.517 6.01739 1.95174 0
M  V30 5526 C 538.181 6.41015 1.86163 0
M  V30 5527 H 537.451 0.500824 0.546129 0
M  V30 5528 H 540.098 1.72047 0.840958 0
M  V30 5529 H 538.403 1.86859 3.4437 0
M  V30 5530 H 540.1 2.2415 3.32502 0
M  V30 5531 H 536.69 3.44635 2.54803 0
M  V30 5532 H 540.874 4.39608 2.30344 0
M  V30 5533 H 536.13 5.77685 2.00226 0
M  V30 5534 H 540.304 6.73591 1.76771 0
M  V30 5535 H 537.931 7.42917 1.61179 0
M  V30 5536 N 539.506 -0.963266 1.24736 0
M  V30 5537 C 540.456 -2.0438 1.01058 0
M  V30 5538 C 541.44 -1.60824 -0.0495354 0
M  V30 5539 O 542.632 -1.76232 0.164741 0
M  V30 5540 C 539.761 -3.37617 0.622067 0
M  V30 5541 C 538.847 -3.87722 1.7185 0
M  V30 5542 N 539.238 -4.10715 2.95207 0
M  V30 5543 C 537.536 -4.16426 1.59703 0
M  V30 5544 C 538.237 -4.51872 3.66315 0
M  V30 5545 N 537.213 -4.57302 2.93897 0
M  V30 5546 H 541.015 -2.20138 1.94721 0
M  V30 5547 H 538.529 -1.14741 1.14927 0
M  V30 5548 H 540.526 -4.14638 0.43366 0
M  V30 5549 H 539.186 -3.23242 -0.307327 0
M  V30 5550 H 540.197 -3.98037 3.31341 0
M  V30 5551 H 536.874 -4.10962 0.73598 0
M  V30 5552 H 538.264 -4.78037 4.72155 0
M  V30 5553 N 540.985 -1.06182 -1.16461 0
M  V30 5554 C 542.233 -0.776326 -1.86595 0
M  V30 5555 C 542.554 0.69921 -1.82033 0
M  V30 5556 O 541.824 1.50579 -1.2531 0
M  V30 5557 H 540.404 -0.284184 -0.690832 0
M  V30 5558 H 543.066 -1.34308 -1.41235 0
M  V30 5559 H 542.162 -1.10022 -2.92064 0
M  V30 5560 N 542.463 1.3308 -0.844243 0
M  V30 5561 C 543.874 1.7992 -0.498566 0
M  V30 5562 C 544.225 1.69808 0.982834 0
M  V30 5563 O 543.35 1.25051 1.7661 0
M  V30 5564 C 543.945 3.26677 -0.898204 0
M  V30 5565 C 542.504 3.71513 -0.604583 0
M  V30 5566 C 541.651 2.54393 -1.10362 0
M  V30 5567 H 544.602 1.20526 -1.03244 0
M  V30 5568 H 544.623 3.79918 -0.21039 0
M  V30 5569 H 544.135 3.34004 -1.97643 0
M  V30 5570 H 542.236 3.69708 0.46335 0
M  V30 5571 H 542.349 4.64755 -1.16358 0
M  V30 5572 H 540.713 2.49246 -0.524273 0
M  V30 5573 H 541.496 2.6448 -2.18873 0
M  V30 5574 N 543.941 0.601185 1.45683 0
M  V30 5575 C 545.19 0.0914953 2.01492 0
M  V30 5576 C 545.503 -1.28331 1.47616 0
M  V30 5577 O 546.709 -1.88537 1.95362 0
M  V30 5578 C 545.165 0.11291 3.59723 0
M  V30 5579 C 544.773 1.48717 4.22596 0
M  V30 5580 C 546.517 -0.341871 4.23121 0
M  V30 5581 C 544.424 1.46531 5.7296 0
M  V30 5582 H 543.354 0.0304365 0.753385 0
M  V30 5583 H 546.005 0.755568 1.67223 0
M  V30 5584 H 544.387 -0.617692 3.91153 0
M  V30 5585 H 545.561 2.23897 4.02749 0
M  V30 5586 H 543.876 1.88351 3.71366 0
M  V30 5587 H 546.473 -0.377304 5.33367 0
M  V30 5588 H 546.816 -1.36325 3.93346 0
M  V30 5589 H 547.349 0.335256 3.96385 0
M  V30 5590 H 544.088 2.46408 6.07423 0
M  V30 5591 H 543.608 0.755997 5.95017 0
M  V30 5592 H 545.287 1.18618 6.36034 0
M  V30 5593 N 545.419 -1.53889 0.339982 0
M  V30 5594 C 546.644 -2.05741 -0.261798 0
M  V30 5595 C 547.069 -1.21354 -1.43718 0
M  V30 5596 O 546.427 -0.22645 -1.7988 0
M  V30 5597 C 546.475 -3.54542 -0.658228 0
M  V30 5598 O 545.579 -3.7302 -1.75869 0
M  V30 5599 H 544.92 -0.662529 -0.0441672 0
M  V30 5600 H 547.45 -1.98568 0.493161 0
M  V30 5601 H 547.46 -3.9711 -0.936368 0
M  V30 5602 H 546.135 -4.15412 0.201358 0
M  V30 5603 H 544.712 -3.42355 -1.47809 0
M  V30 5604 N 546.897 -0.0685191 -1.57451 0
M  V30 5605 C 548.313 0.288101 -1.56978 0
M  V30 5606 C 548.513 1.70262 -1.07765 0
M  V30 5607 O 547.569 2.4135 -0.742054 0
M  V30 5608 C 548.882 0.100745 -3.00531 0
M  V30 5609 C 550.43 0.170531 -3.12535 0
M  V30 5610 C 550.905 0.0114944 -4.57999 0
M  V30 5611 N 552.396 0.0672065 -4.63151 0
M  V30 5612 C 553.131 -0.0314813 -5.73391 0
M  V30 5613 N 552.627 -0.183503 -6.92557 0
M  V30 5614 N 554.42 0.0253489 -5.62094 0
M  V30 5615 H 546.571 -0.993026 -1.87757 0
M  V30 5616 H 548.834 -0.386981 -0.865419 0
M  V30 5617 H 548.54 -0.875197 -3.40636 0
M  V30 5618 H 548.414 0.854457 -3.67395 0
M  V30 5619 H 550.801 1.13696 -2.72318 0
M  V30 5620 H 550.882 -0.614229 -2.48316 0
M  V30 5621 H 550.526 -0.951684 -4.98904 0
M  V30 5622 H 550.456 0.815617 -5.20245 0
M  V30 5623 H 552.947 0.183246 -3.77455 0
M  V30 5624 H 553.26 -0.251041 -7.72392 0
M  V30 5625 H 551.605 -0.218822 -6.94655 0
M  V30 5626 H 554.796 0.142794 -4.67882 0
M  V30 5627 H 554.969 -0.0550166 -6.47977 0
M  V30 5628 N 548.375 1.56261 0.205012 0
M  V30 5629 C 549.621 1.80306 0.9283 0
M  V30 5630 C 549.954 0.640932 1.83319 0
M  V30 5631 O 549.229 -0.359032 1.91158 0
M  V30 5632 C 549.512 3.14547 1.75306 0
M  V30 5633 C 549.365 4.41236 0.873562 0
M  V30 5634 C 550.684 3.45382 2.72762 0
M  V30 5635 H 547.803 0.655929 0.336044 0
M  V30 5636 H 550.445 1.88984 0.196211 0
M  V30 5637 H 548.595 3.0728 2.37721 0
M  V30 5638 H 550.267 4.60539 0.264887 0
M  V30 5639 H 548.51 4.33427 0.179773 0
M  V30 5640 H 549.181 5.31639 1.48541 0
M  V30 5641 H 551.657 3.52884 2.20481 0
M  V30 5642 H 550.533 4.40449 3.2756 0
M  V30 5643 H 550.794 2.68377 3.51321 0
M  V30 5644 N 549.853 -0.472356 1.50355 0
M  V30 5645 C 550.8 -1.57051 1.69126 0
M  V30 5646 C 551.77 -1.5733 0.532574 0
M  V30 5647 O 552.955 -1.7488 0.762994 0
M  V30 5648 C 550.095 -2.95033 1.79024 0
M  V30 5649 C 549.208 -3.04552 3.06386 0
M  V30 5650 C 548.343 -4.33441 3.07087 0
M  V30 5651 C 547.382 -4.36697 4.28908 0
M  V30 5652 N 546.519 -5.57056 4.27356 0
M  V30 5653 H 551.359 -1.40351 2.62879 0
M  V30 5654 H 548.896 -0.682403 1.30314 0
M  V30 5655 H 550.854 -3.75048 1.82744 0
M  V30 5656 H 549.484 -3.10371 0.887109 0
M  V30 5657 H 548.536 -2.17419 3.12143 0
M  V30 5658 H 549.848 -3.02818 3.96362 0
M  V30 5659 H 549.002 -5.21801 3.09529 0
M  V30 5660 H 547.741 -4.37782 2.14939 0
M  V30 5661 H 546.746 -3.46734 4.2668 0
M  V30 5662 H 547.971 -4.34049 5.22282 0
M  V30 5663 H 545.917 -5.62184 3.3806 0
M  V30 5664 H 545.834 -5.57058 5.111 0
M  V30 5665 H 547.102 -6.47545 4.33942 0
M  V30 5666 N 551.331 -1.39911 -0.725443 0
M  V30 5667 C 552.294 -1.39156 -1.82121 0
M  V30 5668 C 553.294 -0.287018 -1.58218 0
M  V30 5669 O 554.484 -0.545421 -1.65441 0
M  V30 5670 C 551.616 -1.1736 -3.20062 0
M  V30 5671 H 552.809 -2.36672 -1.84191 0
M  V30 5672 H 550.362 -1.25615 -0.930079 0
M  V30 5673 H 551.097 -0.205648 -3.23647 0
M  V30 5674 H 550.882 -1.97358 -3.3881 0
M  V30 5675 H 552.372 -1.19596 -4.00108 0
M  V30 5676 N 552.809 0.956637 -1.25245 0
M  V30 5677 C 553.772 2.03457 -1.05537 0
M  V30 5678 C 554.772 1.60798 -0.00886317 0
M  V30 5679 O 555.962 1.72384 -0.250865 0
M  V30 5680 C 553.094 3.35543 -0.601965 0
M  V30 5681 H 554.287 2.22372 -2.01223 0
M  V30 5682 H 551.84 1.13344 -1.07623 0
M  V30 5683 H 552.575 3.22323 0.357584 0
M  V30 5684 H 552.36 3.67854 -1.35743 0
M  V30 5685 H 553.85 4.14769 -0.485454 0
M  V30 5686 N 554.287 1.06798 1.15896 0
M  V30 5687 C 555.219 0.641263 2.20046 0
M  V30 5688 C 556.232 -0.303355 1.59949 0
M  V30 5689 O 557.421 -0.0935478 1.78255 0
M  V30 5690 C 554.521 -0.0794029 3.38807 0
M  V30 5691 C 553.694 0.879986 4.28457 0
M  V30 5692 C 552.753 0.197638 5.25829 0
M  V30 5693 O 551.779 0.836913 5.63014 0
M  V30 5694 N 552.981 -1.05886 5.70761 0
M  V30 5695 H 555.746 1.53718 2.57276 0
M  V30 5696 H 553.307 0.951951 1.30956 0
M  V30 5697 H 555.299 -0.546418 4.00994 0
M  V30 5698 H 553.869 -0.877193 3.0004 0
M  V30 5699 H 553.089 1.52625 3.63454 0
M  V30 5700 H 554.377 1.53065 4.8523 0
M  V30 5701 H 553.775 -1.59828 5.42652 0
M  V30 5702 H 552.332 -1.46965 6.35015 0
M  V30 5703 N 555.766 -1.3263 0.851289 0
M  V30 5704 C 556.696 -2.31449 0.308771 0
M  V30 5705 C 557.677 -1.59531 -0.590255 0
M  V30 5706 O 558.862 -1.87351 -0.511205 0
M  V30 5707 C 555.992 -3.43586 -0.506548 0
M  V30 5708 C 554.946 -4.26963 0.297753 0
M  V30 5709 C 554.272 -5.30831 -0.642094 0
M  V30 5710 C 555.572 -4.99643 1.52166 0
M  V30 5711 H 557.266 -2.77074 1.13447 0
M  V30 5712 H 554.812 -1.33207 0.546971 0
M  V30 5713 H 556.765 -4.11754 -0.896474 0
M  V30 5714 H 555.489 -2.96681 -1.36558 0
M  V30 5715 H 554.148 -3.60437 0.669391 0
M  V30 5716 H 553.796 -4.8018 -1.49788 0
M  V30 5717 H 553.496 -5.87501 -0.107968 0
M  V30 5718 H 555.02 -6.01862 -1.02927 0
M  V30 5719 H 556.434 -5.6051 1.20421 0
M  V30 5720 H 554.831 -5.66022 1.99347 0
M  V30 5721 H 555.901 -4.27701 2.28474 0
M  V30 5722 N 557.244 -0.608902 -1.45362 0
M  V30 5723 C 558.49 -0.104762 -2.02529 0
M  V30 5724 C 558.823 1.26191 -1.47613 0
M  V30 5725 O 558.098 1.8327 -0.65134 0
M  V30 5726 C 558.381 -0.0672661 -3.60037 0
M  V30 5727 C 558.234 -1.4647 -4.25284 0
M  V30 5728 C 559.553 0.619877 -4.35713 0
M  V30 5729 H 556.672 -0.0395438 -0.735938 0
M  V30 5730 H 559.314 -0.781126 -1.73201 0
M  V30 5731 H 557.464 0.50871 -3.85155 0
M  V30 5732 H 559.136 -2.08785 -4.11347 0
M  V30 5733 H 557.379 -2.02502 -3.83634 0
M  V30 5734 H 558.05 -1.39069 -5.34195 0
M  V30 5735 H 560.526 0.130297 -4.15896 0
M  V30 5736 H 559.402 0.615224 -5.45441 0
M  V30 5737 H 559.663 1.68621 -4.0868 0
M  V30 5738 N 558.722 1.53707 -0.348139 0
M  V30 5739 C 559.654 2.22725 0.540946 0
M  V30 5740 C 560.667 1.2354 1.06027 0
M  V30 5741 O 561.856 1.49867 0.96964 0
M  V30 5742 C 558.956 2.89756 1.75768 0
M  V30 5743 C 558.129 4.15297 1.37285 0
M  V30 5744 C 557.188 4.65697 2.44976 0
M  V30 5745 O 556.214 5.29798 2.08092 0
M  V30 5746 N 557.416 4.42017 3.763 0
M  V30 5747 H 560.181 2.99658 -0.0501592 0
M  V30 5748 H 557.742 1.60979 -0.17248 0
M  V30 5749 H 559.734 3.20388 2.47252 0
M  V30 5750 H 558.304 2.16382 2.25605 0
M  V30 5751 H 557.524 3.9116 0.488584 0
M  V30 5752 H 558.812 4.96948 1.09179 0
M  V30 5753 H 558.21 3.9076 4.09051 0
M  V30 5754 H 556.767 4.77242 4.4394 0
M  V30 5755 N 560.2 0.0768682 1.57412 0
M  V30 5756 C 561.13 -0.886026 2.16037 0
M  V30 5757 C 562.111 -1.30691 1.08876 0
M  V30 5758 O 563.296 -1.37705 1.36934 0
M  V30 5759 C 560.426 -2.1518 2.72608 0
M  V30 5760 C 559.38 -1.87015 3.8498 0
M  V30 5761 C 558.706 -3.20266 4.28175 0
M  V30 5762 C 560.006 -1.17143 5.08994 0
M  V30 5763 H 561.7 -0.397642 2.96748 0
M  V30 5764 H 559.246 -0.189823 1.42743 0
M  V30 5765 H 561.199 -2.82962 3.12266 0
M  V30 5766 H 559.923 -2.66269 1.89125 0
M  V30 5767 H 558.582 -1.21636 3.45833 0
M  V30 5768 H 558.23 -3.69207 3.41607 0
M  V30 5769 H 557.93 -3.0221 5.03927 0
M  V30 5770 H 559.454 -3.89237 4.70454 0
M  V30 5771 H 560.868 -1.75003 5.45937 0
M  V30 5772 H 559.265 -1.09328 5.90057 0
M  V30 5773 H 560.335 -0.151295 4.84664 0
M  V30 5774 N 561.678 -1.56367 -0.196722 0
M  V30 5775 C 562.61 -1.90941 -1.26784 0
M  V30 5776 C 563.623 -0.799928 -1.41792 0
M  V30 5777 O 564.812 -1.07833 -1.42247 0
M  V30 5778 C 561.912 -2.12477 -2.6402 0
M  V30 5779 C 561.085 -3.43616 -2.70641 0
M  V30 5780 C 560.144 -3.54284 -3.89062 0
M  V30 5781 O 559.17 -4.2712 -3.76241 0
M  V30 5782 N 560.372 -2.87252 -5.04447 0
M  V30 5783 H 563.137 -2.83417 -0.974417 0
M  V30 5784 H 560.698 -1.57215 -0.386649 0
M  V30 5785 H 562.69 -2.16904 -3.41665 0
M  V30 5786 H 561.26 -1.26508 -2.85857 0
M  V30 5787 H 560.48 -3.51072 -1.79283 0
M  V30 5788 H 561.768 -4.29958 -2.72054 0
M  V30 5789 H 561.166 -2.27901 -5.17762 0
M  V30 5790 H 559.723 -2.97308 -5.80044 0
M  V30 5791 N 563.156 0.464375 -1.50603 0
M  V30 5792 C 564.404 1.21356 -1.61608 0
M  V30 5793 C 564.725 1.92329 -0.321643 0
M  V30 5794 O 563.995 1.84403 0.661232 0
M  V30 5795 H 562.575 0.45094 -0.595535 0
M  V30 5796 H 565.237 0.535046 -1.87412 0
M  V30 5797 H 564.333 1.95783 -2.43054 0
M  V30 5798 N 564.634 1.40294 0.718013 0
M  V30 5799 C 566.045 1.34289 1.29705 0
M  V30 5800 C 566.396 0.0152228 1.96194 0
M  V30 5801 O 565.521 -0.88682 1.97394 0
M  V30 5802 C 566.116 2.43219 2.3586 0
M  V30 5803 C 564.675 2.40682 2.89394 0
M  V30 5804 C 563.822 2.24223 1.63154 0
M  V30 5805 H 566.773 1.50135 0.514312 0
M  V30 5806 H 566.794 2.10986 3.16647 0
M  V30 5807 H 566.306 3.39836 1.87439 0
M  V30 5808 H 564.407 1.47756 3.42051 0
M  V30 5809 H 564.52 3.36177 3.41353 0
M  V30 5810 H 562.884 1.71696 1.88129 0
M  V30 5811 H 563.667 3.22834 1.16761 0
M  V30 5812 N 566.112 -0.949982 1.2575 0
M  V30 5813 C 567.389 -1.6718 1.01539 0
M  V30 5814 C 567.769 -2.06095 -0.456942 0
M  V30 5815 O 567.117 -1.77792 -1.43534 0
M  V30 5816 C 567.327 -2.8906 1.95564 0
M  V30 5817 C 568.675 -3.60909 2.23673 0
M  V30 5818 O 569.699 -2.9915 1.9336 0
M  V30 5819 O 568.558 -4.72127 2.75243 0
M  V30 5820 H 565.652 -0.731697 0.385419 0
M  V30 5821 H 568.198 -1.00249 1.36924 0
M  V30 5822 H 566.97 -2.57128 2.94959 0
M  V30 5823 H 566.593 -3.63719 1.60605 0
M  V30 5824 N 567.59 -1.07411 -1.15328 0
M  V30 5825 C 568.553 -0.698914 -2.18284 0
M  V30 5826 C 569.553 0.261149 -1.58665 0
M  V30 5827 O 570.743 0.0420277 -1.74149 0
M  V30 5828 C 567.875 -0.0302427 -3.40887 0
M  V30 5829 H 569.068 -1.61045 -2.52991 0
M  V30 5830 H 566.621 -0.870724 -1.298 0
M  V30 5831 H 567.356 0.893505 -3.11748 0
M  V30 5832 H 567.141 -0.720759 -3.85419 0
M  V30 5833 H 568.631 0.21759 -4.17033 0
M  V30 5834 N 569.068 1.32177 -0.85831 0
M  V30 5835 C 570.018 2.26307 -0.277307 0
M  V30 5836 C 571.002 1.50123 0.578946 0
M  V30 5837 O 572.194 1.71754 0.427731 0
M  V30 5838 C 569.323 3.39181 0.530232 0
M  V30 5839 C 568.409 4.22746 -0.338613 0
M  V30 5840 N 568.8 4.85265 -1.4266 0
M  V30 5841 C 567.098 4.45813 -0.129 0
M  V30 5842 C 567.799 5.47634 -1.96142 0
M  V30 5843 N 566.775 5.28794 -1.26007 0
M  V30 5844 H 570.577 2.72173 -1.10902 0
M  V30 5845 H 568.091 1.46308 -0.704816 0
M  V30 5846 H 570.088 4.05628 0.962904 0
M  V30 5847 H 568.748 2.9486 1.35969 0
M  V30 5848 H 569.759 4.85259 -1.80953 0
M  V30 5849 H 566.436 4.12163 0.665451 0
M  V30 5850 H 567.826 6.0735 -2.8736 0
M  V30 5851 N 570.547 0.616602 1.45037 0
M  V30 5852 C 571.795 0.115103 2.01772 0
M  V30 5853 C 572.116 -1.2622 1.48639 0
M  V30 5854 O 571.386 -1.83563 0.684199 0
M  V30 5855 H 569.966 0.0395607 0.745952 0
M  V30 5856 H 572.628 0.800032 1.77723 0
M  V30 5857 H 571.724 0.0717274 3.12018 0
M  V30 5858 N 572.025 -1.5352 0.356285 0
M  V30 5859 C 573.271 -2.01414 -0.236653 0
M  V30 5860 C 573.604 -1.24339 -1.49176 0
M  V30 5861 O 572.879 -0.334496 -1.91602 0
M  V30 5862 C 573.162 -3.56059 -0.537982 0
M  V30 5863 C 573.015 -4.43835 0.730112 0
M  V30 5864 C 574.334 -4.19127 -1.34239 0
M  V30 5865 H 571.453 -0.732135 -0.0845386 0
M  V30 5866 H 574.095 -1.83854 0.479341 0
M  V30 5867 H 572.245 -3.71153 -1.14795 0
M  V30 5868 H 573.917 -4.40555 1.36782 0
M  V30 5869 H 572.16 -4.1218 1.3524 0
M  V30 5870 H 572.831 -5.49958 0.474358 0
M  V30 5871 H 575.307 -4.07809 -0.826498 0
M  V30 5872 H 574.183 -5.27378 -1.52198 0
M  V30 5873 H 574.444 -3.74581 -2.34822 0
M  V30 5874 N 573.503 -0.0852151 -1.57369 0
M  V30 5875 C 574.75 0.580806 -1.93992 0
M  V30 5876 C 575.078 1.68801 -0.966252 0
M  V30 5877 O 574.333 1.95694 0.0158649 0
M  V30 5878 C 574.632 1.18482 -3.3719 0
M  V30 5879 C 574.298 0.2024 -4.50446 0
M  V30 5880 C 572.96 -0.0678318 -4.81152 0
M  V30 5881 C 575.312 -0.46895 -5.19086 0
M  V30 5882 C 572.64 -1.01627 -5.77831 0
M  V30 5883 C 574.992 -1.4058 -6.16782 0
M  V30 5884 C 573.656 -1.68436 -6.45899 0
M  V30 5885 H 572.926 0.212532 -0.709867 0
M  V30 5886 H 575.573 -0.158947 -1.90839 0
M  V30 5887 H 573.878 2.0006 -3.36873 0
M  V30 5888 H 575.575 1.70767 -3.62822 0
M  V30 5889 H 572.165 0.423208 -4.26505 0
M  V30 5890 H 576.349 -0.273307 -4.95547 0
M  V30 5891 H 571.605 -1.2392 -5.9871 0
M  V30 5892 H 575.779 -1.93188 -6.69068 0
M  V30 5893 H 573.406 -2.42088 -7.20623 0
M  V30 5894 N 574.981 1.5647 0.188427 0
M  V30 5895 C 575.911 1.98101 1.23606 0
M  V30 5896 C 576.892 0.853961 1.47111 0
M  V30 5897 O 578.077 1.11879 1.58735 0
M  V30 5898 C 575.207 2.32624 2.57882 0
M  V30 5899 C 574.161 3.48129 2.48978 0
M  V30 5900 C 573.487 3.68347 3.87588 0
M  V30 5901 C 574.787 4.82112 2.00911 0
M  V30 5902 H 576.481 2.85864 0.890068 0
M  V30 5903 H 574.027 1.37532 0.426714 0
M  V30 5904 H 575.98 2.60343 3.3136 0
M  V30 5905 H 574.704 1.41751 2.94235 0
M  V30 5906 H 573.363 3.20511 1.77956 0
M  V30 5907 H 573.011 2.74793 4.21305 0
M  V30 5908 H 572.711 4.46055 3.82503 0
M  V30 5909 H 574.235 3.98449 4.62678 0
M  V30 5910 H 575.649 5.08819 2.64151 0
M  V30 5911 H 574.046 5.63337 2.06814 0
M  V30 5912 H 575.116 4.75249 0.96262 0
M  V30 5913 N 576.459 -0.456382 1.50847 0
M  V30 5914 C 577.705 -1.20914 1.62811 0
M  V30 5915 C 578.038 -1.91301 0.334304 0
M  V30 5916 O 577.313 -1.82775 -0.665098 0
M  V30 5917 C 577.596 -2.24122 2.81853 0
M  V30 5918 C 577.449 -1.57944 4.21158 0
M  V30 5919 C 578.768 -3.25295 2.96431 0
M  V30 5920 H 575.887 -0.438233 0.592554 0
M  V30 5921 H 578.529 -0.50091 1.83278 0
M  V30 5922 H 576.679 -2.84524 2.64534 0
M  V30 5923 H 578.351 -1.01025 4.50102 0
M  V30 5924 H 576.594 -0.882185 4.24735 0
M  V30 5925 H 577.265 -2.33014 5.00408 0
M  V30 5926 H 579.741 -2.7493 3.12335 0
M  V30 5927 H 578.617 -3.94822 3.81322 0
M  V30 5928 H 578.878 -3.90286 2.07676 0
M  V30 5929 N 577.937 -1.40673 -0.710563 0
M  V30 5930 C 579.353 -1.22813 -1.01928 0
M  V30 5931 C 579.553 -0.10687 -2.01216 0
M  V30 5932 O 578.609 0.533614 -2.46797 0
M  V30 5933 C 579.922 -2.57178 -1.5582 0
M  V30 5934 C 581.47 -2.64233 -1.67779 0
M  V30 5935 C 581.945 -3.98879 -2.25076 0
M  V30 5936 N 583.436 -4.00647 -2.32456 0
M  V30 5937 C 584.171 -5.01621 -2.77784 0
M  V30 5938 N 583.667 -6.12989 -3.22826 0
M  V30 5939 N 585.46 -4.88988 -2.77213 0
M  V30 5940 H 577.611 -2.12335 -0.05253 0
M  V30 5941 H 579.874 -0.9441 -0.085898 0
M  V30 5942 H 579.58 -3.39903 -0.903249 0
M  V30 5943 H 579.454 -2.78618 -2.54267 0
M  V30 5944 H 581.841 -1.81876 -2.3239 0
M  V30 5945 H 581.922 -2.46619 -0.679178 0
M  V30 5946 H 581.566 -4.81678 -1.61086 0
M  V30 5947 H 581.496 -4.13826 -3.25661 0
M  V30 5948 H 583.987 -3.20231 -2.0065 0
M  V30 5949 H 584.3 -6.85921 -3.55995 0
M  V30 5950 H 582.645 -6.16547 -3.20773 0
M  V30 5951 H 585.836 -4.01075 -2.41363 0
M  V30 5952 H 586.009 -5.67822 -3.12221 0
M  V30 5953 N 579.415 0.9433 -1.26252 0
M  V30 5954 C 580.347 2.04542 -1.03417 0
M  V30 5955 C 581.36 1.62799 0.0046911 0
M  V30 5956 O 582.549 1.76944 -0.235146 0
M  V30 5957 C 579.649 3.34511 -0.543671 0
M  V30 5958 C 578.822 4.05033 -1.65128 0
M  V30 5959 C 577.881 5.13273 -1.1592 0
M  V30 5960 O 576.907 5.38095 -1.85586 0
M  V30 5961 N 578.109 5.805 -0.00649279 0
M  V30 5962 H 580.874 2.24699 -1.98319 0
M  V30 5963 H 578.435 1.11264 -1.1761 0
M  V30 5964 H 580.427 4.04212 -0.198703 0
M  V30 5965 H 578.997 3.11042 0.311711 0
M  V30 5966 H 578.217 3.29275 -2.16729 0
M  V30 5967 H 579.505 4.48903 -2.39508 0
M  V30 5968 H 578.903 5.62767 0.575347 0
M  V30 5969 H 577.46 6.51201 0.279416 0
M  V30 5970 N 580.893 1.08022 1.14757 0
M  V30 5971 C 582.118 0.82895 1.90114 0
M  V30 5972 C 582.543 -0.612772 1.77839 0
M  V30 5973 O 581.901 -1.42895 1.11583 0
M  V30 5974 C 581.949 1.25062 3.38219 0
M  V30 5975 O 581.053 0.400119 4.10454 0
M  V30 5976 H 580.394 0.301412 0.591648 0
M  V30 5977 H 582.924 1.44062 1.45284 0
M  V30 5978 H 582.934 1.22977 3.89025 0
M  V30 5979 H 581.609 2.30067 3.46471 0
M  V30 5980 H 580.186 0.484052 3.69745 0
M  V30 5981 N 582.371 -1.3172 0.865308 0
M  V30 5982 C 583.281 -2.32394 0.320935 0
M  V30 5983 C 584.297 -1.64511 -0.566746 0
M  V30 5984 O 585.473 -1.95969 -0.464575 0
M  V30 5985 C 582.538 -3.43462 -0.472701 0
M  V30 5986 C 581.599 -4.27015 0.442385 0
M  V30 5987 C 580.832 -5.32779 -0.313469 0
M  V30 5988 O 581.055 -5.49158 -1.54214 0
M  V30 5989 O 579.989 -6.01015 0.326257 0
M  V30 5990 H 583.815 -2.80868 1.15528 0
M  V30 5991 H 581.4 -1.35535 0.628545 0
M  V30 5992 H 583.282 -4.11172 -0.922781 0
M  V30 5993 H 581.957 -2.97159 -1.28367 0
M  V30 5994 H 580.864 -3.62075 0.940866 0
M  V30 5995 H 582.197 -4.76871 1.21882 0
M  V30 5996 N 583.85 -0.624285 -1.44708 0
M  V30 5997 C 585.077 -0.132919 -2.06473 0
M  V30 5998 C 585.493 1.18967 -1.46602 0
M  V30 5999 O 584.85 1.72824 -0.586341 0
M  V30 6000 C 584.901 -0.00465418 -3.615 0
M  V30 6001 O 584.622 -1.27494 -4.19138 0
M  V30 6002 C 586.123 0.516213 -4.40284 0
M  V30 6003 H 583.343 -0.0765201 -0.666623 0
M  V30 6004 H 585.887 -0.856751 -1.85688 0
M  V30 6005 H 584.042 0.669583 -3.8157 0
M  V30 6006 H 584.456 -1.11536 -5.12504 0
M  V30 6007 H 585.93 0.554994 -5.49203 0
M  V30 6008 H 586.407 1.5419 -4.11245 0
M  V30 6009 H 587.013 -0.124542 -4.25118 0
M  V30 6010 N 585.328 1.53329 -0.364422 0
M  V30 6011 C 586.744 1.59594 -0.0133165 0
M  V30 6012 C 586.944 1.37959 1.46865 0
M  V30 6013 O 586 1.18418 2.2301 0
M  V30 6014 C 587.313 2.97032 -0.468213 0
M  V30 6015 C 588.861 3.10138 -0.422334 0
M  V30 6016 C 589.336 4.49986 -0.853024 0
M  V30 6017 N 590.827 4.56098 -0.808037 0
M  V30 6018 C 591.562 5.62495 -1.11299 0
M  V30 6019 N 591.058 6.7665 -1.48717 0
M  V30 6020 N 592.851 5.52473 -1.03586 0
M  V30 6021 H 585.002 1.65644 -1.32951 0
M  V30 6022 H 587.265 0.77684 -0.543345 0
M  V30 6023 H 586.971 3.18 -1.5023 0
M  V30 6024 H 586.845 3.76918 0.145775 0
M  V30 6025 H 589.232 2.88881 0.602622 0
M  V30 6026 H 589.313 2.32263 -1.0718 0
M  V30 6027 H 588.957 4.7198 -1.87609 0
M  V30 6028 H 588.887 5.26289 -0.180819 0
M  V30 6029 H 591.378 3.74131 -0.532361 0
M  V30 6030 H 591.691 7.53776 -1.70415 0
M  V30 6031 H 590.036 6.78044 -1.52581 0
M  V30 6032 H 593.227 4.6217 -0.742736 0
M  V30 6033 H 593.4 6.35295 -1.27686 0
M  V30 6034 N 586.806 0.0935595 1.57322 0
M  V30 6035 C 588.222 -0.263091 1.57417 0
M  V30 6036 C 588.422 -1.68526 1.1046 0
M  V30 6037 O 587.478 -2.40139 0.780357 0
M  V30 6038 C 588.791 -0.0529201 3.00653 0
M  V30 6039 C 590.339 -0.120788 3.12767 0
M  V30 6040 C 590.814 0.0613707 4.57959 0
M  V30 6041 N 592.305 0.00648534 4.632 0
M  V30 6042 C 593.04 0.122699 5.73269 0
M  V30 6043 N 592.536 0.29366 6.92177 0
M  V30 6044 N 594.329 0.0640787 5.62063 0
M  V30 6045 H 586.48 1.02277 1.86154 0
M  V30 6046 H 588.743 0.4007 0.859153 0
M  V30 6047 H 588.449 0.929279 3.39201 0
M  V30 6048 H 588.323 -0.795899 3.68708 0
M  V30 6049 H 590.71 -1.09349 2.74093 0
M  V30 6050 H 590.791 0.653656 2.47307 0
M  V30 6051 H 590.435 1.03093 4.97327 0
M  V30 6052 H 590.365 -0.732748 5.21477 0
M  V30 6053 H 592.856 -0.123173 3.77699 0
M  V30 6054 H 593.169 0.37389 7.71895 0
M  V30 6055 H 591.514 0.329307 6.94219 0
M  V30 6056 H 594.705 -0.0683396 4.6805 0
M  V30 6057 H 594.878 0.158097 6.47807 0
M  V30 6058 N 588.284 -1.56567 -0.180126 0
M  V30 6059 C 589.532 -1.81133 -0.896392 0
M  V30 6060 C 589.853 -0.669114 -1.83161 0
M  V30 6061 O 589.123 0.311616 -1.93406 0
M  V30 6062 H 587.703 -0.668172 -0.333999 0
M  V30 6063 H 590.365 -1.94048 -0.182051 0
M  V30 6064 H 589.461 -2.74854 -1.47857 0
M  V30 6065 N 589.762 0.448376 -1.51087 0
M  V30 6066 C 590.672 1.56882 -1.74428 0
M  V30 6067 C 591.688 1.62268 -0.62809 0
M  V30 6068 O 592.864 1.79716 -0.909075 0
M  V30 6069 C 589.929 2.92947 -1.85426 0
M  V30 6070 C 588.99 2.97766 -3.09247 0
M  V30 6071 C 588.223 4.27341 -3.19711 0
M  V30 6072 O 588.446 5.19112 -2.36387 0
M  V30 6073 O 587.38 4.38219 -4.12611 0
M  V30 6074 H 591.206 1.40104 -2.69452 0
M  V30 6075 H 588.791 0.630247 -1.35456 0
M  V30 6076 H 590.673 3.73719 -1.94709 0
M  V30 6077 H 589.348 3.09876 -0.935887 0
M  V30 6078 H 588.255 2.15989 -3.0545 0
M  V30 6079 H 589.588 2.8578 -4.00738 0
M  V30 6080 N 591.24 1.41047 0.703093 0
M  V30 6081 C 592.47 1.43133 1.48985 0
M  V30 6082 C 592.878 0.0328537 1.89171 0
M  V30 6083 O 592.221 -0.956469 1.56835 0
M  V30 6084 C 592.283 2.26991 2.78775 0
M  V30 6085 C 591.947 3.7525 2.60837 0
M  V30 6086 C 592.944 4.67591 2.27276 0
M  V30 6087 C 590.629 4.19208 2.76712 0
M  V30 6088 C 592.623 6.01877 2.09817 0
M  V30 6089 C 590.31 5.53561 2.5887 0
M  V30 6090 C 591.308 6.4471 2.25472 0
M  V30 6091 O 590.996 7.76584 2.07778 0
M  V30 6092 H 590.728 0.489788 0.465922 0
M  V30 6093 H 593.282 1.85886 0.873822 0
M  V30 6094 H 591.512 1.79038 3.42757 0
M  V30 6095 H 593.201 2.20867 3.40547 0
M  V30 6096 H 593.967 4.34923 2.14633 0
M  V30 6097 H 589.846 3.48572 3.01693 0
M  V30 6098 H 593.39 6.72986 1.83671 0
M  V30 6099 H 589.287 5.85811 2.71102 0
M  V30 6100 H 590.055 7.87649 2.22601 0
M  V30 6101 N 592.718 -0.936591 1.26751 0
M  V30 6102 C 593.964 -1.6858 1.12733 0
M  V30 6103 C 594.297 -1.91414 -0.327745 0
M  V30 6104 O 593.572 -1.49812 -1.24043 0
M  V30 6105 C 593.855 -3.05779 1.90187 0
M  V30 6106 C 593.708 -2.90242 3.43627 0
M  V30 6107 C 595.027 -4.0597 1.69931 0
M  V30 6108 H 592.146 -0.61182 0.410908 0
M  V30 6109 H 594.788 -1.08747 1.55801 0
M  V30 6110 H 592.938 -3.56853 1.53584 0
M  V30 6111 H 594.61 -2.46354 3.9001 0
M  V30 6112 H 592.853 -2.2577 3.70419 0
M  V30 6113 H 593.524 -3.87572 3.93055 0
M  V30 6114 H 596 -3.63874 2.0183 0
M  V30 6115 H 594.876 -4.99974 2.26534 0
M  V30 6116 H 595.137 -4.37369 0.64502 0
M  V30 6117 N 594.196 -1.08629 -1.14182 0
M  V30 6118 C 595.126 -0.740003 -2.21464 0
M  V30 6119 C 596.107 0.278591 -1.67803 0
M  V30 6120 O 597.292 0.148461 -1.93632 0
M  V30 6121 C 594.422 -0.150952 -3.46972 0
M  V30 6122 C 593.376 -1.09815 -4.13672 0
M  V30 6123 C 592.702 -0.3712 -5.3341 0
M  V30 6124 C 594.002 -2.43722 -4.61949 0
M  V30 6125 H 595.696 -1.63697 -2.50686 0
M  V30 6126 H 593.242 -0.788526 -1.20492 0
M  V30 6127 H 595.195 0.103325 -4.21273 0
M  V30 6128 H 593.919 0.781164 -3.1712 0
M  V30 6129 H 592.578 -1.33756 -3.41328 0
M  V30 6130 H 592.226 0.564792 -4.99819 0
M  V30 6131 H 591.926 -1.00267 -5.78982 0
M  V30 6132 H 593.45 -0.12503 -6.10472 0
M  V30 6133 H 594.864 -2.24034 -5.27714 0
M  V30 6134 H 593.261 -3.02582 -5.18232 0
M  V30 6135 H 594.331 -3.05082 -3.76899 0
M  V30 6136 N 595.674 1.31259 -0.872281 0
M  V30 6137 C 596.902 2.00795 -0.498907 0
M  V30 6138 C 597.317 1.65464 0.909238 0
M  V30 6139 O 596.674 0.885073 1.59602 0
M  V30 6140 C 596.725 3.55625 -0.649092 0
M  V30 6141 O 596.446 3.89692 -2.00179 0
M  V30 6142 C 597.947 4.42434 -0.277034 0
M  V30 6143 H 595.167 0.642299 -0.194145 0
M  V30 6144 H 597.711 1.67438 -1.17408 0
M  V30 6145 H 595.866 3.87394 -0.0214402 0
M  V30 6146 H 596.28 4.84407 -2.01122 0
M  V30 6147 H 597.754 5.50299 -0.433064 0
M  V30 6148 H 598.231 4.32146 0.783989 0
M  V30 6149 H 598.837 4.16086 -0.880483 0
M  V30 6150 N 597.152 0.631951 1.44375 0
M  V30 6151 C 598.399 0.136767 2.02038 0
M  V30 6152 C 598.727 -1.24168 1.49709 0
M  V30 6153 O 597.982 -1.83809 0.671763 0
M  V30 6154 C 598.281 0.0735861 3.57324 0
M  V30 6155 C 597.947 1.39092 4.28911 0
M  V30 6156 C 596.609 1.75171 4.48184 0
M  V30 6157 C 598.961 2.26042 4.69632 0
M  V30 6158 C 596.289 2.97907 5.05439 0
M  V30 6159 C 598.641 3.4805 5.28246 0
M  V30 6160 C 597.305 3.84351 5.45738 0
M  V30 6161 H 596.575 0.0500466 0.739308 0
M  V30 6162 H 599.222 0.818429 1.7313 0
M  V30 6163 H 597.527 -0.691449 3.8565 0
M  V30 6164 H 599.224 -0.326091 3.99672 0
M  V30 6165 H 595.814 1.10015 4.1424 0
M  V30 6166 H 599.998 1.99463 4.54454 0
M  V30 6167 H 595.254 3.26108 5.17169 0
M  V30 6168 H 599.428 4.15658 5.5875 0
M  V30 6169 H 597.055 4.79538 5.8987 0
M  V30 6170 N 598.631 -1.53133 0.372548 0
M  V30 6171 C 599.579 -2.27473 -0.485681 0
M  V30 6172 C 600.573 -1.30719 -1.07745 0
M  V30 6173 O 601.779 -1.48321 -1.01985 0
M  V30 6174 H 598.154 -0.731269 -0.175356 0
M  V30 6175 H 600.125 -2.97955 0.162986 0
M  V30 6176 C 598.874 -3.08191 -1.60978 0
M  V30 6177 H 598.197 -3.82488 -1.16373 0
M  V30 6178 H 599.637 -3.63373 -2.18485 0
M  V30 6179 C 598.096 -2.19461 -2.55614 0
M  V30 6180 O 598.626 -1.81008 -3.58607 0
M  V30 6181 N 596.832 -1.83955 -2.24965 0
M  V30 6182 H 596.379 -2.15423 -1.41247 0
M  V30 6183 H 596.337 -1.24874 -2.88538 0
M  V30 6184 N 600.109 -0.101901 -1.5727 0
M  V30 6185 C 601.356 0.560197 -1.94597 0
M  V30 6186 C 601.684 1.67767 -0.984101 0
M  V30 6187 O 600.939 1.95699 -0.00489193 0
M  V30 6188 C 601.238 1.14898 -3.38427 0
M  V30 6189 C 600.904 0.154613 -4.50635 0
M  V30 6190 C 599.566 -0.118861 -4.81053 0
M  V30 6191 C 601.918 -0.523979 -5.18559 0
M  V30 6192 C 599.246 -1.0775 -5.76721 0
M  V30 6193 C 601.598 -1.47114 -6.15256 0
M  V30 6194 C 600.262 -1.75278 -6.44076 0
M  V30 6195 H 599.532 0.204991 -0.712081 0
M  V30 6196 H 602.179 -0.17918 -1.9066 0
M  V30 6197 H 600.484 1.96476 -3.38976 0
M  V30 6198 H 602.181 1.66909 -3.64613 0
M  V30 6199 H 598.771 0.377948 -4.2693 0
M  V30 6200 H 602.955 -0.325851 -4.95229 0
M  V30 6201 H 598.211 -1.30263 -5.97362 0
M  V30 6202 H 602.385 -2.00274 -6.66981 0
M  V30 6203 H 600.012 -2.49717 -7.18015 0
M  V30 6204 N 601.587 1.56661 0.17182 0
M  V30 6205 C 602.519 1.92934 1.2373 0
M  V30 6206 C 603.532 0.822385 1.40502 0
M  V30 6207 O 604.721 1.10083 1.40514 0
M  V30 6208 C 601.821 2.16651 2.60607 0
M  V30 6209 C 600.994 3.47878 2.6514 0
M  V30 6210 C 600.053 3.60429 3.83377 0
M  V30 6211 O 599.079 4.33051 3.69398 0
M  V30 6212 N 600.281 2.95241 4.99813 0
M  V30 6213 H 603.046 2.84931 0.929205 0
M  V30 6214 H 600.607 1.5781 0.361588 0
M  V30 6215 H 602.599 2.22312 3.38171 0
M  V30 6216 H 601.169 1.3104 2.83809 0
M  V30 6217 H 600.389 3.53879 1.73675 0
M  V30 6218 H 601.677 4.34232 2.6518 0
M  V30 6219 H 601.075 2.3611 5.14071 0
M  V30 6220 H 599.632 3.06499 5.75241 0
M  V30 6221 N 603.065 -0.440357 1.51323 0
M  V30 6222 C 604.313 -1.18769 1.63518 0
M  V30 6223 C 604.634 -1.91793 0.352201 0
M  V30 6224 O 603.904 -1.85432 -0.631811 0
M  V30 6225 H 602.484 -0.441408 0.602634 0
M  V30 6226 H 605.146 -0.505162 1.8824 0
M  V30 6227 H 604.242 -1.91892 2.46138 0
M  V30 6228 N 604.543 -1.41418 -0.695603 0
M  V30 6229 C 605.792 -1.40073 -1.4513 0
M  V30 6230 C 606.105 -0.0130439 -1.95596 0
M  V30 6231 O 607.311 0.123032 -2.71221 0
M  V30 6232 C 605.767 -2.46286 -2.62433 0
M  V30 6233 C 605.375 -3.90962 -2.18753 0
M  V30 6234 C 607.119 -2.54077 -3.40066 0
M  V30 6235 C 605.026 -4.88728 -3.33015 0
M  V30 6236 H 603.956 -0.520903 -0.545138 0
M  V30 6237 H 606.607 -1.67242 -0.75515 0
M  V30 6238 H 604.989 -2.12248 -3.34315 0
M  V30 6239 H 606.163 -4.34248 -1.54161 0
M  V30 6240 H 604.478 -3.86831 -1.54114 0
M  V30 6241 H 607.075 -3.24303 -4.25125 0
M  V30 6242 H 607.418 -1.5776 -3.8525 0
M  V30 6243 H 607.951 -2.87206 -2.75241 0
M  V30 6244 H 604.69 -5.86449 -2.92844 0
M  V30 6245 H 604.21 -4.50091 -3.96457 0
M  V30 6246 H 605.889 -5.09483 -3.98793 0
M  V30 6247 N 606.021 0.929856 -1.27246 0
M  V30 6248 C 606.984 2.01172 -1.09829 0
M  V30 6249 C 607.984 1.60743 -0.0429687 0
M  V30 6250 O 609.174 1.71813 -0.287373 0
M  V30 6251 C 606.306 3.34191 -0.673003 0
M  V30 6252 H 607.499 2.18054 -2.05895 0
M  V30 6253 H 605.052 1.11036 -1.10003 0
M  V30 6254 H 605.787 3.23009 0.289134 0
M  V30 6255 H 605.572 3.64892 -1.43515 0
M  V30 6256 H 607.062 4.13646 -0.573323 0
M  V30 6257 N 607.499 1.09233 1.13605 0
M  V30 6258 C 608.446 0.729921 2.18954 0
M  V30 6259 C 609.416 -0.287916 1.63586 0
M  V30 6260 O 610.601 -0.170003 1.90041 0
M  V30 6261 C 607.741 0.154489 3.44754 0
M  V30 6262 C 606.854 1.22613 4.14234 0
M  V30 6263 C 605.989 0.613657 5.27644 0
M  V30 6264 C 605.028 1.66674 5.8897 0
M  V30 6265 N 604.165 1.07545 6.93814 0
M  V30 6266 H 609.005 1.63257 2.49302 0
M  V30 6267 H 606.542 0.815693 1.22413 0
M  V30 6268 H 608.5 -0.196923 4.16735 0
M  V30 6269 H 607.13 -0.711433 3.14863 0
M  V30 6270 H 606.182 1.69485 3.40557 0
M  V30 6271 H 607.494 2.0238 4.55899 0
M  V30 6272 H 606.648 0.210976 6.06333 0
M  V30 6273 H 605.387 -0.215584 4.87223 0
M  V30 6274 H 604.392 2.07899 5.08978 0
M  V30 6275 H 605.617 2.49861 6.31464 0
M  V30 6276 H 603.563 0.267451 6.55455 0
M  V30 6277 H 603.48 1.81011 7.3401 0
M  V30 6278 H 604.748 0.698906 7.7636 0
M  V30 6279 N 608.977 -1.30795 0.87923 0
M  V30 6280 C 609.927 -2.25838 0.313276 0
M  V30 6281 C 610.911 -1.51025 -0.55499 0
M  V30 6282 O 612.103 -1.72413 -0.400353 0
M  V30 6283 C 609.232 -3.39981 -0.476204 0
M  V30 6284 C 608.318 -4.22154 0.405826 0
M  V30 6285 N 608.709 -4.82934 1.50362 0
M  V30 6286 C 607.007 -4.45552 0.199909 0
M  V30 6287 C 607.708 -5.44444 2.0483 0
M  V30 6288 N 606.684 -5.26723 1.34403 0
M  V30 6289 H 610.486 -2.70374 1.15218 0
M  V30 6290 H 608 -1.45168 0.728003 0
M  V30 6291 H 609.997 -4.07108 -0.898251 0
M  V30 6292 H 608.657 -2.96986 -1.31261 0
M  V30 6293 H 609.668 -4.82319 1.8865 0
M  V30 6294 H 606.345 -4.13169 -0.599795 0
M  V30 6295 H 607.735 -6.02701 2.96986 0
M  V30 6296 N 610.455 -0.639598 -1.44038 0
M  V30 6297 C 611.385 0.0469443 -2.33453 0
M  V30 6298 C 612.366 0.82609 -1.48694 0
M  V30 6299 O 613.551 0.790285 -1.77393 0
M  V30 6300 C 610.681 1.02338 -3.3188 0
M  V30 6301 C 609.635 0.355284 -4.26523 0
M  V30 6302 C 608.961 1.44221 -5.14883 0
M  V30 6303 C 610.261 -0.743798 -5.16977 0
M  V30 6304 H 611.955 -0.699735 -2.91108 0
M  V30 6305 H 609.501 -0.337946 -1.39978 0
M  V30 6306 H 611.454 1.51247 -3.93322 0
M  V30 6307 H 610.178 1.80105 -2.72451 0
M  V30 6308 H 608.837 -0.113239 -3.66425 0
M  V30 6309 H 608.485 2.21097 -4.51802 0
M  V30 6310 H 608.185 1.00052 -5.79019 0
M  V30 6311 H 609.709 1.93295 -5.79197 0
M  V30 6312 H 611.123 -0.337444 -5.72306 0
M  V30 6313 H 609.52 -1.10914 -5.89761 0
M  V30 6314 H 610.59 -1.60745 -4.57481 0
M  V30 6315 N 611.933 1.52934 -0.380664 0
M  V30 6316 C 613.349 1.59571 -0.0302429 0
M  V30 6317 C 613.549 1.39509 1.45394 0
M  V30 6318 O 612.605 1.20777 2.21741 0
M  V30 6319 C 613.918 2.96519 -0.499691 0
M  V30 6320 C 615.466 3.09672 -0.455204 0
M  V30 6321 C 615.941 4.49056 -0.900703 0
M  V30 6322 N 617.432 4.55215 -0.856367 0
M  V30 6323 C 618.167 5.61282 -1.17259 0
M  V30 6324 N 617.663 6.75035 -1.55885 0
M  V30 6325 N 619.456 5.51343 -1.0944 0
M  V30 6326 H 611.607 1.64224 -1.347 0
M  V30 6327 H 613.87 0.771033 -0.551554 0
M  V30 6328 H 613.576 3.16388 -1.53595 0
M  V30 6329 H 613.45 3.77052 0.105789 0
M  V30 6330 H 615.837 2.89504 0.571949 0
M  V30 6331 H 615.918 2.31113 -1.09638 0
M  V30 6332 H 615.562 4.69964 -1.92604 0
M  V30 6333 H 615.492 5.26068 -0.236629 0
M  V30 6334 H 617.983 3.73546 -0.572013 0
M  V30 6335 H 618.296 7.51926 -1.784 0
M  V30 6336 H 616.641 6.76388 -1.59764 0
M  V30 6337 H 619.832 4.61356 -0.791713 0
M  V30 6338 H 620.005 6.33905 -1.34417 0
M  V30 6339 N 613.412 0.11024 1.57214 0
M  V30 6340 C 614.342 -0.840002 2.17867 0
M  V30 6341 C 615.323 -1.28352 1.11624 0
M  V30 6342 O 616.508 -1.3477 1.39824 0
M  V30 6343 C 613.638 -2.09349 2.77111 0
M  V30 6344 C 612.592 -1.78807 3.8886 0
M  V30 6345 C 611.918 -3.11112 4.34872 0
M  V30 6346 C 613.218 -1.0632 5.11364 0
M  V30 6347 H 614.912 -0.334608 2.97524 0
M  V30 6348 H 612.458 -0.159502 1.43114 0
M  V30 6349 H 614.411 -2.76275 3.18198 0
M  V30 6350 H 613.135 -2.62198 1.9473 0
M  V30 6351 H 611.794 -1.14273 3.48335 0
M  V30 6352 H 611.442 -3.61877 3.49362 0
M  V30 6353 H 611.142 -2.91453 5.10224 0
M  V30 6354 H 612.666 -3.79171 4.78604 0
M  V30 6355 H 614.08 -1.63383 5.49526 0
M  V30 6356 H 612.477 -0.967876 5.92243 0
M  V30 6357 H 613.547 -0.0484569 4.84876 0
M  V30 6358 N 614.89 -1.56749 -0.16351 0
M  V30 6359 C 616.115 -1.86938 -0.898264 0
M  V30 6360 C 616.54 -0.697456 -1.74692 0
M  V30 6361 O 615.898 0.353327 -1.77824 0
M  V30 6362 C 615.946 -3.15599 -1.74441 0
M  V30 6363 O 615.05 -2.98371 -2.8469 0
M  V30 6364 H 614.391 -0.614659 -0.251178 0
M  V30 6365 H 616.921 -2.03979 -0.159298 0
M  V30 6366 H 616.931 -3.47202 -2.14277 0
M  V30 6367 H 615.606 -4.00505 -1.1211 0
M  V30 6368 H 614.183 -2.7814 -2.4838 0
M  V30 6369 N 616.368 0.432326 -1.51554 0
M  V30 6370 C 617.298 1.53242 -1.76179 0
M  V30 6371 C 618.279 1.58717 -0.611801 0
M  V30 6372 O 619.464 1.74364 -0.855033 0
M  V30 6373 C 616.594 2.91278 -1.89141 0
M  V30 6374 C 615.548 3.00663 -3.04608 0
M  V30 6375 C 614.874 4.40728 -3.02759 0
M  V30 6376 C 616.174 2.74281 -4.44485 0
M  V30 6377 H 617.868 1.32886 -2.68294 0
M  V30 6378 H 615.414 0.637841 -1.29103 0
M  V30 6379 H 617.367 3.68203 -2.04951 0
M  V30 6380 H 616.091 3.12877 -0.936785 0
M  V30 6381 H 614.75 2.26179 -2.88511 0
M  V30 6382 H 614.398 4.59301 -2.05065 0
M  V30 6383 H 614.098 4.47936 -3.80299 0
M  V30 6384 H 615.622 5.19619 -3.20669 0
M  V30 6385 H 617.036 3.40936 -4.60907 0
M  V30 6386 H 615.433 2.92893 -5.23769 0
M  V30 6387 H 616.503 1.69856 -4.54177 0
M  V30 6388 N 617.846 1.41785 0.688094 0
M  V30 6389 C 619.074 1.44915 1.47673 0
M  V30 6390 C 619.489 0.0565786 1.88715 0
M  V30 6391 O 618.846 -0.92579 1.57275 0
M  V30 6392 C 618.897 2.36452 2.73446 0
M  V30 6393 O 618.618 3.7029 2.34131 0
M  V30 6394 C 620.119 2.48463 3.67125 0
M  V30 6395 H 617.339 0.493324 0.454832 0
M  V30 6396 H 619.883 1.86153 0.846594 0
M  V30 6397 H 618.038 1.98502 3.3268 0
M  V30 6398 H 618.452 4.19183 3.15255 0
M  V30 6399 H 619.926 3.16662 4.52138 0
M  V30 6400 H 620.403 1.51826 4.12123 0
M  V30 6401 H 621.009 2.8708 3.13792 0
M  V30 6402 N 619.324 -0.923095 1.27737 0
M  V30 6403 C 620.234 -2.05765 1.12685 0
M  V30 6404 C 621.25 -1.73911 0.0557197 0
M  V30 6405 O 622.426 -1.99674 0.263137 0
M  V30 6406 C 619.491 -3.37804 0.780363 0
M  V30 6407 C 618.552 -3.83326 1.93286 0
M  V30 6408 C 617.785 -5.09064 1.60281 0
M  V30 6409 O 618.008 -5.6809 0.512828 0
M  V30 6410 O 616.942 -5.50071 2.44347 0
M  V30 6411 H 620.768 -2.21378 2.07907 0
M  V30 6412 H 618.353 -1.04299 1.06968 0
M  V30 6413 H 620.235 -4.17097 0.600668 0
M  V30 6414 H 618.91 -3.23387 -0.142291 0
M  V30 6415 H 617.817 -3.049 2.16764 0
M  V30 6416 H 619.15 -4.02292 2.83588 0
M  V30 6417 N 620.802 -1.09834 -1.13024 0
M  V30 6418 C 622.218 -0.828875 -1.36388 0
M  V30 6419 C 622.418 0.554756 -1.93713 0
M  V30 6420 O 621.474 1.30882 -2.15931 0
M  V30 6421 C 622.787 -1.92352 -2.3113 0
M  V30 6422 C 624.335 -1.95124 -2.44735 0
M  V30 6423 C 624.81 -3.03745 -3.42787 0
M  V30 6424 N 626.301 -3.03012 -3.5034 0
M  V30 6425 C 627.036 -3.83699 -4.26101 0
M  V30 6426 N 626.532 -4.74306 -5.04981 0
M  V30 6427 N 628.325 -3.71942 -4.21445 0
M  V30 6428 H 620.476 -1.99029 -0.74169 0
M  V30 6429 H 622.739 -0.864557 -0.388903 0
M  V30 6430 H 622.445 -2.91906 -1.96172 0
M  V30 6431 H 622.319 -1.80536 -3.3119 0
M  V30 6432 H 624.706 -0.962069 -2.78977 0
M  V30 6433 H 624.787 -2.11018 -1.44586 0
M  V30 6434 H 624.431 -4.02878 -3.09276 0
M  V30 6435 H 624.361 -2.85094 -4.42752 0
M  V30 6436 H 626.852 -2.37352 -2.94062 0
M  V30 6437 H 627.165 -5.32446 -5.60108 0
M  V30 6438 H 625.51 -4.78339 -5.04199 0
M  V30 6439 H 628.701 -3.00513 -3.589 0
M  V30 6440 H 628.874 -4.35062 -4.80235 0
M  V30 6441 N 622.28 1.30327 -0.886154 0
M  V30 6442 C 623.528 1.9571 -0.504195 0
M  V30 6443 C 623.849 1.70294 0.950003 0
M  V30 6444 O 623.119 1.02718 1.66811 0
M  V30 6445 H 621.699 0.72412 -0.183465 0
M  V30 6446 H 624.361 1.58835 -1.12949 0
M  V30 6447 H 623.457 3.04704 -0.675431 0
M  V30 6448 N 623.758 0.647228 1.43697 0
M  V30 6449 C 624.69 -0.0866232 2.29036 0
M  V30 6450 C 625.703 -0.793051 1.42178 0
M  V30 6451 O 626.892 -0.651807 1.66174 0
M  V30 6452 C 623.992 -1.14552 3.18953 0
M  V30 6453 C 623.165 -0.518422 4.34317 0
M  V30 6454 C 622.224 -1.4734 5.05151 0
M  V30 6455 O 621.25 -0.984312 5.60625 0
M  V30 6456 N 622.452 -2.8075 5.08094 0
M  V30 6457 H 625.217 0.645834 2.92659 0
M  V30 6458 H 622.778 0.489567 1.54321 0
M  V30 6459 H 624.77 -1.78505 3.63205 0
M  V30 6460 H 623.34 -1.78001 2.56971 0
M  V30 6461 H 622.56 0.300079 3.93056 0
M  V30 6462 H 623.848 -0.080401 5.08736 0
M  V30 6463 H 623.246 -3.23052 4.64386 0
M  V30 6464 H 621.803 -3.40022 5.56083 0
M  V30 6465 N 625.236 -1.5273 0.388769 0
M  V30 6466 C 626.476 -2.03483 -0.193372 0
M  V30 6467 C 626.84 -1.26897 -1.44087 0
M  V30 6468 O 628.041 -1.67773 -2.10014 0
M  V30 6469 C 626.312 -3.54488 -0.455325 0
M  V30 6470 S 627.871 -4.27069 -1.00783 0
M  V30 6471 H 624.689 -0.708907 -0.0545131 0
M  V30 6472 H 627.291 -1.8798 0.536993 0
M  V30 6473 H 625.995 -4.07817 0.459722 0
M  V30 6474 H 625.526 -3.74196 -1.21413 0
M  V30 6475 H 627.541 -4.40185 -2.29023 0
M  V30 6476 N 626.714 -0.118576 -1.57153 0
M  V30 6477 C 628.13 0.238014 -1.57815 0
M  V30 6478 C 628.33 1.66747 -1.13127 0
M  V30 6479 O 627.386 2.38867 -0.818462 0
M  V30 6480 C 628.699 0.00508207 -3.007 0
M  V30 6481 C 630.247 0.0710139 -3.12919 0
M  V30 6482 C 630.722 -0.13422 -4.57803 0
M  V30 6483 N 632.213 -0.0801755 -4.63131 0
M  V30 6484 C 632.948 -0.213885 -5.73001 0
M  V30 6485 N 632.444 -0.403742 -6.91623 0
M  V30 6486 N 634.237 -0.15349 -5.6189 0
M  V30 6487 H 626.388 -1.05226 -1.84503 0
M  V30 6488 H 628.651 -0.414318 -0.852669 0
M  V30 6489 H 628.357 -0.983125 -3.3768 0
M  V30 6490 H 628.231 0.73714 -3.69927 0
M  V30 6491 H 630.618 1.04975 -2.75798 0
M  V30 6492 H 630.699 -0.692918 -2.46236 0
M  V30 6493 H 630.343 -1.10992 -4.95624 0
M  V30 6494 H 630.273 0.649692 -5.22577 0
M  V30 6495 H 632.764 0.0630689 -3.77847 0
M  V30 6496 H 633.077 -0.496645 -7.71202 0
M  V30 6497 H 631.422 -0.43971 -6.93608 0
M  V30 6498 H 634.613 -0.00613174 -4.681 0
M  V30 6499 H 634.786 -0.261138 -6.47474 0
M  V30 6500 N 628.193 1.56834 0.155195 0
M  V30 6501 C 629.439 1.83169 0.870467 0
M  V30 6502 C 629.772 0.698929 1.81187 0
M  V30 6503 O 629.047 -0.298035 1.92203 0
M  V30 6504 C 629.33 3.19965 1.65211 0
M  V30 6505 C 629.183 4.43792 0.732744 0
M  V30 6506 C 630.502 3.53885 2.61636 0
M  V30 6507 H 627.621 0.666288 0.315006 0
M  V30 6508 H 630.263 1.89513 0.135988 0
M  V30 6509 H 628.413 3.14687 2.27825 0
M  V30 6510 H 630.085 4.61148 0.118236 0
M  V30 6511 H 628.328 4.3378 0.0417906 0
M  V30 6512 H 628.999 5.36095 1.31552 0
M  V30 6513 H 631.475 3.5972 2.09143 0
M  V30 6514 H 630.351 4.50648 3.13381 0
M  V30 6515 H 630.612 2.79418 3.42605 0
M  V30 6516 N 629.671 -0.424282 1.51781 0
M  V30 6517 C 630.603 -1.53457 1.70246 0
M  V30 6518 C 631.616 -1.52004 0.582967 0
M  V30 6519 O 632.805 -1.56544 0.857683 0
M  V30 6520 C 629.905 -2.92368 1.71389 0
M  V30 6521 C 629.078 -3.1818 3.00133 0
M  V30 6522 C 628.137 -4.36884 2.9329 0
M  V30 6523 O 627.163 -4.34901 3.67219 0
M  V30 6524 N 628.365 -5.4117 2.10036 0
M  V30 6525 H 631.13 -1.38017 2.66029 0
M  V30 6526 H 628.691 -0.613394 1.4983 0
M  V30 6527 H 630.683 -3.6982 1.64362 0
M  V30 6528 H 629.253 -3.0134 0.831449 0
M  V30 6529 H 628.473 -2.28908 3.20928 0
M  V30 6530 H 629.761 -3.32261 3.85331 0
M  V30 6531 H 629.159 -5.45623 1.49373 0
M  V30 6532 H 627.716 -6.17425 2.08878 0
M  V30 6533 N 631.149 -1.42148 -0.680565 0
M  V30 6534 C 632.099 -1.41634 -1.78672 0
M  V30 6535 C 633.083 -0.288494 -1.58293 0
M  V30 6536 O 634.275 -0.530295 -1.68869 0
M  V30 6537 C 631.404 -1.31558 -3.17092 0
M  V30 6538 C 630.49 -2.49265 -3.43115 0
M  V30 6539 N 630.881 -3.74702 -3.39753 0
M  V30 6540 C 629.179 -2.43401 -3.73727 0
M  V30 6541 C 629.88 -4.52854 -3.651 0
M  V30 6542 N 628.856 -3.83181 -3.85582 0
M  V30 6543 H 632.658 -2.3652 -1.74458 0
M  V30 6544 H 630.172 -1.36415 -0.881171 0
M  V30 6545 H 632.169 -1.29272 -3.96351 0
M  V30 6546 H 630.829 -0.376696 -3.22508 0
M  V30 6547 H 631.84 -4.07378 -3.19787 0
M  V30 6548 H 628.517 -1.58062 -3.86423 0
M  V30 6549 H 629.907 -5.61827 -3.6851 0
M  V30 6550 N 632.627 0.916307 -1.28225 0
M  V30 6551 C 633.557 2.0352 -1.14464 0
M  V30 6552 C 634.538 1.70045 -0.0430844 0
M  V30 6553 O 635.723 1.92954 -0.219619 0
M  V30 6554 C 632.853 3.37889 -0.803027 0
M  V30 6555 C 631.807 3.85516 -1.85908 0
M  V30 6556 C 631.133 5.1682 -1.37116 0
M  V30 6557 C 632.433 4.07655 -3.26519 0
M  V30 6558 H 634.127 2.1529 -2.08064 0
M  V30 6559 H 631.673 1.03446 -1.00174 0
M  V30 6560 H 633.626 4.15654 -0.693537 0
M  V30 6561 H 632.35 3.26164 0.168674 0
M  V30 6562 H 631.009 3.09953 -1.95767 0
M  V30 6563 H 630.657 5.01497 -0.38859 0
M  V30 6564 H 630.357 5.49657 -2.07728 0
M  V30 6565 H 631.881 5.97143 -1.27484 0
M  V30 6566 H 633.295 4.75953 -3.19596 0
M  V30 6567 H 631.692 4.51818 -3.94943 0
M  V30 6568 H 632.762 3.12553 -3.70727 0
M  V30 6569 N 634.105 1.10431 1.1244 0
M  V30 6570 C 635.055 0.722378 2.16254 0
M  V30 6571 C 636.039 -0.268427 1.58645 0
M  V30 6572 O 637.231 -0.077169 1.76832 0
M  V30 6573 C 634.36 0.155763 3.42946 0
M  V30 6574 C 633.446 1.17361 4.07538 0
M  V30 6575 N 633.837 2.36429 4.47141 0
M  V30 6576 C 632.135 1.01412 4.34317 0
M  V30 6577 C 632.836 3.01259 4.97612 0
M  V30 6578 N 631.812 2.28777 4.93115 0
M  V30 6579 H 635.614 1.62876 2.4464 0
M  V30 6580 H 633.128 0.982031 1.29344 0
M  V30 6581 H 635.125 -0.135936 4.16678 0
M  V30 6582 H 633.785 -0.745339 3.1603 0
M  V30 6583 H 634.796 2.73954 4.39511 0
M  V30 6584 H 631.473 0.168574 4.1716 0
M  V30 6585 H 632.863 4.02541 5.37968 0
M  V30 6586 N 635.583 -1.29855 0.893053 0
M  V30 6587 C 636.83 -1.95826 0.515585 0
M  V30 6588 C 637.158 -1.70451 -0.936842 0
M  V30 6589 O 636.413 -1.00657 -1.67829 0
M  V30 6590 C 636.712 -3.49515 0.746588 0
M  V30 6591 C 636.378 -3.94955 2.17535 0
M  V30 6592 C 635.04 -4.07073 2.56603 0
M  V30 6593 C 637.392 -4.18536 3.10607 0
M  V30 6594 C 634.72 -4.40138 3.87938 0
M  V30 6595 C 637.072 -4.53073 4.41484 0
M  V30 6596 C 635.736 -4.634 4.80434 0
M  V30 6597 H 635.006 -0.71658 0.188666 0
M  V30 6598 H 637.653 -1.54574 1.13045 0
M  V30 6599 H 635.958 -3.9177 0.0487551 0
M  V30 6600 H 637.655 -3.98644 0.434009 0
M  V30 6601 H 634.245 -3.86035 1.86212 0
M  V30 6602 H 638.429 -4.08646 2.81641 0
M  V30 6603 H 633.685 -4.46335 4.17846 0
M  V30 6604 H 637.859 -4.70269 5.13634 0
M  V30 6605 H 635.486 -4.88775 5.82239 0
M  V30 6606 N 637.061 -0.65484 -1.43351 0
M  V30 6607 C 638.472 -0.248506 -1.85039 0
M  V30 6608 C 638.823 1.20526 -1.54816 0
M  V30 6609 O 637.948 1.92016 -0.99794 0
M  V30 6610 C 638.543 -0.444241 -3.35875 0
M  V30 6611 C 637.102 -0.0922108 -3.76287 0
M  V30 6612 C 636.249 -0.746327 -2.67068 0
M  V30 6613 H 639.2 -0.8584 -1.33481 0
M  V30 6614 H 639.221 0.309762 -3.79237 0
M  V30 6615 H 638.733 -1.50239 -3.5784 0
M  V30 6616 H 636.834 0.96328 -3.59933 0
M  V30 6617 H 636.947 -0.518807 -4.76283 0
M  V30 6618 H 635.311 -0.179416 -2.54067 0
M  V30 6619 H 636.094 -1.80754 -2.91861 0
M  V30 6620 N 638.539 1.52521 -0.396863 0
M  V30 6621 C 639.764 2.06571 0.185258 0
M  V30 6622 C 640.189 1.26605 1.39115 0
M  V30 6623 O 639.547 0.293055 1.78916 0
M  V30 6624 C 639.595 3.5674 0.526189 0
M  V30 6625 O 638.699 3.7929 1.61903 0
M  V30 6626 H 638.04 0.663712 0.0195474 0
M  V30 6627 H 640.57 1.966 -0.566519 0
M  V30 6628 H 640.58 4.00311 0.788338 0
M  V30 6629 H 639.255 4.14379 -0.355397 0
M  V30 6630 H 637.832 3.47605 1.35 0
M  V30 6631 N 640.017 0.126909 1.57088 0
M  V30 6632 C 641.263 -0.529952 1.95753 0
M  V30 6633 C 641.596 -1.65823 1.01077 0
M  V30 6634 O 640.871 -1.94437 0.0494162 0
M  V30 6635 C 641.154 -1.05517 3.44294 0
M  V30 6636 C 641.007 0.0702253 4.49745 0
M  V30 6637 C 642.326 -1.9435 3.94862 0
M  V30 6638 H 639.445 -0.191168 0.711775 0
M  V30 6639 H 642.087 0.204071 1.88901 0
M  V30 6640 H 640.237 -1.68069 3.50264 0
M  V30 6641 H 641.909 0.705834 4.55868 0
M  V30 6642 H 640.152 0.732259 4.27575 0
M  V30 6643 H 640.823 -0.338642 5.5096 0
M  V30 6644 H 643.299 -1.41658 3.91244 0
M  V30 6645 H 642.175 -2.28015 4.993 0
M  V30 6646 H 642.436 -2.87299 3.36024 0
M  V30 6647 N 641.495 -1.56914 -0.146875 0
M  V30 6648 C 642.741 -1.83628 -0.860741 0
M  V30 6649 C 643.074 -0.708528 -1.80813 0
M  V30 6650 O 642.349 0.287838 -1.92358 0
M  V30 6651 C 642.632 -3.20836 -1.63511 0
M  V30 6652 C 642.485 -4.44174 -0.709199 0
M  V30 6653 C 643.804 -3.55268 -2.59756 0
M  V30 6654 H 640.923 -0.667949 -0.311468 0
M  V30 6655 H 643.565 -1.89582 -0.125936 0
M  V30 6656 H 641.715 -3.15891 -2.26153 0
M  V30 6657 H 643.387 -4.61205 -0.0937781 0
M  V30 6658 H 641.63 -4.33796 -0.0187856 0
M  V30 6659 H 642.301 -5.36785 -1.28707 0
M  V30 6660 H 644.777 -3.60824 -2.07232 0
M  V30 6661 H 643.653 -4.52303 -3.10987 0
M  V30 6662 H 643.914 -2.81231 -3.41118 0
M  V30 6663 N 642.974 0.416227 -1.52004 0
M  V30 6664 C 644.251 1.17637 -1.56272 0
M  V30 6665 C 644.631 2.08352 -0.339493 0
M  V30 6666 O 643.979 2.1833 0.674124 0
M  V30 6667 C 644.189 1.95986 -2.88774 0
M  V30 6668 C 645.537 2.52299 -3.41512 0
M  V30 6669 O 646.561 2.06174 -2.90467 0
M  V30 6670 O 645.42 3.3648 -4.30631 0
M  V30 6671 H 642.514 0.536726 -0.629169 0
M  V30 6672 H 645.06 0.423583 -1.64329 0
M  V30 6673 H 643.832 1.29487 -3.69254 0
M  V30 6674 H 643.455 2.78285 -2.83978 0
M  V30 6675 N 644.452 1.42507 0.673017 0
M  V30 6676 C 645.385 1.40557 1.79774 0
M  V30 6677 C 646.363 0.269606 1.60349 0
M  V30 6678 O 647.547 0.460105 1.82798 0
M  V30 6679 C 644.674 1.19815 3.168 0
M  V30 6680 C 643.72 2.36429 3.5497 0
M  V30 6681 S 644.553 3.98963 3.57196 0
M  V30 6682 C 645.709 3.80567 4.9691 0
M  V30 6683 H 645.942 2.35734 1.81154 0
M  V30 6684 H 643.475 1.293 0.843846 0
M  V30 6685 H 645.433 1.08535 3.95892 0
M  V30 6686 H 644.094 0.262215 3.13004 0
M  V30 6687 H 643.287 2.17669 4.54573 0
M  V30 6688 H 642.889 2.44233 2.83242 0
M  V30 6689 H 645.181 3.41668 5.85038 0
M  V30 6690 H 646.124 4.79852 5.20718 0
M  V30 6691 H 646.532 3.13399 4.69512 0
M  V30 6692 N 645.93 -0.909495 1.28709 0
M  V30 6693 C 646.86 -2.0291 1.15542 0
M  V30 6694 C 647.841 -1.7002 0.0521017 0
M  V30 6695 O 649.026 -1.92835 0.229849 0
M  V30 6696 C 646.156 -3.37458 0.820935 0
M  V30 6697 C 645.11 -3.84524 1.87949 0
M  V30 6698 C 644.436 -5.16086 1.39854 0
M  V30 6699 C 645.736 -4.05918 3.28676 0
M  V30 6700 H 647.43 -2.14183 2.09203 0
M  V30 6701 H 644.976 -1.02913 1.00722 0
M  V30 6702 H 646.929 -4.1528 0.715571 0
M  V30 6703 H 645.653 -3.26249 -0.151374 0
M  V30 6704 H 644.312 -3.08911 1.97408 0
M  V30 6705 H 643.96 -5.01284 0.41518 0
M  V30 6706 H 643.66 -5.48547 2.1064 0
M  V30 6707 H 645.184 -5.96459 1.30649 0
M  V30 6708 H 646.598 -4.74252 3.22115 0
M  V30 6709 H 644.995 -4.49717 3.97334 0
M  V30 6710 H 646.065 -3.10583 3.72379 0
M  V30 6711 N 647.408 -1.11026 -1.11852 0
M  V30 6712 C 648.358 -0.733836 -2.15868 0
M  V30 6713 C 649.342 0.26001 -1.58785 0
M  V30 6714 O 650.534 0.0677901 -1.7687 0
M  V30 6715 C 647.663 -0.173948 -3.42859 0
M  V30 6716 C 646.749 -1.1952 -4.0691 0
M  V30 6717 N 647.14 -2.38797 -4.45881 0
M  V30 6718 C 645.438 -1.03714 -4.33773 0
M  V30 6719 C 646.139 -3.03894 -4.96007 0
M  V30 6720 N 645.115 -2.31389 -4.91894 0
M  V30 6721 H 648.917 -1.64171 -2.43773 0
M  V30 6722 H 646.431 -0.988877 -1.28822 0
M  V30 6723 H 648.428 0.113836 -4.16745 0
M  V30 6724 H 647.088 0.728568 -3.16421 0
M  V30 6725 H 648.099 -2.76281 -4.38051 0
M  V30 6726 H 644.776 -0.190694 -4.17064 0
M  V30 6727 H 646.166 -4.05389 -5.35826 0
M  V30 6728 N 648.886 1.2938 -0.899927 0
M  V30 6729 C 649.836 2.25311 -0.349165 0
M  V30 6730 C 650.82 1.51889 0.530892 0
M  V30 6731 O 652.012 1.73028 0.372872 0
M  V30 6732 C 649.141 3.40696 0.422055 0
M  V30 6733 C 648.227 4.21455 -0.472935 0
M  V30 6734 N 648.618 4.8048 -1.58026 0
M  V30 6735 C 646.916 4.45177 -0.270767 0
M  V30 6736 C 647.617 5.41117 -2.13465 0
M  V30 6737 N 646.593 5.24518 -1.42766 0
M  V30 6738 H 650.395 2.68507 -1.19505 0
M  V30 6739 H 647.909 1.43992 -0.751006 0
M  V30 6740 H 649.906 4.08486 0.833369 0
M  V30 6741 H 648.566 2.99037 1.2652 0
M  V30 6742 H 649.577 4.79257 -1.96299 0
M  V30 6743 H 646.254 4.14071 0.533988 0
M  V30 6744 H 647.644 5.979 -3.06537 0
M  V30 6745 N 650.364 0.662433 1.43002 0
M  V30 6746 C 651.611 0.179591 2.01702 0
M  V30 6747 C 651.939 -1.20964 1.52309 0
M  V30 6748 O 651.194 -1.82343 0.7106 0
M  V30 6749 C 651.493 0.149363 3.57088 0
M  V30 6750 C 651.159 1.48158 4.25864 0
M  V30 6751 C 649.821 1.84638 4.44367 0
M  V30 6752 C 652.173 2.35953 4.64732 0
M  V30 6753 C 649.501 3.08561 4.99006 0
M  V30 6754 C 651.853 3.59176 5.20745 0
M  V30 6755 C 650.517 3.95841 5.37463 0
M  V30 6756 H 649.787 0.0657172 0.73808 0
M  V30 6757 H 652.434 0.854968 1.71355 0
M  V30 6758 H 650.739 -0.609491 3.8703 0
M  V30 6759 H 652.436 -0.241241 4.00274 0
M  V30 6760 H 649.026 1.18777 4.11813 0
M  V30 6761 H 653.21 2.09058 4.50121 0
M  V30 6762 H 648.466 3.37005 5.10135 0
M  V30 6763 H 652.64 4.27417 5.49807 0
M  V30 6764 H 650.267 4.91942 5.79566 0
M  V30 6765 N 651.842 -1.52309 0.404946 0
M  V30 6766 C 652.774 -2.24579 -0.45791 0
M  V30 6767 C 653.787 -1.2739 -1.01369 0
M  V30 6768 O 654.976 -1.53363 -0.91335 0
M  V30 6769 C 652.076 -2.9608 -1.64893 0
M  V30 6770 C 651.249 -4.20106 -1.21777 0
M  V30 6771 C 650.308 -4.74468 -2.27523 0
M  V30 6772 O 649.334 -5.37157 -1.88285 0
M  V30 6773 N 650.536 -4.55678 -3.59635 0
M  V30 6774 H 653.301 -2.99265 0.161341 0
M  V30 6775 H 650.862 -1.60228 0.232107 0
M  V30 6776 H 652.854 -3.29344 -2.35191 0
M  V30 6777 H 651.424 -2.24606 -2.17419 0
M  V30 6778 H 650.644 -3.92704 -0.343071 0
M  V30 6779 H 651.932 -5.00658 -0.906596 0
M  V30 6780 H 651.33 -4.05673 -3.94266 0
M  V30 6781 H 649.887 -4.9339 -4.25922 0
M  V30 6782 N 653.32 -0.135238 -1.57019 0
M  V30 6783 C 654.736 0.221262 -1.58059 0
M  V30 6784 C 654.936 1.65538 -1.14889 0
M  V30 6785 O 653.992 2.37985 -0.843751 0
M  V30 6786 C 655.305 -0.0268114 -3.00688 0
M  V30 6787 C 656.853 0.0378206 -3.12977 0
M  V30 6788 C 657.328 -0.182769 -4.57635 0
M  V30 6789 N 658.819 -0.129292 -4.6302 0
M  V30 6790 C 659.554 -0.274648 -5.72742 0
M  V30 6791 N 659.05 -0.477075 -6.91155 0
M  V30 6792 N 660.843 -0.213077 -5.61696 0
M  V30 6793 H 652.994 -1.07177 -1.83376 0
M  V30 6794 H 655.257 -0.423338 -0.848227 0
M  V30 6795 H 654.963 -1.01889 -3.36618 0
M  V30 6796 H 654.837 0.697863 -3.70688 0
M  V30 6797 H 657.224 1.02043 -2.76896 0
M  V30 6798 H 657.305 -0.718996 -2.45487 0
M  V30 6799 H 656.949 -1.16243 -4.94419 0
M  V30 6800 H 656.879 0.59423 -5.23237 0
M  V30 6801 H 659.37 0.0229896 -3.77893 0
M  V30 6802 H 659.683 -0.578413 -7.70632 0
M  V30 6803 H 658.028 -0.513252 -6.93102 0
M  V30 6804 H 661.219 -0.0557796 -4.68067 0
M  V30 6805 H 661.392 -0.329796 -6.4716 0
M  V30 6806 N 654.798 1.5699 0.138552 0
M  V30 6807 C 656.023 1.88344 0.86841 0
M  V30 6808 C 656.448 0.725159 1.7356 0
M  V30 6809 O 655.806 -0.324992 1.78363 0
M  V30 6810 C 655.854 3.18334 1.69398 0
M  V30 6811 O 654.958 3.02863 2.79907 0
M  V30 6812 H 654.299 0.618577 0.241367 0
M  V30 6813 H 656.829 2.04207 0.126826 0
M  V30 6814 H 656.839 3.50567 2.08726 0
M  V30 6815 H 655.514 4.02238 1.05725 0
M  V30 6816 H 654.091 2.82056 2.43924 0
M  V30 6817 N 656.276 -0.40816 1.52223 0
M  V30 6818 C 657.687 -0.986929 1.58482 0
M  V30 6819 C 658.038 -1.91521 0.425917 0
M  V30 6820 O 657.163 -2.11593 -0.453593 0
M  V30 6821 C 657.758 -1.7967 2.87235 0
M  V30 6822 C 656.317 -2.32549 2.9597 0
M  V30 6823 C 655.464 -1.12558 2.53428 0
M  V30 6824 H 658.415 -0.188362 1.57578 0
M  V30 6825 H 658.436 -2.65417 2.72642 0
M  V30 6826 H 657.948 -1.12082 3.71563 0
M  V30 6827 H 656.049 -3.03505 2.16137 0
M  V30 6828 H 656.162 -2.63348 4.00231 0
M  V30 6829 H 654.526 -1.47984 2.07299 0
M  V30 6830 H 655.309 -0.465351 3.40131 0
M  V30 6831 N 657.755 -1.42862 -0.66545 0
M  V30 6832 C 659.004 -1.43119 -1.42126 0
M  V30 6833 C 659.317 -0.0545297 -1.95524 0
M  V30 6834 O 660.523 0.0654747 -2.71421 0
M  V30 6835 C 658.979 -2.51797 -2.5715 0
M  V30 6836 C 658.587 -3.95514 -2.10411 0
M  V30 6837 C 660.331 -2.61233 -3.346 0
M  V30 6838 C 658.238 -4.95682 -3.22573 0
M  V30 6839 H 657.168 -0.532349 -0.533966 0
M  V30 6840 H 659.819 -1.68806 -0.719506 0
M  V30 6841 H 658.201 -2.19292 -3.29738 0
M  V30 6842 H 659.375 -4.3742 -1.44915 0
M  V30 6843 H 657.69 -3.90012 -1.45874 0
M  V30 6844 H 660.287 -3.33248 -4.18151 0
M  V30 6845 H 660.63 -1.65896 -3.81817 0
M  V30 6846 H 661.163 -2.9298 -2.69087 0
M  V30 6847 H 657.902 -5.92529 -2.80338 0
M  V30 6848 H 657.422 -4.58399 -3.86821 0
M  V30 6849 H 659.101 -5.17828 -3.87896 0
M  V30 6850 N 659.233 0.902656 -1.29189 0
M  V30 6851 C 660.644 1.46809 -1.15343 0
M  V30 6852 C 660.995 1.94568 0.252517 0
M  V30 6853 O 660.12 1.83454 1.14777 0
M  V30 6854 C 660.715 2.66829 -2.08776 0
M  V30 6855 C 659.274 3.19518 -1.98961 0
M  V30 6856 C 658.421 1.92212 -1.99874 0
M  V30 6857 H 661.372 0.714282 -1.41717 0
M  V30 6858 H 661.393 3.42465 -1.65826 0
M  V30 6859 H 660.905 2.32039 -3.11094 0
M  V30 6860 H 659.006 3.59008 -0.99721 0
M  V30 6861 H 659.119 3.84016 -2.86477 0
M  V30 6862 H 657.483 2.0979 -1.44431 0
M  V30 6863 H 658.266 1.59702 -3.03891 0
M  V30 6864 N 660.711 1.11618 1.11262 0
M  V30 6865 C 661.641 0.79846 2.19424 0
M  V30 6866 C 662.622 -0.234003 1.68483 0
M  V30 6867 O 663.807 -0.0970704 1.93957 0
M  V30 6868 C 660.937 0.242892 3.4645 0
M  V30 6869 C 659.891 1.20744 4.10615 0
M  V30 6870 C 659.217 0.512494 5.32238 0
M  V30 6871 C 660.517 2.55884 4.55325 0
M  V30 6872 H 662.211 1.70286 2.46258 0
M  V30 6873 H 659.757 0.820195 1.18359 0
M  V30 6874 H 661.71 0.00840447 4.21399 0
M  V30 6875 H 660.434 -0.696811 3.1908 0
M  V30 6876 H 659.093 1.42759 3.37662 0
M  V30 6877 H 658.741 -0.432075 5.01141 0
M  V30 6878 H 658.441 1.15583 5.7612 0
M  V30 6879 H 659.965 0.286842 6.09926 0
M  V30 6880 H 661.379 2.37946 5.21588 0
M  V30 6881 H 659.776 3.16216 5.10027 0
M  V30 6882 H 660.846 3.14968 3.68678 0
M  V30 6883 N 662.189 -1.289 0.906776 0
M  V30 6884 C 663.099 -2.31256 0.394707 0
M  V30 6885 C 664.115 -1.66231 -0.514121 0
M  V30 6886 O 665.291 -1.97347 -0.401994 0
M  V30 6887 C 662.356 -3.44792 -0.363191 0
M  V30 6888 C 661.417 -4.25391 0.578012 0
M  V30 6889 C 660.65 -5.33506 -0.143811 0
M  V30 6890 O 660.873 -5.53786 -1.36665 0
M  V30 6891 O 659.807 -5.99673 0.5173 0
M  V30 6892 H 663.633 -2.77051 1.24405 0
M  V30 6893 H 661.218 -1.33466 0.671346 0
M  V30 6894 H 663.1 -4.139 -0.791503 0
M  V30 6895 H 661.775 -3.01093 -1.18848 0
M  V30 6896 H 660.682 -3.58899 1.05558 0
M  V30 6897 H 662.015 -4.72752 1.36992 0
M  V30 6898 N 663.667 -0.670007 -1.42649 0
M  V30 6899 C 664.907 -0.194106 -2.03476 0
M  V30 6900 C 665.271 1.1755 -1.51809 0
M  V30 6901 O 666.472 1.74579 -2.04391 0
M  V30 6902 C 664.743 -0.221828 -3.56711 0
M  V30 6903 S 666.302 0.183772 -4.38415 0
M  V30 6904 H 663.12 -0.0802478 -0.706457 0
M  V30 6905 H 665.722 -0.882092 -1.74469 0
M  V30 6906 H 664.426 -1.22107 -3.91814 0
M  V30 6907 H 663.957 0.486149 -3.90385 0
M  V30 6908 H 665.972 1.41839 -4.75496 0
M  V30 6909 N 665.145 1.52092 -0.413018 0
M  V30 6910 C 666.393 2.01456 0.161178 0
M  V30 6911 C 666.714 1.30034 1.45314 0
M  V30 6912 O 665.984 0.427435 1.9118 0
M  V30 6913 H 664.564 0.744376 0.0625526 0
M  V30 6914 H 667.226 1.86974 -0.550151 0
M  V30 6915 H 666.322 3.1008 0.354517 0
M  V30 6916 N 666.623 0.143563 1.56945 0
M  V30 6917 C 667.586 -0.783295 2.154 0
M  V30 6918 C 668.586 -1.17763 1.09492 0
M  V30 6919 O 669.776 -1.09912 1.35148 0
M  V30 6920 C 666.908 -2.06248 2.7143 0
M  V30 6921 H 668.101 -0.274863 2.98638 0
M  V30 6922 H 665.654 -0.105859 1.55941 0
M  V30 6923 H 666.389 -2.61466 1.91849 0
M  V30 6924 H 666.174 -1.78897 3.4891 0
M  V30 6925 H 667.664 -2.72453 3.16479 0
M  V30 6926 N 668.101 -1.57061 -0.130224 0
M  V30 6927 C 669.064 -1.98593 -1.14426 0
M  V30 6928 C 670.064 -0.874584 -1.34936 0
M  V30 6929 O 671.254 -1.14086 -1.31643 0
M  V30 6930 C 668.386 -2.31639 -2.50112 0
M  V30 6931 H 669.579 -2.89374 -0.787561 0
M  V30 6932 H 667.132 -1.51756 -0.374146 0
M  V30 6933 H 667.867 -1.43703 -2.90723 0
M  V30 6934 H 667.652 -3.12684 -2.36583 0
M  V30 6935 H 669.142 -2.64551 -3.23114 0
M  V30 6936 N 669.579 0.400081 -1.52437 0
M  V30 6937 C 670.819 1.15526 -1.68622 0
M  V30 6938 C 671.183 1.87533 -0.411744 0
M  V30 6939 O 672.384 2.6501 -0.449804 0
M  V30 6940 C 670.655 2.11618 -2.88015 0
M  V30 6941 S 672.214 2.95121 -3.24729 0
M  V30 6942 H 669.032 0.39123 -0.593683 0
M  V30 6943 H 671.634 0.441255 -1.90455 0
M  V30 6944 H 670.338 1.5742 -3.79008 0
M  V30 6945 H 669.869 2.87544 -2.68481 0
M  V30 6946 H 671.884 4.13653 -2.74055 0
M  V30 6947 N 671.057 1.43213 0.657864 0
M  V30 6948 C 672.334 1.35063 1.41483 0
M  V30 6949 C 672.714 -0.0038314 2.111 0
M  V30 6950 O 672.062 -1.02018 2.04462 0
M  V30 6951 C 672.272 2.53061 2.40335 0
M  V30 6952 C 673.62 2.9594 3.04474 0
M  V30 6953 O 674.644 2.53074 2.50663 0
M  V30 6954 O 673.503 3.70184 4.02027 0
M  V30 6955 H 670.597 0.533517 0.631893 0
M  V30 6956 H 673.143 1.55253 0.685162 0
M  V30 6957 H 671.915 3.43283 1.87809 0
M  V30 6958 H 671.538 2.34945 3.20759 0
M  V30 6959 N 672.536 -0.895792 1.29666 0
M  V30 6960 C 673.782 -1.64908 1.18039 0
M  V30 6961 C 674.115 -1.9236 -0.266682 0
M  V30 6962 O 673.39 -1.53682 -1.19214 0
M  V30 6963 C 673.673 -2.99574 1.99819 0
M  V30 6964 C 673.526 -2.79163 3.52687 0
M  V30 6965 C 674.845 -4.00358 1.82761 0
M  V30 6966 H 671.964 -0.598437 0.430165 0
M  V30 6967 H 674.606 -1.03736 1.59182 0
M  V30 6968 H 672.756 -3.51786 1.64859 0
M  V30 6969 H 674.428 -2.33821 3.9765 0
M  V30 6970 H 672.671 -2.13871 3.77414 0
M  V30 6971 H 673.342 -3.74871 4.05186 0
M  V30 6972 H 675.818 -3.57268 2.13304 0
M  V30 6973 H 674.694 -4.92514 2.42325 0
M  V30 6974 H 674.955 -4.35096 0.783839 0
M  V30 6975 N 674.014 -1.12206 -1.10668 0
M  V30 6976 C 675.43 -0.857619 -1.346 0
M  V30 6977 C 675.63 0.513542 -1.94846 0
M  V30 6978 O 674.686 1.26273 -2.18658 0
M  V30 6979 C 675.999 -1.97212 -2.26998 0
M  V30 6980 C 677.547 -2.00272 -2.40542 0
M  V30 6981 C 678.022 -3.10948 -3.36267 0
M  V30 6982 N 679.513 -3.10375 -3.43834 0
M  V30 6983 C 680.248 -3.92651 -4.17867 0
M  V30 6984 N 679.744 -4.84911 -4.94807 0
M  V30 6985 N 681.537 -3.80798 -4.1346 0
M  V30 6986 H 673.688 -2.00558 -0.699306 0
M  V30 6987 H 675.951 -0.872612 -0.370477 0
M  V30 6988 H 675.657 -2.96002 -1.89936 0
M  V30 6989 H 675.531 -1.87521 -3.27286 0
M  V30 6990 H 677.918 -1.02103 -2.76874 0
M  V30 6991 H 677.999 -2.14037 -1.40077 0
M  V30 6992 H 677.643 -4.09348 -3.00661 0
M  V30 6993 H 677.573 -2.94421 -4.36605 0
M  V30 6994 H 680.064 -2.43536 -2.88961 0
M  V30 6995 H 680.377 -5.44207 -5.48688 0
M  V30 6996 H 678.722 -4.88926 -4.93939 0
M  V30 6997 H 681.913 -3.08058 -3.52445 0
M  V30 6998 H 682.086 -4.4515 -4.70898 0
M  V30 6999 N 675.492 1.28418 -0.913599 0
M  V30 7000 C 676.422 2.29713 -0.418847 0
M  V30 7001 C 677.403 1.62165 0.513469 0
M  V30 7002 O 678.588 1.89576 0.421235 0
M  V30 7003 C 675.718 3.45612 0.342042 0
M  V30 7004 C 674.672 4.25056 -0.501123 0
M  V30 7005 C 673.998 5.3329 0.388097 0
M  V30 7006 C 675.298 4.91814 -1.75831 0
M  V30 7007 H 676.992 2.71346 -1.26538 0
M  V30 7008 H 674.538 1.30446 -0.609903 0
M  V30 7009 H 676.491 4.15562 0.699 0
M  V30 7010 H 675.215 3.02858 1.22248 0
M  V30 7011 H 673.874 3.56833 -0.840598 0
M  V30 7012 H 673.522 4.8678 1.26707 0
M  V30 7013 H 673.222 5.87347 -0.172459 0
M  V30 7014 H 674.746 6.06088 0.74094 0
M  V30 7015 H 676.16 5.54126 -1.47026 0
M  V30 7016 H 674.557 5.55866 -2.26126 0
M  V30 7017 H 675.627 4.16313 -2.4862 0
M  V30 7018 N 676.97 0.677563 1.42291 0
M  V30 7019 C 678.195 0.207901 2.06355 0
M  V30 7020 C 678.62 -1.12723 1.50583 0
M  V30 7021 O 677.978 -1.70171 0.62543 0
M  V30 7022 C 678.026 0.156489 3.6026 0
M  V30 7023 O 677.13 -0.874162 4.03029 0
M  V30 7024 H 676.471 0.106056 0.655475 0
M  V30 7025 H 679.001 0.927354 1.82377 0
M  V30 7026 H 679.011 -0.0187258 4.07996 0
M  V30 7027 H 677.686 1.13101 4.00226 0
M  V30 7028 H 676.263 -0.669764 3.66836 0
M  V30 7029 N 678.448 -1.51871 0.421078 0
M  V30 7030 C 679.673 -2.0684 -0.152371 0
M  V30 7031 C 680.098 -1.28802 -1.37083 0
M  V30 7032 O 679.456 -0.321482 -1.78427 0
M  V30 7033 C 679.504 -3.57532 -0.469368 0
M  V30 7034 O 678.608 -3.81818 -1.55848 0
M  V30 7035 H 677.949 -0.663939 -0.00898586 0
M  V30 7036 H 680.479 -1.95674 0.597724 0
M  V30 7037 H 680.489 -4.01515 -0.724553 0
M  V30 7038 H 679.164 -4.13761 0.421276 0
M  V30 7039 H 677.741 -3.49709 -1.29453 0
M  V30 7040 N 679.926 -0.151884 -1.56866 0
M  V30 7041 C 681.156 0.504081 -2.00356 0
M  V30 7042 C 681.564 1.58639 -1.03103 0
M  V30 7043 O 680.907 1.83688 -0.0207931 0
M  V30 7044 C 680.969 1.15975 -3.40279 0
M  V30 7045 C 680.633 0.221453 -4.56463 0
M  V30 7046 C 681.63 -0.552766 -5.16953 0
M  V30 7047 C 679.315 0.122936 -5.0215 0
M  V30 7048 C 681.309 -1.4129 -6.21543 0
M  V30 7049 C 678.996 -0.740801 -6.06593 0
M  V30 7050 C 679.994 -1.50732 -6.6616 0
M  V30 7051 O 679.682 -2.35666 -7.68581 0
M  V30 7052 H 679.414 0.135279 -0.662326 0
M  V30 7053 H 681.968 -0.244916 -2.03935 0
M  V30 7054 H 680.198 1.95649 -3.33554 0
M  V30 7055 H 681.887 1.71594 -3.67846 0
M  V30 7056 H 682.653 -0.486716 -4.82552 0
M  V30 7057 H 678.532 0.70931 -4.5551 0
M  V30 7058 H 682.076 -2.01166 -6.67966 0
M  V30 7059 H 677.973 -0.808125 -6.40421 0
M  V30 7060 H 678.741 -2.28967 -7.85822 0
M  V30 7061 N 681.404 1.57128 0.121893 0
M  V30 7062 C 682.65 1.84974 0.831418 0
M  V30 7063 C 682.983 0.737204 1.79663 0
M  V30 7064 O 682.258 -0.257199 1.92792 0
M  V30 7065 C 682.541 3.23397 1.58386 0
M  V30 7066 C 682.394 4.45246 0.638445 0
M  V30 7067 C 683.713 3.59355 2.54071 0
M  V30 7068 H 680.832 0.67282 0.300803 0
M  V30 7069 H 683.474 1.89759 0.0957587 0
M  V30 7070 H 681.624 3.19449 2.21098 0
M  V30 7071 H 683.296 4.61295 0.0203925 0
M  V30 7072 H 681.539 4.33771 -0.05023 0
M  V30 7073 H 682.21 5.38765 1.20151 0
M  V30 7074 H 684.686 3.64075 2.01465 0
M  V30 7075 H 683.562 4.57193 3.03752 0
M  V30 7076 H 683.823 2.86622 3.36601 0
M  V30 7077 N 682.882 -0.391992 1.52647 0
M  V30 7078 C 684.128 -1.139 1.67793 0
M  V30 7079 C 684.461 -1.89711 0.41514 0
M  V30 7080 O 683.736 -1.85431 -0.586979 0
M  V30 7081 C 684.019 -2.11966 2.91105 0
M  V30 7082 C 683.872 -1.39939 4.27478 0
M  V30 7083 C 685.191 -3.1243 3.09961 0
M  V30 7084 H 682.31 -0.412707 0.610608 0
M  V30 7085 H 684.952 -0.422725 1.85238 0
M  V30 7086 H 683.102 -2.73048 2.76364 0
M  V30 7087 H 684.774 -0.818439 4.53982 0
M  V30 7088 H 683.017 -0.701246 4.28095 0
M  V30 7089 H 683.688 -2.1158 5.09841 0
M  V30 7090 H 686.164 -2.61435 3.23714 0
M  V30 7091 H 685.04 -3.78294 3.97725 0
M  V30 7092 H 685.301 -3.81127 2.24042 0
M  V30 7093 N 684.36 -1.4356 -0.65026 0
M  V30 7094 C 685.606 -1.45549 -1.41221 0
M  V30 7095 C 685.939 -0.0805472 -1.94033 0
M  V30 7096 O 685.214 0.899043 -1.72475 0
M  V30 7097 C 685.497 -2.50028 -2.59148 0
M  V30 7098 C 685.35 -3.96808 -2.1181 0
M  V30 7099 C 686.669 -2.51212 -3.61359 0
M  V30 7100 H 683.788 -0.529967 -0.512156 0
M  V30 7101 H 686.43 -1.75127 -0.736933 0
M  V30 7102 H 684.58 -2.24937 -3.16758 0
M  V30 7103 H 686.252 -4.32966 -1.59178 0
M  V30 7104 H 684.495 -4.09498 -1.43156 0
M  V30 7105 H 685.166 -4.6553 -2.96625 0
M  V30 7106 H 687.642 -2.73583 -3.13515 0
M  V30 7107 H 686.518 -3.26252 -4.41419 0
M  V30 7108 H 686.779 -1.54701 -4.1415 0
M  V30 7109 N 685.838 0.888903 -1.30139 0
M  V30 7110 C 687.084 1.6428 -1.18912 0
M  V30 7111 C 687.417 1.92499 0.256477 0
M  V30 7112 O 686.692 1.54312 1.18397 0
M  V30 7113 C 686.975 2.9851 -2.01405 0
M  V30 7114 C 686.828 2.77288 -3.54163 0
M  V30 7115 C 688.147 3.99383 -1.84882 0
M  V30 7116 H 685.266 0.596148 -0.433333 0
M  V30 7117 H 687.908 1.0289 -1.5973 0
M  V30 7118 H 686.058 3.50907 -1.66722 0
M  V30 7119 H 687.73 2.31709 -3.98884 0
M  V30 7120 H 685.973 2.11867 -3.78543 0
M  V30 7121 H 686.644 3.72717 -4.07168 0
M  V30 7122 H 689.12 3.56132 -2.15196 0
M  V30 7123 H 687.996 4.91222 -2.44934 0
M  V30 7124 H 688.257 4.34674 -0.806902 0
M  V30 7125 N 687.317 1.12792 1.10072 0
M  V30 7126 C 688.542 0.908838 1.86427 0
M  V30 7127 C 688.967 -0.536793 1.80278 0
M  V30 7128 O 688.325 -1.38033 1.17543 0
M  V30 7129 C 688.373 1.39295 3.3261 0
M  V30 7130 O 687.477 0.573846 4.08388 0
M  V30 7131 H 686.818 0.326234 0.578331 0
M  V30 7132 H 689.348 1.50094 1.39043 0
M  V30 7133 H 689.358 1.39366 3.83459 0
M  V30 7134 H 688.033 2.44555 3.36401 0
M  V30 7135 H 686.61 0.640438 3.67359 0
M  V30 7136 N 688.795 -1.27931 0.920396 0
M  V30 7137 C 689.727 -2.26175 0.371169 0
M  V30 7138 C 690.74 -1.55122 -0.494065 0
M  V30 7139 O 691.929 -1.75825 -0.30787 0
M  V30 7140 C 689.029 -3.35376 -0.487481 0
M  V30 7141 C 688.202 -4.35943 0.356772 0
M  V30 7142 C 687.261 -5.24374 -0.438042 0
M  V30 7143 O 686.287 -5.68998 0.151715 0
M  V30 7144 N 687.489 -5.53823 -1.73956 0
M  V30 7145 H 690.254 -2.73938 1.21564 0
M  V30 7146 H 687.815 -1.41482 0.787047 0
M  V30 7147 H 689.807 -3.91476 -1.02609 0
M  V30 7148 H 688.377 -2.87269 -1.23269 0
M  V30 7149 H 687.597 -3.7921 1.07672 0
M  V30 7150 H 688.885 -5.0015 0.934206 0
M  V30 7151 H 688.283 -5.19413 -2.24114 0
M  V30 7152 H 686.84 -6.12653 -2.22486 0
M  V30 7153 N 690.273 -0.685099 -1.4193 0
M  V30 7154 C 691.684 -0.287699 -1.8447 0
M  V30 7155 C 692.035 1.17215 -1.57338 0
M  V30 7156 O 691.16 1.89856 -1.03845 0
M  V30 7157 C 691.755 -0.515385 -3.34857 0
M  V30 7158 C 690.314 -0.172006 -3.76007 0
M  V30 7159 C 689.461 -0.802808 -2.65425 0
M  V30 7160 H 692.412 -0.88652 -1.3163 0
M  V30 7161 H 692.433 0.229251 -3.79809 0
M  V30 7162 H 691.945 -1.57796 -3.54573 0
M  V30 7163 H 690.046 0.886716 -3.61895 0
M  V30 7164 H 690.159 -0.619717 -4.75075 0
M  V30 7165 H 688.523 -0.233267 -2.5363 0
M  V30 7166 H 689.306 -1.86904 -2.87961 0
M  V30 7167 N 691.751 1.51645 -0.429126 0
M  V30 7168 C 693.162 1.86665 0.0359003 0
M  V30 7169 C 693.513 1.34677 1.42676 0
M  V30 7170 O 692.638 0.694195 2.04963 0
M  V30 7171 C 693.233 3.38724 0.0719221 0
M  V30 7172 C 691.792 3.7331 0.481336 0
M  V30 7173 C 690.939 2.75313 -0.331329 0
M  V30 7174 H 693.89 1.44987 -0.645333 0
M  V30 7175 H 693.911 3.7011 0.883118 0
M  V30 7176 H 693.423 3.76532 -0.940495 0
M  V30 7177 H 691.524 3.41088 1.49966 0
M  V30 7178 H 691.637 4.78631 0.211837 0
M  V30 7179 H 690.001 2.53839 0.209204 0
M  V30 7180 H 690.784 3.15963 -1.34247 0
M  V30 7181 N 693.229 0.160201 1.56784 0
M  V30 7182 C 694.477 -0.486625 1.96154 0
M  V30 7183 C 694.798 -1.64525 1.04673 0
M  V30 7184 O 694.068 -1.95586 0.110864 0
M  V30 7185 H 692.648 -0.182764 0.724297 0
M  V30 7186 H 695.31 0.238787 1.93432 0
M  V30 7187 H 694.406 -0.854025 3.00188 0
M  V30 7188 N 694.707 -1.5719 -0.113559 0
M  V30 7189 C 695.932 -1.89702 -0.838336 0
M  V30 7190 C 696.357 -0.752679 -1.72384 0
M  V30 7191 O 695.715 0.296575 -1.78858 0
M  V30 7192 C 695.763 -3.20989 -1.64312 0
M  V30 7193 O 694.867 -3.07278 -2.75053 0
M  V30 7194 H 694.208 -0.622339 -0.231496 0
M  V30 7195 H 696.738 -2.04382 -0.0943228 0
M  V30 7196 H 696.748 -3.53843 -2.03123 0
M  V30 7197 H 695.423 -4.03869 -0.993119 0
M  V30 7198 H 694 -2.85901 -2.39406 0
M  V30 7199 N 696.185 0.383891 -1.52853 0
M  V30 7200 C 697.425 1.13731 -1.69837 0
M  V30 7201 C 697.789 1.87086 -0.431611 0
M  V30 7202 O 698.99 2.64518 -0.477886 0
M  V30 7203 C 697.261 2.08551 -2.90243 0
M  V30 7204 S 698.82 2.9166 -3.27841 0
M  V30 7205 H 695.638 0.384911 -0.5978 0
M  V30 7206 H 698.24 0.42103 -1.90913 0
M  V30 7207 H 696.944 1.53392 -3.80656 0
M  V30 7208 H 696.475 2.8468 -2.71516 0
M  V30 7209 H 698.49 4.10723 -2.78426 0
M  V30 7210 N 697.663 1.43903 0.642637 0
M  V30 7211 C 698.611 1.50164 1.77634 0
M  V30 7212 C 699.605 0.374294 1.65213 0
M  V30 7213 O 700.811 0.548748 1.71431 0
M  V30 7214 H 697.186 0.470974 0.586249 0
M  V30 7215 H 699.157 2.45603 1.69474 0
M  V30 7216 C 697.906 1.45196 3.15933 0
M  V30 7217 H 697.229 2.31253 3.26132 0
M  V30 7218 H 698.669 1.53638 3.95185 0
M  V30 7219 C 697.128 0.171043 3.36466 0
M  V30 7220 O 697.658 -0.763413 3.94379 0
M  V30 7221 N 695.864 0.077847 2.90496 0
M  V30 7222 H 695.411 0.8391 2.43551 0
M  V30 7223 H 695.369 -0.778473 3.0461 0
M  V30 7224 N 699.141 -0.881989 1.30609 0
M  V30 7225 C 700.369 -1.66711 1.22536 0
M  V30 7226 C 700.784 -1.87614 -0.2113 0
M  V30 7227 O 700.141 -1.42576 -1.13923 0
M  V30 7228 C 700.192 -3.04182 1.95335 0
M  V30 7229 O 699.913 -2.8422 3.33393 0
M  V30 7230 C 701.414 -3.98617 1.93956 0
M  V30 7231 H 698.634 -0.520124 0.423925 0
M  V30 7232 H 701.178 -1.10174 1.72285 0
M  V30 7233 H 699.333 -3.57442 1.49378 0
M  V30 7234 H 699.747 -3.71452 3.70302 0
M  V30 7235 H 701.221 -4.92433 2.49426 0
M  V30 7236 H 701.698 -4.29473 0.919198 0
M  V30 7237 H 702.304 -3.51292 2.39738 0
M  V30 7238 N 700.619 -1.13374 -1.09472 0
M  V30 7239 C 701.865 -0.896516 -1.81908 0
M  V30 7240 C 702.198 0.575933 -1.85463 0
M  V30 7241 O 701.473 1.42618 -1.32251 0
M  V30 7242 C 701.756 -1.48445 -3.28079 0
M  V30 7243 C 701.609 -3.02598 -3.32798 0
M  V30 7244 C 702.928 -1.15226 -4.24748 0
M  V30 7245 H 700.047 -0.327127 -0.660422 0
M  V30 7246 H 702.689 -1.40195 -1.2824 0
M  V30 7247 H 700.839 -1.0546 -3.73912 0
M  V30 7248 H 702.511 -3.54335 -2.95372 0
M  V30 7249 H 700.754 -3.37613 -2.72397 0
M  V30 7250 H 701.425 -3.38835 -4.3577 0
M  V30 7251 H 703.901 -1.52369 -3.87199 0
M  V30 7252 H 702.777 -1.59012 -5.25363 0
M  V30 7253 H 703.038 -0.0658891 -4.42051 0
M  V30 7254 N 702.098 1.27442 -0.927168 0
M  V30 7255 C 703.028 2.29256 -0.443188 0
M  V30 7256 C 704.009 1.62701 0.49624 0
M  V30 7257 O 705.194 1.90013 0.401105 0
M  V30 7258 C 702.324 3.45955 0.305366 0
M  V30 7259 C 701.278 4.24501 -0.546178 0
M  V30 7260 C 700.604 5.33671 0.331512 0
M  V30 7261 C 701.904 4.89921 -1.81037 0
M  V30 7262 H 703.598 2.69988 -1.29409 0
M  V30 7263 H 701.144 1.29792 -0.623705 0
M  V30 7264 H 703.097 4.1628 0.654885 0
M  V30 7265 H 701.821 3.04138 1.19029 0
M  V30 7266 H 700.48 3.55921 -0.878398 0
M  V30 7267 H 700.128 4.88096 1.21537 0
M  V30 7268 H 699.828 5.87131 -0.234746 0
M  V30 7269 H 701.352 6.0684 0.676614 0
M  V30 7270 H 702.766 5.52536 -1.52895 0
M  V30 7271 H 701.163 5.53436 -2.32009 0
M  V30 7272 H 702.233 4.13652 -2.53021 0
M  V30 7273 N 703.576 0.692616 1.41565 0
M  V30 7274 C 704.823 0.222335 2.01276 0
M  V30 7275 C 705.151 -1.17706 1.5484 0
M  V30 7276 O 704.406 -1.80795 0.749118 0
M  V30 7277 C 704.705 0.225073 3.56691 0
M  V30 7278 C 704.371 1.57158 4.22625 0
M  V30 7279 C 703.033 1.94022 4.40351 0
M  V30 7280 C 705.385 2.45758 4.59622 0
M  V30 7281 C 702.713 3.19076 4.92349 0
M  V30 7282 C 705.065 3.70141 5.13009 0
M  V30 7283 C 703.729 4.07152 5.28946 0
M  V30 7284 H 702.999 0.0813581 0.73652 0
M  V30 7285 H 705.646 0.891123 1.69503 0
M  V30 7286 H 703.951 -0.527259 3.88236 0
M  V30 7287 H 705.648 -0.156283 4.00695 0
M  V30 7288 H 702.238 1.27486 4.09201 0
M  V30 7289 H 706.422 2.18558 4.45585 0
M  V30 7290 H 701.678 3.4775 5.02872 0
M  V30 7291 H 705.852 4.38983 5.40617 0
M  V30 7292 H 703.479 5.04125 5.69001 0
M  V30 7293 N 705.054 -1.51416 0.437162 0
M  V30 7294 C 706.465 -1.86682 -0.0260005 0
M  V30 7295 C 706.816 -1.35432 -1.4196 0
M  V30 7296 O 705.941 -0.705055 -2.04592 0
M  V30 7297 C 706.536 -3.38757 -0.0539577 0
M  V30 7298 C 705.095 -3.7356 -0.461532 0
M  V30 7299 C 704.242 -2.75134 0.345924 0
M  V30 7300 H 707.193 -1.44642 0.653013 0
M  V30 7301 H 707.214 -3.70573 -0.863478 0
M  V30 7302 H 706.726 -3.76028 0.96045 0
M  V30 7303 H 704.827 -3.41878 -1.48155 0
M  V30 7304 H 704.94 -4.78737 -0.186451 0
M  V30 7305 H 703.304 -2.53947 -0.195739 0
M  V30 7306 H 704.087 -3.15247 1.35921 0
M  V30 7307 N 706.532 -0.168513 -1.56696 0
M  V30 7308 C 707.779 0.477158 -1.96798 0
M  V30 7309 C 708.107 1.63442 -1.05437 0
M  V30 7310 O 707.362 1.95503 -0.0878903 0
M  V30 7311 C 707.661 1.00441 -3.42996 0
M  V30 7312 C 707.327 -0.0366556 -4.50885 0
M  V30 7313 C 705.989 -0.322785 -4.80116 0
M  V30 7314 C 708.341 -0.743447 -5.1587 0
M  V30 7315 C 705.669 -1.32114 -5.71632 0
M  V30 7316 C 708.021 -1.73077 -6.08463 0
M  V30 7317 C 706.685 -2.02437 -6.36062 0
M  V30 7318 H 705.955 0.174604 -0.720135 0
M  V30 7319 H 708.602 -0.259884 -1.89728 0
M  V30 7320 H 706.907 1.81922 -3.47004 0
M  V30 7321 H 708.604 1.51294 -3.71364 0
M  V30 7322 H 705.194 0.196532 -4.28149 0
M  V30 7323 H 709.378 -0.535602 -4.93401 0
M  V30 7324 H 704.634 -1.55482 -5.913 0
M  V30 7325 H 708.808 -2.28382 -6.57886 0
M  V30 7326 H 706.435 -2.79946 -7.06777 0
M  V30 7327 N 708.01 1.57248 0.105221 0
M  V30 7328 C 709.235 1.90143 0.828264 0
M  V30 7329 C 709.66 0.761811 1.71983 0
M  V30 7330 O 709.018 -0.287086 1.79013 0
M  V30 7331 C 709.066 3.21856 1.62608 0
M  V30 7332 O 708.17 3.08732 2.7342 0
M  V30 7333 H 707.511 0.623558 0.228192 0
M  V30 7334 H 710.041 2.0443 0.0834826 0
M  V30 7335 H 710.051 3.54916 2.01243 0
M  V30 7336 H 708.726 4.0439 0.971687 0
M  V30 7337 H 707.303 2.87167 2.37886 0
M  V30 7338 N 709.488 -0.375779 1.53054 0
M  V30 7339 C 710.418 -1.46598 1.81745 0
M  V30 7340 C 711.399 -1.56337 0.670286 0
M  V30 7341 O 712.584 -1.71071 0.919158 0
M  V30 7342 C 709.714 -2.84058 1.99821 0
M  V30 7343 C 708.668 -2.8915 3.15557 0
M  V30 7344 C 707.994 -4.29187 3.18908 0
M  V30 7345 C 709.294 -2.57595 4.54359 0
M  V30 7346 H 710.988 -1.22837 2.73041 0
M  V30 7347 H 708.534 -0.589485 1.31381 0
M  V30 7348 H 710.487 -3.60342 2.18475 0
M  V30 7349 H 709.211 -3.09184 1.05226 0
M  V30 7350 H 707.87 -2.15316 2.96706 0
M  V30 7351 H 707.518 -4.51374 2.2197 0
M  V30 7352 H 707.218 -4.33512 3.96662 0
M  V30 7353 H 708.742 -5.07359 3.39734 0
M  V30 7354 H 710.156 -3.23595 4.73243 0
M  V30 7355 H 708.553 -2.73252 5.34279 0
M  V30 7356 H 709.623 -1.52882 4.60169 0
M  V30 7357 N 710.966 -1.44241 -0.634997 0
M  V30 7358 C 712.377 -1.41622 -1.21655 0
M  V30 7359 C 712.728 -0.129584 -1.95772 0
M  V30 7360 O 711.853 0.770225 -2.02229 0
M  V30 7361 C 712.448 -2.56557 -2.21278 0
M  V30 7362 C 711.007 -2.57145 -2.7487 0
M  V30 7363 C 710.154 -2.33354 -1.49804 0
M  V30 7364 H 713.105 -1.52878 -0.425905 0
M  V30 7365 H 713.126 -2.29089 -3.03807 0
M  V30 7366 H 712.638 -3.50186 -1.67306 0
M  V30 7367 H 710.739 -1.67447 -3.32855 0
M  V30 7368 H 710.852 -3.55507 -3.21172 0
M  V30 7369 H 709.216 -1.82372 -1.77799 0
M  V30 7370 H 709.999 -3.29092 -0.977402 0
M  V30 7371 N 712.444 0.87505 -1.31075 0
M  V30 7372 C 713.394 1.96933 -1.14898 0
M  V30 7373 C 714.378 1.60783 -0.0613703 0
M  V30 7374 O 715.57 1.74678 -0.285751 0
M  V30 7375 C 712.699 3.3253 -0.853166 0
M  V30 7376 C 711.785 3.74963 -1.98151 0
M  V30 7377 N 712.176 3.89403 -3.22799 0
M  V30 7378 C 710.474 4.04436 -1.8801 0
M  V30 7379 C 711.175 4.25563 -3.96574 0
M  V30 7380 N 710.151 4.3597 -3.24701 0
M  V30 7381 H 713.953 2.06201 -2.09424 0
M  V30 7382 H 711.467 1.06551 -1.22558 0
M  V30 7383 H 713.464 4.10666 -0.718266 0
M  V30 7384 H 712.124 3.24592 0.0839218 0
M  V30 7385 H 713.135 3.74266 -3.57974 0
M  V30 7386 H 709.812 4.04915 -1.01733 0
M  V30 7387 H 711.202 4.44375 -5.03965 0
M  V30 7388 N 713.922 1.13953 1.08869 0
M  V30 7389 C 715.168 0.916103 1.81602 0
M  V30 7390 C 715.523 -0.551633 1.84322 0
M  V30 7391 O 714.816 -1.40322 1.30462 0
M  V30 7392 C 715.01 1.44495 3.26888 0
M  V30 7393 C 714.839 2.96257 3.38322 0
M  V30 7394 C 713.609 3.64658 3.49789 0
M  V30 7395 C 715.807 3.94156 3.30372 0
M  V30 7396 N 713.789 5.04379 3.49965 0
M  V30 7397 C 715.16 5.20101 3.37484 0
M  V30 7398 C 717.215 3.86342 3.14077 0
M  V30 7399 C 715.918 6.39145 3.29979 0
M  V30 7400 C 717.944 5.04927 3.07901 0
M  V30 7401 C 717.306 6.29738 3.1561 0
M  V30 7402 H 713.405 0.388701 0.678554 0
M  V30 7403 H 715.989 1.44879 1.3007 0
M  V30 7404 H 714.16 0.939102 3.76876 0
M  V30 7405 H 715.892 1.16193 3.87661 0
M  V30 7406 H 712.647 3.15196 3.5348 0
M  V30 7407 H 713.071 5.77305 3.53622 0
M  V30 7408 H 717.713 2.90726 3.06982 0
M  V30 7409 H 715.431 7.3501 3.35836 0
M  V30 7410 H 719.017 5.00626 2.9642 0
M  V30 7411 H 717.897 7.19958 3.10854 0
M  V30 7412 N 715.4 -1.26948 0.933913 0
M  V30 7413 C 716.677 -1.89212 0.495784 0
M  V30 7414 C 717.057 -1.84469 -1.02637 0
M  V30 7415 O 716.405 -1.29409 -1.88323 0
M  V30 7416 C 716.615 -3.32865 1.0489 0
M  V30 7417 C 717.963 -4.09749 1.11315 0
M  V30 7418 O 718.987 -3.41905 0.998966 0
M  V30 7419 O 717.846 -5.31061 1.28983 0
M  V30 7420 H 714.94 -0.811284 0.160459 0
M  V30 7421 H 717.486 -1.35171 1.02601 0
M  V30 7422 H 716.258 -3.30642 2.09265 0
M  V30 7423 H 715.881 -3.94435 0.500692 0
M  V30 7424 N 716.879 -0.700114 -1.41195 0
M  V30 7425 C 718.104 -0.240704 -2.05998 0
M  V30 7426 C 718.529 1.10313 -1.52357 0
M  V30 7427 O 717.887 1.69154 -0.652424 0
M  V30 7428 C 717.935 -0.213783 -3.59966 0
M  V30 7429 O 717.039 0.809933 -4.04368 0
M  V30 7430 H 716.38 -0.116471 -0.653705 0
M  V30 7431 H 718.91 -0.956251 -1.80878 0
M  V30 7432 H 718.92 -0.0461852 -4.07974 0
M  V30 7433 H 717.595 -1.19454 -3.98376 0
M  V30 7434 H 716.172 0.611319 -3.67855 0
M  V30 7435 N 718.357 1.51182 -0.445186 0
M  V30 7436 C 719.267 2.31692 0.368255 0
M  V30 7437 C 720.283 1.40942 1.02036 0
M  V30 7438 O 721.459 1.74011 1.01401 0
M  V30 7439 C 718.524 3.14903 1.45041 0
M  V30 7440 C 717.585 4.21442 0.817615 0
M  V30 7441 C 716.818 5.00677 1.8482 0
M  V30 7442 O 717.041 4.80644 3.07145 0
M  V30 7443 O 715.975 5.84559 1.43438 0
M  V30 7444 H 719.801 3.0232 -0.289219 0
M  V30 7445 H 717.386 1.47951 -0.207555 0
M  V30 7446 H 719.268 3.66612 2.07783 0
M  V30 7447 H 717.943 2.47031 2.09182 0
M  V30 7448 H 716.85 3.73791 0.151931 0
M  V30 7449 H 718.183 4.9171 0.219564 0
M  V30 7450 N 719.835 0.176821 1.56605 0
M  V30 7451 C 721.06 -0.47599 2.01864 0
M  V30 7452 C 721.485 -1.55645 1.05623 0
M  V30 7453 O 720.843 -1.81263 0.0366729 0
M  V30 7454 C 720.891 -1.02619 3.4569 0
M  V30 7455 O 719.995 -2.13996 3.52533 0
M  V30 7456 H 719.336 -0.113363 0.654251 0
M  V30 7457 H 721.866 0.28233 2.02643 0
M  V30 7458 H 721.876 -1.34742 3.85109 0
M  V30 7459 H 720.551 -0.235138 4.15235 0
M  V30 7460 H 719.128 -1.82876 3.24978 0
M  V30 7461 N 721.313 -1.57302 -0.09688 0
M  V30 7462 C 722.243 -2.0497 -1.11846 0
M  V30 7463 C 723.224 -0.938278 -1.41882 0
M  V30 7464 O 724.409 -1.20943 -1.51942 0
M  V30 7465 C 721.539 -2.47264 -2.43881 0
M  V30 7466 C 720.493 -3.62053 -2.28257 0
M  V30 7467 C 719.819 -3.90318 -3.65453 0
M  V30 7468 C 721.119 -4.93005 -1.72461 0
M  V30 7469 H 722.813 -2.90567 -0.721888 0
M  V30 7470 H 720.359 -1.39786 -0.345803 0
M  V30 7471 H 722.312 -2.7922 -3.15617 0
M  V30 7472 H 721.036 -1.58664 -2.8547 0
M  V30 7473 H 719.695 -3.30341 -1.58967 0
M  V30 7474 H 719.343 -2.98889 -4.04567 0
M  V30 7475 H 719.043 -4.67597 -3.55846 0
M  V30 7476 H 720.567 -4.24747 -4.3866 0
M  V30 7477 H 721.981 -5.23354 -2.34036 0
M  V30 7478 H 720.378 -5.74436 -1.73618 0
M  V30 7479 H 721.448 -4.80053 -0.683898 0
M  V30 7480 N 722.791 0.367657 -1.53252 0
M  V30 7481 C 724.202 0.944563 -1.61043 0
M  V30 7482 C 724.553 1.90325 -0.476546 0
M  V30 7483 O 723.678 2.12721 0.397333 0
M  V30 7484 C 724.273 1.71992 -2.91898 0
M  V30 7485 C 722.832 2.2462 -3.02031 0
M  V30 7486 C 721.979 1.05799 -2.56324 0
M  V30 7487 H 724.93 0.146516 -1.58022 0
M  V30 7488 H 724.951 2.58095 -2.79584 0
M  V30 7489 H 724.463 1.02192 -3.74404 0
M  V30 7490 H 722.564 2.97668 -2.24108 0
M  V30 7491 H 722.677 2.52644 -4.07073 0
M  V30 7492 H 721.041 1.42435 -2.1115 0
M  V30 7493 H 721.824 0.375008 -3.41246 0
M  V30 7494 N 724.269 1.44576 0.627338 0
M  V30 7495 C 725.219 1.48168 1.73293 0
M  V30 7496 C 726.203 0.347045 1.57113 0
M  V30 7497 O 727.395 0.592605 1.66785 0
M  V30 7498 C 724.524 1.43236 3.11991 0
M  V30 7499 C 723.61 2.61828 3.33627 0
M  V30 7500 N 724.001 3.87053 3.25612 0
M  V30 7501 C 722.299 2.57104 3.64436 0
M  V30 7502 C 723 4.66093 3.48041 0
M  V30 7503 N 721.976 3.97228 3.71095 0
M  V30 7504 H 725.778 2.42832 1.6556 0
M  V30 7505 H 723.292 1.39592 0.829934 0
M  V30 7506 H 725.289 1.43893 3.91281 0
M  V30 7507 H 723.949 0.496133 3.20887 0
M  V30 7508 H 724.96 4.18966 3.04447 0
M  V30 7509 H 721.637 1.72295 3.8029 0
M  V30 7510 H 723.027 5.75117 3.47404 0
M  V30 7511 N 725.747 -0.868086 1.31537 0
M  V30 7512 C 726.993 -1.62359 1.2252 0
M  V30 7513 C 727.348 -1.91204 -0.214169 0
M  V30 7514 O 726.641 -1.5339 -1.14813 0
M  V30 7515 C 726.835 -2.95889 2.0046 0
M  V30 7516 C 726.664 -2.80082 3.5183 0
M  V30 7517 C 725.434 -2.7917 4.21179 0
M  V30 7518 C 727.632 -2.54805 4.46743 0
M  V30 7519 N 725.614 -2.54433 5.58692 0
M  V30 7520 C 726.985 -2.39349 5.71937 0
M  V30 7521 C 729.04 -2.40165 4.36148 0
M  V30 7522 C 727.743 -2.1074 6.87736 0
M  V30 7523 C 729.769 -2.12945 5.51732 0
M  V30 7524 C 729.131 -1.98278 6.75918 0
M  V30 7525 H 725.23 -0.598381 0.503452 0
M  V30 7526 H 727.814 -1.02156 1.65748 0
M  V30 7527 H 725.985 -3.54095 1.59598 0
M  V30 7528 H 727.717 -3.60734 1.83447 0
M  V30 7529 H 724.472 -2.91621 3.73168 0
M  V30 7530 H 724.896 -2.45029 6.31102 0
M  V30 7531 H 729.538 -2.50231 3.408 0
M  V30 7532 H 727.256 -1.99412 7.8311 0
M  V30 7533 H 730.842 -2.02415 5.45454 0
M  V30 7534 H 729.722 -1.77514 7.63845 0
M  V30 7535 N 727.225 -1.14528 -1.08264 0
M  V30 7536 C 728.473 -0.912599 -1.80322 0
M  V30 7537 C 728.794 0.562256 -1.86718 0
M  V30 7538 O 728.064 1.40869 -1.36135 0
M  V30 7539 H 726.644 -0.334645 -0.667849 0
M  V30 7540 H 729.306 -1.44415 -1.30883 0
M  V30 7541 H 728.402 -1.31384 -2.83098 0
M  V30 7542 N 728.703 1.26451 -0.940633 0
M  V30 7543 C 729.928 1.98407 -0.60412 0
M  V30 7544 C 730.353 1.69584 0.81382 0
M  V30 7545 O 729.711 0.943553 1.54812 0
M  V30 7546 C 729.759 3.50387 -0.852136 0
M  V30 7547 O 728.863 4.1233 0.076013 0
M  V30 7548 H 728.204 0.622466 -0.231153 0
M  V30 7549 H 730.734 1.60932 -1.26342 0
M  V30 7550 H 730.744 4.00614 -0.772816 0
M  V30 7551 H 729.419 3.70696 -1.88566 0
M  V30 7552 H 727.996 3.7286 -0.0543187 0
M  V30 7553 N 730.181 0.707592 1.40822 0
M  V30 7554 C 731.091 0.0507246 2.34545 0
M  V30 7555 C 732.107 -0.752727 1.56876 0
M  V30 7556 O 733.283 -0.687524 1.89302 0
M  V30 7557 C 730.348 -0.865731 3.35717 0
M  V30 7558 C 729.409 -0.0531313 4.29267 0
M  V30 7559 C 728.642 -0.925939 5.25606 0
M  V30 7560 O 728.865 -2.16531 5.27703 0
M  V30 7561 O 727.799 -0.369194 6.00767 0
M  V30 7562 H 731.625 0.823587 2.9232 0
M  V30 7563 H 729.21 0.46801 1.4188 0
M  V30 7564 H 731.092 -1.39091 3.97783 0
M  V30 7565 H 729.767 -1.61788 2.80368 0
M  V30 7566 H 728.674 0.516931 3.70511 0
M  V30 7567 H 730.007 0.660617 4.87747 0
M  V30 7568 N 731.66 -1.50943 0.453197 0
M  V30 7569 C 732.59 -2.31005 -0.34044 0
M  V30 7570 C 733.571 -1.37112 -1.00669 0
M  V30 7571 O 734.756 -1.66033 -1.0073 0
M  V30 7572 C 731.886 -3.16358 -1.433 0
M  V30 7573 C 730.84 -4.18658 -0.889363 0
M  V30 7574 C 730.166 -4.92633 -2.07887 0
M  V30 7575 C 731.466 -5.22227 0.0871142 0
M  V30 7576 H 733.16 -2.97601 0.327723 0
M  V30 7577 H 730.706 -1.43119 0.159054 0
M  V30 7578 H 732.659 -3.71155 -1.99555 0
M  V30 7579 H 731.383 -2.47613 -2.12968 0
M  V30 7580 H 730.042 -3.64936 -0.348915 0
M  V30 7581 H 729.69 -4.20376 -2.76211 0
M  V30 7582 H 729.39 -5.61819 -1.72143 0
M  V30 7583 H 730.914 -5.50258 -2.64666 0
M  V30 7584 H 732.328 -5.72001 -0.385656 0
M  V30 7585 H 730.725 -5.99032 0.357926 0
M  V30 7586 H 731.795 -4.74077 1.01879 0
M  V30 7587 N 733.138 -0.185124 -1.56509 0
M  V30 7588 C 734.386 0.455357 -1.96903 0
M  V30 7589 C 734.707 1.62839 -1.07277 0
M  V30 7590 O 733.977 1.95385 -0.141966 0
M  V30 7591 H 732.557 0.171218 -0.727113 0
M  V30 7592 H 735.219 -0.26953 -1.93027 0
M  V30 7593 H 734.315 0.80616 -3.01509 0
M  V30 7594 N 734.616 1.57351 0.0885366 0
M  V30 7595 C 735.546 2.05561 1.10757 0
M  V30 7596 C 736.527 0.945789 1.41382 0
M  V30 7597 O 737.712 1.21747 1.51299 0
M  V30 7598 C 734.842 2.48554 2.42566 0
M  V30 7599 C 733.796 3.63259 2.26334 0
M  V30 7600 C 733.122 3.9225 3.63378 0
M  V30 7601 C 734.422 4.93913 1.69844 0
M  V30 7602 H 736.116 2.90946 0.706468 0
M  V30 7603 H 733.662 1.39968 0.338385 0
M  V30 7604 H 735.615 2.8089 3.14132 0
M  V30 7605 H 734.339 1.60176 2.84625 0
M  V30 7606 H 732.998 3.31179 1.57213 0
M  V30 7607 H 732.646 3.0103 4.02976 0
M  V30 7608 H 732.346 4.69478 3.53362 0
M  V30 7609 H 733.87 4.27067 4.36401 0
M  V30 7610 H 735.284 5.24588 2.31258 0
M  V30 7611 H 733.681 5.75349 1.70569 0
M  V30 7612 H 734.751 4.80409 0.65843 0
M  V30 7613 N 736.094 -0.359525 1.53444 0
M  V30 7614 C 737.505 -0.936009 1.61542 0
M  V30 7615 C 737.856 -1.90069 0.486633 0
M  V30 7616 O 736.981 -2.12929 -0.386047 0
M  V30 7617 C 737.576 -1.70441 2.92806 0
M  V30 7618 C 736.135 -2.23015 3.03218 0
M  V30 7619 C 735.282 -1.04438 2.56881 0
M  V30 7620 H 738.233 -0.138134 1.58098 0
M  V30 7621 H 738.254 -2.56609 2.80948 0
M  V30 7622 H 737.766 -1.00205 3.74941 0
M  V30 7623 H 735.867 -2.96475 2.25684 0
M  V30 7624 H 735.98 -2.50481 4.08407 0
M  V30 7625 H 734.344 -1.41314 2.11902 0
M  V30 7626 H 735.127 -0.356905 3.4144 0
M  V30 7627 N 737.572 -1.44907 -0.619662 0
M  V30 7628 C 738.522 -1.49085 -1.72504 0
M  V30 7629 C 739.506 -0.355372 -1.56926 0
M  V30 7630 O 740.698 -0.601441 -1.66468 0
M  V30 7631 C 737.827 -1.44889 -3.11227 0
M  V30 7632 C 736.913 -2.63593 -3.32234 0
M  V30 7633 N 737.304 -3.88775 -3.23555 0
M  V30 7634 C 735.602 -2.59033 -3.63067 0
M  V30 7635 C 736.303 -4.67932 -3.45564 0
M  V30 7636 N 735.279 -3.9919 -3.68983 0
M  V30 7637 H 739.081 -2.43706 -1.6427 0
M  V30 7638 H 736.595 -1.4003 -0.82252 0
M  V30 7639 H 738.592 -1.45966 -3.90512 0
M  V30 7640 H 737.252 -0.513143 -3.2062 0
M  V30 7641 H 738.263 -4.20574 -3.02221 0
M  V30 7642 H 734.94 -1.7431 -3.79371 0
M  V30 7643 H 736.33 -5.76952 -3.44349 0
M  V30 7644 N 739.05 0.861098 -1.31996 0
M  V30 7645 C 739.98 1.98482 -1.22993 0
M  V30 7646 C 740.961 1.6971 -0.115168 0
M  V30 7647 O 742.146 1.91849 -0.30126 0
M  V30 7648 C 739.276 3.34179 -0.945615 0
M  V30 7649 C 738.23 3.77284 -2.02091 0
M  V30 7650 C 737.556 5.1054 -1.58912 0
M  V30 7651 C 738.856 3.93439 -3.43515 0
M  V30 7652 H 740.55 2.06271 -2.17008 0
M  V30 7653 H 738.096 0.991043 -1.04472 0
M  V30 7654 H 740.049 4.12338 -0.869206 0
M  V30 7655 H 738.773 3.26586 0.0301849 0
M  V30 7656 H 737.432 3.01371 -2.08737 0
M  V30 7657 H 737.08 4.99397 -0.600942 0
M  V30 7658 H 736.78 5.40352 -2.30854 0
M  V30 7659 H 738.304 5.91199 -1.52696 0
M  V30 7660 H 739.718 4.6197 -3.39495 0
M  V30 7661 H 738.115 4.34661 -4.13751 0
M  V30 7662 H 739.185 2.96548 -3.8365 0
M  V30 7663 N 740.528 1.15101 1.07655 0
M  V30 7664 C 741.753 0.948177 1.84457 0
M  V30 7665 C 742.178 -0.498432 1.81376 0
M  V30 7666 O 741.536 -1.35509 1.20445 0
M  V30 7667 C 741.584 1.46318 3.29581 0
M  V30 7668 O 740.688 0.660342 4.07079 0
M  V30 7669 H 740.029 0.338428 0.571281 0
M  V30 7670 H 742.559 1.5301 1.35828 0
M  V30 7671 H 742.569 1.47468 3.80417 0
M  V30 7672 H 741.244 2.51635 3.31138 0
M  V30 7673 H 739.821 0.718216 3.65918 0
M  V30 7674 N 742.006 -1.2595 0.947325 0
M  V30 7675 C 743.231 -1.98083 0.614633 0
M  V30 7676 C 743.656 -1.70013 -0.804815 0
M  V30 7677 O 743.014 -0.95175 -1.54309 0
M  V30 7678 C 743.062 -3.4993 0.870706 0
M  V30 7679 O 742.166 -4.12364 -0.0541451 0
M  V30 7680 H 741.507 -0.621232 0.234451 0
M  V30 7681 H 744.037 -1.60259 1.27193 0
M  V30 7682 H 744.047 -4.00198 0.794051 0
M  V30 7683 H 742.722 -3.69691 1.90529 0
M  V30 7684 H 741.299 -3.72826 0.0740917 0
M  V30 7685 N 743.484 -0.715051 -1.40445 0
M  V30 7686 C 744.709 -0.26254 -2.05732 0
M  V30 7687 C 745.134 1.08691 -1.53519 0
M  V30 7688 O 744.492 1.68453 -0.670328 0
M  V30 7689 C 744.54 -0.25195 -3.59719 0
M  V30 7690 O 743.644 0.766998 -4.05205 0
M  V30 7691 H 742.985 -0.123398 -0.652433 0
M  V30 7692 H 745.515 -0.975382 -1.79854 0
M  V30 7693 H 745.525 -0.0894537 -4.07902 0
M  V30 7694 H 744.2 -1.23672 -3.97087 0
M  V30 7695 H 742.777 0.572269 -3.68483 0
M  V30 7696 N 744.962 1.50701 -0.461195 0
M  V30 7697 C 746.21 2.01867 0.0970051 0
M  V30 7698 C 746.531 1.34591 1.41104 0
M  V30 7699 O 745.801 0.488041 1.89723 0
M  V30 7700 H 744.381 0.74599 0.0388392 0
M  V30 7701 H 747.043 1.85129 -0.609357 0
M  V30 7702 H 746.139 3.11051 0.255688 0
M  V30 7703 N 746.441 0.193421 1.56409 0
M  V30 7704 C 747.681 -0.447977 1.9943 0
M  V30 7705 C 748.045 -1.58915 1.07751 0
M  V30 7706 O 749.246 -2.29462 1.40002 0
M  V30 7707 C 747.517 -0.89793 3.45936 0
M  V30 7708 S 749.076 -1.5374 4.10986 0
M  V30 7709 H 745.894 -0.143316 0.696406 0
M  V30 7710 H 748.496 0.296093 1.93245 0
M  V30 7711 H 747.2 -0.0572927 4.1036 0
M  V30 7712 H 746.731 -1.67551 3.55936 0
M  V30 7713 H 748.746 -2.82612 4.07854 0
M  V30 7714 N 747.919 -1.57396 -0.0801906 0
M  V30 7715 C 749.33 -1.75642 -0.633002 0
M  V30 7716 C 749.681 -0.817708 -1.78348 0
M  V30 7717 O 748.806 0.000233743 -2.164 0
M  V30 7718 C 749.401 -3.18502 -1.15507 0
M  V30 7719 C 747.96 -3.38121 -1.65381 0
M  V30 7720 C 747.107 -2.71386 -0.569661 0
M  V30 7721 H 750.058 -1.58027 0.145949 0
M  V30 7722 H 750.079 -3.22198 -2.02408 0
M  V30 7723 H 749.591 -3.86799 -0.317515 0
M  V30 7724 H 747.692 -2.74926 -2.51488 0
M  V30 7725 H 747.805 -4.46521 -1.73654 0
M  V30 7726 H 746.169 -2.33702 -1.0127 0
M  V30 7727 H 746.952 -3.42332 0.257561 0
M  V30 7728 N 749.397 0.351382 -1.53633 0
M  V30 7729 C 750.813 0.693987 -1.43722 0
M  V30 7730 C 751.013 1.9274 -0.587669 0
M  V30 7731 O 750.069 2.52387 -0.0756082 0
M  V30 7732 C 751.382 0.893937 -2.87105 0
M  V30 7733 C 752.93 0.993051 -2.96829 0
M  V30 7734 C 753.405 1.22537 -4.41303 0
M  V30 7735 N 754.896 1.29275 -4.44795 0
M  V30 7736 C 755.631 1.48988 -5.53706 0
M  V30 7737 N 755.127 1.65924 -6.72637 0
M  V30 7738 N 756.92 1.51472 -5.41306 0
M  V30 7739 H 749.071 -0.459688 -2.07366 0
M  V30 7740 H 751.334 -0.143684 -0.937048 0
M  V30 7741 H 751.04 0.0592517 -3.5165 0
M  V30 7742 H 750.914 1.79795 -3.31592 0
M  V30 7743 H 753.301 1.81827 -2.32429 0
M  V30 7744 H 753.382 0.0661119 -2.55715 0
M  V30 7745 H 753.026 0.405117 -5.06282 0
M  V30 7746 H 752.956 2.16575 -4.80003 0
M  V30 7747 H 755.447 1.17743 -3.59089 0
M  V30 7748 H 755.76 1.80578 -7.51406 0
M  V30 7749 H 754.105 1.63075 -6.75597 0
M  V30 7750 H 757.296 1.37818 -4.47352 0
M  V30 7751 H 757.469 1.66493 -6.26246 0
M  V30 7752 N 750.875 1.45233 0.611969 0
M  V30 7753 C 752.123 1.48727 1.36838 0
M  V30 7754 C 752.444 0.128616 1.94575 0
M  V30 7755 O 751.714 -0.84149 1.76906 0
M  V30 7756 H 750.294 0.547695 0.507976 0
M  V30 7757 H 752.956 1.81156 0.718925 0
M  V30 7758 H 752.052 2.2236 2.19003 0
M  V30 7759 N 752.353 -0.854086 1.3245 0
M  V30 7760 C 753.283 -1.97827 1.24044 0
M  V30 7761 C 754.264 -1.69646 0.124166 0
M  V30 7762 O 755.449 -1.91687 0.31143 0
M  V30 7763 C 752.579 -3.33673 0.963324 0
M  V30 7764 C 751.533 -3.76207 2.04089 0
M  V30 7765 C 750.859 -5.0969 1.61618 0
M  V30 7766 C 752.159 -3.91612 3.45597 0
M  V30 7767 H 753.853 -2.05118 2.18099 0
M  V30 7768 H 751.399 -0.985489 1.04996 0
M  V30 7769 H 753.352 -4.11871 0.891061 0
M  V30 7770 H 752.076 -3.26597 -0.0128649 0
M  V30 7771 H 750.735 -3.0026 2.10332 0
M  V30 7772 H 750.383 -4.99072 0.627418 0
M  V30 7773 H 750.083 -5.3912 2.33717 0
M  V30 7774 H 751.607 -5.90381 1.55829 0
M  V30 7775 H 753.021 -4.60163 3.4194 0
M  V30 7776 H 751.418 -4.3246 4.16051 0
M  V30 7777 H 752.488 -2.9451 3.85217 0
M  V30 7778 N 753.831 -1.1567 -1.07043 0
M  V30 7779 C 755.056 -0.957946 -1.83952 0
M  V30 7780 C 755.481 0.488807 -1.81638 0
M  V30 7781 O 754.839 1.34869 -1.21162 0
M  V30 7782 C 754.887 -1.48064 -3.288 0
M  V30 7783 O 753.991 -0.681921 -4.06723 0
M  V30 7784 H 753.332 -0.341453 -0.569479 0
M  V30 7785 H 755.862 -1.53728 -1.35015 0
M  V30 7786 H 755.872 -1.49484 -3.7963 0
M  V30 7787 H 754.547 -2.53388 -3.29799 0
M  V30 7788 H 753.124 -0.737612 -3.65532 0
M  V30 7789 N 755.309 1.25446 -0.953992 0
M  V30 7790 C 756.72 1.75047 -0.649255 0
M  V30 7791 C 757.071 1.77527 0.835385 0
M  V30 7792 O 756.196 1.39569 1.65377 0
M  V30 7793 C 756.791 3.17889 -1.17183 0
M  V30 7794 C 755.35 3.65052 -0.917267 0
M  V30 7795 C 754.497 2.44124 -1.31525 0
M  V30 7796 H 757.448 1.11342 -1.13087 0
M  V30 7797 H 757.469 3.76768 -0.531616 0
M  V30 7798 H 756.981 3.16052 -2.25239 0
M  V30 7799 H 755.082 3.72305 0.148354 0
M  V30 7800 H 755.195 4.53222 -1.55328 0
M  V30 7801 H 753.559 2.43906 -0.733624 0
M  V30 7802 H 754.342 2.44979 -2.405 0
M  V30 7803 N 756.787 0.722489 1.40064 0
M  V30 7804 C 757.697 0.0755984 2.34478 0
M  V30 7805 C 758.713 -0.736046 1.57665 0
M  V30 7806 O 759.889 -0.667407 1.9002 0
M  V30 7807 C 756.954 -0.830075 3.36616 0
M  V30 7808 C 756.015 -0.00759884 4.29299 0
M  V30 7809 C 755.248 -0.870139 5.26559 0
M  V30 7810 O 755.471 -2.10921 5.2997 0
M  V30 7811 O 754.405 -0.305454 6.01124 0
M  V30 7812 H 758.231 0.854545 2.9143 0
M  V30 7813 H 755.816 0.483032 1.41376 0
M  V30 7814 H 757.698 -1.34864 3.99236 0
M  V30 7815 H 756.373 -1.58805 2.82069 0
M  V30 7816 H 755.28 0.556199 3.69942 0
M  V30 7817 H 756.613 0.712312 4.87018 0
M  V30 7818 N 758.265 -1.50454 0.469181 0
M  V30 7819 C 759.513 -2.01916 -0.0862982 0
M  V30 7820 C 759.834 -1.35337 -1.40388 0
M  V30 7821 O 759.104 -0.498096 -1.89462 0
M  V30 7822 H 757.684 -0.746185 -0.0348825 0
M  V30 7823 H 760.346 -1.84804 0.619167 0
M  V30 7824 H 759.442 -3.11182 -0.239189 0
M  V30 7825 N 759.743 -0.201713 -1.56304 0
M  V30 7826 C 760.673 0.71155 -2.22394 0
M  V30 7827 C 761.654 1.21625 -1.18917 0
M  V30 7828 O 762.839 1.26388 -1.47444 0
M  V30 7829 C 759.969 1.92837 -2.88845 0
M  V30 7830 C 758.923 1.55831 -3.98623 0
M  V30 7831 C 758.249 2.85228 -4.52271 0
M  V30 7832 C 759.549 0.763249 -5.16693 0
M  V30 7833 H 761.243 0.160573 -2.98969 0
M  V30 7834 H 758.789 0.0757916 -1.438 0
M  V30 7835 H 760.742 2.57253 -3.33764 0
M  V30 7836 H 759.466 2.50398 -2.09686 0
M  V30 7837 H 758.125 0.9377 -3.54405 0
M  V30 7838 H 757.773 3.40893 -3.69866 0
M  V30 7839 H 757.473 2.6121 -5.26349 0
M  V30 7840 H 758.997 3.50622 -4.99897 0
M  V30 7841 H 760.411 1.31066 -5.58117 0
M  V30 7842 H 758.808 0.620935 -5.96879 0
M  V30 7843 H 759.878 -0.234322 -4.84334 0
M  V30 7844 N 761.222 1.57436 0.0718424 0
M  V30 7845 C 762.633 1.75975 0.623678 0
M  V30 7846 C 762.984 0.827155 1.77912 0
M  V30 7847 O 762.109 0.0112425 2.16397 0
M  V30 7848 C 762.704 3.1911 1.13816 0
M  V30 7849 C 761.263 3.38994 1.63586 0
M  V30 7850 C 760.41 2.71684 0.555261 0
M  V30 7851 H 763.361 1.57948 -0.154328 0
M  V30 7852 H 763.382 3.23267 2.00696 0
M  V30 7853 H 762.894 3.86962 0.296998 0
M  V30 7854 H 760.995 2.76256 2.50027 0
M  V30 7855 H 761.108 4.47436 1.71283 0
M  V30 7856 H 759.472 2.34236 1.00029 0
M  V30 7857 H 760.255 3.42191 -0.275712 0
M  V30 7858 N 762.7 -0.34323 1.53817 0
M  V30 7859 C 763.948 -1.0813 1.70741 0
M  V30 7860 C 764.269 -1.89165 0.473461 0
M  V30 7861 O 763.539 -1.89075 -0.512605 0
M  V30 7862 H 762.119 -0.40219 0.629486 0
M  V30 7863 H 764.781 -0.384426 1.91071 0
M  V30 7864 H 763.877 -1.7585 2.57843 0
M  V30 7865 N 764.178 -1.45556 -0.604258 0
M  V30 7866 C 765.594 -1.30035 -0.925368 0
M  V30 7867 C 765.794 -0.255833 -1.99869 0
M  V30 7868 O 764.85 0.349076 -2.50075 0
M  V30 7869 C 766.163 -2.68028 -1.36314 0
M  V30 7870 C 767.711 -2.75951 -1.47717 0
M  V30 7871 C 768.186 -4.14476 -1.94868 0
M  V30 7872 N 769.677 -4.16787 -2.02097 0
M  V30 7873 C 770.412 -5.20845 -2.39809 0
M  V30 7874 N 769.908 -6.35246 -2.76467 0
M  V30 7875 N 771.701 -5.08204 -2.40177 0
M  V30 7876 H 763.852 -2.1214 0.10512 0
M  V30 7877 H 766.115 -0.947871 -0.0156303 0
M  V30 7878 H 765.821 -3.45667 -0.648628 0
M  V30 7879 H 765.695 -2.96711 -2.329 0
M  V30 7880 H 768.082 -1.98613 -2.18258 0
M  V30 7881 H 768.163 -2.50977 -0.494371 0
M  V30 7882 H 767.807 -4.923 -1.24912 0
M  V30 7883 H 767.737 -4.36843 -2.94068 0
M  V30 7884 H 770.228 -3.34233 -1.76343 0
M  V30 7885 H 770.541 -7.10438 -3.04134 0
M  V30 7886 H 768.886 -6.38642 -2.74155 0
M  V30 7887 H 772.077 -4.17874 -2.10947 0
M  V30 7888 H 772.25 -5.89417 -2.69242 0
M  V30 7889 N 765.656 0.84705 -1.32902 0
M  V30 7890 C 766.881 1.63925 -1.27056 0
M  V30 7891 C 767.306 1.87443 0.157136 0
M  V30 7892 O 766.664 1.43266 1.11106 0
M  V30 7893 C 766.712 2.97134 -2.04313 0
M  V30 7894 O 765.816 3.88049 -1.39614 0
M  V30 7895 H 765.157 0.499477 -0.437514 0
M  V30 7896 H 767.687 1.05443 -1.75336 0
M  V30 7897 H 767.697 3.46896 -2.14772 0
M  V30 7898 H 766.372 2.79339 -3.08128 0
M  V30 7899 H 764.949 3.46525 -1.3775 0
M  V30 7900 N 767.134 1.16236 1.06428 0
M  V30 7901 C 768.359 0.967688 1.83441 0
M  V30 7902 C 768.784 -0.479167 1.81894 0
M  V30 7903 O 768.142 -1.34224 1.21875 0
M  V30 7904 C 768.19 1.49806 3.2801 0
M  V30 7905 O 767.294 0.703481 4.06356 0
M  V30 7906 H 766.635 0.344468 0.56766 0
M  V30 7907 H 769.165 1.54442 1.34197 0
M  V30 7908 H 769.175 1.51495 3.78831 0
M  V30 7909 H 767.85 2.55133 3.2845 0
M  V30 7910 H 766.427 0.756986 3.65136 0
M  V30 7911 N 768.612 -1.24939 0.960631 0
M  V30 7912 C 770.023 -1.74701 0.658529 0
M  V30 7913 C 770.374 -1.77967 -0.825959 0
M  V30 7914 O 769.499 -1.40444 -1.64634 0
M  V30 7915 C 770.094 -3.17263 1.18867 0
M  V30 7916 C 768.653 -3.64561 0.936614 0
M  V30 7917 C 767.8 -2.43423 1.32817 0
M  V30 7918 H 770.751 -1.10741 1.13676 0
M  V30 7919 H 770.772 -3.76481 0.551589 0
M  V30 7920 H 770.284 -3.14854 2.26912 0
M  V30 7921 H 768.385 -3.72378 -0.128608 0
M  V30 7922 H 768.498 -4.52392 1.57729 0
M  V30 7923 H 766.862 -2.43513 0.746548 0
M  V30 7924 H 767.645 -2.437 2.41796 0
M  V30 7925 N 770.09 -0.729906 -1.39679 0
M  V30 7926 C 771.501 -0.346241 -1.83461 0
M  V30 7927 C 771.852 1.1215 -1.60987 0
M  V30 7928 O 770.977 1.86456 -1.09832 0
M  V30 7929 C 771.572 -0.621656 -3.33048 0
M  V30 7930 C 770.131 -0.291543 -3.75269 0
M  V30 7931 C 769.278 -0.886844 -2.62736 0
M  V30 7932 H 772.229 -0.927949 -1.28743 0
M  V30 7933 H 772.25 0.108301 -3.80346 0
M  V30 7934 H 771.762 -1.68996 -3.49373 0
M  V30 7935 H 769.863 0.771133 -3.64533 0
M  V30 7936 H 769.976 -0.770544 -4.72863 0
M  V30 7937 H 768.34 -0.313839 -2.52759 0
M  V30 7938 H 769.123 -1.95971 -2.81869 0
M  V30 7939 N 771.568 1.50203 -0.477153 0
M  V30 7940 C 772.478 2.32421 0.319027 0
M  V30 7941 C 773.494 1.43075 0.990233 0
M  V30 7942 O 774.67 1.76123 0.976873 0
M  V30 7943 C 771.735 3.17909 1.38328 0
M  V30 7944 C 770.796 4.23082 0.728036 0
M  V30 7945 C 770.029 5.04484 1.74158 0
M  V30 7946 O 770.252 4.8705 2.96881 0
M  V30 7947 O 769.186 5.8747 1.31006 0
M  V30 7948 H 773.012 3.01638 -0.353281 0
M  V30 7949 H 770.597 1.47478 -0.238891 0
M  V30 7950 H 772.479 3.70937 1.9996 0
M  V30 7951 H 771.154 2.51413 2.03895 0
M  V30 7952 H 770.061 3.7403 0.07261 0
M  V30 7953 H 771.394 4.92065 0.115216 0
M  V30 7954 N 773.046 0.209999 1.56195 0
M  V30 7955 C 773.978 -0.736967 2.17029 0
M  V30 7956 C 774.991 -1.16599 1.13616 0
M  V30 7957 O 776.18 -1.09914 1.40646 0
M  V30 7958 C 773.28 -2.00852 2.72969 0
M  V30 7959 C 772.453 -1.73691 4.01435 0
M  V30 7960 C 771.512 -2.85439 4.42053 0
M  V30 7961 O 770.538 -2.54405 5.09183 0
M  V30 7962 N 771.74 -4.14135 4.06783 0
M  V30 7963 H 774.505 -0.216656 2.98916 0
M  V30 7964 H 772.066 0.0285672 1.61875 0
M  V30 7965 H 774.058 -2.74778 2.97118 0
M  V30 7966 H 772.628 -2.43963 1.95451 0
M  V30 7967 H 771.848 -0.834676 3.85262 0
M  V30 7968 H 773.136 -1.52961 4.85263 0
M  V30 7969 H 772.534 -4.42196 3.52816 0
M  V30 7970 H 771.091 -4.84642 4.35851 0
M  V30 7971 N 774.524 -1.57472 -0.0634922 0
M  V30 7972 C 775.773 -1.86837 -0.759928 0
M  V30 7973 C 776.086 -0.803823 -1.7832 0
M  V30 7974 O 777.292 -0.985578 -2.52979 0
M  V30 7975 C 775.748 -3.31448 -1.4025 0
M  V30 7976 C 775.356 -4.46052 -0.417368 0
M  V30 7977 C 777.1 -3.70003 -2.08082 0
M  V30 7978 C 775.007 -5.81707 -1.06633 0
M  V30 7979 H 773.937 -0.697009 -0.287567 0
M  V30 7980 H 776.588 -1.83495 -0.0133914 0
M  V30 7981 H 774.97 -3.29427 -2.19759 0
M  V30 7982 H 776.144 -4.5948 0.348503 0
M  V30 7983 H 774.459 -4.16104 0.156955 0
M  V30 7984 H 777.056 -4.68653 -2.57426 0
M  V30 7985 H 777.399 -3.00226 -2.88393 0
M  V30 7986 H 777.932 -3.7405 -1.35394 0
M  V30 7987 H 774.671 -6.54798 -0.303374 0
M  V30 7988 H 774.191 -5.72064 -1.80286 0
M  V30 7989 H 775.87 -6.27317 -1.58376 0
M  V30 7990 N 776.003 0.335068 -1.53997 0
M  V30 7991 C 777.25 1.07435 -1.71651 0
M  V30 7992 C 777.578 1.88378 -0.48413 0
M  V30 7993 O 776.833 1.8827 0.534139 0
M  V30 7994 C 777.132 2.0364 -2.9371 0
M  V30 7995 C 776.798 1.38942 -4.28959 0
M  V30 7996 C 775.46 1.21027 -4.65732 0
M  V30 7997 C 777.812 0.924083 -5.12943 0
M  V30 7998 C 775.14 0.552097 -5.84097 0
M  V30 7999 C 777.492 0.27978 -6.31981 0
M  V30 8000 C 776.156 0.0883843 -6.67441 0
M  V30 8001 H 775.426 0.393133 -0.628114 0
M  V30 8002 H 778.073 0.352712 -1.88224 0
M  V30 8003 H 776.378 2.82215 -2.71775 0
M  V30 8004 H 778.075 2.6085 -3.04562 0
M  V30 8005 H 774.665 1.53885 -4.00022 0
M  V30 8006 H 778.849 1.05032 -4.85059 0
M  V30 8007 H 774.105 0.392502 -6.10139 0
M  V30 8008 H 778.279 -0.0888479 -6.96343 0
M  V30 8009 H 775.906 -0.423657 -7.59019 0
M  V30 8010 N 777.481 1.45874 0.596531 0
M  V30 8011 C 778.431 1.5181 1.70111 0
M  V30 8012 C 779.415 0.380293 1.56341 0
M  V30 8013 O 780.607 0.627849 1.6549 0
M  V30 8014 C 777.736 1.49822 3.08883 0
M  V30 8015 C 776.822 2.68845 3.27998 0
M  V30 8016 N 777.213 3.93873 3.17329 0
M  V30 8017 C 775.511 2.64777 3.589 0
M  V30 8018 C 776.212 4.73371 3.38076 0
M  V30 8019 N 775.188 4.0501 3.62585 0
M  V30 8020 H 778.99 2.46289 1.60372 0
M  V30 8021 H 776.504 1.41321 0.800138 0
M  V30 8022 H 778.501 1.5216 3.8814 0
M  V30 8023 H 777.161 0.564086 3.19763 0
M  V30 8024 H 778.172 4.25329 2.95492 0
M  V30 8025 H 774.849 1.80323 3.7655 0
M  V30 8026 H 776.239 5.82357 3.35127 0
M  V30 8027 N 778.959 -0.83999 1.33349 0
M  V30 8028 C 779.889 -1.965 1.26135 0
M  V30 8029 C 780.87 -1.69505 0.142152 0
M  V30 8030 O 782.055 -1.91346 0.331743 0
M  V30 8031 C 779.185 -3.32632 0.99866 0
M  V30 8032 C 778.139 -3.74021 2.08068 0
M  V30 8033 C 777.465 -5.07947 1.67014 0
M  V30 8034 C 778.765 -3.87925 3.49731 0
M  V30 8035 H 780.459 -2.02793 2.20262 0
M  V30 8036 H 778.005 -0.974297 1.06035 0
M  V30 8037 H 779.958 -4.10903 0.934696 0
M  V30 8038 H 778.682 -3.26593 0.0217759 0
M  V30 8039 H 777.341 -2.98012 2.13505 0
M  V30 8040 H 776.989 -4.98378 0.680316 0
M  V30 8041 H 776.689 -5.36611 2.39422 0
M  V30 8042 H 778.213 -5.88695 1.62082 0
M  V30 8043 H 779.627 -4.5651 3.46802 0
M  V30 8044 H 778.024 -4.28023 4.20614 0
M  V30 8045 H 779.094 -2.90407 3.88319 0
M  V30 8046 N 780.437 -1.16799 -1.0581 0
M  V30 8047 C 781.683 -0.953935 -1.78963 0
M  V30 8048 C 782.016 0.516638 -1.87202 0
M  V30 8049 O 781.291 1.38338 -1.36721 0
M  V30 8050 C 781.574 -1.58808 -3.23191 0
M  V30 8051 C 781.427 -3.13032 -3.23003 0
M  V30 8052 C 782.746 -1.2868 -4.20867 0
M  V30 8053 H 779.865 -0.347972 -0.64968 0
M  V30 8054 H 782.507 -1.44204 -1.23715 0
M  V30 8055 H 780.657 -1.17303 -3.70368 0
M  V30 8056 H 782.329 -3.63553 -2.83949 0
M  V30 8057 H 780.572 -3.46108 -2.61518 0
M  V30 8058 H 781.243 -3.52527 -4.24769 0
M  V30 8059 H 783.719 -1.6461 -3.82155 0
M  V30 8060 H 782.595 -1.75645 -5.20038 0
M  V30 8061 H 782.856 -0.206491 -4.41618 0
M  V30 8062 N 781.915 1.24427 -0.967243 0
M  V30 8063 C 783.326 1.74349 -0.667785 0
M  V30 8064 C 783.677 1.78403 0.816509 0
M  V30 8065 O 782.802 1.41315 1.63887 0
M  V30 8066 C 783.397 3.16628 -1.20548 0
M  V30 8067 C 781.956 3.64059 -0.955934 0
M  V30 8068 C 781.103 2.42715 -1.34106 0
M  V30 8069 H 784.054 1.10136 -1.14262 0
M  V30 8070 H 784.075 3.76183 -0.571547 0
M  V30 8071 H 783.587 3.13646 -2.28578 0
M  V30 8072 H 781.688 3.72441 0.108858 0
M  V30 8073 H 781.801 4.51549 -1.60126 0
M  V30 8074 H 780.165 2.43114 -0.759452 0
M  V30 8075 H 780.948 2.42414 -2.43085 0
M  V30 8076 N 783.393 0.737304 1.3929 0
M  V30 8077 C 784.618 0.295237 2.05288 0
M  V30 8078 C 785.043 -1.06235 1.55228 0
M  V30 8079 O 784.401 -1.67365 0.697043 0
M  V30 8080 C 784.449 0.309146 3.59272 0
M  V30 8081 O 783.553 -0.702437 4.06374 0
M  V30 8082 H 782.894 0.133762 0.650387 0
M  V30 8083 H 785.424 1.00387 1.78279 0
M  V30 8084 H 785.434 0.154336 4.07708 0
M  V30 8085 H 784.109 1.29974 3.95069 0
M  V30 8086 H 782.686 -0.513574 3.69346 0
M  V30 8087 N 784.871 -1.49948 0.485112 0
M  V30 8088 C 786.282 -1.8667 0.0334041 0
M  V30 8089 C 786.633 -1.3988 -1.37579 0
M  V30 8090 O 785.758 -0.769788 -2.02245 0
M  V30 8091 C 786.353 -3.38757 0.0538426 0
M  V30 8092 C 784.912 -3.74839 -0.342453 0
M  V30 8093 C 784.059 -2.73894 0.433281 0
M  V30 8094 H 787.01 -1.42492 0.698699 0
M  V30 8095 H 787.031 -3.73132 -0.745146 0
M  V30 8096 H 786.543 -3.72782 1.07959 0
M  V30 8097 H 784.644 -3.46419 -1.37203 0
M  V30 8098 H 784.757 -4.79088 -0.0340503 0
M  V30 8099 H 783.121 -2.54441 -0.114849 0
M  V30 8100 H 783.904 -3.10763 1.45881 0
M  V30 8101 N 786.349 -0.21828 -1.56081 0
M  V30 8102 C 787.259 0.704602 -2.23769 0
M  V30 8103 C 788.275 1.21633 -1.24425 0
M  V30 8104 O 789.451 1.25862 -1.57228 0
M  V30 8105 C 786.516 1.89725 -2.90182 0
M  V30 8106 C 785.577 1.42782 -4.0486 0
M  V30 8107 C 784.81 2.56361 -4.68097 0
M  V30 8108 O 785.033 3.74417 -4.30312 0
M  V30 8109 O 783.967 2.2775 -5.57148 0
M  V30 8110 H 787.793 0.158007 -3.03289 0
M  V30 8111 H 785.378 0.0120279 -1.49395 0
M  V30 8112 H 787.26 2.59382 -3.32113 0
M  V30 8113 H 785.935 2.432 -2.13624 0
M  V30 8114 H 784.842 0.699359 -3.67505 0
M  V30 8115 H 786.175 0.939474 -4.83151 0
M  V30 8116 N 787.827 1.57504 0.0551401 0
M  V30 8117 C 788.737 2.08198 1.08124 0
M  V30 8118 C 789.753 1.01496 1.41331 0
M  V30 8119 O 790.929 1.33073 1.51174 0
M  V30 8120 C 787.994 2.52968 2.37083 0
M  V30 8121 C 787.055 3.7404 2.10696 0
M  V30 8122 C 786.288 4.16665 3.33505 0
M  V30 8123 O 786.511 3.59019 4.4324 0
M  V30 8124 O 785.445 5.09324 3.20737 0
M  V30 8125 H 789.271 2.95977 0.680518 0
M  V30 8126 H 786.856 1.46933 0.270401 0
M  V30 8127 H 788.738 2.82211 3.12946 0
M  V30 8128 H 787.413 1.6831 2.76502 0
M  V30 8129 H 786.32 3.49855 1.32484 0
M  V30 8130 H 787.653 4.59601 1.76148 0
M  V30 8131 N 789.305 -0.326896 1.54172 0
M  V30 8132 C 790.235 -1.40741 1.86317 0
M  V30 8133 C 791.216 -1.54125 0.719684 0
M  V30 8134 O 792.401 -1.6806 0.973117 0
M  V30 8135 C 789.531 -2.77557 2.08757 0
M  V30 8136 C 788.485 -2.78965 3.24596 0
M  V30 8137 C 787.811 -4.18824 3.32401 0
M  V30 8138 C 789.111 -2.4301 4.62324 0
M  V30 8139 H 790.805 -1.14088 2.76811 0
M  V30 8140 H 788.351 -0.547389 1.3319 0
M  V30 8141 H 790.304 -3.53209 2.29829 0
M  V30 8142 H 789.028 -3.0568 1.15009 0
M  V30 8143 H 787.687 -2.05767 3.03406 0
M  V30 8144 H 787.335 -4.44083 2.36218 0
M  V30 8145 H 787.035 -4.20673 4.10253 0
M  V30 8146 H 788.559 -4.96294 3.55703 0
M  V30 8147 H 789.973 -3.08375 4.83299 0
M  V30 8148 H 788.37 -2.56116 5.42701 0
M  V30 8149 H 789.44 -1.38165 4.64799 0
M  V30 8150 N 790.784 -1.46188 -0.588786 0
M  V30 8151 C 791.747 -1.55882 -1.68029 0
M  V30 8152 C 792.747 -0.436515 -1.54762 0
M  V30 8153 O 793.937 -0.700626 -1.59489 0
M  V30 8154 C 791.069 -1.47332 -3.07418 0
M  V30 8155 H 792.262 -2.5315 -1.60795 0
M  V30 8156 H 789.815 -1.33908 -0.806116 0
M  V30 8157 H 790.55 -0.513193 -3.20214 0
M  V30 8158 H 790.335 -2.28753 -3.18456 0
M  V30 8159 H 791.825 -1.57187 -3.86887 0
M  V30 8160 N 792.262 0.832906 -1.33792 0
M  V30 8161 C 793.21 1.96455 -1.24532 0
M  V30 8162 C 794.204 1.68774 -0.145455 0
M  V30 8163 O 795.41 1.77314 -0.309797 0
M  V30 8164 H 791.785 0.645008 -0.386611 0
M  V30 8165 H 793.756 2.01389 -2.20193 0
M  V30 8166 C 792.505 3.32784 -1.00748 0
M  V30 8167 H 791.828 3.54626 -1.84609 0
M  V30 8168 H 793.268 4.12447 -0.98301 0
M  V30 8169 C 791.727 3.35654 0.289475 0
M  V30 8170 O 792.257 3.80281 1.29419 0
M  V30 8171 N 790.463 2.88843 0.3191 0
M  V30 8172 H 790.01 2.52719 -0.499069 0
M  V30 8173 H 789.968 2.91145 1.18667 0
M  V30 8174 N 793.74 1.17359 1.05189 0
M  V30 8175 C 794.965 0.98709 1.82404 0
M  V30 8176 C 795.39 -0.459848 1.82392 0
M  V30 8177 O 794.748 -1.32924 1.23292 0
M  V30 8178 C 794.796 1.53276 3.26403 0
M  V30 8179 O 793.9 0.746541 4.05587 0
M  V30 8180 H 793.241 0.35047 0.563974 0
M  V30 8181 H 795.771 1.55856 1.32552 0
M  V30 8182 H 795.781 1.55504 3.77203 0
M  V30 8183 H 794.456 2.58603 3.25726 0
M  V30 8184 H 793.033 0.795671 3.64312 0
M  V30 8185 N 795.218 -1.23913 0.973828 0
M  V30 8186 C 796.148 -2.27453 0.527969 0
M  V30 8187 C 797.129 -1.6443 -0.435513 0
M  V30 8188 O 798.314 -1.9137 -0.330306 0
M  V30 8189 C 795.444 -3.4685 -0.176757 0
M  V30 8190 C 794.398 -4.22181 0.703352 0
M  V30 8191 C 793.724 -5.34534 -0.133215 0
M  V30 8192 C 795.024 -4.82865 1.99096 0
M  V30 8193 H 796.718 -2.65 1.3934 0
M  V30 8194 H 794.264 -1.27388 0.671446 0
M  V30 8195 H 796.217 -4.18424 -0.499934 0
M  V30 8196 H 794.941 -3.08346 -1.07659 0
M  V30 8197 H 793.6 -3.52416 1.00989 0
M  V30 8198 H 793.248 -4.92271 -1.03338 0
M  V30 8199 H 792.948 -5.85855 0.452494 0
M  V30 8200 H 794.472 -6.08933 -0.450924 0
M  V30 8201 H 795.886 -5.46481 1.73297 0
M  V30 8202 H 794.283 -5.44444 2.52389 0
M  V30 8203 H 795.353 -4.03977 2.68199 0
M  V30 8204 N 796.696 -0.74468 -1.38897 0
M  V30 8205 C 797.628 -0.0713608 -2.29089 0
M  V30 8206 C 798.641 0.693224 -1.47303 0
M  V30 8207 O 799.83 0.535785 -1.70269 0
M  V30 8208 C 796.93 0.923078 -3.26087 0
M  V30 8209 C 796.103 0.217998 -4.36856 0
M  V30 8210 C 795.162 1.12192 -5.14101 0
M  V30 8211 O 794.188 0.595771 -5.66073 0
M  V30 8212 N 795.39 2.45082 -5.26227 0
M  V30 8213 H 798.155 -0.845906 -2.87514 0
M  V30 8214 H 795.716 -0.594712 -1.50581 0
M  V30 8215 H 797.708 1.53061 -3.74639 0
M  V30 8216 H 796.278 1.59876 -2.68623 0
M  V30 8217 H 795.498 -0.570134 -3.90055 0
M  V30 8218 H 796.786 -0.270248 -5.08082 0
M  V30 8219 H 796.184 2.90294 -4.85537 0
M  V30 8220 H 794.741 3.00907 -5.78185 0
M  V30 8221 N 798.174 1.49689 -0.493057 0
M  V30 8222 C 799.124 2.25901 0.308682 0
M  V30 8223 C 800.108 1.30408 0.94247 0
M  V30 8224 O 801.3 1.55179 0.851384 0
M  V30 8225 C 798.429 3.14463 1.37725 0
M  V30 8226 C 797.515 4.17414 0.7501 0
M  V30 8227 N 797.906 5.05599 -0.142597 0
M  V30 8228 C 796.204 4.34377 1.01159 0
M  V30 8229 C 796.905 5.7954 -0.500782 0
M  V30 8230 N 795.881 5.43446 0.129386 0
M  V30 8231 H 799.683 2.91451 -0.378652 0
M  V30 8232 H 797.197 1.59441 -0.308614 0
M  V30 8233 H 799.194 3.67687 1.965 0
M  V30 8234 H 797.854 2.50464 2.06635 0
M  V30 8235 H 798.865 5.15354 -0.512894 0
M  V30 8236 H 795.542 3.81588 1.69402 0
M  V30 8237 H 796.932 6.60534 -1.23063 0
M  V30 8238 N 799.652 0.226554 1.55963 0
M  V30 8239 C 800.582 -0.676079 2.23498 0
M  V30 8240 C 801.563 -1.19718 1.20837 0
M  V30 8241 O 802.748 -1.24027 1.49436 0
M  V30 8242 C 799.878 -1.88217 2.91876 0
M  V30 8243 C 798.832 -1.4947 4.01052 0
M  V30 8244 C 798.158 -2.77997 4.56751 0
M  V30 8245 C 799.458 -0.680951 5.17842 0
M  V30 8246 H 801.152 -0.112989 2.99187 0
M  V30 8247 H 798.698 -0.0529046 1.43903 0
M  V30 8248 H 800.651 -2.51911 3.37815 0
M  V30 8249 H 799.375 -2.47031 2.13643 0
M  V30 8250 H 798.034 -0.881199 3.55852 0
M  V30 8251 H 797.682 -3.34966 3.75243 0
M  V30 8252 H 797.382 -2.52803 5.30438 0
M  V30 8253 H 798.906 -3.42625 5.05411 0
M  V30 8254 H 800.32 -1.22171 5.60131 0
M  V30 8255 H 798.717 -0.525898 5.97791 0
M  V30 8256 H 799.787 0.311346 4.83899 0
M  V30 8257 N 801.13 -1.57531 -0.0467866 0
M  V30 8258 C 802.04 -2.08768 -1.07018 0
M  V30 8259 C 803.056 -1.02245 -1.40791 0
M  V30 8260 O 804.232 -1.33873 -1.50466 0
M  V30 8261 C 801.297 -2.54221 -2.35738 0
M  V30 8262 C 800.358 -3.75152 -2.08709 0
M  V30 8263 C 799.591 -4.18428 -3.31291 0
M  V30 8264 O 799.814 -3.61365 -4.4133 0
M  V30 8265 O 798.748 -5.11018 -3.18032 0
M  V30 8266 H 802.574 -2.96334 -0.664812 0
M  V30 8267 H 800.159 -1.47074 -0.262605 0
M  V30 8268 H 802.041 -2.83866 -3.11445 0
M  V30 8269 H 800.716 -1.69774 -2.75605 0
M  V30 8270 H 799.623 -3.50553 -1.30627 0
M  V30 8271 H 800.956 -4.60528 -1.73708 0
M  V30 8272 N 802.608 0.318715 -1.54344 0
M  V30 8273 C 803.558 1.39364 -1.80448 0
M  V30 8274 C 804.542 1.46708 -0.660728 0
M  V30 8275 O 805.734 1.51159 -0.920869 0
M  V30 8276 C 802.863 2.76144 -2.03959 0
M  V30 8277 C 801.949 2.73094 -3.24469 0
M  V30 8278 N 802.34 2.39663 -4.45416 0
M  V30 8279 C 800.638 3.04218 -3.2614 0
M  V30 8280 C 801.339 2.45469 -5.27371 0
M  V30 8281 N 800.315 2.82107 -4.64668 0
M  V30 8282 H 804.117 1.12453 -2.71535 0
M  V30 8283 H 801.631 0.527221 -1.53604 0
M  V30 8284 H 803.628 3.53627 -2.20802 0
M  V30 8285 H 802.288 3.03982 -1.14129 0
M  V30 8286 H 803.299 2.12424 -4.72331 0
M  V30 8287 H 799.976 3.37066 -2.4636 0
M  V30 8288 H 801.366 2.22571 -6.33965 0
M  V30 8289 N 804.086 1.46499 0.581025 0
M  V30 8290 C 804.996 1.59778 1.71779 0
M  V30 8291 C 806.012 0.481223 1.67213 0
M  V30 8292 O 807.188 0.74557 1.87091 0
M  V30 8293 C 804.253 1.58626 3.08283 0
M  V30 8294 C 803.314 2.81527 3.241 0
M  V30 8295 C 802.547 2.80421 4.54092 0
M  V30 8296 O 802.77 1.89262 5.38085 0
M  V30 8297 O 801.704 3.71984 4.73193 0
M  V30 8298 H 805.53 2.55918 1.63523 0
M  V30 8299 H 803.115 1.29311 0.748267 0
M  V30 8300 H 804.997 1.60686 3.89561 0
M  V30 8301 H 803.672 0.656467 3.16973 0
M  V30 8302 H 802.579 2.85021 2.42309 0
M  V30 8303 H 803.912 3.73721 3.20302 0
M  V30 8304 N 805.565 -0.825799 1.34232 0
M  V30 8305 C 806.976 -1.39835 1.23706 0
M  V30 8306 C 807.327 -1.95709 -0.138649 0
M  V30 8307 O 806.452 -1.89833 -1.03886 0
M  V30 8308 C 807.047 -2.54203 2.23978 0
M  V30 8309 C 805.606 -3.07374 2.17251 0
M  V30 8310 C 804.753 -1.80232 2.10741 0
M  V30 8311 H 807.704 -0.630442 1.4564 0
M  V30 8312 H 807.725 -3.32214 1.8551 0
M  V30 8313 H 807.237 -2.13506 3.24094 0
M  V30 8314 H 805.338 -3.52583 1.20483 0
M  V30 8315 H 805.451 -3.6666 3.08379 0
M  V30 8316 H 803.815 -2.01012 1.56417 0
M  V30 8317 H 804.598 -1.41713 3.12686 0
M  V30 8318 N 807.043 -1.17915 -1.04565 0
M  V30 8319 C 808.289 -0.972863 -1.77942 0
M  V30 8320 C 808.622 0.496753 -1.87739 0
M  V30 8321 O 807.897 1.3688 -1.38181 0
M  V30 8322 C 808.18 -1.62227 -3.21488 0
M  V30 8323 C 808.033 -3.16441 -3.19664 0
M  V30 8324 C 809.352 -1.33137 -4.19479 0
M  V30 8325 H 806.471 -0.354843 -0.645953 0
M  V30 8326 H 809.113 -1.45508 -1.22178 0
M  V30 8327 H 807.263 -1.21224 -3.69103 0
M  V30 8328 H 808.935 -3.66544 -2.80077 0
M  V30 8329 H 807.178 -3.48863 -2.57832 0
M  V30 8330 H 807.849 -3.57012 -4.21006 0
M  V30 8331 H 810.325 -1.68654 -3.80388 0
M  V30 8332 H 809.201 -1.81151 -5.18146 0
M  V30 8333 H 809.462 -0.253319 -4.41374 0
M  V30 8334 N 808.521 1.23394 -0.980386 0
M  V30 8335 C 809.469 2.26872 -0.513018 0
M  V30 8336 C 810.463 1.63853 0.429948 0
M  V30 8337 O 811.669 1.77417 0.303842 0
M  V30 8338 H 808.044 0.737398 -0.147473 0
M  V30 8339 H 810.015 2.63654 -1.39746 0
M  V30 8340 C 808.764 3.47289 0.168962 0
M  V30 8341 H 808.087 3.96033 -0.547546 0
M  V30 8342 H 809.527 4.21502 0.459616 0
M  V30 8343 C 807.986 3.06425 1.40019 0
M  V30 8344 O 808.516 3.14708 2.49643 0
M  V30 8345 N 806.722 2.61339 1.27084 0
M  V30 8346 H 806.269 2.54799 0.378872 0
M  V30 8347 H 806.227 2.34364 2.09573 0
M  V30 8348 N 809.999 0.752036 1.385 0
M  V30 8349 C 811.415 0.42946 1.53713 0
M  V30 8350 C 811.615 -1.0576 1.71514 0
M  V30 8351 O 810.671 -1.84366 1.72527 0
M  V30 8352 C 811.984 1.22735 2.74511 0
M  V30 8353 C 813.532 1.21727 2.8836 0
M  V30 8354 C 814.007 1.99809 4.12117 0
M  V30 8355 N 815.498 1.97062 4.19191 0
M  V30 8356 C 816.233 2.54274 5.13938 0
M  V30 8357 N 815.729 3.20193 6.14368 0
M  V30 8358 N 817.522 2.44212 5.06277 0
M  V30 8359 H 809.673 1.71581 1.25195 0
M  V30 8360 H 811.936 0.727293 0.60807 0
M  V30 8361 H 811.642 2.28032 2.67758 0
M  V30 8362 H 811.516 0.843186 3.67655 0
M  V30 8363 H 813.903 0.172367 2.94596 0
M  V30 8364 H 813.984 1.64094 1.96232 0
M  V30 8365 H 813.628 3.0431 4.06642 0
M  V30 8366 H 813.558 1.54837 5.03322 0
M  V30 8367 H 816.049 1.49054 3.47263 0
M  V30 8368 H 816.362 3.61272 6.83156 0
M  V30 8369 H 814.707 3.24287 6.14705 0
M  V30 8370 H 817.898 1.92343 4.26757 0
M  V30 8371 H 818.071 2.89096 5.79937 0
M  V30 8372 N 811.477 -1.49425 0.500989 0
M  V30 8373 C 812.44 -2.27646 -0.266416 0
M  V30 8374 C 813.44 -1.3366 -0.893961 0
M  V30 8375 O 814.63 -1.5682 -0.758495 0
M  V30 8376 C 811.762 -3.11618 -1.38227 0
M  V30 8377 H 812.955 -2.96945 0.419973 0
M  V30 8378 H 810.508 -1.5419 0.255954 0
M  V30 8379 H 811.243 -2.46885 -2.10281 0
M  V30 8380 H 811.028 -3.80721 -0.937746 0
M  V30 8381 H 812.518 -3.70698 -1.92283 0
M  V30 8382 N 812.955 -0.234822 -1.55841 0
M  V30 8383 C 814.371 0.120295 -1.59146 0
M  V30 8384 C 814.571 1.57896 -1.25184 0
M  V30 8385 O 813.627 2.32138 -0.993393 0
M  V30 8386 C 814.94 -0.217984 -2.99909 0
M  V30 8387 C 816.488 -0.161298 -3.12584 0
M  V30 8388 C 816.963 -0.473438 -4.55546 0
M  V30 8389 N 818.454 -0.423494 -4.6126 0
M  V30 8390 C 819.189 -0.638334 -5.69836 0
M  V30 8391 N 818.685 -0.915659 -6.86722 0
M  V30 8392 N 820.478 -0.569864 -5.59204 0
M  V30 8393 H 812.629 -1.18622 -1.76189 0
M  V30 8394 H 814.892 -0.476426 -0.819587 0
M  V30 8395 H 814.598 -1.2309 -3.29457 0
M  V30 8396 H 814.472 0.460707 -3.74376 0
M  V30 8397 H 816.859 0.842274 -2.82825 0
M  V30 8398 H 816.94 -0.873661 -2.40418 0
M  V30 8399 H 816.584 -1.47451 -4.86025 0
M  V30 8400 H 816.514 0.260268 -5.25956 0
M  V30 8401 H 819.005 -0.217383 -3.77274 0
M  V30 8402 H 819.318 -1.06734 -7.65394 0
M  V30 8403 H 817.663 -0.953 -6.88435 0
M  V30 8404 H 820.854 -0.35334 -4.66765 0
M  V30 8405 H 821.027 -0.740698 -6.43753 0
M  V30 8406 N 814.433 1.57553 0.0384317 0
M  V30 8407 C 815.71 1.79977 0.766002 0
M  V30 8408 C 816.09 0.830625 1.94072 0
M  V30 8409 O 815.438 -0.129243 2.28134 0
M  V30 8410 C 815.648 3.27434 1.20781 0
M  V30 8411 C 816.996 3.92167 1.62758 0
M  V30 8412 O 818.02 3.31527 1.30263 0
M  V30 8413 O 816.879 4.98917 2.23035 0
M  V30 8414 H 813.973 0.739787 0.369654 0
M  V30 8415 H 816.519 1.69693 0.0159312 0
M  V30 8416 H 815.291 3.89558 0.368792 0
M  V30 8417 H 814.914 3.42571 2.01819 0
M  V30 8418 N 815.911 -0.310526 1.54511 0
M  V30 8419 C 817.136 -1.07046 1.7764 0
M  V30 8420 C 817.561 -1.80488 0.529696 0
M  V30 8421 O 816.919 -1.73702 -0.519361 0
M  V30 8422 C 816.967 -2.03411 2.97752 0
M  V30 8423 O 816.071 -3.11545 2.7021 0
M  V30 8424 H 815.412 -0.307994 0.588248 0
M  V30 8425 H 817.942 -0.350848 2.01569 0
M  V30 8426 H 817.952 -2.46048 3.2546 0
M  V30 8427 H 816.627 -1.49361 3.88155 0
M  V30 8428 H 815.204 -2.7349 2.53491 0
M  V30 8429 N 817.389 -1.46805 -0.573248 0
M  V30 8430 C 818.666 -1.43082 -1.33368 0
M  V30 8431 C 819.046 -0.119252 -2.10763 0
M  V30 8432 O 818.394 0.899239 -2.10062 0
M  V30 8433 C 818.604 -2.66643 -2.25172 0
M  V30 8434 C 819.952 -3.13188 -2.86702 0
M  V30 8435 O 820.976 -2.67258 -2.35482 0
M  V30 8436 O 819.835 -3.92994 -3.79761 0
M  V30 8437 H 816.929 -0.569451 -0.599712 0
M  V30 8438 H 819.475 -1.58984 -0.59348 0
M  V30 8439 H 818.247 -3.53649 -1.67475 0
M  V30 8440 H 817.87 -2.53247 -3.06516 0
M  V30 8441 N 818.867 0.818669 -1.34668 0
M  V30 8442 C 820.097 1.60441 -1.30162 0
M  V30 8443 C 820.505 1.88783 0.125579 0
M  V30 8444 O 819.848 1.48281 1.08437 0
M  V30 8445 C 819.91 2.96794 -2.02864 0
M  V30 8446 C 819.574 2.91327 -3.52105 0
M  V30 8447 C 820.571 2.65611 -4.4693 0
M  V30 8448 C 818.256 3.10825 -3.9458 0
M  V30 8449 C 820.25 2.59452 -5.82206 0
M  V30 8450 C 817.937 3.0429 -5.29954 0
M  V30 8451 C 818.935 2.78637 -6.23579 0
M  V30 8452 O 818.623 2.72042 -7.56471 0
M  V30 8453 H 818.355 0.505278 -0.449077 0
M  V30 8454 H 820.909 1.02632 -1.77921 0
M  V30 8455 H 819.139 3.56538 -1.49725 0
M  V30 8456 H 820.828 3.57837 -1.91592 0
M  V30 8457 H 821.594 2.50278 -4.15434 0
M  V30 8458 H 817.473 3.29807 -3.221 0
M  V30 8459 H 821.017 2.39349 -6.55254 0
M  V30 8460 H 816.914 3.19177 -5.61067 0
M  V30 8461 H 817.682 2.87738 -7.66257 0
M  V30 8462 N 820.346 1.18468 1.03938 0
M  V30 8463 C 821.256 0.927889 2.1547 0
M  V30 8464 C 822.272 -0.108447 1.73662 0
M  V30 8465 O 823.448 0.0737636 2.01265 0
M  V30 8466 C 820.513 0.458494 3.43655 0
M  V30 8467 C 819.574 1.56295 3.99838 0
M  V30 8468 C 818.807 1.11586 5.21904 0
M  V30 8469 O 819.03 -0.0249057 5.70395 0
M  V30 8470 O 817.964 1.91412 5.70653 0
M  V30 8471 H 821.79 1.86116 2.39989 0
M  V30 8472 H 819.375 0.966607 1.13917 0
M  V30 8473 H 821.257 0.204861 4.20902 0
M  V30 8474 H 819.932 -0.446464 3.20606 0
M  V30 8475 H 818.839 1.87061 3.23974 0
M  V30 8476 H 820.172 2.44408 4.2723 0
M  V30 8477 N 821.824 -1.22873 0.986916 0
M  V30 8478 C 822.757 -2.23154 0.477245 0
M  V30 8479 C 823.735 -1.55981 -0.459206 0
M  V30 8480 O 824.919 -1.84503 -0.386141 0
M  V30 8481 C 822.046 -3.37289 -0.308838 0
M  V30 8482 C 821.092 -4.22637 0.572717 0
M  V30 8483 S 821.925 -4.95758 2.02446 0
M  V30 8484 C 823.081 -6.13338 1.2477 0
M  V30 8485 H 823.314 -2.6604 1.32702 0
M  V30 8486 H 820.847 -1.32455 0.793415 0
M  V30 8487 H 822.805 -4.03472 -0.756351 0
M  V30 8488 H 821.466 -2.92922 -1.13381 0
M  V30 8489 H 820.659 -5.0399 -0.0318024 0
M  V30 8490 H 820.261 -3.61555 0.956746 0
M  V30 8491 H 822.553 -6.7556 0.51231 0
M  V30 8492 H 823.496 -6.78189 2.03629 0
M  V30 8493 H 823.904 -5.59311 0.763622 0
M  V30 8494 N 823.302 -0.75937 -1.38099 0
M  V30 8495 C 824.579 -0.243371 -1.9408 0
M  V30 8496 C 824.959 1.25942 -1.69416 0
M  V30 8497 O 824.307 2.03667 -1.03595 0
M  V30 8498 C 824.517 -0.603328 -3.43745 0
M  V30 8499 C 825.865 -0.566195 -4.20808 0
M  V30 8500 O 826.889 -0.541969 -3.52053 0
M  V30 8501 O 825.748 -0.582261 -5.43389 0
M  V30 8502 H 822.842 -0.0526825 -0.82532 0
M  V30 8503 H 825.388 -0.839884 -1.47459 0
M  V30 8504 H 824.16 -1.64098 -3.55229 0
M  V30 8505 H 823.783 0.0208887 -3.97595 0
M  V30 8506 N 824.78 1.49157 -0.508906 0
M  V30 8507 C 826.005 2.07376 0.0315182 0
M  V30 8508 C 826.43 1.36575 1.2934 0
M  V30 8509 O 825.788 0.424963 1.76249 0
M  V30 8510 C 825.836 3.59661 0.260118 0
M  V30 8511 O 824.94 3.90255 1.33322 0
M  V30 8512 H 824.281 0.663334 -0.029739 0
M  V30 8513 H 826.811 1.91857 -0.710791 0
M  V30 8514 H 826.821 4.05056 0.489225 0
M  V30 8515 H 825.496 4.10601 -0.661794 0
M  V30 8516 H 824.073 3.56661 1.08844 0
M  V30 8517 N 826.258 0.243083 1.55714 0
M  V30 8518 C 827.483 -0.389944 2.03701 0
M  V30 8519 C 827.908 -1.51025 1.12129 0
M  V30 8520 O 827.266 -1.80944 0.11352 0
M  V30 8521 C 827.314 -0.878649 3.49731 0
M  V30 8522 O 826.418 -1.98851 3.61292 0
M  V30 8523 H 825.759 -0.0855115 0.658471 0
M  V30 8524 H 828.289 0.368023 2.01263 0
M  V30 8525 H 828.299 -1.18287 3.90477 0
M  V30 8526 H 826.974 -0.0588107 4.15858 0
M  V30 8527 H 825.551 -1.68928 3.32442 0
M  V30 8528 N 827.736 -1.57571 -0.0300757 0
M  V30 8529 C 828.961 -1.93879 -0.736601 0
M  V30 8530 C 829.386 -0.842998 -1.68152 0
M  V30 8531 O 828.744 0.20135 -1.80178 0
M  V30 8532 C 828.792 -3.29247 -1.47066 0
M  V30 8533 O 827.896 -3.21426 -2.58378 0
M  V30 8534 H 827.237 -0.633735 -0.198181 0
M  V30 8535 H 829.767 -2.04595 0.0141485 0
M  V30 8536 H 829.777 -3.64113 -1.84081 0
M  V30 8537 H 828.452 -4.08565 -0.77764 0
M  V30 8538 H 827.029 -2.98189 -2.23914 0
M  V30 8539 N 829.214 0.302327 -1.54673 0
M  V30 8540 C 830.63 0.647911 -1.45857 0
M  V30 8541 C 830.83 1.90773 -0.64869 0
M  V30 8542 O 829.886 2.52018 -0.155865 0
M  V30 8543 C 831.199 0.802144 -2.89804 0
M  V30 8544 C 832.747 0.898114 -2.99838 0
M  V30 8545 C 833.222 1.08436 -4.44978 0
M  V30 8546 N 834.713 1.15059 -4.48682 0
M  V30 8547 C 835.448 1.31296 -5.58166 0
M  V30 8548 N 834.944 1.4444 -6.77576 0
M  V30 8549 N 836.737 1.34174 -5.45851 0
M  V30 8550 H 828.888 -0.525428 -2.05798 0
M  V30 8551 H 831.151 -0.173423 -0.932002 0
M  V30 8552 H 830.857 -0.0526531 -3.51661 0
M  V30 8553 H 830.731 1.69155 -3.37145 0
M  V30 8554 H 833.118 1.7434 -2.38096 0
M  V30 8555 H 833.199 -0.0152752 -2.55795 0
M  V30 8556 H 832.843 0.243843 -5.07314 0
M  V30 8557 H 832.773 2.01195 -4.8665 0
M  V30 8558 H 835.264 1.0626 -3.62653 0
M  V30 8559 H 835.577 1.56582 -7.56771 0
M  V30 8560 H 833.922 1.41499 -6.80443 0
M  V30 8561 H 837.113 1.23516 -4.5151 0
M  V30 8562 H 837.286 1.46485 -6.31226 0
M  V30 8563 N 830.692 1.47107 0.565454 0
M  V30 8564 C 831.917 1.57153 1.35343 0
M  V30 8565 C 832.342 0.219247 1.86818 0
M  V30 8566 O 831.7 -0.803539 1.62521 0
M  V30 8567 C 831.748 2.59387 2.50501 0
M  V30 8568 O 830.852 2.14086 3.52478 0
M  V30 8569 H 830.193 0.528209 0.402357 0
M  V30 8570 H 832.723 1.92821 0.684189 0
M  V30 8571 H 832.733 2.79546 2.97184 0
M  V30 8572 H 831.408 3.57579 2.12391 0
M  V30 8573 H 829.985 2.03991 3.12157 0
M  V30 8574 N 832.17 -0.811516 1.35101 0
M  V30 8575 C 833.12 -1.91227 1.24163 0
M  V30 8576 C 834.104 -1.60307 0.138012 0
M  V30 8577 O 835.296 -1.73116 0.368767 0
M  V30 8578 C 832.425 -3.2808 1.01085 0
M  V30 8579 C 831.511 -3.65082 2.15815 0
M  V30 8580 N 831.902 -3.73558 3.4101 0
M  V30 8581 C 830.2 -3.95005 2.07092 0
M  V30 8582 C 830.901 -4.06158 4.16426 0
M  V30 8583 N 829.877 -4.19982 3.45132 0
M  V30 8584 H 833.679 -1.95975 2.19023 0
M  V30 8585 H 831.193 -1.00583 1.27503 0
M  V30 8586 H 833.19 -4.06771 0.913382 0
M  V30 8587 H 831.85 -3.24622 0.0710406 0
M  V30 8588 H 832.861 -3.56761 3.75423 0
M  V30 8589 H 829.538 -3.99601 1.20937 0
M  V30 8590 H 830.928 -4.19824 5.24592 0
M  V30 8591 N 833.648 -1.19017 -1.03309 0
M  V30 8592 C 834.578 -0.94772 -2.13402 0
M  V30 8593 C 835.559 0.117383 -1.69694 0
M  V30 8594 O 836.744 -0.0367733 -1.94165 0
M  V30 8595 C 833.874 -0.480977 -3.43953 0
M  V30 8596 C 832.828 -1.48743 -4.01322 0
M  V30 8597 C 832.154 -0.877924 -5.27443 0
M  V30 8598 C 833.454 -2.86642 -4.36616 0
M  V30 8599 H 835.148 -1.86846 -2.33942 0
M  V30 8600 H 832.694 -0.899781 -1.12427 0
M  V30 8601 H 834.647 -0.298677 -4.2034 0
M  V30 8602 H 833.371 0.475348 -3.23122 0
M  V30 8603 H 832.03 -1.65681 -3.27025 0
M  V30 8604 H 831.678 0.0858232 -5.02927 0
M  V30 8605 H 831.378 -1.54996 -5.66789 0
M  V30 8606 H 832.902 -0.706326 -6.06501 0
M  V30 8607 H 834.316 -2.73312 -5.03958 0
M  V30 8608 H 832.713 -3.50599 -4.87032 0
M  V30 8609 H 833.783 -3.39617 -3.46105 0
M  V30 8610 N 835.127 1.22348 -0.993418 0
M  V30 8611 C 836.543 1.43222 -0.704238 0
M  V30 8612 C 836.743 1.88009 0.724909 0
M  V30 8613 O 835.799 2.03429 1.49575 0
M  V30 8614 C 837.112 2.47328 -1.71025 0
M  V30 8615 C 838.66 2.61126 -1.72576 0
M  V30 8616 C 839.135 3.68453 -2.72041 0
M  V30 8617 N 840.626 3.75911 -2.70639 0
M  V30 8618 C 841.361 4.58551 -3.44266 0
M  V30 8619 N 840.857 5.45179 -4.27495 0
M  V30 8620 N 842.65 4.52866 -3.32969 0
M  V30 8621 H 834.801 0.915832 -1.91641 0
M  V30 8622 H 837.064 0.464283 -0.826526 0
M  V30 8623 H 836.77 2.21366 -2.73295 0
M  V30 8624 H 836.644 3.45939 -1.50353 0
M  V30 8625 H 839.031 2.86431 -0.710037 0
M  V30 8626 H 839.112 1.62787 -1.97317 0
M  V30 8627 H 838.756 3.43895 -3.73763 0
M  V30 8628 H 838.686 4.66362 -2.4457 0
M  V30 8629 H 841.177 3.14014 -2.10247 0
M  V30 8630 H 841.49 6.0526 -4.80499 0
M  V30 8631 H 839.835 5.44759 -4.31582 0
M  V30 8632 H 843.026 3.84215 -2.67389 0
M  V30 8633 H 843.199 5.17039 -3.90608 0
M  V30 8634 N 836.605 0.766683 1.37694 0
M  V30 8635 C 837.568 0.155849 2.2867 0
M  V30 8636 C 838.568 -0.633509 1.47795 0
M  V30 8637 O 839.758 -0.457844 1.68076 0
M  V30 8638 C 836.89 -0.786965 3.31692 0
M  V30 8639 H 838.083 0.957748 2.84196 0
M  V30 8640 H 835.636 0.534554 1.46875 0
M  V30 8641 H 836.371 -1.61406 2.8128 0
M  V30 8642 H 836.156 -0.223182 3.91464 0
M  V30 8643 H 837.646 -1.20994 3.99688 0
M  V30 8644 N 838.083 -1.48885 0.516809 0
M  V30 8645 C 839.332 -2.01686 -0.0239899 0
M  V30 8646 C 839.645 -1.40029 -1.3657 0
M  V30 8647 O 840.851 -1.84249 -1.9941 0
M  V30 8648 C 839.307 -3.59779 -0.0931825 0
M  V30 8649 C 838.915 -4.30416 1.24283 0
M  V30 8650 C 840.659 -4.20471 -0.583507 0
M  V30 8651 C 838.566 -5.80408 1.13494 0
M  V30 8652 H 837.496 -0.753892 -0.0127376 0
M  V30 8653 H 840.147 -1.71273 0.65861 0
M  V30 8654 H 838.529 -3.86976 -0.840577 0
M  V30 8655 H 839.703 -4.14905 2.00476 0
M  V30 8656 H 838.018 -3.81539 1.66785 0
M  V30 8657 H 840.615 -5.30333 -0.681987 0
M  V30 8658 H 840.958 -3.84898 -1.58617 0
M  V30 8659 H 841.491 -3.97654 0.107814 0
M  V30 8660 H 838.23 -6.20532 2.11235 0
M  V30 8661 H 837.75 -5.98368 0.414167 0
M  V30 8662 H 839.429 -6.41781 0.820162 0
M  V30 8663 N 839.561 -0.251338 -1.55583 0
M  V30 8664 C 840.838 0.422729 -1.90977 0
M  V30 8665 C 841.218 1.75534 -1.17265 0
M  V30 8666 O 840.566 2.26632 -0.291588 0
M  V30 8667 C 840.776 0.586448 -3.44037 0
M  V30 8668 C 842.124 0.880294 -4.15375 0
M  V30 8669 O 843.148 0.672148 -3.49801 0
M  V30 8670 O 842.007 1.27694 -5.31372 0
M  V30 8671 H 839.101 0.227622 -0.795058 0
M  V30 8672 H 841.647 -0.295733 -1.67103 0
M  V30 8673 H 840.419 -0.352327 -3.89711 0
M  V30 8674 H 840.042 1.35528 -3.73789 0
M  V30 8675 N 841.039 1.57585 0.0217189 0
M  V30 8676 C 841.987 2.08134 1.03842 0
M  V30 8677 C 842.981 0.996662 1.36978 0
M  V30 8678 O 844.187 1.18149 1.35797 0
M  V30 8679 H 840.562 0.664298 0.352438 0
M  V30 8680 H 842.533 2.92583 0.58634 0
M  V30 8681 C 841.282 2.58218 2.32849 0
M  V30 8682 H 840.605 3.41302 2.08214 0
M  V30 8683 H 842.045 2.97289 3.02316 0
M  V30 8684 C 840.504 1.48664 3.02325 0
M  V30 8685 O 841.034 0.857075 3.9245 0
M  V30 8686 N 839.24 1.21938 2.63779 0
M  V30 8687 H 838.787 1.73319 1.90574 0
M  V30 8688 H 838.745 0.488523 3.10581 0
M  V30 8689 N 842.517 -0.29412 1.54831 0
M  V30 8690 C 843.449 -1.38476 1.82639 0
M  V30 8691 C 844.462 -1.46517 0.709694 0
M  V30 8692 O 845.651 -1.48712 0.987269 0
M  V30 8693 C 842.751 -2.76791 1.95551 0
M  V30 8694 C 841.924 -2.91599 3.26019 0
M  V30 8695 C 840.983 -4.10456 3.29261 0
M  V30 8696 O 840.009 -4.02214 4.02756 0
M  V30 8697 N 841.211 -5.21422 2.55145 0
M  V30 8698 H 843.976 -1.14974 2.76769 0
M  V30 8699 H 841.537 -0.484206 1.5449 0
M  V30 8700 H 843.529 -3.5456 1.95113 0
M  V30 8701 H 842.099 -2.93209 1.08384 0
M  V30 8702 H 841.319 -2.00886 3.39173 0
M  V30 8703 H 842.607 -2.98409 4.12104 0
M  V30 8704 H 842.005 -5.31 1.95078 0
M  V30 8705 H 840.562 -5.97501 2.60454 0
M  V30 8706 N 843.995 -1.47404 -0.557645 0
M  V30 8707 C 845.225 -1.57393 -1.33832 0
M  V30 8708 C 845.633 -0.222978 -1.87881 0
M  V30 8709 O 844.976 0.793854 -1.65661 0
M  V30 8710 C 845.038 -2.53882 -2.54528 0
M  V30 8711 C 844.702 -3.99585 -2.21767 0
M  V30 8712 C 845.699 -4.88082 -1.79087 0
M  V30 8713 C 843.384 -4.44917 -2.3314 0
M  V30 8714 C 845.378 -6.1993 -1.48209 0
M  V30 8715 C 843.065 -5.76793 -2.01874 0
M  V30 8716 C 844.063 -6.64121 -1.59476 0
M  V30 8717 O 843.751 -7.93546 -1.28607 0
M  V30 8718 H 843.483 -0.534172 -0.41429 0
M  V30 8719 H 846.037 -1.93733 -0.682404 0
M  V30 8720 H 844.267 -2.12609 -3.23009 0
M  V30 8721 H 845.956 -2.54003 -3.16603 0
M  V30 8722 H 846.722 -4.54307 -1.69794 0
M  V30 8723 H 842.601 -3.77152 -2.65099 0
M  V30 8724 H 846.145 -6.88049 -1.15043 0
M  V30 8725 H 842.042 -6.1011 -2.10799 0
M  V30 8726 H 842.81 -8.06046 -1.42241 0
M  V30 8727 N 845.473 0.80434 -1.35529 0
M  V30 8728 C 846.701 1.59283 -1.32048 0
M  V30 8729 C 847.116 1.88527 0.101556 0
M  V30 8730 O 846.473 1.48975 1.05417 0
M  V30 8731 C 846.524 2.92276 -2.12737 0
M  V30 8732 O 846.245 2.64299 -3.49396 0
M  V30 8733 C 847.746 3.86631 -2.16867 0
M  V30 8734 H 844.966 0.494523 -0.453528 0
M  V30 8735 H 847.51 0.999415 -1.78415 0
M  V30 8736 H 845.665 3.48125 -1.69964 0
M  V30 8737 H 846.079 3.4923 -3.91329 0
M  V30 8738 H 847.553 4.77053 -2.77712 0
M  V30 8739 H 848.03 4.23384 -1.16803 0
M  V30 8740 H 848.636 3.36717 -2.59811 0
M  V30 8741 N 846.951 1.19563 1.02676 0
M  V30 8742 C 848.362 1.00158 1.57561 0
M  V30 8743 C 848.713 -0.444922 1.91089 0
M  V30 8744 O 847.838 -1.32466 1.71119 0
M  V30 8745 C 848.433 1.81181 2.86284 0
M  V30 8746 C 846.992 1.66171 3.37734 0
M  V30 8747 C 846.139 1.7975 2.11152 0
M  V30 8748 H 849.09 1.33904 0.85179 0
M  V30 8749 H 849.111 1.30916 3.57269 0
M  V30 8750 H 848.623 2.86454 2.6185 0
M  V30 8751 H 846.724 0.634927 3.6715 0
M  V30 8752 H 846.837 2.46832 4.10622 0
M  V30 8753 H 845.201 1.22833 2.23123 0
M  V30 8754 H 845.984 2.86487 1.89157 0
M  V30 8755 N 848.429 -1.21819 0.999893 0
M  V30 8756 C 849.359 -2.26282 0.576096 0
M  V30 8757 C 850.34 -1.65317 -0.400537 0
M  V30 8758 O 851.525 -1.92028 -0.28964 0
M  V30 8759 C 848.655 -3.47147 -0.103145 0
M  V30 8760 C 847.609 -4.20594 0.792745 0
M  V30 8761 C 846.935 -5.34696 -0.0198026 0
M  V30 8762 C 848.235 -4.78533 2.09293 0
M  V30 8763 H 849.929 -2.61984 1.4493 0
M  V30 8764 H 847.475 -1.25935 0.698316 0
M  V30 8765 H 849.428 -4.1939 -0.411068 0
M  V30 8766 H 848.152 -3.1056 -1.01094 0
M  V30 8767 H 846.811 -3.50194 1.08442 0
M  V30 8768 H 846.459 -4.94352 -0.928729 0
M  V30 8769 H 846.159 -5.84764 0.576661 0
M  V30 8770 H 847.683 -6.09752 -0.321659 0
M  V30 8771 H 849.097 -5.42682 1.8485 0
M  V30 8772 H 847.494 -5.38968 2.63881 0
M  V30 8773 H 848.564 -3.98197 2.76708 0
M  V30 8774 O 849.946 -0.910688 -1.33374 0
M  V30 8775 H 850.637 -0.526159 -1.86417 0
M  V30 END ATOM
M  V30 BEGIN BOND
M  V30 END BOND
M  V30 END CTAB
M  END
$$$$
