drugbank_target|Q9UQL6 Histone deacetylase 5 (DB05015; DB06603)
 OpenBabel12092121043D

  0  0  0     0  0            999 V3000
M  V30 BEGIN CTAB
M  V30 COUNTS 17064 17237 0 0 0
M  V30 BEGIN ATOM
M  V30 1 H -0.908 1.98254 -0.117106 0
M  V30 2 N 0 1.576 0 0
M  V30 3 C 0.933 2.03868 1.02534 0
M  V30 4 C 1.911 0.928543 1.3348 0
M  V30 5 O 3.095 1.19667 1.45644 0
M  V30 6 C 0.222 2.43627 2.35294 0
M  V30 7 C -0.732 3.65373 2.2001 0
M  V30 8 S 0.101 5.13292 1.52614 0
M  V30 9 C 1.257 5.56322 2.86805 0
M  V30 10 H 1.49 2.90518 0.631377 0
M  V30 11 H -0.977 1.52953 0.210867 0
M  V30 12 H 0.981 2.67203 3.11629 0
M  V30 13 H -0.358 1.57376 2.7183 0
M  V30 14 H -1.165 3.90944 3.18086 0
M  V30 15 H -1.563 3.418 1.51819 0
M  V30 16 H 0.729 5.58782 3.83104 0
M  V30 17 H 1.672 6.56266 2.65933 0
M  V30 18 H 2.08 4.83886 2.90714 0
M  V30 19 N 1.4781 -0.272755 1.55222 0
M  V30 20 C 2.4261 -1.35705 1.88909 0
M  V30 21 C 3.4201 -1.5112 0.765456 0
M  V30 22 O 4.6261 -1.52901 0.949802 0
M  V30 23 H 1.0011 -0.453868 0.59959 0
M  V30 24 H 2.9721 -1.04544 2.79487 0
M  V30 25 C 1.7211 -2.71049 2.17779 0
M  V30 26 H 1.0441 -2.59979 3.03728 0
M  V30 27 H 2.4841 -3.45858 2.45272 0
M  V30 28 C 0.9431 -3.22165 0.985473 0
M  V30 29 O 1.4731 -4.01096 0.220233 0
M  V30 30 N -0.3209 -2.7985 0.783108 0
M  V30 31 H -0.7739 -2.15775 1.40708 0
M  V30 32 H -0.8159 -3.14397 -0.0130392 0
M  V30 33 N 2.9562 -1.48159 -0.537278 0
M  V30 34 C 4.1812 -1.59707 -1.32319 0
M  V30 35 C 4.6062 -0.254859 -1.86365 0
M  V30 36 O 3.9642 0.772378 -1.64024 0
M  V30 37 C 4.0122 -2.6412 -2.45505 0
M  V30 38 O 3.1162 -2.20774 -3.48328 0
M  V30 39 H 2.4572 -0.535791 -0.392204 0
M  V30 40 H 4.9872 -1.94092 -0.647268 0
M  V30 41 H 4.9972 -2.85166 -2.91795 0
M  V30 42 H 3.6722 -3.61567 -2.05528 0
M  V30 43 H 2.2492 -2.09911 -3.08207 0
M  V30 44 N 4.4343 0.785586 -1.36625 0
M  V30 45 C 5.8453 1.36101 -1.27803 0
M  V30 46 C 6.1963 1.96035 0.0804875 0
M  V30 47 O 5.3213 1.92834 0.982042 0
M  V30 48 C 5.9163 2.47442 -2.31426 0
M  V30 49 C 4.4753 3.00789 -2.26281 0
M  V30 50 C 3.6223 1.73896 -2.15999 0
M  V30 51 H 6.5733 0.586928 -1.47448 0
M  V30 52 H 6.5943 3.2656 -1.95291 0
M  V30 53 H 6.1063 2.03791 -3.30289 0
M  V30 54 H 4.2073 3.48851 -1.30896 0
M  V30 55 H 4.3203 3.57343 -3.19128 0
M  V30 56 H 2.6843 1.9628 -1.62316 0
M  V30 57 H 3.4673 1.32368 -3.16755 0
M  V30 58 N 5.9124 1.20967 1.01018 0
M  V30 59 C 6.8604 0.961223 2.1181 0
M  V30 60 C 7.8544 -0.0897034 1.69162 0
M  V30 61 O 9.0604 0.0612271 1.79896 0
M  V30 62 H 5.4354 0.29355 0.692338 0
M  V30 63 H 7.4064 1.90178 2.29946 0
M  V30 64 C 6.1554 0.536854 3.4353 0
M  V30 65 H 5.4784 1.33713 3.76777 0
M  V30 66 H 6.9184 0.402286 4.22087 0
M  V30 67 C 5.3774 -0.751574 3.2841 0
M  V30 68 O 5.9074 -1.80841 3.58691 0
M  V30 69 N 4.1134 -0.716079 2.81639 0
M  V30 70 H 3.6604 0.144236 2.57196 0
M  V30 71 H 3.6184 -1.57847 2.71904 0
M  V30 72 N 7.3905 -1.2043 1.01659 0
M  V30 73 C 8.3005 -2.2689 0.596484 0
M  V30 74 C 9.3165 -1.70107 -0.36599 0
M  V30 75 O 10.4925 -2.00117 -0.226942 0
M  V30 76 C 7.5575 -3.4665 -0.0586659 0
M  V30 77 C 6.6185 -4.18662 0.949751 0
M  V30 78 C 5.8515 -5.32705 0.32577 0
M  V30 79 O 6.0745 -5.63656 -0.874509 0
M  V30 80 O 5.0085 -5.92803 1.04249 0
M  V30 81 H 8.8345 -2.65041 1.4828 0
M  V30 82 H 6.4195 -1.27048 0.786082 0
M  V30 83 H 8.3015 -4.19256 -0.424564 0
M  V30 84 H 6.9765 -3.10375 -0.91918 0
M  V30 85 H 5.8835 -3.48229 1.36702 0
M  V30 86 H 7.2165 -4.58878 1.78023 0
M  V30 87 N 8.8686 -0.792821 -1.36206 0
M  V30 88 C 10.0936 -0.377701 -2.03932 0
M  V30 89 C 10.5186 0.998947 -1.59382 0
M  V30 90 O 9.8766 1.64421 -0.763903 0
M  V30 91 C 9.9246 -0.453635 -3.57735 0
M  V30 92 O 9.0286 0.538151 -4.08874 0
M  V30 93 H 8.3696 -0.159855 -0.644471 0
M  V30 94 H 10.8996 -1.07488 -1.7409 0
M  V30 95 H 10.9096 -0.318464 -4.06755 0
M  V30 96 H 9.5846 -1.45784 -3.89512 0
M  V30 97 H 8.1616 0.364359 -3.71116 0
M  V30 98 N 10.3467 1.47872 -0.545128 0
M  V30 99 C 11.6237 1.9554 0.0485222 0
M  V30 100 C 12.0037 1.4876 1.49779 0
M  V30 101 O 11.3517 0.720925 2.16829 0
M  V30 102 C 11.5617 3.48898 -0.084417 0
M  V30 103 C 12.9097 4.24547 0.0671239 0
M  V30 104 O 13.9337 3.56198 -0.0113649 0
M  V30 105 O 12.7927 5.45999 0.233882 0
M  V30 106 H 9.8867 0.823957 0.0708773 0
M  V30 107 H 12.4327 1.58327 -0.610798 0
M  V30 108 H 11.2047 3.75714 -1.09337 0
M  V30 109 H 10.8277 3.92845 0.613066 0
M  V30 110 N 11.8248 0.280983 1.55075 0
M  V30 111 C 13.0728 -0.333455 1.9933 0
M  V30 112 C 13.3938 -1.55937 1.17085 0
M  V30 113 O 12.6638 -1.94143 0.261805 0
M  V30 114 H 11.2438 -0.126197 0.736263 0
M  V30 115 H 13.9058 0.387678 1.91005 0
M  V30 116 H 13.0018 -0.619292 3.05894 0
M  V30 117 N 13.3029 -1.57598 0.00835791 0
M  V30 118 C 14.2359 -2.04409 -1.01451 0
M  V30 119 C 15.2139 -0.935609 -1.32985 0
M  V30 120 O 16.3979 -1.20437 -1.45007 0
M  V30 121 C 13.5249 -2.44872 -2.33999 0
M  V30 122 C 12.5709 -3.66535 -2.18069 0
M  V30 123 S 13.4039 -5.14095 -1.4989 0
M  V30 124 C 14.5599 -5.57835 -2.8385 0
M  V30 125 H 14.7929 -2.90849 -0.615961 0
M  V30 126 H 12.3259 -1.53063 -0.202752 0
M  V30 127 H 14.2839 -2.68852 -3.10208 0
M  V30 128 H 12.9449 -1.58815 -2.70992 0
M  V30 129 H 12.1379 -3.92626 -3.16008 0
M  V30 130 H 11.7399 -3.426 -1.50004 0
M  V30 131 H 14.0319 -5.60806 -3.80136 0
M  V30 132 H 14.9749 -6.57667 -2.62449 0
M  V30 133 H 15.3829 -4.85421 -2.88144 0
M  V30 134 N 14.781 0.264519 -1.55364 0
M  V30 135 C 16.006 1.01726 -1.80739 0
M  V30 136 C 16.431 1.78836 -0.583044 0
M  V30 137 O 15.789 1.75167 0.467566 0
M  V30 138 C 15.837 1.94482 -3.03659 0
M  V30 139 O 14.941 3.03386 -2.7934 0
M  V30 140 H 14.282 0.290395 -0.597132 0
M  V30 141 H 16.812 0.290854 -2.02522 0
M  V30 142 H 16.822 2.36278 -3.32621 0
M  V30 143 H 15.497 1.37772 -3.92418 0
M  V30 144 H 14.074 2.65844 -2.61498 0
M  V30 145 N 16.2591 1.48442 0.529413 0
M  V30 146 C 17.5071 1.56179 1.28267 0
M  V30 147 C 17.8281 0.237721 1.93546 0
M  V30 148 O 17.0981 -0.740779 1.81354 0
M  V30 149 H 15.6781 0.575367 0.476405 0
M  V30 150 H 18.3401 1.84909 0.61602 0
M  V30 151 H 17.4361 2.34312 2.06165 0
M  V30 152 N 17.7372 -0.778329 1.37039 0
M  V30 153 C 19.1532 -1.07796 1.17695 0
M  V30 154 C 19.3532 -2.01498 0.00860115 0
M  V30 155 O 18.4092 -2.43901 -0.653352 0
M  V30 156 C 19.7222 -1.68178 2.49272 0
M  V30 157 C 21.2702 -1.80467 2.55735 0
M  V30 158 C 21.7452 -2.44263 3.87427 0
M  V30 159 N 23.2362 -2.51721 3.88833 0
M  V30 160 C 23.9712 -3.01919 4.87476 0
M  V30 161 N 23.4672 -3.5234 5.96513 0
M  V30 162 N 25.2602 -3.00733 4.74885 0
M  V30 163 H 17.4112 -0.156032 2.11826 0
M  V30 164 H 19.6742 -0.131844 0.938787 0
M  V30 165 H 19.3802 -1.06796 3.35093 0
M  V30 166 H 19.2542 -2.67554 2.65885 0
M  V30 167 H 21.6412 -2.40984 1.70325 0
M  V30 168 H 21.7222 -0.798656 2.43013 0
M  V30 169 H 21.3662 -1.84388 4.73248 0
M  V30 170 H 21.2962 -3.45458 3.9745 0
M  V30 171 H 23.7872 -2.1603 3.10063 0
M  V30 172 H 24.1002 -3.89027 6.67741 0
M  V30 173 H 22.4452 -3.50462 6.00168 0
M  V30 174 H 25.6362 -2.60638 3.88826 0
M  V30 175 H 25.8092 -3.39545 5.51918 0
M  V30 176 N 19.2153 -1.21501 -1.00376 0
M  V30 177 C 20.1253 -0.991447 -2.12621 0
M  V30 178 C 21.1413 0.0568446 -1.73907 0
M  V30 179 O 22.3173 -0.13348 -2.00957 0
M  V30 180 C 19.3823 -0.560312 -3.42142 0
M  V30 181 C 18.4433 -1.68096 -3.95022 0
M  V30 182 C 17.6763 -1.2703 -5.18362 0
M  V30 183 O 17.8993 -0.144438 -5.70217 0
M  V30 184 O 16.8333 -2.08269 -5.64719 0
M  V30 185 H 20.6593 -1.93158 -2.34358 0
M  V30 186 H 18.2443 -0.999999 -1.10997 0
M  V30 187 H 20.1263 -0.329724 -4.20108 0
M  V30 188 H 18.8013 0.351089 -3.2179 0
M  V30 189 H 17.7083 -1.96597 -3.18278 0
M  V30 190 H 19.0413 -2.56983 -4.19786 0
M  V30 191 N 20.6934 1.19889 -1.02296 0
M  V30 192 C 22.1044 1.71124 -0.746568 0
M  V30 193 C 22.4554 1.81939 0.734335 0
M  V30 194 O 21.5804 1.48639 1.57275 0
M  V30 195 C 22.1754 3.10804 -1.34857 0
M  V30 196 C 20.7344 3.59323 -1.1209 0
M  V30 197 C 19.8814 2.3635 -1.45031 0
M  V30 198 H 22.8324 1.04813 -1.19163 0
M  V30 199 H 22.8534 3.73186 -0.742437 0
M  V30 200 H 22.3654 3.029 -2.42638 0
M  V30 201 H 20.4664 3.7255 -0.0610337 0
M  V30 202 H 20.5794 4.4378 -1.80544 0
M  V30 203 H 18.9434 2.39399 -0.869487 0
M  V30 204 H 19.7264 2.31081 -2.53883 0
M  V30 205 N 22.1715 0.800033 1.35784 0
M  V30 206 C 23.3965 0.388511 2.03729 0
M  V30 207 C 23.8215 -0.990481 1.5991 0
M  V30 208 O 23.1795 -1.64013 0.772612 0
M  V30 209 C 23.2275 0.4726 3.5749 0
M  V30 210 O 22.3315 -0.51646 4.09153 0
M  V30 211 H 21.6725 0.163271 0.643614 0
M  V30 212 H 24.2025 1.0841 1.73518 0
M  V30 213 H 24.2125 0.34003 4.06581 0
M  V30 214 H 22.8875 1.47848 3.88734 0
M  V30 215 H 21.4645 -0.344673 3.71304 0
M  V30 216 N 23.6496 -1.47581 0.552962 0
M  V30 217 C 24.5796 -2.32762 -0.185451 0
M  V30 218 C 25.5606 -1.43527 -0.912905 0
M  V30 219 O 26.7456 -1.72388 -0.894201 0
M  V30 220 C 23.8756 -3.25219 -1.21859 0
M  V30 221 C 22.8296 -4.23661 -0.607864 0
M  V30 222 C 22.1556 -5.05413 -1.74533 0
M  V30 223 C 23.4556 -5.20481 0.435582 0
M  V30 224 H 25.1496 -2.94749 0.525684 0
M  V30 225 H 22.6956 -1.41738 0.254251 0
M  V30 226 H 24.6486 -3.8365 -1.7433 0
M  V30 227 H 23.3726 -2.61279 -1.95961 0
M  V30 228 H 22.0316 -3.66451 -0.104489 0
M  V30 229 H 21.6796 -4.3788 -2.47529 0
M  V30 230 H 21.3796 -5.72059 -1.34249 0
M  V30 231 H 22.9036 -5.66701 -2.27338 0
M  V30 232 H 24.3176 -5.733 -0.00290157 0
M  V30 233 H 22.7146 -5.95305 0.757067 0
M  V30 234 H 23.7846 -4.66217 1.33303 0
M  V30 235 N 25.1277 -0.289203 -1.54924 0
M  V30 236 C 26.0377 0.601863 -2.26748 0
M  V30 237 C 27.0537 1.15834 -1.2984 0
M  V30 238 O 28.2297 1.18564 -1.62802 0
M  V30 239 C 25.2947 1.76299 -2.98529 0
M  V30 240 C 24.3557 1.24178 -4.10948 0
M  V30 241 C 23.5887 2.34757 -4.79296 0
M  V30 242 O 23.8117 3.54411 -4.46933 0
M  V30 243 O 22.7457 2.02115 -5.66951 0
M  V30 244 H 26.5717 0.0195879 -3.03694 0
M  V30 245 H 24.1567 -0.0560868 -1.49295 0
M  V30 246 H 26.0387 2.43973 -3.43592 0
M  V30 247 H 24.7137 2.33209 -2.24488 0
M  V30 248 H 23.6207 0.531104 -3.70311 0
M  V30 249 H 24.9537 0.718252 -4.86931 0
M  V30 250 N 26.6058 1.57591 -0.0167156 0
M  V30 251 C 27.8548 1.90461 0.663877 0
M  V30 252 C 28.1678 0.893515 1.73999 0
M  V30 253 O 29.3738 1.11302 2.47637 0
M  V30 254 C 27.8298 3.38155 1.23204 0
M  V30 255 C 27.4378 4.47597 0.189866 0
M  V30 256 C 29.1818 3.80111 1.88986 0
M  V30 257 C 27.0888 5.86379 0.768964 0
M  V30 258 H 26.0188 0.710738 0.251729 0
M  V30 259 H 28.6698 1.83326 -0.0799926 0
M  V30 260 H 27.0518 3.40182 2.02712 0
M  V30 261 H 28.2258 4.57112 -0.581846 0
M  V30 262 H 26.5408 4.14766 -0.368475 0
M  V30 263 H 29.1378 4.81145 2.33247 0
M  V30 264 H 29.4808 3.14511 2.72743 0
M  V30 265 H 30.0138 3.80454 1.16187 0
M  V30 266 H 26.7528 6.55493 -0.0301957 0
M  V30 267 H 26.2728 5.80496 1.50945 0
M  V30 268 H 27.9518 6.34563 1.26251 0
M  V30 269 N 28.0839 -0.256276 1.55502 0
M  V30 270 C 29.0139 -1.32102 1.92539 0
M  V30 271 C 29.9949 -1.50684 0.789194 0
M  V30 272 O 31.1799 -1.63449 1.04872 0
M  V30 273 C 28.3099 -2.67752 2.21192 0
M  V30 274 C 27.2639 -2.63878 3.36975 0
M  V30 275 C 26.5899 -4.03236 3.51147 0
M  V30 276 C 27.8899 -2.21682 4.72921 0
M  V30 277 H 29.5839 -1.01351 2.81724 0
M  V30 278 H 27.1299 -0.486105 1.35547 0
M  V30 279 H 29.0829 -3.42365 2.45691 0
M  V30 280 H 27.8069 -3.0012 1.28824 0
M  V30 281 H 26.4659 -1.91722 3.12471 0
M  V30 282 H 26.1139 -4.32854 2.56216 0
M  V30 283 H 25.8139 -4.01535 4.29003 0
M  V30 284 H 27.3379 -4.79563 3.77957 0
M  V30 285 H 28.7519 -2.86023 4.96854 0
M  V30 286 H 27.1489 -2.3111 5.53812 0
M  V30 287 H 28.2189 -1.16833 4.70615 0
M  V30 288 N 29.562 -1.4872 -0.521534 0
M  V30 289 C 30.973 -1.50607 -1.10337 0
M  V30 290 C 31.324 -0.280612 -1.94183 0
M  V30 291 O 30.449 0.611507 -2.0758 0
M  V30 292 C 31.044 -2.72903 -2.00772 0
M  V30 293 C 29.603 -2.77634 -2.54158 0
M  V30 294 C 28.75 -2.44241 -1.31307 0
M  V30 295 H 31.701 -1.55714 -0.306388 0
M  V30 296 H 31.722 -2.519 -2.85178 0
M  V30 297 H 31.234 -3.62077 -1.39721 0
M  V30 298 H 29.335 -1.92689 -3.18907 0
M  V30 299 H 29.448 -3.79283 -2.92714 0
M  V30 300 H 27.812 -1.95577 -1.63161 0
M  V30 301 H 28.595 -3.35666 -0.719943 0
M  V30 302 N 31.0401 0.771051 -1.3745 0
M  V30 303 C 32.4561 1.07171 -1.18265 0
M  V30 304 C 32.6561 2.01491 -0.019287 0
M  V30 305 O 31.7121 2.44244 0.640408 0
M  V30 306 C 33.0251 1.66854 -2.50161 0
M  V30 307 C 34.5731 1.79109 -2.56689 0
M  V30 308 C 35.0481 2.42205 -3.88717 0
M  V30 309 N 36.5391 2.49655 -3.90162 0
M  V30 310 C 37.2741 2.9933 -4.8907 0
M  V30 311 N 36.7701 3.49172 -5.98374 0
M  V30 312 N 38.5631 2.9821 -4.76474 0
M  V30 313 H 30.7141 0.144796 -2.11906 0
M  V30 314 H 32.9771 0.126863 -0.939473 0
M  V30 315 H 32.6831 1.05017 -3.35655 0
M  V30 316 H 32.5571 2.6614 -2.673 0
M  V30 317 H 34.9441 2.40077 -1.71601 0
M  V30 318 H 35.0251 0.785757 -2.43433 0
M  V30 319 H 34.6691 1.81875 -4.74219 0
M  V30 320 H 34.5991 3.43345 -3.99276 0
M  V30 321 H 37.0901 2.14383 -3.11205 0
M  V30 322 H 37.4031 3.8548 -6.69795 0
M  V30 323 H 35.7481 3.47275 -6.02018 0
M  V30 324 H 38.9391 2.58572 -3.90203 0
M  V30 325 H 39.1121 3.36613 -5.53711 0
M  V30 326 N 32.5182 1.22032 0.997298 0
M  V30 327 C 33.7462 1.06841 1.7718 0
M  V30 328 C 34.1612 -0.381325 1.84909 0
M  V30 329 O 33.5182 -1.26437 1.31605 0
M  V30 330 C 33.5692 1.66814 3.20711 0
M  V30 331 O 33.2902 3.06116 3.13408 0
M  V30 332 C 34.7912 1.56838 4.14628 0
M  V30 333 H 32.0112 0.374782 0.556578 0
M  V30 334 H 34.5552 1.61532 1.2541 0
M  V30 335 H 32.7102 1.16196 3.69564 0
M  V30 336 H 33.1242 3.34926 4.0364 0
M  V30 337 H 34.5982 2.03532 5.13107 0
M  V30 338 H 35.0752 0.524155 4.36061 0
M  V30 339 H 35.6812 2.06741 3.7167 0
M  V30 340 N 33.9963 -1.19345 1.0293 0
M  V30 341 C 35.2213 -1.93538 0.745511 0
M  V30 342 C 35.6463 -1.75007 -0.689511 0
M  V30 343 O 35.0043 -1.05265 -1.47611 0
M  V30 344 C 35.0523 -3.43336 1.10239 0
M  V30 345 O 34.1563 -4.11806 0.221289 0
M  V30 346 H 33.4973 -0.604193 0.275404 0
M  V30 347 H 36.0273 -1.5141 1.37609 0
M  V30 348 H 36.0373 -3.94004 1.05947 0
M  V30 349 H 34.7123 -3.56146 2.14786 0
M  V30 350 H 33.2893 -3.715 0.322842 0
M  V30 351 N 35.4744 -0.807222 -1.35358 0
M  V30 352 C 36.4044 -0.232509 -2.3234 0
M  V30 353 C 37.3854 0.642386 -1.57504 0
M  V30 354 O 38.5704 0.572526 -1.85569 0
M  V30 355 C 35.7004 0.619238 -3.41735 0
M  V30 356 C 34.6544 -0.157215 -4.27711 0
M  V30 357 C 33.9804 0.816273 -5.28433 0
M  V30 358 C 35.2804 -1.35656 -5.04376 0
M  V30 359 H 36.9744 -1.04276 -2.80654 0
M  V30 360 H 34.5204 -0.50288 -1.34934 0
M  V30 361 H 36.4734 1.03137 -4.08584 0
M  V30 362 H 35.1974 1.46239 -2.92031 0
M  V30 363 H 33.8564 -0.550525 -3.62443 0
M  V30 364 H 33.5044 1.65494 -4.74996 0
M  V30 365 H 33.2044 0.301067 -5.86828 0
M  V30 366 H 34.7284 1.22659 -5.98153 0
M  V30 367 H 36.1424 -1.01927 -5.64166 0
M  V30 368 H 34.5394 -1.8063 -5.7227 0
M  V30 369 H 35.6094 -2.14288 -4.34981 0
M  V30 370 N 36.9525 1.47285 -0.560781 0
M  V30 371 C 37.9025 2.27073 0.205384 0
M  V30 372 C 38.8865 1.34569 0.882044 0
M  V30 373 O 40.0785 1.58899 0.77976 0
M  V30 374 C 37.2075 3.20414 1.23247 0
M  V30 375 C 36.2935 4.20399 0.559041 0
M  V30 376 N 36.6845 5.04423 -0.372927 0
M  V30 377 C 34.9825 4.38536 0.812522 0
M  V30 378 C 35.6835 5.76655 -0.764446 0
M  V30 379 N 34.6595 5.43471 -0.11848 0
M  V30 380 H 38.4615 2.89422 -0.511117 0
M  V30 381 H 35.9755 1.57868 -0.380975 0
M  V30 382 H 37.9725 3.76262 1.79534 0
M  V30 383 H 36.6325 2.59623 1.95002 0
M  V30 384 H 37.6435 5.1248 -0.747287 0
M  V30 385 H 34.3205 3.88913 1.51832 0
M  V30 386 H 35.7105 6.54238 -1.53045 0
M  V30 387 N 38.4306 0.297415 1.54768 0
M  V30 388 C 39.6556 -0.318435 2.04941 0
M  V30 389 C 40.0806 -1.4701 1.17345 0
M  V30 390 O 39.4386 -1.80436 0.176758 0
M  V30 391 C 39.4866 -0.755749 3.52592 0
M  V30 392 O 38.5906 -1.86088 3.68028 0
M  V30 393 H 37.9316 -0.062421 0.661059 0
M  V30 394 H 40.4616 0.438215 1.99852 0
M  V30 395 H 40.4716 -1.04552 3.94376 0
M  V30 396 H 39.1466 0.0867233 4.1581 0
M  V30 397 H 37.7236 -1.57193 3.38149 0
M  V30 398 N 39.9087 -1.5758 0.0250728 0
M  V30 399 C 41.1577 -1.90811 -0.653767 0
M  V30 400 C 41.4707 -0.90273 -1.73523 0
M  V30 401 O 42.6767 -1.12614 -2.47043 0
M  V30 402 C 41.1327 -3.38804 -1.21409 0
M  V30 403 C 40.7407 -4.47692 -0.166126 0
M  V30 404 C 42.4847 -3.81108 -1.86967 0
M  V30 405 C 40.3917 -5.86779 -0.737856 0
M  V30 406 H 39.3217 -0.712063 -0.247956 0
M  V30 407 H 41.9727 -1.83281 0.0897137 0
M  V30 408 H 40.3547 -3.41252 -2.00905 0
M  V30 409 H 41.5287 -4.56797 0.606079 0
M  V30 410 H 39.8437 -4.14565 0.390466 0
M  V30 411 H 42.4407 -4.82375 -2.30692 0
M  V30 412 H 42.7837 -3.15953 -2.71071 0
M  V30 413 H 43.3167 -3.81065 -1.14167 0
M  V30 414 H 40.0557 -6.55468 0.0649577 0
M  V30 415 H 39.5757 -5.81288 -1.47864 0
M  V30 416 H 41.2547 -6.35223 -1.22884 0
M  V30 417 N 41.3868 0.248026 -1.55636 0
M  V30 418 C 42.7978 0.817177 -1.67866 0
M  V30 419 C 43.1488 1.86069 -0.622322 0
M  V30 420 O 42.2738 2.15157 0.231618 0
M  V30 421 C 42.8688 1.489 -3.04326 0
M  V30 422 C 41.4278 2.00587 -3.185 0
M  V30 423 C 40.5748 0.856573 -2.63739 0
M  V30 424 H 43.5258 0.0238579 -1.58682 0
M  V30 425 H 43.5468 2.35698 -2.98708 0
M  V30 426 H 43.0588 0.729279 -3.81186 0
M  V30 427 H 41.1598 2.79443 -2.4646 0
M  V30 428 H 41.2728 2.20402 -4.25393 0
M  V30 429 H 39.6368 1.25678 -2.21534 0
M  V30 430 H 40.4198 0.109953 -3.43124 0
M  V30 431 N 42.8649 1.48995 0.513639 0
M  V30 432 C 44.1109 1.58076 1.27042 0
M  V30 433 C 44.4439 0.261026 1.92438 0
M  V30 434 O 43.7189 -0.734393 1.80103 0
M  V30 435 C 44.0019 2.73091 2.34719 0
M  V30 436 C 43.8549 4.14821 1.73907 0
M  V30 437 C 45.1739 2.83796 3.36375 0
M  V30 438 H 42.2929 0.575391 0.460536 0
M  V30 439 H 44.9349 1.81232 0.570516 0
M  V30 440 H 43.0849 2.53479 2.94416 0
M  V30 441 H 44.7569 4.45917 1.18135 0
M  V30 442 H 42.9999 4.21058 1.0437 0
M  V30 443 H 43.6709 4.91147 2.51949 0
M  V30 444 H 46.1469 3.01611 2.86653 0
M  V30 445 H 45.0229 3.65971 4.09093 0
M  V30 446 H 45.2839 1.92624 3.9793 0
M  V30 447 N 44.343 -0.763751 1.37857 0
M  V30 448 C 45.571 -1.55293 1.36718 0
M  V30 449 C 45.986 -1.88745 -0.0455434 0
M  V30 450 O 45.343 -1.52039 -1.00947 0
M  V30 451 C 45.394 -2.85831 2.2132 0
M  V30 452 O 45.115 -2.5381 3.57089 0
M  V30 453 C 46.616 -3.80023 2.28249 0
M  V30 454 H 43.836 -0.480841 0.468009 0
M  V30 455 H 46.38 -0.946009 1.81303 0
M  V30 456 H 44.535 -3.42926 1.80223 0
M  V30 457 H 44.949 -3.37459 4.01524 0
M  V30 458 H 46.423 -4.68599 2.91752 0
M  V30 459 H 46.9 -4.1973 1.2932 0
M  V30 460 H 47.506 -3.28855 2.69693 0
M  V30 461 N 45.8211 -1.22559 -0.990812 0
M  V30 462 C 47.0671 -1.05297 -1.73322 0
M  V30 463 C 47.4001 0.410655 -1.89808 0
M  V30 464 O 46.6751 1.30439 -1.44277 0
M  V30 465 C 46.9581 -1.76713 -3.13759 0
M  V30 466 C 46.8111 -3.30684 -3.04907 0
M  V30 467 C 48.1301 -1.52121 -4.12974 0
M  V30 468 H 45.2491 -0.38392 -0.629106 0
M  V30 469 H 47.8911 -1.50926 -1.15418 0
M  V30 470 H 46.0411 -1.37924 -3.63193 0
M  V30 471 H 47.7131 -3.7893 -2.63077 0
M  V30 472 H 45.9561 -3.60253 -2.41661 0
M  V30 473 H 46.6271 -3.75833 -4.04294 0
M  V30 474 H 49.1031 -1.85819 -3.72304 0
M  V30 475 H 47.9791 -2.04582 -5.0935 0
M  V30 476 H 48.2401 -0.454257 -4.3976 0
M  V30 477 N 47.2992 1.18797 -1.03562 0
M  V30 478 C 48.2092 2.25913 -0.632505 0
M  V30 479 C 49.2252 1.70668 0.338882 0
M  V30 480 O 50.4012 2.00453 0.195076 0
M  V30 481 C 47.4662 3.467 0.00350942 0
M  V30 482 C 46.5272 4.17098 -1.01624 0
M  V30 483 C 45.7602 5.32119 -0.410478 0
M  V30 484 O 45.9832 5.64976 0.784725 0
M  V30 485 O 44.9172 5.9107 -1.13667 0
M  V30 486 H 48.7432 2.62648 -1.52478 0
M  V30 487 H 46.3282 1.25781 -0.806195 0
M  V30 488 H 48.2102 4.19878 0.35781 0
M  V30 489 H 46.8852 3.11798 0.869686 0
M  V30 490 H 45.7922 3.4601 -1.42224 0
M  V30 491 H 47.1252 4.55987 -1.85301 0
M  V30 492 N 48.7773 0.814389 1.34928 0
M  V30 493 C 50.0233 0.399013 1.98836 0
M  V30 494 C 50.3563 -1.03314 1.64438 0
M  V30 495 O 49.6313 -1.71811 0.911659 0
M  V30 496 C 49.9143 0.591629 3.55207 0
M  V30 497 C 49.7673 2.06928 3.99376 0
M  V30 498 C 51.0863 0.022199 4.40094 0
M  V30 499 H 48.2053 0.146451 0.722303 0
M  V30 500 H 50.8473 1.02537 1.59957 0
M  V30 501 H 48.9973 0.0584441 3.88456 0
M  V30 502 H 50.6693 2.66544 3.76499 0
M  V30 503 H 48.9123 2.56287 3.49999 0
M  V30 504 H 49.5833 2.1549 5.08201 0
M  V30 505 H 52.0593 0.477643 4.13349 0
M  V30 506 H 50.9353 0.186832 5.48582 0
M  V30 507 H 51.1963 -1.07215 4.28902 0
M  V30 508 N 50.2554 -1.46986 0.568584 0
M  V30 509 C 51.2024 -2.30153 -0.172707 0
M  V30 510 C 52.1724 -1.39759 -0.897586 0
M  V30 511 O 53.3574 -1.68716 -0.891044 0
M  V30 512 C 50.4974 -3.23952 -1.1895 0
M  V30 513 C 49.6104 -4.29441 -0.469517 0
M  V30 514 C 48.7454 -5.1038 -1.47259 0
M  V30 515 C 47.7844 -6.07632 -0.738225 0
M  V30 516 N 46.9214 -6.8149 -1.68868 0
M  V30 517 H 51.7614 -2.93019 0.542596 0
M  V30 518 H 49.2984 -1.44422 0.279401 0
M  V30 519 H 51.2564 -3.76767 -1.79173 0
M  V30 520 H 49.8864 -2.62926 -1.87269 0
M  V30 521 H 48.9384 -3.79594 0.247467 0
M  V30 522 H 50.2504 -4.98689 0.105241 0
M  V30 523 H 49.4044 -5.67402 -2.14803 0
M  V30 524 H 48.1434 -4.4106 -2.08128 0
M  V30 525 H 47.1484 -5.49778 -0.0489293 0
M  V30 526 H 48.3734 -6.78966 -0.135129 0
M  V30 527 H 46.3194 -6.14891 -2.28573 0
M  V30 528 H 46.2364 -7.46948 -1.16636 0
M  V30 529 H 47.5044 -7.43078 -2.3549 0
M  V30 530 N 51.7335 -0.305618 -1.54608 0
M  V30 531 C 53.1445 0.186098 -1.8577 0
M  V30 532 C 53.4955 1.53058 -1.22751 0
M  V30 533 O 52.6205 2.09888 -0.526893 0
M  V30 534 C 53.2155 0.344449 -3.37044 0
M  V30 535 C 51.7745 0.780384 -3.68221 0
M  V30 536 C 50.9215 -0.108554 -2.77087 0
M  V30 537 H 53.8725 -0.526485 -1.49712 0
M  V30 538 H 53.8935 1.17828 -3.61796 0
M  V30 539 H 53.4055 -0.634235 -3.82883 0
M  V30 540 H 51.5065 1.76945 -3.27904 0
M  V30 541 H 51.6195 0.596572 -4.75371 0
M  V30 542 H 49.9835 0.412931 -2.5133 0
M  V30 543 H 50.7665 -1.08368 -3.25747 0
M  V30 544 N 53.2116 1.57565 -0.0334293 0
M  V30 545 C 54.4576 1.92262 0.645226 0
M  V30 546 C 54.7906 0.910543 1.71531 0
M  V30 547 O 54.0656 -0.066099 1.94388 0
M  V30 548 C 54.3486 3.37422 1.2577 0
M  V30 549 C 54.2016 4.49369 0.196891 0
M  V30 550 C 55.5206 3.82628 2.17449 0
M  V30 551 H 52.6396 0.699171 0.233085 0
M  V30 552 H 55.2816 1.89779 -0.0915694 0
M  V30 553 H 53.4316 3.39669 1.88566 0
M  V30 554 H 55.1036 4.59254 -0.433962 0
M  V30 555 H 53.3466 4.31168 -0.477137 0
M  V30 556 H 54.0176 5.47978 0.665124 0
M  V30 557 H 56.4936 3.82145 1.64634 0
M  V30 558 H 55.3696 4.84883 2.57254 0
M  V30 559 H 55.6306 3.18376 3.0674 0
M  V30 560 N 54.6897 -0.239769 1.55765 0
M  V30 561 C 55.6197 -1.30052 1.9393 0
M  V30 562 C 56.6007 -1.49839 0.805132 0
M  V30 563 O 57.7857 -1.62328 1.06599 0
M  V30 564 C 54.9157 -2.65391 2.2402 0
M  V30 565 C 53.8697 -2.60289 3.39755 0
M  V30 566 C 53.1957 -3.99489 3.55405 0
M  V30 567 C 54.4957 -2.16654 4.75246 0
M  V30 568 H 56.1897 -0.983573 2.82783 0
M  V30 569 H 53.7357 -0.471701 1.36055 0
M  V30 570 H 55.6887 -3.3974 2.49308 0
M  V30 571 H 54.4127 -2.98736 1.32 0
M  V30 572 H 53.0717 -1.88398 3.14487 0
M  V30 573 H 52.7197 -4.30112 2.60793 0
M  V30 574 H 52.4197 -3.96962 4.33238 0
M  V30 575 H 53.9437 -4.75528 3.83022 0
M  V30 576 H 55.3577 -2.80737 4.99859 0
M  V30 577 H 53.7547 -2.25223 5.56232 0
M  V30 578 H 54.8247 -1.11835 4.71827 0
M  V30 579 N 56.1678 -1.49265 -0.50573 0
M  V30 580 C 57.5788 -1.51769 -1.08734 0
M  V30 581 C 57.9298 -0.301192 -1.93874 0
M  V30 582 O 57.0548 0.589456 -2.08217 0
M  V30 583 C 57.6498 -2.75017 -1.97867 0
M  V30 584 C 56.2088 -2.80314 -2.51199 0
M  V30 585 C 55.3558 -2.4562 -1.28709 0
M  V30 586 H 58.3068 -1.56031 -0.289855 0
M  V30 587 H 58.3278 -2.5491 -2.82491 0
M  V30 588 H 57.8398 -3.63539 -1.35873 0
M  V30 589 H 55.9408 -1.96061 -3.16845 0
M  V30 590 H 56.0538 -3.82366 -2.88675 0
M  V30 591 H 54.4178 -1.97297 -1.61078 0
M  V30 592 H 55.2008 -3.36411 -0.6843 0
M  V30 593 N 57.6459 0.756429 -1.3826 0
M  V30 594 C 59.0619 1.0591 -1.19395 0
M  V30 595 C 59.2619 2.01459 -0.0406567 0
M  V30 596 O 58.3179 2.44909 0.614467 0
M  V30 597 C 59.6309 1.64191 -2.51916 0
M  V30 598 C 61.1789 1.76376 -2.58574 0
M  V30 599 C 61.6539 2.38069 -3.91264 0
M  V30 600 N 63.1449 2.45503 -3.92788 0
M  V30 601 C 63.8799 2.94126 -4.92217 0
M  V30 602 N 63.3759 3.42805 -6.02043 0
M  V30 603 N 65.1689 2.9314 -4.7961 0
M  V30 604 H 57.3199 0.122313 -2.12048 0
M  V30 605 H 59.5829 0.116892 -0.940766 0
M  V30 606 H 59.2889 1.01451 -3.3675 0
M  V30 607 H 59.1629 2.6329 -2.70108 0
M  V30 608 H 61.5499 2.38244 -1.74137 0
M  V30 609 H 61.6309 0.759894 -2.44252 0
M  V30 610 H 61.2749 1.76835 -4.76121 0
M  V30 611 H 61.2049 3.39091 -4.02895 0
M  V30 612 H 63.6959 2.1107 -3.13461 0
M  V30 613 H 64.0089 3.78354 -6.73846 0
M  V30 614 H 62.3539 3.4087 -6.05667 0
M  V30 615 H 65.5449 2.54419 -3.92923 0
M  V30 616 H 65.7179 3.30721 -5.5725 0
M  V30 617 N 59.124 1.23083 0.984299 0
M  V30 618 C 60.087 1.00979 2.05757 0
M  V30 619 C 61.087 -0.0269573 1.60777 0
M  V30 620 O 62.277 0.212403 1.729 0
M  V30 621 C 59.409 0.527072 3.36801 0
M  V30 622 H 60.602 1.9622 2.26799 0
M  V30 623 H 58.155 1.05072 1.15714 0
M  V30 624 H 58.89 -0.429294 3.21446 0
M  V30 625 H 58.675 1.27515 3.70786 0
M  V30 626 H 60.165 0.392942 4.15747 0
M  V30 627 N 60.6021 -1.18246 1.0419 0
M  V30 628 C 61.5351 -2.20746 0.578474 0
M  V30 629 C 62.5131 -1.57912 -0.387624 0
M  V30 630 O 63.6971 -1.86071 -0.301634 0
M  V30 631 C 60.8241 -3.38346 -0.154762 0
M  V30 632 C 59.8701 -4.19587 0.764782 0
M  V30 633 S 60.7031 -4.86014 2.24835 0
M  V30 634 C 61.8591 -6.07012 1.526 0
M  V30 635 H 62.0921 -2.59715 1.44691 0
M  V30 636 H 59.6251 -1.287 0.85297 0
M  V30 637 H 61.5831 -4.065 -0.571641 0
M  V30 638 H 60.2441 -2.97786 -0.999105 0
M  V30 639 H 59.4371 -5.03611 0.197976 0
M  V30 640 H 59.0391 -3.56818 1.12057 0
M  V30 641 H 61.3311 -6.72523 0.819733 0
M  V30 642 H 62.2741 -6.68202 2.34333 0
M  V30 643 H 62.6821 -5.55249 1.01779 0
M  V30 644 N 62.0802 -0.821533 -1.34494 0
M  V30 645 C 63.4912 -0.467956 -1.8074 0
M  V30 646 C 63.8422 1.01151 -1.68116 0
M  V30 647 O 62.9672 1.78707 -1.22036 0
M  V30 648 C 63.5622 -0.842627 -3.28154 0
M  V30 649 C 62.1212 -0.541439 -3.72485 0
M  V30 650 C 61.2682 -1.06028 -2.56229 0
M  V30 651 H 64.2192 -1.01183 -1.22261 0
M  V30 652 H 64.2402 -0.145876 -3.8022 0
M  V30 653 H 63.7522 -1.91945 -3.37311 0
M  V30 654 H 61.8532 0.526034 -3.68868 0
M  V30 655 H 61.9662 -1.08453 -4.66663 0
M  V30 656 H 60.3302 -0.481892 -2.501 0
M  V30 657 H 61.1132 -2.14352 -2.68157 0
M  V30 658 N 63.5583 1.46682 -0.576371 0
M  V30 659 C 64.7833 2.07304 -0.0630475 0
M  V30 660 C 65.2083 1.42329 1.2298 0
M  V30 661 O 64.5663 0.504865 1.74129 0
M  V30 662 C 64.6143 3.60472 0.095895 0
M  V30 663 O 63.7183 3.95927 1.15394 0
M  V30 664 H 63.0593 0.661288 -0.0599463 0
M  V30 665 H 65.5893 1.88417 -0.797511 0
M  V30 666 H 65.5993 4.06865 0.304071 0
M  V30 667 H 64.2743 4.07157 -0.84828 0
M  V30 668 H 62.8513 3.61252 0.924724 0
M  V30 669 N 65.0364 0.313813 1.54444 0
M  V30 670 C 66.2614 -0.296681 2.05267 0
M  V30 671 C 66.6864 -1.45757 1.18897 0
M  V30 672 O 66.0444 -1.80239 0.195886 0
M  V30 673 C 66.0924 -0.71831 3.53373 0
M  V30 674 O 65.1964 -1.82175 3.69981 0
M  V30 675 H 64.5374 -0.0554061 0.661684 0
M  V30 676 H 67.0674 0.459387 1.99376 0
M  V30 677 H 67.0774 -1.00364 3.95463 0
M  V30 678 H 65.7524 0.130821 4.15694 0
M  V30 679 H 64.3294 -1.53598 3.39797 0
M  V30 680 N 66.5145 -1.57545 0.0417849 0
M  V30 681 C 67.4475 -2.06514 -0.970928 0
M  V30 682 C 68.4255 -0.963607 -1.30971 0
M  V30 683 O 69.6095 -1.23486 -1.4242 0
M  V30 684 C 66.7365 -2.4978 -2.28752 0
M  V30 685 C 65.7825 -3.71078 -2.10246 0
M  V30 686 S 66.6155 -5.17158 -1.38952 0
M  V30 687 C 67.7715 -5.6373 -2.71954 0
M  V30 688 H 68.0045 -2.9209 -0.554129 0
M  V30 689 H 65.5375 -1.53459 -0.17024 0
M  V30 690 H 67.4955 -2.75371 -3.04435 0
M  V30 691 H 66.1565 -1.64527 -2.67562 0
M  V30 692 H 65.3495 -3.9924 -3.07609 0
M  V30 693 H 64.9515 -3.45705 -1.42704 0
M  V30 694 H 67.2435 -5.68743 -3.68154 0
M  V30 695 H 68.1865 -6.63086 -2.4844 0
M  V30 696 H 68.5945 -4.91424 -2.77782 0
M  V30 697 N 67.9926 0.231505 -1.5589 0
M  V30 698 C 69.2406 0.955461 -1.78088 0
M  V30 699 C 69.5616 1.85262 -0.608533 0
M  V30 700 O 68.8316 1.92277 0.375035 0
M  V30 701 H 67.4116 0.355787 -0.656829 0
M  V30 702 H 70.0736 0.245751 -1.93344 0
M  V30 703 H 69.1696 1.56814 -2.69844 0
M  V30 704 N 69.4707 1.49531 0.497807 0
M  V30 705 C 70.7187 1.58865 1.24926 0
M  V30 706 C 71.0397 0.278721 1.92998 0
M  V30 707 O 70.3097 -0.702144 1.82885 0
M  V30 708 H 68.8897 0.585343 0.464094 0
M  V30 709 H 71.5517 1.86174 0.57666 0
M  V30 710 H 70.6477 2.38633 2.01149 0
M  V30 711 N 70.9488 -0.749086 1.3866 0
M  V30 712 C 72.1968 -1.50535 1.34847 0
M  V30 713 C 72.5178 -1.94909 -0.0595016 0
M  V30 714 O 71.7878 -1.67973 -1.00806 0
M  V30 715 H 70.3678 -0.558395 0.49619 0
M  V30 716 H 73.0298 -0.890165 1.73384 0
M  V30 717 H 72.1258 -2.39413 2.00219 0
M  V30 718 N 72.4269 -1.23603 -0.977757 0
M  V30 719 C 73.6749 -1.06759 -1.71601 0
M  V30 720 C 73.9959 0.395929 -1.90938 0
M  V30 721 O 73.2659 1.28356 -1.47992 0
M  V30 722 H 71.8459 -0.392062 -0.635843 0
M  V30 723 H 74.5079 -1.55362 -1.1768 0
M  V30 724 H 73.6039 -1.55763 -2.70452 0
M  V30 725 N 73.905 1.17692 -1.04816 0
M  V30 726 C 75.153 1.87488 -0.754497 0
M  V30 727 C 75.474 1.81205 0.720407 0
M  V30 728 O 74.744 1.23544 1.52032 0
M  V30 729 H 73.324 0.694101 -0.276102 0
M  V30 730 H 75.986 1.42793 -1.32651 0
M  V30 731 H 75.082 2.93328 -1.06606 0
M  V30 732 N 75.3831 0.828654 1.34056 0
M  V30 733 C 76.6311 0.41863 1.97717 0
M  V30 734 C 76.9521 -1.02314 1.66002 0
M  V30 735 O 76.2221 -1.71119 0.953683 0
M  V30 736 H 74.8021 0.151809 0.731412 0
M  V30 737 H 77.4641 1.05936 1.63596 0
M  V30 738 H 76.5601 0.542318 3.07352 0
M  V30 739 N 76.8612 -1.46375 0.584142 0
M  V30 740 C 78.0862 -2.07268 0.0740405 0
M  V30 741 C 78.5112 -1.42979 -1.22223 0
M  V30 742 O 77.8692 -0.514092 -1.73859 0
M  V30 743 C 77.9172 -3.60518 -0.0767769 0
M  V30 744 O 77.0212 -3.96533 -1.13292 0
M  V30 745 H 76.3622 -0.660961 0.0634524 0
M  V30 746 H 78.8922 -1.87991 0.807492 0
M  V30 747 H 78.9022 -4.07021 -0.282489 0
M  V30 748 H 77.5772 -4.06702 0.86986 0
M  V30 749 H 76.1542 -3.61738 -0.905553 0
M  V30 750 N 78.3393 -0.321999 -1.54275 0
M  V30 751 C 79.7503 0.166384 -1.85957 0
M  V30 752 C 80.1013 1.51747 -1.24367 0
M  V30 753 O 79.2263 2.09317 -0.549124 0
M  V30 754 C 79.8213 0.308681 -3.37391 0
M  V30 755 C 78.3803 0.741286 -3.69028 0
M  V30 756 C 77.5273 -0.137937 -2.76957 0
M  V30 757 H 80.4783 -0.542335 -1.49146 0
M  V30 758 H 80.4993 1.13984 -3.63026 0
M  V30 759 H 80.0113 -0.674809 -3.82188 0
M  V30 760 H 78.1123 1.73458 -3.29762 0
M  V30 761 H 78.2253 0.546118 -4.75977 0
M  V30 762 H 76.5893 0.386251 -2.51754 0
M  V30 763 H 77.3723 -1.11816 -3.2458 0
M  V30 764 N 79.8174 1.5752 -0.0501392 0
M  V30 765 C 81.0424 1.97376 0.636997 0
M  V30 766 C 81.4674 0.927466 1.63645 0
M  V30 767 O 80.8254 -0.10941 1.8097 0
M  V30 768 C 80.8734 3.36304 1.30123 0
M  V30 769 O 79.9774 3.34156 2.41689 0
M  V30 770 H 79.3184 0.642998 0.165679 0
M  V30 771 H 81.8484 2.04258 -0.118233 0
M  V30 772 H 81.8584 3.73008 1.65315 0
M  V30 773 H 80.5334 4.11993 0.568746 0
M  V30 774 H 79.1104 3.09196 2.08451 0
M  V30 775 N 81.2955 -0.223234 1.56011 0
M  V30 776 C 82.7065 -0.790368 1.69145 0
M  V30 777 C 83.0575 -1.85055 0.651845 0
M  V30 778 O 82.1825 -2.15498 -0.197359 0
M  V30 779 C 82.7775 -1.4404 3.06656 0
M  V30 780 C 81.3365 -1.95494 3.2165 0
M  V30 781 C 80.4835 -0.814506 2.65068 0
M  V30 782 H 83.4345 0.00139011 1.587 0
M  V30 783 H 83.4555 -2.30916 3.0242 0
M  V30 784 H 82.9675 -0.668543 3.82298 0
M  V30 785 H 81.0685 -2.75487 2.50874 0
M  V30 786 H 81.1815 -2.13607 4.28846 0
M  V30 787 H 79.5455 -1.22137 2.23505 0
M  V30 788 H 80.3285 -0.0553515 3.43255 0
M  V30 789 N 82.7736 -1.49793 -0.48987 0
M  V30 790 C 84.0196 -1.60078 -1.24511 0
M  V30 791 C 84.3526 -0.291608 -1.91998 0
M  V30 792 O 83.6276 0.705647 -1.81248 0
M  V30 793 C 83.9106 -2.76791 -2.30345 0
M  V30 794 C 83.7636 -4.17535 -1.67286 0
M  V30 795 C 85.0826 -2.89111 -3.31817 0
M  V30 796 H 82.2016 -0.582645 -0.451324 0
M  V30 797 H 84.8436 -1.82117 -0.541612 0
M  V30 798 H 82.9936 -2.5813 -2.90346 0
M  V30 799 H 84.6656 -4.4774 -1.11026 0
M  V30 800 H 82.9086 -4.22665 -0.976577 0
M  V30 801 H 83.5796 -4.95094 -2.44103 0
M  V30 802 H 86.0556 -3.06133 -2.81819 0
M  V30 803 H 84.9316 -3.72433 -4.03219 0
M  V30 804 H 85.1926 -1.9893 -3.94815 0
M  V30 805 N 84.2517 0.741722 -1.39055 0
M  V30 806 C 85.1617 1.88621 -1.39496 0
M  V30 807 C 86.1777 1.71557 -0.290578 0
M  V30 808 O 87.3537 1.94275 -0.530954 0
M  V30 809 C 84.4187 3.24134 -1.23037 0
M  V30 810 C 83.4797 3.5364 -2.43387 0
M  V30 811 C 82.7127 4.82687 -2.27703 0
M  V30 812 O 82.9357 5.55922 -1.27696 0
M  V30 813 O 81.8697 5.1194 -3.16545 0
M  V30 814 H 85.6957 1.91203 -2.35956 0
M  V30 815 H 83.2807 0.888625 -1.20099 0
M  V30 816 H 85.1627 4.0513 -1.15964 0
M  V30 817 H 83.8377 3.22337 -0.296691 0
M  V30 818 H 82.7447 2.72758 -2.56035 0
M  V30 819 H 84.0777 3.60209 -3.35425 0
M  V30 820 N 85.7298 1.2412 0.971189 0
M  V30 821 C 86.6598 1.05508 2.08304 0
M  V30 822 C 87.6408 -0.0308864 1.70072 0
M  V30 823 O 88.8258 0.135521 1.93727 0
M  V30 824 C 85.9558 0.655365 3.4106 0
M  V30 825 C 84.9098 1.68971 3.93234 0
M  V30 826 C 84.2358 1.14516 5.22293 0
M  V30 827 C 85.5358 3.08487 4.21465 0
M  V30 828 H 87.2298 1.98507 2.24132 0
M  V30 829 H 84.7758 0.955821 1.07704 0
M  V30 830 H 86.7288 0.51217 4.18276 0
M  V30 831 H 85.4528 -0.31032 3.25122 0
M  V30 832 H 84.1118 1.82106 3.18171 0
M  V30 833 H 83.7598 0.170189 5.02712 0
M  V30 834 H 83.4598 1.83635 5.58168 0
M  V30 835 H 84.9838 1.01401 6.02121 0
M  V30 836 H 86.3978 2.98601 4.89398 0
M  V30 837 H 84.7948 3.74926 4.68562 0
M  V30 838 H 85.8648 3.56787 3.28376 0
M  V30 839 N 87.2079 -1.17134 1.05439 0
M  V30 840 C 88.6239 -1.39454 0.776201 0
M  V30 841 C 88.8239 -1.91454 -0.628307 0
M  V30 842 O 87.8799 -2.10777 -1.39031 0
M  V30 843 C 89.1929 -2.38305 1.83388 0
M  V30 844 C 90.7409 -2.52006 1.85639 0
M  V30 845 C 91.2159 -3.54133 2.90437 0
M  V30 846 N 92.7069 -3.61653 2.89415 0
M  V30 847 C 93.4419 -4.4044 3.67152 0
M  V30 848 N 92.9379 -5.22721 4.54681 0
M  V30 849 N 94.7309 -4.35337 3.55581 0
M  V30 850 H 86.8819 -0.817134 1.96053 0
M  V30 851 H 89.1449 -0.421626 0.849079 0
M  V30 852 H 88.8509 -2.07173 2.84204 0
M  V30 853 H 88.7249 -3.37841 1.67761 0
M  V30 854 H 91.1119 -2.82447 0.85486 0
M  V30 855 H 91.1929 -1.52537 2.05344 0
M  V30 856 H 90.8369 -3.24431 3.90777 0
M  V30 857 H 90.7669 -4.53313 2.67983 0
M  V30 858 H 93.2579 -3.02909 2.25952 0
M  V30 859 H 93.5709 -5.80027 5.10674 0
M  V30 860 H 91.9159 -5.22093 4.58741 0
M  V30 861 H 95.1069 -3.70112 2.86592 0
M  V30 862 H 95.2799 -4.96494 4.1641 0
M  V30 863 N 88.686 -0.835752 -1.33615 0
M  V30 864 C 89.934 -0.429109 -1.97492 0
M  V30 865 C 90.255 1.01433 -1.66543 0
M  V30 866 O 89.525 1.70611 -0.962744 0
M  V30 867 H 88.105 -0.155686 -0.730596 0
M  V30 868 H 90.767 -1.06802 -1.63031 0
M  V30 869 H 89.863 -0.55861 -3.0706 0
M  V30 870 N 90.1641 1.46063 -0.591896 0
M  V30 871 C 91.1271 2.28854 0.125973 0
M  V30 872 C 92.1271 1.38903 0.810107 0
M  V30 873 O 93.3171 1.61186 0.66066 0
M  V30 874 C 90.4491 3.19526 1.1881 0
M  V30 875 H 91.6421 2.93802 -0.601717 0
M  V30 876 H 89.1951 1.52325 -0.350254 0
M  V30 877 H 89.9301 2.59345 1.94707 0
M  V30 878 H 89.7151 3.85766 0.701936 0
M  V30 879 H 91.2051 3.81817 1.69132 0
M  V30 880 N 91.6422 0.330177 1.54103 0
M  V30 881 C 92.5722 -0.525353 2.27513 0
M  V30 882 C 93.5532 -1.11383 1.2856 0
M  V30 883 O 94.7382 -1.13773 1.57383 0
M  V30 884 C 91.8682 -1.6831 3.03791 0
M  V30 885 C 90.8222 -1.2236 4.10137 0
M  V30 886 C 90.1482 -2.46882 4.74293 0
M  V30 887 C 91.4482 -0.333697 5.21233 0
M  V30 888 H 93.1422 0.087013 2.99274 0
M  V30 889 H 90.6882 0.0432893 1.43935 0
M  V30 890 H 92.6412 -2.28795 3.5388 0
M  V30 891 H 91.3652 -2.32216 2.29659 0
M  V30 892 H 90.0242 -0.64165 3.60941 0
M  V30 893 H 89.6722 -3.09165 3.96769 0
M  V30 894 H 89.3722 -2.16825 5.46133 0
M  V30 895 H 90.8962 -3.08117 5.27159 0
M  V30 896 H 92.3102 -0.845013 5.67038 0
M  V30 897 H 90.7072 -0.125612 5.99969 0
M  V30 898 H 91.7772 0.633724 4.80741 0
M  V30 899 N 93.1203 -1.57491 0.0584922 0
M  V30 900 C 94.3663 -1.93264 -0.614558 0
M  V30 901 C 94.6993 -0.937717 -1.7006 0
M  V30 902 O 93.9743 0.0351652 -1.94468 0
M  V30 903 C 94.2573 -3.3938 -1.20386 0
M  V30 904 C 94.1103 -4.49625 -0.125375 0
M  V30 905 C 95.4293 -3.86039 -2.11334 0
M  V30 906 H 92.5483 -0.702791 -0.221933 0
M  V30 907 H 95.1903 -1.8961 0.12175 0
M  V30 908 H 93.3403 -3.42626 -1.83139 0
M  V30 909 H 95.0123 -4.58506 0.506971 0
M  V30 910 H 93.2553 -4.30354 0.545672 0
M  V30 911 H 93.9263 -5.48967 -0.577861 0
M  V30 912 H 96.4023 -3.84716 -1.58534 0
M  V30 913 H 95.2783 -4.88914 -2.49507 0
M  V30 914 H 95.5393 -3.23215 -3.01636 0
M  V30 915 N 94.5984 0.214957 -1.56127 0
M  V30 916 C 95.8464 0.936518 -1.79091 0
M  V30 917 C 96.1674 1.84606 -0.628148 0
M  V30 918 O 95.4374 1.92664 0.35462 0
M  V30 919 H 94.0174 0.3488 -0.660566 0
M  V30 920 H 96.6794 0.22523 -1.93594 0
M  V30 921 H 95.7754 1.53943 -2.71492 0
M  V30 922 N 96.0765 1.50051 0.48192 0
M  V30 923 C 97.3015 1.64508 1.26301 0
M  V30 924 C 97.7265 0.323851 1.85291 0
M  V30 925 O 97.0845 -0.710969 1.66778 0
M  V30 926 C 97.1325 2.7305 2.35533 0
M  V30 927 O 96.2365 2.3355 3.39895 0
M  V30 928 H 95.5775 0.549978 0.372048 0
M  V30 929 H 98.1075 1.9636 0.574786 0
M  V30 930 H 98.1175 2.95799 2.8101 0
M  V30 931 H 96.7925 3.68946 1.91967 0
M  V30 932 H 95.3695 2.21205 3.00204 0
M  V30 933 N 97.5546 -0.734337 1.39446 0
M  V30 934 C 98.8006 -1.49613 1.36908 0
M  V30 935 C 99.1336 -1.94169 -0.0347829 0
M  V30 936 O 98.4086 -1.66833 -0.999847 0
M  V30 937 C 98.6916 -2.73534 2.34203 0
M  V30 938 C 98.5446 -2.34993 3.83534 0
M  V30 939 C 99.8636 -3.75635 2.29317 0
M  V30 940 H 96.9826 -0.542714 0.498629 0
M  V30 941 H 99.6246 -0.839597 1.70443 0
M  V30 942 H 97.7746 -3.29553 2.05736 0
M  V30 943 H 99.4466 -1.84601 4.22753 0
M  V30 944 H 97.6896 -1.67213 4.00278 0
M  V30 945 H 98.3606 -3.23738 4.47099 0
M  V30 946 H 100.837 -3.29203 2.54489 0
M  V30 947 H 99.7126 -4.60008 2.99472 0
M  V30 948 H 99.9736 -4.22603 1.29842 0
M  V30 949 N 99.0327 -1.24633 -0.964593 0
M  V30 950 C 100.31 -0.995809 -1.68354 0
M  V30 951 C 100.69 0.480964 -2.05548 0
M  V30 952 O 100.038 1.45599 -1.76105 0
M  V30 953 C 100.248 -1.92177 -2.91323 0
M  V30 954 C 101.596 -2.19446 -3.63495 0
M  V30 955 O 102.62 -1.89855 -3.01386 0
M  V30 956 O 101.479 -2.69714 -4.75307 0
M  V30 957 H 98.5727 -0.376854 -0.736146 0
M  V30 958 H 101.119 -1.35745 -1.0184 0
M  V30 959 H 99.8907 -2.91938 -2.60553 0
M  V30 960 H 99.5137 -1.56349 -3.65569 0
M  V30 961 N 100.511 1.16574 -1.06058 0
M  V30 962 C 101.922 1.68662 -0.800632 0
M  V30 963 C 102.273 1.84184 0.67608 0
M  V30 964 O 101.398 1.53568 1.52466 0
M  V30 965 C 101.993 3.06356 -1.44676 0
M  V30 966 C 100.552 3.55575 -1.23465 0
M  V30 967 C 99.6988 2.31616 -1.52477 0
M  V30 968 H 102.65 1.00969 -1.22438 0
M  V30 969 H 102.671 3.70636 -0.860788 0
M  V30 970 H 102.183 2.95027 -2.52152 0
M  V30 971 H 100.284 3.72167 -0.179527 0
M  V30 972 H 100.397 4.37812 -1.94571 0
M  V30 973 H 98.7608 2.36512 -0.945209 0
M  V30 974 H 99.5438 2.22887 -2.61106 0
M  V30 975 N 101.989 0.842826 1.3317 0
M  V30 976 C 103.217 0.454055 2.01856 0
M  V30 977 C 103.632 -0.94587 1.63397 0
M  V30 978 O 102.989 -1.61534 0.849302 0
M  V30 979 C 103.04 0.569715 3.56982 0
M  V30 980 O 102.761 1.91448 3.94055 0
M  V30 981 C 104.262 0.178412 4.42941 0
M  V30 982 H 101.482 0.17979 0.646465 0
M  V30 983 H 104.026 1.1365 1.70012 0
M  V30 984 H 102.181 -0.0648587 3.87346 0
M  V30 985 H 102.595 1.90282 4.88767 0
M  V30 986 H 104.069 0.310376 5.51127 0
M  V30 987 H 104.546 -0.880056 4.30293 0
M  V30 988 H 105.152 0.787579 4.17944 0
M  V30 989 N 103.467 -1.45747 0.599634 0
M  V30 990 C 104.397 -2.33235 -0.111306 0
M  V30 991 C 105.378 -1.46359 -0.866781 0
M  V30 992 O 106.563 -1.75146 -0.838904 0
M  V30 993 C 103.693 -3.28932 -1.11451 0
M  V30 994 C 102.647 -4.25381 -0.472772 0
M  V30 995 C 101.973 -5.1071 -1.58365 0
M  V30 996 C 103.273 -5.18831 0.600948 0
M  V30 997 H 104.967 -2.92927 0.61919 0
M  V30 998 H 102.513 -1.40857 0.299215 0
M  V30 999 H 104.466 -3.89002 -1.62036 0
M  V30 1000 H 103.19 -2.67381 -1.8755 0
M  V30 1001 H 101.849 -3.66598 0.0121472 0
M  V30 1002 H 101.497 -4.45533 -2.33473 0
M  V30 1003 H 101.197 -5.7604 -1.15982 0
M  V30 1004 H 102.721 -5.73647 -2.09194 0
M  V30 1005 H 104.135 -5.73019 0.179491 0
M  V30 1006 H 102.532 -5.92595 0.946076 0
M  V30 1007 H 103.602 -4.6174 1.48068 0
M  V30 1008 N 104.945 -0.338344 -1.53925 0
M  V30 1009 C 106.361 0.0137736 -1.59594 0
M  V30 1010 C 106.561 1.49186 -1.35447 0
M  V30 1011 O 105.617 2.24987 -1.14616 0
M  V30 1012 C 106.93 -0.41773 -2.97784 0
M  V30 1013 C 108.478 -0.369633 -3.1081 0
M  V30 1014 C 108.953 -0.776524 -4.51369 0
M  V30 1015 N 110.444 -0.730506 -4.57403 0
M  V30 1016 C 111.179 -1.01736 -5.64303 0
M  V30 1017 N 110.675 -1.3721 -6.79077 0
M  V30 1018 N 112.468 -0.941942 -5.54151 0
M  V30 1019 H 104.619 -1.3012 -1.67876 0
M  V30 1020 H 106.882 -0.530082 -0.78595 0
M  V30 1021 H 106.588 -1.44811 -3.20504 0
M  V30 1022 H 106.462 0.209729 -3.76616 0
M  V30 1023 H 108.849 0.651568 -2.87817 0
M  V30 1024 H 108.93 -1.03223 -2.34049 0
M  V30 1025 H 108.574 -1.79571 -4.75096 0
M  V30 1026 H 108.504 -0.0914649 -5.26521 0
M  V30 1027 H 110.995 -0.468783 -3.74981 0
M  V30 1028 H 111.308 -1.57597 -7.5656 0
M  V30 1029 H 109.653 -1.4105 -6.80536 0
M  V30 1030 H 112.844 -0.664184 -4.63364 0
M  V30 1031 H 113.017 -1.16884 -6.37371 0
M  V30 1032 N 106.423 1.57458 -0.0668435 0
M  V30 1033 C 107.333 2.15937 0.916975 0
M  V30 1034 C 108.349 1.12123 1.33058 0
M  V30 1035 O 109.525 1.44366 1.40429 0
M  V30 1036 C 106.59 2.70547 2.16807 0
M  V30 1037 C 105.651 3.89215 1.81135 0
M  V30 1038 C 104.884 4.41211 3.0028 0
M  V30 1039 O 105.107 3.92225 4.14144 0
M  V30 1040 O 104.041 5.32605 2.80384 0
M  V30 1041 H 107.867 3.00354 0.449561 0
M  V30 1042 H 105.452 1.48584 0.155949 0
M  V30 1043 H 107.334 3.0557 2.90181 0
M  V30 1044 H 106.009 1.89192 2.62656 0
M  V30 1045 H 104.916 3.59054 1.05028 0
M  V30 1046 H 106.249 4.71848 1.40073 0
M  V30 1047 N 107.901 -0.206675 1.56239 0
M  V30 1048 C 108.833 -1.27997 1.9013 0
M  V30 1049 C 109.846 -1.42299 0.790883 0
M  V30 1050 O 111.035 -1.42931 1.06925 0
M  V30 1051 C 108.135 -2.65368 2.10792 0
M  V30 1052 C 107.308 -2.72824 3.41886 0
M  V30 1053 C 106.367 -3.9131 3.51799 0
M  V30 1054 O 105.393 -3.78953 4.24716 0
M  V30 1055 N 106.595 -5.06265 2.84035 0
M  V30 1056 H 109.36 -0.992444 2.82791 0
M  V30 1057 H 106.921 -0.396652 1.56966 0
M  V30 1058 H 108.913 -3.43039 2.14724 0
M  V30 1059 H 107.483 -2.86657 1.24685 0
M  V30 1060 H 106.703 -1.81515 3.49923 0
M  V30 1061 H 107.991 -2.74786 4.28217 0
M  V30 1062 H 107.389 -5.19203 2.246 0
M  V30 1063 H 105.946 -5.81925 2.93609 0
M  V30 1064 N 109.379 -1.50304 -0.473955 0
M  V30 1065 C 110.311 -1.65109 -1.58971 0
M  V30 1066 C 111.324 -0.532676 -1.53839 0
M  V30 1067 O 112.513 -0.805751 -1.59279 0
M  V30 1068 C 109.613 -1.61684 -2.97845 0
M  V30 1069 C 108.786 -2.8951 -3.27876 0
M  V30 1070 C 107.845 -2.78768 -4.4629 0
M  V30 1071 O 106.871 -3.52722 -4.46739 0
M  V30 1072 N 108.073 -1.9213 -5.47783 0
M  V30 1073 H 110.838 -2.61347 -1.46689 0
M  V30 1074 H 108.399 -1.47732 -0.662324 0
M  V30 1075 H 110.391 -1.52114 -3.75024 0
M  V30 1076 H 108.961 -0.731925 -3.03911 0
M  V30 1077 H 108.181 -3.13228 -2.39336 0
M  V30 1078 H 109.469 -3.74199 -3.4475 0
M  V30 1079 H 108.867 -1.31353 -5.50239 0
M  V30 1080 H 107.424 -1.88466 -6.23958 0
M  V30 1081 N 110.857 0.726932 -1.39834 0
M  V30 1082 C 111.787 1.85405 -1.41941 0
M  V30 1083 C 112.768 1.67751 -0.281728 0
M  V30 1084 O 113.953 1.8795 -0.488717 0
M  V30 1085 C 111.083 3.23243 -1.2701 0
M  V30 1086 C 110.037 3.55549 -2.38262 0
M  V30 1087 C 109.363 4.9241 -2.08415 0
M  V30 1088 C 110.663 3.577 -3.80589 0
M  V30 1089 H 112.357 1.83899 -2.36266 0
M  V30 1090 H 109.903 0.883349 -1.13723 0
M  V30 1091 H 111.856 4.01775 -1.27103 0
M  V30 1092 H 110.58 3.25296 -0.291564 0
M  V30 1093 H 109.239 2.79351 -2.37399 0
M  V30 1094 H 108.887 4.91052 -1.0898 0
M  V30 1095 H 108.587 5.14992 -2.82943 0
M  V30 1096 H 110.111 5.73289 -2.10171 0
M  V30 1097 H 111.525 4.26293 -3.83337 0
M  V30 1098 H 109.922 3.91804 -4.54543 0
M  V30 1099 H 110.992 2.57328 -4.10987 0
M  V30 1100 N 112.336 1.25143 0.95797 0
M  V30 1101 C 113.268 1.01023 2.05735 0
M  V30 1102 C 114.281 -0.0236902 1.62783 0
M  V30 1103 O 115.47 0.21448 1.77207 0
M  V30 1104 C 112.57 0.504595 3.35122 0
M  V30 1105 C 111.743 1.6039 4.06932 0
M  V30 1106 C 110.802 1.09922 5.14591 0
M  V30 1107 O 109.828 1.79293 5.40225 0
M  V30 1108 N 111.03 -0.0612545 5.80468 0
M  V30 1109 H 113.795 1.95683 2.26998 0
M  V30 1110 H 111.356 1.16303 1.12629 0
M  V30 1111 H 113.348 0.151516 4.04416 0
M  V30 1112 H 111.918 -0.347989 3.10657 0
M  V30 1113 H 111.138 2.12872 3.31782 0
M  V30 1114 H 112.426 2.34252 4.51667 0
M  V30 1115 H 111.824 -0.640985 5.62057 0
M  V30 1116 H 110.381 -0.355395 6.5083 0
M  V30 1117 N 113.814 -1.1601 1.06675 0
M  V30 1118 C 114.746 -2.20115 0.638921 0
M  V30 1119 C 115.759 -1.59916 -0.305057 0
M  V30 1120 O 116.948 -1.78245 -0.0954446 0
M  V30 1121 C 114.048 -3.38798 -0.0830083 0
M  V30 1122 C 113.221 -4.2855 0.875426 0
M  V30 1123 C 112.28 -5.25849 0.192042 0
M  V30 1124 O 111.306 -5.63102 0.830921 0
M  V30 1125 N 112.508 -5.70648 -1.06493 0
M  V30 1126 H 115.273 -2.57439 1.53444 0
M  V30 1127 H 112.834 -1.31057 0.950557 0
M  V30 1128 H 114.826 -4.00936 -0.550685 0
M  V30 1129 H 113.396 -2.99947 -0.880386 0
M  V30 1130 H 112.616 -3.63617 1.52238 0
M  V30 1131 H 113.904 -4.85393 1.52548 0
M  V30 1132 H 113.302 -5.42482 -1.60405 0
M  V30 1133 H 111.859 -6.34859 -1.47641 0
M  V30 1134 N 115.292 -0.849877 -1.32721 0
M  V30 1135 C 116.202 -0.293791 -2.32753 0
M  V30 1136 C 117.218 0.585906 -1.63839 0
M  V30 1137 O 118.394 0.487413 -1.95413 0
M  V30 1138 C 115.459 0.512752 -3.42887 0
M  V30 1139 C 114.52 -0.39252 -4.27502 0
M  V30 1140 C 113.753 0.375625 -5.32377 0
M  V30 1141 O 113.976 1.60613 -5.4732 0
M  V30 1142 O 112.91 -0.256094 -6.01355 0
M  V30 1143 H 116.736 -1.12242 -2.82197 0
M  V30 1144 H 114.321 -0.612685 -1.36259 0
M  V30 1145 H 116.203 0.970704 -4.10067 0
M  V30 1146 H 114.878 1.31826 -2.95641 0
M  V30 1147 H 113.785 -0.898547 -3.63149 0
M  V30 1148 H 115.118 -1.16309 -4.7826 0
M  V30 1149 N 116.77 1.45427 -0.607355 0
M  V30 1150 C 117.7 2.3329 0.0989352 0
M  V30 1151 C 118.681 1.46816 0.859007 0
M  V30 1152 O 119.866 1.75588 0.829604 0
M  V30 1153 C 116.996 3.29518 1.09705 0
M  V30 1154 C 115.95 4.25626 0.450206 0
M  V30 1155 C 115.276 5.11542 1.55655 0
M  V30 1156 C 116.576 5.18505 -0.628455 0
M  V30 1157 H 118.27 2.92595 -0.634716 0
M  V30 1158 H 115.816 1.40696 -0.306681 0
M  V30 1159 H 117.769 3.89855 1.59971 0
M  V30 1160 H 116.493 2.68372 1.86129 0
M  V30 1161 H 115.152 3.66586 -0.0315886 0
M  V30 1162 H 114.8 4.46765 2.31107 0
M  V30 1163 H 114.5 5.76647 1.12925 0
M  V30 1164 H 116.024 5.74748 2.06148 0
M  V30 1165 H 117.438 5.72916 -0.209877 0
M  V30 1166 H 115.835 5.92085 -0.977489 0
M  V30 1167 H 116.905 4.60948 -1.50514 0
M  V30 1168 N 118.248 0.346503 1.53744 0
M  V30 1169 C 119.178 -0.501193 2.28058 0
M  V30 1170 C 120.159 -1.10014 1.29734 0
M  V30 1171 O 121.344 -1.12097 1.58581 0
M  V30 1172 C 118.474 -1.65078 3.05559 0
M  V30 1173 C 117.428 -1.18003 4.11411 0
M  V30 1174 C 116.754 -2.41837 4.76884 0
M  V30 1175 C 118.054 -0.278394 5.21558 0
M  V30 1176 H 119.748 0.11875 2.99164 0
M  V30 1177 H 117.294 0.0585531 1.43881 0
M  V30 1178 H 119.247 -2.25028 3.56287 0
M  V30 1179 H 117.971 -2.29767 2.32109 0
M  V30 1180 H 116.63 -0.603331 3.61601 0
M  V30 1181 H 116.278 -3.0494 4.00026 0
M  V30 1182 H 115.978 -2.1102 5.48402 0
M  V30 1183 H 117.502 -3.02508 5.30397 0
M  V30 1184 H 118.916 -0.784823 5.67903 0
M  V30 1185 H 117.313 -0.0619707 6.00068 0
M  V30 1186 H 118.383 0.684677 4.80042 0
M  V30 1187 N 119.726 -1.57421 0.075193 0
M  V30 1188 C 120.689 -2.11791 -0.876203 0
M  V30 1189 C 121.689 -1.04268 -1.22412 0
M  V30 1190 O 122.879 -1.30242 -1.15684 0
M  V30 1191 C 120.011 -2.62207 -2.17854 0
M  V30 1192 H 121.204 -2.9716 -0.40444 0
M  V30 1193 H 118.757 -1.55333 -0.173557 0
M  V30 1194 H 119.492 -1.803 -2.6956 0
M  V30 1195 H 119.277 -3.40802 -1.93897 0
M  V30 1196 H 120.767 -3.04335 -2.85955 0
M  V30 1197 N 121.204 0.198386 -1.56346 0
M  V30 1198 C 122.134 1.24865 -1.9731 0
M  V30 1199 C 123.115 1.47651 -0.844576 0
M  V30 1200 O 124.3 1.59444 -1.10866 0
M  V30 1201 C 121.43 2.59358 -2.30977 0
M  V30 1202 C 120.384 2.5119 -3.46537 0
M  V30 1203 C 119.71 3.89926 -3.65871 0
M  V30 1204 C 121.01 2.03977 -4.80823 0
M  V30 1205 H 122.704 0.908252 -2.85291 0
M  V30 1206 H 120.25 0.435462 -1.37258 0
M  V30 1207 H 122.203 3.33011 -2.58228 0
M  V30 1208 H 120.927 2.95132 -1.39874 0
M  V30 1209 H 119.586 1.79993 -3.19371 0
M  V30 1210 H 119.234 4.23046 -2.72105 0
M  V30 1211 H 118.934 3.85336 -4.4361 0
M  V30 1212 H 120.458 4.65205 -3.95495 0
M  V30 1213 H 121.872 2.67386 -5.07127 0
M  V30 1214 H 120.269 2.10397 -5.62008 0
M  V30 1215 H 121.339 0.992861 -4.74626 0
M  V30 1216 N 122.682 1.50554 0.465978 0
M  V30 1217 C 123.629 1.6979 1.56333 0
M  V30 1218 C 124.599 0.539239 1.57103 0
M  V30 1219 O 125.784 0.770401 1.74555 0
M  V30 1220 C 122.924 1.80273 2.94271 0
M  V30 1221 C 122.037 3.07674 3.0325 0
M  V30 1222 C 121.172 3.08922 4.32135 0
M  V30 1223 C 120.211 4.30755 4.34875 0
M  V30 1224 N 119.348 4.29714 5.55239 0
M  V30 1225 H 124.188 2.63472 1.39235 0
M  V30 1226 H 121.725 1.30602 0.676873 0
M  V30 1227 H 123.683 1.84332 3.74269 0
M  V30 1228 H 122.313 0.900258 3.09992 0
M  V30 1229 H 121.365 3.13062 2.16094 0
M  V30 1230 H 122.677 3.97642 3.01135 0
M  V30 1231 H 121.831 3.11738 5.20485 0
M  V30 1232 H 120.57 2.16792 4.36866 0
M  V30 1233 H 119.575 4.28146 3.44922 0
M  V30 1234 H 120.8 5.24117 4.31831 0
M  V30 1235 H 118.746 3.4044 5.60746 0
M  V30 1236 H 118.663 5.13456 5.54886 0
M  V30 1237 H 119.931 4.36683 6.457 0
M  V30 1238 N 124.16 -0.719506 1.40217 0
M  V30 1239 C 125.092 -1.84428 1.36084 0
M  V30 1240 C 126.105 -1.60597 0.266913 0
M  V30 1241 O 127.294 -1.70544 0.526983 0
M  V30 1242 C 124.394 -3.20757 1.094 0
M  V30 1243 C 123.567 -3.71817 2.30372 0
M  V30 1244 C 122.626 -4.86748 1.99907 0
M  V30 1245 O 121.652 -4.99603 2.72737 0
M  V30 1246 N 122.854 -5.7226 0.974635 0
M  V30 1247 H 125.619 -1.88473 2.33019 0
M  V30 1248 H 123.18 -0.900885 1.3452 0
M  V30 1249 H 125.172 -3.95235 0.870116 0
M  V30 1250 H 123.742 -3.11884 0.211452 0
M  V30 1251 H 122.962 -2.88514 2.68614 0
M  V30 1252 H 124.25 -4.02666 3.11026 0
M  V30 1253 H 123.648 -5.6448 0.371368 0
M  V30 1254 H 122.205 -6.46739 0.810656 0
M  V30 1255 N 125.638 -1.25649 -0.95132 0
M  V30 1256 C 126.57 -1.02112 -2.05197 0
M  V30 1257 C 127.583 0.0150571 -1.62793 0
M  V30 1258 O 128.772 -0.223874 -1.77091 0
M  V30 1259 C 125.872 -0.522361 -3.3485 0
M  V30 1260 C 125.045 -1.62546 -4.06076 0
M  V30 1261 C 124.104 -1.12649 -5.14001 0
M  V30 1262 O 123.13 -1.82156 -5.39266 0
M  V30 1263 N 124.332 0.03047 -5.80492 0
M  V30 1264 H 127.097 -1.96885 -2.25957 0
M  V30 1265 H 124.658 -1.16899 -1.1201 0
M  V30 1266 H 126.65 -0.172961 -4.0433 0
M  V30 1267 H 125.22 0.33151 -3.10837 0
M  V30 1268 H 124.44 -2.14628 -3.30649 0
M  V30 1269 H 125.728 -2.36644 -4.50419 0
M  V30 1270 H 125.126 0.611169 -5.62389 0
M  V30 1271 H 123.683 0.320875 -6.5101 0
M  V30 1272 N 127.117 1.15442 -1.07289 0
M  V30 1273 C 128.049 2.19773 -0.650585 0
M  V30 1274 C 129.062 1.60076 0.296572 0
M  V30 1275 O 130.251 1.78293 0.0859905 0
M  V30 1276 C 127.351 3.38838 0.0650398 0
M  V30 1277 C 126.524 4.2808 -0.898141 0
M  V30 1278 C 125.583 5.2574 -0.219926 0
M  V30 1279 O 124.609 5.62654 -0.860773 0
M  V30 1280 N 125.811 5.71205 1.03466 0
M  V30 1281 H 128.576 2.56622 -1.54808 0
M  V30 1282 H 126.137 1.30551 -0.957494 0
M  V30 1283 H 128.129 4.01222 0.529415 0
M  V30 1284 H 126.699 3.00409 0.864466 0
M  V30 1285 H 125.919 3.62804 -1.54165 0
M  V30 1286 H 127.207 4.84577 -1.5512 0
M  V30 1287 H 126.605 5.43325 1.57526 0
M  V30 1288 H 125.162 6.35633 1.44272 0
M  V30 1289 N 128.595 0.856903 1.32268 0
M  V30 1290 C 129.527 0.260412 2.27716 0
M  V30 1291 C 130.54 -0.569137 1.52528 0
M  V30 1292 O 131.729 -0.39326 1.74114 0
M  V30 1293 C 128.829 -0.650477 3.32599 0
M  V30 1294 C 128.002 0.14372 4.37164 0
M  V30 1295 C 127.061 -0.69328 5.21613 0
M  V30 1296 O 126.087 -0.12599 5.69061 0
M  V30 1297 N 127.289 -2.00761 5.44679 0
M  V30 1298 H 130.054 1.08059 2.79541 0
M  V30 1299 H 127.615 0.717103 1.45152 0
M  V30 1300 H 129.607 -1.21581 3.86005 0
M  V30 1301 H 128.177 -1.37133 2.80915 0
M  V30 1302 H 127.397 0.890486 3.8401 0
M  V30 1303 H 128.685 0.68915 5.04111 0
M  V30 1304 H 128.083 -2.49181 5.07863 0
M  V30 1305 H 126.64 -2.52103 6.01072 0
M  V30 1306 N 130.073 -1.45103 0.615059 0
M  V30 1307 C 131.003 -2.33339 -0.0865619 0
M  V30 1308 C 131.984 -1.4727 -0.851209 0
M  V30 1309 O 133.169 -1.76026 -0.820281 0
M  V30 1310 C 130.299 -3.30095 -1.07956 0
M  V30 1311 C 129.253 -4.25858 -0.427628 0
M  V30 1312 C 128.579 -5.12361 -1.5294 0
M  V30 1313 C 129.879 -5.18165 0.655944 0
M  V30 1314 H 131.573 -2.92254 0.650224 0
M  V30 1315 H 129.119 -1.40532 0.314138 0
M  V30 1316 H 131.072 -3.90698 -1.57901 0
M  V30 1317 H 129.796 -2.69355 -1.84703 0
M  V30 1318 H 128.455 -3.66564 0.0510292 0
M  V30 1319 H 128.103 -4.47984 -2.28734 0
M  V30 1320 H 127.803 -5.77238 -1.09865 0
M  V30 1321 H 129.327 -5.75833 -2.03098 0
M  V30 1322 H 130.741 -5.72796 0.240257 0
M  V30 1323 H 129.138 -5.91559 1.00888 0
M  V30 1324 H 130.208 -4.60144 1.52957 0
M  V30 1325 N 131.551 -0.354651 -1.53558 0
M  V30 1326 C 132.483 0.5315 -2.22952 0
M  V30 1327 C 133.496 1.05503 -1.23988 0
M  V30 1328 O 134.685 0.963279 -1.50277 0
M  V30 1329 C 131.785 1.74538 -2.90499 0
M  V30 1330 C 130.958 1.35524 -4.15875 0
M  V30 1331 C 130.017 2.42999 -4.66731 0
M  V30 1332 O 129.043 2.05844 -5.30676 0
M  V30 1333 N 130.245 3.74423 -4.43608 0
M  V30 1334 H 133.01 -0.0628615 -2.99634 0
M  V30 1335 H 130.571 -0.179302 -1.60904 0
M  V30 1336 H 132.563 2.45892 -3.21433 0
M  V30 1337 H 131.133 2.24686 -2.17336 0
M  V30 1338 H 130.353 0.471998 -3.91364 0
M  V30 1339 H 131.641 1.07071 -4.97406 0
M  V30 1340 H 131.039 4.07391 -3.92491 0
M  V30 1341 H 129.596 4.41913 -4.7912 0
M  V30 1342 N 133.029 1.57378 -0.0835403 0
M  V30 1343 C 133.976 2.13384 0.879539 0
M  V30 1344 C 134.946 1.04936 1.28754 0
M  V30 1345 O 136.131 1.32662 1.37133 0
M  V30 1346 C 133.271 2.70932 2.13752 0
M  V30 1347 C 132.384 3.93575 1.7811 0
M  V30 1348 C 131.519 4.39326 2.98607 0
M  V30 1349 C 130.558 5.54587 2.59037 0
M  V30 1350 N 129.695 5.95243 3.72331 0
M  V30 1351 H 134.535 2.9537 0.395076 0
M  V30 1352 H 132.072 1.45953 0.183349 0
M  V30 1353 H 134.03 3.02411 2.87408 0
M  V30 1354 H 132.66 1.91693 2.59718 0
M  V30 1355 H 131.712 3.68483 0.94469 0
M  V30 1356 H 133.024 4.77258 1.45005 0
M  V30 1357 H 132.178 4.72528 3.80529 0
M  V30 1358 H 130.917 3.5452 3.34913 0
M  V30 1359 H 129.922 5.21024 1.75539 0
M  V30 1360 H 131.147 6.41133 2.23887 0
M  V30 1361 H 129.093 5.13385 4.08378 0
M  V30 1362 H 129.01 6.73694 3.43034 0
M  V30 1363 H 130.278 6.33072 4.54797 0
M  V30 1364 N 134.507 -0.190092 1.56449 0
M  V30 1365 C 135.439 -1.25973 1.91477 0
M  V30 1366 C 136.452 -1.41452 0.805931 0
M  V30 1367 O 137.641 -1.41789 1.08435 0
M  V30 1368 C 134.741 -2.63117 2.13594 0
M  V30 1369 C 133.914 -2.69182 3.4476 0
M  V30 1370 C 132.973 -3.87557 3.5593 0
M  V30 1371 O 131.999 -3.74427 4.28711 0
M  V30 1372 N 133.201 -5.03224 2.89388 0
M  V30 1373 H 135.966 -0.962394 2.83828 0
M  V30 1374 H 133.527 -0.379981 1.57378 0
M  V30 1375 H 135.519 -3.40742 2.1835 0
M  V30 1376 H 134.089 -2.85319 1.27719 0
M  V30 1377 H 133.309 -1.77793 3.51828 0
M  V30 1378 H 134.597 -2.70229 4.31107 0
M  V30 1379 H 133.995 -5.16791 2.30094 0
M  V30 1380 H 132.552 -5.78778 2.99764 0
M  V30 1381 N 135.985 -1.50799 -0.457987 0
M  V30 1382 C 136.915 -1.73553 -1.5621 0
M  V30 1383 C 137.896 -0.584774 -1.59732 0
M  V30 1384 O 139.081 -0.825314 -1.7579 0
M  V30 1385 C 136.211 -1.84169 -2.94447 0
M  V30 1386 C 135.165 -2.99461 -3.0579 0
M  V30 1387 C 134.491 -2.95235 -4.45803 0
M  V30 1388 C 135.791 -4.39766 -2.81786 0
M  V30 1389 H 137.485 -2.66 -1.37421 0
M  V30 1390 H 135.031 -1.28002 -0.659662 0
M  V30 1391 H 136.984 -1.98672 -3.71628 0
M  V30 1392 H 135.708 -0.883545 -3.14422 0
M  V30 1393 H 134.367 -2.8463 -2.31044 0
M  V30 1394 H 134.015 -1.97239 -4.62715 0
M  V30 1395 H 133.715 -3.72642 -4.54326 0
M  V30 1396 H 135.239 -3.11803 -5.24987 0
M  V30 1397 H 136.653 -4.55054 -3.4871 0
M  V30 1398 H 135.05 -5.18722 -3.0174 0
M  V30 1399 H 136.12 -4.51229 -1.7754 0
M  V30 1400 N 137.463 0.71206 -1.40597 0
M  V30 1401 C 138.393 1.83889 -1.43899 0
M  V30 1402 C 139.374 1.67442 -0.299504 0
M  V30 1403 O 140.559 1.87421 -0.508624 0
M  V30 1404 C 137.689 3.21877 -1.30431 0
M  V30 1405 C 136.643 3.53002 -2.42019 0
M  V30 1406 C 135.969 4.90172 -2.13626 0
M  V30 1407 C 137.269 3.53643 -3.84362 0
M  V30 1408 H 138.963 1.81383 -2.38203 0
M  V30 1409 H 136.509 0.871237 -1.14654 0
M  V30 1410 H 138.462 4.00404 -1.31357 0
M  V30 1411 H 137.186 3.24968 -0.326049 0
M  V30 1412 H 135.845 2.76818 -2.40349 0
M  V30 1413 H 135.493 4.89869 -1.14182 0
M  V30 1414 H 135.193 5.11962 -2.88389 0
M  V30 1415 H 136.717 5.71028 -2.1624 0
M  V30 1416 H 138.131 4.22203 -3.87837 0
M  V30 1417 H 136.528 3.86961 -4.58673 0
M  V30 1418 H 137.598 2.52954 -4.13693 0
M  V30 1419 N 138.941 1.26152 0.944643 0
M  V30 1420 C 140.188 1.11492 1.69044 0
M  V30 1421 C 140.516 -0.342366 1.91463 0
M  V30 1422 O 139.771 -1.26812 1.49054 0
M  V30 1423 C 140.07 1.82541 3.07268 0
M  V30 1424 C 139.736 3.32445 3.04616 0
M  V30 1425 C 138.398 3.73337 3.036 0
M  V30 1426 C 140.75 4.28171 2.97185 0
M  V30 1427 C 138.078 5.08348 2.92915 0
M  V30 1428 C 140.43 5.63218 2.88041 0
M  V30 1429 C 139.094 6.03426 2.85366 0
M  V30 1430 H 138.364 0.407977 0.618576 0
M  V30 1431 H 141.011 1.56551 1.10291 0
M  V30 1432 H 139.316 1.29941 3.69625 0
M  V30 1433 H 141.013 1.68642 3.63815 0
M  V30 1434 H 137.603 2.99915 3.06185 0
M  V30 1435 H 141.787 3.97563 2.97081 0
M  V30 1436 H 137.043 5.38667 2.89219 0
M  V30 1437 H 141.217 6.37078 2.81254 0
M  V30 1438 H 138.844 7.07999 2.76842 0
M  V30 1439 N 140.419 -1.14872 1.07899 0
M  V30 1440 C 141.382 -2.17986 0.708161 0
M  V30 1441 C 142.382 -1.58775 -0.25442 0
M  V30 1442 O 143.572 -1.74166 -0.034645 0
M  V30 1443 C 140.704 -3.40871 0.0446929 0
M  V30 1444 H 141.897 -2.52306 1.62116 0
M  V30 1445 H 139.45 -1.2943 0.876218 0
M  V30 1446 H 140.185 -3.12124 -0.880281 0
M  V30 1447 H 139.97 -3.8511 0.737091 0
M  V30 1448 H 141.46 -4.17121 -0.19991 0
M  V30 1449 N 141.898 -0.863906 -1.31812 0
M  V30 1450 C 142.808 -0.318461 -2.32428 0
M  V30 1451 C 143.824 0.568496 -1.64451 0
M  V30 1452 O 145 0.46666 -1.95919 0
M  V30 1453 C 142.065 0.476355 -3.43412 0
M  V30 1454 C 141.126 -0.43784 -4.27061 0
M  V30 1455 C 140.359 0.319138 -5.32745 0
M  V30 1456 O 140.582 1.54799 -5.48993 0
M  V30 1457 O 139.516 -0.319861 -6.01049 0
M  V30 1458 H 143.342 -1.15229 -2.80991 0
M  V30 1459 H 140.927 -0.627103 -1.35602 0
M  V30 1460 H 142.809 0.927156 -4.11074 0
M  V30 1461 H 141.484 1.28683 -2.97022 0
M  V30 1462 H 140.391 -0.937013 -3.62175 0
M  V30 1463 H 141.724 -1.21375 -4.77 0
M  V30 1464 N 143.376 1.44774 -0.622745 0
M  V30 1465 C 144.623 2.02121 -0.1239 0
M  V30 1466 C 144.951 1.48915 1.25118 0
M  V30 1467 O 144.206 0.660045 1.84233 0
M  V30 1468 C 144.505 3.57364 -0.0508323 0
M  V30 1469 C 144.171 4.29787 -1.36358 0
M  V30 1470 C 142.833 4.4929 -1.72314 0
M  V30 1471 C 145.185 4.71062 -2.23048 0
M  V30 1472 C 142.513 5.07325 -2.94682 0
M  V30 1473 C 144.865 5.30452 -3.44679 0
M  V30 1474 C 143.529 5.48175 -3.80868 0
M  V30 1475 H 142.799 0.739612 -0.0453381 0
M  V30 1476 H 145.446 1.73648 -0.807389 0
M  V30 1477 H 143.751 3.85202 0.715991 0
M  V30 1478 H 145.448 3.99456 0.351533 0
M  V30 1479 H 142.038 4.14932 -1.07375 0
M  V30 1480 H 146.222 4.55715 -1.96565 0
M  V30 1481 H 141.478 5.19235 -3.22809 0
M  V30 1482 H 145.652 5.61385 -4.12092 0
M  V30 1483 H 143.279 5.92912 -4.75773 0
M  V30 1484 N 144.854 0.36279 1.53368 0
M  V30 1485 C 145.786 -0.519668 2.23231 0
M  V30 1486 C 146.799 -1.04844 1.24546 0
M  V30 1487 O 147.988 -0.955296 1.50786 0
M  V30 1488 C 145.088 -1.72995 2.9142 0
M  V30 1489 C 144.261 -1.33316 4.16588 0
M  V30 1490 C 143.32 -2.40521 4.68013 0
M  V30 1491 O 142.346 -2.03027 5.3176 0
M  V30 1492 N 143.548 -3.72065 4.45587 0
M  V30 1493 H 146.313 0.078751 2.99597 0
M  V30 1494 H 143.874 0.187833 1.60807 0
M  V30 1495 H 145.866 -2.44184 3.22733 0
M  V30 1496 H 144.436 -2.2353 2.18525 0
M  V30 1497 H 143.656 -0.451236 3.91609 0
M  V30 1498 H 144.944 -1.04432 4.97967 0
M  V30 1499 H 144.342 -4.05304 3.94646 0
M  V30 1500 H 142.899 -4.39366 4.81457 0
M  V30 1501 N 146.332 -1.57332 0.0918853 0
M  V30 1502 C 147.279 -2.13847 -0.868211 0
M  V30 1503 C 148.249 -1.05618 -1.28196 0
M  V30 1504 O 149.434 -1.33387 -1.36427 0
M  V30 1505 C 146.574 -2.72062 -2.12312 0
M  V30 1506 C 145.687 -3.94514 -1.7602 0
M  V30 1507 C 144.822 -4.40903 -2.96273 0
M  V30 1508 C 143.861 -5.55953 -2.56092 0
M  V30 1509 N 142.998 -5.97209 -3.69169 0
M  V30 1510 H 147.838 -2.95575 -0.379406 0
M  V30 1511 H 145.375 -1.46048 -0.175606 0
M  V30 1512 H 147.333 -3.03931 -2.858 0
M  V30 1513 H 145.963 -1.93068 -2.58698 0
M  V30 1514 H 145.015 -3.68979 -0.925135 0
M  V30 1515 H 146.327 -4.7802 -1.42472 0
M  V30 1516 H 145.481 -4.74539 -3.78018 0
M  V30 1517 H 144.22 -3.56291 -3.33029 0
M  V30 1518 H 143.225 -5.21948 -1.72773 0
M  V30 1519 H 144.45 -6.42311 -2.20484 0
M  V30 1520 H 142.396 -5.15543 -4.05649 0
M  V30 1521 H 142.313 -6.75504 -3.39456 0
M  V30 1522 H 143.581 -6.35475 -4.51434 0
M  V30 1523 N 147.81 0.181792 -1.56548 0
M  V30 1524 C 148.742 1.24956 -1.92142 0
M  V30 1525 C 149.755 1.41022 -0.813422 0
M  V30 1526 O 150.944 1.41212 -1.09186 0
M  V30 1527 C 148.044 2.61981 -2.14987 0
M  V30 1528 C 147.217 2.6735 -3.46183 0
M  V30 1529 C 146.276 3.85664 -3.5798 0
M  V30 1530 O 145.302 3.72148 -4.30691 0
M  V30 1531 N 146.504 5.01683 -2.92053 0
M  V30 1532 H 149.269 0.947329 -2.84334 0
M  V30 1533 H 146.83 0.371629 -1.57577 0
M  V30 1534 H 148.822 3.3958 -2.20154 0
M  V30 1535 H 147.392 2.84637 -1.2923 0
M  V30 1536 H 146.612 1.75925 -3.52766 0
M  V30 1537 H 147.9 2.67939 -4.32534 0
M  V30 1538 H 147.298 5.15564 -2.32832 0
M  V30 1539 H 145.855 5.77181 -3.0283 0
M  V30 1540 N 149.288 1.51039 0.449983 0
M  V30 1541 C 150.238 1.67824 1.54335 0
M  V30 1542 C 151.222 0.5324 1.51836 0
M  V30 1543 O 152.414 0.787762 1.58503 0
M  V30 1544 C 149.543 1.7951 2.92628 0
M  V30 1545 C 148.629 2.99838 2.9993 0
M  V30 1546 N 149.02 4.23207 2.77001 0
M  V30 1547 C 147.318 2.98832 3.31082 0
M  V30 1548 C 148.019 5.04361 2.89818 0
M  V30 1549 N 146.995 4.38746 3.2094 0
M  V30 1550 H 150.797 2.60884 1.35339 0
M  V30 1551 H 148.311 1.48513 0.657085 0
M  V30 1552 H 150.308 1.89642 3.7127 0
M  V30 1553 H 148.968 0.876227 3.12654 0
M  V30 1554 H 149.979 4.5236 2.52172 0
M  V30 1555 H 146.656 2.16527 3.56963 0
M  V30 1556 H 148.046 6.12528 2.76151 0
M  V30 1557 N 150.766 -0.704594 1.40972 0
M  V30 1558 C 152.043 -1.45847 1.30338 0
M  V30 1559 C 152.423 -2.10973 -0.0732344 0
M  V30 1560 O 151.771 -2.00997 -1.08685 0
M  V30 1561 C 151.981 -2.48525 2.45023 0
M  V30 1562 C 153.329 -3.1404 2.8577 0
M  V30 1563 O 154.353 -2.58848 2.44696 0
M  V30 1564 O 153.212 -4.13981 3.56766 0
M  V30 1565 H 150.306 -0.649092 0.512454 0
M  V30 1566 H 152.852 -0.735836 1.52917 0
M  V30 1567 H 151.624 -1.98994 3.36923 0
M  V30 1568 H 151.247 -3.2831 2.24272 0
M  V30 1569 N 152.244 -1.26651 -0.937939 0
M  V30 1570 C 153.194 -1.05156 -2.02302 0
M  V30 1571 C 154.178 0.0171233 -1.60891 0
M  V30 1572 O 155.37 -0.200213 -1.75864 0
M  V30 1573 C 152.499 -0.689962 -3.36295 0
M  V30 1574 C 151.585 -1.79626 -3.84181 0
M  V30 1575 N 151.976 -3.03422 -4.04684 0
M  V30 1576 C 150.274 -1.6806 -4.13124 0
M  V30 1577 C 150.975 -3.75345 -4.444 0
M  V30 1578 N 149.951 -3.03051 -4.51288 0
M  V30 1579 H 153.753 -1.99117 -2.1617 0
M  V30 1580 H 151.267 -1.17216 -1.12402 0
M  V30 1581 H 153.264 -0.517112 -4.13681 0
M  V30 1582 H 151.924 0.242139 -3.23796 0
M  V30 1583 H 152.935 -3.39293 -3.91281 0
M  V30 1584 H 149.612 -0.818629 -4.09396 0
M  V30 1585 H 151.002 -4.81691 -4.68427 0
M  V30 1586 N 153.722 1.14298 -1.08507 0
M  V30 1587 C 154.652 2.21542 -0.737646 0
M  V30 1588 C 155.633 1.67773 0.280377 0
M  V30 1589 O 156.818 1.93616 0.150521 0
M  V30 1590 C 153.948 3.46988 -0.147259 0
M  V30 1591 C 152.902 4.13789 -1.09374 0
M  V30 1592 C 152.228 5.33449 -0.365524 0
M  V30 1593 C 153.528 4.62208 -2.4323 0
M  V30 1594 H 155.222 2.5086 -1.6343 0
M  V30 1595 H 152.768 1.20576 -0.787243 0
M  V30 1596 H 154.721 4.21262 0.107808 0
M  V30 1597 H 153.445 3.17037 0.784538 0
M  V30 1598 H 152.104 3.4147 -1.33393 0
M  V30 1599 H 151.752 4.99759 0.57011 0
M  V30 1600 H 151.452 5.79088 -0.996512 0
M  V30 1601 H 152.976 6.10485 -0.118534 0
M  V30 1602 H 154.39 5.27952 -2.23472 0
M  V30 1603 H 152.787 5.18553 -3.02031 0
M  V30 1604 H 153.857 3.77224 -3.04681 0
M  V30 1605 N 155.201 0.870884 1.31352 0
M  V30 1606 C 156.429 0.49677 2.00848 0
M  V30 1607 C 156.844 -0.910998 1.65367 0
M  V30 1608 O 156.201 -1.59696 0.883374 0
M  V30 1609 C 156.252 0.645308 3.55694 0
M  V30 1610 O 155.973 1.99764 3.89905 0
M  V30 1611 C 157.474 0.272326 4.42463 0
M  V30 1612 H 154.694 0.193462 0.642506 0
M  V30 1613 H 157.238 1.1723 1.67563 0
M  V30 1614 H 155.393 0.0173176 3.87396 0
M  V30 1615 H 155.807 2.00607 4.84621 0
M  V30 1616 H 157.281 0.427208 5.50344 0
M  V30 1617 H 157.758 -0.788587 4.32062 0
M  V30 1618 H 158.364 0.876054 4.1618 0
M  V30 1619 N 156.679 -1.44442 0.630414 0
M  V30 1620 C 158.095 -1.56832 0.295973 0
M  V30 1621 C 158.295 -1.61806 -1.20088 0
M  V30 1622 O 157.351 -1.5607 -1.9849 0
M  V30 1623 C 158.664 -2.84031 0.987264 0
M  V30 1624 C 160.212 -2.97742 0.96534 0
M  V30 1625 C 160.687 -4.27743 1.63708 0
M  V30 1626 N 162.178 -4.34555 1.60364 0
M  V30 1627 C 162.913 -5.33862 2.09234 0
M  V30 1628 N 162.409 -6.39578 2.66292 0
M  V30 1629 N 164.202 -5.25366 1.99867 0
M  V30 1630 H 156.353 -1.39457 1.60205 0
M  V30 1631 H 158.616 -0.668237 0.672431 0
M  V30 1632 H 158.322 -2.86338 2.04215 0
M  V30 1633 H 158.196 -3.73534 0.524588 0
M  V30 1634 H 160.583 -2.94989 -0.0810639 0
M  V30 1635 H 160.664 -2.09589 1.4665 0
M  V30 1636 H 160.308 -4.31255 2.68293 0
M  V30 1637 H 160.238 -5.14752 1.11076 0
M  V30 1638 H 162.729 -3.58772 1.18705 0
M  V30 1639 H 163.042 -7.11637 3.01317 0
M  V30 1640 H 161.387 -6.40265 2.70343 0
M  V30 1641 H 164.578 -4.41688 1.55013 0
M  V30 1642 H 164.751 -6.02606 2.38265 0
M  V30 1643 N 158.157 -0.370918 -1.53173 0
M  V30 1644 C 159.089 0.507823 -2.23503 0
M  V30 1645 C 160.102 1.04182 -1.251 0
M  V30 1646 O 161.291 0.947286 -1.5129 0
M  V30 1647 C 158.391 1.71447 -2.92334 0
M  V30 1648 C 157.564 1.31105 -4.17289 0
M  V30 1649 C 156.623 2.38035 -4.69282 0
M  V30 1650 O 155.649 2.00204 -5.32829 0
M  V30 1651 N 156.851 3.69697 -4.47554 0
M  V30 1652 H 159.616 -0.0946382 -2.99551 0
M  V30 1653 H 157.177 -0.196358 -1.60705 0
M  V30 1654 H 159.169 2.42469 -3.24023 0
M  V30 1655 H 157.739 2.22368 -2.19707 0
M  V30 1656 H 156.959 0.430462 -3.91843 0
M  V30 1657 H 158.247 1.0179 -4.98514 0
M  V30 1658 H 157.645 4.03205 -3.9679 0
M  V30 1659 H 156.202 4.36807 -4.8378 0
M  V30 1660 N 159.635 1.57281 -0.100228 0
M  V30 1661 C 160.585 2.10848 0.86759 0
M  V30 1662 C 161.569 1.02473 1.24049 0
M  V30 1663 O 162.761 1.28739 1.21471 0
M  V30 1664 C 159.89 2.69648 2.12474 0
M  V30 1665 C 158.976 3.85074 1.77704 0
M  V30 1666 N 159.367 4.92897 1.13518 0
M  V30 1667 C 157.665 3.94905 2.07282 0
M  V30 1668 C 158.366 5.73475 0.974735 0
M  V30 1669 N 157.342 5.22675 1.4937 0
M  V30 1670 H 161.144 2.91594 0.367471 0
M  V30 1671 H 158.658 1.62074 0.102829 0
M  V30 1672 H 160.655 3.06356 2.82757 0
M  V30 1673 H 159.315 1.90359 2.63047 0
M  V30 1674 H 160.326 5.11662 0.801381 0
M  V30 1675 H 157.003 3.26633 2.60033 0
M  V30 1676 H 158.393 6.70238 0.472364 0
M  V30 1677 N 161.113 -0.173488 1.56642 0
M  V30 1678 C 162.023 -1.23482 1.99473 0
M  V30 1679 C 163.039 -1.48567 0.905752 0
M  V30 1680 O 164.215 -1.60758 1.21321 0
M  V30 1681 C 161.28 -2.55444 2.34413 0
M  V30 1682 C 160.341 -2.38241 3.57127 0
M  V30 1683 C 159.574 -3.63909 3.90392 0
M  V30 1684 O 159.797 -4.68996 3.24653 0
M  V30 1685 O 158.731 -3.58149 4.83749 0
M  V30 1686 H 162.557 -0.901279 2.90018 0
M  V30 1687 H 160.142 -0.380185 1.44482 0
M  V30 1688 H 162.024 -3.33292 2.57865 0
M  V30 1689 H 160.699 -2.88382 1.4703 0
M  V30 1690 H 159.606 -1.58431 3.38896 0
M  V30 1691 H 160.939 -2.10228 4.45045 0
M  V30 1692 N 162.591 -1.51276 -0.441967 0
M  V30 1693 C 163.837 -1.63958 -1.19355 0
M  V30 1694 C 164.17 -0.352543 -1.90973 0
M  V30 1695 O 163.445 0.647627 -1.83401 0
M  V30 1696 C 163.728 -2.83979 -2.21422 0
M  V30 1697 C 163.581 -4.22646 -1.53918 0
M  V30 1698 C 164.9 -2.99521 -3.22451 0
M  V30 1699 H 162.019 -0.596709 -0.432559 0
M  V30 1700 H 164.661 -1.83748 -0.483398 0
M  V30 1701 H 162.811 -2.67237 -2.81987 0
M  V30 1702 H 164.483 -4.51045 -0.967256 0
M  V30 1703 H 162.726 -4.25558 -0.841615 0
M  V30 1704 H 163.397 -5.02609 -2.28229 0
M  V30 1705 H 165.873 -3.14944 -2.71937 0
M  V30 1706 H 164.749 -3.85072 -3.91166 0
M  V30 1707 H 165.01 -2.11391 -3.88287 0
M  V30 1708 N 164.069 0.697108 -1.41344 0
M  V30 1709 C 165.001 1.8224 -1.39001 0
M  V30 1710 C 166.014 1.60152 -0.292428 0
M  V30 1711 O 167.203 1.69684 -0.554048 0
M  V30 1712 C 164.303 3.18976 -1.14489 0
M  V30 1713 C 163.476 3.68105 -2.36258 0
M  V30 1714 C 162.535 4.83506 -2.07625 0
M  V30 1715 O 161.561 4.95201 -2.8065 0
M  V30 1716 N 162.763 5.70637 -1.06555 0
M  V30 1717 H 165.528 1.84742 -2.35988 0
M  V30 1718 H 163.089 0.87937 -1.35936 0
M  V30 1719 H 165.081 3.93801 -0.932885 0
M  V30 1720 H 163.651 3.11508 -0.261043 0
M  V30 1721 H 162.871 2.84204 -2.7317 0
M  V30 1722 H 164.159 3.97667 -3.17393 0
M  V30 1723 H 163.557 5.63817 -0.461125 0
M  V30 1724 H 162.114 6.45368 -0.913444 0
M  V30 1725 N 165.547 1.27147 0.931209 0
M  V30 1726 C 166.477 1.12081 2.04842 0
M  V30 1727 C 167.458 0.0232364 1.70084 0
M  V30 1728 O 168.643 0.197085 1.93197 0
M  V30 1729 C 165.773 0.76354 3.38803 0
M  V30 1730 C 164.727 1.81396 3.87659 0
M  V30 1731 C 164.053 1.31075 5.18385 0
M  V30 1732 C 165.353 3.21739 4.11438 0
M  V30 1733 H 167.047 2.05537 2.17703 0
M  V30 1734 H 164.593 0.989603 1.04608 0
M  V30 1735 H 166.546 0.644982 4.16435 0
M  V30 1736 H 165.27 -0.206727 3.25945 0
M  V30 1737 H 163.929 1.92136 3.12217 0
M  V30 1738 H 163.577 0.330037 5.01916 0
M  V30 1739 H 163.277 2.013 5.52044 0
M  V30 1740 H 164.801 1.20506 5.98591 0
M  V30 1741 H 166.215 3.14019 4.79651 0
M  V30 1742 H 164.612 3.89644 4.56397 0
M  V30 1743 H 165.682 3.67054 3.16859 0
M  V30 1744 N 167.025 -1.13721 1.09112 0
M  V30 1745 C 167.957 -2.1871 0.685467 0
M  V30 1746 C 168.97 -1.60527 -0.271068 0
M  V30 1747 O 170.159 -1.78407 -0.0576148 0
M  V30 1748 C 167.259 -3.38898 -0.0111255 0
M  V30 1749 C 166.432 -4.26597 0.966131 0
M  V30 1750 C 165.491 -5.25324 0.303539 0
M  V30 1751 O 164.517 -5.61213 0.950177 0
M  V30 1752 N 165.719 -5.72779 -0.943651 0
M  V30 1753 H 168.484 -2.54126 1.58871 0
M  V30 1754 H 166.045 -1.29012 0.978143 0
M  V30 1755 H 168.037 -4.02014 -0.465517 0
M  V30 1756 H 166.607 -3.01747 -0.816565 0
M  V30 1757 H 165.827 -3.60306 1.59917 0
M  V30 1758 H 167.115 -4.82048 1.6281 0
M  V30 1759 H 166.513 -5.45762 -1.48862 0
M  V30 1760 H 165.07 -6.37847 -1.34142 0
M  V30 1761 N 168.503 -0.877838 -1.30888 0
M  V30 1762 C 169.45 -0.337538 -2.28318 0
M  V30 1763 C 170.42 0.568346 -1.56074 0
M  V30 1764 O 171.605 0.498298 -1.84178 0
M  V30 1765 C 168.745 0.448142 -3.42178 0
M  V30 1766 C 167.858 -0.48615 -4.29256 0
M  V30 1767 C 166.993 0.314427 -5.30269 0
M  V30 1768 C 166.032 -0.615791 -6.08995 0
M  V30 1769 N 165.169 0.14902 -7.01942 0
M  V30 1770 H 170.009 -1.17356 -2.73919 0
M  V30 1771 H 167.546 -0.590094 -1.34745 0
M  V30 1772 H 169.504 0.919517 -4.06941 0
M  V30 1773 H 168.134 1.24879 -2.97666 0
M  V30 1774 H 167.186 -1.076 -3.64865 0
M  V30 1775 H 168.498 -1.19909 -4.84173 0
M  V30 1776 H 167.652 0.847969 -6.00745 0
M  V30 1777 H 166.391 1.06062 -4.76027 0
M  V30 1778 H 165.396 -1.16102 -5.37401 0
M  V30 1779 H 166.621 -1.36097 -6.65323 0
M  V30 1780 H 164.567 0.877884 -6.50099 0
M  V30 1781 H 164.484 -0.504433 -7.54315 0
M  V30 1782 H 165.752 0.663537 -7.76671 0
M  V30 1783 N 169.982 1.44106 -0.638065 0
M  V30 1784 C 170.932 2.27843 0.0847285 0
M  V30 1785 C 171.916 1.39055 0.809471 0
M  V30 1786 O 173.108 1.62808 0.694435 0
M  V30 1787 C 170.237 3.26497 1.06089 0
M  V30 1788 C 169.323 4.22772 0.33541 0
M  V30 1789 N 169.714 5.01737 -0.639787 0
M  V30 1790 C 168.012 4.42227 0.578921 0
M  V30 1791 C 168.713 5.71792 -1.06904 0
M  V30 1792 N 167.689 5.42079 -0.406395 0
M  V30 1793 H 171.491 2.86305 -0.663814 0
M  V30 1794 H 169.005 1.55627 -0.464122 0
M  V30 1795 H 171.002 3.8525 1.59337 0
M  V30 1796 H 169.662 2.69595 1.80966 0
M  V30 1797 H 170.673 5.07799 -1.01789 0
M  V30 1798 H 167.35 3.96415 1.31003 0
M  V30 1799 H 168.74 6.45205 -1.8751 0
M  V30 1800 N 171.46 0.379036 1.52974 0
M  V30 1801 C 172.39 -0.452706 2.29069 0
M  V30 1802 C 173.371 -1.07237 1.32039 0
M  V30 1803 O 174.556 -1.08708 1.60923 0
M  V30 1804 C 171.686 -1.5856 3.08992 0
M  V30 1805 C 170.64 -1.0925 4.13822 0
M  V30 1806 C 169.966 -2.31668 4.81907 0
M  V30 1807 C 171.266 -0.167702 5.22031 0
M  V30 1808 H 172.96 0.182181 2.98845 0
M  V30 1809 H 170.506 0.0890592 1.43724 0
M  V30 1810 H 172.459 -2.1742 3.6098 0
M  V30 1811 H 171.183 -2.24792 2.36931 0
M  V30 1812 H 169.842 -0.526494 3.628 0
M  V30 1813 H 169.49 -2.96386 4.06404 0
M  V30 1814 H 169.19 -1.9934 5.52754 0
M  V30 1815 H 170.714 -2.91189 5.36695 0
M  V30 1816 H 172.128 -0.664186 5.6944 0
M  V30 1817 H 170.525 0.0653265 6.00064 0
M  V30 1818 H 171.595 0.786347 4.78482 0
M  V30 1819 N 172.938 -1.57226 0.108567 0
M  V30 1820 C 173.885 -2.14756 -0.845481 0
M  V30 1821 C 174.855 -1.06971 -1.27068 0
M  V30 1822 O 176.04 -1.34827 -1.35005 0
M  V30 1823 C 173.18 -2.74298 -2.09415 0
M  V30 1824 C 172.293 -3.96358 -1.71826 0
M  V30 1825 C 171.428 -4.44021 -2.9158 0
M  V30 1826 C 170.467 -5.58637 -2.50181 0
M  V30 1827 N 169.604 -6.01091 -3.62814 0
M  V30 1828 H 174.444 -2.95961 -0.348035 0
M  V30 1829 H 171.981 -1.46226 -0.160106 0
M  V30 1830 H 173.939 -3.06945 -2.82561 0
M  V30 1831 H 172.569 -1.95801 -2.56636 0
M  V30 1832 H 171.621 -3.69939 -0.885947 0
M  V30 1833 H 172.933 -4.79504 -1.37394 0
M  V30 1834 H 172.087 -4.78522 -3.72963 0
M  V30 1835 H 170.826 -3.59803 -3.29231 0
M  V30 1836 H 169.831 -5.23751 -1.67228 0
M  V30 1837 H 171.056 -6.44613 -2.13659 0
M  V30 1838 H 169.002 -5.19817 -4.00158 0
M  V30 1839 H 168.919 -6.79066 -3.32273 0
M  V30 1840 H 170.187 -6.40227 -4.44668 0
M  V30 1841 N 174.416 0.165178 -1.56732 0
M  V30 1842 C 175.348 1.22911 -1.93457 0
M  V30 1843 C 176.361 1.40152 -0.828333 0
M  V30 1844 O 177.55 1.40046 -1.10677 0
M  V30 1845 C 174.65 2.59686 -2.17753 0
M  V30 1846 C 173.823 2.63663 -3.48999 0
M  V30 1847 C 172.882 3.81845 -3.62051 0
M  V30 1848 O 171.908 3.67559 -4.34613 0
M  V30 1849 N 173.11 4.98557 -2.97357 0
M  V30 1850 H 175.875 0.917118 -2.85323 0
M  V30 1851 H 173.436 0.354895 -1.57962 0
M  V30 1852 H 175.428 3.37225 -2.23743 0
M  V30 1853 H 173.998 2.83251 -1.32242 0
M  V30 1854 H 173.218 1.72173 -3.54612 0
M  V30 1855 H 174.506 2.63336 -4.35352 0
M  V30 1856 H 173.904 5.13065 -2.38287 0
M  V30 1857 H 172.461 5.73936 -3.08934 0
M  V30 1858 N 175.894 1.51508 0.433938 0
M  V30 1859 C 176.826 1.69266 1.54537 0
M  V30 1860 C 177.839 0.573276 1.52373 0
M  V30 1861 O 179.028 0.847698 1.57087 0
M  V30 1862 C 176.128 1.69524 2.93453 0
M  V30 1863 C 175.301 2.98101 3.20085 0
M  V30 1864 C 174.36 2.90502 4.38742 0
M  V30 1865 O 173.386 3.64442 4.3723 0
M  V30 1866 N 174.588 2.06586 5.42496 0
M  V30 1867 H 177.353 2.65145 1.39708 0
M  V30 1868 H 174.914 1.49437 0.622922 0
M  V30 1869 H 176.906 1.62004 3.70859 0
M  V30 1870 H 175.476 0.812245 3.01863 0
M  V30 1871 H 174.696 3.19464 2.30947 0
M  V30 1872 H 175.984 3.83207 3.34708 0
M  V30 1873 H 175.382 1.45896 5.46563 0
M  V30 1874 H 173.939 2.04943 6.18742 0
M  V30 1875 N 177.372 -0.689602 1.41712 0
M  V30 1876 C 178.304 -1.815 1.39966 0
M  V30 1877 C 179.317 -1.59995 0.300917 0
M  V30 1878 O 180.506 -1.69387 0.563039 0
M  V30 1879 C 177.606 -3.18364 1.16179 0
M  V30 1880 C 176.779 -3.66847 2.38206 0
M  V30 1881 C 175.838 -4.82398 2.10186 0
M  V30 1882 O 174.864 -4.93706 2.83272 0
M  V30 1883 N 176.066 -5.70064 1.0958 0
M  V30 1884 H 178.831 -1.83488 2.36965 0
M  V30 1885 H 176.392 -0.872149 1.36401 0
M  V30 1886 H 178.384 -3.93301 0.953756 0
M  V30 1887 H 176.954 -3.11365 0.27756 0
M  V30 1888 H 176.174 -2.82751 2.74673 0
M  V30 1889 H 177.462 -3.95978 3.19498 0
M  V30 1890 H 176.86 -5.63565 0.491019 0
M  V30 1891 H 175.417 -6.44874 0.947656 0
M  V30 1892 N 178.85 -1.27639 -0.924453 0
M  V30 1893 C 179.76 -1.12466 -2.05885 0
M  V30 1894 C 180.776 -0.053869 -1.73917 0
M  V30 1895 O 181.952 -0.261012 -1.99702 0
M  V30 1896 C 179.017 -0.776768 -3.37886 0
M  V30 1897 C 178.078 -1.92878 -3.83532 0
M  V30 1898 C 177.311 -1.59739 -5.09234 0
M  V30 1899 O 177.534 -0.506782 -5.68144 0
M  V30 1900 O 176.468 -2.43761 -5.50331 0
M  V30 1901 H 180.294 -2.07671 -2.21599 0
M  V30 1902 H 177.879 -1.06857 -1.04413 0
M  V30 1903 H 179.761 -0.596229 -4.17161 0
M  V30 1904 H 178.436 0.145732 -3.23372 0
M  V30 1905 H 177.343 -2.1644 -3.0513 0
M  V30 1906 H 178.676 -2.8316 -4.02593 0
M  V30 1907 N 180.328 1.1314 -1.09713 0
M  V30 1908 C 181.261 2.17735 -0.683137 0
M  V30 1909 C 182.239 1.59582 0.311841 0
M  V30 1910 O 183.423 1.87298 0.212514 0
M  V30 1911 C 180.55 3.38699 -0.00684324 0
M  V30 1912 C 179.596 4.1546 -0.964102 0
M  V30 1913 S 180.429 4.74733 -2.47767 0
M  V30 1914 C 181.585 5.9904 -1.81387 0
M  V30 1915 H 181.818 2.52515 -1.56918 0
M  V30 1916 H 179.351 1.24484 -0.913404 0
M  V30 1917 H 181.309 4.08765 0.377044 0
M  V30 1918 H 179.97 3.02214 0.85589 0
M  V30 1919 H 179.163 5.02093 -0.43803 0
M  V30 1920 H 178.765 3.51066 -1.28953 0
M  V30 1921 H 181.057 6.67846 -1.13967 0
M  V30 1922 H 182 6.56261 -2.65947 0
M  V30 1923 H 182.408 5.4976 -1.28155 0
M  V30 1924 N 181.806 0.884767 1.30421 0
M  V30 1925 C 182.736 0.367574 2.30589 0
M  V30 1926 C 183.717 -0.549464 1.60981 0
M  V30 1927 O 184.902 -0.46336 1.88591 0
M  V30 1928 C 182.032 -0.418944 3.44764 0
M  V30 1929 C 180.986 0.406316 4.26067 0
M  V30 1930 C 180.312 -0.506793 5.32293 0
M  V30 1931 C 181.612 1.64832 4.95608 0
M  V30 1932 H 183.306 1.20462 2.74097 0
M  V30 1933 H 180.852 0.580695 1.31772 0
M  V30 1934 H 182.805 -0.791395 4.13902 0
M  V30 1935 H 181.529 -1.28964 3.0006 0
M  V30 1936 H 180.188 0.760903 3.58617 0
M  V30 1937 H 179.836 -1.37519 4.83836 0
M  V30 1938 H 179.536 0.0415828 5.87585 0
M  V30 1939 H 181.06 -0.875764 6.04287 0
M  V30 1940 H 182.474 1.34646 5.57264 0
M  V30 1941 H 180.871 2.13688 5.60765 0
M  V30 1942 H 181.941 2.39284 4.21748 0
M  V30 1943 N 183.284 -1.43765 0.645699 0
M  V30 1944 C 184.247 -2.29163 -0.0409488 0
M  V30 1945 C 185.247 -1.41813 -0.757996 0
M  V30 1946 O 186.437 -1.63527 -0.600382 0
M  V30 1947 C 183.569 -3.23716 -1.06869 0
M  V30 1948 H 184.762 -2.91366 0.710345 0
M  V30 1949 H 182.315 -1.5092 0.406547 0
M  V30 1950 H 183.05 -2.66393 -1.84947 0
M  V30 1951 H 182.835 -3.88105 -0.558277 0
M  V30 1952 H 184.325 -3.87831 -1.54845 0
M  V30 1953 N 184.763 -0.387143 -1.52771 0
M  V30 1954 C 185.726 0.436939 -2.24997 0
M  V30 1955 C 186.726 0.991991 -1.26555 0
M  V30 1956 O 187.916 0.874335 -1.50669 0
M  V30 1957 C 185.048 1.61281 -3.00335 0
M  V30 1958 H 186.241 -0.195365 -2.99263 0
M  V30 1959 H 183.794 -0.139218 -1.55679 0
M  V30 1960 H 184.529 2.2826 -2.30364 0
M  V30 1961 H 184.314 1.22154 -3.72587 0
M  V30 1962 H 185.804 2.19629 -3.5518 0
M  V30 1963 N 186.241 1.57166 -0.116904 0
M  V30 1964 C 187.188 2.15202 0.83408 0
M  V30 1965 C 188.158 1.07644 1.26499 0
M  V30 1966 O 189.343 1.35541 1.34288 0
M  V30 1967 C 186.483 2.75405 2.07957 0
M  V30 1968 C 185.596 3.97264 1.69721 0
M  V30 1969 C 184.731 4.45561 2.89221 0
M  V30 1970 C 183.77 5.59956 2.47215 0
M  V30 1971 N 182.907 6.03006 3.59622 0
M  V30 1972 H 187.747 2.96141 0.332335 0
M  V30 1973 H 185.284 1.46309 0.152349 0
M  V30 1974 H 187.242 3.08439 2.80929 0
M  V30 1975 H 185.872 1.97159 2.55594 0
M  V30 1976 H 184.924 3.70404 0.866316 0
M  V30 1977 H 186.236 4.80226 1.34849 0
M  V30 1978 H 185.39 4.80493 3.7042 0
M  V30 1979 H 184.129 3.61544 3.27318 0
M  V30 1980 H 183.134 5.2463 1.64448 0
M  V30 1981 H 184.359 6.45738 2.10238 0
M  V30 1982 H 182.305 5.21931 3.97396 0
M  V30 1983 H 182.222 6.80819 3.28667 0
M  V30 1984 H 183.49 6.42576 4.41267 0
M  V30 1985 N 187.719 -0.156864 1.56817 0
M  V30 1986 C 188.651 -1.21883 1.94106 0
M  V30 1987 C 189.664 -1.3971 0.835754 0
M  V30 1988 O 190.853 -1.39457 1.11418 0
M  V30 1989 C 187.953 -2.58527 2.19127 0
M  V30 1990 C 187.126 -2.61809 3.50393 0
M  V30 1991 C 186.185 -3.7992 3.64071 0
M  V30 1992 O 185.211 -3.65249 4.36557 0
M  V30 1993 N 186.413 -4.96973 2.99997 0
M  V30 1994 H 189.178 -0.901974 2.85805 0
M  V30 1995 H 186.739 -0.346513 1.58148 0
M  V30 1996 H 188.731 -3.36034 2.25529 0
M  V30 1997 H 187.301 -2.82545 1.33742 0
M  V30 1998 H 186.521 -1.7029 3.5552 0
M  V30 1999 H 187.809 -2.61024 4.36742 0
M  V30 2000 H 187.207 -5.11794 2.41004 0
M  V30 2001 H 185.764 -5.7229 3.11974 0
M  V30 2002 N 189.197 -1.51736 -0.425897 0
M  V30 2003 C 190.129 -1.70083 -1.53638 0
M  V30 2004 C 191.142 -0.581349 -1.52066 0
M  V30 2005 O 192.331 -0.856017 -1.56635 0
M  V30 2006 C 189.431 -1.71078 -2.9255 0
M  V30 2007 C 188.604 -2.99795 -3.185 0
M  V30 2008 C 187.663 -2.92825 -4.37196 0
M  V30 2009 O 186.689 -3.66756 -4.35291 0
M  V30 2010 N 187.891 -2.0946 -5.41393 0
M  V30 2011 H 190.656 -2.65882 -1.383 0
M  V30 2012 H 188.217 -1.49765 -0.614988 0
M  V30 2013 H 190.209 -1.63969 -3.69995 0
M  V30 2014 H 188.779 -0.828242 -3.01428 0
M  V30 2015 H 187.999 -3.20684 -2.2925 0
M  V30 2016 H 189.287 -3.84977 -3.32671 0
M  V30 2017 H 188.685 -1.48792 -5.45781 0
M  V30 2018 H 187.242 -2.08221 -6.17647 0
M  V30 2019 N 190.675 0.682077 -1.42076 0
M  V30 2020 C 191.607 1.80755 -1.40926 0
M  V30 2021 C 192.62 1.59833 -0.309398 0
M  V30 2022 O 193.809 1.69087 -0.572014 0
M  V30 2023 C 190.909 3.17744 -1.17865 0
M  V30 2024 C 190.082 3.65578 -2.40149 0
M  V30 2025 C 189.141 4.81277 -2.12742 0
M  V30 2026 O 188.167 4.92197 -2.85887 0
M  V30 2027 N 189.369 5.69474 -1.12602 0
M  V30 2028 H 192.134 1.82229 -2.37935 0
M  V30 2029 H 189.695 0.864903 -1.36861 0
M  V30 2030 H 191.687 3.9279 -0.9746 0
M  V30 2031 H 190.257 3.11214 -0.294068 0
M  V30 2032 H 189.477 2.81291 -2.76169 0
M  V30 2033 H 190.765 3.94278 -3.21593 0
M  V30 2034 H 190.163 5.63297 -0.520899 0
M  V30 2035 H 188.72 6.44363 -0.981842 0
M  V30 2036 N 192.153 1.28127 0.917671 0
M  V30 2037 C 193.063 1.13556 2.05286 0
M  V30 2038 C 194.079 0.0630914 1.73886 0
M  V30 2039 O 195.255 0.271598 1.9956 0
M  V30 2040 C 192.32 0.794676 3.3747 0
M  V30 2041 C 191.381 1.94909 3.82504 0
M  V30 2042 C 190.614 1.62437 5.0838 0
M  V30 2043 O 190.837 0.536905 5.67867 0
M  V30 2044 O 189.771 2.46677 5.4903 0
M  V30 2045 H 193.597 2.08844 2.20495 0
M  V30 2046 H 191.182 1.07409 1.03845 0
M  V30 2047 H 193.064 0.618344 4.16839 0
M  V30 2048 H 191.739 -0.128581 3.23445 0
M  V30 2049 H 190.646 2.18055 3.03978 0
M  V30 2050 H 191.979 2.85291 4.01086 0
M  V30 2051 N 193.631 -1.12557 1.10312 0
M  V30 2052 C 194.564 -2.1737 0.694674 0
M  V30 2053 C 195.542 -1.59745 -0.303373 0
M  V30 2054 O 196.726 -1.87408 -0.202578 0
M  V30 2055 C 193.853 -3.38691 0.0248052 0
M  V30 2056 C 192.899 -4.14943 0.986121 0
M  V30 2057 S 193.732 -4.73413 2.50281 0
M  V30 2058 C 194.888 -5.9807 1.84562 0
M  V30 2059 H 195.121 -2.5168 1.58255 0
M  V30 2060 H 192.654 -1.23998 0.919992 0
M  V30 2061 H 194.612 -4.08959 -0.355361 0
M  V30 2062 H 193.273 -3.02664 -0.839851 0
M  V30 2063 H 192.466 -5.01854 0.464651 0
M  V30 2064 H 192.068 -3.50377 1.30813 0
M  V30 2065 H 194.36 -6.67232 1.17507 0
M  V30 2066 H 195.303 -6.54841 2.69423 0
M  V30 2067 H 195.711 -5.49073 1.31069 0
M  V30 2068 N 195.109 -0.891671 -1.2995 0
M  V30 2069 C 196.039 -0.379797 -2.30391 0
M  V30 2070 C 197.02 0.540919 -1.6127 0
M  V30 2071 O 198.205 0.453352 -1.88834 0
M  V30 2072 C 195.335 0.400654 -3.44981 0
M  V30 2073 C 194.289 -0.428905 -4.25846 0
M  V30 2074 C 193.615 0.478557 -5.32554 0
M  V30 2075 C 194.915 -1.67458 -4.94727 0
M  V30 2076 H 196.609 -1.21914 -2.73454 0
M  V30 2077 H 194.155 -0.587675 -1.31462 0
M  V30 2078 H 196.108 0.769434 -4.14316 0
M  V30 2079 H 194.832 1.27371 -3.0074 0
M  V30 2080 H 193.491 -0.779911 -3.58208 0
M  V30 2081 H 193.139 1.34951 -4.84559 0
M  V30 2082 H 192.839 -0.0727433 -5.87555 0
M  V30 2083 H 194.363 0.843705 -6.04743 0
M  V30 2084 H 195.777 -1.376 -5.56542 0
M  V30 2085 H 194.174 -2.16659 -5.59624 0
M  V30 2086 H 195.244 -2.41518 -4.20473 0
M  V30 2087 N 196.587 1.43421 -0.653314 0
M  V30 2088 C 197.55 2.29182 0.0287951 0
M  V30 2089 C 198.55 1.42213 0.750465 0
M  V30 2090 O 199.74 1.63843 0.591701 0
M  V30 2091 C 196.872 3.24278 1.05151 0
M  V30 2092 H 198.065 2.90985 -0.725786 0
M  V30 2093 H 195.618 1.50702 -0.414545 0
M  V30 2094 H 196.353 2.6737 1.83532 0
M  V30 2095 H 196.138 3.88396 0.537687 0
M  V30 2096 H 197.628 3.88647 1.52786 0
M  V30 2097 N 198.065 0.39524 1.52563 0
M  V30 2098 C 199.028 -0.425001 2.25225 0
M  V30 2099 C 200.028 -0.985266 1.27079 0
M  V30 2100 O 201.218 -0.866332 1.5113 0
M  V30 2101 C 198.35 -1.59686 3.01186 0
M  V30 2102 H 199.543 0.211233 2.99155 0
M  V30 2103 H 197.096 0.147472 1.55603 0
M  V30 2104 H 197.831 -2.27035 2.31572 0
M  V30 2105 H 197.616 -1.20176 3.73229 0
M  V30 2106 H 199.106 -2.17743 3.5634 0
M  V30 2107 N 199.544 -1.57102 0.125237 0
M  V30 2108 C 200.491 -2.15641 -0.822655 0
M  V30 2109 C 201.461 -1.08313 -1.25927 0
M  V30 2110 O 202.646 -1.36251 -1.33567 0
M  V30 2111 C 199.786 -2.76504 -2.06494 0
M  V30 2112 C 198.899 -3.98158 -1.67612 0
M  V30 2113 C 198.034 -4.47088 -2.86854 0
M  V30 2114 C 197.073 -5.6126 -2.44242 0
M  V30 2115 N 196.21 -6.04905 -3.56419 0
M  V30 2116 H 201.05 -2.96313 -0.316625 0
M  V30 2117 H 198.587 -1.46388 -0.144588 0
M  V30 2118 H 200.545 -3.09925 -2.79289 0
M  V30 2119 H 199.175 -1.98512 -2.54545 0
M  V30 2120 H 198.227 -3.70858 -0.846661 0
M  V30 2121 H 199.539 -4.80934 -1.32301 0
M  V30 2122 H 198.693 -4.82451 -3.67867 0
M  V30 2123 H 197.432 -3.63275 -3.25396 0
M  V30 2124 H 196.437 -5.25495 -1.61663 0
M  V30 2125 H 197.662 -6.46843 -2.0681 0
M  V30 2126 H 195.608 -5.24032 -3.94623 0
M  V30 2127 H 195.525 -6.82552 -3.25051 0
M  V30 2128 H 196.793 -6.44907 -4.37853 0
M  V30 2129 N 201.022 0.148545 -1.56898 0
M  V30 2130 C 202.438 0.501131 -1.51528 0
M  V30 2131 C 202.638 1.83458 -0.833399 0
M  V30 2132 O 201.694 2.49259 -0.40328 0
M  V30 2133 C 203.007 0.512864 -2.96294 0
M  V30 2134 C 204.555 0.598487 -3.07225 0
M  V30 2135 C 205.03 0.640897 -4.53494 0
M  V30 2136 N 206.521 0.703163 -4.57832 0
M  V30 2137 C 207.256 0.756935 -5.68382 0
M  V30 2138 N 206.752 0.770147 -6.88506 0
M  V30 2139 N 208.545 0.797698 -5.56411 0
M  V30 2140 H 200.696 -0.725532 -1.99624 0
M  V30 2141 H 202.959 -0.264358 -0.910395 0
M  V30 2142 H 202.665 -0.398691 -3.49433 0
M  V30 2143 H 202.539 1.35133 -3.52163 0
M  V30 2144 H 204.926 1.50046 -2.54106 0
M  V30 2145 H 205.007 -0.267093 -2.54402 0
M  V30 2146 H 204.651 -0.256915 -5.0725 0
M  V30 2147 H 204.581 1.52295 -5.04097 0
M  V30 2148 H 207.072 0.700314 -3.71354 0
M  V30 2149 H 207.385 0.812983 -7.68512 0
M  V30 2150 H 205.73 0.738049 -6.9107 0
M  V30 2151 H 208.921 0.784535 -4.61479 0
M  V30 2152 H 209.094 0.83614 -6.42583 0
M  V30 2153 N 202.5 1.5196 0.417844 0
M  V30 2154 C 203.432 1.70895 1.52733 0
M  V30 2155 C 204.445 0.589405 1.51756 0
M  V30 2156 O 205.634 0.864312 1.56179 0
M  V30 2157 C 202.734 1.72627 2.91639 0
M  V30 2158 C 201.907 3.01479 3.16905 0
M  V30 2159 C 200.966 2.95139 4.35637 0
M  V30 2160 O 199.992 3.69059 4.3334 0
M  V30 2161 N 201.194 2.12328 5.40275 0
M  V30 2162 H 203.959 2.66612 1.36888 0
M  V30 2163 H 201.52 1.50089 0.607037 0
M  V30 2164 H 203.512 1.65928 3.6912 0
M  V30 2165 H 202.082 0.844216 3.00985 0
M  V30 2166 H 201.302 3.21895 2.27546 0
M  V30 2167 H 202.59 3.86736 3.30625 0
M  V30 2168 H 201.988 1.51685 5.44985 0
M  V30 2169 H 200.545 2.11494 6.16534 0
M  V30 2170 N 203.978 -0.674533 1.42435 0
M  V30 2171 C 204.91 -1.80005 1.41883 0
M  V30 2172 C 205.923 -1.59667 0.31787 0
M  V30 2173 O 207.112 -1.68781 0.580973 0
M  V30 2174 C 204.212 -3.17114 1.19549 0
M  V30 2175 C 203.385 -3.64299 2.42084 0
M  V30 2176 C 202.444 -4.80142 2.15291 0
M  V30 2177 O 201.47 -4.90673 2.88493 0
M  V30 2178 N 202.672 -5.68869 1.1562 0
M  V30 2179 H 205.437 -1.80964 2.38898 0
M  V30 2180 H 202.998 -0.857633 1.37318 0
M  V30 2181 H 204.99 -3.92267 0.995417 0
M  V30 2182 H 203.56 -3.11053 0.310569 0
M  V30 2183 H 202.78 -2.79822 2.77657 0
M  V30 2184 H 204.068 -3.92567 3.23679 0
M  V30 2185 H 203.466 -5.63012 0.550765 0
M  V30 2186 H 202.023 -6.43833 1.016 0
M  V30 2187 N 205.456 -1.28612 -0.910864 0
M  V30 2188 C 206.366 -1.14643 -2.0468 0
M  V30 2189 C 207.382 -0.0723121 -1.7385 0
M  V30 2190 O 208.558 -0.282178 -1.99413 0
M  V30 2191 C 205.623 -0.812561 -3.37044 0
M  V30 2192 C 204.684 -1.96935 -3.81465 0
M  V30 2193 C 203.917 -1.65131 -5.07511 0
M  V30 2194 O 204.14 -0.567013 -5.67575 0
M  V30 2195 O 203.074 -2.49585 -5.47714 0
M  V30 2196 H 206.9 -2.1001 -2.19384 0
M  V30 2197 H 204.485 -1.07958 -1.03274 0
M  V30 2198 H 206.367 -0.640441 -4.16505 0
M  V30 2199 H 205.042 0.111426 -3.23508 0
M  V30 2200 H 203.949 -2.19664 -3.02818 0
M  V30 2201 H 205.282 -2.87414 -3.99567 0
M  V30 2202 N 206.934 1.1197 -1.10907 0
M  V30 2203 C 207.864 2.19928 -0.784473 0
M  V30 2204 C 208.845 1.6833 0.244726 0
M  V30 2205 O 210.03 1.93892 0.109418 0
M  V30 2206 C 207.16 3.46597 -0.220827 0
M  V30 2207 C 206.114 4.11376 -1.18127 0
M  V30 2208 C 205.44 5.32554 -0.478594 0
M  V30 2209 C 206.74 4.56945 -2.52979 0
M  V30 2210 H 208.434 2.47337 -1.68715 0
M  V30 2211 H 205.98 1.18879 -0.812642 0
M  V30 2212 H 207.933 4.21396 0.0184278 0
M  V30 2213 H 206.657 3.1863 0.717113 0
M  V30 2214 H 205.316 3.38564 -1.40606 0
M  V30 2215 H 204.964 5.00856 0.463976 0
M  V30 2216 H 204.664 5.76844 -1.11912 0
M  V30 2217 H 206.188 6.10096 -0.248 0
M  V30 2218 H 207.602 5.23093 -2.3462 0
M  V30 2219 H 205.999 5.1203 -3.12962 0
M  V30 2220 H 207.069 3.70676 -3.12614 0
M  V30 2221 N 208.412 0.89855 1.29475 0
M  V30 2222 C 209.322 0.379974 2.31502 0
M  V30 2223 C 210.338 -0.524695 1.659 0
M  V30 2224 O 211.514 -0.414551 1.97087 0
M  V30 2225 C 208.579 -0.385138 3.44554 0
M  V30 2226 C 207.64 0.550914 4.2575 0
M  V30 2227 C 206.873 -0.177778 5.33404 0
M  V30 2228 O 207.096 -1.40189 5.52904 0
M  V30 2229 O 206.03 0.479106 5.9999 0
M  V30 2230 H 209.856 1.22639 2.77837 0
M  V30 2231 H 207.441 0.662834 1.33891 0
M  V30 2232 H 209.323 -0.817841 4.13388 0
M  V30 2233 H 207.998 -1.20763 3.0033 0
M  V30 2234 H 206.905 1.03271 3.59564 0
M  V30 2235 H 208.238 1.33979 4.73614 0
M  V30 2236 N 209.89 -1.43072 0.660911 0
M  V30 2237 C 210.822 -2.29108 -0.0647641 0
M  V30 2238 C 211.835 -1.42928 -0.779448 0
M  V30 2239 O 213.024 -1.66788 -0.635921 0
M  V30 2240 C 210.124 -3.20032 -1.11503 0
M  V30 2241 C 209.297 -4.34792 -0.476955 0
M  V30 2242 C 208.356 -5.06534 -1.42513 0
M  V30 2243 O 207.382 -5.61538 -0.930771 0
M  V30 2244 N 208.584 -5.1075 -2.75889 0
M  V30 2245 H 211.349 -2.92029 0.673731 0
M  V30 2246 H 208.91 -1.53846 0.50427 0
M  V30 2247 H 210.902 -3.64892 -1.75032 0
M  V30 2248 H 209.472 -2.58658 -1.75541 0
M  V30 2249 H 208.692 -3.92752 0.337572 0
M  V30 2250 H 209.98 -5.0879 -0.0318525 0
M  V30 2251 H 209.378 -4.67447 -3.18606 0
M  V30 2252 H 207.935 -5.59302 -3.347 0
M  V30 2253 N 211.368 -0.403325 -1.52352 0
M  V30 2254 C 212.3 0.4603 -2.2453 0
M  V30 2255 C 213.313 1.01505 -1.27282 0
M  V30 2256 O 214.502 0.914982 -1.53266 0
M  V30 2257 C 211.602 1.65208 -2.95905 0
M  V30 2258 C 210.775 1.22224 -4.19976 0
M  V30 2259 C 209.834 2.28028 -4.74226 0
M  V30 2260 O 208.86 1.88857 -5.36956 0
M  V30 2261 N 210.062 3.6012 -4.55295 0
M  V30 2262 H 212.827 -0.158156 -2.99282 0
M  V30 2263 H 210.388 -0.230402 -1.60252 0
M  V30 2264 H 212.38 2.35541 -3.29093 0
M  V30 2265 H 210.95 2.17658 -2.24374 0
M  V30 2266 H 210.17 0.34725 -3.92668 0
M  V30 2267 H 211.458 0.911924 -5.00561 0
M  V30 2268 H 210.856 3.94698 -4.05253 0
M  V30 2269 H 209.413 4.26447 -4.92936 0
M  V30 2270 N 212.846 1.57033 -0.133567 0
M  V30 2271 C 214.262 1.58035 0.222944 0
M  V30 2272 C 214.462 1.14713 1.6566 0
M  V30 2273 O 213.518 0.841218 2.38075 0
M  V30 2274 C 214.831 3.00691 -0.0236116 0
M  V30 2275 C 216.379 3.12973 0.0411512 0
M  V30 2276 C 216.854 4.57654 -0.177899 0
M  V30 2277 N 218.345 4.63033 -0.124365 0
M  V30 2278 C 219.08 5.72771 -0.268553 0
M  V30 2279 N 218.576 6.91206 -0.46972 0
M  V30 2280 N 220.369 5.61718 -0.2071 0
M  V30 2281 H 212.52 1.8349 -1.06981 0
M  V30 2282 H 214.783 0.848677 -0.422436 0
M  V30 2283 H 214.489 3.36726 -1.0153 0
M  V30 2284 H 214.363 3.70614 0.701808 0
M  V30 2285 H 216.75 2.76787 1.02338 0
M  V30 2286 H 216.831 2.45564 -0.716383 0
M  V30 2287 H 216.475 4.94542 -1.15717 0
M  V30 2288 H 216.405 5.23173 0.599797 0
M  V30 2289 H 218.896 3.7789 0.027011 0
M  V30 2290 H 219.209 7.70693 -0.570212 0
M  V30 2291 H 217.554 6.93156 -0.505876 0
M  V30 2292 H 220.745 4.68072 -0.0507986 0
M  V30 2293 H 220.918 6.47195 -0.322909 0
M  V30 2294 N 214.325 -0.140222 1.56975 0
M  V30 2295 C 215.257 -1.19818 1.95388 0
M  V30 2296 C 216.27 -1.38816 0.850525 0
M  V30 2297 O 217.459 -1.38267 1.12891 0
M  V30 2298 C 214.559 -2.56189 2.21857 0
M  V30 2299 C 213.732 -2.58077 3.5315 0
M  V30 2300 C 212.791 -3.76037 3.6808 0
M  V30 2301 O 211.817 -3.60598 4.40406 0
M  V30 2302 N 213.019 -4.93763 3.05251 0
M  V30 2303 H 215.784 -0.871609 2.86746 0
M  V30 2304 H 213.345 -0.32972 1.58507 0
M  V30 2305 H 215.337 -3.33623 2.2908 0
M  V30 2306 H 213.907 -2.81111 1.36731 0
M  V30 2307 H 213.127 -1.6651 3.57307 0
M  V30 2308 H 214.415 -2.56377 4.39486 0
M  V30 2309 H 213.813 -5.09209 2.46419 0
M  V30 2310 H 212.37 -5.68949 3.18026 0
M  V30 2311 N 215.803 -1.52179 -0.40978 0
M  V30 2312 C 217.219 -1.40968 -0.74835 0
M  V30 2313 C 217.419 -0.513657 -1.94843 0
M  V30 2314 O 216.475 0.0208026 -2.52491 0
M  V30 2315 C 217.788 -2.83483 -1.0029 0
M  V30 2316 C 219.336 -2.92821 -1.10565 0
M  V30 2317 C 219.811 -4.36303 -1.39296 0
M  V30 2318 N 221.302 -4.39535 -1.46162 0
M  V30 2319 C 222.037 -5.47614 -1.70018 0
M  V30 2320 N 221.533 -6.65812 -1.91483 0
M  V30 2321 N 223.326 -5.35129 -1.72027 0
M  V30 2322 H 215.477 -2.0897 0.380186 0
M  V30 2323 H 217.74 -0.94185 0.107805 0
M  V30 2324 H 217.446 -3.51168 -0.193461 0
M  V30 2325 H 217.32 -3.24487 -1.92323 0
M  V30 2326 H 219.707 -2.25318 -1.90568 0
M  V30 2327 H 219.788 -2.55276 -0.16369 0
M  V30 2328 H 219.432 -5.04366 -0.598109 0
M  V30 2329 H 219.362 -4.71385 -2.34743 0
M  V30 2330 H 221.853 -3.54332 -1.31367 0
M  V30 2331 H 222.166 -7.43964 -2.09134 0
M  V30 2332 H 220.511 -6.68879 -1.88749 0
M  V30 2333 H 223.702 -4.41764 -1.54796 0
M  V30 2334 H 223.875 -6.19433 -1.9028 0
M  V30 2335 N 217.281 0.66697 -1.42791 0
M  V30 2336 C 218.191 1.80962 -1.49299 0
M  V30 2337 C 219.207 1.69775 -0.381108 0
M  V30 2338 O 220.383 1.91188 -0.633188 0
M  V30 2339 C 217.448 3.17156 -1.40045 0
M  V30 2340 C 216.509 3.40242 -2.6179 0
M  V30 2341 C 215.742 4.69939 -2.52969 0
M  V30 2342 O 215.965 5.48372 -1.56985 0
M  V30 2343 O 214.899 4.94441 -3.43237 0
M  V30 2344 H 218.725 1.78427 -2.45759 0
M  V30 2345 H 216.31 0.823713 -1.24641 0
M  V30 2346 H 218.192 3.98413 -1.37276 0
M  V30 2347 H 216.867 3.20312 -0.467138 0
M  V30 2348 H 215.774 2.58802 -2.70134 0
M  V30 2349 H 217.107 3.41923 -3.54047 0
M  V30 2350 N 218.759 1.29093 0.90403 0
M  V30 2351 C 219.691 1.09658 2.01266 0
M  V30 2352 C 220.704 0.0453729 1.62737 0
M  V30 2353 O 221.893 0.289446 1.76138 0
M  V30 2354 C 218.993 0.646278 3.32681 0
M  V30 2355 C 218.166 1.77505 3.99763 0
M  V30 2356 C 217.225 1.31649 5.09465 0
M  V30 2357 O 216.251 2.02045 5.32134 0
M  V30 2358 N 217.453 0.184997 5.80205 0
M  V30 2359 H 220.218 2.05135 2.18494 0
M  V30 2360 H 217.779 1.20975 1.07594 0
M  V30 2361 H 219.771 0.322906 4.0341 0
M  V30 2362 H 218.341 -0.215916 3.11853 0
M  V30 2363 H 217.561 2.26752 3.22455 0
M  V30 2364 H 218.849 2.53198 4.41325 0
M  V30 2365 H 218.247 -0.402021 5.6427 0
M  V30 2366 H 216.804 -0.0790358 6.51752 0
M  V30 2367 N 220.237 -1.11381 1.11499 0
M  V30 2368 C 221.169 -2.17207 0.731704 0
M  V30 2369 C 222.182 -1.61066 -0.236957 0
M  V30 2370 O 223.371 -1.78489 -0.0197591 0
M  V30 2371 C 220.471 -3.38846 0.0607624 0
M  V30 2372 C 219.644 -4.24451 1.0564 0
M  V30 2373 C 218.703 -5.24562 0.4149 0
M  V30 2374 O 217.729 -5.59071 1.069 0
M  V30 2375 N 218.931 -5.74651 -0.821943 0
M  V30 2376 H 221.696 -2.50699 1.64225 0
M  V30 2377 H 219.257 -1.26908 1.00529 0
M  V30 2378 H 221.249 -4.02911 -0.380139 0
M  V30 2379 H 219.819 -3.03411 -0.752376 0
M  V30 2380 H 219.039 -3.56833 1.67524 0
M  V30 2381 H 220.327 -4.78486 1.72998 0
M  V30 2382 H 219.725 -5.48797 -1.37252 0
M  V30 2383 H 218.282 -6.40549 -1.20582 0
M  V30 2384 N 221.715 -0.905404 -1.28997 0
M  V30 2385 C 223.131 -0.60233 -1.47798 0
M  V30 2386 C 223.331 0.854645 -1.82478 0
M  V30 2387 O 222.387 1.63439 -1.92468 0
M  V30 2388 C 223.7 -1.53306 -2.58685 0
M  V30 2389 C 225.248 -1.53887 -2.72558 0
M  V30 2390 C 225.723 -2.45602 -3.86579 0
M  V30 2391 N 227.214 -2.43681 -3.93921 0
M  V30 2392 C 227.949 -3.11347 -4.81509 0
M  V30 2393 N 227.445 -3.88313 -5.73746 0
M  V30 2394 N 229.238 -3.00476 -4.75048 0
M  V30 2395 H 221.389 -1.84765 -1.04764 0
M  V30 2396 H 223.652 -0.792025 -0.520961 0
M  V30 2397 H 223.358 -2.57141 -2.39941 0
M  V30 2398 H 223.232 -1.25787 -3.55609 0
M  V30 2399 H 225.619 -0.507941 -2.90696 0
M  V30 2400 H 225.7 -1.85447 -1.76191 0
M  V30 2401 H 225.344 -3.48792 -3.69197 0
M  V30 2402 H 225.274 -2.11349 -4.82327 0
M  V30 2403 H 227.765 -1.87767 -3.27951 0
M  V30 2404 H 228.078 -4.36985 -6.37389 0
M  V30 2405 H 226.423 -3.92419 -5.73614 0
M  V30 2406 H 229.614 -2.39858 -4.01977 0
M  V30 2407 H 229.787 -3.53485 -5.43095 0
M  V30 2408 N 223.193 1.4272 -0.668489 0
M  V30 2409 C 224.125 2.2914 0.052613 0
M  V30 2410 C 225.138 1.43339 0.771857 0
M  V30 2411 O 226.327 1.67123 0.627067 0
M  V30 2412 C 223.427 3.20618 1.09804 0
M  V30 2413 C 222.6 4.35039 0.45389 0
M  V30 2414 C 221.659 5.07282 1.39825 0
M  V30 2415 O 220.685 5.62024 0.900978 0
M  V30 2416 N 221.887 5.12206 2.73176 0
M  V30 2417 H 224.652 2.91668 -0.689209 0
M  V30 2418 H 222.213 1.53577 -0.512422 0
M  V30 2419 H 224.205 3.65815 1.73094 0
M  V30 2420 H 222.775 2.59585 1.74167 0
M  V30 2421 H 221.995 3.92567 -0.358396 0
M  V30 2422 H 223.283 5.088 0.00486972 0
M  V30 2423 H 222.681 4.6913 3.16122 0
M  V30 2424 H 221.238 5.61069 3.31729 0
M  V30 2425 N 224.671 0.411399 1.52136 0
M  V30 2426 C 225.581 -0.419774 2.30814 0
M  V30 2427 C 226.597 -1.0515 1.38634 0
M  V30 2428 O 227.773 -1.05252 1.71709 0
M  V30 2429 C 224.838 -1.52019 3.11594 0
M  V30 2430 C 223.899 -0.91129 4.19516 0
M  V30 2431 C 223.132 -1.95927 4.96436 0
M  V30 2432 O 223.355 -3.17775 4.73683 0
M  V30 2433 O 222.289 -1.56423 5.81219 0
M  V30 2434 H 226.115 0.221805 3.02889 0
M  V30 2435 H 223.7 0.174547 1.48377 0
M  V30 2436 H 225.582 -2.15898 3.61892 0
M  V30 2437 H 224.257 -2.14633 2.42311 0
M  V30 2438 H 223.164 -0.235157 3.7336 0
M  V30 2439 H 224.497 -0.32904 4.91099 0
M  V30 2440 N 226.149 -1.5696 0.141893 0
M  V30 2441 C 227.059 -2.20066 -0.812905 0
M  V30 2442 C 228.075 -1.18344 -1.27557 0
M  V30 2443 O 229.251 -1.50902 -1.33381 0
M  V30 2444 C 226.316 -2.80583 -2.03652 0
M  V30 2445 C 225.377 -3.97414 -1.62359 0
M  V30 2446 C 224.61 -4.55036 -2.78887 0
M  V30 2447 O 224.833 -4.11538 -3.94959 0
M  V30 2448 O 223.767 -5.45376 -2.54653 0
M  V30 2449 H 227.593 -3.02157 -0.305746 0
M  V30 2450 H 225.178 -1.49159 -0.0848799 0
M  V30 2451 H 227.06 -3.19067 -2.75272 0
M  V30 2452 H 225.735 -2.01508 -2.5333 0
M  V30 2453 H 224.642 -3.63656 -0.877775 0
M  V30 2454 H 225.975 -4.77994 -1.17401 0
M  V30 2455 N 227.627 0.131896 -1.57047 0
M  V30 2456 C 228.557 1.16384 -2.02428 0
M  V30 2457 C 229.538 1.43936 -0.90644 0
M  V30 2458 O 230.723 1.54599 -1.17528 0
M  V30 2459 C 227.853 2.49328 -2.4177 0
M  V30 2460 C 226.807 2.36266 -3.56879 0
M  V30 2461 C 226.133 3.74057 -3.8208 0
M  V30 2462 C 227.433 1.834 -4.89042 0
M  V30 2463 H 229.127 0.786433 -2.88887 0
M  V30 2464 H 226.673 0.376855 -1.38981 0
M  V30 2465 H 228.626 3.21759 -2.7212 0
M  V30 2466 H 227.35 2.88934 -1.52266 0
M  V30 2467 H 226.009 1.66286 -3.26718 0
M  V30 2468 H 225.657 4.11125 -2.89803 0
M  V30 2469 H 225.357 3.66174 -4.59554 0
M  V30 2470 H 226.881 4.48012 -4.1487 0
M  V30 2471 H 228.295 2.45636 -5.18011 0
M  V30 2472 H 226.692 1.8637 -5.70426 0
M  V30 2473 H 227.762 0.790662 -4.7841 0
M  V30 2474 N 229.106 1.52395 0.401703 0
M  V30 2475 C 230.016 1.7917 1.51444 0
M  V30 2476 C 231.032 0.677691 1.6026 0
M  V30 2477 O 232.208 0.963909 1.76835 0
M  V30 2478 C 229.273 1.94347 2.87107 0
M  V30 2479 C 228.334 3.18257 2.88116 0
M  V30 2480 C 227.567 3.32701 4.17308 0
M  V30 2481 O 227.79 2.52238 5.11598 0
M  V30 2482 O 226.724 4.25891 4.25324 0
M  V30 2483 H 230.55 2.73633 1.31752 0
M  V30 2484 H 228.135 1.3733 0.588296 0
M  V30 2485 H 230.017 2.06109 3.67555 0
M  V30 2486 H 228.692 1.03073 3.06851 0
M  V30 2487 H 227.599 3.11947 2.06494 0
M  V30 2488 H 228.932 4.09336 2.73322 0
M  V30 2489 N 230.584 -0.659388 1.43143 0
M  V30 2490 C 231.531 -1.77249 1.47822 0
M  V30 2491 C 232.501 -1.62818 0.328558 0
M  V30 2492 O 233.686 -1.83151 0.534838 0
M  V30 2493 C 230.826 -3.15371 1.40126 0
M  V30 2494 C 229.939 -3.4098 2.65249 0
M  V30 2495 C 229.074 -4.68915 2.49584 0
M  V30 2496 C 228.113 -4.87608 3.70006 0
M  V30 2497 N 227.25 -6.06796 3.53189 0
M  V30 2498 H 232.09 -1.72584 2.42938 0
M  V30 2499 H 229.627 -0.842297 1.20598 0
M  V30 2500 H 231.585 -3.9521 1.33659 0
M  V30 2501 H 230.215 -3.19121 0.485964 0
M  V30 2502 H 229.267 -2.55282 2.8202 0
M  V30 2503 H 230.579 -3.50681 3.54717 0
M  V30 2504 H 229.733 -5.56871 2.4079 0
M  V30 2505 H 228.472 -4.61524 1.5763 0
M  V30 2506 H 227.477 -3.9809 3.79215 0
M  V30 2507 H 228.702 -4.96834 4.62961 0
M  V30 2508 H 226.648 -6.00549 2.63965 0
M  V30 2509 H 226.565 -6.17428 4.36255 0
M  V30 2510 H 227.833 -6.9739 3.48236 0
M  V30 2511 N 232.062 -1.29571 -0.897171 0
M  V30 2512 C 232.994 -1.10724 -2.00681 0
M  V30 2513 C 234.007 -0.0540026 -1.6271 0
M  V30 2514 O 235.196 -0.298783 -1.75982 0
M  V30 2515 C 232.296 -0.663912 -3.32333 0
M  V30 2516 C 231.469 -1.79622 -3.98816 0
M  V30 2517 C 230.528 -1.34349 -5.0876 0
M  V30 2518 O 229.554 -2.04864 -5.31055 0
M  V30 2519 N 230.756 -0.215764 -5.80099 0
M  V30 2520 H 233.521 -2.06291 -2.17403 0
M  V30 2521 H 231.082 -1.21544 -1.06951 0
M  V30 2522 H 233.074 -0.344295 -4.03233 0
M  V30 2523 H 231.644 0.199375 -3.11964 0
M  V30 2524 H 230.864 -2.28459 -3.21248 0
M  V30 2525 H 232.152 -2.55535 -4.39976 0
M  V30 2526 H 231.55 0.372091 -5.64475 0
M  V30 2527 H 230.107 0.0444707 -6.51785 0
M  V30 2528 N 233.54 1.10788 -1.12088 0
M  V30 2529 C 234.956 1.34691 -0.856186 0
M  V30 2530 C 235.156 1.94791 0.515615 0
M  V30 2531 O 234.212 2.18524 1.26505 0
M  V30 2532 C 235.525 2.27208 -1.9697 0
M  V30 2533 C 237.073 2.40755 -2.00016 0
M  V30 2534 C 237.548 3.36598 -3.1059 0
M  V30 2535 N 239.039 3.44164 -3.10008 0
M  V30 2536 C 239.774 4.18284 -3.92206 0
M  V30 2537 N 239.27 4.95322 -4.84384 0
M  V30 2538 N 241.063 4.13865 -3.80357 0
M  V30 2539 H 233.214 0.70144 -2.00483 0
M  V30 2540 H 235.477 0.371405 -0.872217 0
M  V30 2541 H 235.183 1.90251 -2.958 0
M  V30 2542 H 235.057 3.27485 -1.87172 0
M  V30 2543 H 237.444 2.76982 -1.01808 0
M  V30 2544 H 237.525 1.40305 -2.13888 0
M  V30 2545 H 237.169 3.01096 -4.09028 0
M  V30 2546 H 237.099 4.36918 -2.93956 0
M  V30 2547 H 239.59 2.8922 -2.43228 0
M  V30 2548 H 239.903 5.49267 -5.43623 0
M  V30 2549 H 238.248 4.94459 -4.884 0
M  V30 2550 H 241.439 3.52773 -3.07683 0
M  V30 2551 H 241.612 4.71372 -4.44649 0
M  V30 2552 N 235.018 0.912232 1.28515 0
M  V30 2553 C 235.948 0.416403 2.29757 0
M  V30 2554 C 236.929 -0.515194 1.6211 0
M  V30 2555 O 238.114 -0.423253 1.89532 0
M  V30 2556 C 235.244 -0.34572 3.45575 0
M  V30 2557 C 234.198 0.496599 4.25109 0
M  V30 2558 C 233.524 -0.393771 5.33248 0
M  V30 2559 C 234.824 1.75307 4.92001 0
M  V30 2560 H 236.518 1.26249 2.7148 0
M  V30 2561 H 234.064 0.608515 1.30511 0
M  V30 2562 H 236.017 -0.703422 4.15488 0
M  V30 2563 H 234.741 -1.2257 3.02728 0
M  V30 2564 H 233.4 0.8368 3.56922 0
M  V30 2565 H 233.048 -1.27225 4.86644 0
M  V30 2566 H 232.748 0.166209 5.87365 0
M  V30 2567 H 234.272 -0.747389 6.06009 0
M  V30 2568 H 235.686 1.46437 5.54283 0
M  V30 2569 H 234.083 2.25534 5.56106 0
M  V30 2570 H 235.153 2.48176 4.16577 0
M  V30 2571 N 236.496 -1.42363 0.676048 0
M  V30 2572 C 237.406 -2.346 -0.00153389 0
M  V30 2573 C 238.422 -1.5516 -0.787485 0
M  V30 2574 O 239.598 -1.87723 -0.729521 0
M  V30 2575 C 236.663 -3.33705 -0.940298 0
M  V30 2576 C 235.724 -4.29042 -0.148739 0
M  V30 2577 C 234.957 -5.23413 -1.04279 0
M  V30 2578 O 235.18 -5.22749 -2.28232 0
M  V30 2579 O 234.114 -5.99795 -0.502925 0
M  V30 2580 H 237.94 -2.94082 0.758268 0
M  V30 2581 H 235.525 -1.42888 0.436289 0
M  V30 2582 H 237.407 -3.94586 -1.47917 0
M  V30 2583 H 236.082 -2.76695 -1.67993 0
M  V30 2584 H 234.989 -3.71571 0.43427 0
M  V30 2585 H 236.322 -4.89097 0.551805 0
M  V30 2586 N 237.974 -0.419461 -1.51915 0
M  V30 2587 C 238.906 0.43646 -2.25006 0
M  V30 2588 C 239.919 1.00149 -1.28351 0
M  V30 2589 O 241.108 0.898674 -1.54227 0
M  V30 2590 C 238.208 1.6206 -2.9764 0
M  V30 2591 C 237.381 1.17763 -4.21249 0
M  V30 2592 C 236.44 2.22985 -4.76617 0
M  V30 2593 O 235.466 1.83151 -5.38929 0
M  V30 2594 N 236.668 3.55271 -4.59089 0
M  V30 2595 H 239.433 -0.18989 -2.99098 0
M  V30 2596 H 236.994 -0.247386 -1.59999 0
M  V30 2597 H 238.986 2.32038 -3.31573 0
M  V30 2598 H 237.556 2.15266 -2.2667 0
M  V30 2599 H 236.776 0.305582 -3.93014 0
M  V30 2600 H 238.064 0.858781 -5.015 0
M  V30 2601 H 237.462 3.90377 -4.09417 0
M  V30 2602 H 236.019 4.21195 -4.97432 0
M  V30 2603 N 239.452 1.56882 -0.150215 0
M  V30 2604 C 240.384 2.14057 0.819286 0
M  V30 2605 C 241.397 1.09082 1.20851 0
M  V30 2606 O 242.586 1.36347 1.15203 0
M  V30 2607 C 239.686 2.65102 2.11127 0
M  V30 2608 C 238.859 3.94511 1.88891 0
M  V30 2609 C 237.918 4.30834 3.02107 0
M  V30 2610 O 236.944 4.99099 2.73659 0
M  V30 2611 N 238.146 3.90676 4.29363 0
M  V30 2612 H 240.911 2.97871 0.330618 0
M  V30 2613 H 238.472 1.61866 0.0332538 0
M  V30 2614 H 240.464 2.86411 2.85921 0
M  V30 2615 H 239.034 1.85994 2.51247 0
M  V30 2616 H 238.254 3.81795 0.981152 0
M  V30 2617 H 239.542 4.7907 1.71376 0
M  V30 2618 H 238.94 3.35677 4.55343 0
M  V30 2619 H 237.497 4.1703 5.00928 0
M  V30 2620 N 240.93 -0.123565 1.57115 0
M  V30 2621 C 241.86 -1.15309 2.03042 0
M  V30 2622 C 242.841 -1.43454 0.914061 0
M  V30 2623 O 244.026 -1.53973 1.18347 0
M  V30 2624 C 241.156 -2.48043 2.43089 0
M  V30 2625 C 240.11 -2.3437 3.58127 0
M  V30 2626 C 239.436 -3.72026 3.84059 0
M  V30 2627 C 240.736 -1.80804 4.90007 0
M  V30 2628 H 242.43 -0.771102 2.893 0
M  V30 2629 H 239.976 -0.369479 1.39179 0
M  V30 2630 H 241.929 -3.20311 2.73823 0
M  V30 2631 H 240.653 -2.88122 1.53796 0
M  V30 2632 H 239.312 -1.64551 3.27595 0
M  V30 2633 H 238.96 -4.09582 2.91979 0
M  V30 2634 H 238.66 -3.63732 4.6149 0
M  V30 2635 H 240.184 -4.45806 4.1724 0
M  V30 2636 H 241.598 -2.42886 5.19307 0
M  V30 2637 H 239.995 -1.83343 5.71407 0
M  V30 2638 H 241.065 -0.76528 4.78823 0
M  V30 2639 N 242.408 -1.52605 -0.393616 0
M  V30 2640 C 243.338 -1.80022 -1.48709 0
M  V30 2641 C 244.319 -0.651995 -1.57108 0
M  V30 2642 O 245.504 -0.89913 -1.72132 0
M  V30 2643 C 242.634 -1.96492 -2.86371 0
M  V30 2644 C 241.588 -3.12161 -2.92813 0
M  V30 2645 C 240.914 -3.13877 -4.3288 0
M  V30 2646 C 242.214 -4.51322 -2.6288 0
M  V30 2647 H 243.908 -2.71589 -1.26015 0
M  V30 2648 H 241.454 -1.30684 -0.604778 0
M  V30 2649 H 243.407 -2.14255 -3.62867 0
M  V30 2650 H 242.131 -1.01611 -3.10391 0
M  V30 2651 H 240.79 -2.94173 -2.18764 0
M  V30 2652 H 240.438 -2.16687 -4.53933 0
M  V30 2653 H 240.138 -3.91576 -4.38112 0
M  V30 2654 H 241.662 -3.33789 -5.1129 0
M  V30 2655 H 243.076 -4.69435 -3.29096 0
M  V30 2656 H 241.473 -5.31053 -2.79468 0
M  V30 2657 H 242.543 -4.58353 -1.58242 0
M  V30 2658 N 243.887 0.651787 -1.4349 0
M  V30 2659 C 245.136 1.40754 -1.44469 0
M  V30 2660 C 245.449 1.95463 -0.0731845 0
M  V30 2661 O 246.655 2.71471 0.0395721 0
M  V30 2662 C 245.111 2.54735 -2.5424 0
M  V30 2663 C 244.719 2.06628 -3.97504 0
M  V30 2664 C 246.463 3.32092 -2.64414 0
M  V30 2665 C 244.37 3.17829 -4.98737 0
M  V30 2666 H 243.3 0.528862 -0.53742 0
M  V30 2667 H 245.951 0.703365 -1.69485 0
M  V30 2668 H 244.333 3.2763 -2.22428 0
M  V30 2669 H 245.507 1.40734 -4.38783 0
M  V30 2670 H 243.822 1.42146 -3.91387 0
M  V30 2671 H 246.419 4.14952 -3.37223 0
M  V30 2672 H 246.762 3.80217 -1.69532 0
M  V30 2673 H 247.295 2.66279 -2.95534 0
M  V30 2674 H 244.034 2.74671 -5.95177 0
M  V30 2675 H 243.554 3.82429 -4.62069 0
M  V30 2676 H 245.233 3.82937 -5.21505 0
M  V30 2677 N 245.365 1.30045 0.890287 0
M  V30 2678 C 246.295 1.18541 2.01172 0
M  V30 2679 C 247.276 0.0773356 1.69924 0
M  V30 2680 O 248.461 0.25845 1.92473 0
M  V30 2681 C 245.591 0.870941 3.36202 0
M  V30 2682 C 244.545 1.93637 3.81692 0
M  V30 2683 C 243.871 1.475 5.13953 0
M  V30 2684 C 245.171 3.34666 4.00994 0
M  V30 2685 H 246.865 2.12359 2.11054 0
M  V30 2686 H 244.411 1.02238 1.01407 0
M  V30 2687 H 246.364 0.777141 4.14172 0
M  V30 2688 H 245.088 -0.102926 3.26438 0
M  V30 2689 H 243.747 2.01972 3.05946 0
M  V30 2690 H 243.395 0.489551 5.00612 0
M  V30 2691 H 243.095 2.1876 5.4536 0
M  V30 2692 H 244.619 1.39489 5.94454 0
M  V30 2693 H 246.033 3.2912 4.69417 0
M  V30 2694 H 244.43 4.03966 4.43769 0
M  V30 2695 H 245.5 3.76949 3.05021 0
M  V30 2696 N 246.843 -1.10192 1.12674 0
M  V30 2697 C 248.259 -1.34235 0.863317 0
M  V30 2698 C 248.459 -1.95062 -0.505277 0
M  V30 2699 O 247.515 -2.19192 -1.25345 0
M  V30 2700 C 248.828 -2.2616 1.98172 0
M  V30 2701 C 250.376 -2.3969 2.0129 0
M  V30 2702 C 250.851 -3.34946 3.1237 0
M  V30 2703 N 252.342 -3.42515 3.11829 0
M  V30 2704 C 253.077 -4.16199 3.94419 0
M  V30 2705 N 252.573 -4.92747 4.87004 0
M  V30 2706 N 254.366 -4.11843 3.82547 0
M  V30 2707 H 246.517 -0.690798 2.00853 0
M  V30 2708 H 248.78 -0.366774 0.874174 0
M  V30 2709 H 248.486 -1.8868 2.96804 0
M  V30 2710 H 248.36 -3.26488 1.88906 0
M  V30 2711 H 250.747 -2.76438 1.03276 0
M  V30 2712 H 250.828 -1.39169 2.14629 0
M  V30 2713 H 250.472 -2.98923 4.10619 0
M  V30 2714 H 250.402 -4.35353 2.96269 0
M  V30 2715 H 252.893 -2.87926 2.44759 0
M  V30 2716 H 253.206 -5.46376 5.46528 0
M  V30 2717 H 251.551 -4.91862 4.91016 0
M  V30 2718 H 254.742 -3.51136 3.0955 0
M  V30 2719 H 254.915 -4.69007 4.47142 0
M  V30 2720 N 248.321 -0.919034 -1.28029 0
M  V30 2721 C 249.269 -0.401753 -2.29104 0
M  V30 2722 C 250.263 0.509354 -1.61561 0
M  V30 2723 O 251.469 0.390014 -1.75724 0
M  V30 2724 H 247.844 -0.111331 -0.743713 0
M  V30 2725 H 249.815 -1.2672 -2.70156 0
M  V30 2726 C 248.564 0.338148 -3.46052 0
M  V30 2727 H 247.887 -0.353732 -3.98232 0
M  V30 2728 H 249.327 0.664653 -4.18758 0
M  V30 2729 C 247.786 1.54798 -2.99231 0
M  V30 2730 O 248.316 2.64696 -3.02157 0
M  V30 2731 N 246.522 1.3968 -2.54829 0
M  V30 2732 H 246.069 0.502698 -2.52647 0
M  V30 2733 H 246.027 2.20755 -2.23863 0
M  V30 2734 N 249.799 1.42003 -0.683588 0
M  V30 2735 C 250.746 2.30798 -0.0107309 0
M  V30 2736 C 251.716 1.4645 0.783688 0
M  V30 2737 O 252.901 1.75263 0.754156 0
M  V30 2738 C 250.041 3.3238 0.928306 0
M  V30 2739 C 249.154 4.31814 0.126776 0
M  V30 2740 C 248.289 5.20468 1.06236 0
M  V30 2741 C 247.328 6.11577 0.253035 0
M  V30 2742 N 246.465 6.92754 1.14179 0
M  V30 2743 H 251.305 2.8778 -0.773727 0
M  V30 2744 H 248.842 1.41745 -0.393283 0
M  V30 2745 H 250.8 3.89813 1.48666 0
M  V30 2746 H 249.43 2.76976 1.65783 0
M  V30 2747 H 248.482 3.76427 -0.54833 0
M  V30 2748 H 249.794 4.96276 -0.501192 0
M  V30 2749 H 248.948 5.82677 1.69035 0
M  V30 2750 H 247.687 4.56204 1.7242 0
M  V30 2751 H 246.692 5.48428 -0.388108 0
M  V30 2752 H 247.917 6.77892 -0.404839 0
M  V30 2753 H 245.863 6.3111 1.78987 0
M  V30 2754 H 245.78 7.53855 0.569111 0
M  V30 2755 H 247.048 7.59441 1.75697 0
M  V30 2756 N 251.277 0.427512 1.51691 0
M  V30 2757 C 252.187 -0.39527 2.31246 0
M  V30 2758 C 253.203 -1.03674 1.39742 0
M  V30 2759 O 254.379 -1.03425 1.72816 0
M  V30 2760 C 251.444 -1.48706 3.13189 0
M  V30 2761 C 250.505 -0.866743 4.20459 0
M  V30 2762 C 249.738 -1.90651 4.98486 0
M  V30 2763 O 249.961 -3.12733 4.77026 0
M  V30 2764 O 248.895 -1.5025 5.82845 0
M  V30 2765 H 252.721 0.253918 3.02637 0
M  V30 2766 H 250.306 0.190274 1.48183 0
M  V30 2767 H 252.188 -2.12047 3.64162 0
M  V30 2768 H 250.863 -2.12051 2.44573 0
M  V30 2769 H 249.77 -0.195544 3.73589 0
M  V30 2770 H 251.103 -0.276934 4.9142 0
M  V30 2771 N 252.755 -1.56801 0.158532 0
M  V30 2772 C 253.702 -2.17337 -0.776729 0
M  V30 2773 C 254.672 -1.1096 -1.23601 0
M  V30 2774 O 255.857 -1.39054 -1.30647 0
M  V30 2775 C 252.997 -2.80822 -2.00582 0
M  V30 2776 C 252.11 -4.01624 -1.59129 0
M  V30 2777 C 251.245 -4.53072 -2.77306 0
M  V30 2778 C 250.284 -5.66314 -2.32282 0
M  V30 2779 N 249.421 -6.12329 -3.43508 0
M  V30 2780 H 254.261 -2.96918 -0.253701 0
M  V30 2781 H 251.798 -1.46661 -0.113504 0
M  V30 2782 H 253.756 -3.15779 -2.72652 0
M  V30 2783 H 252.386 -2.03866 -2.50277 0
M  V30 2784 H 251.438 -3.72571 -0.767806 0
M  V30 2785 H 252.75 -4.83633 -1.2207 0
M  V30 2786 H 251.904 -4.90145 -3.57551 0
M  V30 2787 H 250.643 -3.70095 -3.17617 0
M  V30 2788 H 249.648 -5.28806 -1.5048 0
M  V30 2789 H 250.873 -6.51085 -1.93043 0
M  V30 2790 H 248.819 -5.32284 -3.83418 0
M  V30 2791 H 248.736 -6.89293 -3.105 0
M  V30 2792 H 250.004 -6.5405 -4.24075 0
M  V30 2793 N 254.233 0.115231 -1.57178 0
M  V30 2794 C 255.458 0.840354 -1.89612 0
M  V30 2795 C 255.883 1.72464 -0.750845 0
M  V30 2796 O 255.241 1.78826 0.298478 0
M  V30 2797 C 255.289 1.64654 -3.20814 0
M  V30 2798 O 254.393 2.7538 -3.06985 0
M  V30 2799 H 253.734 0.232158 -0.622092 0
M  V30 2800 H 256.264 0.0964977 -2.04372 0
M  V30 2801 H 256.274 2.03499 -3.53627 0
M  V30 2802 H 254.949 0.997416 -4.03763 0
M  V30 2803 H 253.526 2.3971 -2.85646 0
M  V30 2804 N 255.711 1.52812 0.385517 0
M  V30 2805 C 256.658 1.77838 1.47113 0
M  V30 2806 C 257.628 0.621757 1.54024 0
M  V30 2807 O 258.813 0.861846 1.70226 0
M  V30 2808 C 255.953 1.95618 2.84302 0
M  V30 2809 C 255.066 3.23316 2.86515 0
M  V30 2810 C 254.201 3.31394 4.15152 0
M  V30 2811 C 253.24 4.53201 4.1143 0
M  V30 2812 N 252.377 4.58542 5.3168 0
M  V30 2813 H 257.217 2.70482 1.25073 0
M  V30 2814 H 254.754 1.34006 0.606692 0
M  V30 2815 H 256.712 2.03912 3.63972 0
M  V30 2816 H 255.342 1.06331 3.04784 0
M  V30 2817 H 254.394 3.24076 1.99195 0
M  V30 2818 H 255.706 4.13045 2.79634 0
M  V30 2819 H 254.86 3.3889 5.03228 0
M  V30 2820 H 253.599 2.39645 4.24761 0
M  V30 2821 H 252.604 4.45827 3.21742 0
M  V30 2822 H 253.829 5.46271 4.03442 0
M  V30 2823 H 251.775 3.69686 5.41912 0
M  V30 2824 H 251.692 5.42148 5.26889 0
M  V30 2825 H 252.96 4.70296 6.21644 0
M  V30 2826 N 257.189 -0.644168 1.43834 0
M  V30 2827 C 258.099 -1.78563 1.52159 0
M  V30 2828 C 259.115 -1.69147 0.408069 0
M  V30 2829 O 260.291 -1.90156 0.663524 0
M  V30 2830 C 257.356 -3.14888 1.45073 0
M  V30 2831 C 256.417 -3.36034 2.6717 0
M  V30 2832 C 255.65 -4.65855 2.60413 0
M  V30 2833 O 255.873 -5.45805 1.65689 0
M  V30 2834 O 254.807 -4.88918 3.5106 0
M  V30 2835 H 258.633 -1.74494 2.48567 0
M  V30 2836 H 256.218 -0.80378 1.25935 0
M  V30 2837 H 258.1 -3.96179 1.43597 0
M  V30 2838 H 256.775 -3.19528 0.518037 0
M  V30 2839 H 255.682 -2.54472 2.74217 0
M  V30 2840 H 257.015 -3.36247 3.59442 0
M  V30 2841 N 258.668 -1.30515 -0.883378 0
M  V30 2842 C 259.893 -1.22487 -1.67367 0
M  V30 2843 C 260.318 0.208767 -1.86938 0
M  V30 2844 O 259.676 1.15015 -1.40148 0
M  V30 2845 C 259.724 -1.96041 -3.02655 0
M  V30 2846 O 258.828 -1.28859 -3.91751 0
M  V30 2847 H 258.169 -0.423573 -0.511353 0
M  V30 2848 H 260.699 -1.72362 -1.10239 0
M  V30 2849 H 260.709 -2.05124 -3.52687 0
M  V30 2850 H 259.384 -3.00307 -2.8773 0
M  V30 2851 H 257.961 -1.28141 -3.50192 0
M  V30 2852 N 260.146 1.09593 -1.13257 0
M  V30 2853 C 261.109 2.14359 -0.811358 0
M  V30 2854 C 262.109 1.59808 0.178377 0
M  V30 2855 O 263.299 1.74132 -0.0484911 0
M  V30 2856 C 260.431 3.40269 -0.207276 0
M  V30 2857 H 261.624 2.44284 -1.73969 0
M  V30 2858 H 259.177 1.25102 -0.936973 0
M  V30 2859 H 259.912 3.15969 0.73036 0
M  V30 2860 H 259.697 3.81154 -0.919992 0
M  V30 2861 H 261.187 4.176 0.000667944 0
M  V30 2862 N 261.624 0.925811 1.2754 0
M  V30 2863 C 262.873 0.561084 1.93739 0
M  V30 2864 C 263.186 -0.901685 1.73577 0
M  V30 2865 O 264.392 -1.37511 2.34101 0
M  V30 2866 C 262.848 0.952668 3.47062 0
M  V30 2867 C 262.456 2.43599 3.75983 0
M  V30 2868 C 264.2 0.659103 4.19352 0
M  V30 2869 C 262.107 2.76707 5.22673 0
M  V30 2870 H 261.037 0.206122 0.725279 0
M  V30 2871 H 263.688 1.12637 1.44863 0
M  V30 2872 H 262.07 0.316053 3.94737 0
M  V30 2873 H 263.244 3.12035 3.39073 0
M  V30 2874 H 261.559 2.70125 3.16893 0
M  V30 2875 H 264.156 0.882985 5.27359 0
M  V30 2876 H 264.499 -0.403607 4.14339 0
M  V30 2877 H 265.032 1.25473 3.77494 0
M  V30 2878 H 261.771 3.8188 5.32774 0
M  V30 2879 H 261.291 2.12919 5.60737 0
M  V30 2880 H 262.97 2.6435 5.90532 0
M  V30 2881 N 263.102 -1.41638 0.69111 0
M  V30 2882 C 264.065 -2.29178 0.0319786 0
M  V30 2883 C 265.065 -1.44153 -0.712496 0
M  V30 2884 O 266.255 -1.65354 -0.548053 0
M  V30 2885 C 263.387 -3.26952 -0.965161 0
M  V30 2886 H 264.58 -2.88959 0.802681 0
M  V30 2887 H 262.133 -1.4955 0.454356 0
M  V30 2888 H 262.868 -2.72142 -1.76378 0
M  V30 2889 H 262.653 -3.89685 -0.434522 0
M  V30 2890 H 264.143 -3.92561 -1.42428 0
M  V30 2891 N 264.58 -0.43555 -1.51462 0
M  V30 2892 C 265.805 0.132627 -2.06976 0
M  V30 2893 C 266.23 1.35848 -1.30104 0
M  V30 2894 O 265.588 1.78112 -0.338493 0
M  V30 2895 C 265.636 0.43523 -3.57964 0
M  V30 2896 O 264.74 1.52198 -3.83288 0
M  V30 2897 H 264.081 0.00265 -0.663995 0
M  V30 2898 H 266.611 -0.616369 -1.95095 0
M  V30 2899 H 266.621 0.686206 -4.02188 0
M  V30 2900 H 265.296 -0.460739 -4.1334 0
M  V30 2901 H 263.873 1.2611 -3.50928 0
M  V30 2902 N 266.058 1.56714 -0.166846 0
M  V30 2903 C 267.286 2.0112 0.485644 0
M  V30 2904 C 267.701 1.04705 1.57106 0
M  V30 2905 O 267.058 0.0471923 1.82439 0
M  V30 2906 C 267.109 3.45361 1.06808 0
M  V30 2907 O 266.83 4.38092 0.0259995 0
M  V30 2908 C 268.331 4.05145 1.79924 0
M  V30 2909 H 265.551 0.65931 0.124704 0
M  V30 2910 H 268.095 2.02746 -0.267262 0
M  V30 2911 H 266.25 3.44524 1.7715 0
M  V30 2912 H 266.664 5.22519 0.455398 0
M  V30 2913 H 268.138 5.08009 2.15942 0
M  V30 2914 H 268.615 3.46982 2.69258 0
M  V30 2915 H 269.221 4.09672 1.14234 0
M  V30 2916 N 267.536 -0.106894 1.57237 0
M  V30 2917 C 268.446 -1.14911 2.0453 0
M  V30 2918 C 269.462 -1.44592 0.96795 0
M  V30 2919 O 270.638 -1.55468 1.2803 0
M  V30 2920 C 267.703 -2.45272 2.45036 0
M  V30 2921 C 266.764 -2.22879 3.66911 0
M  V30 2922 C 265.997 -3.47024 4.05475 0
M  V30 2923 O 266.22 -4.54804 3.44252 0
M  V30 2924 O 265.154 -3.3731 4.98504 0
M  V30 2925 H 268.98 -0.777461 2.9358 0
M  V30 2926 H 266.565 -0.318563 1.45964 0
M  V30 2927 H 268.447 -3.22055 2.71769 0
M  V30 2928 H 267.122 -2.81886 1.59129 0
M  V30 2929 H 266.029 -1.43915 3.45311 0
M  V30 2930 H 267.362 -1.91163 4.53561 0
M  V30 2931 N 269.014 -1.53014 -0.377408 0
M  V30 2932 C 270.26 -1.68872 -1.12294 0
M  V30 2933 C 270.593 -0.433224 -1.89306 0
M  V30 2934 O 269.868 0.569258 -1.85983 0
M  V30 2935 C 270.151 -2.93115 -2.09179 0
M  V30 2936 C 270.004 -4.28794 -1.35853 0
M  V30 2937 C 271.323 -3.12928 -3.09458 0
M  V30 2938 H 268.442 -0.614518 -0.406862 0
M  V30 2939 H 271.084 -1.85633 -0.40503 0
M  V30 2940 H 269.234 -2.78956 -2.70399 0
M  V30 2941 H 270.906 -4.54742 -0.775082 0
M  V30 2942 H 269.149 -4.28744 -0.660364 0
M  V30 2943 H 269.82 -5.11837 -2.06706 0
M  V30 2944 H 272.296 -3.26194 -2.58334 0
M  V30 2945 H 271.172 -4.01316 -3.74482 0
M  V30 2946 H 271.433 -2.27669 -3.78971 0
M  V30 2947 N 270.492 0.636531 -1.44174 0
M  V30 2948 C 271.439 1.74875 -1.50624 0
M  V30 2949 C 272.409 1.62275 -0.35442 0
M  V30 2950 O 273.594 1.82276 -0.563908 0
M  V30 2951 C 270.734 3.13102 -1.45125 0
M  V30 2952 C 269.847 3.36717 -2.7064 0
M  V30 2953 C 268.982 4.64885 -2.57013 0
M  V30 2954 C 268.021 4.8166 -3.77717 0
M  V30 2955 N 267.158 6.01101 -3.62798 0
M  V30 2956 H 271.998 1.68697 -2.45653 0
M  V30 2957 H 269.535 0.823004 -1.21922 0
M  V30 2958 H 271.493 3.93034 -1.39929 0
M  V30 2959 H 270.123 3.18308 -0.536671 0
M  V30 2960 H 269.175 2.50763 -2.86046 0
M  V30 2961 H 270.487 3.44993 -3.60252 0
M  V30 2962 H 269.641 5.52969 -2.49619 0
M  V30 2963 H 268.38 4.58957 -1.64953 0
M  V30 2964 H 267.385 3.92007 -3.85501 0
M  V30 2965 H 268.61 4.89406 -4.70807 0
M  V30 2966 H 266.556 5.96273 -2.73486 0
M  V30 2967 H 266.473 6.10409 -4.46023 0
M  V30 2968 H 267.741 6.91761 -3.59286 0
M  V30 2969 N 271.97 1.30982 0.876444 0
M  V30 2970 C 272.9 1.20668 1.99903 0
M  V30 2971 C 273.881 0.095354 1.69833 0
M  V30 2972 O 275.066 0.27885 1.92188 0
M  V30 2973 C 272.196 0.90655 3.3526 0
M  V30 2974 C 271.15 1.97675 3.79617 0
M  V30 2975 C 270.476 1.52943 5.1236 0
M  V30 2976 C 271.776 3.389 3.97422 0
M  V30 2977 H 273.47 2.14586 2.0879 0
M  V30 2978 H 271.016 1.03308 1.00317 0
M  V30 2979 H 272.969 0.821025 4.13324 0
M  V30 2980 H 271.693 -0.0682969 3.26529 0
M  V30 2981 H 270.352 2.05205 3.03787 0
M  V30 2982 H 270 0.54262 5.00065 0
M  V30 2983 H 269.7 2.24532 5.43009 0
M  V30 2984 H 271.224 1.45786 5.92941 0
M  V30 2985 H 272.638 3.34081 4.659 0
M  V30 2986 H 271.035 4.0865 4.3946 0
M  V30 2987 H 272.105 3.80163 3.01006 0
M  V30 2988 N 273.449 -1.08991 1.13837 0
M  V30 2989 C 274.865 -1.33312 0.877506 0
M  V30 2990 C 275.065 -1.95587 -0.48456 0
M  V30 2991 O 274.121 -2.20509 -1.23013 0
M  V30 2992 C 275.434 -2.24045 2.0056 0
M  V30 2993 C 276.982 -2.37542 2.03821 0
M  V30 2994 C 277.457 -3.31614 3.15905 0
M  V30 2995 N 278.948 -3.39189 3.15445 0
M  V30 2996 C 279.683 -4.11992 3.98811 0
M  V30 2997 N 279.179 -4.87553 4.92203 0
M  V30 2998 N 280.972 -4.07762 3.86894 0
M  V30 2999 H 273.123 -0.669456 2.01574 0
M  V30 3000 H 275.386 -0.357482 0.878015 0
M  V30 3001 H 275.092 -1.85521 2.98789 0
M  V30 3002 H 274.966 -3.24466 1.92359 0
M  V30 3003 H 277.353 -2.75327 1.06202 0
M  V30 3004 H 277.434 -1.36884 2.16093 0
M  V30 3005 H 277.078 -2.94551 4.13766 0
M  V30 3006 H 277.008 -4.32186 3.0087 0
M  V30 3007 H 279.499 -2.85314 2.47799 0
M  V30 3008 H 279.812 -5.40549 5.52292 0
M  V30 3009 H 278.157 -4.86627 4.96205 0
M  V30 3010 H 281.348 -3.47833 3.13257 0
M  V30 3011 H 281.521 -4.64238 4.52092 0
M  V30 3012 N 274.927 -0.932562 -1.27047 0
M  V30 3013 C 275.857 -0.452902 -2.29066 0
M  V30 3014 C 276.838 0.489338 -1.62909 0
M  V30 3015 O 278.023 0.393046 -1.90181 0
M  V30 3016 C 275.153 0.290698 -3.46081 0
M  V30 3017 C 274.107 -0.564168 -4.24265 0
M  V30 3018 C 273.433 0.308886 -5.33807 0
M  V30 3019 C 274.733 -1.83112 -4.89149 0
M  V30 3020 H 276.427 -1.30552 -2.69437 0
M  V30 3021 H 273.973 -0.629201 -1.29526 0
M  V30 3022 H 275.926 0.637233 -4.16554 0
M  V30 3023 H 274.65 1.17738 -3.0464 0
M  V30 3024 H 273.309 -0.893477 -3.55545 0
M  V30 3025 H 272.957 1.19467 -4.88607 0
M  V30 3026 H 272.657 -0.259633 -5.87026 0
M  V30 3027 H 274.181 0.650884 -6.07121 0
M  V30 3028 H 275.595 -1.55236 -5.51883 0
M  V30 3029 H 273.992 -2.34353 -5.52448 0
M  V30 3030 H 275.062 -2.54772 -4.12576 0
M  V30 3031 N 276.405 1.4127 -0.698611 0
M  V30 3032 C 277.337 2.292 0.00399731 0
M  V30 3033 C 278.35 1.44944 0.741279 0
M  V30 3034 O 279.539 1.68416 0.591477 0
M  V30 3035 C 276.639 3.22875 1.02979 0
M  V30 3036 C 275.812 4.35904 0.36151 0
M  V30 3037 C 274.871 5.10134 1.29033 0
M  V30 3038 O 273.897 5.63809 0.781562 0
M  V30 3039 N 275.099 5.17885 2.6225 0
M  V30 3040 H 277.864 2.9014 -0.750921 0
M  V30 3041 H 275.425 1.52455 -0.544882 0
M  V30 3042 H 277.417 3.69404 1.65296 0
M  V30 3043 H 275.987 2.63221 1.68622 0
M  V30 3044 H 275.207 3.91719 -0.441584 0
M  V30 3045 H 276.495 5.08696 -0.103055 0
M  V30 3046 H 275.893 4.7573 3.061 0
M  V30 3047 H 274.45 5.6798 3.19754 0
M  V30 3048 N 277.883 0.443576 1.51229 0
M  V30 3049 C 278.793 -0.370721 2.31652 0
M  V30 3050 C 279.809 -1.02186 1.40833 0
M  V30 3051 O 280.985 -1.01586 1.73903 0
M  V30 3052 C 278.05 -1.45376 3.14749 0
M  V30 3053 C 277.111 -0.822099 4.21355 0
M  V30 3054 C 276.344 -1.85353 5.0048 0
M  V30 3055 O 276.567 -3.07656 4.80316 0
M  V30 3056 O 275.501 -1.4406 5.84406 0
M  V30 3057 H 279.327 0.286002 3.0235 0
M  V30 3058 H 276.912 0.20598 1.47973 0
M  V30 3059 H 278.794 -2.08173 3.66391 0
M  V30 3060 H 277.469 -2.09445 2.46809 0
M  V30 3061 H 276.376 -0.155909 3.73775 0
M  V30 3062 H 277.709 -0.224797 4.91686 0
M  V30 3063 N 279.361 -1.56624 0.175154 0
M  V30 3064 C 280.608 -1.96999 -0.468811 0
M  V30 3065 C 280.936 -1.06129 -1.62994 0
M  V30 3066 O 280.191 -0.0961771 -1.95464 0
M  V30 3067 C 280.49 -3.43419 -0.989864 0
M  V30 3068 C 280.156 -4.50866 0.0557687 0
M  V30 3069 C 278.818 -4.79975 0.343134 0
M  V30 3070 C 281.17 -5.15551 0.765308 0
M  V30 3071 C 278.498 -5.71066 1.34536 0
M  V30 3072 C 280.85 -6.07724 1.75654 0
M  V30 3073 C 279.514 -6.35199 2.05132 0
M  V30 3074 H 278.784 -0.720869 -0.17155 0
M  V30 3075 H 281.431 -1.89616 0.267924 0
M  V30 3076 H 279.736 -3.47772 -1.80449 0
M  V30 3077 H 281.433 -3.72002 -1.49719 0
M  V30 3078 H 278.023 -4.28229 -0.178381 0
M  V30 3079 H 282.207 -4.9317 0.556513 0
M  V30 3080 H 277.463 -5.90635 1.57988 0
M  V30 3081 H 281.637 -6.56912 2.31169 0
M  V30 3082 H 279.264 -7.05584 2.8294 0
M  V30 3083 N 280.839 0.0985539 -1.57292 0
M  V30 3084 C 281.769 1.12064 -2.04851 0
M  V30 3085 C 282.75 1.41981 -0.936767 0
M  V30 3086 O 283.935 1.52071 -1.20781 0
M  V30 3087 C 281.065 2.44144 -2.47004 0
M  V30 3088 C 280.019 2.28643 -3.6181 0
M  V30 3089 C 279.345 3.65869 -3.89929 0
M  V30 3090 C 280.645 1.72986 -4.92822 0
M  V30 3091 H 282.339 0.724979 -2.9049 0
M  V30 3092 H 279.885 0.34729 -1.39749 0
M  V30 3093 H 281.838 3.15914 -2.78884 0
M  V30 3094 H 280.562 2.85639 -1.5836 0
M  V30 3095 H 279.221 1.59318 -3.30172 0
M  V30 3096 H 278.869 4.04885 -2.98458 0
M  V30 3097 H 278.569 3.56344 -4.67218 0
M  V30 3098 H 280.093 4.39112 -4.2428 0
M  V30 3099 H 281.507 2.34593 -5.23105 0
M  V30 3100 H 279.904 1.74229 -5.74251 0
M  V30 3101 H 280.974 0.689007 -4.7998 0
M  V30 3102 N 282.317 1.53212 0.369288 0
M  V30 3103 C 283.247 1.82365 1.45826 0
M  V30 3104 C 284.228 0.676907 1.56051 0
M  V30 3105 O 285.413 0.926401 1.70679 0
M  V30 3106 C 282.543 2.01023 2.83208 0
M  V30 3107 C 281.497 3.1678 2.8781 0
M  V30 3108 C 280.823 3.20724 4.27832 0
M  V30 3109 C 282.123 4.55447 2.55667 0
M  V30 3110 H 283.817 2.73559 1.21678 0
M  V30 3111 H 281.363 1.3163 0.583911 0
M  V30 3112 H 283.316 2.20001 3.59413 0
M  V30 3113 H 282.04 1.06536 3.08736 0
M  V30 3114 H 280.699 2.97616 2.14056 0
M  V30 3115 H 280.347 2.23882 4.50429 0
M  V30 3116 H 280.047 3.98496 4.31827 0
M  V30 3117 H 281.571 3.41881 5.05915 0
M  V30 3118 H 282.985 4.74611 3.21586 0
M  V30 3119 H 281.382 5.35432 2.70984 0
M  V30 3120 H 282.452 4.60812 1.5093 0
M  V30 3121 N 283.795 -0.628877 1.44509 0
M  V30 3122 C 285.02 -1.42048 1.5112 0
M  V30 3123 C 285.445 -1.87594 0.137818 0
M  V30 3124 O 284.803 -1.58873 -0.873437 0
M  V30 3125 C 284.851 -2.61541 2.48251 0
M  V30 3126 O 283.955 -3.61453 1.98559 0
M  V30 3127 H 283.296 -0.424942 0.510216 0
M  V30 3128 H 285.826 -0.767374 1.89664 0
M  V30 3129 H 285.836 -3.09057 2.66361 0
M  V30 3130 H 284.511 -2.27736 3.48007 0
M  V30 3131 H 283.088 -3.20731 1.90227 0
M  V30 3132 N 285.273 -1.31445 -0.869486 0
M  V30 3133 C 286.22 -1.19135 -1.97675 0
M  V30 3134 C 287.19 -0.0770266 -1.65921 0
M  V30 3135 O 288.375 -0.249972 -1.89155 0
M  V30 3136 C 285.515 -0.905149 -3.33018 0
M  V30 3137 C 284.628 -2.10285 -3.77365 0
M  V30 3138 C 283.763 -1.75339 -5.01427 0
M  V30 3139 C 282.802 -2.91515 -5.38224 0
M  V30 3140 N 281.939 -2.56762 -6.53466 0
M  V30 3141 H 286.779 -2.13853 -2.07535 0
M  V30 3142 H 284.316 -1.06379 -1.01597 0
M  V30 3143 H 286.274 -0.719765 -4.10944 0
M  V30 3144 H 284.904 0.00519624 -3.228 0
M  V30 3145 H 283.956 -2.39899 -2.95216 0
M  V30 3146 H 285.268 -2.97237 -4.00564 0
M  V30 3147 H 284.422 -1.53266 -5.87022 0
M  V30 3148 H 283.161 -0.855801 -4.80133 0
M  V30 3149 H 282.166 -3.14237 -4.51149 0
M  V30 3150 H 283.391 -3.81985 -5.61484 0
M  V30 3151 H 281.337 -1.69526 -6.33717 0
M  V30 3152 H 281.254 -3.37243 -6.76612 0
M  V30 3153 H 282.522 -2.38083 -7.42251 0
M  V30 3154 N 286.751 1.08385 -1.14413 0
M  V30 3155 C 287.976 1.85057 -0.936413 0
M  V30 3156 C 288.401 1.81055 0.509971 0
M  V30 3157 O 287.759 1.1958 1.36273 0
M  V30 3158 C 287.807 3.30505 -1.44217 0
M  V30 3159 O 286.911 4.07491 -0.634409 0
M  V30 3160 H 286.252 0.573425 -0.334784 0
M  V30 3161 H 288.782 1.36799 -1.52142 0
M  V30 3162 H 288.792 3.81348 -1.45043 0
M  V30 3163 H 287.467 3.32734 -2.49522 0
M  V30 3164 H 286.044 3.66368 -0.694902 0
M  V30 3165 N 288.23 0.939286 1.26551 0
M  V30 3166 C 289.177 0.446088 2.26448 0
M  V30 3167 C 290.147 -0.493234 1.58608 0
M  V30 3168 O 291.332 -0.409857 1.86346 0
M  V30 3169 C 288.472 -0.284375 3.43926 0
M  V30 3170 C 287.585 0.690399 4.26448 0
M  V30 3171 C 286.72 -0.0610712 5.31165 0
M  V30 3172 C 285.759 0.905649 6.05363 0
M  V30 3173 N 284.896 0.186055 7.01853 0
M  V30 3174 H 289.736 1.30291 2.68008 0
M  V30 3175 H 287.273 0.65371 1.31776 0
M  V30 3176 H 289.231 -0.724313 4.10864 0
M  V30 3177 H 287.861 -1.10535 3.03285 0
M  V30 3178 H 286.913 1.24885 3.59316 0
M  V30 3179 H 288.225 1.42873 4.779 0
M  V30 3180 H 287.379 -0.56038 6.04106 0
M  V30 3181 H 286.118 -0.832297 4.80546 0
M  V30 3182 H 285.123 1.4161 5.3125 0
M  V30 3183 H 286.348 1.67685 6.58072 0
M  V30 3184 H 284.294 -0.566714 6.53548 0
M  V30 3185 H 284.211 0.863752 7.51049 0
M  V30 3186 H 285.479 -0.292221 7.78952 0
M  V30 3187 N 289.708 -1.40897 0.706093 0
M  V30 3188 C 290.618 -2.3455 0.0482286 0
M  V30 3189 C 291.634 -1.56796 -0.754396 0
M  V30 3190 O 292.81 -1.89228 -0.689538 0
M  V30 3191 C 289.875 -3.35625 -0.869303 0
M  V30 3192 C 288.936 -4.29261 -0.0576994 0
M  V30 3193 C 288.169 -5.25508 -0.931531 0
M  V30 3194 O 288.392 -5.27472 -2.17092 0
M  V30 3195 O 287.326 -6.00727 -0.375587 0
M  V30 3196 H 291.152 -2.92407 0.820476 0
M  V30 3197 H 288.737 -1.4193 0.4665 0
M  V30 3198 H 290.619 -3.97635 -1.39514 0
M  V30 3199 H 289.294 -2.80196 -1.62086 0
M  V30 3200 H 288.201 -3.70566 0.512988 0
M  V30 3201 H 289.534 -4.87817 0.655426 0
M  V30 3202 N 291.186 -0.45159 -1.50991 0
M  V30 3203 C 292.597 0.00818571 -1.86698 0
M  V30 3204 C 292.948 1.40661 -1.3678 0
M  V30 3205 O 292.073 2.0391 -0.724546 0
M  V30 3206 C 292.668 0.0216303 -3.38793 0
M  V30 3207 C 291.227 0.425865 -3.73983 0
M  V30 3208 C 290.374 -0.372163 -2.74791 0
M  V30 3209 H 293.325 -0.666785 -1.44013 0
M  V30 3210 H 293.346 0.828078 -3.7138 0
M  V30 3211 H 292.858 -0.996288 -3.75094 0
M  V30 3212 H 290.959 1.44886 -3.43277 0
M  V30 3213 H 291.072 0.140761 -4.78893 0
M  V30 3214 H 289.436 0.171498 -2.54122 0
M  V30 3215 H 290.219 -1.38922 -3.13935 0
M  V30 3216 N 292.664 1.56529 -0.183458 0
M  V30 3217 C 293.892 2.01623 0.464285 0
M  V30 3218 C 294.307 1.06366 1.55986 0
M  V30 3219 O 293.664 0.0665398 1.82379 0
M  V30 3220 C 293.715 3.46475 1.03139 0
M  V30 3221 O 293.436 4.38095 -0.0204675 0
M  V30 3222 C 294.937 4.0703 1.75617 0
M  V30 3223 H 292.157 0.660596 0.117704 0
M  V30 3224 H 294.701 2.02451 -0.288751 0
M  V30 3225 H 292.856 3.46383 1.73486 0
M  V30 3226 H 293.27 5.22973 0.399952 0
M  V30 3227 H 294.744 5.10271 2.10542 0
M  V30 3228 H 295.221 3.49819 2.65563 0
M  V30 3229 H 295.827 4.1086 1.09882 0
M  V30 3230 N 294.142 -0.090211 1.57342 0
M  V30 3231 C 295.553 -0.644173 1.75235 0
M  V30 3232 C 295.904 -1.78865 0.806335 0
M  V30 3233 O 295.029 -2.16395 -0.0140128 0
M  V30 3234 C 295.624 -1.17532 3.1776 0
M  V30 3235 C 294.183 -1.67531 3.37061 0
M  V30 3236 C 293.33 -0.58693 2.71017 0
M  V30 3237 H 296.281 0.135884 1.58117 0
M  V30 3238 H 296.302 -2.04455 3.20902 0
M  V30 3239 H 295.814 -0.342138 3.86589 0
M  V30 3240 H 293.915 -2.53234 2.73319 0
M  V30 3241 H 294.028 -1.76493 4.45406 0
M  V30 3242 H 292.392 -1.02756 2.33052 0
M  V30 3243 H 293.175 0.235758 3.4249 0
M  V30 3244 N 295.62 -1.53406 -0.361157 0
M  V30 3245 C 296.868 -1.69467 -1.10115 0
M  V30 3246 C 297.189 -0.451352 -1.89705 0
M  V30 3247 O 296.459 0.534636 -1.88463 0
M  V30 3248 H 295.039 -0.624749 -0.409508 0
M  V30 3249 H 297.701 -1.90609 -0.406699 0
M  V30 3250 H 296.797 -2.55774 -1.78847 0
M  V30 3251 N 297.098 0.621204 -1.44841 0
M  V30 3252 C 298.346 1.37783 -1.47852 0
M  V30 3253 C 298.667 1.94653 -0.116224 0
M  V30 3254 O 297.937 1.76367 0.852737 0
M  V30 3255 H 296.517 0.511453 -0.544449 0
M  V30 3256 H 299.179 0.730446 -1.80694 0
M  V30 3257 H 298.275 2.20414 -2.20961 0
M  V30 3258 N 298.576 1.31904 0.862503 0
M  V30 3259 C 299.506 1.22782 1.98612 0
M  V30 3260 C 300.487 0.113362 1.69722 0
M  V30 3261 O 301.672 0.299218 1.91881 0
M  V30 3262 C 298.802 0.942058 3.34279 0
M  V30 3263 C 297.756 2.0169 3.77499 0
M  V30 3264 C 297.082 1.58369 5.10709 0
M  V30 3265 C 298.382 3.43096 3.93805 0
M  V30 3266 H 300.076 2.16788 2.06502 0
M  V30 3267 H 297.622 1.04366 0.992154 0
M  V30 3268 H 299.575 0.864818 4.1243 0
M  V30 3269 H 298.299 -0.0336603 3.26583 0
M  V30 3270 H 296.958 2.08416 3.01593 0
M  V30 3271 H 296.606 0.595628 4.99461 0
M  V30 3272 H 296.306 2.30279 5.40597 0
M  V30 3273 H 297.83 1.52067 5.91361 0
M  V30 3274 H 299.244 3.39003 4.62331 0
M  V30 3275 H 297.641 4.13288 4.35101 0
M  V30 3276 H 298.711 3.83334 2.96957 0
M  V30 3277 N 300.054 -1.07777 1.14986 0
M  V30 3278 C 301.002 -2.16964 0.838406 0
M  V30 3279 C 301.996 -1.68372 -0.186386 0
M  V30 3280 O 303.202 -1.79951 -0.0418465 0
M  V30 3281 H 299.577 -0.708006 0.253439 0
M  V30 3282 H 301.548 -2.40454 1.76704 0
M  V30 3283 C 300.297 -3.4604 0.339335 0
M  V30 3284 H 299.62 -3.83813 1.11927 0
M  V30 3285 H 301.06 -4.23698 0.160021 0
M  V30 3286 C 299.519 -3.23569 -0.938325 0
M  V30 3287 O 300.049 -3.47752 -2.01077 0
M  V30 3288 N 298.255 -2.77079 -0.876117 0
M  V30 3289 H 297.802 -2.576 -0.00322037 0
M  V30 3290 H 297.76 -2.62422 -1.73153 0
M  V30 3291 N 301.532 -0.945985 -1.26051 0
M  V30 3292 C 302.482 -0.430164 -2.23905 0
M  V30 3293 C 303.466 0.47579 -1.53704 0
M  V30 3294 O 304.658 0.310252 -1.7426 0
M  V30 3295 C 301.787 0.298957 -3.41996 0
M  V30 3296 C 300.873 -0.624566 -4.19476 0
M  V30 3297 N 301.264 -1.75245 -4.74471 0
M  V30 3298 C 299.562 -0.431082 -4.43912 0
M  V30 3299 C 300.263 -2.32834 -5.3307 0
M  V30 3300 N 299.239 -1.61583 -5.1903 0
M  V30 3301 H 303.041 -1.29107 -2.64024 0
M  V30 3302 H 300.555 -0.802428 -1.41191 0
M  V30 3303 H 302.552 0.685565 -4.11225 0
M  V30 3304 H 301.212 1.15657 -3.03403 0
M  V30 3305 H 302.223 -2.13449 -4.71868 0
M  V30 3306 H 298.9 0.384364 -4.15727 0
M  V30 3307 H 300.29 -3.27893 -5.86461 0
M  V30 3308 N 303.011 1.40521 -0.713556 0
M  V30 3309 C 304.236 2.05759 -0.26035 0
M  V30 3310 C 304.661 1.53403 1.08854 0
M  V30 3311 O 304.019 0.668535 1.68524 0
M  V30 3312 C 304.067 3.59745 -0.248122 0
M  V30 3313 O 303.171 4.05123 0.77131 0
M  V30 3314 H 302.512 0.652564 -0.122703 0
M  V30 3315 H 305.042 1.79958 -0.973467 0
M  V30 3316 H 305.052 4.07911 -0.0851129 0
M  V30 3317 H 303.727 3.97218 -1.2325 0
M  V30 3318 H 302.304 3.68422 0.57619 0
M  V30 3319 N 304.489 0.459591 1.5075 0
M  V30 3320 C 305.419 -0.330644 2.31147 0
M  V30 3321 C 306.4 -1.00087 1.37538 0
M  V30 3322 O 307.585 -1.00025 1.66459 0
M  V30 3323 C 304.715 -1.41958 3.16962 0
M  V30 3324 C 303.669 -0.871608 4.19031 0
M  V30 3325 C 302.995 -2.05797 4.9351 0
M  V30 3326 C 304.295 0.109251 5.22186 0
M  V30 3327 H 305.989 0.340336 2.97459 0
M  V30 3328 H 303.535 0.165119 1.4305 0
M  V30 3329 H 305.488 -1.9798 3.71997 0
M  V30 3330 H 304.212 -2.11917 2.48513 0
M  V30 3331 H 302.871 -0.333442 3.6508 0
M  V30 3332 H 302.519 -2.74427 4.21544 0
M  V30 3333 H 302.219 -1.6976 5.62544 0
M  V30 3334 H 303.743 -2.62331 5.51375 0
M  V30 3335 H 305.157 -0.361405 5.7216 0
M  V30 3336 H 303.554 0.383316 5.98875 0
M  V30 3337 H 304.624 1.03887 4.73641 0
M  V30 3338 N 305.967 -1.56429 0.191757 0
M  V30 3339 C 307.378 -1.83912 -0.321428 0
M  V30 3340 C 307.729 -1.11231 -1.61623 0
M  V30 3341 O 306.854 -0.37202 -2.13178 0
M  V30 3342 C 307.449 -3.33624 -0.589961 0
M  V30 3343 C 306.008 -3.6153 -1.04753 0
M  V30 3344 C 305.155 -2.7714 -0.0943327 0
M  V30 3345 H 308.106 -1.53161 0.415612 0
M  V30 3346 H 308.127 -3.52213 -1.43966 0
M  V30 3347 H 307.639 -3.86495 0.352588 0
M  V30 3348 H 305.74 -3.14089 -2.00447 0
M  V30 3349 H 305.853 -4.69737 -0.942549 0
M  V30 3350 H 304.217 -2.47638 -0.595589 0
M  V30 3351 H 305 -3.32799 0.842601 0
M  V30 3352 N 307.445 0.0818655 -1.57387 0
M  V30 3353 C 308.377 1.12484 -1.997 0
M  V30 3354 C 309.39 1.35564 -0.90146 0
M  V30 3355 O 310.579 1.33982 -1.17945 0
M  V30 3356 C 307.679 2.47778 -2.31213 0
M  V30 3357 C 306.852 2.44793 -3.62485 0
M  V30 3358 C 305.911 3.62117 -3.81782 0
M  V30 3359 O 304.937 3.44005 -4.53486 0
M  V30 3360 N 306.139 4.82094 -3.23367 0
M  V30 3361 H 308.904 0.764585 -2.89783 0
M  V30 3362 H 306.465 0.270664 -1.59621 0
M  V30 3363 H 308.457 3.24891 -2.41304 0
M  V30 3364 H 307.027 2.75843 -1.4707 0
M  V30 3365 H 306.247 1.53134 -3.6324 0
M  V30 3366 H 307.535 2.39889 -4.48699 0
M  V30 3367 H 306.933 4.99713 -2.65148 0
M  V30 3368 H 305.49 5.56753 -3.38923 0
M  V30 3369 N 308.923 1.53595 0.353017 0
M  V30 3370 C 309.873 1.77299 1.43349 0
M  V30 3371 C 310.857 0.627884 1.48143 0
M  V30 3372 O 312.049 0.88697 1.53173 0
M  V30 3373 C 309.178 1.97757 2.80619 0
M  V30 3374 C 308.264 3.18305 2.80254 0
M  V30 3375 N 308.655 4.39967 2.49526 0
M  V30 3376 C 306.953 3.19283 3.11407 0
M  V30 3377 C 307.654 5.21772 2.57156 0
M  V30 3378 N 306.63 4.58269 2.92388 0
M  V30 3379 H 310.432 2.68963 1.18474 0
M  V30 3380 H 307.946 1.52391 0.561306 0
M  V30 3381 H 309.943 2.1287 3.58458 0
M  V30 3382 H 308.603 1.07329 3.06448 0
M  V30 3383 H 309.614 4.67482 2.22893 0
M  V30 3384 H 306.291 2.3879 3.4247 0
M  V30 3385 H 307.681 6.2885 2.36638 0
M  V30 3386 N 310.401 -0.613514 1.45168 0
M  V30 3387 C 311.812 -1.19539 1.43413 0
M  V30 3388 C 312.163 -1.95558 0.158632 0
M  V30 3389 O 311.288 -2.0335 -0.740119 0
M  V30 3390 C 311.883 -2.17445 2.59813 0
M  V30 3391 C 310.442 -2.71022 2.61197 0
M  V30 3392 C 309.589 -1.46323 2.35552 0
M  V30 3393 H 312.54 -0.403163 1.53494 0
M  V30 3394 H 312.561 -3.00373 2.33574 0
M  V30 3395 H 312.073 -1.62089 3.52631 0
M  V30 3396 H 310.174 -3.30332 1.7237 0
M  V30 3397 H 310.287 -3.15859 3.60236 0
M  V30 3398 H 308.651 -1.75072 1.84992 0
M  V30 3399 H 309.434 -0.92844 3.30507 0
M  V30 3400 N 311.879 -1.3236 -0.855495 0
M  V30 3401 C 312.826 -1.21225 -1.964 0
M  V30 3402 C 313.796 -0.0946204 -1.6583 0
M  V30 3403 O 314.981 -0.27002 -1.8888 0
M  V30 3404 C 312.121 -0.940419 -3.32039 0
M  V30 3405 C 311.234 -2.14276 -3.75113 0
M  V30 3406 C 310.369 -1.80648 -4.9954 0
M  V30 3407 C 309.408 -2.97208 -5.35102 0
M  V30 3408 N 308.545 -2.63678 -6.50706 0
M  V30 3409 H 313.385 -2.16042 -2.05255 0
M  V30 3410 H 310.922 -1.07451 -1.00463 0
M  V30 3411 H 312.88 -0.763311 -4.10158 0
M  V30 3412 H 311.51 -0.0290413 -3.22787 0
M  V30 3413 H 310.562 -2.43017 -2.92655 0
M  V30 3414 H 311.874 -3.01468 -3.97389 0
M  V30 3415 H 311.028 -1.59484 -5.85363 0
M  V30 3416 H 309.767 -0.906678 -4.79198 0
M  V30 3417 H 308.772 -3.19004 -4.47791 0
M  V30 3418 H 309.997 -3.87918 -5.57401 0
M  V30 3419 H 307.943 -1.76238 -6.31883 0
M  V30 3420 H 307.86 -3.444 -6.72997 0
M  V30 3421 H 309.128 -2.45942 -7.39684 0
M  V30 3422 N 313.357 1.07166 -1.15556 0
M  V30 3423 C 314.597 1.81391 -0.94216 0
M  V30 3424 C 314.961 1.84788 0.521272 0
M  V30 3425 O 316.162 2.54904 0.85307 0
M  V30 3426 C 314.433 3.22431 -1.54185 0
M  V30 3427 S 315.992 4.13379 -1.47183 0
M  V30 3428 H 312.81 0.624963 -0.339031 0
M  V30 3429 H 315.412 1.28725 -1.4714 0
M  V30 3430 H 314.116 3.17548 -2.59984 0
M  V30 3431 H 313.647 3.80172 -1.01156 0
M  V30 3432 H 315.662 4.94007 -0.466004 0
M  V30 3433 N 314.835 0.952656 1.25548 0
M  V30 3434 C 316.081 0.616826 1.93822 0
M  V30 3435 C 316.436 -0.836684 1.73255 0
M  V30 3436 O 315.729 -1.59218 1.06584 0
M  V30 3437 C 315.923 0.908818 3.45652 0
M  V30 3438 C 315.752 2.38916 3.80984 0
M  V30 3439 C 314.522 3.04637 4.03143 0
M  V30 3440 C 316.72 3.36838 3.88645 0
M  V30 3441 N 314.702 4.42565 4.25453 0
M  V30 3442 C 316.073 4.60065 4.1562 0
M  V30 3443 C 318.128 3.31704 3.71318 0
M  V30 3444 C 316.831 5.78795 4.2707 0
M  V30 3445 C 318.857 4.4977 3.84006 0
M  V30 3446 C 318.219 5.71783 4.11392 0
M  V30 3447 H 314.318 0.27629 0.731565 0
M  V30 3448 H 316.902 1.22443 1.5138 0
M  V30 3449 H 315.073 0.330166 3.86994 0
M  V30 3450 H 316.805 0.533093 4.01174 0
M  V30 3451 H 313.56 2.55215 3.98952 0
M  V30 3452 H 313.984 5.1399 4.40617 0
M  V30 3453 H 318.626 2.3842 3.49164 0
M  V30 3454 H 316.344 6.72521 4.48041 0
M  V30 3455 H 319.93 4.47342 3.71989 0
M  V30 3456 H 318.81 6.61617 4.2099 0
M  V30 3457 N 316.313 -1.40141 0.720998 0
M  V30 3458 C 317.561 -2.0039 0.262323 0
M  V30 3459 C 317.882 -1.57469 -1.15015 0
M  V30 3460 O 317.152 -0.816582 -1.78069 0
M  V30 3461 H 315.732 -0.741063 0.093996 0
M  V30 3462 H 318.394 -1.71398 0.927835 0
M  V30 3463 H 317.49 -3.10658 0.299671 0
M  V30 3464 N 317.792 -0.46758 -1.50504 0
M  V30 3465 C 318.755 0.317059 -2.26996 0
M  V30 3466 C 319.755 0.923513 -1.31635 0
M  V30 3467 O 320.945 0.793239 -1.55091 0
M  V30 3468 C 318.077 1.45134 -3.08462 0
M  V30 3469 H 319.27 -0.353723 -2.97807 0
M  V30 3470 H 316.823 -0.221545 -1.54722 0
M  V30 3471 H 317.558 2.15728 -2.4214 0
M  V30 3472 H 317.343 1.02232 -3.78538 0
M  V30 3473 H 318.833 2.00493 -3.66323 0
M  V30 3474 N 319.27 1.56325 -0.20005 0
M  V30 3475 C 320.22 2.15939 0.731743 0
M  V30 3476 C 321.204 1.10154 1.17281 0
M  V30 3477 O 322.396 1.36203 1.13038 0
M  V30 3478 C 319.525 2.82614 1.94895 0
M  V30 3479 C 318.611 3.95596 1.52855 0
M  V30 3480 N 319.002 4.99118 0.819418 0
M  V30 3481 C 317.3 4.07288 1.81748 0
M  V30 3482 C 318.001 5.78513 0.608053 0
M  V30 3483 N 316.977 5.31117 1.15828 0
M  V30 3484 H 320.779 2.9334 0.181285 0
M  V30 3485 H 318.293 1.624 -0.000452172 0
M  V30 3486 H 320.29 3.23718 2.62702 0
M  V30 3487 H 318.95 2.06702 2.50408 0
M  V30 3488 H 319.961 5.15723 0.47436 0
M  V30 3489 H 316.638 3.42509 2.38734 0
M  V30 3490 H 318.028 6.71885 0.0451619 0
M  V30 3491 N 320.748 -0.0735177 1.57428 0
M  V30 3492 C 321.698 -1.09442 2.00016 0
M  V30 3493 C 322.682 -1.34575 0.881947 0
M  V30 3494 O 323.874 -1.34905 1.14585 0
M  V30 3495 C 321.003 -2.40865 2.4462 0
M  V30 3496 C 320.089 -2.19014 3.63172 0
M  V30 3497 N 320.48 -1.67087 4.77405 0
M  V30 3498 C 318.778 -2.49494 3.69688 0
M  V30 3499 C 319.479 -1.6001 5.5926 0
M  V30 3500 N 318.455 -2.05999 5.03056 0
M  V30 3501 H 322.257 -0.686227 2.85776 0
M  V30 3502 H 319.771 -0.280617 1.59957 0
M  V30 3503 H 321.768 -3.14763 2.73368 0
M  V30 3504 H 320.428 -2.82403 1.60246 0
M  V30 3505 H 321.439 -1.35975 4.99731 0
M  V30 3506 H 318.116 -2.94409 2.96023 0
M  V30 3507 H 319.506 -1.2073 6.60964 0
M  V30 3508 N 322.226 -1.5378 -0.344866 0
M  V30 3509 C 323.189 -1.80981 -1.40637 0
M  V30 3510 C 324.189 -0.680816 -1.45676 0
M  V30 3511 O 325.379 -0.949095 -1.46075 0
M  V30 3512 C 322.511 -1.95063 -2.79577 0
M  V30 3513 H 323.704 -2.75803 -1.17783 0
M  V30 3514 H 321.257 -1.45173 -0.579181 0
M  V30 3515 H 321.992 -1.02379 -3.07716 0
M  V30 3516 H 321.777 -2.77198 -2.77315 0
M  V30 3517 H 323.267 -2.17629 -3.56409 0
M  V30 3518 N 323.704 0.605807 -1.45491 0
M  V30 3519 C 324.929 1.39625 -1.53361 0
M  V30 3520 C 325.354 1.87351 -0.167645 0
M  V30 3521 O 324.712 1.60243 0.848051 0
M  V30 3522 C 324.76 2.57559 -2.5238 0
M  V30 3523 O 323.864 3.58248 -2.04285 0
M  V30 3524 H 323.205 0.416771 -0.516912 0
M  V30 3525 H 325.735 0.737103 -1.90861 0
M  V30 3526 H 325.745 3.0478 -2.71244 0
M  V30 3527 H 324.42 2.22171 -3.51586 0
M  V30 3528 H 322.997 3.17664 -1.95305 0
M  V30 3529 N 325.182 1.32811 0.848464 0
M  V30 3530 C 326.112 1.24882 1.97299 0
M  V30 3531 C 327.093 0.131357 1.69592 0
M  V30 3532 O 328.278 0.319553 1.91553 0
M  V30 3533 C 325.408 0.97746 3.33261 0
M  V30 3534 C 324.362 2.05682 3.75338 0
M  V30 3535 C 323.688 1.63777 5.09 0
M  V30 3536 C 324.988 3.47254 3.90144 0
M  V30 3537 H 326.682 2.18966 2.04191 0
M  V30 3538 H 324.228 1.05413 0.981029 0
M  V30 3539 H 326.181 0.908513 4.1149 0
M  V30 3540 H 324.905 0.000980011 3.266 0
M  V30 3541 H 323.564 2.11603 2.99366 0
M  V30 3542 H 323.212 0.648569 4.98801 0
M  V30 3543 H 322.912 2.36 5.38124 0
M  V30 3544 H 324.436 1.5833 5.89715 0
M  V30 3545 H 325.85 3.43888 4.58709 0
M  V30 3546 H 324.247 4.1788 4.30693 0
M  V30 3547 H 325.317 3.86462 2.92874 0
M  V30 3548 N 326.66 -1.06551 1.16123 0
M  V30 3549 C 327.937 -1.76097 0.85142 0
M  V30 3550 C 328.317 -2.00802 -0.6513 0
M  V30 3551 O 327.665 -1.63302 -1.59827 0
M  V30 3552 C 327.875 -3.06384 1.67122 0
M  V30 3553 C 329.223 -3.80585 1.88255 0
M  V30 3554 O 330.247 -3.16218 1.63966 0
M  V30 3555 O 329.106 -4.96212 2.2899 0
M  V30 3556 H 326.2 -0.765102 0.313923 0
M  V30 3557 H 328.746 -1.12844 1.26745 0
M  V30 3558 H 327.518 -2.84071 2.69108 0
M  V30 3559 H 327.141 -3.77371 1.25206 0
M  V30 3560 N 328.138 -0.959301 -1.25041 0
M  V30 3561 C 329.07 -0.440543 -2.24926 0
M  V30 3562 C 330.083 0.446131 -1.56568 0
M  V30 3563 O 331.272 0.253657 -1.76689 0
M  V30 3564 C 328.372 0.38412 -3.36716 0
M  V30 3565 C 327.545 -0.490658 -4.34639 0
M  V30 3566 C 326.604 0.276587 -5.25473 0
M  V30 3567 O 325.63 -0.326614 -5.68262 0
M  V30 3568 N 326.832 1.56844 -5.5891 0
M  V30 3569 H 329.597 -1.29931 -2.70071 0
M  V30 3570 H 327.158 -0.830181 -1.38995 0
M  V30 3571 H 329.15 0.905228 -3.94446 0
M  V30 3572 H 327.72 1.14377 -2.90924 0
M  V30 3573 H 326.94 -1.19282 -3.7572 0
M  V30 3574 H 328.228 -1.08756 -4.97041 0
M  V30 3575 H 327.626 2.08036 -5.26059 0
M  V30 3576 H 326.183 2.03541 -6.19205 0
M  V30 3577 N 329.616 1.39756 -0.72842 0
M  V30 3578 C 330.841 2.05472 -0.282159 0
M  V30 3579 C 331.266 1.54549 1.07221 0
M  V30 3580 O 330.624 0.686372 1.67805 0
M  V30 3581 C 330.672 3.59462 -0.286264 0
M  V30 3582 O 329.776 4.05918 0.728298 0
M  V30 3583 H 329.117 0.651226 -0.129618 0
M  V30 3584 H 331.647 1.78915 -0.992499 0
M  V30 3585 H 331.657 4.07798 -0.128373 0
M  V30 3586 H 330.332 3.95889 -1.27456 0
M  V30 3587 H 328.909 3.69012 0.537081 0
M  V30 3588 N 331.094 0.475555 1.50254 0
M  V30 3589 C 332.319 -0.0777042 2.07254 0
M  V30 3590 C 332.744 -1.3235 1.3366 0
M  V30 3591 O 332.102 -1.77152 0.385597 0
M  V30 3592 C 332.15 -0.340169 3.58992 0
M  V30 3593 O 331.254 -1.41982 3.87188 0
M  V30 3594 H 330.595 0.0149556 0.663832 0
M  V30 3595 H 333.125 0.667878 1.93392 0
M  V30 3596 H 333.135 -0.579332 4.03866 0
M  V30 3597 H 331.81 0.570167 4.11973 0
M  V30 3598 H 330.387 -1.16762 3.54148 0
M  V30 3599 N 332.573 -1.56217 0.208337 0
M  V30 3600 C 333.984 -1.84243 -0.301904 0
M  V30 3601 C 334.335 -1.12939 -1.60434 0
M  V30 3602 O 333.46 -0.39461 -2.12772 0
M  V30 3603 C 334.055 -3.34231 -0.554543 0
M  V30 3604 C 332.614 -3.62621 -1.00912 0
M  V30 3605 C 331.761 -2.77224 -0.064933 0
M  V30 3606 H 334.712 -1.52712 0.431833 0
M  V30 3607 H 334.733 -3.5372 -1.40223 0
M  V30 3608 H 334.245 -3.86099 0.393561 0
M  V30 3609 H 332.346 -3.16197 -1.97104 0
M  V30 3610 H 332.459 -4.7071 -0.892674 0
M  V30 3611 H 330.823 -2.48256 -0.56929 0
M  V30 3612 H 331.606 -3.31887 0.877851 0
M  V30 3613 N 334.051 0.0651679 -1.57465 0
M  V30 3614 C 335.462 0.616213 -1.76238 0
M  V30 3615 C 335.813 1.7756 -0.834689 0
M  V30 3616 O 334.938 2.1639 -0.0204156 0
M  V30 3617 C 335.533 1.12462 -3.1959 0
M  V30 3618 C 334.092 1.62147 -3.39684 0
M  V30 3619 C 333.239 0.543739 -2.71917 0
M  V30 3620 H 336.19 -0.161022 -1.57881 0
M  V30 3621 H 336.211 1.99324 -3.24114 0
M  V30 3622 H 335.723 0.280592 -3.87084 0
M  V30 3623 H 333.824 2.48854 -2.77313 0
M  V30 3624 H 333.937 1.69385 -4.48158 0
M  V30 3625 H 332.301 0.990352 -2.34657 0
M  V30 3626 H 333.084 -0.290216 -3.42071 0
M  V30 3627 N 335.529 1.53961 0.336706 0
M  V30 3628 C 336.461 1.78751 1.4346 0
M  V30 3629 C 337.474 0.669019 1.48418 0
M  V30 3630 O 338.663 0.945884 1.51378 0
M  V30 3631 C 335.763 1.87844 2.82078 0
M  V30 3632 C 334.936 3.17854 3.00479 0
M  V30 3633 C 333.995 3.17816 4.19379 0
M  V30 3634 O 333.021 3.91511 4.13168 0
M  V30 3635 N 334.223 2.40669 5.2826 0
M  V30 3636 H 336.988 2.73493 1.22563 0
M  V30 3637 H 334.549 1.53096 0.526625 0
M  V30 3638 H 336.541 1.85261 3.59806 0
M  V30 3639 H 335.111 1.00257 2.96086 0
M  V30 3640 H 334.331 3.33504 2.10163 0
M  V30 3641 H 335.619 4.03718 3.0966 0
M  V30 3642 H 335.017 1.8036 5.36178 0
M  V30 3643 H 333.574 2.43877 6.04456 0
M  V30 3644 N 337.007 -0.598083 1.45811 0
M  V30 3645 C 338.232 -1.3881 1.54099 0
M  V30 3646 C 338.657 -1.8726 0.177578 0
M  V30 3647 O 338.015 -1.6069 -0.839541 0
M  V30 3648 C 338.063 -2.56217 2.53743 0
M  V30 3649 O 337.167 -3.5716 2.06182 0
M  V30 3650 H 336.508 -0.414024 0.519115 0
M  V30 3651 H 339.038 -0.726971 1.91249 0
M  V30 3652 H 339.048 -3.03337 2.72856 0
M  V30 3653 H 337.723 -2.20303 3.5276 0
M  V30 3654 H 336.3 -3.16624 1.96987 0
M  V30 3655 N 338.485 -1.33259 -0.841409 0
M  V30 3656 C 339.733 -1.24326 -1.59334 0
M  V30 3657 C 340.054 0.191564 -1.94057 0
M  V30 3658 O 339.324 1.11967 -1.60749 0
M  V30 3659 H 337.904 -0.457174 -0.590763 0
M  V30 3660 H 340.566 -1.66947 -1.00571 0
M  V30 3661 H 339.662 -1.8352 -2.52442 0
M  V30 3662 N 339.963 1.05934 -1.16686 0
M  V30 3663 C 341.374 1.60263 -0.957745 0
M  V30 3664 C 341.725 1.89789 0.49745 0
M  V30 3665 O 340.85 1.67401 1.37135 0
M  V30 3666 C 341.445 2.91172 -1.73218 0
M  V30 3667 C 340.004 3.42188 -1.56794 0
M  V30 3668 C 339.151 2.16028 -1.73859 0
M  V30 3669 H 342.102 0.888392 -1.31504 0
M  V30 3670 H 342.123 3.60744 -1.21014 0
M  V30 3671 H 341.635 2.6965 -2.79124 0
M  V30 3672 H 339.736 3.68762 -0.533437 0
M  V30 3673 H 339.849 4.17273 -2.35414 0
M  V30 3674 H 338.213 2.26426 -1.16633 0
M  V30 3675 H 338.996 1.96985 -2.81161 0
M  V30 3676 N 341.441 0.965919 1.2453 0
M  V30 3677 C 342.852 0.665929 1.7442 0
M  V30 3678 C 343.203 -0.818407 1.78316 0
M  V30 3679 O 342.328 -1.64037 1.41141 0
M  V30 3680 C 342.923 1.20211 3.16757 0
M  V30 3681 C 341.482 0.952059 3.6416 0
M  V30 3682 C 340.629 1.33848 2.42858 0
M  V30 3683 H 343.58 1.14144 1.10258 0
M  V30 3684 H 343.601 0.567544 3.76244 0
M  V30 3685 H 343.113 2.28244 3.13889 0
M  V30 3686 H 341.214 -0.112821 3.72429 0
M  V30 3687 H 341.327 1.59645 4.51719 0
M  V30 3688 H 339.691 0.756864 2.43195 0
M  V30 3689 H 340.474 2.42827 2.42673 0
M  V30 3690 N 342.919 -1.39368 0.735821 0
M  V30 3691 C 344.167 -2.00101 0.283562 0
M  V30 3692 C 344.488 -1.5868 -1.13338 0
M  V30 3693 O 343.758 -0.835423 -1.77193 0
M  V30 3694 H 342.338 -0.740024 0.101851 0
M  V30 3695 H 345 -1.70404 0.945962 0
M  V30 3696 H 344.096 -3.10323 0.332604 0
M  V30 3697 N 344.397 -0.483516 -1.5 0
M  V30 3698 C 345.625 0.0644831 -2.06799 0
M  V30 3699 C 346.04 1.32399 -1.34596 0
M  V30 3700 O 345.397 1.77626 -0.418946 0
M  V30 3701 C 345.448 0.339927 -3.59898 0
M  V30 3702 O 345.169 -0.869635 -4.29382 0
M  V30 3703 C 346.67 0.933515 -4.33359 0
M  V30 3704 H 343.89 -0.0126333 -0.670881 0
M  V30 3705 H 346.434 -0.675864 -1.93009 0
M  V30 3706 H 344.589 1.03022 -3.7345 0
M  V30 3707 H 345.003 -0.62179 -5.20801 0
M  V30 3708 H 346.477 1.07593 -5.41413 0
M  V30 3709 H 346.954 1.92685 -3.94676 0
M  V30 3710 H 347.56 0.281221 -4.24369 0
M  V30 3711 N 345.875 1.56104 -0.216619 0
M  V30 3712 C 347.286 1.844 0.292128 0
M  V30 3713 C 347.637 1.13788 1.59833 0
M  V30 3714 O 346.762 0.405888 2.12559 0
M  V30 3715 C 347.357 3.3452 0.53681 0
M  V30 3716 C 345.916 3.63151 0.989876 0
M  V30 3717 C 345.063 2.77255 0.0502302 0
M  V30 3718 H 348.014 1.52481 -0.439926 0
M  V30 3719 H 348.035 3.54459 1.38345 0
M  V30 3720 H 347.547 3.85885 -0.414031 0
M  V30 3721 H 345.648 3.17238 1.95425 0
M  V30 3722 H 345.761 4.71177 0.867698 0
M  V30 3723 H 344.125 2.48555 0.556117 0
M  V30 3724 H 344.908 3.31416 -0.89544 0
M  V30 3725 N 347.353 -0.0568162 1.57498 0
M  V30 3726 C 348.764 -0.606858 1.76562 0
M  V30 3727 C 349.115 -1.77114 0.844094 0
M  V30 3728 O 348.24 -2.16376 0.0318911 0
M  V30 3729 C 348.835 -1.10766 3.20182 0
M  V30 3730 C 347.394 -1.60344 3.40539 0
M  V30 3731 C 346.541 -0.529311 2.72201 0
M  V30 3732 H 349.492 0.169393 1.57793 0
M  V30 3733 H 349.513 -1.97602 3.25167 0
M  V30 3734 H 349.025 -0.26006 3.87228 0
M  V30 3735 H 347.126 -2.47379 2.78629 0
M  V30 3736 H 347.239 -1.67006 4.4905 0
M  V30 3737 H 345.603 -0.977893 2.35179 0
M  V30 3738 H 346.386 0.308352 3.41912 0
M  V30 3739 N 348.832 -1.54138 -0.328536 0
M  V30 3740 C 350.057 -1.76378 -1.09112 0
M  V30 3741 C 350.482 -0.508596 -1.81094 0
M  V30 3742 O 349.84 0.539598 -1.73084 0
M  V30 3743 C 349.888 -2.95358 -2.06872 0
M  V30 3744 O 348.992 -2.66556 -3.14677 0
M  V30 3745 H 348.333 -0.584614 -0.314838 0
M  V30 3746 H 350.863 -2.01146 -0.374348 0
M  V30 3747 H 350.873 -3.22566 -2.4983 0
M  V30 3748 H 349.548 -3.86385 -1.5388 0
M  V30 3749 H 348.125 -2.50282 -2.7643 0
M  V30 3750 N 350.31 0.590341 -1.46126 0
M  V30 3751 C 351.54 1.37304 -1.54373 0
M  V30 3752 C 351.948 1.88332 -0.181071 0
M  V30 3753 O 351.291 1.63852 0.830559 0
M  V30 3754 C 351.353 2.6012 -2.48149 0
M  V30 3755 C 351.017 2.30613 -3.94546 0
M  V30 3756 C 352.014 1.89915 -4.83971 0
M  V30 3757 C 349.699 2.42993 -4.39613 0
M  V30 3758 C 351.693 1.61981 -6.16475 0
M  V30 3759 C 349.38 2.14672 -5.72153 0
M  V30 3760 C 350.378 1.7423 -6.60404 0
M  V30 3761 O 350.066 1.46251 -7.90485 0
M  V30 3762 H 349.798 0.426086 -0.524811 0
M  V30 3763 H 352.352 0.72539 -1.92165 0
M  V30 3764 H 350.582 3.27664 -2.05361 0
M  V30 3765 H 352.271 3.22182 -2.46887 0
M  V30 3766 H 353.037 1.79872 -4.50412 0
M  V30 3767 H 348.916 2.73435 -3.71153 0
M  V30 3768 H 352.46 1.30341 -6.85315 0
M  V30 3769 H 348.357 2.24337 -6.05263 0
M  V30 3770 H 349.125 1.6016 -8.02677 0
M  V30 3771 N 351.788 1.33704 0.83433 0
M  V30 3772 C 352.735 1.24335 1.94447 0
M  V30 3773 C 353.705 0.120991 1.65659 0
M  V30 3774 O 354.89 0.300035 1.88426 0
M  V30 3775 C 352.03 0.993124 3.30501 0
M  V30 3776 C 351.143 2.20217 3.71657 0
M  V30 3777 C 350.278 1.88572 4.96602 0
M  V30 3778 C 349.317 3.05683 5.30306 0
M  V30 3779 N 348.454 2.73997 6.46429 0
M  V30 3780 H 353.294 2.1928 2.01792 0
M  V30 3781 H 350.831 1.09035 0.987404 0
M  V30 3782 H 352.789 0.828467 4.08892 0
M  V30 3783 H 351.419 0.0803902 3.227 0
M  V30 3784 H 350.471 2.47642 2.88752 0
M  V30 3785 H 351.783 3.07752 3.92543 0
M  V30 3786 H 350.937 1.68776 5.82752 0
M  V30 3787 H 349.676 0.982799 4.77695 0
M  V30 3788 H 348.681 3.26088 4.42659 0
M  V30 3789 H 349.906 3.96737 5.51159 0
M  V30 3790 H 347.852 1.86268 6.28999 0
M  V30 3791 H 347.769 3.55064 6.67432 0
M  V30 3792 H 349.037 2.57679 7.35678 0
M  V30 3793 N 353.266 -1.05314 1.17247 0
M  V30 3794 C 354.196 -2.1498 0.911362 0
M  V30 3795 C 355.177 -1.69471 -0.146169 0
M  V30 3796 O 356.362 -1.942 0.003812 0
M  V30 3797 C 353.492 -3.4472 0.422528 0
M  V30 3798 C 352.446 -4.03789 1.4191 0
M  V30 3799 C 351.772 -5.28858 0.788274 0
M  V30 3800 C 353.072 -4.41418 2.7919 0
M  V30 3801 H 354.766 -2.3708 1.82848 0
M  V30 3802 H 352.312 -1.13938 0.880569 0
M  V30 3803 H 354.265 -4.20787 0.227289 0
M  V30 3804 H 352.989 -3.22269 -0.530123 0
M  V30 3805 H 351.648 -3.2979 1.60106 0
M  V30 3806 H 351.296 -5.02709 -0.171173 0
M  V30 3807 H 350.996 -5.69338 1.45353 0
M  V30 3808 H 352.52 -6.07612 0.603282 0
M  V30 3809 H 353.934 -5.08524 2.64719 0
M  V30 3810 H 352.331 -4.92913 3.42282 0
M  V30 3811 H 353.401 -3.51819 3.33693 0
M  V30 3812 N 354.744 -0.972509 -1.24016 0
M  V30 3813 C 356.155 -0.67517 -1.74064 0
M  V30 3814 C 356.506 0.808939 -1.78747 0
M  V30 3815 O 355.631 1.63286 -1.42009 0
M  V30 3816 C 356.226 -1.21889 -3.16115 0
M  V30 3817 C 354.785 -0.971358 -3.6365 0
M  V30 3818 C 353.932 -1.35134 -2.42145 0
M  V30 3819 H 356.883 -1.14727 -1.09651 0
M  V30 3820 H 356.904 -0.587489 -3.75937 0
M  V30 3821 H 356.416 -2.29906 -3.12674 0
M  V30 3822 H 354.517 0.0930686 -3.72484 0
M  V30 3823 H 354.63 -1.62039 -4.50866 0
M  V30 3824 H 352.994 -0.769751 -2.4279 0
M  V30 3825 H 353.777 -2.4411 -2.41381 0
M  V30 3826 N 356.222 1.38976 -0.743202 0
M  V30 3827 C 357.152 2.33171 -0.123873 0
M  V30 3828 C 358.133 1.54336 0.71516 0
M  V30 3829 O 359.318 1.82696 0.658467 0
M  V30 3830 C 356.448 3.38474 0.777978 0
M  V30 3831 C 355.402 4.27979 0.0424758 0
M  V30 3832 C 354.728 5.2405 1.06189 0
M  V30 3833 C 356.028 5.10155 -1.1198 0
M  V30 3834 H 357.722 2.85213 -0.910709 0
M  V30 3835 H 355.268 1.37133 -0.439388 0
M  V30 3836 H 357.221 4.03328 1.22084 0
M  V30 3837 H 355.945 2.84891 1.59702 0
M  V30 3838 H 354.604 3.64616 -0.380853 0
M  V30 3839 H 354.252 4.66758 1.87472 0
M  V30 3840 H 353.952 5.84785 0.574485 0
M  V30 3841 H 355.476 5.9178 1.50428 0
M  V30 3842 H 356.89 5.68307 -0.75499 0
M  V30 3843 H 355.287 5.80073 -1.53738 0
M  V30 3844 H 356.357 4.44504 -1.93764 0
M  V30 3845 N 357.7 0.491464 1.49741 0
M  V30 3846 C 359.111 0.0413169 1.86654 0
M  V30 3847 C 359.462 -1.36985 1.40462 0
M  V30 3848 O 358.587 -2.01917 0.778354 0
M  V30 3849 C 359.182 0.0682023 3.38731 0
M  V30 3850 C 357.741 -0.32656 3.74981 0
M  V30 3851 C 356.888 0.444888 2.73708 0
M  V30 3852 H 359.839 0.704733 1.42194 0
M  V30 3853 H 359.86 -0.729322 3.73445 0
M  V30 3854 H 359.372 1.09539 3.72321 0
M  V30 3855 H 357.473 -1.35734 3.46997 0
M  V30 3856 H 357.586 -0.013741 4.79098 0
M  V30 3857 H 355.95 -0.104062 2.54487 0
M  V30 3858 H 356.733 1.47197 3.10142 0
M  V30 3859 N 359.178 -1.55987 0.224894 0
M  V30 3860 C 360.426 -1.97998 -0.405099 0
M  V30 3861 C 360.747 -1.11387 -1.60056 0
M  V30 3862 O 360.017 -0.191645 -1.9496 0
M  V30 3863 H 358.597 -0.731235 -0.152658 0
M  V30 3864 H 361.259 -1.92279 0.318567 0
M  V30 3865 H 360.355 -3.03463 -0.729167 0
M  V30 3866 N 360.656 0.0484629 -1.57525 0
M  V30 3867 C 362.067 0.597486 -1.76881 0
M  V30 3868 C 362.418 1.76664 -0.853475 0
M  V30 3869 O 361.543 2.16357 -0.0433656 0
M  V30 3870 C 362.138 1.09066 -3.20765 0
M  V30 3871 C 360.697 1.58535 -3.41385 0
M  V30 3872 C 359.844 0.514868 -2.72478 0
M  V30 3873 H 362.795 -0.177758 -1.57701 0
M  V30 3874 H 362.816 1.95875 -3.2621 0
M  V30 3875 H 362.328 0.239521 -3.8736 0
M  V30 3876 H 360.429 2.45898 -2.79937 0
M  V30 3877 H 360.542 1.64622 -4.49929 0
M  V30 3878 H 358.906 0.965407 -2.35695 0
M  V30 3879 H 359.689 -0.32648 -3.41744 0
M  V30 3880 N 362.134 1.5431 0.320358 0
M  V30 3881 C 363.364 1.7638 1.07582 0
M  V30 3882 C 363.772 0.513944 1.82086 0
M  V30 3883 O 363.115 -0.525123 1.76035 0
M  V30 3884 C 363.177 2.9055 2.1171 0
M  V30 3885 C 362.841 4.2934 1.56575 0
M  V30 3886 C 363.838 5.10077 1.00586 0
M  V30 3887 C 361.523 4.75893 1.60722 0
M  V30 3888 C 363.517 6.35477 0.494756 0
M  V30 3889 C 361.204 6.0126 1.09224 0
M  V30 3890 C 362.202 6.80886 0.53696 0
M  V30 3891 O 361.89 8.03894 0.0297371 0
M  V30 3892 H 361.622 0.592369 0.325692 0
M  V30 3893 H 364.176 2.02019 0.37116 0
M  V30 3894 H 362.406 2.60489 2.85801 0
M  V30 3895 H 364.095 3.00373 2.73003 0
M  V30 3896 H 364.861 4.75265 0.966869 0
M  V30 3897 H 360.74 4.13957 2.02882 0
M  V30 3898 H 364.284 6.97574 0.0606842 0
M  V30 3899 H 360.181 6.35562 1.12831 0
M  V30 3900 H 360.949 8.18372 0.14486 0
M  V30 3901 N 363.613 -0.582584 1.46437 0
M  V30 3902 C 364.89 -1.34276 1.4223 0
M  V30 3903 C 365.27 -2.10835 0.10583 0
M  V30 3904 O 364.618 -2.09485 -0.912596 0
M  V30 3905 C 364.828 -2.26865 2.65204 0
M  V30 3906 C 366.176 -2.88691 3.11356 0
M  V30 3907 O 367.2 -2.37178 2.65753 0
M  V30 3908 O 366.059 -3.82255 3.90568 0
M  V30 3909 H 363.153 -0.603326 0.565621 0
M  V30 3910 H 365.699 -0.603591 1.58603 0
M  V30 3911 H 364.471 -1.69724 3.52576 0
M  V30 3912 H 364.094 -3.08122 2.5129 0
M  V30 3913 N 365.091 -1.34144 -0.827227 0
M  V30 3914 C 366.316 -1.29476 -1.62021 0
M  V30 3915 C 366.741 0.129292 -1.87655 0
M  V30 3916 O 366.099 1.08967 -1.449 0
M  V30 3917 C 366.147 -2.08702 -2.94068 0
M  V30 3918 O 365.251 -1.45359 -3.85933 0
M  V30 3919 H 364.592 -0.444881 -0.492927 0
M  V30 3920 H 367.122 -1.76882 -1.02829 0
M  V30 3921 H 367.132 -2.19898 -3.43669 0
M  V30 3922 H 365.807 -3.12241 -2.74734 0
M  V30 3923 H 364.384 -1.42879 -3.44442 0
M  V30 3924 N 366.569 1.04691 -1.17803 0
M  V30 3925 C 367.985 1.29963 -0.926379 0
M  V30 3926 C 368.185 1.97251 0.411635 0
M  V30 3927 O 367.241 2.24922 1.14744 0
M  V30 3928 C 368.554 2.16447 -2.08737 0
M  V30 3929 C 370.102 2.29814 -2.12496 0
M  V30 3930 C 370.577 3.19661 -3.27995 0
M  V30 3931 N 372.068 3.27247 -3.27816 0
M  V30 3932 C 372.803 3.96906 -4.13827 0
M  V30 3933 N 372.299 4.6895 -5.09959 0
M  V30 3934 N 374.092 3.93122 -4.01761 0
M  V30 3935 H 366.243 0.594182 -2.0392 0
M  V30 3936 H 368.506 0.324649 -0.890678 0
M  V30 3937 H 368.212 1.74304 -3.05469 0
M  V30 3938 H 368.086 3.17103 -2.04268 0
M  V30 3939 H 370.473 2.71196 -1.16347 0
M  V30 3940 H 370.554 1.2877 -2.21025 0
M  V30 3941 H 370.198 2.78991 -4.24413 0
M  V30 3942 H 370.128 4.20722 -3.16703 0
M  V30 3943 H 372.619 2.75921 -2.58217 0
M  V30 3944 H 372.932 5.19679 -5.71974 0
M  V30 3945 H 371.277 4.67875 -5.13924 0
M  V30 3946 H 374.468 3.35967 -3.2595 0
M  V30 3947 H 374.641 4.47139 -4.6901 0
M  V30 3948 N 368.047 0.979072 1.23499 0
M  V30 3949 C 369.324 0.563674 1.87302 0
M  V30 3950 C 369.704 -0.959199 1.88049 0
M  V30 3951 O 369.052 -1.83535 1.36114 0
M  V30 3952 C 369.262 1.16822 3.28867 0
M  V30 3953 C 370.61 1.26014 4.0547 0
M  V30 3954 O 371.634 1.12158 3.38082 0
M  V30 3955 O 370.493 1.48044 5.26066 0
M  V30 3956 H 367.587 0.189602 0.804972 0
M  V30 3957 H 370.133 1.07407 1.31384 0
M  V30 3958 H 368.905 2.21049 3.22883 0
M  V30 3959 H 368.528 0.642564 3.92373 0
M  V30 3960 N 369.525 -1.3858 0.750561 0
M  V30 3961 C 370.802 -1.94231 0.231009 0
M  V30 3962 C 371.182 -1.68611 -1.27018 0
M  V30 3963 O 370.53 -1.02296 -2.04323 0
M  V30 3964 C 370.74 -3.44123 0.581428 0
M  V30 3965 C 372.088 -4.2116 0.539389 0
M  V30 3966 O 373.112 -3.52391 0.519541 0
M  V30 3967 O 371.971 -5.43749 0.54765 0
M  V30 3968 H 369.065 -0.825639 0.0474263 0
M  V30 3969 H 371.611 -1.4799 0.830478 0
M  V30 3970 H 370.383 -3.56267 1.61833 0
M  V30 3971 H 370.006 -3.97573 -0.0462047 0
M  V30 3972 N 371.003 -0.499398 -1.49478 0
M  V30 3973 C 372.25 0.0456899 -2.02448 0
M  V30 3974 C 372.578 1.37142 -1.37921 0
M  V30 3975 O 371.833 1.89111 -0.503544 0
M  V30 3976 C 372.132 0.248424 -3.56536 0
M  V30 3977 C 371.798 -0.999107 -4.39692 0
M  V30 3978 C 370.46 -1.34108 -4.62135 0
M  V30 3979 C 372.812 -1.82842 -4.88076 0
M  V30 3980 C 370.14 -2.51191 -5.30208 0
M  V30 3981 C 372.492 -2.99076 -5.57437 0
M  V30 3982 C 371.156 -3.33655 -5.78127 0
M  V30 3983 H 370.426 0.0167191 -0.740811 0
M  V30 3984 H 373.073 -0.65923 -1.79795 0
M  V30 3985 H 371.378 1.03586 -3.77859 0
M  V30 3986 H 373.075 0.684605 -3.95113 0
M  V30 3987 H 369.665 -0.722729 -4.22463 0
M  V30 3988 H 373.849 -1.57737 -4.70566 0
M  V30 3989 H 369.105 -2.78221 -5.44429 0
M  V30 3990 H 373.279 -3.63664 -5.93904 0
M  V30 3991 H 370.906 -4.24483 -6.30649 0
M  V30 3992 N 372.481 1.55866 -0.233164 0
M  V30 3993 C 373.892 1.847 0.272554 0
M  V30 3994 C 374.243 1.15477 1.58617 0
M  V30 3995 O 373.368 0.42841 2.12117 0
M  V30 3996 C 373.963 3.35071 0.501299 0
M  V30 3997 C 372.522 3.6418 0.951304 0
M  V30 3998 C 371.669 2.77292 0.0208209 0
M  V30 3999 H 374.62 1.52005 -0.456074 0
M  V30 4000 H 374.641 3.55906 1.34577 0
M  V30 4001 H 374.153 3.85424 -0.454936 0
M  V30 4002 H 372.254 3.19293 1.92049 0
M  V30 4003 H 372.367 4.72071 0.817675 0
M  V30 4004 H 370.731 2.49131 0.529723 0
M  V30 4005 H 371.514 3.30448 -0.93054 0
M  V30 4006 N 373.959 -0.0401083 1.57549 0
M  V30 4007 C 374.889 -1.04384 2.08869 0
M  V30 4008 C 375.87 -1.38407 0.988817 0
M  V30 4009 O 377.055 -1.47483 1.26342 0
M  V30 4010 C 374.185 -2.34808 2.55895 0
M  V30 4011 C 373.139 -2.15057 3.70047 0
M  V30 4012 C 372.465 -3.51145 4.03239 0
M  V30 4013 C 373.765 -1.54576 4.98902 0
M  V30 4014 H 375.459 -0.616666 2.92981 0
M  V30 4015 H 373.005 -0.295184 1.40942 0
M  V30 4016 H 374.958 -3.05346 2.90417 0
M  V30 4017 H 373.682 -2.79565 1.68853 0
M  V30 4018 H 372.341 -1.46954 3.35857 0
M  V30 4019 H 371.989 -3.93529 3.13279 0
M  V30 4020 H 371.689 -3.38758 4.80122 0
M  V30 4021 H 373.213 -4.23062 4.40285 0
M  V30 4022 H 374.627 -2.15017 5.31451 0
M  V30 4023 H 373.024 -1.52796 5.80322 0
M  V30 4024 H 374.094 -0.51039 4.82206 0
M  V30 4025 N 375.437 -1.54477 -0.31217 0
M  V30 4026 C 376.853 -1.45442 -0.657185 0
M  V30 4027 C 377.053 -0.63653 -1.91182 0
M  V30 4028 O 376.109 -0.139815 -2.52113 0
M  V30 4029 C 377.422 -2.89287 -0.82058 0
M  V30 4030 C 378.97 -2.9926 -0.917188 0
M  V30 4031 C 379.445 -4.44279 -1.11267 0
M  V30 4032 N 380.936 -4.4794 -1.17914 0
M  V30 4033 C 381.671 -5.57318 -1.34848 0
M  V30 4034 N 381.167 -6.76642 -1.48752 0
M  V30 4035 N 382.96 -5.44986 -1.37647 0
M  V30 4036 H 375.111 -2.06129 0.512313 0
M  V30 4037 H 377.374 -0.933088 0.167485 0
M  V30 4038 H 377.08 -3.51687 0.0302604 0
M  V30 4039 H 376.954 -3.36061 -1.71298 0
M  V30 4040 H 379.341 -2.36981 -1.75852 0
M  V30 4041 H 379.422 -2.558 -0.00101257 0
M  V30 4042 H 379.066 -5.07149 -0.27614 0
M  V30 4043 H 378.996 -4.85359 -2.04289 0
M  V30 4044 H 381.487 -3.61969 -1.08567 0
M  V30 4045 H 381.8 -7.55758 -1.61397 0
M  V30 4046 H 380.145 -6.79529 -1.45828 0
M  V30 4047 H 383.336 -4.50715 -1.26388 0
M  V30 4048 H 383.509 -6.3028 -1.50501 0
M  V30 4049 N 376.915 0.57481 -1.46744 0
M  V30 4050 C 377.862 1.68329 -1.57905 0
M  V30 4051 C 378.832 1.60625 -0.422927 0
M  V30 4052 O 380.017 1.79721 -0.640711 0
M  V30 4053 C 377.157 3.06665 -1.58274 0
M  V30 4054 C 376.27 3.24935 -2.84678 0
M  V30 4055 C 375.405 4.53566 -2.76499 0
M  V30 4056 C 374.444 4.65207 -3.97806 0
M  V30 4057 N 373.581 5.85172 -3.87967 0
M  V30 4058 H 378.421 1.58127 -2.52587 0
M  V30 4059 H 375.958 0.770552 -1.25303 0
M  V30 4060 H 377.916 3.86745 -1.56473 0
M  V30 4061 H 376.546 3.15745 -0.671194 0
M  V30 4062 H 375.598 2.38405 -2.96424 0
M  V30 4063 H 376.91 3.29403 -3.7456 0
M  V30 4064 H 376.064 5.41885 -2.72848 0
M  V30 4065 H 374.803 4.51548 -1.8427 0
M  V30 4066 H 373.808 3.75304 -4.0178 0
M  V30 4067 H 375.033 4.68997 -4.9114 0
M  V30 4068 H 372.979 5.84137 -2.98529 0
M  V30 4069 H 372.896 5.90943 -4.71511 0
M  V30 4070 H 374.164 6.759 -3.88303 0
M  V30 4071 N 378.394 1.34581 0.820102 0
M  V30 4072 C 379.622 1.3018 1.60813 0
M  V30 4073 C 380.037 -0.123551 1.88395 0
M  V30 4074 O 379.394 -1.07148 1.47735 0
M  V30 4075 C 379.445 2.09312 2.94739 0
M  V30 4076 O 379.166 3.46288 2.68358 0
M  V30 4077 C 380.667 2.1234 3.89136 0
M  V30 4078 H 377.887 0.447726 0.499782 0
M  V30 4079 H 380.431 1.77237 1.02017 0
M  V30 4080 H 378.586 1.65889 3.50085 0
M  V30 4081 H 379 3.87227 3.53774 0
M  V30 4082 H 380.474 2.72126 4.80262 0
M  V30 4083 H 380.951 1.11854 4.24718 0
M  V30 4084 H 381.557 2.55864 3.39726 0
M  V30 4085 N 379.872 -1.04064 1.18357 0
M  V30 4086 C 380.835 -2.10243 0.912707 0
M  V30 4087 C 381.835 -1.60477 -0.101928 0
M  V30 4088 O 383.025 -1.73703 0.131517 0
M  V30 4089 C 380.157 -3.38893 0.369387 0
M  V30 4090 H 381.35 -2.35706 1.85426 0
M  V30 4091 H 378.903 -1.20489 0.995594 0
M  V30 4092 H 379.638 -3.19094 -0.578776 0
M  V30 4093 H 379.423 -3.76331 1.1008 0
M  V30 4094 H 380.913 -4.17128 0.198575 0
M  V30 4095 N 381.35 -0.985608 -1.22978 0
M  V30 4096 C 382.575 -0.675254 -1.961 0
M  V30 4097 C 383 0.752154 -1.72407 0
M  V30 4098 O 382.358 1.5131 -0.998751 0
M  V30 4099 C 382.406 -0.977899 -3.47087 0
M  V30 4100 O 381.51 -0.072685 -4.12336 0
M  V30 4101 H 380.851 -0.253443 -0.613728 0
M  V30 4102 H 383.381 -1.32061 -1.56272 0
M  V30 4103 H 383.391 -0.916739 -3.97567 0
M  V30 4104 H 382.066 -2.01807 -3.63657 0
M  V30 4105 H 380.643 -0.188703 -3.72422 0
M  V30 4106 N 382.828 1.3818 -0.7579 0
M  V30 4107 C 383.738 2.3421 -0.135247 0
M  V30 4108 C 384.754 1.59487 0.695683 0
M  V30 4109 O 385.93 1.91657 0.618832 0
M  V30 4110 C 382.995 3.3862 0.744139 0
M  V30 4111 C 382.056 4.2918 -0.101658 0
M  V30 4112 C 381.289 5.28603 0.735851 0
M  V30 4113 O 381.512 5.35166 1.97366 0
M  V30 4114 O 380.446 6.01707 0.152372 0
M  V30 4115 H 384.272 2.8916 -0.928436 0
M  V30 4116 H 381.857 1.40101 -0.518855 0
M  V30 4117 H 383.739 4.02539 1.2466 0
M  V30 4118 H 382.414 2.86019 1.51575 0
M  V30 4119 H 381.321 3.68407 -0.650167 0
M  V30 4120 H 382.654 4.85048 -0.836024 0
M  V30 4121 N 384.306 0.507319 1.49211 0
M  V30 4122 C 385.717 0.0611118 1.866 0
M  V30 4123 C 386.068 -1.35488 1.41907 0
M  V30 4124 O 385.193 -2.0108 0.799726 0
M  V30 4125 C 385.788 0.104125 3.3864 0
M  V30 4126 C 384.347 -0.28677 3.75306 0
M  V30 4127 C 383.494 0.473893 2.73221 0
M  V30 4128 H 386.445 0.719775 1.41439 0
M  V30 4129 H 386.466 -0.689672 3.74198 0
M  V30 4130 H 385.978 1.13482 3.71138 0
M  V30 4131 H 384.079 -1.32046 3.48417 0
M  V30 4132 H 384.192 0.0370745 4.79086 0
M  V30 4133 H 382.556 -0.0770644 2.54583 0
M  V30 4134 H 383.339 1.50478 3.08563 0
M  V30 4135 N 385.784 -1.5574 0.241426 0
M  V30 4136 C 386.732 -2.22538 -0.676718 0
M  V30 4137 C 387.726 -1.21117 -1.18436 0
M  V30 4138 O 388.932 -1.39144 -1.14188 0
M  V30 4139 H 385.307 -0.713776 -0.236701 0
M  V30 4140 H 387.278 -2.98264 -0.0901187 0
M  V30 4141 C 386.027 -2.93439 -1.86518 0
M  V30 4142 H 385.35 -3.7125 -1.4837 0
M  V30 4143 H 386.79 -3.43549 -2.48495 0
M  V30 4144 C 385.249 -1.97008 -2.73294 0
M  V30 4145 O 385.779 -1.49965 -3.72657 0
M  V30 4146 N 383.985 -1.64227 -2.39745 0
M  V30 4147 H 383.532 -2.02677 -1.58996 0
M  V30 4148 H 383.49 -0.999708 -2.98083 0
M  V30 4149 N 387.262 0.0317525 -1.57568 0
M  V30 4150 C 388.192 1.03274 -2.0942 0
M  V30 4151 C 389.173 1.3788 -0.996143 0
M  V30 4152 O 390.358 1.46811 -1.27122 0
M  V30 4153 C 387.488 2.33448 -2.57137 0
M  V30 4154 C 386.442 2.13091 -3.71182 0
M  V30 4155 C 385.768 3.49001 -4.05095 0
M  V30 4156 C 387.068 1.51928 -4.99715 0
M  V30 4157 H 388.762 0.60112 -2.93303 0
M  V30 4158 H 386.308 0.287705 -1.41097 0
M  V30 4159 H 388.261 3.03802 -2.92032 0
M  V30 4160 H 386.985 2.78665 -1.70333 0
M  V30 4161 H 385.644 1.45171 -3.36632 0
M  V30 4162 H 385.292 3.91862 -3.15362 0
M  V30 4163 H 384.992 3.36207 -4.81911 0
M  V30 4164 H 386.516 4.20721 -4.42522 0
M  V30 4165 H 387.93 2.12196 -5.32584 0
M  V30 4166 H 386.327 1.49716 -5.81124 0
M  V30 4167 H 387.397 0.484811 -4.8247 0
M  V30 4168 N 388.74 1.54641 0.303973 0
M  V30 4169 C 389.687 1.85386 1.37479 0
M  V30 4170 C 390.657 0.702528 1.50512 0
M  V30 4171 O 391.842 0.950867 1.65418 0
M  V30 4172 C 388.982 2.10413 2.73533 0
M  V30 4173 C 388.095 3.38049 2.68974 0
M  V30 4174 C 387.23 3.52934 3.97002 0
M  V30 4175 C 386.269 4.74373 3.86829 0
M  V30 4176 N 385.406 4.8608 5.06627 0
M  V30 4177 H 390.246 2.76732 1.1056 0
M  V30 4178 H 387.783 1.37034 0.534805 0
M  V30 4179 H 389.741 2.22919 3.52652 0
M  V30 4180 H 388.371 1.22338 2.98719 0
M  V30 4181 H 387.423 3.3418 1.81736 0
M  V30 4182 H 388.735 4.27288 2.57346 0
M  V30 4183 H 387.889 3.65088 4.84557 0
M  V30 4184 H 386.628 2.61824 4.1146 0
M  V30 4185 H 385.633 4.62255 2.97658 0
M  V30 4186 H 386.858 5.66888 3.73918 0
M  V30 4187 H 384.804 3.97891 5.21554 0
M  V30 4188 H 384.721 5.69315 4.9741 0
M  V30 4189 H 385.989 5.02587 5.95841 0
M  V30 4190 N 390.218 -0.567019 1.47046 0
M  V30 4191 C 391.464 -1.32658 1.53394 0
M  V30 4192 C 391.797 -1.93254 0.19148 0
M  V30 4193 O 391.072 -1.77338 -0.798844 0
M  V30 4194 C 391.355 -2.44412 2.64452 0
M  V30 4195 C 391.208 -1.88749 4.08282 0
M  V30 4196 C 392.527 -3.46387 2.71485 0
M  V30 4197 H 389.646 -0.48098 0.558415 0
M  V30 4198 H 392.288 -0.635481 1.79058 0
M  V30 4199 H 390.438 -3.03363 2.427 0
M  V30 4200 H 392.11 -1.34134 4.41368 0
M  V30 4201 H 390.353 -1.19481 4.17021 0
M  V30 4202 H 391.024 -2.69491 4.81745 0
M  V30 4203 H 393.5 -2.9734 2.91081 0
M  V30 4204 H 392.376 -4.2202 3.50985 0
M  V30 4205 H 392.637 -4.04616 1.78153 0
M  V30 4206 N 391.696 -1.35014 -0.812953 0
M  V30 4207 C 393.112 -1.14914 -1.10757 0
M  V30 4208 C 393.312 0.0426818 -2.01455 0
M  V30 4209 O 392.368 0.715212 -2.42159 0
M  V30 4210 C 393.681 -2.44911 -1.74468 0
M  V30 4211 C 395.229 -2.5106 -1.86917 0
M  V30 4212 C 395.704 -3.81085 -2.54044 0
M  V30 4213 N 397.195 -3.82301 -2.61535 0
M  V30 4214 C 397.93 -4.79634 -3.14227 0
M  V30 4215 N 397.426 -5.87353 -3.67407 0
M  V30 4216 N 399.219 -4.67078 -3.12721 0
M  V30 4217 H 391.37 -2.1136 -0.20989 0
M  V30 4218 H 393.633 -0.935128 -0.155692 0
M  V30 4219 H 393.339 -3.32267 -1.15289 0
M  V30 4220 H 393.213 -2.58989 -2.74234 0
M  V30 4221 H 395.6 -1.64137 -2.45241 0
M  V30 4222 H 395.681 -2.40901 -0.860242 0
M  V30 4223 H 395.325 -4.68402 -1.96372 0
M  V30 4224 H 395.255 -3.88529 -3.55461 0
M  V30 4225 H 397.746 -3.04465 -2.23851 0
M  V30 4226 H 398.059 -6.57624 -4.05894 0
M  V30 4227 H 396.404 -5.91054 -3.65623 0
M  V30 4228 H 399.595 -3.82067 -2.70449 0
M  V30 4229 H 399.768 -5.43098 -3.53481 0
M  V30 4230 N 393.175 1.03435 -1.18907 0
M  V30 4231 C 394.4 1.80919 -1.01406 0
M  V30 4232 C 394.825 1.83055 0.432721 0
M  V30 4233 O 394.183 1.25252 1.31079 0
M  V30 4234 C 394.231 3.24091 -1.58105 0
M  V30 4235 O 393.335 4.04434 -0.806669 0
M  V30 4236 H 392.676 0.558709 -0.358803 0
M  V30 4237 H 395.206 1.30223 -1.57807 0
M  V30 4238 H 395.216 3.74853 -1.61087 0
M  V30 4239 H 393.891 3.21851 -2.6341 0
M  V30 4240 H 392.468 3.63091 -0.849666 0
M  V30 4241 N 394.653 0.992116 1.22453 0
M  V30 4242 C 396.069 0.702713 1.43297 0
M  V30 4243 C 396.269 -0.726909 1.87932 0
M  V30 4244 O 395.325 -1.49792 2.0327 0
M  V30 4245 C 396.638 1.70762 2.47509 0
M  V30 4246 C 398.186 1.72298 2.61309 0
M  V30 4247 C 398.661 2.71649 3.68742 0
M  V30 4248 N 400.152 2.70239 3.76199 0
M  V30 4249 C 400.887 3.43778 4.58917 0
M  V30 4250 N 400.383 4.26914 5.45633 0
M  V30 4251 N 402.176 3.32487 4.5322 0
M  V30 4252 H 394.327 1.91543 0.917871 0
M  V30 4253 H 396.59 0.826031 0.465162 0
M  V30 4254 H 396.296 2.73059 2.21657 0
M  V30 4255 H 396.17 1.49985 3.46099 0
M  V30 4256 H 398.557 0.706989 2.86506 0
M  V30 4257 H 398.638 1.97143 1.62997 0
M  V30 4258 H 398.282 3.73397 3.44292 0
M  V30 4259 H 398.212 2.44074 4.66622 0
M  V30 4260 H 400.703 2.09912 3.14237 0
M  V30 4261 H 401.016 4.79855 6.05771 0
M  V30 4262 H 399.361 4.31002 5.45218 0
M  V30 4263 H 402.552 2.6698 3.84499 0
M  V30 4264 H 402.725 3.90058 5.17454 0
M  V30 4265 N 396.131 -1.37776 0.765217 0
M  V30 4266 C 397.061 -2.32945 0.160953 0
M  V30 4267 C 398.042 -1.55454 -0.690516 0
M  V30 4268 O 399.227 -1.83721 -0.629318 0
M  V30 4269 C 396.357 -3.39669 -0.724031 0
M  V30 4270 C 395.311 -4.27992 0.0256173 0
M  V30 4271 C 394.637 -5.25673 -0.978383 0
M  V30 4272 C 395.937 -5.08309 1.20082 0
M  V30 4273 H 397.631 -2.83728 0.955969 0
M  V30 4274 H 395.177 -1.36416 0.461149 0
M  V30 4275 H 397.13 -4.05219 -1.15652 0
M  V30 4276 H 395.854 -2.87396 -1.5515 0
M  V30 4277 H 394.513 -3.63964 0.438812 0
M  V30 4278 H 394.161 -4.69682 -1.80022 0
M  V30 4279 H 393.861 -5.85625 -0.481378 0
M  V30 4280 H 395.385 -5.94098 -1.40995 0
M  V30 4281 H 396.799 -5.67034 0.845307 0
M  V30 4282 H 395.196 -5.77554 1.62947 0
M  V30 4283 H 396.266 -4.41365 2.00811 0
M  V30 4284 N 397.609 -0.515225 -1.4894 0
M  V30 4285 C 398.556 0.255567 -2.29381 0
M  V30 4286 C 399.526 0.947387 -1.36432 0
M  V30 4287 O 400.711 0.951288 -1.65394 0
M  V30 4288 C 397.851 1.30551 -3.19453 0
M  V30 4289 C 396.964 0.624029 -4.27469 0
M  V30 4290 C 396.099 1.65563 -5.0474 0
M  V30 4291 C 395.138 0.956802 -6.04576 0
M  V30 4292 N 394.275 1.93326 -6.74959 0
M  V30 4293 H 399.115 -0.436607 -2.94784 0
M  V30 4294 H 396.652 -0.227154 -1.45336 0
M  V30 4295 H 398.61 1.92639 -3.70062 0
M  V30 4296 H 397.24 1.96626 -2.56004 0
M  V30 4297 H 396.292 -0.110459 -3.8024 0
M  V30 4298 H 397.604 0.0746092 -4.98744 0
M  V30 4299 H 396.758 2.35119 -5.59289 0
M  V30 4300 H 395.497 2.23893 -4.3327 0
M  V30 4301 H 394.502 0.247097 -5.49244 0
M  V30 4302 H 395.727 0.379814 -6.78037 0
M  V30 4303 H 393.673 2.50591 -6.06251 0
M  V30 4304 H 393.59 1.43489 -7.42258 0
M  V30 4305 H 394.858 2.62126 -7.34105 0
M  V30 4306 N 399.087 1.5561 -0.249682 0
M  V30 4307 C 400.019 2.18834 0.681496 0
M  V30 4308 C 401.032 1.16546 1.1367 0
M  V30 4309 O 402.221 1.43397 1.06299 0
M  V30 4310 C 399.321 2.77992 1.9384 0
M  V30 4311 C 398.494 4.05725 1.63419 0
M  V30 4312 C 397.553 4.49174 2.74096 0
M  V30 4313 O 396.579 5.15492 2.41364 0
M  V30 4314 N 397.781 4.17191 4.03649 0
M  V30 4315 H 400.546 2.9937 0.140514 0
M  V30 4316 H 398.107 1.6175 -0.0697541 0
M  V30 4317 H 400.099 3.04015 2.67127 0
M  V30 4318 H 398.669 2.01596 2.38909 0
M  V30 4319 H 397.889 3.87261 0.736358 0
M  V30 4320 H 399.177 4.88999 1.40562 0
M  V30 4321 H 398.575 3.63955 4.33074 0
M  V30 4322 H 397.132 4.48043 4.73393 0
M  V30 4323 N 400.565 -0.0233959 1.57583 0
M  V30 4324 C 401.512 -1.02224 2.06927 0
M  V30 4325 C 402.482 -1.35575 0.959617 0
M  V30 4326 O 403.667 -1.45815 1.23055 0
M  V30 4327 C 400.807 -2.31636 2.5581 0
M  V30 4328 C 399.92 -2.04394 3.80588 0
M  V30 4329 C 399.055 -3.27717 4.18061 0
M  V30 4330 C 398.094 -2.96056 5.3574 0
M  V30 4331 N 397.231 -4.11847 5.68618 0
M  V30 4332 H 402.071 -0.594504 2.9201 0
M  V30 4333 H 399.608 -0.281921 1.44373 0
M  V30 4334 H 401.566 -3.07258 2.82221 0
M  V30 4335 H 400.196 -2.72122 1.73636 0
M  V30 4336 H 399.248 -1.19244 3.61227 0
M  V30 4337 H 400.56 -1.77042 4.66323 0
M  V30 4338 H 399.714 -4.11702 4.4563 0
M  V30 4339 H 398.453 -3.58188 3.30988 0
M  V30 4340 H 397.458 -2.10474 5.07918 0
M  V30 4341 H 398.683 -2.66857 6.24471 0
M  V30 4342 H 396.629 -4.42258 4.84504 0
M  V30 4343 H 396.546 -3.87938 6.48876 0
M  V30 4344 H 397.814 -4.96689 6.00766 0
M  V30 4345 N 402.043 -1.548 -0.295768 0
M  V30 4346 C 403.289 -1.74588 -1.03184 0
M  V30 4347 C 403.622 -0.532962 -1.86744 0
M  V30 4348 O 402.897 0.469872 -1.88739 0
M  V30 4349 C 403.18 -3.03791 -1.93347 0
M  V30 4350 C 403.033 -4.35392 -1.12933 0
M  V30 4351 C 404.352 -3.28892 -2.92435 0
M  V30 4352 H 401.471 -0.635221 -0.373715 0
M  V30 4353 H 404.113 -1.87519 -0.30606 0
M  V30 4354 H 402.263 -2.92898 -2.55232 0
M  V30 4355 H 403.935 -4.58211 -0.532943 0
M  V30 4356 H 402.178 -4.31642 -0.432168 0
M  V30 4357 H 402.849 -5.22074 -1.79284 0
M  V30 4358 H 405.325 -3.39429 -2.4068 0
M  V30 4359 H 404.201 -4.20603 -3.52682 0
M  V30 4360 H 404.462 -2.47437 -3.6637 0
M  V30 4361 N 403.521 0.559213 -1.47345 0
M  V30 4362 C 404.484 1.64854 -1.59235 0
M  V30 4363 C 405.484 1.53851 -0.467607 0
M  V30 4364 O 406.674 1.58045 -0.732617 0
M  V30 4365 C 403.806 3.04388 -1.53496 0
M  V30 4366 H 404.999 1.55662 -2.56339 0
M  V30 4367 H 402.552 0.778973 -1.35505 0
M  V30 4368 H 403.287 3.19115 -0.577604 0
M  V30 4369 H 403.072 3.13783 -2.35123 0
M  V30 4370 H 404.562 3.83642 -1.6495 0
M  V30 4371 N 404.999 1.35443 0.805782 0
M  V30 4372 C 405.909 1.30546 1.94923 0
M  V30 4373 C 406.925 0.210233 1.72725 0
M  V30 4374 O 408.101 0.43975 1.9654 0
M  V30 4375 C 405.166 1.07782 3.29521 0
M  V30 4376 C 404.227 2.26625 3.64609 0
M  V30 4377 C 403.46 2.04938 4.92784 0
M  V30 4378 O 403.683 1.01624 5.61274 0
M  V30 4379 O 402.617 2.9232 5.26149 0
M  V30 4380 H 406.443 2.26779 2.02002 0
M  V30 4381 H 404.028 1.15823 0.943682 0
M  V30 4382 H 405.91 0.969392 4.10098 0
M  V30 4383 H 404.585 0.146003 3.23371 0
M  V30 4384 H 403.492 2.43033 2.84404 0
M  V30 4385 H 404.825 3.18257 3.75464 0
M  V30 4386 N 406.477 -1.02803 1.19454 0
M  V30 4387 C 407.893 -1.28473 0.946937 0
M  V30 4388 C 408.093 -1.97881 -0.380202 0
M  V30 4389 O 407.149 -2.26719 -1.11151 0
M  V30 4390 C 408.462 -2.13099 2.12154 0
M  V30 4391 C 410.01 -2.26404 2.16126 0
M  V30 4392 C 410.485 -3.14402 3.33039 0
M  V30 4393 N 411.976 -3.21991 3.32981 0
M  V30 4394 C 412.711 -3.90272 4.20089 0
M  V30 4395 N 412.207 -4.60777 5.17355 0
M  V30 4396 N 414 -3.8668 4.07964 0
M  V30 4397 H 406.151 -0.561665 2.04839 0
M  V30 4398 H 408.414 -0.310438 0.89573 0
M  V30 4399 H 408.12 -1.69422 3.08203 0
M  V30 4400 H 407.994 -3.13813 2.09287 0
M  V30 4401 H 410.381 -2.69311 1.20647 0
M  V30 4402 H 410.462 -1.25237 2.23045 0
M  V30 4403 H 410.106 -2.72204 4.28798 0
M  V30 4404 H 410.036 -4.1563 3.23356 0
M  V30 4405 H 412.527 -2.71778 2.62574 0
M  V30 4406 H 412.84 -5.10513 5.80169 0
M  V30 4407 H 411.185 -4.5964 5.21302 0
M  V30 4408 H 414.376 -3.30739 3.31254 0
M  V30 4409 H 414.549 -4.39621 4.76064 0
M  V30 4410 N 407.956 -0.998596 -1.21925 0
M  V30 4411 C 409.372 -0.710303 -1.42923 0
M  V30 4412 C 409.572 0.716933 -1.88314 0
M  V30 4413 O 408.628 1.48712 -2.04062 0
M  V30 4414 C 409.941 -1.72072 -2.466 0
M  V30 4415 C 411.489 -1.73681 -2.60392 0
M  V30 4416 C 411.964 -2.73601 -3.67296 0
M  V30 4417 N 413.455 -2.7223 -3.7476 0
M  V30 4418 C 414.19 -3.46206 -4.57087 0
M  V30 4419 N 413.686 -4.29802 -5.43362 0
M  V30 4420 N 415.479 -3.34886 -4.51451 0
M  V30 4421 H 407.63 -1.92028 -0.9077 0
M  V30 4422 H 409.893 -0.828487 -0.460775 0
M  V30 4423 H 409.599 -2.74231 -2.20206 0
M  V30 4424 H 409.473 -1.51818 -3.45299 0
M  V30 4425 H 411.86 -0.722173 -2.86127 0
M  V30 4426 H 411.941 -1.98005 -1.61949 0
M  V30 4427 H 411.585 -3.75217 -3.42307 0
M  V30 4428 H 411.515 -2.46545 -4.65321 0
M  V30 4429 H 414.006 -2.11576 -3.1312 0
M  V30 4430 H 414.319 -4.83061 -6.03218 0
M  V30 4431 H 412.664 -4.33887 -5.42925 0
M  V30 4432 H 415.855 -2.69015 -3.83078 0
M  V30 4433 H 416.028 -3.92796 -5.15379 0
M  V30 4434 N 409.434 1.37368 -0.772513 0
M  V30 4435 C 410.659 2.0447 -0.347386 0
M  V30 4436 C 411.084 1.57882 1.0225 0
M  V30 4437 O 410.442 0.73941 1.65537 0
M  V30 4438 C 410.49 3.58369 -0.400479 0
M  V30 4439 O 409.594 4.0803 0.598789 0
M  V30 4440 H 408.935 0.646773 -0.15027 0
M  V30 4441 H 411.465 1.75667 -1.04892 0
M  V30 4442 H 411.475 4.07183 -0.258045 0
M  V30 4443 H 410.15 3.91633 -1.39986 0
M  V30 4444 H 408.727 3.70534 0.419411 0
M  V30 4445 N 410.912 0.523116 1.48665 0
M  V30 4446 C 412.137 -0.0117284 2.07397 0
M  V30 4447 C 412.562 -1.28031 1.37803 0
M  V30 4448 O 411.92 -1.75836 0.441762 0
M  V30 4449 C 411.968 -0.225786 3.59892 0
M  V30 4450 O 411.072 -1.29592 3.91509 0
M  V30 4451 H 410.413 0.0360673 0.66302 0
M  V30 4452 H 412.943 0.729066 1.9117 0
M  V30 4453 H 412.953 -0.450552 4.05505 0
M  V30 4454 H 411.628 0.700944 4.09951 0
M  V30 4455 H 410.205 -1.05436 3.57684 0
M  V30 4456 N 412.39 -1.55475 0.257931 0
M  V30 4457 C 413.801 -1.8511 -0.243135 0
M  V30 4458 C 414.152 -1.17986 -1.5676 0
M  V30 4459 O 413.277 -0.462102 -2.11409 0
M  V30 4460 C 413.872 -3.35826 -0.447929 0
M  V30 4461 C 412.431 -3.65647 -0.893245 0
M  V30 4462 C 411.578 -2.7729 0.0232965 0
M  V30 4463 H 414.529 -1.51261 0.480199 0
M  V30 4464 H 414.55 -3.58002 -1.28898 0
M  V30 4465 H 414.062 -3.84652 0.516196 0
M  V30 4466 H 412.163 -3.22308 -1.86945 0
M  V30 4467 H 412.276 -4.73312 -0.742469 0
M  V30 4468 H 410.64 -2.49942 -0.490021 0
M  V30 4469 H 411.423 -3.28926 0.982994 0
M  V30 4470 N 413.868 0.0150385 -1.57593 0
M  V30 4471 C 414.798 1.01047 -2.10503 0
M  V30 4472 C 415.779 1.36816 -1.01071 0
M  V30 4473 O 416.964 1.45455 -1.28672 0
M  V30 4474 C 414.094 2.30708 -2.59598 0
M  V30 4475 C 413.048 2.09142 -3.73421 0
M  V30 4476 C 412.374 3.44685 -4.08774 0
M  V30 4477 C 413.674 1.46619 -5.01298 0
M  V30 4478 H 415.368 0.569978 -2.93925 0
M  V30 4479 H 412.914 0.272724 -1.41394 0
M  V30 4480 H 414.867 3.00687 -2.95238 0
M  V30 4481 H 413.591 2.76843 -1.73279 0
M  V30 4482 H 412.25 1.41592 -3.38153 0
M  V30 4483 H 411.898 3.88495 -3.195 0
M  V30 4484 H 411.598 3.31077 -4.8545 0
M  V30 4485 H 413.122 4.16004 -4.4696 0
M  V30 4486 H 414.536 2.06535 -5.34805 0
M  V30 4487 H 412.933 1.43544 -5.82679 0
M  V30 4488 H 414.003 0.433611 -4.82957 0
M  V30 4489 N 415.346 1.54954 0.287554 0
M  V30 4490 C 416.276 1.89839 1.35954 0
M  V30 4491 C 417.257 0.758675 1.52244 0
M  V30 4492 O 418.442 1.01557 1.65529 0
M  V30 4493 C 415.572 2.15753 2.72154 0
M  V30 4494 C 414.526 3.3159 2.70614 0
M  V30 4495 C 413.852 3.42952 4.10229 0
M  V30 4496 C 415.152 4.68359 2.31165 0
M  V30 4497 H 416.846 2.79625 1.07007 0
M  V30 4498 H 414.392 1.3454 0.513316 0
M  V30 4499 H 416.345 2.38743 3.47246 0
M  V30 4500 H 415.069 1.22752 3.02654 0
M  V30 4501 H 413.728 3.08545 1.97979 0
M  V30 4502 H 413.376 2.47443 4.37928 0
M  V30 4503 H 413.076 4.20826 4.10097 0
M  V30 4504 H 414.6 3.68218 4.87081 0
M  V30 4505 H 416.014 4.9099 2.95976 0
M  V30 4506 H 414.411 5.49044 2.42221 0
M  V30 4507 H 415.481 4.68165 1.26291 0
M  V30 4508 N 416.824 -0.551391 1.4764 0
M  V30 4509 C 418.24 -0.877887 1.33287 0
M  V30 4510 C 418.44 -1.98817 0.327721 0
M  V30 4511 O 417.496 -2.51171 -0.258695 0
M  V30 4512 C 418.809 -1.26563 2.72768 0
M  V30 4513 C 420.357 -1.37673 2.81097 0
M  V30 4514 C 420.832 -1.79799 4.21232 0
M  V30 4515 N 422.323 -1.8694 4.23802 0
M  V30 4516 C 423.058 -2.20876 5.29151 0
M  V30 4517 N 422.554 -2.53386 6.448 0
M  V30 4518 N 424.347 -2.217 5.16532 0
M  V30 4519 H 416.498 0.18153 2.11623 0
M  V30 4520 H 418.761 0.0185514 0.947818 0
M  V30 4521 H 418.467 -0.523591 3.47781 0
M  V30 4522 H 418.341 -2.22052 3.04915 0
M  V30 4523 H 420.728 -2.10956 2.06353 0
M  V30 4524 H 420.809 -0.40357 2.52596 0
M  V30 4525 H 420.453 -1.07083 4.96483 0
M  V30 4526 H 420.383 -2.78128 4.4716 0
M  V30 4527 H 422.874 -1.64179 3.40373 0
M  V30 4528 H 423.187 -2.78325 7.20941 0
M  V30 4529 H 421.532 -2.50953 6.48111 0
M  V30 4530 H 424.723 -1.95745 4.25207 0
M  V30 4531 H 424.896 -2.47818 5.98741 0
M  V30 4532 N 418.302 -1.35869 -0.798587 0
M  V30 4533 C 419.718 -1.16082 -1.09532 0
M  V30 4534 C 419.918 0.0213124 -2.01489 0
M  V30 4535 O 418.974 0.689488 -2.42904 0
M  V30 4536 C 420.287 -2.46748 -1.7186 0
M  V30 4537 C 421.835 -2.53028 -1.84244 0
M  V30 4538 C 422.31 -3.83758 -2.49988 0
M  V30 4539 N 423.801 -3.85053 -2.57465 0
M  V30 4540 C 424.536 -4.8294 -3.09122 0
M  V30 4541 N 424.032 -5.91217 -3.61157 0
M  V30 4542 N 425.825 -4.70369 -3.0775 0
M  V30 4543 H 417.976 -2.11571 -0.187461 0
M  V30 4544 H 420.239 -0.936726 -0.145765 0
M  V30 4545 H 419.945 -3.33471 -1.11759 0
M  V30 4546 H 419.819 -2.61883 -2.71472 0
M  V30 4547 H 422.206 -1.66729 -2.43486 0
M  V30 4548 H 422.287 -2.418 -0.834643 0
M  V30 4549 H 421.931 -4.70459 -1.91393 0
M  V30 4550 H 421.861 -3.92278 -3.5132 0
M  V30 4551 H 424.352 -3.06822 -2.20609 0
M  V30 4552 H 424.665 -6.61892 -3.98896 0
M  V30 4553 H 423.01 -5.94899 -3.59333 0
M  V30 4554 H 426.201 -3.84914 -2.66381 0
M  V30 4555 H 426.374 -5.46816 -3.47701 0
M  V30 4556 N 419.78 1.02168 -1.19998 0
M  V30 4557 C 420.727 2.10601 -0.944228 0
M  V30 4558 C 421.697 1.65639 0.123664 0
M  V30 4559 O 422.882 1.9079 -0.0199941 0
M  V30 4560 C 420.022 3.41504 -0.496865 0
M  V30 4561 C 419.135 3.99973 -1.63234 0
M  V30 4562 C 418.27 5.18915 -1.13579 0
M  V30 4563 C 417.309 5.69456 -2.24468 0
M  V30 4564 N 416.446 6.79665 -1.76068 0
M  V30 4565 H 421.286 2.31814 -1.8726 0
M  V30 4566 H 418.823 1.13686 -0.933483 0
M  V30 4567 H 420.781 4.16626 -0.218843 0
M  V30 4568 H 419.411 3.2038 0.394508 0
M  V30 4569 H 418.463 3.21997 -2.0254 0
M  V30 4570 H 419.775 4.33492 -2.46752 0
M  V30 4571 H 418.929 6.01222 -0.813429 0
M  V30 4572 H 417.668 4.8695 -0.270434 0
M  V30 4573 H 416.673 4.85757 -2.57526 0
M  V30 4574 H 417.898 6.03459 -3.11472 0
M  V30 4575 H 415.844 6.49538 -0.918516 0
M  V30 4576 H 415.761 7.12349 -2.5317 0
M  V30 4577 H 417.029 7.65549 -1.46817 0
M  V30 4578 N 421.258 1.00505 1.21394 0
M  V30 4579 C 422.535 0.603277 1.86064 0
M  V30 4580 C 422.915 -0.919095 1.90042 0
M  V30 4581 O 422.263 -1.80607 1.39977 0
M  V30 4582 C 422.473 1.23772 3.26315 0
M  V30 4583 C 423.821 1.34586 4.02705 0
M  V30 4584 O 424.845 1.19304 3.35626 0
M  V30 4585 O 423.704 1.59169 5.22807 0
M  V30 4586 H 420.798 0.206634 0.800769 0
M  V30 4587 H 423.344 1.1017 1.29076 0
M  V30 4588 H 422.116 2.27848 3.18121 0
M  V30 4589 H 421.739 0.725648 3.90922 0
M  V30 4590 N 422.737 -1.36956 0.779787 0
M  V30 4591 C 423.985 -1.99097 0.347079 0
M  V30 4592 C 424.306 -1.62206 -1.08232 0
M  V30 4593 O 423.576 -0.891373 -1.74446 0
M  V30 4594 H 422.156 -0.736409 0.125342 0
M  V30 4595 H 424.818 -1.67308 0.999696 0
M  V30 4596 H 423.914 -3.09107 0.431162 0
M  V30 4597 N 424.215 -0.530993 -1.48385 0
M  V30 4598 C 425.443 -0.00134122 -2.069 0
M  V30 4599 C 425.858 1.2805 -1.3874 0
M  V30 4600 O 425.215 1.76204 -0.475244 0
M  V30 4601 C 425.266 0.225256 -3.60798 0
M  V30 4602 O 424.987 -1.0058 -4.26398 0
M  V30 4603 C 426.488 0.795172 -4.3611 0
M  V30 4604 H 423.708 -0.0339704 -0.67014 0
M  V30 4605 H 426.252 -0.736926 -1.90761 0
M  V30 4606 H 424.407 0.910891 -3.76539 0
M  V30 4607 H 424.821 -0.787165 -5.1856 0
M  V30 4608 H 426.295 0.903143 -5.44562 0
M  V30 4609 H 426.772 1.80031 -4.00606 0
M  V30 4610 H 427.378 0.146069 -4.25049 0
M  V30 4611 N 425.693 1.55336 -0.266172 0
M  V30 4612 C 426.939 1.99692 0.353681 0
M  V30 4613 C 427.272 1.1543 1.56172 0
M  V30 4614 O 426.547 0.222218 1.93226 0
M  V30 4615 C 426.83 3.52316 0.74466 0
M  V30 4616 C 426.683 4.47337 -0.470101 0
M  V30 4617 C 428.002 4.10588 1.58447 0
M  V30 4618 H 425.121 0.725961 0.12708 0
M  V30 4619 H 427.763 1.86336 -0.371333 0
M  V30 4620 H 425.913 3.63829 1.36239 0
M  V30 4621 H 427.585 4.4778 -1.10864 0
M  V30 4622 H 425.828 4.19364 -1.10978 0
M  V30 4623 H 426.499 5.51788 -0.15291 0
M  V30 4624 H 428.975 4.02297 1.06286 0
M  V30 4625 H 427.851 5.17607 1.82686 0
M  V30 4626 H 428.112 3.60253 2.56262 0
M  V30 4627 N 427.171 -0.0066808 1.57599 0
M  V30 4628 C 428.42 -0.692078 1.89455 0
M  V30 4629 C 428.733 -1.75306 0.867586 0
M  V30 4630 O 429.939 -2.49262 1.07614 0
M  V30 4631 C 428.395 -1.2821 3.36289 0
M  V30 4632 C 428.003 -0.256291 4.47266 0
M  V30 4633 C 429.747 -1.94608 3.77264 0
M  V30 4634 C 427.654 -0.855927 5.85173 0
M  V30 4635 H 426.584 -0.262252 0.706923 0
M  V30 4636 H 429.235 0.052769 1.83424 0
M  V30 4637 H 427.617 -2.0774 3.37135 0
M  V30 4638 H 428.791 0.513923 4.57925 0
M  V30 4639 H 427.106 0.306862 4.15268 0
M  V30 4640 H 429.703 -2.40364 4.77629 0
M  V30 4641 H 430.046 -2.77382 3.10427 0
M  V30 4642 H 430.579 -1.21822 3.78688 0
M  V30 4643 H 427.318 -0.0671161 6.55466 0
M  V30 4644 H 426.838 -1.59546 5.78191 0
M  V30 4645 H 428.517 -1.35658 6.32618 0
M  V30 4646 N 428.649 -1.55105 -0.279332 0
M  V30 4647 C 429.874 -1.7976 -1.03446 0
M  V30 4648 C 430.299 -0.565952 -1.79384 0
M  V30 4649 O 429.657 0.484259 -1.74713 0
M  V30 4650 C 429.705 -3.0179 -1.97371 0
M  V30 4651 O 428.809 -2.76432 -3.06038 0
M  V30 4652 H 428.15 -0.594334 -0.29608 0
M  V30 4653 H 430.68 -2.02235 -0.310165 0
M  V30 4654 H 430.69 -3.30351 -2.39441 0
M  V30 4655 H 429.365 -3.91085 -1.4151 0
M  V30 4656 H 427.942 -2.58949 -2.68328 0
M  V30 4657 N 430.127 0.543554 -1.4793 0
M  V30 4658 C 431.355 1.32516 -1.58894 0
M  V30 4659 C 431.77 1.87215 -0.244131 0
M  V30 4660 O 431.127 1.65709 0.764652 0
M  V30 4661 C 431.178 2.48554 -2.62494 0
M  V30 4662 O 430.899 1.96112 -3.91755 0
M  V30 4663 C 432.4 3.40572 -2.8377 0
M  V30 4664 H 429.62 0.403472 -0.536145 0
M  V30 4665 H 432.164 0.657106 -1.93655 0
M  V30 4666 H 430.319 3.1127 -2.30629 0
M  V30 4667 H 430.733 2.71967 -4.4848 0
M  V30 4668 H 432.207 4.18375 -3.60093 0
M  V30 4669 H 432.684 3.94965 -1.92092 0
M  V30 4670 H 433.29 2.8366 -3.16887 0
M  V30 4671 N 431.605 1.3629 0.791371 0
M  V30 4672 C 432.852 1.30412 1.54916 0
M  V30 4673 C 433.18 -0.117162 1.94147 0
M  V30 4674 O 432.435 -1.08599 1.62803 0
M  V30 4675 C 432.734 2.17068 2.8393 0
M  V30 4676 C 432.4 3.65645 2.63846 0
M  V30 4677 C 431.062 4.0614 2.58077 0
M  V30 4678 C 433.414 4.59855 2.45322 0
M  V30 4679 C 430.742 5.3899 2.31748 0
M  V30 4680 C 433.094 5.9292 2.2052 0
M  V30 4681 C 431.758 6.32542 2.13183 0
M  V30 4682 H 431.028 0.47721 0.566879 0
M  V30 4683 H 433.675 1.68325 0.913172 0
M  V30 4684 H 431.98 1.72085 3.51986 0
M  V30 4685 H 433.677 2.09846 3.4171 0
M  V30 4686 H 430.267 3.33518 2.69191 0
M  V30 4687 H 434.451 4.29443 2.48782 0
M  V30 4688 H 429.707 5.68672 2.24548 0
M  V30 4689 H 433.881 6.65487 2.05182 0
M  V30 4690 H 431.508 7.35412 1.92544 0
M  V30 4691 N 433.083 -1.0153 1.20538 0
M  V30 4692 C 434.03 -2.10098 0.955383 0
M  V30 4693 C 435 -1.65702 -0.114878 0
M  V30 4694 O 436.185 -1.90776 0.0301118 0
M  V30 4695 C 433.325 -3.41236 0.514969 0
M  V30 4696 C 432.438 -3.99102 1.65353 0
M  V30 4697 C 431.573 -5.18306 1.16329 0
M  V30 4698 C 430.612 -5.68258 2.27485 0
M  V30 4699 N 429.749 -6.78722 1.7967 0
M  V30 4700 H 434.589 -2.30818 1.88486 0
M  V30 4701 H 432.126 -1.13189 0.939499 0
M  V30 4702 H 434.084 -4.16504 0.240935 0
M  V30 4703 H 432.714 -3.20585 -0.377512 0
M  V30 4704 H 431.766 -3.20918 2.04245 0
M  V30 4705 H 433.078 -4.32177 2.49047 0
M  V30 4706 H 432.232 -6.00782 0.845302 0
M  V30 4707 H 430.971 -4.86799 0.296254 0
M  V30 4708 H 429.976 -4.84385 2.60099 0
M  V30 4709 H 431.201 -6.01798 3.14667 0
M  V30 4710 H 429.147 -6.49042 0.95295 0
M  V30 4711 H 429.064 -7.10996 2.56944 0
M  V30 4712 H 430.332 -7.64759 1.50875 0
M  V30 4713 N 434.561 -1.01147 -1.20859 0
M  V30 4714 C 435.508 -0.577354 -2.23462 0
M  V30 4715 C 436.478 0.399922 -1.61214 0
M  V30 4716 O 437.663 0.300515 -1.88419 0
M  V30 4717 C 434.803 0.083372 -3.44999 0
M  V30 4718 C 433.916 -0.937856 -4.21697 0
M  V30 4719 C 433.051 -0.248717 -5.30617 0
M  V30 4720 C 432.09 -1.25705 -5.99053 0
M  V30 4721 N 431.227 -0.594939 -6.99575 0
M  V30 4722 H 436.067 -1.45695 -2.59956 0
M  V30 4723 H 433.604 -0.729428 -1.27741 0
M  V30 4724 H 435.562 0.483535 -4.14388 0
M  V30 4725 H 434.192 0.926645 -3.09214 0
M  V30 4726 H 433.244 -1.45622 -3.51423 0
M  V30 4727 H 434.556 -1.70493 -4.68757 0
M  V30 4728 H 433.71 0.207215 -6.06346 0
M  V30 4729 H 432.449 0.55071 -4.84581 0
M  V30 4730 H 431.454 -1.72343 -5.2209 0
M  V30 4731 H 432.679 -2.05767 -6.47176 0
M  V30 4732 H 430.625 0.184713 -6.5574 0
M  V30 4733 H 430.542 -1.30017 -7.44736 0
M  V30 4734 H 431.81 -0.162427 -7.79331 0
M  V30 4735 N 436.039 1.36541 -0.78704 0
M  V30 4736 C 437.455 1.52571 -0.46844 0
M  V30 4737 C 437.655 1.7415 1.01361 0
M  V30 4738 O 436.711 1.77163 1.79915 0
M  V30 4739 C 438.024 2.71299 -1.29682 0
M  V30 4740 C 439.572 2.85169 -1.29027 0
M  V30 4741 C 440.047 4.06898 -2.10233 0
M  V30 4742 N 441.538 4.1404 -2.07666 0
M  V30 4743 C 442.273 5.07301 -2.67271 0
M  V30 4744 N 441.769 6.06021 -3.35724 0
M  V30 4745 N 443.562 4.99898 -2.57018 0
M  V30 4746 H 435.713 1.20788 -1.74711 0
M  V30 4747 H 437.976 0.589364 -0.742532 0
M  V30 4748 H 437.682 2.61868 -2.34773 0
M  V30 4749 H 437.556 3.6539 -0.936479 0
M  V30 4750 H 439.943 2.94062 -0.247284 0
M  V30 4751 H 440.024 1.91992 -1.69035 0
M  V30 4752 H 439.668 3.98766 -3.1456 0
M  V30 4753 H 439.598 4.99218 -1.67597 0
M  V30 4754 H 442.089 3.43357 -1.57843 0
M  V30 4755 H 442.402 6.73741 -3.78541 0
M  V30 4756 H 440.747 6.06253 -3.39826 0
M  V30 4757 H 443.938 4.21724 -2.03142 0
M  V30 4758 H 444.111 5.72392 -3.03761 0
M  V30 4759 N 437.518 0.538854 1.48102 0
M  V30 4760 C 438.481 -0.208395 2.28251 0
M  V30 4761 C 439.481 -0.859656 1.35892 0
M  V30 4762 O 440.671 -0.71834 1.58699 0
M  V30 4763 C 437.803 -1.30252 3.15035 0
M  V30 4764 H 438.996 0.495407 2.9578 0
M  V30 4765 H 436.549 0.295112 1.53489 0
M  V30 4766 H 437.284 -2.0393 2.52157 0
M  V30 4767 H 437.069 -0.840551 3.82985 0
M  V30 4768 H 438.559 -1.82787 3.75471 0
M  V30 4769 N 438.996 -1.55193 0.274407 0
M  V30 4770 C 440.242 -1.99877 -0.343086 0
M  V30 4771 C 440.575 -1.16256 -1.55558 0
M  V30 4772 O 439.85 -0.232462 -1.93106 0
M  V30 4773 C 440.133 -3.52706 -0.725965 0
M  V30 4774 C 439.986 -4.47081 0.493818 0
M  V30 4775 C 441.305 -4.11422 -1.56268 0
M  V30 4776 H 438.424 -0.726625 -0.123229 0
M  V30 4777 H 441.066 -1.86136 0.38121 0
M  V30 4778 H 439.216 -3.64546 -1.34307 0
M  V30 4779 H 440.888 -4.47186 1.13237 0
M  V30 4780 H 439.131 -4.1877 1.13201 0
M  V30 4781 H 439.802 -5.51699 0.18217 0
M  V30 4782 H 442.278 -4.02855 -1.04151 0
M  V30 4783 H 441.154 -5.18568 -1.79939 0
M  V30 4784 H 441.415 -3.61607 -2.54348 0
M  V30 4785 N 440.474 -0.00167713 -1.576 0
M  V30 4786 C 441.384 1.00548 -2.1196 0
M  V30 4787 C 442.4 1.3758 -1.06526 0
M  V30 4788 O 443.576 1.46278 -1.38436 0
M  V30 4789 C 440.641 2.27809 -2.6135 0
M  V30 4790 C 439.702 1.97074 -3.81393 0
M  V30 4791 C 438.935 3.18267 -4.28417 0
M  V30 4792 O 439.158 4.30009 -3.74765 0
M  V30 4793 O 438.092 3.02167 -5.20556 0
M  V30 4794 H 441.918 0.573373 -2.98238 0
M  V30 4795 H 439.503 0.217255 -1.47812 0
M  V30 4796 H 441.385 3.02568 -2.93309 0
M  V30 4797 H 440.06 2.70254 -1.78169 0
M  V30 4798 H 438.967 1.19785 -3.54404 0
M  V30 4799 H 440.3 1.59464 -4.65652 0
M  V30 4800 N 441.952 1.55251 0.271103 0
M  V30 4801 C 443.201 1.75151 1.00025 0
M  V30 4802 C 443.514 0.561041 1.87381 0
M  V30 4803 O 444.72 0.642506 2.63788 0
M  V30 4804 C 443.176 3.09999 1.82835 0
M  V30 4805 C 442.784 4.3662 1.00336 0
M  V30 4806 C 444.528 3.39249 2.55168 0
M  V30 4807 C 442.435 5.62506 1.82595 0
M  V30 4808 H 441.365 0.652877 0.377183 0
M  V30 4809 H 444.016 1.81708 0.255843 0
M  V30 4810 H 442.398 2.97485 2.61378 0
M  V30 4811 H 443.572 4.60055 0.261959 0
M  V30 4812 H 441.887 4.14527 0.394486 0
M  V30 4813 H 444.484 4.3051 3.1712 0
M  V30 4814 H 444.827 2.59467 3.2555 0
M  V30 4815 H 445.36 3.52869 1.83653 0
M  V30 4816 H 442.099 6.45041 1.16631 0
M  V30 4817 H 441.619 5.43211 2.54327 0
M  V30 4818 H 443.298 6.00875 2.39913 0
M  V30 4819 N 443.43 -0.535701 1.48216 0
M  V30 4820 C 444.658 -1.31671 1.59594 0
M  V30 4821 C 445.073 -1.87083 0.254056 0
M  V30 4822 O 444.43 -1.66112 -0.755854 0
M  V30 4823 C 444.481 -2.47158 2.63809 0
M  V30 4824 O 444.202 -1.94032 3.92789 0
M  V30 4825 C 445.703 -3.39062 2.85573 0
M  V30 4826 H 442.923 -0.400623 0.538277 0
M  V30 4827 H 445.467 -0.646827 1.94001 0
M  V30 4828 H 443.622 -3.10043 2.32276 0
M  V30 4829 H 444.036 -2.69585 4.49916 0
M  V30 4830 H 445.51 -4.16459 3.62306 0
M  V30 4831 H 445.987 -3.93941 1.94184 0
M  V30 4832 H 446.593 -2.81975 3.18387 0
M  V30 4833 N 444.908 -1.36708 -0.784132 0
M  V30 4834 C 446.156 -1.30972 -1.53918 0
M  V30 4835 C 446.477 0.109086 -1.94695 0
M  V30 4836 O 445.747 1.05048 -1.65353 0
M  V30 4837 H 444.327 -0.481819 -0.570841 0
M  V30 4838 H 446.989 -1.71063 -0.934002 0
M  V30 4839 H 446.085 -1.94061 -2.44431 0
M  V30 4840 N 446.386 1.0089 -1.21074 0
M  V30 4841 C 447.349 2.0775 -0.968129 0
M  V30 4842 C 448.349 1.6069 0.0593445 0
M  V30 4843 O 449.539 1.73293 -0.177525 0
M  V30 4844 C 446.671 3.37794 -0.459108 0
M  V30 4845 H 447.864 2.30707 -1.9161 0
M  V30 4846 H 445.417 1.17807 -1.02719 0
M  V30 4847 H 446.152 3.20516 0.49397 0
M  V30 4848 H 445.937 3.7328 -1.20019 0
M  V30 4849 H 447.427 4.16454 -0.309099 0
M  V30 4850 N 447.864 1.01787 1.20321 0
M  V30 4851 C 449.112 0.706538 1.89347 0
M  V30 4852 C 449.433 -0.766289 1.79313 0
M  V30 4853 O 448.703 -1.55126 1.19635 0
M  V30 4854 H 447.283 0.258348 0.700903 0
M  V30 4855 H 449.945 1.28974 1.46122 0
M  V30 4856 H 449.041 0.991066 2.95946 0
M  V30 4857 N 449.342 -1.36122 0.79427 0
M  V30 4858 C 450.753 -1.81646 0.431446 0
M  V30 4859 C 451.104 -1.66043 -1.04518 0
M  V30 4860 O 450.229 -1.1841 -1.8113 0
M  V30 4861 C 450.824 -3.29785 0.776341 0
M  V30 4862 C 449.383 -3.73501 0.466282 0
M  V30 4863 C 448.53 -2.58313 1.00844 0
M  V30 4864 H 451.481 -1.24274 0.986995 0
M  V30 4865 H 451.502 -3.80437 0.0692413 0
M  V30 4866 H 451.014 -3.4111 1.8511 0
M  V30 4867 H 449.115 -3.67733 -0.600245 0
M  V30 4868 H 449.228 -4.68754 0.990288 0
M  V30 4869 H 447.592 -2.5102 0.431406 0
M  V30 4870 H 448.375 -2.72421 2.08906 0
M  V30 4871 N 450.82 -0.546701 -1.47814 0
M  V30 4872 C 452.068 -0.0187037 -2.02091 0
M  V30 4873 C 452.389 1.33168 -1.42447 0
M  V30 4874 O 451.659 1.86619 -0.595839 0
M  V30 4875 H 450.239 -0.00392531 -0.74699 0
M  V30 4876 H 452.901 -0.714327 -1.81338 0
M  V30 4877 H 451.997 0.0772219 -3.12004 0
M  V30 4878 N 452.299 1.55045 -0.282633 0
M  V30 4879 C 453.262 2.21515 0.588539 0
M  V30 4880 C 454.262 1.19535 1.07554 0
M  V30 4881 O 455.452 1.44391 0.974514 0
M  V30 4882 C 452.584 2.88704 1.8128 0
M  V30 4883 H 453.777 2.99899 0.00806397 0
M  V30 4884 H 451.33 1.56265 -0.0333067 0
M  V30 4885 H 452.065 2.14352 2.43359 0
M  V30 4886 H 451.85 3.63443 1.47144 0
M  V30 4887 H 453.34 3.39465 2.43214 0
M  V30 4888 N 453.777 0.010035 1.57597 0
M  V30 4889 C 455.002 -0.687021 1.95691 0
M  V30 4890 C 455.427 -1.65952 0.885519 0
M  V30 4891 O 454.785 -1.80633 -0.15543 0
M  V30 4892 C 454.833 -1.3864 3.32884 0
M  V30 4893 O 453.937 -2.50115 3.27897 0
M  V30 4894 H 453.278 -0.181989 0.638573 0
M  V30 4895 H 455.808 0.0662122 2.04493 0
M  V30 4896 H 455.818 -1.74754 3.6868 0
M  V30 4897 H 454.493 -0.673411 4.10412 0
M  V30 4898 H 453.07 -2.16253 3.03791 0
M  V30 4899 N 455.255 -1.55392 -0.262866 0
M  V30 4900 C 456.48 -1.80847 -1.01533 0
M  V30 4901 C 456.905 -0.584946 -1.78774 0
M  V30 4902 O 456.263 0.465701 -1.75217 0
M  V30 4903 C 456.311 -3.03866 -1.94159 0
M  V30 4904 O 455.415 -2.79662 -3.03089 0
M  V30 4905 H 454.756 -0.597441 -0.289759 0
M  V30 4906 H 457.286 -2.02553 -0.288698 0
M  V30 4907 H 457.296 -3.32872 -2.35924 0
M  V30 4908 H 455.971 -3.92564 -1.37354 0
M  V30 4909 H 454.548 -2.61781 -2.65566 0
M  V30 4910 N 456.733 0.527833 -1.48498 0
M  V30 4911 C 457.979 1.28545 -1.56857 0
M  V30 4912 C 458.312 1.92678 -0.242651 0
M  V30 4913 O 457.587 1.79394 0.751545 0
M  V30 4914 C 457.87 2.37314 -2.70839 0
M  V30 4915 C 457.723 1.77858 -4.13142 0
M  V30 4916 C 459.042 3.39068 -2.80573 0
M  V30 4917 H 456.161 0.466006 -0.570971 0
M  V30 4918 H 458.803 0.587784 -1.8068 0
M  V30 4919 H 456.953 2.96821 -2.50658 0
M  V30 4920 H 458.625 1.22385 -4.44769 0
M  V30 4921 H 456.868 1.08383 -4.20042 0
M  V30 4922 H 457.539 2.56624 -4.88721 0
M  V30 4923 H 460.015 2.89518 -2.98862 0
M  V30 4924 H 458.891 4.12566 -3.6205 0
M  V30 4925 H 459.152 3.9975 -1.88818 0
M  V30 4926 N 458.211 1.37122 0.776871 0
M  V30 4927 C 459.451 1.33441 1.54831 0
M  V30 4928 C 459.815 -0.0818963 1.91825 0
M  V30 4929 O 461.016 -0.24338 2.67696 0
M  V30 4930 C 459.287 2.24267 2.78279 0
M  V30 4931 S 460.846 2.38389 3.68397 0
M  V30 4932 H 457.664 0.473791 0.530135 0
M  V30 4933 H 460.266 1.7282 0.913968 0
M  V30 4934 H 458.97 3.261 2.49173 0
M  V30 4935 H 458.501 1.85953 3.46677 0
M  V30 4936 H 460.516 1.59068 4.70013 0
M  V30 4937 N 459.689 -1.00246 1.21608 0
M  V30 4938 C 460.637 -2.11193 0.97469 0
M  V30 4939 C 461.631 -1.69216 -0.0789303 0
M  V30 4940 O 462.837 -1.79853 0.0726806 0
M  V30 4941 H 459.212 -0.690455 0.297953 0
M  V30 4942 H 461.183 -2.2873 1.91638 0
M  V30 4943 C 459.932 -3.43182 0.558717 0
M  V30 4944 H 459.255 -3.75918 1.3611 0
M  V30 4945 H 460.695 -4.21823 0.429154 0
M  V30 4946 C 459.154 -3.28882 -0.730648 0
M  V30 4947 O 459.684 -3.59835 -1.78554 0
M  V30 4948 N 457.89 -2.8209 -0.698131 0
M  V30 4949 H 457.437 -2.57099 0.16061 0
M  V30 4950 H 457.395 -2.72903 -1.56113 0
M  V30 4951 N 461.167 -1.02423 -1.1978 0
M  V30 4952 C 462.392 -0.7373 -1.93852 0
M  V30 4953 C 462.817 0.696923 -1.74713 0
M  V30 4954 O 462.175 1.48056 -1.04638 0
M  V30 4955 C 462.223 -1.08783 -3.438 0
M  V30 4956 O 461.327 -0.20383 -4.11896 0
M  V30 4957 H 460.668 -0.27284 -0.605355 0
M  V30 4958 H 463.198 -1.36966 -1.51992 0
M  V30 4959 H 463.208 -1.04276 -3.9445 0
M  V30 4960 H 461.883 -2.13274 -3.57053 0
M  V30 4961 H 460.46 -0.307091 -3.71633 0
M  V30 4962 N 462.645 1.35699 -0.801477 0
M  V30 4963 C 463.608 2.28199 -0.213994 0
M  V30 4964 C 464.608 1.49359 0.595691 0
M  V30 4965 O 465.798 1.69186 0.414921 0
M  V30 4966 C 462.93 3.33587 0.702297 0
M  V30 4967 H 464.123 2.81666 -1.02976 0
M  V30 4968 H 461.676 1.45467 -0.571759 0
M  V30 4969 H 462.411 2.85297 1.54195 0
M  V30 4970 H 462.196 3.91906 0.123484 0
M  V30 4971 H 463.686 4.02638 1.10783 0
M  V30 4972 N 464.123 0.554532 1.47522 0
M  V30 4973 C 465.534 0.120446 1.86311 0
M  V30 4974 C 465.885 -1.30904 1.46145 0
M  V30 4975 O 465.01 -1.98434 0.863294 0
M  V30 4976 C 465.605 0.211808 3.38137 0
M  V30 4977 C 464.164 -0.167224 3.76028 0
M  V30 4978 C 463.311 0.560576 2.71575 0
M  V30 4979 H 466.262 0.764408 1.39077 0
M  V30 4980 H 466.283 -0.570275 3.76202 0
M  V30 4981 H 465.795 1.25232 3.6734 0
M  V30 4982 H 463.896 -1.20894 3.52442 0
M  V30 4983 H 464.009 0.189473 4.78725 0
M  V30 4984 H 462.373 0.00396836 2.547 0
M  V30 4985 H 463.156 1.60219 3.0362 0
M  V30 4986 N 465.601 -1.54893 0.290851 0
M  V30 4987 C 466.849 -1.99538 -0.320756 0
M  V30 4988 C 467.17 -1.18075 -1.55188 0
M  V30 4989 O 466.44 -0.274162 -1.93972 0
M  V30 4990 H 465.02 -0.737052 -0.121507 0
M  V30 4991 H 467.682 -1.90755 0.399832 0
M  V30 4992 H 466.778 -3.06282 -0.599802 0
M  V30 4993 N 467.08 -0.0183926 -1.57589 0
M  V30 4994 C 468.305 0.676634 -1.96052 0
M  V30 4995 C 468.73 1.6548 -0.894307 0
M  V30 4996 O 468.088 1.80712 0.145849 0
M  V30 4997 C 468.136 1.36872 -3.33614 0
M  V30 4998 O 467.24 2.48372 -3.29219 0
M  V30 4999 H 466.581 0.1786 -0.63953 0
M  V30 5000 H 469.111 -0.077056 -2.04455 0
M  V30 5001 H 469.121 1.72797 -3.69601 0
M  V30 5002 H 467.796 0.651636 -4.10763 0
M  V30 5003 H 466.373 2.14639 -3.04934 0
M  V30 5004 N 468.558 1.5553 0.254621 0
M  V30 5005 C 469.806 1.7665 0.981793 0
M  V30 5006 C 470.127 0.580963 1.86145 0
M  V30 5007 O 469.397 -0.403537 1.91699 0
M  V30 5008 H 467.977 0.651475 0.365498 0
M  V30 5009 H 470.639 1.92958 0.274426 0
M  V30 5010 H 469.735 2.67486 1.60802 0
M  V30 5011 N 470.036 -0.519951 1.48776 0
M  V30 5012 C 471.447 -1.10177 1.50725 0
M  V30 5013 C 471.798 -1.94153 0.282678 0
M  V30 5014 O 470.923 -2.07645 -0.609298 0
M  V30 5015 C 471.518 -2.00482 2.73116 0
M  V30 5016 C 470.077 -2.53862 2.77905 0
M  V30 5017 C 469.224 -1.31047 2.44381 0
M  V30 5018 H 472.175 -0.30473 1.55747 0
M  V30 5019 H 472.196 -2.8491 2.52203 0
M  V30 5020 H 471.708 -1.39335 3.62225 0
M  V30 5021 H 469.809 -3.18702 1.93029 0
M  V30 5022 H 469.922 -2.9231 3.79594 0
M  V30 5023 H 468.286 -1.62953 1.95751 0
M  V30 5024 H 469.069 -0.71637 3.35743 0
M  V30 5025 N 471.514 -1.37532 -0.769588 0
M  V30 5026 C 472.739 -1.36231 -1.56384 0
M  V30 5027 C 473.164 0.0495849 -1.88035 0
M  V30 5028 O 472.522 1.02723 -1.49391 0
M  V30 5029 C 472.57 -2.20986 -2.84952 0
M  V30 5030 O 471.674 -1.61597 -3.79421 0
M  V30 5031 H 471.015 -0.465387 -0.473615 0
M  V30 5032 H 473.545 -1.81085 -0.952342 0
M  V30 5033 H 473.555 -2.34277 -3.34034 0
M  V30 5034 H 472.23 -3.23612 -2.61243 0
M  V30 5035 H 470.807 -1.57359 -3.38072 0
M  V30 5036 N 472.992 0.995999 -1.22138 0
M  V30 5037 C 474.217 1.77601 -1.0711 0
M  V30 5038 C 474.642 1.84339 0.374264 0
M  V30 5039 O 474 1.29359 1.27028 0
M  V30 5040 C 474.048 3.18897 -1.68336 0
M  V30 5041 O 473.152 4.01663 -0.934928 0
M  V30 5042 H 472.493 0.547011 -0.376397 0
M  V30 5043 H 475.023 1.25137 -1.6187 0
M  V30 5044 H 475.033 3.69539 -1.72931 0
M  V30 5045 H 473.708 3.13308 -2.73516 0
M  V30 5046 H 472.285 3.60204 -0.964751 0
M  V30 5047 N 474.47 1.03057 1.19235 0
M  V30 5048 C 475.881 0.757449 1.70645 0
M  V30 5049 C 476.232 -0.722735 1.82403 0
M  V30 5050 O 475.357 -1.56325 1.49638 0
M  V30 5051 C 475.952 1.36833 3.09939 0
M  V30 5052 C 474.511 1.14375 3.58602 0
M  V30 5053 C 473.658 1.46533 2.35422 0
M  V30 5054 H 476.609 1.19828 1.04052 0
M  V30 5055 H 476.63 0.766184 3.72706 0
M  V30 5056 H 476.142 2.44562 3.01349 0
M  V30 5057 H 474.243 0.0847542 3.72504 0
M  V30 5058 H 474.356 1.83366 4.42622 0
M  V30 5059 H 472.72 0.884712 2.38841 0
M  V30 5060 H 473.503 2.55349 2.2946 0
M  V30 5061 N 475.948 -1.35272 0.808662 0
M  V30 5062 C 476.896 -2.31663 0.208606 0
M  V30 5063 C 477.89 -1.56731 -0.642778 0
M  V30 5064 O 479.096 -1.71843 -0.53571 0
M  V30 5065 H 475.471 -0.750421 0.0486993 0
M  V30 5066 H 477.442 -2.79814 1.03666 0
M  V30 5067 C 476.191 -3.42008 -0.626573 0
M  V30 5068 H 475.514 -3.99795 0.0192103 0
M  V30 5069 H 476.954 -4.11727 -1.01278 0
M  V30 5070 C 475.413 -2.85226 -1.79298 0
M  V30 5071 O 475.943 -2.78945 -2.89055 0
M  V30 5072 N 474.149 -2.42245 -1.60516 0
M  V30 5073 H 473.696 -2.47554 -0.712375 0
M  V30 5074 H 473.654 -2.04603 -2.38715 0
M  V30 5075 N 477.426 -0.562348 -1.47226 0
M  V30 5076 C 478.651 -0.0432632 -2.07355 0
M  V30 5077 C 479.076 1.24332 -1.41149 0
M  V30 5078 O 478.434 1.74603 -0.488226 0
M  V30 5079 C 478.482 0.130288 -3.60365 0
M  V30 5080 O 477.586 1.19166 -3.94808 0
M  V30 5081 H 476.927 -0.0536334 -0.66183 0
M  V30 5082 H 479.457 -0.779495 -1.89169 0
M  V30 5083 H 479.467 0.342881 -4.06557 0
M  V30 5084 H 478.142 -0.809389 -4.07948 0
M  V30 5085 H 476.719 0.959153 -3.60354 0
M  V30 5086 N 478.904 1.54736 -0.299062 0
M  V30 5087 C 480.129 2.04975 0.316254 0
M  V30 5088 C 480.554 1.17501 1.46885 0
M  V30 5089 O 479.912 0.178678 1.80417 0
M  V30 5090 C 479.96 3.52672 0.751997 0
M  V30 5091 O 479.064 3.68226 1.85697 0
M  V30 5092 H 478.405 0.661126 0.0617175 0
M  V30 5093 H 480.935 1.99805 -0.440341 0
M  V30 5094 H 480.945 3.94488 1.04133 0
M  V30 5095 H 479.62 4.158 -0.0911482 0
M  V30 5096 H 478.197 3.38316 1.56834 0
M  V30 5097 N 480.382 0.0267497 1.57577 0
M  V30 5098 C 481.332 -0.965003 2.06571 0
M  V30 5099 C 482.316 -1.28694 0.965746 0
M  V30 5100 O 483.508 -1.27345 1.22932 0
M  V30 5101 C 480.637 -2.24821 2.59443 0
M  V30 5102 C 479.723 -1.95474 3.76365 0
M  V30 5103 N 480.114 -1.36387 4.87065 0
M  V30 5104 C 478.412 -2.25478 3.84806 0
M  V30 5105 C 479.113 -1.24119 5.68304 0
M  V30 5106 N 478.089 -1.7359 5.15138 0
M  V30 5107 H 481.891 -0.503095 2.89562 0
M  V30 5108 H 479.405 -0.178322 1.61418 0
M  V30 5109 H 481.402 -2.9674 2.92833 0
M  V30 5110 H 480.062 -2.7164 1.77881 0
M  V30 5111 H 481.073 -1.03919 5.07367 0
M  V30 5112 H 477.75 -2.74987 3.14147 0
M  V30 5113 H 479.14 -0.784504 6.67304 0
M  V30 5114 N 481.861 -1.55662 -0.24637 0
M  V30 5115 C 483.086 -1.81914 -0.996093 0
M  V30 5116 C 483.511 -0.603875 -1.78143 0
M  V30 5117 O 482.869 0.447091 -1.75701 0
M  V30 5118 C 482.917 -3.05908 -1.90925 0
M  V30 5119 O 482.021 -2.82861 -3.00105 0
M  V30 5120 H 481.362 -0.600481 -0.283406 0
M  V30 5121 H 483.892 -2.02848 -0.267199 0
M  V30 5122 H 483.902 -3.35356 -2.3238 0
M  V30 5123 H 482.577 -3.93999 -1.33183 0
M  V30 5124 H 481.154 -2.64583 -2.62775 0
M  V30 5125 N 483.339 0.512053 -1.4905 0
M  V30 5126 C 484.567 1.29116 -1.61669 0
M  V30 5127 C 484.982 1.86655 -0.283787 0
M  V30 5128 O 484.339 1.67293 0.729331 0
M  V30 5129 C 484.39 2.4293 -2.67707 0
M  V30 5130 O 484.111 1.87758 -3.95826 0
M  V30 5131 C 485.612 3.34476 -2.90931 0
M  V30 5132 H 482.832 0.392009 -0.544583 0
M  V30 5133 H 485.376 0.615881 -1.95006 0
M  V30 5134 H 483.531 3.06308 -2.37179 0
M  V30 5135 H 483.945 2.62393 -4.54148 0
M  V30 5136 H 485.419 4.10642 -3.68886 0
M  V30 5137 H 485.896 3.90801 -2.00427 0
M  V30 5138 H 486.502 2.76874 -3.22832 0
M  V30 5139 N 484.817 1.37938 0.762283 0
M  V30 5140 C 486.066 1.32989 1.51647 0
M  V30 5141 C 486.379 -0.0802922 1.95435 0
M  V30 5142 O 487.585 -0.252295 2.70325 0
M  V30 5143 C 486.041 2.33485 2.73885 0
M  V30 5144 C 485.649 3.80079 2.37157 0
M  V30 5145 C 487.393 2.37563 3.51801 0
M  V30 5146 C 485.3 4.72283 3.55954 0
M  V30 5147 H 484.23 0.494301 0.56937 0
M  V30 5148 H 486.881 1.63448 0.834083 0
M  V30 5149 H 485.263 1.96056 3.44061 0
M  V30 5150 H 486.437 4.26398 1.74704 0
M  V30 5151 H 484.752 3.79037 1.72395 0
M  V30 5152 H 487.349 3.0365 4.40114 0
M  V30 5153 H 487.692 1.39199 3.92338 0
M  V30 5154 H 488.225 2.73747 2.8863 0
M  V30 5155 H 484.964 5.7181 3.2049 0
M  V30 5156 H 484.484 4.30663 4.1748 0
M  V30 5157 H 486.163 4.89876 4.22647 0
M  V30 5158 N 486.295 -0.989507 1.22664 0
M  V30 5159 C 487.258 -2.06183 1.00106 0
M  V30 5160 C 488.258 -1.60765 -0.0337726 0
M  V30 5161 O 489.448 -1.72989 0.205072 0
M  V30 5162 C 486.58 -3.37021 0.51279 0
M  V30 5163 H 487.773 -2.27629 1.95256 0
M  V30 5164 H 485.326 -1.16158 1.0458 0
M  V30 5165 H 486.061 -3.21261 -0.442917 0
M  V30 5166 H 485.846 -3.71323 1.25942 0
M  V30 5167 H 487.336 -4.1591 0.375315 0
M  V30 5168 N 487.773 -1.03688 -1.18687 0
M  V30 5169 C 488.683 -0.634908 -2.25845 0
M  V30 5170 C 489.699 0.337065 -1.70704 0
M  V30 5171 O 490.875 0.192943 -2.00474 0
M  V30 5172 C 487.94 -0.000180054 -3.467 0
M  V30 5173 C 487.001 -1.02067 -4.1699 0
M  V30 5174 C 486.234 -0.41614 -5.32075 0
M  V30 5175 O 486.457 0.778712 -5.65059 0
M  V30 5176 O 485.391 -1.14296 -5.90948 0
M  V30 5177 H 489.217 -1.52757 -2.62486 0
M  V30 5178 H 486.802 -0.807533 -1.25695 0
M  V30 5179 H 488.684 0.353342 -4.19916 0
M  V30 5180 H 487.359 0.866367 -3.11891 0
M  V30 5181 H 486.266 -1.42592 -3.45859 0
M  V30 5182 H 487.599 -1.85786 -4.5579 0
M  V30 5183 N 489.251 1.34841 -0.815825 0
M  V30 5184 C 490.199 2.31549 -0.220888 0
M  V30 5185 C 491.193 1.5707 0.634457 0
M  V30 5186 O 492.399 1.72125 0.526589 0
M  V30 5187 H 488.774 0.750153 -0.0526782 0
M  V30 5188 H 490.745 2.7926 -1.05149 0
M  V30 5189 C 489.494 3.42335 0.608427 0
M  V30 5190 H 488.817 3.9978 -0.0404121 0
M  V30 5191 H 490.257 4.12258 0.990931 0
M  V30 5192 C 488.716 2.86173 1.77782 0
M  V30 5193 O 489.246 2.80474 2.87571 0
M  V30 5194 N 487.452 2.43093 1.59229 0
M  V30 5195 H 486.999 2.47928 0.699237 0
M  V30 5196 H 486.957 2.05866 2.37627 0
M  V30 5197 N 490.729 0.570148 1.46925 0
M  V30 5198 C 491.977 0.0508523 2.02036 0
M  V30 5199 C 492.298 -1.30885 1.44548 0
M  V30 5200 O 491.568 -1.85647 0.625453 0
M  V30 5201 H 490.148 0.0158088 0.746833 0
M  V30 5202 H 492.81 0.743086 1.80178 0
M  V30 5203 H 491.906 -0.027575 3.12088 0
M  V30 5204 N 492.207 -1.54576 0.307264 0
M  V30 5205 C 493.454 -2.00263 -0.300167 0
M  V30 5206 C 493.782 -1.19561 -1.53413 0
M  V30 5207 O 493.037 -0.261487 -1.93945 0
M  V30 5208 C 493.336 -3.50572 -0.695253 0
M  V30 5209 C 493.002 -4.48771 0.437679 0
M  V30 5210 C 491.664 -4.7534 0.748681 0
M  V30 5211 C 494.016 -5.0721 1.19949 0
M  V30 5212 C 491.344 -5.5761 1.8245 0
M  V30 5213 C 493.696 -5.90651 2.26527 0
M  V30 5214 C 492.36 -6.15528 2.58227 0
M  V30 5215 H 491.63 -0.732814 -0.109839 0
M  V30 5216 H 494.277 -1.86664 0.427661 0
M  V30 5217 H 492.582 -3.61814 -1.50326 0
M  V30 5218 H 494.279 -3.83352 -1.17653 0
M  V30 5219 H 490.869 -4.282 0.185187 0
M  V30 5220 H 495.053 -4.86679 0.972474 0
M  V30 5221 H 490.309 -5.75121 2.07476 0
M  V30 5222 H 494.483 -6.34957 2.86011 0
M  V30 5223 H 492.11 -6.79066 3.4172 0
M  V30 5224 N 493.685 -0.035106 -1.57561 0
M  V30 5225 C 494.913 0.652258 -1.9635 0
M  V30 5226 C 495.328 1.65317 -0.911897 0
M  V30 5227 O 494.685 1.82194 0.105657 0
M  V30 5228 C 494.736 1.35337 -3.35211 0
M  V30 5229 O 494.457 0.392548 -4.36338 0
M  V30 5230 C 495.958 2.13199 -3.88666 0
M  V30 5231 H 493.178 0.179444 -0.646561 0
M  V30 5232 H 495.722 -0.0966459 -2.04271 0
M  V30 5233 H 493.877 2.05362 -3.28489 0
M  V30 5234 H 494.291 0.891097 -5.16875 0
M  V30 5235 H 495.765 2.577 -4.88154 0
M  V30 5236 H 496.242 2.97353 -3.23231 0
M  V30 5237 H 496.848 1.48118 -3.98674 0
M  V30 5238 N 495.163 1.55791 0.238111 0
M  V30 5239 C 496.411 1.77681 0.963001 0
M  V30 5240 C 496.732 0.600674 1.85518 0
M  V30 5241 O 496.002 -0.383182 1.92116 0
M  V30 5242 H 494.582 0.655315 0.358568 0
M  V30 5243 H 497.244 1.93239 0.253945 0
M  V30 5244 H 496.34 2.69177 1.57956 0
M  V30 5245 N 496.642 -0.504142 1.49319 0
M  V30 5246 C 497.867 -1.28729 1.62615 0
M  V30 5247 C 498.292 -1.85752 0.296309 0
M  V30 5248 O 497.65 -1.65704 -0.735649 0
M  V30 5249 C 497.698 -2.39561 2.69524 0
M  V30 5250 O 496.802 -3.43324 2.28478 0
M  V30 5251 H 496.143 -0.380172 0.544395 0
M  V30 5252 H 498.673 -0.603872 1.95485 0
M  V30 5253 H 498.683 -2.8537 2.91595 0
M  V30 5254 H 497.358 -1.97423 3.66056 0
M  V30 5255 H 495.935 -3.03455 2.16725 0
M  V30 5256 N 498.12 -1.38341 -0.754957 0
M  V30 5257 C 499.366 -1.34672 -1.51628 0
M  V30 5258 C 499.699 0.0636036 -1.94096 0
M  V30 5259 O 498.974 1.0245 -1.6533 0
M  V30 5260 C 499.257 -2.30116 -2.76981 0
M  V30 5261 C 499.11 -3.80003 -2.4066 0
M  V30 5262 C 500.429 -2.23715 -3.78998 0
M  V30 5263 H 497.548 -0.490517 -0.550056 0
M  V30 5264 H 500.19 -1.69178 -0.864807 0
M  V30 5265 H 498.34 -2.00821 -3.3257 0
M  V30 5266 H 500.012 -4.19966 -1.90856 0
M  V30 5267 H 498.255 -3.97751 -1.73137 0
M  V30 5268 H 498.926 -4.42244 -3.30339 0
M  V30 5269 H 501.402 -2.49574 -3.32945 0
M  V30 5270 H 500.278 -2.9261 -4.64403 0
M  V30 5271 H 500.539 -1.23554 -4.24484 0
M  V30 5272 N 499.598 0.982988 -1.23187 0
M  V30 5273 C 501.009 1.53847 -1.05773 0
M  V30 5274 C 501.36 1.92568 0.375744 0
M  V30 5275 O 500.485 1.75783 1.26211 0
M  V30 5276 C 501.08 2.79567 -1.91384 0
M  V30 5277 C 499.639 3.31524 -1.78238 0
M  V30 5278 C 498.786 2.04534 -1.87246 0
M  V30 5279 H 501.737 0.802962 -1.36888 0
M  V30 5280 H 501.758 3.52317 -1.43711 0
M  V30 5281 H 501.27 2.51353 -2.95708 0
M  V30 5282 H 499.371 3.64623 -0.766875 0
M  V30 5283 H 499.484 4.01457 -2.61475 0
M  V30 5284 H 497.848 2.1855 -1.30797 0
M  V30 5285 H 498.631 1.78706 -2.9312 0
M  V30 5286 N 501.076 1.04316 1.18135 0
M  V30 5287 C 502.024 0.630175 2.23901 0
M  V30 5288 C 503.018 -0.344254 1.65865 0
M  V30 5289 O 504.224 -0.211273 1.78756 0
M  V30 5290 H 500.599 0.185578 0.728742 0
M  V30 5291 H 502.57 1.53253 2.56039 0
M  V30 5292 C 501.319 0.011666 3.47698 0
M  V30 5293 H 500.642 0.752526 3.92654 0
M  V30 5294 H 502.082 -0.240046 4.2332 0
M  V30 5295 C 500.541 -1.23913 3.13285 0
M  V30 5296 O 501.071 -2.32959 3.27251 0
M  V30 5297 N 499.277 -1.13338 2.67587 0
M  V30 5298 H 498.824 -0.246006 2.56423 0
M  V30 5299 H 498.782 -1.97116 2.44934 0
M  V30 5300 N 502.554 -1.34406 0.822964 0
M  V30 5301 C 503.803 -1.97542 0.407458 0
M  V30 5302 C 504.116 -1.65973 -1.035 0
M  V30 5303 O 505.322 -2.22598 -1.55442 0
M  V30 5304 C 503.778 -3.53463 0.677623 0
M  V30 5305 C 503.386 -3.93925 2.1337 0
M  V30 5306 C 505.13 -4.23229 0.328284 0
M  V30 5307 C 503.037 -5.42759 2.34876 0
M  V30 5308 H 501.967 -0.739207 0.148623 0
M  V30 5309 H 504.618 -1.53248 1.00932 0
M  V30 5310 H 503 -3.96 0.00558965 0
M  V30 5311 H 504.174 -3.62494 2.8449 0
M  V30 5312 H 502.489 -3.37097 2.44448 0
M  V30 5313 H 505.086 -5.32659 0.466794 0
M  V30 5314 H 505.429 -4.09899 -0.727224 0
M  V30 5315 H 505.962 -3.86169 0.954896 0
M  V30 5316 H 502.701 -5.61075 3.38932 0
M  V30 5317 H 502.221 -5.75704 1.68299 0
M  V30 5318 H 503.9 -6.0944 2.17236 0
M  V30 5319 N 504.032 -0.577932 -1.46621 0
M  V30 5320 C 505.443 -0.150071 -1.86096 0
M  V30 5321 C 505.794 1.28563 -1.48209 0
M  V30 5322 O 504.919 1.97036 -0.894754 0
M  V30 5323 C 505.514 -0.265576 -3.37758 0
M  V30 5324 C 504.073 0.10738 -3.76247 0
M  V30 5325 C 503.22 -0.603711 -2.70649 0
M  V30 5326 H 506.171 -0.786438 -1.37844 0
M  V30 5327 H 506.192 0.510352 -3.77062 0
M  V30 5328 H 505.704 -1.3106 -3.65301 0
M  V30 5329 H 503.805 1.15272 -3.54321 0
M  V30 5330 H 503.918 -0.26561 -4.78363 0
M  V30 5331 H 502.282 -0.0444884 -2.54661 0
M  V30 5332 H 503.065 -1.65029 -3.01032 0
M  V30 5333 N 505.51 1.54411 -0.315457 0
M  V30 5334 C 506.738 2.04833 0.291738 0
M  V30 5335 C 507.153 1.19203 1.46411 0
M  V30 5336 O 506.51 0.220867 1.81159 0
M  V30 5337 C 506.561 3.53969 0.73404 0
M  V30 5338 O 506.282 4.36346 -0.391682 0
M  V30 5339 C 507.783 4.2045 1.40489 0
M  V30 5340 H 505.003 0.668195 0.0612947 0
M  V30 5341 H 507.547 1.99276 -0.45929 0
M  V30 5342 H 505.702 3.5984 1.43506 0
M  V30 5343 H 506.116 5.24481 -0.0447088 0
M  V30 5344 H 507.59 5.26278 1.66539 0
M  V30 5345 H 508.067 3.71067 2.3496 0
M  V30 5346 H 508.673 4.18694 0.746662 0
M  V30 5347 N 506.988 0.0434614 1.5754 0
M  V30 5348 C 507.898 -0.94893 2.14552 0
M  V30 5349 C 508.914 -1.34707 1.10136 0
M  V30 5350 O 510.09 -1.42557 1.42266 0
M  V30 5351 C 507.155 -2.208 2.67298 0
M  V30 5352 C 506.216 -1.86893 3.86484 0
M  V30 5353 C 505.449 -3.06797 4.36705 0
M  V30 5354 O 505.672 -4.19921 3.86034 0
M  V30 5355 O 504.606 -2.8826 5.28384 0
M  V30 5356 H 508.432 -0.494099 2.99654 0
M  V30 5357 H 506.017 -0.177989 1.48336 0
M  V30 5358 H 507.899 -2.94686 3.01228 0
M  V30 5359 H 506.574 -2.65436 1.85272 0
M  V30 5360 H 505.481 -1.10347 3.57455 0
M  V30 5361 H 506.814 -1.47062 4.69716 0
M  V30 5362 N 508.466 -1.55915 -0.229846 0
M  V30 5363 C 509.399 -1.86734 -1.3117 0
M  V30 5364 C 510.377 -0.723947 -1.45595 0
M  V30 5365 O 511.561 -0.971462 -1.61539 0
M  V30 5366 C 508.688 -2.06707 -2.68309 0
M  V30 5367 C 507.734 -3.2938 -2.70944 0
M  V30 5368 S 508.567 -4.85547 -2.25842 0
M  V30 5369 C 509.723 -5.08546 -3.64873 0
M  V30 5370 H 509.956 -2.78204 -1.04832 0
M  V30 5371 H 507.489 -1.48243 -0.431681 0
M  V30 5372 H 509.447 -2.18898 -3.47267 0
M  V30 5373 H 508.108 -1.16049 -2.91876 0
M  V30 5374 H 507.301 -3.40374 -3.71701 0
M  V30 5375 H 506.903 -3.16004 -2.00044 0
M  V30 5376 H 509.195 -4.96935 -4.60502 0
M  V30 5377 H 510.138 -6.10465 -3.58801 0
M  V30 5378 H 510.546 -4.36314 -3.58176 0
M  V30 5379 N 509.944 0.496216 -1.49584 0
M  V30 5380 C 510.874 1.60576 -1.69521 0
M  V30 5381 C 511.855 1.61169 -0.543933 0
M  V30 5382 O 513.04 1.77834 -0.78031 0
M  V30 5383 C 510.17 2.99038 -1.76616 0
M  V30 5384 C 509.124 3.13312 -2.91581 0
M  V30 5385 C 508.45 4.53172 -2.83794 0
M  V30 5386 C 509.75 2.92886 -4.32452 0
M  V30 5387 H 511.444 1.44146 -2.62416 0
M  V30 5388 H 508.99 0.692024 -1.26282 0
M  V30 5389 H 510.943 3.76564 -1.8915 0
M  V30 5390 H 509.667 3.16568 -0.80324 0
M  V30 5391 H 508.326 2.38213 -2.78658 0
M  V30 5392 H 507.974 4.67585 -1.854 0
M  V30 5393 H 507.674 4.63662 -3.60958 0
M  V30 5394 H 509.198 5.32752 -2.98342 0
M  V30 5395 H 510.612 3.60178 -4.46032 0
M  V30 5396 H 509.009 3.14844 -5.10875 0
M  V30 5397 H 510.079 1.88966 -4.46565 0
M  V30 5398 N 511.423 1.38739 0.74761 0
M  V30 5399 C 512.834 1.31507 1.32524 0
M  V30 5400 C 513.185 -0.0263963 1.96182 0
M  V30 5401 O 512.31 -0.92849 1.95469 0
M  V30 5402 C 512.905 2.38162 2.40966 0
M  V30 5403 C 511.464 2.34489 2.94434 0
M  V30 5404 C 510.611 2.20712 1.67873 0
M  V30 5405 H 513.562 1.4901 0.546043 0
M  V30 5406 H 513.583 2.04222 3.21051 0
M  V30 5407 H 513.095 3.35783 1.94605 0
M  V30 5408 H 511.196 1.40467 3.45108 0
M  V30 5409 H 511.309 3.28861 3.48407 0
M  V30 5410 H 509.673 1.67667 1.91729 0
M  V30 5411 H 510.456 3.20285 1.23582 0
M  V30 5412 N 512.901 -0.976442 1.23707 0
M  V30 5413 C 513.833 -2.07212 0.979574 0
M  V30 5414 C 514.846 -1.6273 -0.0478528 0
M  V30 5415 O 516.035 -1.77506 0.18815 0
M  V30 5416 C 513.135 -3.35835 0.45479 0
M  V30 5417 C 512.308 -4.09268 1.54331 0
M  V30 5418 C 511.367 -5.16166 1.02271 0
M  V30 5419 O 510.393 -5.42827 1.71254 0
M  V30 5420 N 511.595 -5.80313 -0.147419 0
M  V30 5421 H 514.36 -2.29878 1.92292 0
M  V30 5422 H 511.921 -1.14343 1.14618 0
M  V30 5423 H 513.913 -4.04597 0.0914631 0
M  V30 5424 H 512.483 -3.10106 -0.394068 0
M  V30 5425 H 511.703 -3.34906 2.07923 0
M  V30 5426 H 512.991 -4.55095 2.27522 0
M  V30 5427 H 512.389 -5.61043 -0.724353 0
M  V30 5428 H 510.946 -6.50231 -0.451972 0
M  V30 5429 N 514.379 -1.04941 -1.1758 0
M  V30 5430 C 515.329 -0.618378 -2.19454 0
M  V30 5431 C 516.313 0.343813 -1.57184 0
M  V30 5432 O 517.505 0.16145 -1.76262 0
M  V30 5433 C 514.634 0.00803847 -3.43299 0
M  V30 5434 C 513.72 -0.977827 -4.12673 0
M  V30 5435 N 514.111 -2.14826 -4.57912 0
M  V30 5436 C 512.409 -0.805748 -4.38661 0
M  V30 5437 C 513.11 -2.77174 -5.11419 0
M  V30 5438 N 512.086 -2.04989 -5.03468 0
M  V30 5439 H 515.888 -1.51018 -2.52132 0
M  V30 5440 H 513.402 -0.919201 -1.33882 0
M  V30 5441 H 515.399 0.334584 -4.15555 0
M  V30 5442 H 514.059 0.895272 -3.12114 0
M  V30 5443 H 515.07 -2.52673 -4.52081 0
M  V30 5444 H 511.747 0.0306506 -4.17489 0
M  V30 5445 H 513.137 -3.76416 -5.56562 0
M  V30 5446 N 515.857 1.33968 -0.830081 0
M  V30 5447 C 517.273 1.51003 -0.516742 0
M  V30 5448 C 517.473 1.77286 0.957694 0
M  V30 5449 O 516.529 1.82797 1.74188 0
M  V30 5450 C 517.842 2.67036 -1.38247 0
M  V30 5451 C 519.39 2.80919 -1.38034 0
M  V30 5452 C 519.865 4.00004 -2.23071 0
M  V30 5453 N 521.356 4.07224 -2.20733 0
M  V30 5454 C 522.091 4.98541 -2.83275 0
M  V30 5455 N 521.587 5.95033 -3.54835 0
M  V30 5456 N 523.38 4.91469 -2.72791 0
M  V30 5457 H 515.531 1.15168 -1.78466 0
M  V30 5458 H 517.794 0.565443 -0.760906 0
M  V30 5459 H 517.5 2.54266 -2.42985 0
M  V30 5460 H 517.374 3.62226 -1.05225 0
M  V30 5461 H 519.761 2.93127 -0.340713 0
M  V30 5462 H 519.842 1.86517 -1.75057 0
M  V30 5463 H 519.486 3.88557 -3.27087 0
M  V30 5464 H 519.416 4.93634 -1.83394 0
M  V30 5465 H 521.907 3.38162 -1.68687 0
M  V30 5466 H 522.22 6.61357 -3.99784 0
M  V30 5467 H 520.565 5.95135 -3.58942 0
M  V30 5468 H 523.756 4.15048 -2.16456 0
M  V30 5469 H 523.929 5.62439 -3.21818 0
M  V30 5470 N 517.335 0.585699 1.46312 0
M  V30 5471 C 518.298 -0.135673 2.28798 0
M  V30 5472 C 519.298 -0.815988 1.38558 0
M  V30 5473 O 520.488 -0.667487 1.60904 0
M  V30 5474 C 517.62 -1.20163 3.1902 0
M  V30 5475 H 518.813 0.589257 2.94054 0
M  V30 5476 H 516.366 0.343794 1.52472 0
M  V30 5477 H 517.101 -1.95804 2.58517 0
M  V30 5478 H 516.886 -0.718282 3.85465 0
M  V30 5479 H 518.376 -1.70749 3.81096 0
M  V30 5480 N 518.813 -1.54241 0.323641 0
M  V30 5481 C 519.743 -2.27289 -0.534993 0
M  V30 5482 C 520.724 -1.28087 -1.11927 0
M  V30 5483 O 521.909 -1.56899 -1.14439 0
M  V30 5484 C 519.039 -3.03075 -1.69596 0
M  V30 5485 C 517.993 -4.09614 -1.24098 0
M  V30 5486 C 517.319 -4.73242 -2.4889 0
M  V30 5487 C 518.619 -5.21087 -0.355789 0
M  V30 5488 H 520.313 -2.99308 0.0743257 0
M  V30 5489 H 517.859 -1.43952 0.0371874 0
M  V30 5490 H 519.812 -3.52907 -2.30293 0
M  V30 5491 H 518.536 -2.28673 -2.33187 0
M  V30 5492 H 517.195 -3.60666 -0.656945 0
M  V30 5493 H 516.843 -3.95455 -3.10845 0
M  V30 5494 H 516.543 -5.45209 -2.19138 0
M  V30 5495 H 518.067 -5.25848 -3.10348 0
M  V30 5496 H 519.481 -5.66675 -0.869042 0
M  V30 5497 H 517.878 -5.9991 -0.151045 0
M  V30 5498 H 518.948 -4.81005 0.613339 0
M  V30 5499 N 520.291 -0.0518155 -1.57515 0
M  V30 5500 C 521.702 0.483787 -1.80323 0
M  V30 5501 C 522.053 1.70879 -0.964099 0
M  V30 5502 O 521.178 2.15643 -0.180872 0
M  V30 5503 C 521.773 0.884459 -3.27052 0
M  V30 5504 C 520.332 1.36504 -3.50776 0
M  V30 5505 C 519.479 0.340539 -2.75201 0
M  V30 5506 H 522.43 -0.277691 -1.56252 0
M  V30 5507 H 522.451 1.74733 -3.38007 0
M  V30 5508 H 521.963 -0.00731093 -3.88099 0
M  V30 5509 H 520.064 2.27598 -2.95009 0
M  V30 5510 H 520.177 1.35675 -4.59488 0
M  V30 5511 H 518.541 0.81356 -2.41357 0
M  V30 5512 H 519.324 -0.543156 -3.38976 0
M  V30 5513 N 521.769 1.56035 0.221574 0
M  V30 5514 C 522.699 1.95434 1.2778 0
M  V30 5515 C 523.68 0.822564 1.48889 0
M  V30 5516 O 524.865 1.08486 1.61072 0
M  V30 5517 C 521.995 2.27102 2.62759 0
M  V30 5518 C 520.949 3.4277 2.56306 0
M  V30 5519 C 520.275 3.60043 3.95314 0
M  V30 5520 C 521.575 4.77742 2.11093 0
M  V30 5521 H 523.269 2.83912 0.950504 0
M  V30 5522 H 520.815 1.36596 0.455791 0
M  V30 5523 H 522.768 2.53256 3.36807 0
M  V30 5524 H 521.492 1.35478 2.97176 0
M  V30 5525 H 520.151 3.16664 1.84715 0
M  V30 5526 H 519.799 2.65794 4.27039 0
M  V30 5527 H 519.499 4.37841 3.91879 0
M  V30 5528 H 521.023 3.88545 4.71025 0
M  V30 5529 H 522.437 5.03102 2.74885 0
M  V30 5530 H 520.834 5.58823 2.18716 0
M  V30 5531 H 521.904 4.731 1.06321 0
M  V30 5532 N 523.247 -0.488276 1.49845 0
M  V30 5533 C 524.524 -1.24959 1.50481 0
M  V30 5534 C 524.904 -2.09735 0.239698 0
M  V30 5535 O 524.252 -2.14865 -0.777524 0
M  V30 5536 C 524.462 -2.0954 2.79095 0
M  V30 5537 C 525.81 -2.68305 3.29086 0
M  V30 5538 O 526.834 -2.19797 2.80299 0
M  V30 5539 O 525.693 -3.56643 4.14087 0
M  V30 5540 H 522.787 -0.566133 0.602845 0
M  V30 5541 H 525.333 -0.501504 1.6212 0
M  V30 5542 H 524.105 -1.46958 3.62656 0
M  V30 5543 H 523.728 -2.91517 2.70377 0
M  V30 5544 N 524.725 -1.39134 -0.740242 0
M  V30 5545 C 525.95 -1.39518 -1.53459 0
M  V30 5546 C 526.375 0.00968883 -1.88098 0
M  V30 5547 O 525.733 0.995312 -1.51536 0
M  V30 5548 C 525.781 -2.26981 -2.802 0
M  V30 5549 O 524.885 -1.69609 -3.75908 0
M  V30 5550 H 524.226 -0.475328 -0.463637 0
M  V30 5551 H 526.756 -1.83064 -0.913717 0
M  V30 5552 H 526.766 -2.41309 -3.28989 0
M  V30 5553 H 525.441 -3.29081 -2.5432 0
M  V30 5554 H 524.018 -1.64495 -3.34658 0
M  V30 5555 N 526.204 0.969867 -1.24223 0
M  V30 5556 C 527.429 1.75289 -1.10853 0
M  V30 5557 C 527.854 1.85091 0.335079 0
M  V30 5558 O 527.212 1.32024 1.24255 0
M  V30 5559 C 527.26 3.15255 -1.75062 0
M  V30 5560 O 526.364 3.99589 -1.01992 0
M  V30 5561 H 525.705 0.538904 -0.387915 0
M  V30 5562 H 528.235 1.21675 -1.64488 0
M  V30 5563 H 528.245 3.65787 -1.80731 0
M  V30 5564 H 526.92 3.07436 -2.801 0
M  V30 5565 H 525.497 3.58077 -1.04094 0
M  V30 5566 N 527.682 1.05563 1.17022 0
M  V30 5567 C 529.093 0.793475 1.69 0
M  V30 5568 C 529.444 -0.683882 1.83895 0
M  V30 5569 O 528.569 -1.53116 1.5292 0
M  V30 5570 C 529.164 1.43376 3.06967 0
M  V30 5571 C 527.723 1.21956 3.56095 0
M  V30 5572 C 526.87 1.51494 2.3226 0
M  V30 5573 H 529.821 1.22008 1.01487 0
M  V30 5574 H 529.842 0.845068 3.70997 0
M  V30 5575 H 529.354 2.50899 2.96093 0
M  V30 5576 H 527.455 0.163749 3.7224 0
M  V30 5577 H 527.568 1.92713 4.38633 0
M  V30 5578 H 525.932 0.935175 2.3691 0
M  V30 5579 H 526.715 2.60159 2.23992 0
M  V30 5580 N 529.16 -1.33526 0.837174 0
M  V30 5581 C 530.108 -2.31168 0.257698 0
M  V30 5582 C 531.102 -1.5806 -0.609388 0
M  V30 5583 O 532.308 -1.72941 -0.499139 0
M  V30 5584 H 528.683 -0.74922 0.0646058 0
M  V30 5585 H 530.654 -2.77552 1.09578 0
M  V30 5586 C 529.403 -3.4326 -0.553887 0
M  V30 5587 H 528.726 -3.99665 0.104008 0
M  V30 5588 H 530.166 -4.13782 -0.925219 0
M  V30 5589 C 528.625 -2.88965 -1.73207 0
M  V30 5590 O 529.155 -2.85013 -2.83073 0
M  V30 5591 N 527.361 -2.45596 -1.55342 0
M  V30 5592 H 526.908 -2.49009 -0.659705 0
M  V30 5593 H 526.866 -2.0962 -2.34322 0
M  V30 5594 N 530.638 -0.59345 -1.46 0
M  V30 5595 C 531.57 0.171569 -2.28557 0
M  V30 5596 C 532.583 0.845273 -1.39137 0
M  V30 5597 O 533.772 0.713033 -1.6364 0
M  V30 5598 C 530.872 1.26311 -3.14482 0
M  V30 5599 C 530.045 0.679258 -4.32094 0
M  V30 5600 C 529.104 1.65987 -4.99334 0
M  V30 5601 O 528.13 1.19171 -5.56585 0
M  V30 5602 N 529.332 2.99414 -4.97324 0
M  V30 5603 H 532.097 -0.536771 -2.94854 0
M  V30 5604 H 529.658 -0.431954 -1.56031 0
M  V30 5605 H 531.65 1.91863 -3.5633 0
M  V30 5606 H 530.22 1.87416 -2.50188 0
M  V30 5607 H 529.44 -0.153992 -3.93899 0
M  V30 5608 H 530.728 0.26916 -5.08088 0
M  V30 5609 H 530.126 3.40064 -4.52076 0
M  V30 5610 H 528.683 3.60426 -5.4308 0
M  V30 5611 N 532.116 1.54067 -0.331816 0
M  V30 5612 C 533.363 2.00715 0.268269 0
M  V30 5613 C 533.691 1.21986 1.51491 0
M  V30 5614 O 532.946 0.292309 1.93505 0
M  V30 5615 C 533.245 3.51634 0.639392 0
M  V30 5616 C 532.911 4.48018 -0.509019 0
M  V30 5617 C 531.573 4.74089 -0.824209 0
M  V30 5618 C 533.925 5.05237 -1.28003 0
M  V30 5619 C 531.253 5.54637 -1.91298 0
M  V30 5620 C 533.605 5.86972 -2.35895 0
M  V30 5621 C 532.269 6.11342 -2.67987 0
M  V30 5622 H 531.539 0.734469 0.0981667 0
M  V30 5623 H 534.186 1.8596 -0.457304 0
M  V30 5624 H 532.491 3.6416 1.44551 0
M  V30 5625 H 534.188 3.85175 1.11539 0
M  V30 5626 H 530.778 4.27851 -0.253287 0
M  V30 5627 H 534.962 4.8507 -1.04978 0
M  V30 5628 H 530.218 5.71747 -2.16599 0
M  V30 5629 H 534.392 6.30327 -2.96076 0
M  V30 5630 H 532.019 6.73544 -3.5248 0
M  V30 5631 N 533.594 0.0601682 1.57485 0
M  V30 5632 C 534.819 -0.624416 1.97777 0
M  V30 5633 C 535.244 -1.63051 0.937867 0
M  V30 5634 O 534.602 -1.81036 -0.0978845 0
M  V30 5635 C 534.65 -1.27979 3.37126 0
M  V30 5636 O 533.754 -2.39556 3.35688 0
M  V30 5637 H 533.095 -0.161581 0.64404 0
M  V30 5638 H 535.625 0.131237 2.04179 0
M  V30 5639 H 535.635 -1.62937 3.74053 0
M  V30 5640 H 534.31 -0.542501 4.12347 0
M  V30 5641 H 532.887 -2.06478 3.10517 0
M  V30 5642 N 535.072 -1.5615 -0.213296 0
M  V30 5643 C 536.002 -1.96109 -1.26742 0
M  V30 5644 C 536.983 -0.830448 -1.48451 0
M  V30 5645 O 538.168 -1.09339 -1.60495 0
M  V30 5646 C 535.298 -2.28492 -2.61551 0
M  V30 5647 C 534.252 -3.44124 -2.54485 0
M  V30 5648 C 533.578 -3.62134 -3.93399 0
M  V30 5649 C 534.878 -4.78855 -2.08556 0
M  V30 5650 H 536.572 -2.84412 -0.935434 0
M  V30 5651 H 534.118 -1.36836 -0.44854 0
M  V30 5652 H 536.071 -2.55039 -3.3546 0
M  V30 5653 H 534.795 -1.37052 -2.96453 0
M  V30 5654 H 533.454 -3.17639 -1.83033 0
M  V30 5655 H 533.102 -2.68055 -4.25623 0
M  V30 5656 H 532.802 -4.39913 -3.89551 0
M  V30 5657 H 534.326 -3.91038 -4.68958 0
M  V30 5658 H 535.74 -5.04552 -2.72213 0
M  V30 5659 H 534.137 -5.59975 -2.1575 0
M  V30 5660 H 535.207 -4.73657 -1.03811 0
M  V30 5661 N 536.55 0.480323 -1.50102 0
M  V30 5662 C 537.78 1.25475 -1.64133 0
M  V30 5663 C 538.188 1.8647 -0.320272 0
M  V30 5664 O 537.531 1.69561 0.70673 0
M  V30 5665 C 537.593 2.40996 -2.6676 0
M  V30 5666 C 537.257 2.00711 -4.10565 0
M  V30 5667 C 538.254 1.53492 -4.96725 0
M  V30 5668 C 535.939 2.09714 -4.56427 0
M  V30 5669 C 537.933 1.15806 -6.26792 0
M  V30 5670 C 535.62 1.7164 -5.86501 0
M  V30 5671 C 536.618 1.24763 -6.71508 0
M  V30 5672 O 536.306 0.872122 -7.99155 0
M  V30 5673 H 536.038 0.385983 -0.554971 0
M  V30 5674 H 538.592 0.580848 -1.97016 0
M  V30 5675 H 536.822 3.11528 -2.291 0
M  V30 5676 H 538.511 3.02981 -2.70106 0
M  V30 5677 H 539.277 1.45966 -4.62514 0
M  V30 5678 H 535.156 2.4515 -3.90413 0
M  V30 5679 H 538.7 0.791465 -6.93096 0
M  V30 5680 H 534.597 1.78822 -6.20236 0
M  V30 5681 H 535.365 1.00178 -8.12346 0
M  V30 5682 N 538.028 1.39524 0.732853 0
M  V30 5683 C 539.256 1.40143 1.52209 0
M  V30 5684 C 539.671 -0.00348836 1.888 0
M  V30 5685 O 539.028 -0.975357 1.5425 0
M  V30 5686 C 539.079 2.27632 2.8083 0
M  V30 5687 O 538.8 3.62654 2.45792 0
M  V30 5688 C 540.301 2.36658 3.74844 0
M  V30 5689 H 537.521 0.478604 0.470297 0
M  V30 5690 H 540.065 1.83366 0.905388 0
M  V30 5691 H 538.22 1.87818 3.38826 0
M  V30 5692 H 538.634 4.08941 3.28431 0
M  V30 5693 H 540.108 3.02118 4.61984 0
M  V30 5694 H 540.585 1.38638 4.16745 0
M  V30 5695 H 541.191 2.76951 3.22766 0
M  V30 5696 N 539.506 -0.963266 1.24736 0
M  V30 5697 C 540.731 -1.74699 1.11781 0
M  V30 5698 C 541.156 -1.85267 -0.325258 0
M  V30 5699 O 540.514 -1.32681 -1.23553 0
M  V30 5700 C 540.562 -3.14322 1.76731 0
M  V30 5701 O 539.666 -3.99043 1.04109 0
M  V30 5702 H 539.007 -0.53684 0.390767 0
M  V30 5703 H 541.537 -1.20801 1.65131 0
M  V30 5704 H 541.547 -3.64824 1.82668 0
M  V30 5705 H 540.222 -3.05946 2.81726 0
M  V30 5706 H 538.799 -3.5752 1.05991 0
M  V30 5707 N 540.985 -1.06182 -1.16461 0
M  V30 5708 C 542.396 -0.802426 -1.68576 0
M  V30 5709 C 542.747 0.67412 -1.84255 0
M  V30 5710 O 541.872 1.52303 -1.5373 0
M  V30 5711 C 542.467 -1.45002 -3.06202 0
M  V30 5712 C 541.026 -1.23843 -3.55443 0
M  V30 5713 C 540.173 -1.52724 -2.31454 0
M  V30 5714 H 543.124 -1.22545 -1.00839 0
M  V30 5715 H 543.145 -0.864731 -3.70544 0
M  V30 5716 H 542.657 -2.52466 -2.94759 0
M  V30 5717 H 540.758 -0.183487 -3.72148 0
M  V30 5718 H 540.871 -1.95036 -4.37604 0
M  V30 5719 H 539.235 -0.947726 -2.36411 0
M  V30 5720 H 540.018 -2.61343 -2.22609 0
M  V30 5721 N 542.463 1.3308 -0.844243 0
M  V30 5722 C 543.688 2.02341 -0.455282 0
M  V30 5723 C 544.113 1.6308 0.93737 0
M  V30 5724 O 543.471 0.826118 1.61385 0
M  V30 5725 C 543.519 3.55743 -0.58988 0
M  V30 5726 O 542.623 4.1063 0.38166 0
M  V30 5727 H 541.964 0.637898 -0.184343 0
M  V30 5728 H 544.494 1.6986 -1.14056 0
M  V30 5729 H 544.504 4.05243 -0.473522 0
M  V30 5730 H 543.179 3.83662 -1.60549 0
M  V30 5731 H 541.756 3.72236 0.22241 0
M  V30 5732 N 543.941 0.601185 1.45683 0
M  V30 5733 C 544.871 -0.108824 2.33246 0
M  V30 5734 C 545.852 -0.865223 1.46451 0
M  V30 5735 O 547.037 -0.83704 1.75235 0
M  V30 5736 C 544.167 -1.11101 3.2905 0
M  V30 5737 C 543.121 -0.468244 4.25431 0
M  V30 5738 C 542.447 -1.57822 5.10878 0
M  V30 5739 C 543.747 0.606469 5.18767 0
M  V30 5740 H 545.441 0.622306 2.92861 0
M  V30 5741 H 542.987 0.300714 1.40825 0
M  V30 5742 H 544.94 -1.61622 3.89174 0
M  V30 5743 H 543.664 -1.87265 2.67581 0
M  V30 5744 H 542.323 0.0160484 3.66596 0
M  V30 5745 H 541.971 -2.32998 4.45781 0
M  V30 5746 H 541.671 -1.15369 5.76163 0
M  V30 5747 H 543.195 -2.08583 5.73869 0
M  V30 5748 H 544.609 0.185589 5.73 0
M  V30 5749 H 543.006 0.952381 5.92494 0
M  V30 5750 H 544.076 1.48559 4.61582 0
M  V30 5751 N 545.419 -1.53889 0.339982 0
M  V30 5752 C 546.83 -1.86139 -0.144671 0
M  V30 5753 C 547.181 -1.2613 -1.50285 0
M  V30 5754 O 546.306 -0.573515 -2.08662 0
M  V30 5755 C 546.901 -3.37728 -0.269285 0
M  V30 5756 C 545.46 -3.69868 -0.698168 0
M  V30 5757 C 544.607 -2.76777 0.170249 0
M  V30 5758 H 547.558 -1.48503 0.559704 0
M  V30 5759 H 547.579 -3.64331 -1.0974 0
M  V30 5760 H 547.091 -3.81375 0.719366 0
M  V30 5761 H 545.192 -3.31764 -1.69597 0
M  V30 5762 H 545.305 -4.76582 -0.490533 0
M  V30 5763 H 543.669 -2.52188 -0.356844 0
M  V30 5764 H 544.452 -3.23253 1.15597 0
M  V30 5765 N 546.897 -0.0685191 -1.57451 0
M  V30 5766 C 547.845 0.917577 -2.13736 0
M  V30 5767 C 548.839 1.31049 -1.07344 0
M  V30 5768 O 550.045 1.28811 -1.25728 0
M  V30 5769 H 546.42 0.313835 -0.683382 0
M  V30 5770 H 548.391 0.417903 -2.95459 0
M  V30 5771 C 547.14 2.17686 -2.71123 0
M  V30 5772 H 546.463 1.88336 -3.52661 0
M  V30 5773 H 547.903 2.84803 -3.14107 0
M  V30 5774 C 546.362 2.9332 -1.65726 0
M  V30 5775 O 546.892 3.86901 -1.08031 0
M  V30 5776 N 545.098 2.56367 -1.36837 0
M  V30 5777 H 544.645 1.80341 -1.83943 0
M  V30 5778 H 544.603 3.07276 -0.665501 0
M  V30 5779 N 548.375 1.56261 0.205012 0
M  V30 5780 C 549.624 1.79236 0.925058 0
M  V30 5781 C 549.937 0.640011 1.84833 0
M  V30 5782 O 551.143 0.753809 2.60826 0
M  V30 5783 C 549.599 3.17475 1.69522 0
M  V30 5784 C 549.207 4.40482 0.817269 0
M  V30 5785 C 550.951 3.49766 2.4055 0
M  V30 5786 C 548.858 5.69744 1.58573 0
M  V30 5787 H 547.788 0.668287 0.349153 0
M  V30 5788 H 550.439 1.82629 0.178544 0
M  V30 5789 H 548.821 3.08304 2.48526 0
M  V30 5790 H 549.995 4.60752 0.0665988 0
M  V30 5791 H 548.31 4.15827 0.218316 0
M  V30 5792 H 550.907 4.43573 2.98575 0
M  V30 5793 H 551.25 2.73041 3.14252 0
M  V30 5794 H 551.783 3.60341 1.68522 0
M  V30 5795 H 548.522 6.49407 0.891679 0
M  V30 5796 H 548.042 5.53509 2.31059 0
M  V30 5797 H 549.721 6.1051 2.14212 0
M  V30 5798 N 549.853 -0.472356 1.50355 0
M  V30 5799 C 551.078 -1.25251 1.65309 0
M  V30 5800 C 551.503 -1.85081 0.335643 0
M  V30 5801 O 550.861 -1.67227 -0.700335 0
M  V30 5802 C 550.909 -2.3379 2.74544 0
M  V30 5803 O 550.013 -3.38401 2.35709 0
M  V30 5804 H 549.354 -0.368539 0.552336 0
M  V30 5805 H 551.884 -0.562271 1.96722 0
M  V30 5806 H 551.894 -2.79121 2.97583 0
M  V30 5807 H 550.569 -1.89614 3.70161 0
M  V30 5808 H 549.146 -2.9879 2.23112 0
M  V30 5809 N 551.331 -1.39911 -0.725443 0
M  V30 5810 C 552.261 -1.42138 -1.85254 0
M  V30 5811 C 553.242 -0.283513 -1.67721 0
M  V30 5812 O 554.427 -0.490717 -1.87898 0
M  V30 5813 C 551.557 -1.27354 -3.23107 0
M  V30 5814 C 550.511 -2.3864 -3.55296 0
M  V30 5815 C 549.837 -2.08939 -4.92188 0
M  V30 5816 C 551.137 -3.8097 -3.57295 0
M  V30 5817 H 552.831 -2.36461 -1.83648 0
M  V30 5818 H 550.377 -1.13817 -0.882138 0
M  V30 5819 H 552.33 -1.2753 -4.01639 0
M  V30 5820 H 551.054 -0.295025 -3.25265 0
M  V30 5821 H 549.713 -2.37696 -2.79099 0
M  V30 5822 H 549.361 -1.09502 -4.90936 0
M  V30 5823 H 549.061 -2.83491 -5.14691 0
M  V30 5824 H 550.585 -2.10781 -5.73065 0
M  V30 5825 H 551.999 -3.8379 -4.25885 0
M  V30 5826 H 550.396 -4.5496 -3.9132 0
M  V30 5827 H 551.466 -4.11261 -2.5689 0
M  V30 5828 N 552.809 0.956637 -1.25245 0
M  V30 5829 C 554.057 1.69764 -1.09657 0
M  V30 5830 C 554.378 1.91583 0.363464 0
M  V30 5831 O 553.648 1.50149 1.25825 0
M  V30 5832 H 552.228 0.629097 -0.402798 0
M  V30 5833 H 554.89 1.15026 -1.57337 0
M  V30 5834 H 553.986 2.67769 -1.60331 0
M  V30 5835 N 554.287 1.06798 1.15896 0
M  V30 5836 C 555.217 0.704677 2.22613 0
M  V30 5837 C 556.198 -0.305252 1.67339 0
M  V30 5838 O 557.383 -0.179247 1.93371 0
M  V30 5839 C 554.513 0.0957325 3.47168 0
M  V30 5840 C 553.467 1.0322 4.15367 0
M  V30 5841 C 552.793 0.286293 5.33933 0
M  V30 5842 C 554.093 2.36341 4.65768 0
M  V30 5843 H 555.787 1.59688 2.53259 0
M  V30 5844 H 553.333 0.769257 1.21731 0
M  V30 5845 H 555.286 -0.170333 4.21056 0
M  V30 5846 H 554.01 -0.831516 3.15838 0
M  V30 5847 H 552.669 1.28309 3.43413 0
M  V30 5848 H 552.317 -0.644237 4.98857 0
M  V30 5849 H 552.017 0.910436 5.80504 0
M  V30 5850 H 553.541 0.0278938 6.10594 0
M  V30 5851 H 554.955 2.1561 5.31211 0
M  V30 5852 H 553.352 2.94299 5.2298 0
M  V30 5853 H 554.422 2.99047 3.81705 0
M  V30 5854 N 555.766 -1.3263 0.851289 0
M  V30 5855 C 556.698 -2.27824 0.250757 0
M  V30 5856 C 557.711 -1.52285 -0.575598 0
M  V30 5857 O 558.9 -1.73946 -0.400638 0
M  V30 5858 C 556 -3.3232 -0.664571 0
M  V30 5859 C 555.173 -4.37221 0.125187 0
M  V30 5860 C 554.232 -5.21314 -0.715385 0
M  V30 5861 O 553.258 -5.69002 -0.150111 0
M  V30 5862 N 554.46 -5.43823 -2.03069 0
M  V30 5863 H 557.225 -2.79997 1.06873 0
M  V30 5864 H 554.786 -1.45455 0.710943 0
M  V30 5865 H 556.778 -3.85486 -1.23216 0
M  V30 5866 H 555.348 -2.80331 -1.38323 0
M  V30 5867 H 554.568 -3.84384 0.874199 0
M  V30 5868 H 555.856 -5.04399 0.667774 0
M  V30 5869 H 555.254 -5.06803 -2.51332 0
M  V30 5870 H 553.811 -5.99998 -2.54648 0
M  V30 5871 N 557.244 -0.608902 -1.45362 0
M  V30 5872 C 558.207 0.0992563 -2.28985 0
M  V30 5873 C 559.207 0.793841 -1.39838 0
M  V30 5874 O 560.397 0.641804 -1.61946 0
M  V30 5875 C 557.529 1.15073 -3.20891 0
M  V30 5876 H 558.722 -0.635964 -2.93079 0
M  V30 5877 H 556.275 -0.368007 -1.51906 0
M  V30 5878 H 557.01 1.91667 -2.616 0
M  V30 5879 H 556.795 0.656867 -3.86559 0
M  V30 5880 H 558.285 1.64665 -3.83765 0
M  V30 5881 N 558.722 1.53707 -0.348139 0
M  V30 5882 C 559.95 2.05406 0.248224 0
M  V30 5883 C 560.365 1.22282 1.43849 0
M  V30 5884 O 559.722 0.259244 1.80649 0
M  V30 5885 C 559.773 3.55446 0.658793 0
M  V30 5886 O 559.494 4.35417 -0.484149 0
M  V30 5887 C 560.995 4.23335 1.31539 0
M  V30 5888 H 558.215 0.669344 0.0471075 0
M  V30 5889 H 560.759 1.98257 -0.501456 0
M  V30 5890 H 558.914 3.62803 1.35841 0
M  V30 5891 H 559.328 5.24268 -0.155949 0
M  V30 5892 H 560.802 5.29692 1.55338 0
M  V30 5893 H 561.279 3.75967 2.27036 0
M  V30 5894 H 561.885 4.20184 0.657683 0
M  V30 5895 N 560.2 0.0768682 1.57412 0
M  V30 5896 C 561.446 -0.591961 1.93968 0
M  V30 5897 C 561.779 -1.68954 0.9575 0
M  V30 5898 O 561.054 -1.94496 -0.0124675 0
M  V30 5899 C 561.337 -1.16418 3.40762 0
M  V30 5900 C 561.19 -0.0728933 4.49741 0
M  V30 5901 C 562.509 -2.06814 3.88479 0
M  V30 5902 H 559.628 -0.213716 0.705333 0
M  V30 5903 H 562.27 0.14387 1.89455 0
M  V30 5904 H 560.42 -1.79128 3.4474 0
M  V30 5905 H 562.092 0.560446 4.57883 0
M  V30 5906 H 560.335 0.595859 4.29688 0
M  V30 5907 H 561.006 -0.513755 5.49604 0
M  V30 5908 H 563.482 -1.54033 3.8654 0
M  V30 5909 H 562.358 -2.43785 4.91793 0
M  V30 5910 H 562.619 -2.97844 3.26713 0
M  V30 5911 N 561.678 -1.56367 -0.196722 0
M  V30 5912 C 562.906 -1.84639 -0.933608 0
M  V30 5913 C 563.321 -0.659164 -1.76919 0
M  V30 5914 O 562.678 0.372142 -1.78665 0
M  V30 5915 C 562.729 -3.11694 -1.83109 0
M  V30 5916 O 562.45 -4.25838 -1.02924 0
M  V30 5917 C 563.951 -3.53132 -2.67979 0
M  V30 5918 H 561.171 -0.613188 -0.272473 0
M  V30 5919 H 563.715 -2.03475 -0.204465 0
M  V30 5920 H 561.87 -2.94759 -2.51387 0
M  V30 5921 H 562.284 -4.98178 -1.64069 0
M  V30 5922 H 563.758 -4.45005 -3.26611 0
M  V30 5923 H 564.235 -2.76045 -3.41608 0
M  V30 5924 H 564.841 -3.72592 -2.05074 0
M  V30 5925 N 563.156 0.464375 -1.50603 0
M  V30 5926 C 564.402 1.21776 -1.62168 0
M  V30 5927 C 564.735 1.91476 -0.324154 0
M  V30 5928 O 564.01 1.8242 0.674782 0
M  V30 5929 C 564.293 2.25614 -2.80661 0
M  V30 5930 C 564.146 1.60175 -4.20314 0
M  V30 5931 C 565.465 3.26862 -2.94702 0
M  V30 5932 H 562.584 0.44137 -0.590222 0
M  V30 5933 H 565.226 0.510623 -1.8301 0
M  V30 5934 H 563.376 2.85923 -2.63021 0
M  V30 5935 H 565.048 1.03411 -4.4956 0
M  V30 5936 H 563.291 0.904697 -4.24261 0
M  V30 5937 H 563.962 2.35665 -4.99165 0
M  V30 5938 H 566.438 2.76582 -3.10872 0
M  V30 5939 H 565.314 3.96839 -3.79223 0
M  V30 5940 H 565.575 3.91382 -2.05603 0
M  V30 5941 N 564.634 1.40294 0.718013 0
M  V30 5942 C 565.862 1.4175 1.50714 0
M  V30 5943 C 566.277 0.0165366 1.88793 0
M  V30 5944 O 565.634 -0.958942 1.55276 0
M  V30 5945 C 565.685 2.30598 2.784 0
M  V30 5946 O 565.406 3.6524 2.41932 0
M  V30 5947 C 566.907 2.4062 3.72313 0
M  V30 5948 H 564.127 0.483565 0.465194 0
M  V30 5949 H 566.671 1.84316 0.885889 0
M  V30 5950 H 564.826 1.91401 3.36815 0
M  V30 5951 H 565.24 4.12402 3.24076 0
M  V30 5952 H 566.714 3.07001 4.58753 0
M  V30 5953 H 567.191 1.4305 4.15251 0
M  V30 5954 H 567.797 2.80359 3.19811 0
M  V30 5955 N 566.112 -0.949982 1.2575 0
M  V30 5956 C 567.06 -2.06869 1.06339 0
M  V30 5957 C 568.054 -1.69399 -0.00708901 0
M  V30 5958 O 569.26 -1.79383 0.148897 0
M  V30 5959 H 565.635 -0.677197 0.326969 0
M  V30 5960 H 567.606 -2.20396 2.01167 0
M  V30 5961 C 566.355 -3.40503 0.703769 0
M  V30 5962 H 565.678 -3.69807 1.51931 0
M  V30 5963 H 567.118 -4.19623 0.607677 0
M  V30 5964 C 565.577 -3.31685 -0.5905 0
M  V30 5965 O 566.107 -3.67085 -1.63131 0
M  V30 5966 N 564.313 -2.84797 -0.577859 0
M  V30 5967 H 563.86 -2.56186 0.26951 0
M  V30 5968 H 563.818 -2.79279 -1.44398 0
M  V30 5969 N 567.59 -1.07411 -1.15328 0
M  V30 5970 C 568.815 -0.818856 -1.90551 0
M  V30 5971 C 569.24 0.622194 -1.77512 0
M  V30 5972 O 568.598 1.43484 -1.10824 0
M  V30 5973 C 568.646 -1.23267 -3.38877 0
M  V30 5974 O 567.75 -0.378345 -4.10661 0
M  V30 5975 H 567.091 -0.29827 -0.593238 0
M  V30 5976 H 569.621 -1.43289 -1.46046 0
M  V30 5977 H 569.631 -1.20912 -3.89672 0
M  V30 5978 H 568.306 -2.28226 -3.47686 0
M  V30 5979 H 566.883 -0.464437 -3.69996 0
M  V30 5980 N 569.068 1.32177 -0.85831 0
M  V30 5981 C 570.018 2.26307 -0.277307 0
M  V30 5982 C 571.002 1.50123 0.578946 0
M  V30 5983 O 572.194 1.71754 0.427731 0
M  V30 5984 C 569.323 3.39181 0.530232 0
M  V30 5985 C 568.409 4.22746 -0.338613 0
M  V30 5986 N 568.8 4.85265 -1.4266 0
M  V30 5987 C 567.098 4.45813 -0.129 0
M  V30 5988 C 567.799 5.47634 -1.96142 0
M  V30 5989 N 566.775 5.28794 -1.26007 0
M  V30 5990 H 570.577 2.72173 -1.10902 0
M  V30 5991 H 568.091 1.46308 -0.704816 0
M  V30 5992 H 570.088 4.05628 0.962904 0
M  V30 5993 H 568.748 2.9486 1.35969 0
M  V30 5994 H 569.759 4.85259 -1.80953 0
M  V30 5995 H 566.436 4.12163 0.665451 0
M  V30 5996 H 567.826 6.0735 -2.8736 0
M  V30 5997 N 570.547 0.616602 1.45037 0
M  V30 5998 C 571.477 -0.0840787 2.33349 0
M  V30 5999 C 572.458 -0.849641 1.4736 0
M  V30 6000 O 573.643 -0.818407 1.76113 0
M  V30 6001 C 570.773 -1.07604 3.3021 0
M  V30 6002 C 569.727 -0.423096 4.25904 0
M  V30 6003 C 569.053 -1.52394 5.12523 0
M  V30 6004 C 570.353 0.661457 5.18095 0
M  V30 6005 H 572.047 0.653333 2.92185 0
M  V30 6006 H 569.593 0.315634 1.40498 0
M  V30 6007 H 571.546 -1.57485 3.90866 0
M  V30 6008 H 570.27 -1.84416 2.69552 0
M  V30 6009 H 568.929 0.05493 3.66559 0
M  V30 6010 H 568.577 -2.28257 4.48227 0
M  V30 6011 H 568.277 -1.09251 5.77354 0
M  V30 6012 H 569.801 -2.02485 5.76049 0
M  V30 6013 H 571.215 0.246353 5.7277 0
M  V30 6014 H 569.612 1.01517 5.91451 0
M  V30 6015 H 570.682 1.53446 4.59981 0
M  V30 6016 N 572.025 -1.5352 0.356285 0
M  V30 6017 C 573.253 -2.05534 -0.237328 0
M  V30 6018 C 573.668 -1.23043 -1.43199 0
M  V30 6019 O 573.025 -0.268821 -1.80509 0
M  V30 6020 C 573.076 -3.55791 -0.639933 0
M  V30 6021 O 572.797 -4.35154 0.507233 0
M  V30 6022 C 574.298 -4.24027 -1.29292 0
M  V30 6023 H 571.518 -0.669585 -0.0435572 0
M  V30 6024 H 574.062 -1.97988 0.511963 0
M  V30 6025 H 572.217 -3.63518 -1.33915 0
M  V30 6026 H 572.631 -5.24178 0.18375 0
M  V30 6027 H 574.105 -5.30509 -1.52527 0
M  V30 6028 H 574.582 -3.77166 -2.25039 0
M  V30 6029 H 575.188 -4.20527 -0.63539 0
M  V30 6030 N 573.503 -0.0852151 -1.57369 0
M  V30 6031 C 574.466 0.8627 -2.12344 0
M  V30 6032 C 575.466 1.21746 -1.05046 0
M  V30 6033 O 576.656 1.14852 -1.30976 0
M  V30 6034 C 573.788 2.1618 -2.63589 0
M  V30 6035 H 574.981 0.385511 -2.97412 0
M  V30 6036 H 572.534 0.163663 -1.55441 0
M  V30 6037 H 573.269 2.68406 -1.82013 0
M  V30 6038 H 573.054 1.91723 -3.4203 0
M  V30 6039 H 574.544 2.84011 -3.06149 0
M  V30 6040 N 574.981 1.5647 0.188427 0
M  V30 6041 C 576.206 1.85486 0.927891 0
M  V30 6042 C 576.631 0.669575 1.75779 0
M  V30 6043 O 575.989 -0.381573 1.77239 0
M  V30 6044 C 576.037 3.12784 1.7944 0
M  V30 6045 O 575.141 2.93805 2.894 0
M  V30 6046 H 574.482 0.610585 0.260925 0
M  V30 6047 H 577.012 2.037 0.191729 0
M  V30 6048 H 577.022 3.43749 2.19774 0
M  V30 6049 H 575.697 3.98671 1.18468 0
M  V30 6050 H 574.274 2.74153 2.52774 0
M  V30 6051 N 576.459 -0.456382 1.50847 0
M  V30 6052 C 577.87 -1.03685 1.55262 0
M  V30 6053 C 578.221 -1.92779 0.364771 0
M  V30 6054 O 577.346 -2.10043 -0.52068 0
M  V30 6055 C 577.941 -1.88718 2.81374 0
M  V30 6056 C 576.5 -2.41847 2.88422 0
M  V30 6057 C 575.647 -1.20564 2.49719 0
M  V30 6058 H 578.598 -0.238399 1.56899 0
M  V30 6059 H 578.619 -2.73957 2.6406 0
M  V30 6060 H 578.131 -1.23847 3.67809 0
M  V30 6061 H 576.232 -3.10228 2.06372 0
M  V30 6062 H 576.345 -2.75947 3.9165 0
M  V30 6063 H 574.709 -1.54504 2.02486 0
M  V30 6064 H 575.492 -0.573326 3.38479 0
M  V30 6065 N 577.937 -1.40673 -0.710563 0
M  V30 6066 C 578.884 -1.41336 -1.82463 0
M  V30 6067 C 579.854 -0.269648 -1.63897 0
M  V30 6068 O 581.039 -0.468463 -1.8496 0
M  V30 6069 C 578.179 -1.28665 -3.20218 0
M  V30 6070 C 577.292 -2.52784 -3.5032 0
M  V30 6071 C 576.427 -2.32517 -4.77608 0
M  V30 6072 C 575.466 -3.52187 -5.0063 0
M  V30 6073 N 574.603 -3.31084 -6.19135 0
M  V30 6074 H 579.443 -2.36558 -1.8123 0
M  V30 6075 H 576.98 -1.17483 -0.885226 0
M  V30 6076 H 578.938 -1.19324 -3.99772 0
M  V30 6077 H 577.568 -0.370602 -3.20666 0
M  V30 6078 H 576.62 -2.72634 -2.65283 0
M  V30 6079 H 577.932 -3.41845 -3.63241 0
M  V30 6080 H 577.086 -2.20558 -5.65189 0
M  V30 6081 H 575.825 -1.40889 -4.66906 0
M  V30 6082 H 574.83 -3.64617 -4.11502 0
M  V30 6083 H 576.055 -4.44749 -5.13201 0
M  V30 6084 H 574.001 -2.42143 -6.09674 0
M  V30 6085 H 573.918 -4.13713 -6.32754 0
M  V30 6086 H 575.186 -3.22868 -7.0949 0
M  V30 6087 N 579.415 0.9433 -1.26252 0
M  V30 6088 C 580.345 2.05902 -1.10122 0
M  V30 6089 C 581.326 1.70099 -0.00700552 0
M  V30 6090 O 582.511 1.93377 -0.178641 0
M  V30 6091 C 579.641 3.39516 -0.731175 0
M  V30 6092 C 578.595 3.89372 -1.77688 0
M  V30 6093 C 577.921 5.19613 -1.26122 0
M  V30 6094 C 579.221 4.14489 -3.17799 0
M  V30 6095 H 580.915 2.19655 -2.03451 0
M  V30 6096 H 578.461 1.05548 -0.979576 0
M  V30 6097 H 580.414 4.17031 -0.605215 0
M  V30 6098 H 579.138 3.25733 0.23782 0
M  V30 6099 H 577.797 3.14036 -1.89148 0
M  V30 6100 H 577.445 5.02208 -0.282128 0
M  V30 6101 H 577.145 5.53939 -1.96023 0
M  V30 6102 H 578.669 5.99713 -1.14789 0
M  V30 6103 H 580.083 4.82625 -3.09428 0
M  V30 6104 H 578.48 4.60094 -3.85271 0
M  V30 6105 H 579.55 3.20347 -3.64014 0
M  V30 6106 N 580.893 1.08022 1.14757 0
M  V30 6107 C 582.118 0.82895 1.90114 0
M  V30 6108 C 582.543 -0.612772 1.77839 0
M  V30 6109 O 581.901 -1.42895 1.11583 0
M  V30 6110 C 581.949 1.25062 3.38219 0
M  V30 6111 O 581.053 0.400119 4.10454 0
M  V30 6112 H 580.394 0.301412 0.591648 0
M  V30 6113 H 582.924 1.44062 1.45284 0
M  V30 6114 H 582.934 1.22977 3.89025 0
M  V30 6115 H 581.609 2.30067 3.46471 0
M  V30 6116 H 580.186 0.484052 3.69745 0
M  V30 6117 N 582.371 -1.3172 0.865308 0
M  V30 6118 C 583.599 -2.01057 0.488251 0
M  V30 6119 C 584.014 -1.64979 -0.918 0
M  V30 6120 O 583.371 -0.876597 -1.60069 0
M  V30 6121 C 583.422 -3.55964 0.630224 0
M  V30 6122 O 583.143 -3.90749 1.98109 0
M  V30 6123 C 584.644 -4.42574 0.253567 0
M  V30 6124 H 581.864 -0.64332 0.190736 0
M  V30 6125 H 584.408 -1.68058 1.16519 0
M  V30 6126 H 582.563 -3.874 0.000895422 0
M  V30 6127 H 582.977 -4.85467 1.9855 0
M  V30 6128 H 584.451 -5.50521 0.403875 0
M  V30 6129 H 584.928 -4.31724 -0.806895 0
M  V30 6130 H 585.534 -4.16547 0.858404 0
M  V30 6131 N 583.85 -0.624285 -1.44708 0
M  V30 6132 C 584.782 0.12305 -2.28869 0
M  V30 6133 C 585.795 0.81557 -1.40898 0
M  V30 6134 O 586.984 0.678162 -1.65116 0
M  V30 6135 C 584.084 1.19612 -3.1709 0
M  V30 6136 C 583.257 0.587452 -4.33437 0
M  V30 6137 C 582.316 1.55358 -5.02743 0
M  V30 6138 O 581.341 1.07338 -5.58988 0
M  V30 6139 N 582.543 2.88798 -5.03563 0
M  V30 6140 H 585.308 -0.599193 -2.93649 0
M  V30 6141 H 582.87 -0.464954 -1.5508 0
M  V30 6142 H 584.861 1.84261 -3.60319 0
M  V30 6143 H 583.432 1.82067 -2.54107 0
M  V30 6144 H 582.652 -0.237509 -3.93484 0
M  V30 6145 H 583.94 0.161326 -5.08544 0
M  V30 6146 H 583.338 3.30399 -4.59188 0
M  V30 6147 H 581.894 3.48826 -5.50603 0
M  V30 6148 N 585.328 1.53329 -0.364422 0
M  V30 6149 C 586.26 2.23286 0.517293 0
M  V30 6150 C 587.273 1.24657 1.04711 0
M  V30 6151 O 588.462 1.50887 0.95369 0
M  V30 6152 C 585.562 2.91604 1.72685 0
M  V30 6153 C 584.735 4.1673 1.32873 0
M  V30 6154 C 583.794 4.68269 2.40022 0
M  V30 6155 O 582.82 5.31976 2.02461 0
M  V30 6156 N 584.022 4.45983 3.7159 0
M  V30 6157 H 586.787 2.99588 -0.0819391 0
M  V30 6158 H 584.348 1.60787 -0.189544 0
M  V30 6159 H 586.34 3.22992 2.4384 0
M  V30 6160 H 584.91 2.18763 2.23297 0
M  V30 6161 H 584.13 3.91657 0.447069 0
M  V30 6162 H 585.418 4.98078 1.03902 0
M  V30 6163 H 584.816 3.95077 4.04883 0
M  V30 6164 H 583.373 4.81924 4.38854 0
M  V30 6165 N 586.806 0.0935595 1.57322 0
M  V30 6166 C 587.716 -0.880192 2.17462 0
M  V30 6167 C 588.732 -1.31135 1.14366 0
M  V30 6168 O 589.908 -1.37958 1.46729 0
M  V30 6169 C 586.973 -2.12184 2.74188 0
M  V30 6170 C 586.034 -1.74503 3.92234 0
M  V30 6171 C 585.267 -2.92748 4.46245 0
M  V30 6172 O 585.49 -4.07427 3.99198 0
M  V30 6173 O 584.424 -2.71303 5.37288 0
M  V30 6174 H 588.25 -0.398516 3.01074 0
M  V30 6175 H 585.835 -0.130707 1.48827 0
M  V30 6176 H 587.717 -2.84953 3.10451 0
M  V30 6177 H 586.392 -2.59407 1.93623 0
M  V30 6178 H 585.299 -0.989186 3.60785 0
M  V30 6179 H 586.632 -1.32044 4.74157 0
M  V30 6180 N 588.284 -1.56567 -0.180126 0
M  V30 6181 C 589.247 -1.94852 -1.20686 0
M  V30 6182 C 590.247 -0.831212 -1.3765 0
M  V30 6183 O 591.437 -1.09841 -1.35206 0
M  V30 6184 C 588.569 -2.23565 -2.57355 0
M  V30 6185 H 589.762 -2.86722 -0.879225 0
M  V30 6186 H 587.315 -1.50489 -0.422237 0
M  V30 6187 H 588.05 -1.34381 -2.95148 0
M  V30 6188 H 587.835 -3.04999 -2.46411 0
M  V30 6189 H 589.325 -2.54137 -3.31367 0
M  V30 6190 N 589.762 0.448376 -1.51087 0
M  V30 6191 C 590.672 1.56882 -1.74428 0
M  V30 6192 C 591.688 1.62268 -0.62809 0
M  V30 6193 O 592.864 1.79716 -0.909075 0
M  V30 6194 C 589.929 2.92947 -1.85426 0
M  V30 6195 C 588.99 2.97766 -3.09247 0
M  V30 6196 C 588.223 4.27341 -3.19711 0
M  V30 6197 O 588.446 5.19112 -2.36387 0
M  V30 6198 O 587.38 4.38219 -4.12611 0
M  V30 6199 H 591.206 1.40104 -2.69452 0
M  V30 6200 H 588.791 0.630247 -1.35456 0
M  V30 6201 H 590.673 3.73719 -1.94709 0
M  V30 6202 H 589.348 3.09876 -0.935887 0
M  V30 6203 H 588.255 2.15989 -3.0545 0
M  V30 6204 H 589.588 2.8578 -4.00738 0
M  V30 6205 N 591.24 1.41047 0.703093 0
M  V30 6206 C 592.656 1.23351 1.01275 0
M  V30 6207 C 592.856 0.11754 2.01157 0
M  V30 6208 O 591.912 -0.520518 2.47077 0
M  V30 6209 C 593.225 2.58001 1.54454 0
M  V30 6210 C 594.773 2.65119 1.66376 0
M  V30 6211 C 595.248 4.00067 2.22958 0
M  V30 6212 N 596.739 4.01875 2.30328 0
M  V30 6213 C 597.474 5.03087 2.75119 0
M  V30 6214 N 596.97 6.14692 3.19571 0
M  V30 6215 N 598.763 4.90451 2.74616 0
M  V30 6216 H 590.914 2.1236 0.0412686 0
M  V30 6217 H 593.177 0.944543 0.08089 0
M  V30 6218 H 592.883 3.40378 0.88521 0
M  V30 6219 H 592.757 2.79962 2.52786 0
M  V30 6220 H 595.144 1.83106 2.31422 0
M  V30 6221 H 595.225 2.46975 0.666089 0
M  V30 6222 H 594.869 4.82526 1.58529 0
M  V30 6223 H 594.799 4.15547 3.23462 0
M  V30 6224 H 597.29 3.21291 1.98949 0
M  V30 6225 H 597.603 6.87799 3.52352 0
M  V30 6226 H 595.948 6.18239 3.17498 0
M  V30 6227 H 599.139 4.0235 2.39233 0
M  V30 6228 H 599.312 5.6947 3.09206 0
M  V30 6229 N 592.718 -0.936591 1.26751 0
M  V30 6230 C 593.65 -2.03991 1.045 0
M  V30 6231 C 594.663 -1.628 0.00394261 0
M  V30 6232 O 595.852 -1.76817 0.244526 0
M  V30 6233 C 592.952 -3.34218 0.561403 0
M  V30 6234 C 592.125 -4.04151 1.67274 0
M  V30 6235 C 591.184 -5.12651 1.1864 0
M  V30 6236 O 590.21 -5.37104 1.88437 0
M  V30 6237 N 591.412 -5.80488 0.037278 0
M  V30 6238 H 594.177 -2.23644 1.99508 0
M  V30 6239 H 591.738 -1.10638 1.18198 0
M  V30 6240 H 593.73 -4.04101 0.220136 0
M  V30 6241 H 592.3 -3.11203 -0.295211 0
M  V30 6242 H 591.52 -3.28121 2.18472 0
M  V30 6243 H 592.808 -4.47626 2.41885 0
M  V30 6244 H 592.206 -5.63064 -0.545494 0
M  V30 6245 H 590.763 -6.5134 -0.244877 0
M  V30 6246 N 594.196 -1.08629 -1.14182 0
M  V30 6247 C 595.159 -0.722027 -2.1753 0
M  V30 6248 C 596.159 0.244305 -1.58933 0
M  V30 6249 O 597.349 0.0235545 -1.74184 0
M  V30 6250 C 594.481 -0.0663966 -3.40835 0
M  V30 6251 H 595.674 -1.63719 -2.51269 0
M  V30 6252 H 593.227 -0.884442 -1.28869 0
M  V30 6253 H 593.962 0.860389 -3.12678 0
M  V30 6254 H 593.747 -0.761598 -3.84632 0
M  V30 6255 H 595.237 0.173346 -4.1724 0
M  V30 6256 N 595.674 1.31259 -0.872281 0
M  V30 6257 C 596.604 2.30929 -0.345554 0
M  V30 6258 C 597.585 1.60449 0.5648 0
M  V30 6259 O 598.77 1.8814 0.481335 0
M  V30 6260 C 595.9 3.44348 0.451823 0
M  V30 6261 C 594.854 4.26435 -0.365641 0
M  V30 6262 C 594.18 5.31785 0.557562 0
M  V30 6263 C 595.48 4.97159 -1.60095 0
M  V30 6264 H 597.174 2.75234 -1.17841 0
M  V30 6265 H 594.72 1.3232 -0.568094 0
M  V30 6266 H 596.673 4.13128 0.830854 0
M  V30 6267 H 595.397 2.98816 1.31821 0
M  V30 6268 H 594.056 3.59326 -0.726649 0
M  V30 6269 H 593.704 4.82502 1.4213 0
M  V30 6270 H 593.404 5.87598 0.0144878 0
M  V30 6271 H 594.928 6.03424 0.933387 0
M  V30 6272 H 596.342 5.58523 -1.29323 0
M  V30 6273 H 594.739 5.62779 -2.08327 0
M  V30 6274 H 595.809 4.24012 -2.35249 0
M  V30 6275 N 597.152 0.631951 1.44375 0
M  V30 6276 C 598.084 -0.110911 2.28931 0
M  V30 6277 C 599.097 -0.808086 1.41329 0
M  V30 6278 O 600.286 -0.669396 1.65473 0
M  V30 6279 C 597.386 -1.17928 3.1772 0
M  V30 6280 C 596.559 -0.564458 4.33743 0
M  V30 6281 C 595.618 -1.5269 5.0356 0
M  V30 6282 O 594.644 -1.04372 5.59549 0
M  V30 6283 N 595.846 -2.86123 5.05088 0
M  V30 6284 H 598.611 0.614758 2.93327 0
M  V30 6285 H 596.172 0.473171 1.54831 0
M  V30 6286 H 598.164 -1.82348 3.61291 0
M  V30 6287 H 596.734 -1.80717 2.55069 0
M  V30 6288 H 595.954 0.258373 3.93352 0
M  V30 6289 H 597.242 -0.134355 5.08623 0
M  V30 6290 H 596.64 -3.27959 4.60933 0
M  V30 6291 H 595.197 -3.45901 5.52445 0
M  V30 6292 N 598.631 -1.53133 0.372548 0
M  V30 6293 C 599.856 -2.0625 -0.218098 0
M  V30 6294 C 600.281 -1.24375 -1.41111 0
M  V30 6295 O 599.639 -0.264554 -1.79359 0
M  V30 6296 C 599.687 -3.55858 -0.582876 0
M  V30 6297 O 598.791 -3.76667 -1.67917 0
M  V30 6298 H 598.132 -0.663317 -0.030104 0
M  V30 6299 H 600.662 -1.97477 0.535169 0
M  V30 6300 H 600.672 -3.99007 -0.851925 0
M  V30 6301 H 599.347 -4.14892 0.289428 0
M  V30 6302 H 597.924 -3.45413 -1.40513 0
M  V30 6303 N 600.109 -0.101901 -1.5727 0
M  V30 6304 C 601.039 0.851544 -2.17419 0
M  V30 6305 C 602.02 1.28942 -1.10941 0
M  V30 6306 O 603.205 1.35509 -1.39107 0
M  V30 6307 C 600.335 2.10816 -2.75996 0
M  V30 6308 C 599.289 1.80867 -3.87906 0
M  V30 6309 C 598.615 3.13413 -4.33216 0
M  V30 6310 C 599.915 1.0903 -5.10793 0
M  V30 6311 H 601.609 0.350381 -2.97343 0
M  V30 6312 H 599.155 0.16709 -1.43027 0
M  V30 6313 H 601.108 2.77959 -3.16729 0
M  V30 6314 H 599.832 2.63227 -1.93337 0
M  V30 6315 H 598.491 1.16119 -3.47724 0
M  V30 6316 H 598.139 3.63725 -3.47438 0
M  V30 6317 H 597.839 2.94155 -5.08671 0
M  V30 6318 H 599.363 3.81704 -4.76586 0
M  V30 6319 H 600.777 1.66295 -5.48652 0
M  V30 6320 H 599.174 0.99927 -5.91722 0
M  V30 6321 H 600.244 0.0741704 -4.84843 0
M  V30 6322 N 601.587 1.56661 0.17182 0
M  V30 6323 C 603.003 1.50768 0.52357 0
M  V30 6324 C 603.203 0.806072 1.84675 0
M  V30 6325 O 602.259 0.366233 2.4983 0
M  V30 6326 C 603.572 2.955 0.556793 0
M  V30 6327 C 605.12 3.06303 0.644029 0
M  V30 6328 C 605.595 4.52492 0.708148 0
M  V30 6329 N 607.086 4.56737 0.771051 0
M  V30 6330 C 607.821 5.67196 0.841229 0
M  V30 6331 N 607.317 6.87287 0.872272 0
M  V30 6332 N 609.11 5.55165 0.88021 0
M  V30 6333 H 601.261 2.00679 -0.695817 0
M  V30 6334 H 603.524 0.914219 -0.250814 0
M  V30 6335 H 603.23 3.49986 -0.346774 0
M  V30 6336 H 603.104 3.50119 1.40346 0
M  V30 6337 H 605.491 2.51851 1.53802 0
M  V30 6338 H 605.572 2.5477 -0.229297 0
M  V30 6339 H 605.216 5.07575 -0.181585 0
M  V30 6340 H 605.146 5.01781 1.59761 0
M  V30 6341 H 607.637 3.70274 0.755364 0
M  V30 6342 H 607.95 7.6722 0.92698 0
M  V30 6343 H 606.295 6.89898 0.840557 0
M  V30 6344 H 609.486 4.60263 0.852956 0
M  V30 6345 H 609.659 6.41271 0.931439 0
M  V30 6346 N 603.065 -0.440357 1.51323 0
M  V30 6347 C 603.997 -1.55254 1.68609 0
M  V30 6348 C 605.01 -1.52614 0.566812 0
M  V30 6349 O 606.199 -1.57445 0.841032 0
M  V30 6350 C 603.299 -2.94169 1.68279 0
M  V30 6351 C 602.472 -3.21346 2.96742 0
M  V30 6352 C 601.531 -4.3997 2.8864 0
M  V30 6353 O 600.557 -4.38771 3.62586 0
M  V30 6354 N 601.759 -5.43367 2.04285 0
M  V30 6355 H 604.524 -1.40831 2.6455 0
M  V30 6356 H 602.085 -0.629251 1.49171 0
M  V30 6357 H 604.077 -3.71543 1.60431 0
M  V30 6358 H 602.647 -3.02205 0.799441 0
M  V30 6359 H 601.867 -2.32299 3.18482 0
M  V30 6360 H 603.155 -3.3633 3.81785 0
M  V30 6361 H 602.553 -5.47176 1.43578 0
M  V30 6362 H 601.11 -6.19605 2.02318 0
M  V30 6363 N 604.543 -1.41418 -0.695603 0
M  V30 6364 C 605.791 -1.40496 -1.45277 0
M  V30 6365 C 606.112 -0.0149538 -1.94994 0
M  V30 6366 O 605.382 0.9432 -1.71699 0
M  V30 6367 H 603.962 -0.517147 -0.539044 0
M  V30 6368 H 606.624 -1.76656 -0.823321 0
M  V30 6369 H 605.72 -2.09214 -2.31595 0
M  V30 6370 N 606.021 0.929856 -1.27246 0
M  V30 6371 C 607.269 1.674 -1.13233 0
M  V30 6372 C 607.59 1.92311 0.322744 0
M  V30 6373 O 606.86 1.52784 1.22612 0
M  V30 6374 H 605.44 0.620411 -0.416052 0
M  V30 6375 H 608.102 1.11663 -1.59741 0
M  V30 6376 H 607.198 2.64308 -1.65975 0
M  V30 6377 N 607.499 1.09233 1.13605 0
M  V30 6378 C 608.727 0.848908 1.88683 0
M  V30 6379 C 609.142 -0.599667 1.79024 0
M  V30 6380 O 608.499 -1.41265 1.15544 0
M  V30 6381 C 608.55 1.27273 3.38355 0
M  V30 6382 O 608.271 2.66449 3.47759 0
M  V30 6383 C 609.772 1.0614 4.30406 0
M  V30 6384 H 606.992 0.305549 0.597395 0
M  V30 6385 H 609.536 1.4538 1.43823 0
M  V30 6386 H 607.691 0.711776 3.80805 0
M  V30 6387 H 608.105 2.84264 4.40788 0
M  V30 6388 H 609.579 1.40725 5.33761 0
M  V30 6389 H 610.056 -0.000960332 4.392 0
M  V30 6390 H 610.662 1.60821 3.93722 0
M  V30 6391 N 608.977 -1.30795 0.87923 0
M  V30 6392 C 609.907 -2.30742 0.357796 0
M  V30 6393 C 610.888 -1.60747 -0.556283 0
M  V30 6394 O 612.073 -1.88393 -0.47135 0
M  V30 6395 C 609.203 -3.44583 -0.433555 0
M  V30 6396 C 608.157 -4.26235 0.388251 0
M  V30 6397 C 607.483 -5.32073 -0.529352 0
M  V30 6398 C 608.783 -4.96303 1.62729 0
M  V30 6399 H 610.477 -2.74605 1.19299 0
M  V30 6400 H 608.023 -1.32017 0.575104 0
M  V30 6401 H 609.976 -4.13563 -0.808934 0
M  V30 6402 H 608.7 -2.99511 -1.30234 0
M  V30 6403 H 607.359 -3.58936 0.745695 0
M  V30 6404 H 607.007 -4.83249 -1.39569 0
M  V30 6405 H 606.707 -5.87598 0.0166741 0
M  V30 6406 H 608.231 -6.0391 -0.901373 0
M  V30 6407 H 609.645 -5.5783 1.32283 0
M  V30 6408 H 608.042 -5.61666 2.11309 0
M  V30 6409 H 609.112 -4.22758 2.37494 0
M  V30 6410 N 610.455 -0.639598 -1.44038 0
M  V30 6411 C 611.683 -0.154811 -2.0632 0
M  V30 6412 C 612.098 1.17406 -1.47856 0
M  V30 6413 O 611.455 1.72193 -0.604638 0
M  V30 6414 C 611.506 -0.0429958 -3.61474 0
M  V30 6415 O 611.227 -1.31932 -4.17763 0
M  V30 6416 C 612.728 0.469486 -4.40807 0
M  V30 6417 H 609.948 -0.0835862 -0.665773 0
M  V30 6418 H 612.492 -0.876397 -1.84769 0
M  V30 6419 H 610.647 0.629075 -3.82258 0
M  V30 6420 H 611.061 -1.16965 -5.11292 0
M  V30 6421 H 612.535 0.496712 -5.49761 0
M  V30 6422 H 613.012 1.49819 -4.12857 0
M  V30 6423 H 613.618 -0.169624 -4.24962 0
M  V30 6424 N 611.933 1.52934 -0.380664 0
M  V30 6425 C 613.181 2.01069 0.203874 0
M  V30 6426 C 613.502 1.26922 1.4804 0
M  V30 6427 O 612.772 0.386787 1.92044 0
M  V30 6428 H 611.352 0.742882 0.0783279 0
M  V30 6429 H 614.014 1.88099 -0.510368 0
M  V30 6430 H 613.11 3.09258 0.42021 0
M  V30 6431 N 613.412 0.11024 1.57214 0
M  V30 6432 C 614.359 -0.843195 2.14846 0
M  V30 6433 C 615.329 -1.26954 1.07107 0
M  V30 6434 O 616.514 -1.34861 1.34971 0
M  V30 6435 C 613.654 -2.09123 2.74521 0
M  V30 6436 C 612.767 -1.71404 3.96541 0
M  V30 6437 C 611.902 -2.91107 4.44331 0
M  V30 6438 C 610.941 -2.49586 5.58903 0
M  V30 6439 N 610.078 -3.62175 6.01477 0
M  V30 6440 H 614.918 -0.344886 2.95998 0
M  V30 6441 H 612.455 -0.15855 1.46243 0
M  V30 6442 H 614.413 -2.82234 3.07246 0
M  V30 6443 H 613.043 -2.56427 1.96074 0
M  V30 6444 H 612.095 -0.88201 3.70033 0
M  V30 6445 H 613.407 -1.36884 4.7965 0
M  V30 6446 H 612.561 -3.72454 4.78919 0
M  V30 6447 H 611.3 -3.28848 3.60153 0
M  V30 6448 H 610.305 -1.6667 5.23929 0
M  V30 6449 H 611.53 -2.12973 6.4484 0
M  V30 6450 H 609.476 -3.99605 5.20242 0
M  V30 6451 H 609.393 -3.3155 6.79419 0
M  V30 6452 H 610.661 -4.43987 6.407 0
M  V30 6453 N 614.89 -1.56749 -0.16351 0
M  V30 6454 C 616.137 -1.82434 -0.878866 0
M  V30 6455 C 616.465 -0.688557 -1.81904 0
M  V30 6456 O 615.72 0.323644 -1.93005 0
M  V30 6457 C 616.019 -3.14342 -1.70071 0
M  V30 6458 C 615.685 -4.41647 -0.908775 0
M  V30 6459 C 614.347 -4.76224 -0.690236 0
M  V30 6460 C 616.699 -5.19998 -0.353815 0
M  V30 6461 C 614.027 -5.86624 0.0942374 0
M  V30 6462 C 616.379 -6.3122 0.41761 0
M  V30 6463 C 615.043 -6.64358 0.646879 0
M  V30 6464 H 614.313 -0.667574 -0.3216 0
M  V30 6465 H 616.96 -1.90963 -0.14337 0
M  V30 6466 H 615.265 -3.0119 -2.50583 0
M  V30 6467 H 616.962 -3.31426 -2.25738 0
M  V30 6468 H 613.552 -4.1453 -1.08916 0
M  V30 6469 H 617.736 -4.93673 -0.509975 0
M  V30 6470 H 612.992 -6.10751 0.281529 0
M  V30 6471 H 617.166 -6.91133 0.854849 0
M  V30 6472 H 614.793 -7.49742 1.25662 0
M  V30 6473 N 616.368 0.432326 -1.51554 0
M  V30 6474 C 617.301 1.54525 -1.6792 0
M  V30 6475 C 618.279 1.53831 -0.526764 0
M  V30 6476 O 619.463 1.72884 -0.751233 0
M  V30 6477 C 616.59 2.931 -1.69736 0
M  V30 6478 C 615.636 3.11799 -2.91005 0
M  V30 6479 S 616.469 2.87565 -4.51737 0
M  V30 6480 C 617.625 4.28412 -4.56305 0
M  V30 6481 H 617.858 1.4041 -2.62054 0
M  V30 6482 H 615.391 0.622357 -1.41301 0
M  V30 6483 H 617.349 3.72974 -1.71467 0
M  V30 6484 H 616.01 3.04574 -0.767705 0
M  V30 6485 H 615.203 4.13127 -2.8869 0
M  V30 6486 H 614.805 2.39757 -2.87041 0
M  V30 6487 H 617.097 5.21692 -4.32254 0
M  V30 6488 H 618.04 4.35758 -5.58141 0
M  V30 6489 H 618.448 4.12301 -3.85576 0
M  V30 6490 N 617.846 1.41785 0.688094 0
M  V30 6491 C 619.071 1.45117 1.48175 0
M  V30 6492 C 619.496 0.060129 1.88004 0
M  V30 6493 O 618.854 -0.938385 1.55126 0
M  V30 6494 C 618.902 2.37224 2.71583 0
M  V30 6495 O 618.006 1.83443 3.69354 0
M  V30 6496 H 617.347 0.492208 0.445676 0
M  V30 6497 H 619.877 1.86329 0.845145 0
M  V30 6498 H 619.887 2.53353 3.19806 0
M  V30 6499 H 618.562 3.38293 2.41931 0
M  V30 6500 H 617.139 1.76802 3.28322 0
M  V30 6501 N 619.324 -0.923095 1.27737 0
M  V30 6502 C 620.552 -1.70525 1.17171 0
M  V30 6503 C 620.967 -1.86847 -0.270881 0
M  V30 6504 O 620.324 -1.38879 -1.18401 0
M  V30 6505 C 620.375 -3.10242 1.85559 0
M  V30 6506 O 620.096 -2.94683 3.24182 0
M  V30 6507 C 621.597 -4.04586 1.81176 0
M  V30 6508 H 618.817 -0.533347 0.407163 0
M  V30 6509 H 621.361 -1.15599 1.68692 0
M  V30 6510 H 619.516 -3.62014 1.3793 0
M  V30 6511 H 619.93 -3.83045 3.58297 0
M  V30 6512 H 621.404 -5.00119 2.33633 0
M  V30 6513 H 621.881 -4.3218 0.782099 0
M  V30 6514 H 622.487 -3.58741 2.2844 0
M  V30 6515 N 620.802 -1.09834 -1.13024 0
M  V30 6516 C 622.027 -0.85909 -1.88771 0
M  V30 6517 C 622.452 0.584402 -1.78791 0
M  V30 6518 O 621.81 1.41101 -1.13842 0
M  V30 6519 C 621.858 -1.30427 -3.36186 0
M  V30 6520 O 620.962 -0.465368 -4.09766 0
M  V30 6521 H 620.303 -0.310786 -0.586778 0
M  V30 6522 H 622.833 -1.46355 -1.42973 0
M  V30 6523 H 622.843 -1.2915 -3.8702 0
M  V30 6524 H 621.518 -2.3555 -3.42767 0
M  V30 6525 H 620.095 -0.542814 -3.68928 0
M  V30 6526 N 622.28 1.30327 -0.886154 0
M  V30 6527 C 623.505 2.0079 -0.519425 0
M  V30 6528 C 623.93 1.65979 0.885013 0
M  V30 6529 O 623.288 0.877043 1.58675 0
M  V30 6530 C 623.336 3.53686 -0.702758 0
M  V30 6531 O 622.44 4.11637 0.250828 0
M  V30 6532 H 621.781 0.63171 -0.204544 0
M  V30 6533 H 624.311 1.66145 -1.19402 0
M  V30 6534 H 624.321 4.03531 -0.602207 0
M  V30 6535 H 622.996 3.78361 -1.72673 0
M  V30 6536 H 621.573 3.72755 0.103873 0
M  V30 6537 N 623.758 0.647228 1.43697 0
M  V30 6538 C 625.007 0.155552 2.01099 0
M  V30 6539 C 625.32 -1.23569 1.51624 0
M  V30 6540 O 626.526 -1.82226 2.01261 0
M  V30 6541 C 624.982 0.227296 3.59182 0
M  V30 6542 C 624.59 1.62086 4.17651 0
M  V30 6543 C 626.334 -0.207085 4.23995 0
M  V30 6544 C 624.241 1.64685 5.68008 0
M  V30 6545 H 623.171 0.0543895 0.752036 0
M  V30 6546 H 625.822 0.808386 1.64734 0
M  V30 6547 H 624.204 -0.492937 3.9292 0
M  V30 6548 H 625.378 2.36597 3.95422 0
M  V30 6549 H 623.693 2.0007 3.65186 0
M  V30 6550 H 626.29 -0.207426 5.34298 0
M  V30 6551 H 626.633 -1.23742 3.97484 0
M  V30 6552 H 627.166 0.461193 3.95118 0
M  V30 6553 H 623.905 2.65608 5.99277 0
M  V30 6554 H 623.425 0.944914 5.9231 0
M  V30 6555 H 625.104 1.38792 6.31938 0
M  V30 6556 N 625.236 -1.5273 0.388769 0
M  V30 6557 C 626.647 -1.86505 -0.0853788 0
M  V30 6558 C 626.998 -1.30847 -1.46197 0
M  V30 6559 O 626.123 -0.639609 -2.06732 0
M  V30 6560 C 626.718 -3.38414 -0.161703 0
M  V30 6561 C 625.277 -3.71902 -0.580144 0
M  V30 6562 C 624.424 -2.76095 0.258218 0
M  V30 6563 H 627.375 -1.46647 0.606665 0
M  V30 6564 H 627.396 -3.67638 -0.980936 0
M  V30 6565 H 626.908 -3.78893 0.840333 0
M  V30 6566 H 625.009 -3.36992 -1.58957 0
M  V30 6567 H 625.122 -4.77902 -0.338663 0
M  V30 6568 H 623.486 -2.53195 -0.276432 0
M  V30 6569 H 624.269 -3.19411 1.25822 0
M  V30 6570 N 626.714 -0.118576 -1.57153 0
M  V30 6571 C 627.962 0.538461 -1.94795 0
M  V30 6572 C 628.283 1.67243 -1.00274 0
M  V30 6573 O 627.553 1.95811 -0.0589692 0
M  V30 6574 H 626.133 0.201904 -0.719197 0
M  V30 6575 H 628.795 -0.187418 -1.93997 0
M  V30 6576 H 627.891 0.933315 -2.97818 0
M  V30 6577 N 628.193 1.56834 0.155195 0
M  V30 6578 C 629.433 1.84701 0.875488 0
M  V30 6579 C 629.797 0.701747 1.78716 0
M  V30 6580 O 630.998 0.861263 2.54629 0
M  V30 6581 C 629.269 3.1773 1.63654 0
M  V30 6582 S 630.828 3.67128 2.40338 0
M  V30 6583 H 627.646 0.647856 0.292923 0
M  V30 6584 H 630.248 1.95026 0.136024 0
M  V30 6585 H 628.952 3.99059 0.958117 0
M  V30 6586 H 628.483 3.10388 2.41708 0
M  V30 6587 H 630.498 3.35739 3.65368 0
M  V30 6588 N 629.671 -0.424282 1.51781 0
M  V30 6589 C 630.601 -1.52305 1.7699 0
M  V30 6590 C 631.582 -1.5839 0.620209 0
M  V30 6591 O 632.767 -1.73908 0.864268 0
M  V30 6592 C 629.897 -2.90271 1.90683 0
M  V30 6593 C 628.851 -2.99043 3.06198 0
M  V30 6594 C 628.177 -4.39116 3.05092 0
M  V30 6595 C 629.477 -2.7192 4.45934 0
M  V30 6596 H 631.171 -1.31461 2.68995 0
M  V30 6597 H 628.717 -0.630985 1.29439 0
M  V30 6598 H 630.67 -3.6711 2.06901 0
M  V30 6599 H 629.394 -3.12376 0.953365 0
M  V30 6600 H 628.053 -2.24646 2.89706 0
M  V30 6601 H 627.701 -4.58207 2.07498 0
M  V30 6602 H 627.401 -4.45912 3.82669 0
M  V30 6603 H 628.925 -5.17911 3.2342 0
M  V30 6604 H 630.339 -3.38487 4.62709 0
M  V30 6605 H 628.736 -2.90111 5.25315 0
M  V30 6606 H 629.806 -1.67445 4.55072 0
M  V30 6607 N 631.149 -1.42148 -0.680565 0
M  V30 6608 C 632.079 -1.4796 -1.80638 0
M  V30 6609 C 633.06 -0.336728 -1.66734 0
M  V30 6610 O 634.245 -0.550247 -1.86242 0
M  V30 6611 C 631.375 -1.37569 -3.18892 0
M  V30 6612 C 630.329 -2.49823 -3.47524 0
M  V30 6613 C 629.655 -2.24491 -4.85291 0
M  V30 6614 C 630.955 -3.92144 -3.44994 0
M  V30 6615 H 632.649 -2.42184 -1.76032 0
M  V30 6616 H 630.195 -1.16566 -0.845481 0
M  V30 6617 H 632.148 -1.40243 -3.97379 0
M  V30 6618 H 630.872 -0.398357 -3.24162 0
M  V30 6619 H 629.531 -2.46455 -2.71395 0
M  V30 6620 H 629.179 -1.25066 -4.87204 0
M  V30 6621 H 628.879 -2.99722 -5.05411 0
M  V30 6622 H 630.403 -2.28906 -5.66069 0
M  V30 6623 H 631.817 -3.97145 -4.13459 0
M  V30 6624 H 630.214 -4.67179 -3.76648 0
M  V30 6625 H 631.284 -4.19225 -2.43676 0
M  V30 6626 N 632.627 0.916307 -1.28225 0
M  V30 6627 C 633.875 1.6619 -1.15002 0
M  V30 6628 C 634.196 1.92642 0.302329 0
M  V30 6629 O 633.466 1.54076 1.20985 0
M  V30 6630 H 632.046 0.615964 -0.422608 0
M  V30 6631 H 634.708 1.09963 -1.60917 0
M  V30 6632 H 633.804 2.62533 -1.68769 0
M  V30 6633 N 634.105 1.10431 1.1244 0
M  V30 6634 C 635.351 0.847972 1.84221 0
M  V30 6635 C 635.684 -0.624903 1.83871 0
M  V30 6636 O 634.959 -1.46074 1.28423 0
M  V30 6637 C 635.242 1.39695 3.319 0
M  V30 6638 C 635.095 2.93668 3.40704 0
M  V30 6639 C 636.414 1.03924 4.27654 0
M  V30 6640 H 633.533 0.309502 0.668863 0
M  V30 6641 H 636.175 1.36745 1.31912 0
M  V30 6642 H 634.325 0.955095 3.76577 0
M  V30 6643 H 635.997 3.46379 3.04662 0
M  V30 6644 H 634.24 3.30272 2.81252 0
M  V30 6645 H 634.911 3.27162 4.446 0
M  V30 6646 H 637.387 1.42049 3.91102 0
M  V30 6647 H 636.263 1.45027 5.29394 0
M  V30 6648 H 636.524 -0.051336 4.4207 0
M  V30 6649 N 635.583 -1.29855 0.893053 0
M  V30 6650 C 636.546 -2.26183 0.370687 0
M  V30 6651 C 637.546 -1.53108 -0.491385 0
M  V30 6652 O 638.736 -1.71643 -0.297386 0
M  V30 6653 C 635.868 -3.37633 -0.470827 0
M  V30 6654 H 637.061 -2.73903 1.22135 0
M  V30 6655 H 634.614 -1.41183 0.67061 0
M  V30 6656 H 635.349 -2.95241 -1.34175 0
M  V30 6657 H 635.134 -3.91825 0.146784 0
M  V30 6658 H 636.624 -4.09313 -0.827825 0
M  V30 6659 N 637.061 -0.65484 -1.43351 0
M  V30 6660 C 637.991 0.0221809 -2.33489 0
M  V30 6661 C 638.972 0.810272 -1.49561 0
M  V30 6662 O 640.157 0.771426 -1.78221 0
M  V30 6663 C 637.287 0.988117 -3.32947 0
M  V30 6664 C 636.241 0.310026 -4.26876 0
M  V30 6665 C 635.567 1.38752 -5.16384 0
M  V30 6666 C 636.867 -0.798589 -5.16159 0
M  V30 6667 H 638.561 -0.730571 -2.9035 0
M  V30 6668 H 636.107 -0.352773 -1.39612 0
M  V30 6669 H 638.06 1.47067 -3.94904 0
M  V30 6670 H 636.784 1.77205 -2.74346 0
M  V30 6671 H 635.443 -0.152097 -3.66284 0
M  V30 6672 H 635.091 2.16293 -4.54121 0
M  V30 6673 H 634.791 0.939051 -5.80048 0
M  V30 6674 H 636.315 1.87141 -5.81215 0
M  V30 6675 H 637.729 -0.398126 -5.71916 0
M  V30 6676 H 636.126 -1.17163 -5.88552 0
M  V30 6677 H 637.196 -1.65588 -4.55751 0
M  V30 6678 N 638.539 1.52521 -0.396863 0
M  V30 6679 C 639.449 2.30403 0.44178 0
M  V30 6680 C 640.465 1.37625 1.06468 0
M  V30 6681 O 641.641 1.70697 1.06886 0
M  V30 6682 C 638.706 3.1013 1.54986 0
M  V30 6683 C 637.767 4.18628 0.951279 0
M  V30 6684 C 637 4.94543 2.00655 0
M  V30 6685 O 637.223 4.70629 3.22281 0
M  V30 6686 O 636.157 5.797 1.61962 0
M  V30 6687 H 639.983 3.03087 -0.192892 0
M  V30 6688 H 637.568 1.48537 -0.16038 0
M  V30 6689 H 639.45 3.59816 2.19341 0
M  V30 6690 H 638.125 2.40251 2.16935 0
M  V30 6691 H 637.032 3.73119 0.270773 0
M  V30 6692 H 638.365 4.90763 0.375887 0
M  V30 6693 N 640.017 0.126909 1.57088 0
M  V30 6694 C 641.265 -0.528123 1.95078 0
M  V30 6695 C 641.586 -1.66708 1.0116 0
M  V30 6696 O 640.856 -1.95777 0.0693527 0
M  V30 6697 H 639.436 -0.198087 0.720257 0
M  V30 6698 H 642.098 0.197703 1.93895 0
M  V30 6699 H 641.194 -0.917507 2.98309 0
M  V30 6700 N 641.495 -1.56914 -0.146875 0
M  V30 6701 C 642.772 -1.74273 -0.888165 0
M  V30 6702 C 643.152 -0.69496 -1.99333 0
M  V30 6703 O 642.5 0.286093 -2.26702 0
M  V30 6704 C 642.71 -3.18336 -1.43051 0
M  V30 6705 C 644.058 -3.80024 -1.89387 0
M  V30 6706 O 645.082 -3.21765 -1.52792 0
M  V30 6707 O 643.941 -4.82367 -2.56874 0
M  V30 6708 H 641.035 -0.712565 -0.419738 0
M  V30 6709 H 643.581 -1.6918 -0.132791 0
M  V30 6710 H 642.353 -3.86092 -0.636274 0
M  V30 6711 H 641.976 -3.27854 -2.24938 0
M  V30 6712 N 642.974 0.416227 -1.52004 0
M  V30 6713 C 644.222 1.16153 -1.65387 0
M  V30 6714 C 644.543 1.91208 -0.382669 0
M  V30 6715 O 643.813 1.86413 0.602231 0
M  V30 6716 H 642.393 0.431765 -0.60958 0
M  V30 6717 H 645.055 0.475151 -1.89019 0
M  V30 6718 H 644.151 1.87952 -2.4916 0
M  V30 6719 N 644.452 1.42507 0.673017 0
M  V30 6720 C 645.677 1.4668 1.46627 0
M  V30 6721 C 646.102 0.080066 1.8793 0
M  V30 6722 O 645.46 -0.921879 1.56112 0
M  V30 6723 C 645.508 2.40091 2.69051 0
M  V30 6724 O 644.612 1.8735 3.67387 0
M  V30 6725 H 643.953 0.496908 0.44043 0
M  V30 6726 H 646.483 1.87215 0.825334 0
M  V30 6727 H 646.493 2.56731 3.17101 0
M  V30 6728 H 645.168 3.4084 2.3833 0
M  V30 6729 H 643.745 1.80274 3.26429 0
M  V30 6730 N 645.93 -0.909495 1.28709 0
M  V30 6731 C 647.341 -1.47419 1.14563 0
M  V30 6732 C 647.692 -1.94432 -0.262832 0
M  V30 6733 O 646.817 -1.82842 -1.15748 0
M  V30 6734 C 647.412 -2.67933 2.07358 0
M  V30 6735 C 645.971 -3.20568 1.97264 0
M  V30 6736 C 645.118 -1.93269 1.98852 0
M  V30 6737 H 648.069 -0.721787 1.41336 0
M  V30 6738 H 648.09 -3.43339 1.64007 0
M  V30 6739 H 647.602 -2.33685 3.09859 0
M  V30 6740 H 645.703 -3.59531 0.978157 0
M  V30 6741 H 645.816 -3.85529 2.84436 0
M  V30 6742 H 644.18 -2.10553 1.43317 0
M  V30 6743 H 644.963 -1.61312 3.0304 0
M  V30 6744 N 647.408 -1.11026 -1.11852 0
M  V30 6745 C 648.358 -0.733836 -2.15868 0
M  V30 6746 C 649.342 0.26001 -1.58785 0
M  V30 6747 O 650.534 0.0677901 -1.7687 0
M  V30 6748 C 647.663 -0.173948 -3.42859 0
M  V30 6749 C 646.749 -1.1952 -4.0691 0
M  V30 6750 N 647.14 -2.38797 -4.45881 0
M  V30 6751 C 645.438 -1.03714 -4.33773 0
M  V30 6752 C 646.139 -3.03894 -4.96007 0
M  V30 6753 N 645.115 -2.31389 -4.91894 0
M  V30 6754 H 648.917 -1.64171 -2.43773 0
M  V30 6755 H 646.431 -0.988877 -1.28822 0
M  V30 6756 H 648.428 0.113836 -4.16745 0
M  V30 6757 H 647.088 0.728568 -3.16421 0
M  V30 6758 H 648.099 -2.76281 -4.38051 0
M  V30 6759 H 644.776 -0.190694 -4.17064 0
M  V30 6760 H 646.166 -4.05389 -5.35826 0
M  V30 6761 N 648.886 1.2938 -0.899927 0
M  V30 6762 C 650.134 1.95164 -0.524924 0
M  V30 6763 C 650.455 1.71292 0.931888 0
M  V30 6764 O 649.725 1.04481 1.65712 0
M  V30 6765 H 648.305 0.722133 -0.191135 0
M  V30 6766 H 650.967 1.57628 -1.14627 0
M  V30 6767 H 650.063 3.0397 -0.707711 0
M  V30 6768 N 650.364 0.662433 1.43002 0
M  V30 6769 C 651.314 -0.0460442 2.27954 0
M  V30 6770 C 652.298 -0.785753 1.40409 0
M  V30 6771 O 653.49 -0.666701 1.63964 0
M  V30 6772 C 650.619 -1.00532 3.2825 0
M  V30 6773 C 649.705 -0.263604 4.2328 0
M  V30 6774 N 650.096 0.724855 5.00579 0
M  V30 6775 C 648.394 -0.503778 4.43146 0
M  V30 6776 C 649.095 1.16594 5.69895 0
M  V30 6777 N 648.071 0.498345 5.41311 0
M  V30 6778 H 651.873 0.712314 2.85137 0
M  V30 6779 H 649.387 0.490469 1.54817 0
M  V30 6780 H 651.384 -1.52775 3.87899 0
M  V30 6781 H 650.044 -1.76364 2.72628 0
M  V30 6782 H 651.055 1.10393 5.05998 0
M  V30 6783 H 647.732 -1.24255 3.98581 0
M  V30 6784 H 649.122 1.98434 6.4193 0
M  V30 6785 N 651.842 -1.52309 0.404946 0
M  V30 6786 C 652.805 -2.25491 -0.410651 0
M  V30 6787 C 653.805 -1.27704 -0.977154 0
M  V30 6788 O 654.995 -1.51679 -0.856691 0
M  V30 6789 C 652.127 -3.02197 -1.57765 0
M  V30 6790 H 653.32 -2.99015 0.230277 0
M  V30 6791 H 650.873 -1.55506 0.157377 0
M  V30 6792 H 651.608 -2.33013 -2.25556 0
M  V30 6793 H 651.393 -3.73987 -1.17797 0
M  V30 6794 H 652.883 -3.57719 -2.15469 0
M  V30 6795 N 653.32 -0.135238 -1.57019 0
M  V30 6796 C 654.545 0.529343 -2.00531 0
M  V30 6797 C 654.97 1.58391 -1.01459 0
M  V30 6798 O 654.328 1.81296 0.0113986 0
M  V30 6799 C 654.376 1.11748 -3.42848 0
M  V30 6800 O 653.48 2.23267 -3.46736 0
M  V30 6801 H 652.821 0.130669 -0.651016 0
M  V30 6802 H 655.351 -0.228503 -2.0332 0
M  V30 6803 H 655.361 1.44905 -3.81401 0
M  V30 6804 H 654.036 0.345147 -4.14465 0
M  V30 6805 H 652.613 1.91428 -3.20015 0
M  V30 6806 N 654.798 1.5699 0.138552 0
M  V30 6807 C 655.728 2.01933 1.17241 0
M  V30 6808 C 656.709 0.90033 1.44319 0
M  V30 6809 O 657.894 1.16872 1.55095 0
M  V30 6810 C 655.024 2.40711 2.50351 0
M  V30 6811 C 653.978 3.55874 2.37776 0
M  V30 6812 C 653.304 3.80491 3.75674 0
M  V30 6813 C 654.604 4.8826 1.85472 0
M  V30 6814 H 656.298 2.88551 0.798672 0
M  V30 6815 H 653.844 1.3882 0.382743 0
M  V30 6816 H 655.797 2.70754 3.22909 0
M  V30 6817 H 654.521 1.5104 2.89576 0
M  V30 6818 H 653.18 3.2601 1.67669 0
M  V30 6819 H 652.828 2.88057 4.12349 0
M  V30 6820 H 652.528 4.57998 3.68119 0
M  V30 6821 H 654.052 4.12967 4.49767 0
M  V30 6822 H 655.466 5.16965 2.4783 0
M  V30 6823 H 653.863 5.69631 1.88787 0
M  V30 6824 H 654.933 4.78071 0.810935 0
M  V30 6825 N 656.276 -0.40816 1.52223 0
M  V30 6826 C 657.206 -1.5042 1.78595 0
M  V30 6827 C 658.187 -1.57723 0.636974 0
M  V30 6828 O 659.372 -1.72982 0.882664 0
M  V30 6829 C 656.502 -2.88232 1.93751 0
M  V30 6830 C 655.456 -2.95779 3.09352 0
M  V30 6831 C 654.782 -4.35855 3.09732 0
M  V30 6832 C 656.082 -2.67175 4.48793 0
M  V30 6833 H 657.776 -1.28601 2.70374 0
M  V30 6834 H 655.322 -0.617221 1.30101 0
M  V30 6835 H 657.275 -3.64895 2.10783 0
M  V30 6836 H 655.999 -3.11347 0.986443 0
M  V30 6837 H 654.658 -2.21561 2.92072 0
M  V30 6838 H 654.306 -4.55981 2.12346 0
M  V30 6839 H 654.006 -4.41829 3.87377 0
M  V30 6840 H 655.53 -5.14451 3.28895 0
M  V30 6841 H 656.944 -3.3356 4.66273 0
M  V30 6842 H 655.341 -2.84523 5.28362 0
M  V30 6843 H 656.411 -1.62609 4.56822 0
M  V30 6844 N 657.755 -1.42862 -0.66545 0
M  V30 6845 C 658.687 -1.43026 -1.79098 0
M  V30 6846 C 659.7 -0.32803 -1.59461 0
M  V30 6847 O 660.889 -0.591709 -1.68407 0
M  V30 6848 C 657.989 -1.21566 -3.16346 0
M  V30 6849 C 657.162 -2.44399 -3.62751 0
M  V30 6850 C 656.221 -2.18344 -4.78761 0
M  V30 6851 O 655.247 -2.91611 -4.88827 0
M  V30 6852 N 656.449 -1.1924 -5.68122 0
M  V30 6853 H 659.214 -2.40045 -1.79439 0
M  V30 6854 H 656.775 -1.37861 -0.848872 0
M  V30 6855 H 658.767 -1.02037 -3.91625 0
M  V30 6856 H 657.337 -0.330368 -3.10849 0
M  V30 6857 H 656.557 -2.79433 -2.78048 0
M  V30 6858 H 657.845 -3.26173 -3.90498 0
M  V30 6859 H 657.243 -0.586603 -5.6265 0
M  V30 6860 H 655.8 -1.05698 -6.43173 0
M  V30 6861 N 659.233 0.902656 -1.29189 0
M  V30 6862 C 660.183 1.99326 -1.10695 0
M  V30 6863 C 661.167 1.60877 -0.0272521 0
M  V30 6864 O 662.359 1.75245 -0.248635 0
M  V30 6865 C 659.488 3.34265 -0.78244 0
M  V30 6866 C 658.574 3.79081 -1.90153 0
M  V30 6867 N 658.965 3.96162 -3.14466 0
M  V30 6868 C 657.263 4.08333 -1.79389 0
M  V30 6869 C 657.964 4.3388 -3.87458 0
M  V30 6870 N 656.94 4.42759 -3.15381 0
M  V30 6871 H 660.742 2.10597 -2.05003 0
M  V30 6872 H 658.256 1.09127 -1.20271 0
M  V30 6873 H 660.253 4.12097 -0.630996 0
M  V30 6874 H 658.913 3.2434 0.152754 0
M  V30 6875 H 659.924 3.81775 -3.49954 0
M  V30 6876 H 656.601 4.06982 -0.931217 0
M  V30 6877 H 657.991 4.54965 -4.94425 0
M  V30 6878 N 660.711 1.11618 1.11262 0
M  V30 6879 C 661.957 0.867463 1.83311 0
M  V30 6880 C 662.29 -0.605366 1.84524 0
M  V30 6881 O 661.565 -1.44704 1.29965 0
M  V30 6882 C 661.848 1.43207 3.30399 0
M  V30 6883 C 661.701 2.97265 3.3757 0
M  V30 6884 C 663.02 1.08454 4.26528 0
M  V30 6885 H 660.139 0.316578 0.665543 0
M  V30 6886 H 662.781 1.38137 1.30454 0
M  V30 6887 H 660.931 0.994982 3.75543 0
M  V30 6888 H 662.603 3.49591 3.00971 0
M  V30 6889 H 660.846 3.33237 2.77733 0
M  V30 6890 H 661.517 3.31859 4.41105 0
M  V30 6891 H 663.993 1.4619 3.89574 0
M  V30 6892 H 662.869 1.50633 5.27826 0
M  V30 6893 H 663.13 -0.00444568 4.421 0
M  V30 6894 N 662.189 -1.289 0.906776 0
M  V30 6895 C 663.119 -2.29932 0.406659 0
M  V30 6896 C 664.1 -1.6189 -0.522061 0
M  V30 6897 O 665.285 -1.8935 -0.431283 0
M  V30 6898 C 662.415 -3.45425 -0.360366 0
M  V30 6899 C 661.369 -4.25316 0.478574 0
M  V30 6900 C 660.695 -5.33076 -0.416373 0
M  V30 6901 C 661.995 -4.92739 1.7322 0
M  V30 6902 H 663.689 -2.72013 1.25097 0
M  V30 6903 H 661.235 -1.30768 0.602977 0
M  V30 6904 H 663.188 -4.15186 -0.721029 0
M  V30 6905 H 661.912 -3.02206 -1.23852 0
M  V30 6906 H 660.571 -3.57273 0.821662 0
M  V30 6907 H 660.219 -4.86101 -1.29287 0
M  V30 6908 H 659.919 -5.8743 0.141309 0
M  V30 6909 H 661.443 -6.05686 -0.773072 0
M  V30 6910 H 662.857 -5.54898 1.44086 0
M  V30 6911 H 661.254 -5.57057 2.23175 0
M  V30 6912 H 662.324 -4.17625 2.46408 0
M  V30 6913 N 663.667 -0.670007 -1.42649 0
M  V30 6914 C 664.597 -0.00258501 -2.335 0
M  V30 6915 C 665.578 0.794364 -1.50412 0
M  V30 6916 O 666.763 0.75248 -1.79029 0
M  V30 6917 C 663.893 0.952748 -3.33976 0
M  V30 6918 C 662.847 0.264733 -4.2718 0
M  V30 6919 C 662.173 1.33267 -5.17826 0
M  V30 6920 C 663.473 -0.853289 -5.15283 0
M  V30 6921 H 665.167 -0.761326 -2.89559 0
M  V30 6922 H 662.713 -0.367561 -1.3923 0
M  V30 6923 H 664.666 1.4287 -3.96442 0
M  V30 6924 H 663.39 1.74285 -2.7621 0
M  V30 6925 H 662.049 -0.190938 -3.66102 0
M  V30 6926 H 661.697 2.11464 -4.5639 0
M  V30 6927 H 661.397 0.877476 -5.81011 0
M  V30 6928 H 662.921 1.80965 -5.83167 0
M  V30 6929 H 664.335 -0.458763 -5.71462 0
M  V30 6930 H 662.732 -1.23398 -5.87276 0
M  V30 6931 H 663.802 -1.70412 -4.53969 0
M  V30 6932 N 665.145 1.52092 -0.413018 0
M  V30 6933 C 666.075 2.30021 0.401567 0
M  V30 6934 C 667.056 1.34395 1.04269 0
M  V30 6935 O 668.241 1.63304 1.05097 0
M  V30 6936 C 665.371 3.12447 1.51638 0
M  V30 6937 C 664.325 4.16153 1.00005 0
M  V30 6938 C 663.651 4.86948 2.20875 0
M  V30 6939 C 664.951 5.22275 0.0513757 0
M  V30 6940 H 666.645 2.98365 -0.248704 0
M  V30 6941 H 664.191 1.4349 -0.121052 0
M  V30 6942 H 666.144 3.65733 2.09326 0
M  V30 6943 H 664.868 2.41879 2.19458 0
M  V30 6944 H 663.527 3.63882 0.445549 0
M  V30 6945 H 663.175 4.12905 2.8726 0
M  V30 6946 H 662.875 5.57057 1.86978 0
M  V30 6947 H 664.399 5.43048 2.79162 0
M  V30 6948 H 665.813 5.70778 0.537176 0
M  V30 6949 H 664.21 5.9977 -0.198977 0
M  V30 6950 H 665.28 4.76611 -0.892736 0
M  V30 6951 N 666.623 0.143563 1.56945 0
M  V30 6952 C 667.533 -0.810562 2.20152 0
M  V30 6953 C 668.549 -1.27431 1.1848 0
M  V30 6954 O 669.725 -1.33221 1.51044 0
M  V30 6955 C 666.79 -2.03353 2.80799 0
M  V30 6956 C 665.851 -1.61936 3.97587 0
M  V30 6957 C 665.084 -2.78403 4.55332 0
M  V30 6958 O 665.307 -3.94521 4.11958 0
M  V30 6959 O 664.241 -2.54073 5.45647 0
M  V30 6960 H 668.067 -0.30253 3.02189 0
M  V30 6961 H 665.652 -0.0832925 1.49168 0
M  V30 6962 H 667.534 -2.74932 3.19359 0
M  V30 6963 H 666.209 -2.53116 2.01777 0
M  V30 6964 H 665.116 -0.873904 3.6375 0
M  V30 6965 H 666.449 -1.16892 4.78118 0
M  V30 6966 N 668.101 -1.57061 -0.130224 0
M  V30 6967 C 669.033 -1.96147 -1.18571 0
M  V30 6968 C 670.046 -0.859347 -1.38272 0
M  V30 6969 O 671.235 -1.13769 -1.37545 0
M  V30 6970 C 668.335 -2.23484 -2.54771 0
M  V30 6971 C 667.508 -3.54786 -2.55824 0
M  V30 6972 C 666.567 -3.70467 -3.73686 0
M  V30 6973 O 665.593 -4.42693 -3.57787 0
M  V30 6974 N 666.795 -3.08389 -4.91809 0
M  V30 6975 H 669.56 -2.87295 -0.853333 0
M  V30 6976 H 667.121 -1.58714 -0.319621 0
M  V30 6977 H 669.113 -2.312 -3.32158 0
M  V30 6978 H 667.683 -1.38518 -2.80235 0
M  V30 6979 H 666.903 -3.5836 -1.64232 0
M  V30 6980 H 668.191 -4.4111 -2.53573 0
M  V30 6981 H 667.589 -2.49656 -5.0763 0
M  V30 6982 H 666.146 -3.21642 -5.66912 0
M  V30 6983 N 669.579 0.400081 -1.52437 0
M  V30 6984 C 670.542 1.4707 -1.75793 0
M  V30 6985 C 671.542 1.48036 -0.627856 0
M  V30 6986 O 672.732 1.49401 -0.895817 0
M  V30 6987 C 669.864 2.86427 -1.84858 0
M  V30 6988 H 671.057 1.27649 -2.71377 0
M  V30 6989 H 668.61 0.631141 -1.42991 0
M  V30 6990 H 669.345 3.11207 -0.912194 0
M  V30 6991 H 669.13 2.87128 -2.6702 0
M  V30 6992 H 670.62 3.64023 -2.04638 0
M  V30 6993 N 671.057 1.43213 0.657864 0
M  V30 6994 C 672.473 1.26511 0.972992 0
M  V30 6995 C 672.673 0.181477 2.00681 0
M  V30 6996 O 671.729 -0.441649 2.48608 0
M  V30 6997 C 673.042 2.62784 1.46168 0
M  V30 6998 C 674.59 2.70278 1.57857 0
M  V30 6999 C 675.065 4.06958 2.10117 0
M  V30 7000 N 676.556 4.08999 2.17426 0
M  V30 7001 C 677.291 5.11585 2.58975 0
M  V30 7002 N 676.787 6.24548 2.99853 0
M  V30 7003 N 678.58 4.9894 2.58873 0
M  V30 7004 H 670.731 2.12384 -0.0263129 0
M  V30 7005 H 672.994 0.946638 0.0507992 0
M  V30 7006 H 672.7 3.43022 0.776474 0
M  V30 7007 H 672.574 2.87863 2.43751 0
M  V30 7008 H 674.961 1.90376 2.25479 0
M  V30 7009 H 675.042 2.4897 0.587179 0
M  V30 7010 H 674.686 4.87325 1.43098 0
M  V30 7011 H 674.616 4.25628 3.10078 0
M  V30 7012 H 677.107 3.27457 1.88627 0
M  V30 7013 H 677.42 6.98661 3.30292 0
M  V30 7014 H 675.765 6.28027 2.97669 0
M  V30 7015 H 678.956 4.09757 2.26311 0
M  V30 7016 H 679.129 5.79019 2.90932 0
M  V30 7017 N 672.536 -0.895792 1.29666 0
M  V30 7018 C 673.468 -2.00563 1.10937 0
M  V30 7019 C 674.481 -1.62705 0.055734 0
M  V30 7020 O 675.67 -1.7595 0.300656 0
M  V30 7021 C 672.77 -3.32262 0.667448 0
M  V30 7022 C 671.943 -3.98625 1.80047 0
M  V30 7023 C 671.002 -5.08617 1.3489 0
M  V30 7024 O 670.028 -5.30837 2.05429 0
M  V30 7025 N 671.23 -5.80076 0.221937 0
M  V30 7026 H 673.995 -2.17184 2.06522 0
M  V30 7027 H 671.556 -1.06822 1.21658 0
M  V30 7028 H 673.548 -4.03196 0.348586 0
M  V30 7029 H 672.118 -3.11985 -0.196055 0
M  V30 7030 H 671.338 -3.21005 2.28801 0
M  V30 7031 H 672.626 -4.39704 2.56003 0
M  V30 7032 H 672.024 -5.64514 -0.366084 0
M  V30 7033 H 670.581 -6.51789 -0.0375346 0
M  V30 7034 N 674.014 -1.12206 -1.10668 0
M  V30 7035 C 674.946 -0.74552 -2.16736 0
M  V30 7036 C 675.959 0.226696 -1.61214 0
M  V30 7037 O 677.148 0.0083936 -1.78498 0
M  V30 7038 C 674.248 -0.0823368 -3.388 0
M  V30 7039 C 673.421 -1.08341 -4.2377 0
M  V30 7040 C 672.48 -0.448292 -5.24287 0
M  V30 7041 O 671.506 -1.10458 -5.58379 0
M  V30 7042 N 672.708 0.785336 -5.75163 0
M  V30 7043 H 675.473 -1.65818 -2.49649 0
M  V30 7044 H 673.034 -1.01335 -1.26265 0
M  V30 7045 H 675.026 0.354476 -4.03145 0
M  V30 7046 H 673.596 0.733041 -3.03884 0
M  V30 7047 H 672.816 -1.69792 -3.55759 0
M  V30 7048 H 674.104 -1.76042 -4.77375 0
M  V30 7049 H 673.502 1.33755 -5.4966 0
M  V30 7050 H 672.059 1.16501 -6.41304 0
M  V30 7051 N 675.492 1.28418 -0.913599 0
M  V30 7052 C 676.717 1.99643 -0.561899 0
M  V30 7053 C 677.142 1.67819 0.849608 0
M  V30 7054 O 676.5 0.910503 1.56779 0
M  V30 7055 C 676.548 3.52116 -0.777622 0
M  V30 7056 O 675.652 4.12076 0.163457 0
M  V30 7057 H 674.993 0.627229 -0.217898 0
M  V30 7058 H 677.523 1.63575 -1.229 0
M  V30 7059 H 677.533 4.02163 -0.687666 0
M  V30 7060 H 676.208 3.74613 -1.8066 0
M  V30 7061 H 674.785 3.72892 0.0247827 0
M  V30 7062 N 676.97 0.677563 1.42291 0
M  V30 7063 C 678.198 0.209459 2.05837 0
M  V30 7064 C 678.613 -1.13444 1.50917 0
M  V30 7065 O 677.97 -1.70529 0.65008 0
M  V30 7066 C 678.021 0.138819 3.61233 0
M  V30 7067 O 677.742 1.42962 4.14118 0
M  V30 7068 C 679.243 -0.352449 4.41897 0
M  V30 7069 H 676.463 0.101209 0.663323 0
M  V30 7070 H 679.007 0.925077 1.8238 0
M  V30 7071 H 677.162 -0.527505 3.83792 0
M  V30 7072 H 677.576 1.3048 5.08011 0
M  V30 7073 H 679.05 -0.350778 5.50884 0
M  V30 7074 H 679.527 -1.3882 4.16684 0
M  V30 7075 H 680.133 0.282236 4.24362 0
M  V30 7076 N 678.448 -1.51871 0.421078 0
M  V30 7077 C 679.378 -2.30231 -0.389363 0
M  V30 7078 C 680.359 -1.34946 -1.03555 0
M  V30 7079 O 681.544 -1.63859 -1.04229 0
M  V30 7080 C 678.674 -3.13247 -1.49979 0
M  V30 7081 C 677.628 -4.16677 -0.977966 0
M  V30 7082 C 676.954 -4.88112 -2.1829 0
M  V30 7083 C 678.254 -5.22295 -0.0236775 0
M  V30 7084 H 679.948 -2.98229 0.264524 0
M  V30 7085 H 677.494 -1.43424 0.12866 0
M  V30 7086 H 679.447 -3.66838 -2.07383 0
M  V30 7087 H 678.171 -2.4304 -2.18173 0
M  V30 7088 H 676.83 -3.64114 -0.426245 0
M  V30 7089 H 676.478 -4.14423 -2.85066 0
M  V30 7090 H 676.178 -5.58041 -1.84021 0
M  V30 7091 H 677.702 -5.44521 -2.76278 0
M  V30 7092 H 679.116 -5.71055 -0.506899 0
M  V30 7093 H 677.513 -5.99656 0.230782 0
M  V30 7094 H 678.583 -4.76131 0.917999 0
M  V30 7095 N 679.926 -0.151884 -1.56866 0
M  V30 7096 C 681.175 0.497992 -1.95456 0
M  V30 7097 C 681.488 1.6569 -1.03953 0
M  V30 7098 O 682.694 2.37173 -1.32142 0
M  V30 7099 C 681.15 0.93732 -3.4748 0
M  V30 7100 C 680.758 -0.194921 -4.47576 0
M  V30 7101 C 682.502 1.55671 -3.94926 0
M  V30 7102 C 680.409 0.26295 -5.90815 0
M  V30 7103 H 679.339 0.189811 -0.729717 0
M  V30 7104 H 681.99 -0.237011 -1.81963 0
M  V30 7105 H 680.372 1.72773 -3.56322 0
M  V30 7106 H 681.546 -0.971951 -4.50433 0
M  V30 7107 H 679.861 -0.72303 -4.10075 0
M  V30 7108 H 682.458 1.91099 -4.99385 0
M  V30 7109 H 682.801 2.44748 -3.36755 0
M  V30 7110 H 683.334 0.831109 -3.89021 0
M  V30 7111 H 680.073 -0.592568 -6.52816 0
M  V30 7112 H 679.593 1.00575 -5.91308 0
M  V30 7113 H 681.272 0.713333 -6.43056 0
M  V30 7114 N 681.404 1.57128 0.121893 0
M  V30 7115 C 682.367 1.99197 1.13372 0
M  V30 7116 C 683.367 0.881728 1.3447 0
M  V30 7117 O 684.557 1.14783 1.31036 0
M  V30 7118 C 681.689 2.32963 2.4888 0
M  V30 7119 H 682.882 2.89788 0.772204 0
M  V30 7120 H 680.435 1.51952 0.366093 0
M  V30 7121 H 681.17 1.45243 2.89957 0
M  V30 7122 H 680.955 3.13934 2.34921 0
M  V30 7123 H 682.445 2.66261 3.21706 0
M  V30 7124 N 682.882 -0.391992 1.52647 0
M  V30 7125 C 684.128 -1.139 1.67793 0
M  V30 7126 C 684.461 -1.89711 0.41514 0
M  V30 7127 O 683.736 -1.85431 -0.586979 0
M  V30 7128 C 684.019 -2.11966 2.91105 0
M  V30 7129 C 683.872 -1.39939 4.27478 0
M  V30 7130 C 685.191 -3.1243 3.09961 0
M  V30 7131 H 682.31 -0.412707 0.610608 0
M  V30 7132 H 684.952 -0.422725 1.85238 0
M  V30 7133 H 683.102 -2.73048 2.76364 0
M  V30 7134 H 684.774 -0.818439 4.53982 0
M  V30 7135 H 683.017 -0.701246 4.28095 0
M  V30 7136 H 683.688 -2.1158 5.09841 0
M  V30 7137 H 686.164 -2.61435 3.23714 0
M  V30 7138 H 685.04 -3.78294 3.97725 0
M  V30 7139 H 685.301 -3.81127 2.24042 0
M  V30 7140 N 684.36 -1.4356 -0.65026 0
M  V30 7141 C 685.771 -1.40324 -1.2315 0
M  V30 7142 C 686.122 -0.108812 -1.95898 0
M  V30 7143 O 685.247 0.79163 -2.01401 0
M  V30 7144 C 685.842 -2.54195 -2.23987 0
M  V30 7145 C 684.401 -2.54215 -2.77582 0
M  V30 7146 C 683.548 -2.31752 -1.5227 0
M  V30 7147 H 686.499 -1.52418 -0.442095 0
M  V30 7148 H 686.52 -2.25854 -3.0622 0
M  V30 7149 H 686.032 -3.48392 -1.71011 0
M  V30 7150 H 684.133 -1.63907 -3.34612 0
M  V30 7151 H 684.246 -3.52081 -3.24925 0
M  V30 7152 H 682.61 -1.80476 -1.79723 0
M  V30 7153 H 683.393 -3.28037 -1.01225 0
M  V30 7154 N 685.838 0.888903 -1.30139 0
M  V30 7155 C 686.768 2.01046 -1.18755 0
M  V30 7156 C 687.749 1.69916 -0.0791438 0
M  V30 7157 O 688.934 1.92445 -0.260498 0
M  V30 7158 C 686.064 3.36109 -0.874518 0
M  V30 7159 C 685.018 3.81486 -1.94043 0
M  V30 7160 C 684.344 5.13796 -1.48047 0
M  V30 7161 C 685.644 4.00637 -3.35093 0
M  V30 7162 H 687.338 2.10828 -2.12584 0
M  V30 7163 H 684.884 1.01298 -1.02346 0
M  V30 7164 H 686.837 4.14089 -0.781548 0
M  V30 7165 H 685.561 3.26449 0.0994519 0
M  V30 7166 H 684.22 3.05731 -2.02297 0
M  V30 7167 H 683.868 5.0056 -0.494878 0
M  V30 7168 H 683.568 5.45127 -2.19341 0
M  V30 7169 H 685.092 5.94305 -1.40121 0
M  V30 7170 H 686.506 4.69067 -3.2962 0
M  V30 7171 H 684.903 4.43339 -4.04438 0
M  V30 7172 H 685.973 3.0462 -3.77273 0
M  V30 7173 N 687.317 1.12792 1.10072 0
M  V30 7174 C 688.267 0.768086 2.14673 0
M  V30 7175 C 689.251 -0.234716 1.59179 0
M  V30 7176 O 690.443 -0.039643 1.76956 0
M  V30 7177 C 687.572 0.228472 3.42539 0
M  V30 7178 C 686.658 1.25979 4.04957 0
M  V30 7179 N 687.049 2.4586 4.42025 0
M  V30 7180 C 685.347 1.10602 4.32069 0
M  V30 7181 C 686.048 3.11747 4.9111 0
M  V30 7182 N 685.024 2.39185 4.88151 0
M  V30 7183 H 688.826 1.68029 2.4113 0
M  V30 7184 H 686.34 1.00925 1.27232 0
M  V30 7185 H 688.337 -0.0475216 4.16873 0
M  V30 7186 H 686.997 -0.678136 3.1754 0
M  V30 7187 H 688.008 2.83215 4.33601 0
M  V30 7188 H 684.685 0.257021 4.16708 0
M  V30 7189 H 686.075 4.13862 5.29309 0
M  V30 7190 N 688.795 -1.27931 0.920396 0
M  V30 7191 C 690.043 -1.94304 0.555906 0
M  V30 7192 C 690.364 -1.72753 -0.904519 0
M  V30 7193 O 689.634 -1.07104 -1.64029 0
M  V30 7194 H 688.214 -0.719001 0.202599 0
M  V30 7195 H 690.876 -1.55785 1.1712 0
M  V30 7196 H 689.972 -3.02806 0.755981 0
M  V30 7197 N 690.273 -0.685099 -1.4193 0
M  V30 7198 C 691.205 0.0258679 -2.29185 0
M  V30 7199 C 692.218 0.755076 -1.44231 0
M  V30 7200 O 693.407 0.60752 -1.67844 0
M  V30 7201 C 690.507 1.06055 -3.21878 0
M  V30 7202 C 689.68 0.403088 -4.35539 0
M  V30 7203 C 688.739 1.33895 -5.0888 0
M  V30 7204 O 687.765 0.835326 -5.63037 0
M  V30 7205 N 688.967 2.6718 -5.15359 0
M  V30 7206 H 691.732 -0.723201 -2.90843 0
M  V30 7207 H 689.293 -0.53031 -1.52968 0
M  V30 7208 H 691.285 1.68813 -3.6781 0
M  V30 7209 H 689.855 1.71126 -2.616 0
M  V30 7210 H 689.075 -0.404185 -3.92122 0
M  V30 7211 H 690.363 -0.0545098 -5.08771 0
M  V30 7212 H 689.761 3.10626 -4.72788 0
M  V30 7213 H 688.318 3.25159 -5.64903 0
M  V30 7214 N 691.751 1.51645 -0.429126 0
M  V30 7215 C 692.976 2.06917 0.141399 0
M  V30 7216 C 693.401 1.29527 1.36398 0
M  V30 7217 O 692.759 0.33094 1.78254 0
M  V30 7218 C 692.807 3.57776 0.4504 0
M  V30 7219 O 691.911 3.82639 1.53821 0
M  V30 7220 H 691.252 0.663978 0.0054647 0
M  V30 7221 H 693.782 1.95355 -0.608093 0
M  V30 7222 H 693.792 4.01894 0.703249 0
M  V30 7223 H 692.467 4.13532 -0.443213 0
M  V30 7224 H 691.044 3.5039 1.27597 0
M  V30 7225 N 693.229 0.160201 1.56784 0
M  V30 7226 C 694.64 -0.358417 1.83227 0
M  V30 7227 C 694.991 -1.63831 1.07952 0
M  V30 7228 O 694.116 -2.13885 0.328995 0
M  V30 7229 C 694.711 -0.657058 3.32368 0
M  V30 7230 C 693.27 -1.12015 3.59346 0
M  V30 7231 C 692.417 -0.15015 2.76893 0
M  V30 7232 H 695.368 0.384669 1.53967 0
M  V30 7233 H 695.389 -1.51033 3.49241 0
M  V30 7234 H 694.901 0.274647 3.87127 0
M  V30 7235 H 693.002 -2.06734 3.09987 0
M  V30 7236 H 693.115 -1.037 4.67743 0
M  V30 7237 H 691.479 -0.645361 2.46388 0
M  V30 7238 H 692.262 0.775379 3.34429 0
M  V30 7239 N 694.707 -1.5719 -0.113559 0
M  V30 7240 C 695.637 -2.03772 -1.14013 0
M  V30 7241 C 696.618 -0.923176 -1.42869 0
M  V30 7242 O 697.803 -1.19325 -1.53216 0
M  V30 7243 C 694.933 -2.44663 -2.4649 0
M  V30 7244 C 693.887 -3.59612 -2.32085 0
M  V30 7245 C 693.213 -3.8642 -3.69573 0
M  V30 7246 C 694.513 -4.91149 -1.7768 0
M  V30 7247 H 696.207 -2.89785 -0.752665 0
M  V30 7248 H 693.753 -1.39412 -0.360609 0
M  V30 7249 H 695.706 -2.75857 -3.18561 0
M  V30 7250 H 694.43 -1.55628 -2.87137 0
M  V30 7251 H 693.089 -3.28636 -1.62461 0
M  V30 7252 H 692.737 -2.94581 -4.07715 0
M  V30 7253 H 692.437 -4.63797 -3.60786 0
M  V30 7254 H 693.961 -4.2007 -4.4314 0
M  V30 7255 H 695.375 -5.20843 -2.39574 0
M  V30 7256 H 693.772 -5.72562 -1.79701 0
M  V30 7257 H 694.842 -4.79301 -0.734776 0
M  V30 7258 N 696.185 0.383891 -1.52853 0
M  V30 7259 C 697.431 1.13009 -1.68395 0
M  V30 7260 C 697.764 1.89488 -0.425195 0
M  V30 7261 O 697.039 1.8574 0.577136 0
M  V30 7262 C 697.322 2.10419 -2.92226 0
M  V30 7263 C 697.175 1.3767 -4.28214 0
M  V30 7264 C 698.494 3.10781 -3.11614 0
M  V30 7265 H 695.613 0.409463 -0.612788 0
M  V30 7266 H 698.255 0.412895 -1.85459 0
M  V30 7267 H 696.405 2.71579 -2.77808 0
M  V30 7268 H 698.077 0.794352 -4.54409 0
M  V30 7269 H 696.32 0.678533 -4.2846 0
M  V30 7270 H 696.991 2.08874 -5.10956 0
M  V30 7271 H 699.467 2.59715 -3.25096 0
M  V30 7272 H 698.343 3.76179 -3.99725 0
M  V30 7273 H 698.604 3.79933 -2.2606 0
M  V30 7274 N 697.663 1.43903 0.642637 0
M  V30 7275 C 698.891 1.4954 1.42988 0
M  V30 7276 C 699.306 0.116588 1.8844 0
M  V30 7277 O 698.663 -0.875285 1.60141 0
M  V30 7278 C 698.714 2.45031 2.65785 0
M  V30 7279 O 698.435 3.77551 2.22232 0
M  V30 7280 C 699.936 2.60017 3.59035 0
M  V30 7281 H 697.156 0.507544 0.438907 0
M  V30 7282 H 699.7 1.88752 0.786942 0
M  V30 7283 H 697.855 2.08985 3.26196 0
M  V30 7284 H 698.269 4.29001 3.01759 0
M  V30 7285 H 699.743 3.30887 4.41835 0
M  V30 7286 H 700.22 1.64861 4.07084 0
M  V30 7287 H 700.826 2.96918 3.045 0
M  V30 7288 N 699.141 -0.881989 1.30609 0
M  V30 7289 C 700.389 -1.63082 1.19368 0
M  V30 7290 C 700.71 -1.93376 -0.251147 0
M  V30 7291 O 699.98 -1.5723 -1.16857 0
M  V30 7292 H 698.56 -0.604542 0.438791 0
M  V30 7293 H 701.222 -1.05658 1.63776 0
M  V30 7294 H 700.318 -2.57966 1.7567 0
M  V30 7295 N 700.619 -1.13374 -1.09472 0
M  V30 7296 C 701.529 -0.824029 -2.19652 0
M  V30 7297 C 702.545 0.19118 -1.72947 0
M  V30 7298 O 703.721 0.0223464 -2.01388 0
M  V30 7299 C 700.786 -0.294009 -3.45451 0
M  V30 7300 C 699.847 -1.3704 -4.0684 0
M  V30 7301 C 699.08 -0.86558 -5.26634 0
M  V30 7302 O 699.303 0.29702 -5.69626 0
M  V30 7303 O 698.237 -1.63968 -5.79136 0
M  V30 7304 H 702.063 -1.74454 -2.48595 0
M  V30 7305 H 699.648 -0.911155 -1.18399 0
M  V30 7306 H 701.53 -0.00381039 -4.214 0
M  V30 7307 H 700.205 0.598921 -3.18111 0
M  V30 7308 H 699.112 -1.71391 -3.3253 0
M  V30 7309 H 700.445 -2.23746 -4.38405 0
M  V30 7310 N 702.098 1.27442 -0.927168 0
M  V30 7311 C 703.514 1.46754 -0.627329 0
M  V30 7312 C 703.714 1.83902 0.823549 0
M  V30 7313 O 702.77 1.95215 1.60148 0
M  V30 7314 C 704.083 2.56045 -1.57674 0
M  V30 7315 C 705.631 2.69906 -1.58491 0
M  V30 7316 C 706.106 3.82355 -2.52128 0
M  V30 7317 N 707.597 3.89728 -2.50332 0
M  V30 7318 C 708.332 4.76155 -3.19475 0
M  V30 7319 N 707.828 5.67073 -3.97995 0
M  V30 7320 N 709.621 4.6988 -3.08496 0
M  V30 7321 H 701.772 1.01613 -1.86517 0
M  V30 7322 H 704.035 0.507443 -0.800753 0
M  V30 7323 H 703.741 2.35542 -2.61176 0
M  V30 7324 H 703.615 3.53423 -1.31804 0
M  V30 7325 H 706.002 2.89792 -0.557208 0
M  V30 7326 H 706.083 1.73018 -1.8841 0
M  V30 7327 H 705.727 3.63224 -3.55008 0
M  V30 7328 H 705.657 4.7867 -2.19505 0
M  V30 7329 H 708.148 3.24717 -1.93306 0
M  V30 7330 H 708.461 6.2988 -4.4774 0
M  V30 7331 H 706.806 5.6687 -4.02098 0
M  V30 7332 H 709.997 3.97848 -2.46646 0
M  V30 7333 H 710.17 5.37017 -3.62652 0
M  V30 7334 N 703.576 0.692616 1.41565 0
M  V30 7335 C 704.822 0.222664 2.01574 0
M  V30 7336 C 705.155 -1.1737 1.54719 0
M  V30 7337 O 704.43 -1.79161 0.757084 0
M  V30 7338 C 704.713 0.277064 3.59033 0
M  V30 7339 C 704.566 1.71016 4.16021 0
M  V30 7340 C 705.885 -0.36479 4.38586 0
M  V30 7341 H 703.004 0.0823839 0.732381 0
M  V30 7342 H 705.646 0.880778 1.68352 0
M  V30 7343 H 703.796 -0.283288 3.87466 0
M  V30 7344 H 705.468 2.32413 3.98475 0
M  V30 7345 H 703.711 2.24525 3.71175 0
M  V30 7346 H 704.382 1.69978 5.25178 0
M  V30 7347 H 706.858 0.112404 4.15948 0
M  V30 7348 H 705.734 -0.296169 5.481 0
M  V30 7349 H 705.995 -1.44506 4.17816 0
M  V30 7350 N 705.054 -1.51416 0.437162 0
M  V30 7351 C 706.017 -2.26312 -0.362729 0
M  V30 7352 C 707.017 -1.29748 -0.949847 0
M  V30 7353 O 708.207 -1.53462 -0.824325 0
M  V30 7354 C 705.339 -3.05475 -1.5132 0
M  V30 7355 H 706.532 -2.98459 0.29365 0
M  V30 7356 H 704.085 -1.55137 0.190327 0
M  V30 7357 H 704.82 -2.37744 -2.20563 0
M  V30 7358 H 704.605 -3.76401 -1.09838 0
M  V30 7359 H 706.095 -3.62209 -2.07833 0
M  V30 7360 N 706.532 -0.168513 -1.56696 0
M  V30 7361 C 707.76 0.483503 -2.01171 0
M  V30 7362 C 708.175 1.56994 -1.04872 0
M  V30 7363 O 707.532 1.82434 -0.0491337 0
M  V30 7364 C 707.583 1.0644 -3.45475 0
M  V30 7365 O 707.304 0.0213375 -4.38095 0
M  V30 7366 C 708.805 1.79493 -4.05336 0
M  V30 7367 H 706.025 0.124002 -0.659443 0
M  V30 7368 H 708.569 -0.269419 -2.02717 0
M  V30 7369 H 706.724 1.76784 -3.44712 0
M  V30 7370 H 707.138 0.449837 -5.22567 0
M  V30 7371 H 708.612 2.15401 -5.08238 0
M  V30 7372 H 709.089 2.68889 -3.47269 0
M  V30 7373 H 709.695 1.13798 -4.09793 0
M  V30 7374 N 708.01 1.57248 0.105221 0
M  V30 7375 C 709.235 1.90143 0.828264 0
M  V30 7376 C 709.66 0.761811 1.71983 0
M  V30 7377 O 709.018 -0.287086 1.79013 0
M  V30 7378 C 709.066 3.21856 1.62608 0
M  V30 7379 O 708.17 3.08732 2.7342 0
M  V30 7380 H 707.511 0.623558 0.228192 0
M  V30 7381 H 710.041 2.0443 0.0834826 0
M  V30 7382 H 710.051 3.54916 2.01243 0
M  V30 7383 H 708.726 4.0439 0.971687 0
M  V30 7384 H 707.303 2.87167 2.37886 0
M  V30 7385 N 709.488 -0.375779 1.53054 0
M  V30 7386 C 710.421 -1.48187 1.7354 0
M  V30 7387 C 711.399 -1.5177 0.583495 0
M  V30 7388 O 712.583 -1.69976 0.81488 0
M  V30 7389 C 709.71 -2.86598 1.80497 0
M  V30 7390 C 708.756 -3.00784 3.02376 0
M  V30 7391 S 709.589 -2.70601 4.62099 0
M  V30 7392 C 710.745 -4.11181 4.71891 0
M  V30 7393 H 710.978 -1.30587 2.67085 0
M  V30 7394 H 708.511 -0.569485 1.43514 0
M  V30 7395 H 710.469 -3.66353 1.85192 0
M  V30 7396 H 709.13 -3.01514 0.880217 0
M  V30 7397 H 708.323 -4.02128 3.03824 0
M  V30 7398 H 707.925 -2.28939 2.95742 0
M  V30 7399 H 710.217 -5.0529 4.51319 0
M  V30 7400 H 711.16 -4.14742 5.73929 0
M  V30 7401 H 711.568 -3.97706 4.00612 0
M  V30 7402 N 710.966 -1.44241 -0.634997 0
M  V30 7403 C 712.382 -1.28043 -0.952742 0
M  V30 7404 C 712.582 -0.21338 -2.00367 0
M  V30 7405 O 711.638 0.402042 -2.49279 0
M  V30 7406 C 712.951 -2.65076 -1.41968 0
M  V30 7407 C 714.499 -2.72755 -1.53537 0
M  V30 7408 C 714.974 -4.10249 -2.03616 0
M  V30 7409 N 716.465 -4.12406 -2.10892 0
M  V30 7410 C 717.2 -5.15641 -2.50803 0
M  V30 7411 N 716.696 -6.29239 -2.89879 0
M  V30 7412 N 718.489 -5.02995 -2.50903 0
M  V30 7413 H 710.64 -2.12315 0.060098 0
M  V30 7414 H 712.903 -0.947326 -0.0357325 0
M  V30 7415 H 712.609 -3.44213 -0.721804 0
M  V30 7416 H 712.483 -2.91704 -2.39141 0
M  V30 7417 H 714.87 -1.93939 -2.22422 0
M  V30 7418 H 714.951 -2.49872 -0.547496 0
M  V30 7419 H 714.595 -4.8954 -1.35327 0
M  V30 7420 H 714.525 -4.30507 -3.03268 0
M  V30 7421 H 717.016 -3.30417 -1.83393 0
M  V30 7422 H 717.329 -7.03827 -3.19135 0
M  V30 7423 H 715.674 -6.32683 -2.8764 0
M  V30 7424 H 718.865 -4.13306 -2.19763 0
M  V30 7425 H 719.038 -5.83574 -2.81683 0
M  V30 7426 N 712.444 0.87505 -1.31075 0
M  V30 7427 C 713.672 1.66058 -1.23419 0
M  V30 7428 C 714.087 1.87723 0.201347 0
M  V30 7429 O 713.444 1.43178 1.13165 0
M  V30 7430 C 713.495 3.03142 -1.96945 0
M  V30 7431 O 713.216 2.82448 -3.34895 0
M  V30 7432 C 714.717 3.97583 -1.96067 0
M  V30 7433 H 711.937 0.517868 -0.426677 0
M  V30 7434 H 714.481 1.09258 -1.72867 0
M  V30 7435 H 712.636 3.56645 -1.51271 0
M  V30 7436 H 713.05 3.69483 -3.72267 0
M  V30 7437 H 714.524 4.91104 -2.52034 0
M  V30 7438 H 715.001 4.2898 -0.941961 0
M  V30 7439 H 715.607 3.50015 -2.41597 0
M  V30 7440 N 713.922 1.13953 1.08869 0
M  V30 7441 C 715.168 0.906151 1.8143 0
M  V30 7442 C 715.501 -0.566089 1.85766 0
M  V30 7443 O 714.776 -1.41915 1.33006 0
M  V30 7444 C 715.059 1.50183 3.27287 0
M  V30 7445 C 714.912 3.04359 3.31189 0
M  V30 7446 C 716.231 1.17477 4.24131 0
M  V30 7447 H 713.35 0.330624 0.658678 0
M  V30 7448 H 715.992 1.40873 1.27495 0
M  V30 7449 H 714.142 1.07442 3.73348 0
M  V30 7450 H 715.814 3.55896 2.93488 0
M  V30 7451 H 714.057 3.39053 2.70602 0
M  V30 7452 H 714.728 3.41141 4.33966 0
M  V30 7453 H 717.204 1.5442 3.86385 0
M  V30 7454 H 716.08 1.61795 5.24513 0
M  V30 7455 H 716.341 0.0893312 4.4201 0
M  V30 7456 N 715.4 -1.26948 0.933913 0
M  V30 7457 C 716.648 -1.93704 0.576484 0
M  V30 7458 C 716.969 -1.73702 -0.886145 0
M  V30 7459 O 716.239 -1.08838 -1.62884 0
M  V30 7460 H 714.819 -0.716812 0.210214 0
M  V30 7461 H 717.481 -1.54534 1.18766 0
M  V30 7462 H 716.577 -3.01987 0.788055 0
M  V30 7463 N 716.879 -0.700114 -1.41195 0
M  V30 7464 C 717.826 -0.0376652 -2.30769 0
M  V30 7465 C 718.796 0.766544 -1.47354 0
M  V30 7466 O 719.981 0.73365 -1.76131 0
M  V30 7467 C 717.121 0.889452 -3.33441 0
M  V30 7468 C 716.234 0.076373 -4.31932 0
M  V30 7469 C 715.369 1.00155 -5.21673 0
M  V30 7470 C 714.408 0.181644 -6.1183 0
M  V30 7471 N 713.545 1.06087 -6.94039 0
M  V30 7472 H 718.385 -0.80726 -2.86858 0
M  V30 7473 H 715.922 -0.409798 -1.41277 0
M  V30 7474 H 717.88 1.44107 -3.91522 0
M  V30 7475 H 716.51 1.6254 -2.78892 0
M  V30 7476 H 715.562 -0.592223 -3.75762 0
M  V30 7477 H 716.874 -0.559076 -4.95657 0
M  V30 7478 H 716.028 1.62223 -5.8461 0
M  V30 7479 H 714.767 1.67085 -4.58186 0
M  V30 7480 H 713.772 -0.452085 -5.47938 0
M  V30 7481 H 714.997 -0.483925 -6.77374 0
M  V30 7482 H 712.943 1.7161 -6.33156 0
M  V30 7483 H 712.86 0.481094 -7.54468 0
M  V30 7484 H 714.128 1.66822 -7.6144 0
M  V30 7485 N 718.357 1.51182 -0.445186 0
M  V30 7486 C 719.287 2.30821 0.352686 0
M  V30 7487 C 720.268 1.36576 1.01395 0
M  V30 7488 O 721.453 1.65497 1.01609 0
M  V30 7489 C 718.583 3.15593 1.44976 0
M  V30 7490 C 717.537 4.1818 0.911553 0
M  V30 7491 C 716.863 4.91523 2.10497 0
M  V30 7492 C 718.163 5.22266 -0.059418 0
M  V30 7493 H 719.857 2.97771 -0.311936 0
M  V30 7494 H 717.403 1.43201 -0.151461 0
M  V30 7495 H 719.356 3.70091 2.01521 0
M  V30 7496 H 718.08 2.4648 2.14278 0
M  V30 7497 H 716.739 3.64746 0.368264 0
M  V30 7498 H 716.387 4.18906 2.78437 0
M  V30 7499 H 716.087 5.60898 1.7512 0
M  V30 7500 H 717.611 5.48847 2.6758 0
M  V30 7501 H 719.025 5.71789 0.415985 0
M  V30 7502 H 717.422 5.99213 -0.326152 0
M  V30 7503 H 718.492 4.7461 -0.993631 0
M  V30 7504 N 719.835 0.176821 1.56605 0
M  V30 7505 C 721.246 -0.338963 1.83597 0
M  V30 7506 C 721.597 -1.62677 1.09684 0
M  V30 7507 O 720.722 -2.13524 0.351661 0
M  V30 7508 C 721.317 -0.62177 3.33046 0
M  V30 7509 C 719.876 -1.08198 3.60514 0
M  V30 7510 C 719.023 -0.120774 2.77037 0
M  V30 7511 H 721.974 0.400978 1.53551 0
M  V30 7512 H 721.995 -1.47321 3.50823 0
M  V30 7513 H 721.507 0.315692 3.86814 0
M  V30 7514 H 719.608 -2.03435 3.12162 0
M  V30 7515 H 719.721 -0.987329 4.68816 0
M  V30 7516 H 718.085 -0.619192 2.47059 0
M  V30 7517 H 718.868 0.810806 3.33588 0
M  V30 7518 N 721.313 -1.57302 -0.09688 0
M  V30 7519 C 722.729 -1.53094 -0.451041 0
M  V30 7520 C 722.929 -0.893265 -1.80618 0
M  V30 7521 O 721.985 -0.485013 -2.47798 0
M  V30 7522 C 723.298 -2.9782 -0.415172 0
M  V30 7523 C 724.846 -3.09026 -0.497155 0
M  V30 7524 C 725.321 -4.55356 -0.491452 0
M  V30 7525 N 726.812 -4.59896 -0.552258 0
M  V30 7526 C 727.547 -5.70563 -0.569654 0
M  V30 7527 N 727.043 -6.90666 -0.543365 0
M  V30 7528 N 728.836 -5.58733 -0.614331 0
M  V30 7529 H 720.987 -1.97131 0.790771 0
M  V30 7530 H 723.25 -0.901211 0.294147 0
M  V30 7531 H 722.956 -3.47933 0.513362 0
M  V30 7532 H 722.83 -3.56416 -1.23481 0
M  V30 7533 H 725.217 -2.58902 -1.41611 0
M  V30 7534 H 725.298 -2.53386 0.35059 0
M  V30 7535 H 724.942 -5.06131 0.423549 0
M  V30 7536 H 724.872 -5.08832 -1.35639 0
M  V30 7537 H 727.363 -3.73456 -0.577842 0
M  V30 7538 H 727.676 -7.70769 -0.559873 0
M  V30 7539 H 726.021 -6.93123 -0.510441 0
M  V30 7540 H 729.212 -4.63809 -0.632387 0
M  V30 7541 H 729.385 -6.44984 -0.62442 0
M  V30 7542 N 722.791 0.367657 -1.53252 0
M  V30 7543 C 723.741 1.45035 -1.75923 0
M  V30 7544 C 724.725 1.48736 -0.613719 0
M  V30 7545 O 725.917 1.54012 -0.872313 0
M  V30 7546 C 723.046 2.82493 -1.9507 0
M  V30 7547 C 722.132 2.83279 -3.15617 0
M  V30 7548 N 722.523 2.53712 -4.37566 0
M  V30 7549 C 720.821 3.1444 -3.16297 0
M  V30 7550 C 721.522 2.62123 -5.19294 0
M  V30 7551 N 720.498 2.96747 -4.55458 0
M  V30 7552 H 724.3 1.21035 -2.6782 0
M  V30 7553 H 721.814 0.575822 -1.51849 0
M  V30 7554 H 723.811 3.60473 -2.0944 0
M  V30 7555 H 722.471 3.07459 -1.044 0
M  V30 7556 H 723.482 2.27344 -4.65333 0
M  V30 7557 H 720.159 3.44733 -2.35511 0
M  V30 7558 H 721.549 2.42628 -6.26563 0
M  V30 7559 N 724.269 1.44576 0.627338 0
M  V30 7560 C 725.685 1.28546 0.945938 0
M  V30 7561 C 725.885 0.224003 2.00251 0
M  V30 7562 O 724.941 -0.388817 2.49488 0
M  V30 7563 C 726.254 2.65825 1.40561 0
M  V30 7564 C 727.802 2.73566 1.52088 0
M  V30 7565 C 728.277 4.11323 2.01438 0
M  V30 7566 N 729.768 4.13519 2.08702 0
M  V30 7567 C 730.503 5.16964 2.48065 0
M  V30 7568 N 729.999 6.30768 2.86538 0
M  V30 7569 N 731.792 5.04319 2.48232 0
M  V30 7570 H 723.943 2.1228 -0.0713567 0
M  V30 7571 H 726.206 0.947503 0.0307081 0
M  V30 7572 H 725.912 3.44591 0.703539 0
M  V30 7573 H 725.786 2.92969 2.37591 0
M  V30 7574 H 728.173 1.95116 2.21391 0
M  V30 7575 H 728.254 2.50159 0.534237 0
M  V30 7576 H 727.898 4.9025 1.32729 0
M  V30 7577 H 727.828 4.32109 3.0098 0
M  V30 7578 H 730.319 3.31385 1.81638 0
M  V30 7579 H 730.632 7.0551 3.15398 0
M  V30 7580 H 728.977 6.342 2.84281 0
M  V30 7581 H 732.168 4.14465 2.17569 0
M  V30 7582 H 732.341 5.85059 2.78585 0
M  V30 7583 N 725.747 -0.868086 1.31537 0
M  V30 7584 C 727.158 -1.437 1.19195 0
M  V30 7585 C 727.509 -1.95169 -0.200842 0
M  V30 7586 O 726.634 -1.86432 -1.09872 0
M  V30 7587 C 727.229 -2.612 2.15778 0
M  V30 7588 C 725.788 -3.1413 2.07363 0
M  V30 7589 C 724.935 -1.86845 2.049 0
M  V30 7590 H 727.886 -0.676457 1.43561 0
M  V30 7591 H 727.907 -3.37948 1.74847 0
M  V30 7592 H 727.419 -2.23709 3.17137 0
M  V30 7593 H 725.52 -3.56238 1.09204 0
M  V30 7594 H 725.633 -3.76285 2.96557 0
M  V30 7595 H 723.997 -2.05886 1.49943 0
M  V30 7596 H 724.78 -1.51589 3.08019 0
M  V30 7597 N 727.225 -1.14528 -1.08264 0
M  V30 7598 C 728.155 -0.856356 -2.1723 0
M  V30 7599 C 729.136 0.189251 -1.69044 0
M  V30 7600 O 730.321 0.0456119 -1.94146 0
M  V30 7601 C 727.451 -0.334662 -3.45684 0
M  V30 7602 C 726.405 -1.31588 -4.0727 0
M  V30 7603 C 725.731 -0.653428 -5.30692 0
M  V30 7604 C 727.031 -2.67866 -4.48381 0
M  V30 7605 H 728.725 -1.76755 -2.41657 0
M  V30 7606 H 726.271 -0.851287 -1.16143 0
M  V30 7607 H 728.224 -0.120128 -4.21229 0
M  V30 7608 H 726.948 0.611967 -3.20815 0
M  V30 7609 H 725.607 -1.51661 -3.33758 0
M  V30 7610 H 725.255 0.299054 -5.0211 0
M  V30 7611 H 724.955 -1.30817 -5.72853 0
M  V30 7612 H 726.479 -0.448453 -6.08951 0
M  V30 7613 H 727.893 -2.51692 -5.15096 0
M  V30 7614 H 726.29 -3.29627 -5.01464 0
M  V30 7615 H 727.36 -3.24632 -3.60198 0
M  V30 7616 N 728.703 1.26451 -0.940633 0
M  V30 7617 C 729.928 1.98407 -0.60412 0
M  V30 7618 C 730.353 1.69584 0.81382 0
M  V30 7619 O 729.711 0.943553 1.54812 0
M  V30 7620 C 729.759 3.50387 -0.852136 0
M  V30 7621 O 728.863 4.1233 0.076013 0
M  V30 7622 H 728.204 0.622466 -0.231153 0
M  V30 7623 H 730.734 1.60932 -1.26342 0
M  V30 7624 H 730.744 4.00614 -0.772816 0
M  V30 7625 H 729.419 3.70696 -1.88566 0
M  V30 7626 H 727.996 3.7286 -0.0543187 0
M  V30 7627 N 730.181 0.707592 1.40822 0
M  V30 7628 C 731.597 0.38034 1.55002 0
M  V30 7629 C 731.797 -1.11163 1.68062 0
M  V30 7630 O 730.853 -1.89761 1.66574 0
M  V30 7631 C 732.166 1.1394 2.78277 0
M  V30 7632 C 733.714 1.12492 2.92087 0
M  V30 7633 C 734.189 1.86597 4.18265 0
M  V30 7634 N 735.68 1.83626 4.25248 0
M  V30 7635 C 736.415 2.37794 5.21768 0
M  V30 7636 N 735.911 3.00485 6.24244 0
M  V30 7637 N 737.704 2.27982 5.13791 0
M  V30 7638 H 729.855 1.67511 1.3059 0
M  V30 7639 H 732.118 0.707579 0.630901 0
M  V30 7640 H 731.824 2.19398 2.74877 0
M  V30 7641 H 731.698 0.725793 3.70151 0
M  V30 7642 H 734.085 0.0785564 2.94995 0
M  V30 7643 H 734.166 1.57768 2.01353 0
M  V30 7644 H 733.81 2.91219 4.16118 0
M  V30 7645 H 733.74 1.38746 5.07993 0
M  V30 7646 H 736.231 1.3793 3.51829 0
M  V30 7647 H 736.544 3.39355 6.94304 0
M  V30 7648 H 734.889 3.04567 6.24711 0
M  V30 7649 H 738.08 1.78669 4.3266 0
M  V30 7650 H 738.253 2.70499 5.88841 0
M  V30 7651 N 731.66 -1.50943 0.453197 0
M  V30 7652 C 732.888 -2.06628 -0.106135 0
M  V30 7653 C 733.303 -1.31901 -1.35084 0
M  V30 7654 O 732.66 -0.383074 -1.78434 0
M  V30 7655 C 732.711 -3.5914 -0.412368 0
M  V30 7656 O 732.432 -4.31047 0.782948 0
M  V30 7657 C 733.933 -4.31391 -1.02064 0
M  V30 7658 H 731.153 -0.670999 -0.000885896 0
M  V30 7659 H 733.697 -1.94331 0.63684 0
M  V30 7660 H 731.852 -3.71299 -1.10526 0
M  V30 7661 H 732.266 -5.21948 0.516736 0
M  V30 7662 H 733.74 -5.39135 -1.1848 0
M  V30 7663 H 734.217 -3.90714 -2.00598 0
M  V30 7664 H 734.823 -4.23716 -0.366664 0
M  V30 7665 N 733.138 -0.185124 -1.56509 0
M  V30 7666 C 734.07 0.771401 -2.15829 0
M  V30 7667 C 735.083 1.18392 -1.11747 0
M  V30 7668 O 736.272 1.12137 -1.38879 0
M  V30 7669 C 733.372 2.05169 -2.69739 0
M  V30 7670 C 732.545 1.80056 -3.98621 0
M  V30 7671 C 731.604 2.92435 -4.37456 0
M  V30 7672 O 730.63 2.62473 -5.05071 0
M  V30 7673 N 731.832 4.20554 -4.00143 0
M  V30 7674 H 734.597 0.264184 -2.98533 0
M  V30 7675 H 732.158 -0.00281069 -1.619 0
M  V30 7676 H 734.15 2.7947 -2.92709 0
M  V30 7677 H 732.72 2.47041 -1.91545 0
M  V30 7678 H 731.94 0.895862 -3.83885 0
M  V30 7679 H 733.228 1.60662 -4.82768 0
M  V30 7680 H 732.626 4.47753 -3.45736 0
M  V30 7681 H 731.183 4.91514 -4.28085 0
M  V30 7682 N 734.616 1.57351 0.0885366 0
M  V30 7683 C 735.841 1.91011 0.80805 0
M  V30 7684 C 736.266 0.780009 1.71165 0
M  V30 7685 O 735.624 -0.268083 1.79307 0
M  V30 7686 C 735.672 3.23562 1.59185 0
M  V30 7687 O 734.776 3.11615 2.7013 0
M  V30 7688 H 734.117 0.625943 0.221565 0
M  V30 7689 H 736.647 2.04507 0.0617954 0
M  V30 7690 H 736.657 3.5703 1.97468 0
M  V30 7691 H 735.332 4.05398 0.928741 0
M  V30 7692 H 733.909 2.89673 2.34827 0
M  V30 7693 N 736.094 -0.359525 1.53444 0
M  V30 7694 C 737.319 -1.12644 1.74144 0
M  V30 7695 C 737.744 -1.82082 0.472007 0
M  V30 7696 O 737.102 -1.71962 -0.57436 0
M  V30 7697 C 737.15 -2.12781 2.9113 0
M  V30 7698 O 736.254 -3.19984 2.60162 0
M  V30 7699 H 735.595 -0.326553 0.578152 0
M  V30 7700 H 738.125 -0.414798 2.00351 0
M  V30 7701 H 738.135 -2.56278 3.17467 0
M  V30 7702 H 736.81 -1.61634 3.83207 0
M  V30 7703 H 735.387 -2.81417 2.44661 0
M  V30 7704 N 737.572 -1.44907 -0.619662 0
M  V30 7705 C 738.983 -1.42905 -1.20146 0
M  V30 7706 C 739.334 -0.150341 -1.95623 0
M  V30 7707 O 738.459 0.748732 -2.03034 0
M  V30 7708 C 739.054 -2.58889 -2.18545 0
M  V30 7709 C 737.613 -2.60046 -2.72127 0
M  V30 7710 C 736.76 -2.3493 -1.4732 0
M  V30 7711 H 739.711 -1.53321 -0.409666 0
M  V30 7712 H 739.732 -2.32298 -3.0136 0
M  V30 7713 H 739.244 -3.51941 -1.63583 0
M  V30 7714 H 737.345 -1.70968 -3.3106 0
M  V30 7715 H 737.458 -3.58893 -3.17384 0
M  V30 7716 H 735.822 -1.84248 -1.75855 0
M  V30 7717 H 736.605 -3.3011 -0.942442 0
M  V30 7718 N 739.05 0.861098 -1.31996 0
M  V30 7719 C 739.98 1.98482 -1.22993 0
M  V30 7720 C 740.961 1.6971 -0.115168 0
M  V30 7721 O 742.146 1.91849 -0.30126 0
M  V30 7722 C 739.276 3.34179 -0.945615 0
M  V30 7723 C 738.23 3.77284 -2.02091 0
M  V30 7724 C 737.556 5.1054 -1.58912 0
M  V30 7725 C 738.856 3.93439 -3.43515 0
M  V30 7726 H 740.55 2.06271 -2.17008 0
M  V30 7727 H 738.096 0.991043 -1.04472 0
M  V30 7728 H 740.049 4.12338 -0.869206 0
M  V30 7729 H 738.773 3.26586 0.0301849 0
M  V30 7730 H 737.432 3.01371 -2.08737 0
M  V30 7731 H 737.08 4.99397 -0.600942 0
M  V30 7732 H 736.78 5.40352 -2.30854 0
M  V30 7733 H 738.304 5.91199 -1.52696 0
M  V30 7734 H 739.718 4.6197 -3.39495 0
M  V30 7735 H 738.115 4.34661 -4.13751 0
M  V30 7736 H 739.185 2.96548 -3.8365 0
M  V30 7737 N 740.528 1.15101 1.07655 0
M  V30 7738 C 741.939 0.933848 1.61667 0
M  V30 7739 C 742.29 -0.525569 1.8903 0
M  V30 7740 O 741.415 -1.39605 1.65346 0
M  V30 7741 C 742.01 1.68876 2.93711 0
M  V30 7742 C 740.569 1.51697 3.44478 0
M  V30 7743 C 739.716 1.70633 2.18586 0
M  V30 7744 H 742.667 1.30171 0.907816 0
M  V30 7745 H 742.688 1.15645 3.625 0
M  V30 7746 H 742.2 2.7509 2.73764 0
M  V30 7747 H 740.301 0.478635 3.69513 0
M  V30 7748 H 740.414 2.29194 4.20722 0
M  V30 7749 H 738.778 1.13259 2.28132 0
M  V30 7750 H 739.561 2.78206 2.01137 0
M  V30 7751 N 742.006 -1.2595 0.947325 0
M  V30 7752 C 742.938 -2.25336 0.41906 0
M  V30 7753 C 743.951 -1.56135 -0.461051 0
M  V30 7754 O 745.14 -1.76438 -0.270505 0
M  V30 7755 C 742.24 -3.36334 -0.416233 0
M  V30 7756 C 741.413 -4.35088 0.449162 0
M  V30 7757 C 740.472 -5.25185 -0.326716 0
M  V30 7758 O 739.498 -5.68548 0.272374 0
M  V30 7759 N 740.7 -5.57388 -1.6217 0
M  V30 7760 H 743.465 -2.71298 1.27348 0
M  V30 7761 H 741.026 -1.39781 0.81688 0
M  V30 7762 H 743.018 -3.93564 -0.942826 0
M  V30 7763 H 741.588 -2.89819 -1.17148 0
M  V30 7764 H 740.808 -3.76841 1.15692 0
M  V30 7765 H 742.096 -4.98056 1.04008 0
M  V30 7766 H 741.494 -5.2405 -2.13046 0
M  V30 7767 H 740.051 -6.17234 -2.0944 0
M  V30 7768 N 743.484 -0.715051 -1.40445 0
M  V30 7769 C 744.709 -0.26254 -2.05732 0
M  V30 7770 C 745.134 1.08691 -1.53519 0
M  V30 7771 O 744.492 1.68453 -0.670328 0
M  V30 7772 C 744.54 -0.25195 -3.59719 0
M  V30 7773 O 743.644 0.766998 -4.05205 0
M  V30 7774 H 742.985 -0.123398 -0.652433 0
M  V30 7775 H 745.515 -0.975382 -1.79854 0
M  V30 7776 H 745.525 -0.0894537 -4.07902 0
M  V30 7777 H 744.2 -1.23672 -3.97087 0
M  V30 7778 H 742.777 0.572269 -3.68483 0
M  V30 7779 N 744.962 1.50701 -0.461195 0
M  V30 7780 C 746.373 1.867 -0.00370227 0
M  V30 7781 C 746.724 1.37673 1.39787 0
M  V30 7782 O 745.849 0.737515 2.03445 0
M  V30 7783 C 746.444 3.388 5.75786e-05 0
M  V30 7784 C 745.003 3.74247 0.402044 0
M  V30 7785 C 744.15 2.74549 -0.389652 0
M  V30 7786 H 747.101 1.43585 -0.675942 0
M  V30 7787 H 747.122 3.719 0.804414 0
M  V30 7788 H 746.634 3.74452 -1.02015 0
M  V30 7789 H 744.735 3.44192 1.42697 0
M  V30 7790 H 744.848 4.78973 0.110265 0
M  V30 7791 H 743.212 2.54226 0.155314 0
M  V30 7792 H 743.995 3.13044 -1.40919 0
M  V30 7793 N 746.441 0.193421 1.56409 0
M  V30 7794 C 747.373 -0.759944 2.16235 0
M  V30 7795 C 748.386 -1.17797 1.12373 0
M  V30 7796 O 749.575 -1.11399 1.39472 0
M  V30 7797 C 746.675 -2.03735 2.70823 0
M  V30 7798 C 745.848 -1.77939 3.9957 0
M  V30 7799 C 744.907 -2.90111 4.39001 0
M  V30 7800 O 743.933 -2.59791 5.06456 0
M  V30 7801 N 745.135 -4.18426 4.02368 0
M  V30 7802 H 747.9 -0.248348 2.98669 0
M  V30 7803 H 745.461 0.0113966 1.61896 0
M  V30 7804 H 747.453 -2.77914 2.94187 0
M  V30 7805 H 746.023 -2.46022 1.92852 0
M  V30 7806 H 745.243 -0.875491 3.84355 0
M  V30 7807 H 746.531 -1.58099 4.83614 0
M  V30 7808 H 745.929 -4.45913 3.48106 0
M  V30 7809 H 744.486 -4.89237 4.30686 0
M  V30 7810 N 747.919 -1.57396 -0.0801906 0
M  V30 7811 C 748.882 -2.02133 -1.0805 0
M  V30 7812 C 749.882 -0.91707 -1.32085 0
M  V30 7813 O 751.072 -1.18217 -1.27947 0
M  V30 7814 C 748.204 -2.39479 -2.42616 0
M  V30 7815 H 749.397 -2.91733 -0.6951 0
M  V30 7816 H 746.95 -1.52869 -0.325677 0
M  V30 7817 H 747.685 -1.52879 -2.86004 0
M  V30 7818 H 747.47 -3.20052 -2.26515 0
M  V30 7819 H 748.96 -2.74697 -3.14534 0
M  V30 7820 N 749.397 0.351382 -1.53633 0
M  V30 7821 C 750.327 1.43688 -1.84055 0
M  V30 7822 C 751.308 1.55251 -0.695073 0
M  V30 7823 O 752.493 1.69587 -0.946257 0
M  V30 7824 C 749.623 2.80843 -2.04315 0
M  V30 7825 C 748.577 2.84094 -3.20117 0
M  V30 7826 C 747.903 4.2406 -3.25696 0
M  V30 7827 C 749.203 2.50334 -4.58399 0
M  V30 7828 H 750.897 1.18478 -2.74961 0
M  V30 7829 H 748.443 0.568509 -1.32303 0
M  V30 7830 H 750.396 3.56821 -2.2418 0
M  V30 7831 H 749.12 3.07471 -1.10132 0
M  V30 7832 H 747.779 2.10568 -3.00094 0
M  V30 7833 H 747.427 4.47785 -2.29123 0
M  V30 7834 H 747.127 4.27147 -4.03509 0
M  V30 7835 H 748.651 5.0189 -3.47762 0
M  V30 7836 H 750.065 3.16025 -4.78332 0
M  V30 7837 H 748.462 2.64717 -5.38558 0
M  V30 7838 H 749.532 1.45542 -4.62543 0
M  V30 7839 N 750.875 1.45233 0.611969 0
M  V30 7840 C 751.807 1.49575 1.73666 0
M  V30 7841 C 752.82 0.386987 1.58134 0
M  V30 7842 O 754.009 0.653804 1.66095 0
M  V30 7843 C 751.109 1.33223 3.11617 0
M  V30 7844 C 750.282 2.57694 3.5343 0
M  V30 7845 C 749.341 2.35962 4.70328 0
M  V30 7846 O 748.367 3.09553 4.77667 0
M  V30 7847 N 749.569 1.40243 5.63305 0
M  V30 7848 H 752.334 2.46539 1.70407 0
M  V30 7849 H 749.895 1.40917 0.79712 0
M  V30 7850 H 751.887 1.16502 3.87569 0
M  V30 7851 H 750.457 0.44551 3.09409 0
M  V30 7852 H 749.677 2.8956 2.67486 0
M  V30 7853 H 750.965 3.40441 3.78124 0
M  V30 7854 H 750.363 0.795023 5.60086 0
M  V30 7855 H 748.92 1.29496 6.38807 0
M  V30 7856 N 752.353 -0.854086 1.3245 0
M  V30 7857 C 753.285 -1.96932 1.17262 0
M  V30 7858 C 754.298 -1.62445 0.107469 0
M  V30 7859 O 755.487 -1.74904 0.356481 0
M  V30 7860 C 752.587 -3.29971 0.772817 0
M  V30 7861 C 751.76 -3.92695 1.92638 0
M  V30 7862 C 750.819 -5.04068 1.51003 0
M  V30 7863 O 749.845 -5.24032 2.22213 0
M  V30 7864 N 751.047 -5.79076 0.406371 0
M  V30 7865 H 753.812 -2.10503 2.13327 0
M  V30 7866 H 751.373 -1.02897 1.24995 0
M  V30 7867 H 753.365 -4.01883 0.476684 0
M  V30 7868 H 751.935 -3.1245 -0.0967 0
M  V30 7869 H 751.155 -3.13563 2.38897 0
M  V30 7870 H 752.443 -4.31337 2.69863 0
M  V30 7871 H 751.841 -5.65393 -0.186302 0
M  V30 7872 H 750.398 -6.51579 0.169846 0
M  V30 7873 N 753.831 -1.1567 -1.07043 0
M  V30 7874 C 754.761 -0.879348 -2.16309 0
M  V30 7875 C 755.742 0.171311 -1.69235 0
M  V30 7876 O 756.927 0.0250175 -1.94184 0
M  V30 7877 C 754.057 -0.371307 -3.45309 0
M  V30 7878 C 753.011 -1.359 -4.05851 0
M  V30 7879 C 752.337 -0.709678 -5.29969 0
M  V30 7880 C 753.637 -2.72606 -4.45514 0
M  V30 7881 H 755.331 -1.79308 -2.39768 0
M  V30 7882 H 752.877 -0.863558 -1.15233 0
M  V30 7883 H 754.83 -0.164798 -4.21078 0
M  V30 7884 H 753.554 0.577906 -3.21446 0
M  V30 7885 H 752.213 -1.55193 -3.32131 0
M  V30 7886 H 751.861 0.245782 -5.02399 0
M  V30 7887 H 751.561 -1.36886 -5.71433 0
M  V30 7888 H 753.085 -0.513015 -6.08441 0
M  V30 7889 H 754.499 -2.57141 -5.12398 0
M  V30 7890 H 752.896 -3.34927 -4.97939 0
M  V30 7891 H 753.966 -3.28434 -3.56734 0
M  V30 7892 N 755.309 1.25446 -0.953992 0
M  V30 7893 C 756.555 1.9343 -0.60933 0
M  V30 7894 C 756.888 1.74542 0.851388 0
M  V30 7895 O 756.163 1.09014 1.61078 0
M  V30 7896 C 756.446 3.46844 -0.968041 0
M  V30 7897 C 756.299 3.74961 -2.48444 0
M  V30 7898 C 757.618 4.37334 -0.492641 0
M  V30 7899 H 754.737 0.702502 -0.222844 0
M  V30 7900 H 757.379 1.48076 -1.19053 0
M  V30 7901 H 755.529 3.85604 -0.473465 0
M  V30 7902 H 757.201 3.45841 -3.05273 0
M  V30 7903 H 755.444 3.20589 -2.92241 0
M  V30 7904 H 756.115 4.82246 -2.68594 0
M  V30 7905 H 758.591 4.05873 -0.916878 0
M  V30 7906 H 757.467 5.43439 -0.772331 0
M  V30 7907 H 757.728 4.37908 0.607403 0
M  V30 7908 N 756.787 0.722489 1.40064 0
M  V30 7909 C 757.72 0.0233443 2.28188 0
M  V30 7910 C 758.698 -0.7606 1.43714 0
M  V30 7911 O 759.882 -0.745791 1.73119 0
M  V30 7912 C 757.009 -0.974264 3.24385 0
M  V30 7913 C 756.055 -0.280307 4.25578 0
M  V30 7914 S 756.888 0.996769 5.26141 0
M  V30 7915 C 758.044 0.00143923 6.259 0
M  V30 7916 H 758.277 0.770705 2.87137 0
M  V30 7917 H 755.81 0.513783 1.45601 0
M  V30 7918 H 757.768 -1.5446 3.80332 0
M  V30 7919 H 756.429 -1.69438 2.6448 0
M  V30 7920 H 755.622 -1.03471 4.93264 0
M  V30 7921 H 755.224 0.217657 3.73366 0
M  V30 7922 H 757.516 -0.843126 6.72233 0
M  V30 7923 H 758.459 0.645104 7.05155 0
M  V30 7924 H 758.867 -0.365371 5.63316 0
M  V30 7925 N 758.265 -1.50454 0.469181 0
M  V30 7926 C 759.197 -2.26319 -0.362247 0
M  V30 7927 C 760.21 -1.31574 -0.958751 0
M  V30 7928 O 761.399 -1.57099 -0.847482 0
M  V30 7929 C 758.499 -3.02808 -1.52187 0
M  V30 7930 C 757.672 -4.24893 -1.03849 0
M  V30 7931 C 756.731 -4.83691 -2.07194 0
M  V30 7932 O 755.757 -5.44659 -1.65333 0
M  V30 7933 N 756.959 -4.70522 -3.39985 0
M  V30 7934 H 759.724 -2.98312 0.288124 0
M  V30 7935 H 757.285 -1.59099 0.299856 0
M  V30 7936 H 759.277 -3.39023 -2.21011 0
M  V30 7937 H 757.847 -2.33625 -2.07697 0
M  V30 7938 H 757.067 -3.93806 -0.176203 0
M  V30 7939 H 758.355 -5.04053 -0.693435 0
M  V30 7940 H 757.753 -4.2203 -3.76706 0
M  V30 7941 H 756.31 -5.11011 -4.04612 0
M  V30 7942 N 759.743 -0.201713 -1.56304 0
M  V30 7943 C 760.675 0.748466 -2.16635 0
M  V30 7944 C 761.688 1.172 -1.12996 0
M  V30 7945 O 762.877 1.10658 -1.40061 0
M  V30 7946 C 759.977 2.02296 -2.719 0
M  V30 7947 C 759.15 1.75818 -4.00508 0
M  V30 7948 C 758.209 2.87779 -4.40533 0
M  V30 7949 O 757.235 2.57101 -5.07826 0
M  V30 7950 N 758.437 4.16287 -4.04581 0
M  V30 7951 H 761.202 0.232505 -2.98797 0
M  V30 7952 H 758.763 -0.0199822 -1.61888 0
M  V30 7953 H 760.755 2.7635 -2.95657 0
M  V30 7954 H 759.325 2.44996 -1.94154 0
M  V30 7955 H 758.545 0.855095 -3.84814 0
M  V30 7956 H 759.833 1.55532 -4.84445 0
M  V30 7957 H 759.231 4.44061 -3.50466 0
M  V30 7958 H 757.788 4.86946 -4.33274 0
M  V30 7959 N 761.222 1.57436 0.0718424 0
M  V30 7960 C 762.154 2.00412 1.1121 0
M  V30 7961 C 763.167 0.910074 1.34987 0
M  V30 7962 O 764.356 1.18796 1.33228 0
M  V30 7963 C 761.456 2.32786 2.46301 0
M  V30 7964 C 760.629 3.64036 2.4248 0
M  V30 7965 C 759.688 3.8408 3.59679 0
M  V30 7966 O 758.714 4.55667 3.4111 0
M  V30 7967 N 759.916 3.2643 4.80025 0
M  V30 7968 H 762.681 2.90264 0.746118 0
M  V30 7969 H 760.242 1.59791 0.260495 0
M  V30 7970 H 762.234 2.43368 3.23348 0
M  V30 7971 H 760.804 1.48824 2.74901 0
M  V30 7972 H 760.024 3.64208 1.50818 0
M  V30 7973 H 761.312 4.50217 2.37027 0
M  V30 7974 H 760.71 2.68325 4.98014 0
M  V30 7975 H 759.267 3.42461 5.54584 0
M  V30 7976 N 762.7 -0.34323 1.53817 0
M  V30 7977 C 763.65 -1.42217 1.78208 0
M  V30 7978 C 764.634 -1.4774 0.637304 0
M  V30 7979 O 765.826 -1.52605 0.896705 0
M  V30 7980 C 762.955 -2.79354 1.9954 0
M  V30 7981 C 762.041 -2.78222 3.20084 0
M  V30 7982 N 762.432 -2.46719 4.41547 0
M  V30 7983 C 760.73 -3.09368 3.21259 0
M  V30 7984 C 761.431 -2.53828 5.23399 0
M  V30 7985 N 760.407 -2.89464 4.60121 0
M  V30 7986 H 764.209 -1.16759 2.69712 0
M  V30 7987 H 761.723 -0.551592 1.52746 0
M  V30 7988 H 763.72 -3.57095 2.15148 0
M  V30 7989 H 762.38 -3.05759 1.09278 0
M  V30 7990 H 763.391 -2.19912 4.68891 0
M  V30 7991 H 760.068 -3.40942 2.40966 0
M  V30 7992 H 761.458 -2.32629 6.30344 0
M  V30 7993 N 764.178 -1.45556 -0.604258 0
M  V30 7994 C 765.11 -1.50494 -1.72871 0
M  V30 7995 C 766.123 -0.395368 -1.57926 0
M  V30 7996 O 767.312 -0.662603 -1.65746 0
M  V30 7997 C 764.412 -1.34874 -3.10906 0
M  V30 7998 C 763.585 -2.59564 -3.52058 0
M  V30 7999 C 762.644 -2.38453 -4.6907 0
M  V30 8000 O 761.67 -3.12082 -4.76018 0
M  V30 8001 N 762.872 -1.43229 -5.62553 0
M  V30 8002 H 765.637 -2.4744 -1.69097 0
M  V30 8003 H 763.198 -1.41338 -0.789636 0
M  V30 8004 H 765.19 -1.18556 -3.86945 0
M  V30 8005 H 763.76 -0.461913 -3.09168 0
M  V30 8006 H 762.98 -2.90974 -2.65946 0
M  V30 8007 H 764.268 -3.42441 -3.76313 0
M  V30 8008 H 763.666 -0.824714 -5.59656 0
M  V30 8009 H 762.223 -1.32882 -6.38111 0
M  V30 8010 N 765.656 0.84705 -1.32902 0
M  V30 8011 C 766.588 1.96308 -1.18304 0
M  V30 8012 C 767.601 1.62386 -0.116082 0
M  V30 8013 O 768.79 1.74713 -0.365751 0
M  V30 8014 C 765.89 3.29556 -0.790305 0
M  V30 8015 C 765.063 3.91668 -1.94717 0
M  V30 8016 C 764.122 5.0326 -1.53674 0
M  V30 8017 O 763.148 5.22847 -2.24989 0
M  V30 8018 N 764.35 5.78852 -0.437075 0
M  V30 8019 H 767.115 2.09369 -2.14441 0
M  V30 8020 H 764.676 1.02233 -1.25539 0
M  V30 8021 H 766.668 4.01624 -0.49799 0
M  V30 8022 H 765.238 3.12497 0.0801286 0
M  V30 8023 H 764.458 3.12292 -2.40557 0
M  V30 8024 H 765.746 4.299 -2.72146 0
M  V30 8025 H 765.144 5.65484 0.156316 0
M  V30 8026 H 763.701 6.51479 -0.204399 0
M  V30 8027 N 767.134 1.16236 1.06428 0
M  V30 8028 C 768.381 0.943034 1.79201 0
M  V30 8029 C 768.709 -0.529243 1.87161 0
M  V30 8030 O 767.964 -1.40874 1.35842 0
M  V30 8031 C 768.263 1.51396 3.2375 0
M  V30 8032 C 767.929 3.00833 3.35873 0
M  V30 8033 C 766.591 3.41626 3.38888 0
M  V30 8034 C 768.943 3.96825 3.37904 0
M  V30 8035 C 766.271 4.77033 3.4155 0
M  V30 8036 C 768.623 5.32116 3.42104 0
M  V30 8037 C 767.287 5.72392 3.43401 0
M  V30 8038 H 766.557 0.34508 0.655744 0
M  V30 8039 H 769.204 1.44929 1.25171 0
M  V30 8040 H 767.509 0.929114 3.80624 0
M  V30 8041 H 769.206 1.31996 3.78653 0
M  V30 8042 H 765.796 2.68306 3.3423 0
M  V30 8043 H 769.98 3.66376 3.34787 0
M  V30 8044 H 765.236 5.07569 3.40858 0
M  V30 8045 H 769.41 6.06286 3.42623 0
M  V30 8046 H 767.037 6.77296 3.45216 0
M  V30 8047 N 768.612 -1.24939 0.960631 0
M  V30 8048 C 769.542 -2.28 0.503815 0
M  V30 8049 C 770.523 -1.63959 -0.452928 0
M  V30 8050 O 771.708 -1.91009 -0.350585 0
M  V30 8051 C 768.838 -3.46643 -0.213535 0
M  V30 8052 C 767.792 -4.22903 0.658535 0
M  V30 8053 C 767.118 -5.34363 -0.189902 0
M  V30 8054 C 768.418 -4.84949 1.93963 0
M  V30 8055 H 770.112 -2.66462 1.36521 0
M  V30 8056 H 767.658 -1.28093 0.657897 0
M  V30 8057 H 769.611 -4.1787 -0.544286 0
M  V30 8058 H 768.335 -3.07187 -1.10923 0
M  V30 8059 H 766.994 -3.53467 0.972455 0
M  V30 8060 H 766.642 -4.91147 -1.08553 0
M  V30 8061 H 766.342 -5.86302 0.390331 0
M  V30 8062 H 767.866 -6.0842 -0.515484 0
M  V30 8063 H 769.28 -5.48288 1.67491 0
M  V30 8064 H 767.677 -5.47091 2.46601 0
M  V30 8065 H 768.747 -4.06799 2.639 0
M  V30 8066 N 770.09 -0.729906 -1.39679 0
M  V30 8067 C 771 -0.0880322 -2.34435 0
M  V30 8068 C 772.016 0.727674 -1.58053 0
M  V30 8069 O 773.192 0.657321 -1.90371 0
M  V30 8070 C 770.257 0.812211 -3.37052 0
M  V30 8071 C 769.318 -0.0151681 -4.29297 0
M  V30 8072 C 768.551 0.842202 -5.27013 0
M  V30 8073 O 768.774 2.08108 -5.31081 0
M  V30 8074 O 767.708 0.27357 -6.01278 0
M  V30 8075 H 771.534 -0.869989 -2.90972 0
M  V30 8076 H 769.119 -0.490522 -1.41118 0
M  V30 8077 H 771.001 1.32745 -3.99946 0
M  V30 8078 H 769.676 1.57307 -2.82907 0
M  V30 8079 H 768.583 -0.575811 -3.69642 0
M  V30 8080 H 769.916 -0.738129 -4.86634 0
M  V30 8081 N 771.568 1.50203 -0.477153 0
M  V30 8082 C 772.515 2.28656 0.31386 0
M  V30 8083 C 773.485 1.33977 0.981802 0
M  V30 8084 O 774.67 1.62919 0.993072 0
M  V30 8085 C 771.81 3.16027 1.38639 0
M  V30 8086 C 770.923 4.25743 0.732615 0
M  V30 8087 C 770.058 5.00363 1.78355 0
M  V30 8088 C 769.097 6.01945 1.11035 0
M  V30 8089 N 768.234 6.6982 2.10441 0
M  V30 8090 H 773.074 2.958 -0.361445 0
M  V30 8091 H 770.611 1.45867 -0.190093 0
M  V30 8092 H 772.569 3.6504 2.01994 0
M  V30 8093 H 771.199 2.50917 2.03077 0
M  V30 8094 H 770.251 3.80398 -0.0136546 0
M  V30 8095 H 771.563 4.98393 0.201513 0
M  V30 8096 H 770.717 5.53124 2.49276 0
M  V30 8097 H 769.456 4.27432 2.34847 0
M  V30 8098 H 768.461 5.48438 0.386797 0
M  V30 8099 H 769.686 6.76851 0.552248 0
M  V30 8100 H 767.632 5.99677 2.65939 0
M  V30 8101 H 767.549 7.38366 1.62332 0
M  V30 8102 H 768.817 7.27196 2.80724 0
M  V30 8103 N 773.046 0.209999 1.56195 0
M  V30 8104 C 773.978 -0.736967 2.17029 0
M  V30 8105 C 774.991 -1.16599 1.13616 0
M  V30 8106 O 776.18 -1.09914 1.40646 0
M  V30 8107 C 773.28 -2.00852 2.72969 0
M  V30 8108 C 772.453 -1.73691 4.01435 0
M  V30 8109 C 771.512 -2.85439 4.42053 0
M  V30 8110 O 770.538 -2.54405 5.09183 0
M  V30 8111 N 771.74 -4.14135 4.06783 0
M  V30 8112 H 774.505 -0.216656 2.98916 0
M  V30 8113 H 772.066 0.0285672 1.61875 0
M  V30 8114 H 774.058 -2.74778 2.97118 0
M  V30 8115 H 772.628 -2.43963 1.95451 0
M  V30 8116 H 771.848 -0.834676 3.85262 0
M  V30 8117 H 773.136 -1.52961 4.85263 0
M  V30 8118 H 772.534 -4.42196 3.52816 0
M  V30 8119 H 771.091 -4.84642 4.35851 0
M  V30 8120 N 774.524 -1.57472 -0.0634922 0
M  V30 8121 C 775.471 -2.04258 -1.07457 0
M  V30 8122 C 776.441 -0.924804 -1.37973 0
M  V30 8123 O 777.626 -1.19305 -1.48899 0
M  V30 8124 C 774.766 -2.49832 -2.38071 0
M  V30 8125 C 773.879 -3.75263 -2.14014 0
M  V30 8126 C 773.014 -4.09585 -3.38251 0
M  V30 8127 C 772.053 -5.28032 -3.09594 0
M  V30 8128 N 771.19 -5.57953 -4.26185 0
M  V30 8129 H 776.03 -2.90402 -0.668626 0
M  V30 8130 H 773.567 -1.43609 -0.318572 0
M  V30 8131 H 775.525 -2.7431 -3.14341 0
M  V30 8132 H 774.155 -1.66654 -2.76453 0
M  V30 8133 H 773.207 -3.58075 -1.28399 0
M  V30 8134 H 774.519 -4.61667 -1.88852 0
M  V30 8135 H 773.673 -4.35008 -4.2291 0
M  V30 8136 H 772.412 -3.21765 -3.66495 0
M  V30 8137 H 771.417 -5.02397 -2.23332 0
M  V30 8138 H 772.642 -6.17477 -2.82663 0
M  V30 8139 H 770.588 -4.73092 -4.54445 0
M  V30 8140 H 770.505 -6.38793 -4.04326 0
M  V30 8141 H 771.773 -5.87931 -5.11817 0
M  V30 8142 N 776.003 0.335068 -1.53997 0
M  V30 8143 C 776.935 1.4327 -1.78903 0
M  V30 8144 C 777.948 1.48347 -0.670598 0
M  V30 8145 O 779.137 1.51277 -0.947494 0
M  V30 8146 C 776.237 2.81878 -1.88144 0
M  V30 8147 C 775.41 3.00141 -3.18174 0
M  V30 8148 C 774.469 4.19041 -3.18263 0
M  V30 8149 O 773.495 4.12751 -3.9195 0
M  V30 8150 N 774.697 5.28004 -2.41231 0
M  V30 8151 H 777.462 1.22272 -2.73623 0
M  V30 8152 H 775.023 0.524996 -1.53152 0
M  V30 8153 H 777.015 3.59609 -1.85644 0
M  V30 8154 H 775.585 2.9598 -1.00572 0
M  V30 8155 H 774.805 2.09808 -3.33728 0
M  V30 8156 H 776.093 3.0923 -4.04047 0
M  V30 8157 H 775.491 5.35986 -1.8093 0
M  V30 8158 H 774.048 6.04196 -2.44521 0
M  V30 8159 N 777.481 1.45874 0.596531 0
M  V30 8160 C 778.413 1.51408 1.7207 0
M  V30 8161 C 779.426 0.403738 1.57714 0
M  V30 8162 O 780.615 0.671384 1.65393 0
M  V30 8163 C 777.715 1.3652 3.10186 0
M  V30 8164 C 776.888 2.61428 3.50677 0
M  V30 8165 C 775.947 2.40937 4.67799 0
M  V30 8166 O 774.973 3.14602 4.74357 0
M  V30 8167 N 776.175 1.4621 5.61785 0
M  V30 8168 H 778.94 2.48333 1.67782 0
M  V30 8169 H 776.501 1.41755 0.782129 0
M  V30 8170 H 778.493 1.20606 3.86311 0
M  V30 8171 H 777.063 0.478302 3.08919 0
M  V30 8172 H 776.283 2.92381 2.644 0
M  V30 8173 H 777.571 3.44432 3.74491 0
M  V30 8174 H 776.969 0.854382 5.59211 0
M  V30 8175 H 775.526 1.36264 6.37397 0
M  V30 8176 N 778.959 -0.83999 1.33349 0
M  V30 8177 C 779.891 -1.95678 1.19344 0
M  V30 8178 C 780.904 -1.62322 0.124692 0
M  V30 8179 O 782.093 -1.74516 0.375012 0
M  V30 8180 C 779.193 -3.29133 0.807771 0
M  V30 8181 C 778.366 -3.9063 1.96792 0
M  V30 8182 C 777.425 -5.02438 1.56341 0
M  V30 8183 O 776.451 -5.21646 2.27759 0
M  V30 8184 N 777.653 -5.78612 0.467767 0
M  V30 8185 H 780.418 -2.08229 2.15548 0
M  V30 8186 H 777.979 -1.01566 1.26079 0
M  V30 8187 H 779.971 -4.01355 0.519282 0
M  V30 8188 H 778.541 -3.12535 -0.063555 0
M  V30 8189 H 777.761 -3.11011 2.4221 0
M  V30 8190 H 779.049 -4.2845 2.74422 0
M  V30 8191 H 778.447 -5.65559 -0.126324 0
M  V30 8192 H 777.004 -6.51362 0.238945 0
M  V30 8193 N 780.437 -1.16799 -1.0581 0
M  V30 8194 C 781.367 -0.902241 -2.15364 0
M  V30 8195 C 782.348 0.153351 -1.69407 0
M  V30 8196 O 783.533 0.00442032 -1.94199 0
M  V30 8197 C 780.663 -0.407911 -3.44896 0
M  V30 8198 C 779.617 -1.40197 -4.04387 0
M  V30 8199 C 778.943 -0.765848 -5.29187 0
M  V30 8200 C 780.243 -2.77316 -4.42598 0
M  V30 8201 H 781.937 -1.81841 -2.37853 0
M  V30 8202 H 779.483 -0.875731 -1.14311 0
M  V30 8203 H 781.436 -0.20945 -4.20879 0
M  V30 8204 H 780.16 0.54378 -3.22041 0
M  V30 8205 H 778.819 -1.58707 -3.30466 0
M  V30 8206 H 778.467 0.192482 -5.02632 0
M  V30 8207 H 778.167 -1.42939 -5.69949 0
M  V30 8208 H 779.691 -0.577519 -6.07863 0
M  V30 8209 H 781.105 -2.62561 -5.09642 0
M  V30 8210 H 779.502 -3.4019 -4.94359 0
M  V30 8211 H 780.572 -3.32199 -3.53231 0
M  V30 8212 N 781.915 1.24427 -0.967243 0
M  V30 8213 C 782.847 2.24641 -0.454856 0
M  V30 8214 C 783.86 1.56849 0.436152 0
M  V30 8215 O 785.049 1.76846 0.242401 0
M  V30 8216 C 782.149 3.36954 0.362672 0
M  V30 8217 C 781.322 4.34318 -0.518324 0
M  V30 8218 C 780.381 5.25638 0.243122 0
M  V30 8219 O 779.407 5.68043 -0.362791 0
M  V30 8220 N 780.609 5.59897 1.53282 0
M  V30 8221 H 783.374 2.69238 -1.31648 0
M  V30 8222 H 780.935 1.38464 -0.839015 0
M  V30 8223 H 782.927 3.95014 0.880094 0
M  V30 8224 H 781.497 2.91646 1.12522 0
M  V30 8225 H 780.717 3.74953 -1.21672 0
M  V30 8226 H 782.005 4.96338 -1.11919 0
M  V30 8227 H 781.403 5.27373 2.04682 0
M  V30 8228 H 779.96 6.20488 1.99594 0
M  V30 8229 N 783.393 0.737304 1.3929 0
M  V30 8230 C 784.323 0.113988 2.33222 0
M  V30 8231 C 785.304 -0.721695 1.54031 0
M  V30 8232 O 786.489 -0.666206 1.82415 0
M  V30 8233 C 783.619 -0.792319 3.38141 0
M  V30 8234 C 782.573 -0.0606178 4.27957 0
M  V30 8235 C 781.899 -1.08409 5.23595 0
M  V30 8236 C 783.199 1.09817 5.10625 0
M  V30 8237 H 784.893 0.898611 2.85596 0
M  V30 8238 H 782.439 0.433571 1.37318 0
M  V30 8239 H 784.392 -1.23793 4.02807 0
M  V30 8240 H 783.116 -1.60908 2.84211 0
M  V30 8241 H 781.775 0.365393 3.64775 0
M  V30 8242 H 781.423 -1.89449 4.6596 0
M  V30 8243 H 781.123 -0.599269 5.84536 0
M  V30 8244 H 782.647 -1.52936 5.91137 0
M  V30 8245 H 784.061 0.730892 5.68622 0
M  V30 8246 H 782.458 1.51278 5.80719 0
M  V30 8247 H 783.528 1.91878 4.45321 0
M  V30 8248 N 784.871 -1.49948 0.485112 0
M  V30 8249 C 786.119 -2.01996 -0.0648775 0
M  V30 8250 C 786.44 -1.36819 -1.38945 0
M  V30 8251 O 785.71 -0.518163 -1.88923 0
M  V30 8252 H 784.29 -0.746513 -0.0269662 0
M  V30 8253 H 786.952 -1.84136 0.638733 0
M  V30 8254 H 786.048 -3.11418 -0.20617 0
M  V30 8255 N 786.349 -0.21828 -1.56081 0
M  V30 8256 C 787.296 0.693189 -2.20144 0
M  V30 8257 C 788.266 1.19274 -1.15598 0
M  V30 8258 O 789.451 1.25243 -1.4394 0
M  V30 8259 C 786.591 1.89715 -2.88275 0
M  V30 8260 C 785.704 1.4368 -4.07407 0
M  V30 8261 C 784.839 2.59807 -4.63329 0
M  V30 8262 C 783.878 2.10492 -5.74769 0
M  V30 8263 N 783.015 3.1988 -6.24997 0
M  V30 8264 H 787.855 0.14016 -2.9767 0
M  V30 8265 H 785.392 0.0574292 -1.46988 0
M  V30 8266 H 787.35 2.60398 -3.25958 0
M  V30 8267 H 785.98 2.42311 -2.13273 0
M  V30 8268 H 785.032 0.625007 -3.7523 0
M  V30 8269 H 786.344 1.03517 -4.8794 0
M  V30 8270 H 785.498 3.38577 -5.03438 0
M  V30 8271 H 784.237 3.03256 -3.81951 0
M  V30 8272 H 783.242 1.30182 -5.34165 0
M  V30 8273 H 784.467 1.68045 -6.5798 0
M  V30 8274 H 782.413 3.62817 -5.46534 0
M  V30 8275 H 782.33 2.83958 -7.00645 0
M  V30 8276 H 783.598 3.98796 -6.69763 0
M  V30 8277 N 787.827 1.57504 0.0551401 0
M  V30 8278 C 789.076 1.87237 0.750009 0
M  V30 8279 C 789.389 0.813268 1.77891 0
M  V30 8280 O 790.595 0.99898 2.52453 0
M  V30 8281 C 789.051 3.32187 1.38491 0
M  V30 8282 C 788.659 4.46267 0.393707 0
M  V30 8283 C 790.403 3.71101 2.06117 0
M  V30 8284 C 788.31 5.82265 1.03547 0
M  V30 8285 H 787.24 0.698524 0.283866 0
M  V30 8286 H 789.891 1.835 0.00365997 0
M  V30 8287 H 788.273 3.30588 2.18008 0
M  V30 8288 H 789.447 4.59289 -0.372865 0
M  V30 8289 H 787.762 4.16015 -0.17902 0
M  V30 8290 H 790.359 4.70012 2.54937 0
M  V30 8291 H 790.702 3.01751 2.86796 0
M  V30 8292 H 791.235 3.74762 1.33409 0
M  V30 8293 H 787.974 6.54949 0.268644 0
M  V30 8294 H 787.494 5.73012 1.7725 0
M  V30 8295 H 789.173 6.28148 1.55047 0
M  V30 8296 N 789.305 -0.326896 1.54172 0
M  V30 8297 C 790.235 -1.40741 1.86317 0
M  V30 8298 C 791.216 -1.54125 0.719684 0
M  V30 8299 O 792.401 -1.6806 0.973117 0
M  V30 8300 C 789.531 -2.77557 2.08757 0
M  V30 8301 C 788.485 -2.78965 3.24596 0
M  V30 8302 C 787.811 -4.18824 3.32401 0
M  V30 8303 C 789.111 -2.4301 4.62324 0
M  V30 8304 H 790.805 -1.14088 2.76811 0
M  V30 8305 H 788.351 -0.547389 1.3319 0
M  V30 8306 H 790.304 -3.53209 2.29829 0
M  V30 8307 H 789.028 -3.0568 1.15009 0
M  V30 8308 H 787.687 -2.05767 3.03406 0
M  V30 8309 H 787.335 -4.44083 2.36218 0
M  V30 8310 H 787.035 -4.20673 4.10253 0
M  V30 8311 H 788.559 -4.96294 3.55703 0
M  V30 8312 H 789.973 -3.08375 4.83299 0
M  V30 8313 H 788.37 -2.56116 5.42701 0
M  V30 8314 H 789.44 -1.38165 4.64799 0
M  V30 8315 N 790.784 -1.46188 -0.588786 0
M  V30 8316 C 792.012 -1.54743 -1.37339 0
M  V30 8317 C 792.427 -0.186446 -1.87877 0
M  V30 8318 O 791.784 0.815247 -1.63279 0
M  V30 8319 C 791.835 -2.54727 -2.56508 0
M  V30 8320 O 791.556 -3.85539 -2.08066 0
M  V30 8321 C 793.057 -2.73163 -3.49137 0
M  V30 8322 H 790.277 -0.523484 -0.419768 0
M  V30 8323 H 792.821 -1.91543 -0.716345 0
M  V30 8324 H 790.976 -2.20948 -3.18215 0
M  V30 8325 H 791.39 -4.39905 -2.85629 0
M  V30 8326 H 792.864 -3.47057 -4.2925 0
M  V30 8327 H 793.341 -1.79856 -4.00685 0
M  V30 8328 H 793.947 -3.08014 -2.9327 0
M  V30 8329 N 792.262 0.832906 -1.33792 0
M  V30 8330 C 793.209 1.94314 -1.24541 0
M  V30 8331 C 794.179 1.65646 -0.122753 0
M  V30 8332 O 795.364 1.88394 -0.30204 0
M  V30 8333 C 792.504 3.30395 -0.996641 0
M  V30 8334 C 791.617 3.71422 -2.20612 0
M  V30 8335 C 790.752 4.96401 -1.89101 0
M  V30 8336 C 789.791 5.2998 -3.06247 0
M  V30 8337 N 788.928 6.46137 -2.74685 0
M  V30 8338 H 793.768 2.01559 -2.19495 0
M  V30 8339 H 791.305 0.986243 -1.09141 0
M  V30 8340 H 793.263 4.08803 -0.832817 0
M  V30 8341 H 791.893 3.22691 -0.0838242 0
M  V30 8342 H 790.945 2.88488 -2.47949 0
M  V30 8343 H 792.257 3.92215 -3.0817 0
M  V30 8344 H 791.411 5.82572 -1.69396 0
M  V30 8345 H 790.15 4.7759 -0.987882 0
M  V30 8346 H 789.155 4.42312 -3.26559 0
M  V30 8347 H 790.38 5.50737 -3.97323 0
M  V30 8348 H 788.326 6.28801 -1.86938 0
M  V30 8349 H 788.243 6.67054 -3.55774 0
M  V30 8350 H 789.511 7.35403 -2.58461 0
M  V30 8351 N 793.74 1.17359 1.05189 0
M  V30 8352 C 794.968 0.986529 1.81866 0
M  V30 8353 C 795.383 -0.46522 1.82979 0
M  V30 8354 O 794.74 -1.32305 1.25705 0
M  V30 8355 C 794.791 1.52021 3.27982 0
M  V30 8356 O 794.512 2.91511 3.27037 0
M  V30 8357 C 796.013 1.37774 4.21347 0
M  V30 8358 H 793.233 0.349021 0.573084 0
M  V30 8359 H 795.777 1.55648 1.32643 0
M  V30 8360 H 793.932 0.992287 3.74476 0
M  V30 8361 H 794.346 3.16178 4.18488 0
M  V30 8362 H 795.82 1.7993 5.21852 0
M  V30 8363 H 796.297 0.32483 4.37997 0
M  V30 8364 H 796.903 1.89583 3.80708 0
M  V30 8365 N 795.218 -1.23913 0.973828 0
M  V30 8366 C 796.466 -1.91771 0.637817 0
M  V30 8367 C 796.787 -1.76434 -0.830435 0
M  V30 8368 O 796.057 -1.13965 -1.59339 0
M  V30 8369 H 794.637 -0.709761 0.232912 0
M  V30 8370 H 797.299 -1.50677 1.23622 0
M  V30 8371 H 796.395 -2.99327 0.883731 0
M  V30 8372 N 796.696 -0.74468 -1.38897 0
M  V30 8373 C 797.606 -0.112892 -2.34328 0
M  V30 8374 C 798.622 0.71087 -1.58816 0
M  V30 8375 O 799.798 0.637092 -1.91058 0
M  V30 8376 C 796.863 0.776417 -3.37894 0
M  V30 8377 C 795.924 -0.0606999 -4.29257 0
M  V30 8378 C 795.157 0.786258 -5.27877 0
M  V30 8379 O 795.38 2.02463 -5.33259 0
M  V30 8380 O 794.314 0.209781 -6.01534 0
M  V30 8381 H 798.14 -0.900801 -2.90033 0
M  V30 8382 H 795.725 -0.505462 -1.4059 0
M  V30 8383 H 797.607 1.28496 -4.01331 0
M  V30 8384 H 796.282 1.54297 -2.84559 0
M  V30 8385 H 795.189 -0.614984 -3.69011 0
M  V30 8386 H 796.522 -0.789702 -4.85824 0
M  V30 8387 N 798.174 1.49689 -0.493057 0
M  V30 8388 C 799.104 2.31826 0.279073 0
M  V30 8389 C 800.085 1.39733 0.969987 0
M  V30 8390 O 801.27 1.68646 0.962925 0
M  V30 8391 C 798.4 3.20046 1.34862 0
M  V30 8392 C 797.354 4.20869 0.77805 0
M  V30 8393 C 796.68 4.97971 1.94753 0
M  V30 8394 C 797.98 5.21813 -0.225543 0
M  V30 8395 H 799.674 2.96627 -0.406512 0
M  V30 8396 H 797.22 1.42647 -0.196943 0
M  V30 8397 H 799.173 3.76315 1.89645 0
M  V30 8398 H 797.897 2.53172 2.06328 0
M  V30 8399 H 796.556 3.65733 0.252036 0
M  V30 8400 H 796.204 4.27552 2.64969 0
M  V30 8401 H 795.904 5.66186 1.57187 0
M  V30 8402 H 797.428 5.57082 2.49984 0
M  V30 8403 H 798.842 5.72823 0.233864 0
M  V30 8404 H 797.239 5.97872 -0.516622 0
M  V30 8405 H 798.309 4.71209 -1.14412 0
M  V30 8406 N 799.652 0.226554 1.55963 0
M  V30 8407 C 801.063 -0.280381 1.84583 0
M  V30 8408 C 801.414 -1.59105 1.14804 0
M  V30 8409 O 800.539 -2.12297 0.419414 0
M  V30 8410 C 801.134 -0.515499 3.34855 0
M  V30 8411 C 799.693 -0.966733 3.63774 0
M  V30 8412 C 798.84 -0.0325753 2.77281 0
M  V30 8413 H 801.791 0.449626 1.52197 0
M  V30 8414 H 801.812 -1.36085 3.55332 0
M  V30 8415 H 801.324 0.438594 3.85614 0
M  V30 8416 H 799.425 -1.93401 3.18476 0
M  V30 8417 H 799.538 -0.837679 4.7172 0
M  V30 8418 H 797.902 -0.540279 2.48904 0
M  V30 8419 H 798.685 0.916524 3.30839 0
M  V30 8420 N 801.13 -1.57531 -0.0467866 0
M  V30 8421 C 802.546 -1.54451 -0.402107 0
M  V30 8422 C 802.746 -0.950275 -1.77685 0
M  V30 8423 O 801.802 -0.563602 -2.4613 0
M  V30 8424 C 803.115 -2.9899 -0.320212 0
M  V30 8425 C 804.663 -3.10452 -0.398588 0
M  V30 8426 C 805.138 -4.56689 -0.346335 0
M  V30 8427 N 806.629 -4.6142 -0.405666 0
M  V30 8428 C 807.364 -5.72087 -0.387845 0
M  V30 8429 N 806.86 -6.92045 -0.32336 0
M  V30 8430 N 808.653 -5.60404 -0.436263 0
M  V30 8431 H 800.804 -1.94515 0.853087 0
M  V30 8432 H 803.067 -0.891397 0.322669 0
M  V30 8433 H 802.773 -3.46124 0.623794 0
M  V30 8434 H 802.647 -3.60164 -1.1208 0
M  V30 8435 H 805.034 -2.63276 -1.33302 0
M  V30 8436 H 805.115 -2.52142 0.431026 0
M  V30 8437 H 804.759 -5.04527 0.584356 0
M  V30 8438 H 804.689 -5.12889 -1.19382 0
M  V30 8439 H 807.18 -3.75105 -0.458737 0
M  V30 8440 H 807.493 -7.7216 -0.314375 0
M  V30 8441 H 805.838 -6.94396 -0.28967 0
M  V30 8442 H 809.029 -4.65586 -0.48451 0
M  V30 8443 H 809.202 -6.46645 -0.418907 0
M  V30 8444 N 802.608 0.318715 -1.54344 0
M  V30 8445 C 803.54 1.41364 -1.80413 0
M  V30 8446 C 804.553 1.47627 -0.686294 0
M  V30 8447 O 805.742 1.50264 -0.963486 0
M  V30 8448 C 802.842 2.79867 -1.91123 0
M  V30 8449 C 802.015 2.96749 -3.21339 0
M  V30 8450 C 801.074 4.15642 -3.22689 0
M  V30 8451 O 800.1 4.08571 -3.96306 0
M  V30 8452 N 801.302 5.25416 -2.46817 0
M  V30 8453 H 804.067 1.19363 -2.74905 0
M  V30 8454 H 801.628 0.508722 -1.537 0
M  V30 8455 H 803.62 3.57619 -1.89448 0
M  V30 8456 H 802.19 2.94896 -1.03706 0
M  V30 8457 H 801.41 2.06257 -3.35934 0
M  V30 8458 H 802.698 3.04927 -4.07304 0
M  V30 8459 H 802.096 5.34037 -1.86605 0
M  V30 8460 H 800.653 6.01569 -2.50915 0
M  V30 8461 N 804.086 1.46499 0.581025 0
M  V30 8462 C 805.497 1.4604 1.16315 0
M  V30 8463 C 805.848 0.202154 1.95156 0
M  V30 8464 O 804.973 -0.694638 2.04948 0
M  V30 8465 C 805.568 2.64593 2.11604 0
M  V30 8466 C 804.127 2.6717 2.65136 0
M  V30 8467 C 803.274 2.38753 1.4104 0
M  V30 8468 H 806.225 1.54354 0.368871 0
M  V30 8469 H 806.246 2.40207 2.95095 0
M  V30 8470 H 805.758 3.56154 1.54194 0
M  V30 8471 H 803.859 1.79685 3.26411 0
M  V30 8472 H 803.972 3.67182 3.07757 0
M  V30 8473 H 802.336 1.88845 1.70908 0
M  V30 8474 H 803.119 3.32493 0.854588 0
M  V30 8475 N 805.565 -0.825799 1.34232 0
M  V30 8476 C 806.793 -1.61363 1.29497 0
M  V30 8477 C 807.208 -1.88341 -0.131536 0
M  V30 8478 O 806.565 -1.47279 -1.07773 0
M  V30 8479 C 806.616 -2.95623 2.08061 0
M  V30 8480 O 806.337 -2.69824 3.45147 0
M  V30 8481 C 807.838 -3.90032 2.10688 0
M  V30 8482 H 805.058 -0.501676 0.445603 0
M  V30 8483 H 807.602 -1.02767 1.76803 0
M  V30 8484 H 805.757 -3.50785 1.64404 0
M  V30 8485 H 806.171 -3.55412 3.85723 0
M  V30 8486 H 807.645 -4.81411 2.70087 0
M  V30 8487 H 808.122 -4.25188 1.10052 0
M  V30 8488 H 808.728 -3.40807 2.54422 0
M  V30 8489 N 807.043 -1.17915 -1.04565 0
M  V30 8490 C 808.271 -0.99616 -1.8134 0
M  V30 8491 C 808.686 0.455509 -1.83223 0
M  V30 8492 O 808.043 1.31636 -1.26405 0
M  V30 8493 C 808.094 -1.53758 -3.27171 0
M  V30 8494 O 807.815 -2.93241 -3.25486 0
M  V30 8495 C 809.316 -1.40007 -4.2061 0
M  V30 8496 H 806.536 -0.352055 -0.571225 0
M  V30 8497 H 809.08 -1.56349 -1.31815 0
M  V30 8498 H 807.235 -1.01213 -3.73945 0
M  V30 8499 H 807.649 -3.18392 -4.16805 0
M  V30 8500 H 809.123 -1.82695 -5.2089 0
M  V30 8501 H 809.6 -0.348054 -4.37819 0
M  V30 8502 H 810.206 -1.916 -3.79697 0
M  V30 8503 N 808.521 1.23394 -0.980386 0
M  V30 8504 C 809.471 2.22634 -0.491747 0
M  V30 8505 C 810.455 1.54958 0.433222 0
M  V30 8506 O 811.647 1.75049 0.262078 0
M  V30 8507 C 808.776 3.4269 0.204531 0
M  V30 8508 C 807.862 4.17594 -0.740007 0
M  V30 8509 N 808.253 4.69458 -1.88263 0
M  V30 8510 C 806.551 4.42554 -0.553335 0
M  V30 8511 C 807.252 5.26446 -2.47446 0
M  V30 8512 N 806.228 5.14377 -1.75834 0
M  V30 8513 H 810.03 2.60363 -1.36339 0
M  V30 8514 H 807.544 1.38924 -0.841059 0
M  V30 8515 H 809.541 4.12959 0.571901 0
M  V30 8516 H 808.201 3.06477 1.07246 0
M  V30 8517 H 809.212 4.65803 -2.26381 0
M  V30 8518 H 805.889 4.16629 0.269573 0
M  V30 8519 H 807.279 5.77195 -3.43941 0
M  V30 8520 N 809.999 0.752036 1.385 0
M  V30 8521 C 811.41 0.375385 1.82887 0
M  V30 8522 C 811.761 -1.09575 1.62751 0
M  V30 8523 O 810.886 -1.84685 1.12785 0
M  V30 8524 C 811.481 0.674563 3.32017 0
M  V30 8525 C 810.04 0.351208 3.74758 0
M  V30 8526 C 809.187 0.928531 2.61292 0
M  V30 8527 H 812.138 0.948313 1.27251 0
M  V30 8528 H 812.159 -0.0477781 3.8047 0
M  V30 8529 H 811.671 1.74533 3.46641 0
M  V30 8530 H 809.772 -0.713042 3.65714 0
M  V30 8531 H 809.885 0.845675 4.71577 0
M  V30 8532 H 808.249 0.354012 2.52228 0
M  V30 8533 H 809.032 2.0043 2.78716 0
M  V30 8534 N 811.477 -1.49425 0.500989 0
M  V30 8535 C 812.387 -2.32899 -0.282011 0
M  V30 8536 C 813.403 -1.44632 -0.967346 0
M  V30 8537 O 814.579 -1.77654 -0.94873 0
M  V30 8538 C 811.644 -3.20069 -1.33253 0
M  V30 8539 C 810.705 -4.24186 -0.660636 0
M  V30 8540 C 809.938 -5.07191 -1.6611 0
M  V30 8541 O 810.161 -4.91712 -2.89094 0
M  V30 8542 O 809.095 -5.8948 -1.21643 0
M  V30 8543 H 812.921 -3.01038 0.401224 0
M  V30 8544 H 810.506 -1.47079 0.262323 0
M  V30 8545 H 812.388 -3.74071 -1.94033 0
M  V30 8546 H 811.063 -2.54625 -1.9987 0
M  V30 8547 H 809.97 -3.74098 -0.0130959 0
M  V30 8548 H 811.303 -4.92186 -0.0369179 0
M  V30 8549 N 812.955 -0.234822 -1.55841 0
M  V30 8550 C 813.865 0.680828 -2.24504 0
M  V30 8551 C 814.881 1.20306 -1.25708 0
M  V30 8552 O 816.057 1.24188 -1.58554 0
M  V30 8553 C 813.122 1.86636 -2.92178 0
M  V30 8554 C 812.183 1.3848 -4.06352 0
M  V30 8555 C 811.416 2.51382 -4.70789 0
M  V30 8556 O 811.639 3.69831 -4.34259 0
M  V30 8557 O 810.573 2.21828 -5.59532 0
M  V30 8558 H 814.399 0.12583 -3.03439 0
M  V30 8559 H 811.984 -0.00381817 -1.494 0
M  V30 8560 H 813.866 2.55845 -3.34845 0
M  V30 8561 H 812.541 2.40921 -2.16192 0
M  V30 8562 H 811.448 0.660341 -3.68226 0
M  V30 8563 H 812.781 0.888177 -4.8412 0
M  V30 8564 N 814.433 1.57553 0.0384317 0
M  V30 8565 C 815.661 1.93093 0.743141 0
M  V30 8566 C 816.076 0.833787 1.69391 0
M  V30 8567 O 815.433 -0.190532 1.81503 0
M  V30 8568 C 815.484 3.28533 1.50826 0
M  V30 8569 O 815.205 4.34032 0.595665 0
M  V30 8570 C 816.706 3.78297 2.31098 0
M  V30 8571 H 813.926 0.637486 0.20941 0
M  V30 8572 H 816.47 2.045 -0.00125154 0
M  V30 8573 H 814.625 3.18552 2.20462 0
M  V30 8574 H 815.039 5.12155 1.13124 0
M  V30 8575 H 816.513 4.75602 2.80191 0
M  V30 8576 H 816.99 3.09008 3.12107 0
M  V30 8577 H 817.596 3.91331 1.66555 0
M  V30 8578 N 815.911 -0.310526 1.54511 0
M  V30 8579 C 816.821 -1.4054 1.87844 0
M  V30 8580 C 817.837 -1.55954 0.771635 0
M  V30 8581 O 819.013 -1.70801 1.06719 0
M  V30 8582 C 816.078 -2.75063 2.11048 0
M  V30 8583 C 815.139 -2.68715 3.348 0
M  V30 8584 C 814.372 -3.96821 3.56887 0
M  V30 8585 O 814.595 -4.95721 2.82165 0
M  V30 8586 O 813.529 -3.99291 4.50389 0
M  V30 8587 H 817.355 -1.15275 2.80972 0
M  V30 8588 H 814.94 -0.505732 1.4058 0
M  V30 8589 H 816.822 -3.54671 2.27566 0
M  V30 8590 H 815.497 -3.00191 1.21108 0
M  V30 8591 H 814.404 -1.87611 3.23655 0
M  V30 8592 H 815.737 -2.4854 4.2484 0
M  V30 8593 N 817.389 -1.46805 -0.573248 0
M  V30 8594 C 818.299 -1.60687 -1.70929 0
M  V30 8595 C 819.315 -0.490084 -1.66956 0
M  V30 8596 O 820.491 -0.755482 -1.86693 0
M  V30 8597 C 817.556 -1.60259 -3.07438 0
M  V30 8598 C 816.617 -2.83242 -3.22603 0
M  V30 8599 C 815.85 -2.82825 -4.52599 0
M  V30 8600 O 816.073 -1.92113 -5.37074 0
M  V30 8601 O 815.007 -3.74489 -4.71213 0
M  V30 8602 H 818.833 -2.56782 -1.62163 0
M  V30 8603 H 816.418 -1.29706 -0.741399 0
M  V30 8604 H 818.3 -1.6275 -3.88704 0
M  V30 8605 H 816.975 -0.673268 -3.16621 0
M  V30 8606 H 815.882 -2.86302 -2.40794 0
M  V30 8607 H 817.215 -3.75415 -3.18315 0
M  V30 8608 N 818.867 0.818669 -1.34668 0
M  V30 8609 C 819.777 1.9616 -1.2868 0
M  V30 8610 C 820.793 1.72918 -0.193742 0
M  V30 8611 O 821.969 1.96951 -0.420975 0
M  V30 8612 C 819.034 3.30534 -1.04633 0
M  V30 8613 C 818.095 3.66755 -2.23136 0
M  V30 8614 C 817.328 4.94717 -2.00227 0
M  V30 8615 O 817.551 5.62218 -0.96264 0
M  V30 8616 O 816.485 5.28915 -2.87286 0
M  V30 8617 H 820.311 2.04157 -2.24842 0
M  V30 8618 H 817.896 0.954691 -1.14917 0
M  V30 8619 H 819.778 4.11005 -0.930216 0
M  V30 8620 H 818.453 3.23495 -0.115139 0
M  V30 8621 H 817.36 2.8671 -2.40308 0
M  V30 8622 H 818.693 3.78484 -3.1466 0
M  V30 8623 N 820.346 1.18468 1.03938 0
M  V30 8624 C 821.276 0.936389 2.13902 0
M  V30 8625 C 822.257 -0.126381 1.6963 0
M  V30 8626 O 823.442 0.0264757 1.94182 0
M  V30 8627 C 820.572 0.462729 3.44204 0
M  V30 8628 C 819.526 1.46613 4.02105 0
M  V30 8629 C 818.852 0.84994 5.27902 0
M  V30 8630 C 820.152 2.84323 4.3813 0
M  V30 8631 H 821.846 1.85602 2.3493 0
M  V30 8632 H 819.392 0.893806 1.12903 0
M  V30 8633 H 821.345 0.276382 4.20493 0
M  V30 8634 H 820.069 -0.492477 3.22866 0
M  V30 8635 H 818.728 1.63944 3.27899 0
M  V30 8636 H 818.376 -0.112493 5.02874 0
M  V30 8637 H 818.076 1.51988 5.67603 0
M  V30 8638 H 819.6 0.674152 6.06867 0
M  V30 8639 H 821.014 2.70636 5.054 0
M  V30 8640 H 819.411 3.48012 4.88884 0
M  V30 8641 H 820.481 3.37776 3.47901 0
M  V30 8642 N 821.824 -1.22873 0.986916 0
M  V30 8643 C 823.052 -1.95487 0.677663 0
M  V30 8644 C 823.467 -1.72978 -0.756572 0
M  V30 8645 O 822.824 -1.02517 -1.50985 0
M  V30 8646 C 822.875 -3.48337 0.966638 0
M  V30 8647 O 822.596 -3.70087 2.34451 0
M  V30 8648 C 824.097 -4.38142 0.674248 0
M  V30 8649 H 821.317 -0.622211 0.251185 0
M  V30 8650 H 823.861 -1.56187 1.32007 0
M  V30 8651 H 822.016 -3.85628 0.370137 0
M  V30 8652 H 822.43 -4.64332 2.43918 0
M  V30 8653 H 823.904 -5.44165 0.926759 0
M  V30 8654 H 824.381 -4.3745 -0.391728 0
M  V30 8655 H 824.987 -4.06469 1.25152 0
M  V30 8656 N 823.302 -0.75937 -1.38099 0
M  V30 8657 C 824.212 -0.13774 -2.34195 0
M  V30 8658 C 825.228 0.693985 -1.59561 0
M  V30 8659 O 826.404 0.616792 -1.91723 0
M  V30 8660 C 823.469 0.740535 -3.38699 0
M  V30 8661 C 822.53 -0.106225 -4.29169 0
M  V30 8662 C 821.763 0.730225 -5.28681 0
M  V30 8663 O 821.986 1.96796 -5.35376 0
M  V30 8664 O 820.92 0.145969 -6.01723 0
M  V30 8665 H 824.746 -0.931512 -2.89061 0
M  V30 8666 H 822.331 -0.520345 -1.40046 0
M  V30 8667 H 824.213 1.24232 -4.02672 0
M  V30 8668 H 822.888 1.51271 -2.8618 0
M  V30 8669 H 821.795 -0.654088 -3.68337 0
M  V30 8670 H 823.128 -0.841186 -4.84959 0
M  V30 8671 N 824.78 1.49157 -0.508906 0
M  V30 8672 C 825.712 2.272 0.302115 0
M  V30 8673 C 826.725 1.3407 0.923529 0
M  V30 8674 O 827.914 1.5929 0.805532 0
M  V30 8675 C 825.014 3.06736 1.44105 0
M  V30 8676 C 824.187 4.27497 0.925477 0
M  V30 8677 C 823.246 4.89014 1.94297 0
M  V30 8678 O 822.272 5.48851 1.50834 0
M  V30 8679 N 823.474 4.7937 3.2739 0
M  V30 8680 H 826.239 2.97443 -0.367115 0
M  V30 8681 H 823.8 1.58248 -0.341933 0
M  V30 8682 H 825.792 3.44763 2.11944 0
M  V30 8683 H 824.362 2.3905 2.0143 0
M  V30 8684 H 823.582 3.94135 0.0717301 0
M  V30 8685 H 824.87 5.05714 0.55955 0
M  V30 8686 H 824.268 4.31869 3.65384 0
M  V30 8687 H 822.825 5.21559 3.90922 0
M  V30 8688 N 826.258 0.243083 1.55714 0
M  V30 8689 C 827.19 -0.690766 2.18543 0
M  V30 8690 C 828.203 -1.14163 1.16064 0
M  V30 8691 O 829.392 -1.06906 1.42946 0
M  V30 8692 C 826.492 -1.95016 2.77168 0
M  V30 8693 C 825.665 -1.65137 4.05029 0
M  V30 8694 C 824.724 -2.75998 4.48009 0
M  V30 8695 O 823.75 -2.43547 5.14464 0
M  V30 8696 N 824.952 -4.05414 4.15476 0
M  V30 8697 H 827.717 -0.153203 2.99308 0
M  V30 8698 H 825.278 0.0628968 1.61778 0
M  V30 8699 H 827.27 -2.68414 3.0288 0
M  V30 8700 H 825.84 -2.39762 2.00582 0
M  V30 8701 H 825.06 -0.752768 3.86946 0
M  V30 8702 H 826.348 -1.42633 4.88399 0
M  V30 8703 H 825.746 -4.34613 3.62116 0
M  V30 8704 H 824.303 -4.75288 4.46032 0
M  V30 8705 N 827.736 -1.57571 -0.0300757 0
M  V30 8706 C 828.646 -2.09892 -1.04798 0
M  V30 8707 C 829.662 -1.03732 -1.39698 0
M  V30 8708 O 830.838 -1.35461 -1.49038 0
M  V30 8709 C 827.903 -2.56707 -2.33028 0
M  V30 8710 C 826.964 -3.77345 -2.04718 0
M  V30 8711 C 826.197 -4.21918 -3.26834 0
M  V30 8712 O 826.42 -3.66025 -4.37472 0
M  V30 8713 O 825.354 -5.14362 -3.12594 0
M  V30 8714 H 829.18 -2.97023 -0.633344 0
M  V30 8715 H 826.765 -1.47344 -0.246991 0
M  V30 8716 H 828.647 -2.87154 -3.08417 0
M  V30 8717 H 827.322 -1.72688 -2.73789 0
M  V30 8718 H 826.229 -3.51919 -1.26901 0
M  V30 8719 H 827.562 -4.62345 -1.68813 0
M  V30 8720 N 829.214 0.302327 -1.54673 0
M  V30 8721 C 830.46 1.03924 -1.74149 0
M  V30 8722 C 830.793 1.86968 -0.525041 0
M  V30 8723 O 830.068 1.88538 0.477868 0
M  V30 8724 C 830.351 1.94633 -3.02969 0
M  V30 8725 C 830.204 1.14778 -4.34909 0
M  V30 8726 C 831.523 2.93826 -3.27649 0
M  V30 8727 H 828.642 0.376405 -0.633631 0
M  V30 8728 H 831.284 0.314007 -1.87387 0
M  V30 8729 H 829.434 2.56471 -2.91813 0
M  V30 8730 H 831.106 0.552363 -4.57981 0
M  V30 8731 H 829.349 0.450462 -4.31455 0
M  V30 8732 H 830.02 1.81495 -5.21309 0
M  V30 8733 H 832.496 2.42117 -3.38406 0
M  V30 8734 H 831.372 3.54462 -4.19104 0
M  V30 8735 H 831.633 3.67416 -2.45882 0
M  V30 8736 N 830.692 1.47107 0.565454 0
M  V30 8737 C 831.622 1.61846 1.68309 0
M  V30 8738 C 832.603 0.468159 1.63531 0
M  V30 8739 O 833.788 0.696504 1.8128 0
M  V30 8740 C 830.918 1.62474 3.06952 0
M  V30 8741 C 829.872 2.76649 3.26572 0
M  V30 8742 C 829.198 2.62345 4.65917 0
M  V30 8743 C 830.498 4.18319 3.12741 0
M  V30 8744 H 832.192 2.55407 1.5623 0
M  V30 8745 H 829.738 1.22916 0.750179 0
M  V30 8746 H 831.691 1.71378 3.84977 0
M  V30 8747 H 830.415 0.654692 3.19971 0
M  V30 8748 H 829.074 2.67242 2.50952 0
M  V30 8749 H 828.722 1.63386 4.75725 0
M  V30 8750 H 828.422 3.38936 4.79996 0
M  V30 8751 H 829.946 2.73165 5.46089 0
M  V30 8752 H 831.36 4.28745 3.80593 0
M  V30 8753 H 829.757 4.95632 3.38333 0
M  V30 8754 H 830.827 4.37263 2.09592 0
M  V30 8755 N 832.17 -0.811516 1.35101 0
M  V30 8756 C 833.1 -1.9378 1.30275 0
M  V30 8757 C 834.081 -1.69165 0.178075 0
M  V30 8758 O 835.266 -1.90599 0.372256 0
M  V30 8759 C 832.396 -3.30439 1.06899 0
M  V30 8760 C 831.35 -3.69523 2.15955 0
M  V30 8761 C 830.676 -5.0429 1.77751 0
M  V30 8762 C 831.976 -3.80419 3.57881 0
M  V30 8763 H 833.67 -1.98075 2.24514 0
M  V30 8764 H 831.216 -0.951586 1.08078 0
M  V30 8765 H 833.169 -4.08828 1.02164 0
M  V30 8766 H 831.893 -3.26473 0.0910462 0
M  V30 8767 H 830.552 -2.93416 2.19778 0
M  V30 8768 H 830.2 -4.96823 0.785876 0
M  V30 8769 H 829.9 -5.31411 2.5075 0
M  V30 8770 H 831.424 -5.85125 1.74533 0
M  V30 8771 H 832.838 -4.49051 3.56407 0
M  V30 8772 H 831.235 -4.19005 4.29598 0
M  V30 8773 H 832.305 -2.82105 3.94391 0
M  V30 8774 N 833.648 -1.19017 -1.03309 0
M  V30 8775 C 834.896 -0.988258 -1.76289 0
M  V30 8776 C 835.217 0.482557 -1.88935 0
M  V30 8777 O 834.487 1.34969 -1.41987 0
M  V30 8778 H 833.067 -0.36267 -0.653054 0
M  V30 8779 H 835.729 -1.49836 -1.2464 0
M  V30 8780 H 834.825 -1.43273 -2.77271 0
M  V30 8781 N 835.127 1.22348 -0.993418 0
M  V30 8782 C 836.037 2.27987 -0.553076 0
M  V30 8783 C 837.053 1.69378 0.398386 0
M  V30 8784 O 838.229 1.99648 0.26509 0
M  V30 8785 C 835.294 3.46475 0.124809 0
M  V30 8786 C 834.355 4.20399 -0.869682 0
M  V30 8787 C 833.588 5.33229 -0.224052 0
M  V30 8788 O 833.811 5.61885 0.981915 0
M  V30 8789 O 832.745 5.94685 -0.929174 0
M  V30 8790 H 836.571 2.67822 -1.43195 0
M  V30 8791 H 834.156 1.28525 -0.761694 0
M  V30 8792 H 836.038 4.18369 0.504496 0
M  V30 8793 H 834.713 3.08565 0.978243 0
M  V30 8794 H 833.62 3.50774 -1.30031 0
M  V30 8795 H 834.953 4.62191 -1.69233 0
M  V30 8796 N 836.605 0.766683 1.37694 0
M  V30 8797 C 837.853 0.328065 1.9942 0
M  V30 8798 C 838.174 -1.09775 1.61166 0
M  V30 8799 O 837.444 -1.75288 0.874686 0
M  V30 8800 H 836.024 0.11831 0.737572 0
M  V30 8801 H 838.686 0.983686 1.68255 0
M  V30 8802 H 837.782 0.401647 3.09505 0
M  V30 8803 N 838.083 -1.48885 0.516809 0
M  V30 8804 C 839.046 -2.27916 -0.242256 0
M  V30 8805 C 840.046 -1.34601 -0.879735 0
M  V30 8806 O 841.236 -1.57616 -0.74182 0
M  V30 8807 C 838.368 -3.13067 -1.34914 0
M  V30 8808 H 839.561 -2.96483 0.451444 0
M  V30 8809 H 837.114 -1.5391 0.272294 0
M  V30 8810 H 837.849 -2.49102 -2.07651 0
M  V30 8811 H 837.634 -3.81695 -0.897313 0
M  V30 8812 H 839.124 -3.72716 -1.88341 0
M  V30 8813 N 839.561 -0.251338 -1.55583 0
M  V30 8814 C 840.491 0.640437 -2.24545 0
M  V30 8815 C 841.472 1.17781 -1.22726 0
M  V30 8816 O 842.657 1.21633 -1.5139 0
M  V30 8817 C 839.787 1.8355 -2.94834 0
M  V30 8818 C 838.741 1.4307 -4.03379 0
M  V30 8819 C 838.067 2.70695 -4.61116 0
M  V30 8820 C 839.367 0.59848 -5.1886 0
M  V30 8821 H 841.061 0.0653772 -2.99329 0
M  V30 8822 H 838.607 0.0300042 -1.43969 0
M  V30 8823 H 840.56 2.46505 -3.4178 0
M  V30 8824 H 839.284 2.43601 -2.17546 0
M  V30 8825 H 837.943 0.824474 -3.57209 0
M  V30 8826 H 837.591 3.28954 -3.80524 0
M  V30 8827 H 837.291 2.44332 -5.34393 0
M  V30 8828 H 838.815 3.34541 -5.10798 0
M  V30 8829 H 840.229 1.13244 -5.62004 0
M  V30 8830 H 838.626 0.430728 -5.98552 0
M  V30 8831 H 839.696 -0.38829 -4.83343 0
M  V30 8832 N 841.039 1.57585 0.0217189 0
M  V30 8833 C 842.267 1.93871 0.722619 0
M  V30 8834 C 842.682 0.851706 1.68498 0
M  V30 8835 O 842.039 -0.17127 1.81695 0
M  V30 8836 C 842.09 3.30114 1.47333 0
M  V30 8837 O 841.811 4.34639 0.549597 0
M  V30 8838 C 843.312 3.80727 2.27072 0
M  V30 8839 H 840.532 0.639671 0.202637 0
M  V30 8840 H 843.076 2.04487 -0.0229414 0
M  V30 8841 H 841.231 3.20872 2.17071 0
M  V30 8842 H 841.645 5.13326 1.07686 0
M  V30 8843 H 843.119 4.78547 2.75131 0
M  V30 8844 H 843.596 3.12301 3.08812 0
M  V30 8845 H 844.202 3.93075 1.62395 0
M  V30 8846 N 842.517 -0.29412 1.54831 0
M  V30 8847 C 843.45 -1.38779 1.81151 0
M  V30 8848 C 844.428 -1.48464 0.663124 0
M  V30 8849 O 845.612 -1.65418 0.903835 0
M  V30 8850 C 842.739 -2.76627 1.95436 0
M  V30 8851 C 841.785 -2.84333 3.17895 0
M  V30 8852 S 842.618 -2.45726 4.75793 0
M  V30 8853 C 843.774 -3.85589 4.93023 0
M  V30 8854 H 844.007 -1.16246 2.73631 0
M  V30 8855 H 841.54 -0.492611 1.46331 0
M  V30 8856 H 843.498 -3.56021 2.04351 0
M  V30 8857 H 842.159 -2.96425 1.03881 0
M  V30 8858 H 841.352 -3.85457 3.24713 0
M  V30 8859 H 840.954 -2.1294 3.07461 0
M  V30 8860 H 843.246 -4.80656 4.77468 0
M  V30 8861 H 844.189 -3.83737 5.95107 0
M  V30 8862 H 844.597 -3.75911 4.21131 0
M  V30 8863 N 843.995 -1.47404 -0.557645 0
M  V30 8864 C 845.406 -1.47872 -1.13977 0
M  V30 8865 C 845.757 -0.233176 -1.94809 0
M  V30 8866 O 844.882 0.661945 -2.06027 0
M  V30 8867 C 845.477 -2.67926 -2.07368 0
M  V30 8868 C 844.036 -2.71354 -2.60852 0
M  V30 8869 C 843.183 -2.40967 -1.37223 0
M  V30 8870 H 846.134 -1.54921 -0.344268 0
M  V30 8871 H 846.155 -2.44871 -2.91236 0
M  V30 8872 H 845.667 -3.58562 -1.48509 0
M  V30 8873 H 843.768 -1.84855 -3.23511 0
M  V30 8874 H 843.881 -3.72032 -3.01876 0
M  V30 8875 H 842.245 -1.91541 -1.67882 0
M  V30 8876 H 843.028 -3.33811 -0.801583 0
M  V30 8877 N 845.473 0.80434 -1.35529 0
M  V30 8878 C 846.889 1.10023 -1.15616 0
M  V30 8879 C 847.089 2.01478 0.0298535 0
M  V30 8880 O 846.145 2.42609 0.699778 0
M  V30 8881 C 847.458 1.72905 -2.46017 0
M  V30 8882 C 849.006 1.85315 -2.52245 0
M  V30 8883 C 849.481 2.51612 -3.82695 0
M  V30 8884 N 850.972 2.59095 -3.83958 0
M  V30 8885 C 851.707 3.11167 -4.81625 0
M  V30 8886 N 851.203 3.63659 -5.89681 0
M  V30 8887 N 852.996 3.09741 -4.6906 0
M  V30 8888 H 845.147 0.196428 -2.1149 0
M  V30 8889 H 847.41 0.149735 -0.9361 0
M  V30 8890 H 847.116 1.13171 -3.32994 0
M  V30 8891 H 846.99 2.72579 -2.6073 0
M  V30 8892 H 849.377 2.44191 -1.65695 0
M  V30 8893 H 849.458 0.844886 -2.41444 0
M  V30 8894 H 849.102 1.93385 -4.69643 0
M  V30 8895 H 849.032 3.5298 -3.90785 0
M  V30 8896 H 851.523 2.21908 -3.05884 0
M  V30 8897 H 851.836 4.01699 -6.60195 0
M  V30 8898 H 850.181 3.61852 -5.9337 0
M  V30 8899 H 853.372 2.68011 -3.83781 0
M  V30 8900 H 853.545 3.50016 -5.45338 0
M  V30 8901 N 846.951 1.19563 1.02676 0
M  V30 8902 C 847.861 0.950691 2.14474 0
M  V30 8903 C 848.877 -0.0900219 1.73767 0
M  V30 8904 O 850.053 0.0951063 2.01175 0
M  V30 8905 C 847.118 0.494917 3.43149 0
M  V30 8906 C 846.179 1.60527 3.98158 0
M  V30 8907 C 845.412 1.17115 5.20692 0
M  V30 8908 O 845.635 0.0355937 5.70389 0
M  V30 8909 O 844.569 1.97454 5.68591 0
M  V30 8910 H 848.395 1.88651 2.38001 0
M  V30 8911 H 845.98 0.978635 1.12885 0
M  V30 8912 H 847.862 0.249492 4.20661 0
M  V30 8913 H 846.537 -0.412434 3.21062 0
M  V30 8914 H 845.444 1.90487 3.21971 0
M  V30 8915 H 846.777 2.48925 4.24614 0
M  V30 8916 N 848.429 -1.21819 0.999893 0
M  V30 8917 C 849.677 -1.90375 0.678351 0
M  V30 8918 C 849.998 -1.78155 -0.792824 0
M  V30 8919 O 849.268 -1.17319 -1.56885 0
M  V30 8920 H 847.848 -0.704661 0.247915 0
M  V30 8921 H 850.51 -1.48021 1.2679 0
M  V30 8922 H 849.606 -2.97385 0.947023 0
M  V30 8923 N 849.908 -0.773975 -1.37286 0
M  V30 8924 C 851.133 -0.349561 -2.04433 0
M  V30 8925 C 851.558 1.02082 -1.5799 0
M  V30 8926 O 850.916 1.65458 -0.741172 0
M  V30 8927 C 850.964 -0.404292 -3.58326 0
M  V30 8928 O 850.068 0.594447 -4.08093 0
M  V30 8929 H 849.409 -0.150959 -0.646612 0
M  V30 8930 H 851.939 -1.05079 -1.75555 0
M  V30 8931 H 851.949 -0.262378 -4.07155 0
M  V30 8932 H 850.624 -1.40403 -3.91484 0
M  V30 8933 H 849.201 0.415468 -3.70578 0
M  V30 8934 N 851.386 1.48609 -0.524698 0
M  V30 8935 C 852.614 2.06899 0.00742946 0
M  V30 8936 C 853.029 1.38196 1.28637 0
M  V30 8937 O 852.386 0.467771 1.76403 0
M  V30 8938 C 852.437 3.60699 0.240548 0
M  V30 8939 O 852.158 4.26821 -0.987715 0
M  V30 8940 C 853.659 4.35769 0.813652 0
M  V30 8941 H 850.879 0.670278 -0.0311294 0
M  V30 8942 H 853.423 1.91071 -0.728832 0
M  V30 8943 H 851.578 3.76149 0.926845 0
M  V30 8944 H 851.992 5.18889 -0.765175 0
M  V30 8945 H 853.466 5.44174 0.926219 0
M  V30 8946 H 853.943 3.9984 1.81728 0
M  V30 8947 H 854.549 4.24983 0.164086 0
M  V30 8948 N 852.864 0.259585 1.55447 0
M  V30 8949 C 853.774 -0.645026 2.25558 0
M  V30 8950 C 854.79 -1.18291 1.27606 0
M  V30 8951 O 855.966 -1.21649 1.6051 0
M  V30 8952 C 853.031 -1.81964 2.9511 0
M  V30 8953 C 852.092 -1.31997 4.08504 0
M  V30 8954 C 851.325 -2.43861 4.74729 0
M  V30 8955 O 851.548 -3.62876 4.40088 0
M  V30 8956 O 850.482 -2.12898 5.6299 0
M  V30 8957 H 854.308 -0.0775399 3.03601 0
M  V30 8958 H 851.893 0.0275859 1.49375 0
M  V30 8959 H 853.775 -2.50485 3.38873 0
M  V30 8960 H 852.45 -2.37451 2.19997 0
M  V30 8961 H 851.357 -0.601676 3.6923 0
M  V30 8962 H 852.69 -0.811045 4.85472 0
M  V30 8963 N 854.342 -1.57594 -0.0133615 0
M  V30 8964 C 855.567 -1.94649 -0.715996 0
M  V30 8965 C 855.992 -0.860786 -1.67249 0
M  V30 8966 O 855.35 0.182228 -1.80382 0
M  V30 8967 C 855.398 -3.30789 -1.43566 0
M  V30 8968 O 854.502 -3.24148 -2.54955 0
M  V30 8969 H 853.843 -0.635801 -0.191449 0
M  V30 8970 H 856.373 -2.04569 0.0358478 0
M  V30 8971 H 856.383 -3.66045 -1.80208 0
M  V30 8972 H 855.058 -4.09367 -0.734263 0
M  V30 8973 H 853.635 -3.00548 -2.20739 0
M  V30 8974 N 855.82 0.285905 -1.54985 0
M  V30 8975 C 856.73 1.37534 -1.90057 0
M  V30 8976 C 857.746 1.54707 -0.796348 0
M  V30 8977 O 858.922 1.69082 -1.09423 0
M  V30 8978 C 855.987 2.7167 -2.15398 0
M  V30 8979 C 855.048 2.63354 -3.39033 0
M  V30 8980 C 854.281 3.91093 -3.63155 0
M  V30 8981 O 854.504 4.91169 -2.90015 0
M  V30 8982 O 853.438 3.92075 -4.56685 0
M  V30 8983 H 857.264 1.10791 -2.8277 0
M  V30 8984 H 854.849 0.483303 -1.41367 0
M  V30 8985 H 856.731 3.51006 -2.33179 0
M  V30 8986 H 855.406 2.98226 -1.25868 0
M  V30 8987 H 854.313 1.82438 -3.26599 0
M  V30 8988 H 855.646 2.41749 -4.2874 0
M  V30 8989 N 857.298 1.47698 0.54982 0
M  V30 8990 C 858.523 1.58579 1.33669 0
M  V30 8991 C 858.948 0.239049 1.86575 0
M  V30 8992 O 858.306 -0.786256 1.63364 0
M  V30 8993 C 858.354 2.62029 2.47736 0
M  V30 8994 O 857.458 2.17813 3.50188 0
M  V30 8995 H 856.799 0.532447 0.396732 0
M  V30 8996 H 859.329 1.93536 0.6637 0
M  V30 8997 H 859.339 2.82682 2.94202 0
M  V30 8998 H 858.014 3.59812 2.08586 0
M  V30 8999 H 856.591 2.07291 3.09976 0
M  V30 9000 N 858.776 -0.797141 1.35954 0
M  V30 9001 C 860.004 -1.5858 1.32891 0
M  V30 9002 C 860.419 -1.88578 -0.0915564 0
M  V30 9003 O 859.776 -1.49532 -1.04625 0
M  V30 9004 C 859.827 -2.91143 2.14284 0
M  V30 9005 O 859.548 -2.62442 3.50793 0
M  V30 9006 C 861.049 -3.85476 2.18914 0
M  V30 9007 H 858.269 -0.492111 0.456144 0
M  V30 9008 H 860.813 -0.98994 1.78943 0
M  V30 9009 H 858.968 -3.47219 1.71807 0
M  V30 9010 H 859.382 -3.4715 3.93175 0
M  V30 9011 H 860.856 -4.75574 2.80238 0
M  V30 9012 H 861.333 -4.22758 1.19047 0
M  V30 9013 H 861.939 -3.35334 2.61593 0
M  V30 9014 N 860.254 -1.20106 -1.0204 0
M  V30 9015 C 861.186 -0.904236 -2.10609 0
M  V30 9016 C 862.199 0.106487 -1.62451 0
M  V30 9017 O 863.388 -0.124035 -1.78069 0
M  V30 9018 C 860.488 -0.333423 -3.37256 0
M  V30 9019 C 859.661 -1.39476 -4.14566 0
M  V30 9020 C 858.72 -0.835961 -5.19517 0
M  V30 9021 O 857.746 -1.51573 -5.48648 0
M  V30 9022 N 858.948 0.356531 -5.79404 0
M  V30 9023 H 861.713 -1.8388 -2.36661 0
M  V30 9024 H 859.274 -1.10422 -1.184 0
M  V30 9025 H 861.266 0.0544571 -4.04663 0
M  V30 9026 H 859.836 0.505608 -3.08484 0
M  V30 9027 H 859.056 -1.95714 -3.42184 0
M  V30 9028 H 860.344 -2.10967 -4.63001 0
M  V30 9029 H 859.742 0.926143 -5.58067 0
M  V30 9030 H 858.299 0.686093 -6.48179 0
M  V30 9031 N 861.732 1.21287 -1.00634 0
M  V30 9032 C 862.642 2.27388 -0.577226 0
M  V30 9033 C 863.658 1.69791 0.380399 0
M  V30 9034 O 864.834 1.99918 0.2439 0
M  V30 9035 C 861.899 3.46588 0.0880532 0
M  V30 9036 C 860.96 4.19453 -0.914222 0
M  V30 9037 C 860.193 5.32962 -0.280596 0
M  V30 9038 O 860.416 5.62895 0.922265 0
M  V30 9039 O 859.35 5.93666 -0.992196 0
M  V30 9040 H 863.176 2.66289 -1.46028 0
M  V30 9041 H 860.761 1.2771 -0.775283 0
M  V30 9042 H 862.643 4.18881 0.460094 0
M  V30 9043 H 861.318 3.09585 0.945461 0
M  V30 9044 H 860.225 3.49376 -1.33744 0
M  V30 9045 H 861.558 4.6037 -1.74126 0
M  V30 9046 N 863.21 0.781244 1.36873 0
M  V30 9047 C 864.487 0.274217 1.93668 0
M  V30 9048 C 864.867 -1.2323 1.71399 0
M  V30 9049 O 864.215 -2.01993 1.06822 0
M  V30 9050 C 864.425 0.657939 3.42742 0
M  V30 9051 C 865.773 0.63307 4.19854 0
M  V30 9052 O 866.797 0.597909 3.51146 0
M  V30 9053 O 865.656 0.668636 5.42394 0
M  V30 9054 H 862.75 0.0658059 0.824378 0
M  V30 9055 H 865.296 0.863238 1.46104 0
M  V30 9056 H 864.068 1.69728 3.52573 0
M  V30 9057 H 863.691 0.0423678 3.97577 0
M  V30 9058 N 864.689 -1.48329 0.532571 0
M  V30 9059 C 865.619 -2.32485 -0.217511 0
M  V30 9060 C 866.6 -1.42255 -0.932598 0
M  V30 9061 O 867.785 -1.7114 -0.917873 0
M  V30 9062 C 864.915 -3.23509 -1.26329 0
M  V30 9063 C 863.869 -4.22784 -0.666191 0
M  V30 9064 C 863.195 -5.0296 -1.81482 0
M  V30 9065 C 864.495 -5.21031 0.363813 0
M  V30 9066 H 866.189 -2.95445 0.485014 0
M  V30 9067 H 863.735 -1.42075 0.234694 0
M  V30 9068 H 865.688 -3.81211 -1.79601 0
M  V30 9069 H 864.412 -2.58554 -1.99543 0
M  V30 9070 H 863.071 -3.66272 -0.15498 0
M  V30 9071 H 862.719 -4.34427 -2.5354 0
M  V30 9072 H 862.419 -5.70154 -1.4212 0
M  V30 9073 H 863.943 -5.63514 -2.35126 0
M  V30 9074 H 865.357 -5.73241 -0.0819079 0
M  V30 9075 H 863.754 -5.96292 0.674956 0
M  V30 9076 H 864.824 -4.6801 1.26865 0
M  V30 9077 N 866.167 -0.267825 -1.55308 0
M  V30 9078 C 867.077 0.633055 -2.25897 0
M  V30 9079 C 868.093 1.17613 -1.28231 0
M  V30 9080 O 869.269 1.20797 -1.61153 0
M  V30 9081 C 866.334 1.80397 -2.96071 0
M  V30 9082 C 865.395 1.29829 -4.09198 0
M  V30 9083 C 864.628 2.4134 -4.76016 0
M  V30 9084 O 864.851 3.60537 -4.42006 0
M  V30 9085 O 863.785 2.09909 -5.64111 0
M  V30 9086 H 867.611 0.0614381 -3.03638 0
M  V30 9087 H 865.196 -0.0355072 -1.49358 0
M  V30 9088 H 867.078 2.48685 -3.40197 0
M  V30 9089 H 865.753 2.36281 -2.21253 0
M  V30 9090 H 864.66 0.582086 -3.69544 0
M  V30 9091 H 865.993 0.785288 -4.85895 0
M  V30 9092 N 867.645 1.57599 0.00500368 0
M  V30 9093 C 868.555 2.11532 1.01446 0
M  V30 9094 C 869.571 1.05941 1.3803 0
M  V30 9095 O 870.747 1.37815 1.46864 0
M  V30 9096 C 867.812 2.60382 2.28915 0
M  V30 9097 C 866.873 3.80554 1.98689 0
M  V30 9098 C 866.106 4.27064 3.20081 0
M  V30 9099 O 866.329 3.72939 4.31593 0
M  V30 9100 O 865.263 5.1927 3.04371 0
M  V30 9101 H 869.089 2.97993 0.586011 0
M  V30 9102 H 866.674 1.47718 0.223519 0
M  V30 9103 H 868.556 2.92024 3.03809 0
M  V30 9104 H 867.231 1.77022 2.71007 0
M  V30 9105 H 866.138 3.53893 1.21286 0
M  V30 9106 H 867.471 4.64972 1.61437 0
M  V30 9107 N 869.123 -0.277682 1.55134 0
M  V30 9108 C 870.033 -1.36524 1.90783 0
M  V30 9109 C 871.049 -1.54283 0.804542 0
M  V30 9110 O 872.225 -1.68499 1.10318 0
M  V30 9111 C 869.29 -2.70524 2.16835 0
M  V30 9112 C 868.351 -2.61552 3.40424 0
M  V30 9113 C 867.584 -3.89162 3.65224 0
M  V30 9114 O 867.807 -4.89624 2.92616 0
M  V30 9115 O 866.741 -3.89647 4.58758 0
M  V30 9116 H 870.567 -1.0929 2.83354 0
M  V30 9117 H 868.152 -0.475799 1.41621 0
M  V30 9118 H 870.034 -3.49765 2.35038 0
M  V30 9119 H 868.709 -2.97555 1.27448 0
M  V30 9120 H 867.616 -1.80704 3.27562 0
M  V30 9121 H 868.949 -2.39472 4.30016 0
M  V30 9122 N 870.601 -1.47988 -0.541979 0
M  V30 9123 C 871.878 -1.45878 -1.30303 0
M  V30 9124 C 872.258 -0.163931 -2.10463 0
M  V30 9125 O 871.606 0.854479 -2.11922 0
M  V30 9126 C 871.816 -2.71359 -2.19466 0
M  V30 9127 C 873.164 -3.19199 -2.79995 0
M  V30 9128 O 874.188 -2.72193 -2.2976 0
M  V30 9129 O 873.047 -4.00961 -3.71339 0
M  V30 9130 H 870.141 -0.582043 -0.587498 0
M  V30 9131 H 872.687 -1.60207 -0.559623 0
M  V30 9132 H 871.459 -3.57122 -1.59936 0
M  V30 9133 H 871.082 -2.59692 -3.01075 0
M  V30 9134 N 872.079 0.78992 -1.36375 0
M  V30 9135 C 872.989 1.93386 -1.32812 0
M  V30 9136 C 874.005 1.72468 -0.230377 0
M  V30 9137 O 875.181 1.96014 -0.462657 0
M  V30 9138 C 872.246 3.2824 -1.11621 0
M  V30 9139 C 871.307 3.61939 -2.30865 0
M  V30 9140 C 870.54 4.90359 -2.10675 0
M  V30 9141 O 870.763 5.6005 -1.08168 0
M  V30 9142 O 869.697 5.22702 -2.9844 0
M  V30 9143 H 873.523 1.99342 -2.29121 0
M  V30 9144 H 871.108 0.9301 -1.16917 0
M  V30 9145 H 872.99 4.08939 -1.01719 0
M  V30 9146 H 871.665 3.23178 -0.183732 0
M  V30 9147 H 870.572 2.81549 -2.46335 0
M  V30 9148 H 871.905 3.71725 -3.22617 0
M  V30 9149 N 873.557 1.20646 1.01402 0
M  V30 9150 C 874.467 0.973385 2.13453 0
M  V30 9151 C 875.483 -0.0715865 1.73853 0
M  V30 9152 O 876.659 0.116438 2.01063 0
M  V30 9153 C 873.724 0.531285 3.42605 0
M  V30 9154 C 872.785 1.64741 3.96433 0
M  V30 9155 C 872.018 1.22631 5.1942 0
M  V30 9156 O 872.241 0.0960891 5.70319 0
M  V30 9157 O 871.175 2.03474 5.66465 0
M  V30 9158 H 875.001 1.91164 2.35987 0
M  V30 9159 H 872.586 0.990553 1.11841 0
M  V30 9160 H 874.468 0.294095 4.20373 0
M  V30 9161 H 873.143 -0.378358 3.21481 0
M  V30 9162 H 872.05 1.93891 3.19933 0
M  V30 9163 H 873.383 2.53415 4.2195 0
M  V30 9164 N 875.035 -1.20752 1.01276 0
M  V30 9165 C 876.312 -1.85676 0.615112 0
M  V30 9166 C 876.692 -1.90623 -0.906976 0
M  V30 9167 O 876.04 -1.41124 -1.79712 0
M  V30 9168 C 876.25 -3.2552 1.25847 0
M  V30 9169 C 877.598 -4.0184 1.37148 0
M  V30 9170 O 878.622 -3.3486 1.21438 0
M  V30 9171 O 877.481 -5.21783 1.62495 0
M  V30 9172 H 874.575 -0.799437 0.211729 0
M  V30 9173 H 877.121 -1.28372 1.10989 0
M  V30 9174 H 875.893 -3.16664 2.29869 0
M  V30 9175 H 875.516 -3.90452 0.750524 0
M  V30 9176 N 876.513 -0.788492 -1.36457 0
M  V30 9177 C 877.79 -0.284484 -1.9352 0
M  V30 9178 C 878.17 1.2232 -1.7205 0
M  V30 9179 O 877.518 2.01424 -1.07892 0
M  V30 9180 C 877.728 -0.676106 -3.42388 0
M  V30 9181 C 879.076 -0.655327 -4.19512 0
M  V30 9182 O 880.1 -0.616523 -3.50824 0
M  V30 9183 O 878.959 -0.697391 -5.42032 0
M  V30 9184 H 876.053 -0.0701769 -0.824017 0
M  V30 9185 H 878.599 -0.870974 -1.45644 0
M  V30 9186 H 877.371 -1.71596 -3.51668 0
M  V30 9187 H 876.994 -0.0634517 -3.97549 0
M  V30 9188 N 877.991 1.48044 -0.54043 0
M  V30 9189 C 879.239 2.02097 -0.0101367 0
M  V30 9190 C 879.56 1.41881 1.33771 0
M  V30 9191 O 878.83 0.587923 1.8687 0
M  V30 9192 H 877.41 0.747 -0.000758716 0
M  V30 9193 H 880.072 1.81639 -0.706634 0
M  V30 9194 H 879.168 3.11969 0.0904474 0
M  V30 9195 N 879.47 0.276058 1.55163 0
M  V30 9196 C 880.38 -0.621066 2.2623 0
M  V30 9197 C 881.396 -1.16931 1.28853 0
M  V30 9198 O 882.572 -1.1994 1.61791 0
M  V30 9199 C 879.637 -1.78824 2.97023 0
M  V30 9200 C 878.698 -1.27657 4.09881 0
M  V30 9201 C 877.931 -2.38812 4.77289 0
M  V30 9202 O 878.154 -3.58188 4.43912 0
M  V30 9203 O 877.088 -2.06915 5.65217 0
M  V30 9204 H 880.914 -0.0453346 3.03666 0
M  V30 9205 H 878.499 0.0434275 1.49337 0
M  V30 9206 H 880.381 -2.46877 3.41511 0
M  V30 9207 H 879.056 -2.35104 2.22503 0
M  V30 9208 H 877.963 -0.56248 3.69847 0
M  V30 9209 H 879.296 -0.759509 4.86305 0
M  V30 9210 N 880.948 -1.576 0.00335426 0
M  V30 9211 C 881.858 -2.12067 -1.00322 0
M  V30 9212 C 882.874 -1.06672 -1.37467 0
M  V30 9213 O 884.05 -1.38592 -1.46131 0
M  V30 9214 C 881.115 -2.61593 -2.27531 0
M  V30 9215 C 880.176 -3.81602 -1.96668 0
M  V30 9216 C 879.409 -4.28756 -3.17811 0
M  V30 9217 O 879.632 -3.75222 -4.2961 0
M  V30 9218 O 878.566 -5.20877 -3.01613 0
M  V30 9219 H 882.392 -2.98299 -0.570199 0
M  V30 9220 H 879.977 -1.47835 -0.215682 0
M  V30 9221 H 881.859 -2.93631 -3.02256 0
M  V30 9222 H 880.534 -1.78457 -2.70065 0
M  V30 9223 H 879.441 -3.54531 -1.19408 0
M  V30 9224 H 880.774 -4.65822 -1.58968 0
M  V30 9225 N 882.426 0.269451 -1.5528 0
M  V30 9226 C 883.336 1.35511 -1.91505 0
M  V30 9227 C 884.352 1.53854 -0.812712 0
M  V30 9228 O 885.528 1.67912 -1.1121 0
M  V30 9229 C 882.593 2.6937 -2.18267 0
M  V30 9230 C 881.654 2.59743 -3.41807 0
M  V30 9231 C 880.887 3.87219 -3.67283 0
M  V30 9232 O 881.11 4.88066 -2.95208 0
M  V30 9233 O 880.044 3.87209 -4.60818 0
M  V30 9234 H 883.87 1.07785 -2.8393 0
M  V30 9235 H 881.455 0.468282 -1.41871 0
M  V30 9236 H 883.337 3.48513 -2.36889 0
M  V30 9237 H 882.012 2.96874 -1.29024 0
M  V30 9238 H 880.919 1.78964 -3.28516 0
M  V30 9239 H 882.252 2.37188 -4.3128 0
M  V30 9240 N 883.904 1.48273 0.534124 0
M  V30 9241 C 884.814 1.65162 1.66609 0
M  V30 9242 C 885.83 0.534177 1.65598 0
M  V30 9243 O 887.006 0.804715 1.84625 0
M  V30 9244 C 884.071 1.68354 3.03081 0
M  V30 9245 C 883.132 2.91696 3.1498 0
M  V30 9246 C 882.365 2.94725 4.44941 0
M  V30 9247 O 882.588 2.06285 5.31792 0
M  V30 9248 O 881.522 3.8685 4.61119 0
M  V30 9249 H 885.348 2.60991 1.55298 0
M  V30 9250 H 882.933 1.31626 0.706749 0
M  V30 9251 H 884.815 1.72998 3.84252 0
M  V30 9252 H 883.49 0.756978 3.14725 0
M  V30 9253 H 882.397 2.92586 2.33119 0
M  V30 9254 H 883.73 3.83722 3.0825 0
M  V30 9255 N 885.382 -0.782676 1.36792 0
M  V30 9256 C 886.659 -1.52939 1.21939 0
M  V30 9257 C 887.039 -2.10228 -0.191639 0
M  V30 9258 O 886.387 -1.94574 -1.19805 0
M  V30 9259 C 886.597 -2.61898 2.30674 0
M  V30 9260 C 887.945 -3.29598 2.67676 0
M  V30 9261 O 888.969 -2.72186 2.29768 0
M  V30 9262 O 887.828 -4.3337 3.32946 0
M  V30 9263 H 884.922 -0.676856 0.47518 0
M  V30 9264 H 887.468 -0.82058 1.48542 0
M  V30 9265 H 886.24 -2.17607 3.25212 0
M  V30 9266 H 885.863 -3.40391 2.05475 0
M  V30 9267 N 886.86 -1.21182 -1.00761 0
M  V30 9268 C 888.1 -1.03886 -1.76031 0
M  V30 9269 C 888.464 0.420593 -1.87337 0
M  V30 9270 O 889.665 0.713994 -2.59144 0
M  V30 9271 C 887.936 -1.71394 -3.13622 0
M  V30 9272 S 889.495 -1.69319 -4.04816 0
M  V30 9273 H 886.313 -0.372327 -0.605717 0
M  V30 9274 H 888.915 -1.53885 -1.20581 0
M  V30 9275 H 887.619 -2.76773 -3.03026 0
M  V30 9276 H 887.15 -1.21564 -3.74147 0
M  V30 9277 H 889.165 -0.732434 -4.90765 0
M  V30 9278 N 888.338 1.20213 -1.01915 0
M  V30 9279 C 889.587 1.88968 -0.705261 0
M  V30 9280 C 889.9 1.79869 0.768531 0
M  V30 9281 O 891.106 2.43783 1.19508 0
M  V30 9282 C 889.562 3.38911 -1.21109 0
M  V30 9283 C 889.17 3.5659 -2.71197 0
M  V30 9284 C 890.914 4.13204 -0.97275 0
M  V30 9285 C 888.821 5.00372 -3.15248 0
M  V30 9286 H 887.751 0.707715 -0.260107 0
M  V30 9287 H 890.402 1.35977 -1.23217 0
M  V30 9288 H 888.784 3.9124 -0.612152 0
M  V30 9289 H 889.958 3.14635 -3.36662 0
M  V30 9290 H 888.273 2.95671 -2.93202 0
M  V30 9291 H 890.87 5.19221 -1.27726 0
M  V30 9292 H 891.213 4.16201 0.09072 0
M  V30 9293 H 891.746 3.66983 -1.5352 0
M  V30 9294 H 888.485 5.02532 -4.20882 0
M  V30 9295 H 888.005 5.43127 -2.54505 0
M  V30 9296 H 889.684 5.68969 -3.08032 0
M  V30 9297 N 889.816 0.795718 1.36037 0
M  V30 9298 C 890.748 0.156336 2.28666 0
M  V30 9299 C 891.761 -0.638075 1.49775 0
M  V30 9300 O 892.95 -0.472222 1.7214 0
M  V30 9301 C 890.05 -0.801417 3.29288 0
M  V30 9302 C 889.223 -0.0557118 4.37365 0
M  V30 9303 C 888.282 -0.930338 5.1791 0
M  V30 9304 O 887.308 -0.385266 5.67895 0
M  V30 9305 N 888.51 -2.25382 5.34961 0
M  V30 9306 H 891.275 0.952033 2.84177 0
M  V30 9307 H 888.836 0.650189 1.48271 0
M  V30 9308 H 890.828 -1.39051 3.80062 0
M  V30 9309 H 889.398 -1.49796 2.74372 0
M  V30 9310 H 888.618 0.714508 3.87671 0
M  V30 9311 H 889.906 0.458633 5.06729 0
M  V30 9312 H 889.304 -2.72073 4.95977 0
M  V30 9313 H 887.861 -2.79241 5.88955 0
M  V30 9314 N 891.294 -1.47756 0.548274 0
M  V30 9315 C 892.54 -2.02789 0.0209265 0
M  V30 9316 C 892.873 -1.42268 -1.32187 0
M  V30 9317 O 892.148 -0.575001 -1.85806 0
M  V30 9318 C 892.431 -3.60007 -0.0816674 0
M  V30 9319 C 892.284 -4.30977 1.28759 0
M  V30 9320 C 893.603 -4.32777 -0.799515 0
M  V30 9321 H 890.722 -0.736944 0.00907884 0
M  V30 9322 H 893.364 -1.76282 0.708839 0
M  V30 9323 H 891.514 -3.82722 -0.667537 0
M  V30 9324 H 893.186 -4.19629 1.91597 0
M  V30 9325 H 891.429 -3.9168 1.86466 0
M  V30 9326 H 892.1 -5.39488 1.16861 0
M  V30 9327 H 894.576 -4.15001 -0.30216 0
M  V30 9328 H 893.452 -5.42431 -0.840239 0
M  V30 9329 H 893.713 -4.01358 -1.85375 0
M  V30 9330 N 892.772 -0.284283 -1.55015 0
M  V30 9331 C 893.719 0.599194 -2.22886 0
M  V30 9332 C 894.689 1.14264 -1.20553 0
M  V30 9333 O 895.874 1.19025 -1.49123 0
M  V30 9334 C 893.014 1.77317 -2.96062 0
M  V30 9335 C 892.127 1.26271 -4.13134 0
M  V30 9336 C 891.262 2.39922 -4.73931 0
M  V30 9337 C 890.301 1.85925 -5.8318 0
M  V30 9338 N 889.438 2.93084 -6.38002 0
M  V30 9339 H 894.278 0.0137816 -2.97997 0
M  V30 9340 H 891.815 -0.00496503 -1.47099 0
M  V30 9341 H 893.773 2.46339 -3.36709 0
M  V30 9342 H 892.403 2.33047 -2.23358 0
M  V30 9343 H 891.455 0.465296 -3.77544 0
M  V30 9344 H 892.767 0.827284 -4.91892 0
M  V30 9345 H 891.921 3.1692 -5.17346 0
M  V30 9346 H 890.66 2.86784 -3.9447 0
M  V30 9347 H 889.665 1.07409 -5.39206 0
M  V30 9348 H 890.89 1.39987 -6.64515 0
M  V30 9349 H 888.836 3.3931 -5.61431 0
M  V30 9350 H 888.753 2.53986 -7.12058 0
M  V30 9351 H 890.021 3.7003 -6.86075 0
M  V30 9352 N 894.251 1.57596 -0.0117121 0
M  V30 9353 C 895.528 1.82323 0.708356 0
M  V30 9354 C 895.908 0.891947 1.91331 0
M  V30 9355 O 895.256 -0.0565984 2.2843 0
M  V30 9356 C 895.466 3.31111 1.10303 0
M  V30 9357 C 896.814 3.97147 1.50199 0
M  V30 9358 O 897.838 3.35503 1.1965 0
M  V30 9359 O 896.697 5.0576 2.07049 0
M  V30 9360 H 893.791 0.751173 0.345931 0
M  V30 9361 H 896.337 1.69657 -0.0380632 0
M  V30 9362 H 895.109 3.90534 0.24467 0
M  V30 9363 H 894.732 3.48818 1.90818 0
M  V30 9364 N 895.729 -0.261212 1.5542 0
M  V30 9365 C 896.639 -1.34493 1.92221 0
M  V30 9366 C 897.655 -1.53421 0.82086 0
M  V30 9367 O 898.831 -1.6732 1.12099 0
M  V30 9368 C 895.896 -2.68209 2.19692 0
M  V30 9369 C 894.957 -2.57927 3.43179 0
M  V30 9370 C 894.19 -3.85266 3.69331 0
M  V30 9371 O 894.413 -4.86493 2.97793 0
M  V30 9372 O 893.347 -3.8476 4.62865 0
M  V30 9373 H 897.173 -1.06278 2.84497 0
M  V30 9374 H 894.758 -0.460752 1.42118 0
M  V30 9375 H 896.64 -3.47252 2.38734 0
M  V30 9376 H 895.315 -2.96186 1.30597 0
M  V30 9377 H 894.222 -1.77219 3.2946 0
M  V30 9378 H 895.555 -2.34898 4.32532 0
M  V30 9379 N 897.207 -1.48554 -0.526253 0
M  V30 9380 C 898.117 -1.66044 -1.65731 0
M  V30 9381 C 899.133 -0.542951 -1.65312 0
M  V30 9382 O 900.309 -0.814495 -1.84195 0
M  V30 9383 C 897.374 -1.69959 -3.02184 0
M  V30 9384 C 896.435 -2.93362 -3.13428 0
M  V30 9385 C 895.668 -2.97081 -4.43372 0
M  V30 9386 O 895.891 -2.09103 -5.3069 0
M  V30 9387 O 894.825 -3.8929 -4.59061 0
M  V30 9388 H 898.651 -2.61811 -1.53912 0
M  V30 9389 H 896.236 -1.31999 -0.699759 0
M  V30 9390 H 898.118 -1.75033 -3.83329 0
M  V30 9391 H 896.793 -0.773658 -3.14319 0
M  V30 9392 H 895.7 -2.93818 -2.31564 0
M  V30 9393 H 897.033 -3.85352 -3.06211 0
M  V30 9394 N 898.685 0.775411 -1.37205 0
M  V30 9395 C 899.933 1.53081 -1.3195 0
M  V30 9396 C 900.254 1.9476 0.0966864 0
M  V30 9397 O 899.524 1.66019 1.03993 0
M  V30 9398 H 898.104 0.567762 -0.485444 0
M  V30 9399 H 900.766 0.92309 -1.71654 0
M  V30 9400 H 899.862 2.4319 -1.95614 0
M  V30 9401 N 900.163 1.21714 1.00117 0
M  V30 9402 C 901.073 0.99597 2.12409 0
M  V30 9403 C 902.089 -0.0531431 1.73919 0
M  V30 9404 O 903.265 0.137757 2.00928 0
M  V30 9405 C 900.33 0.567593 3.42022 0
M  V30 9406 C 899.391 1.68936 3.94663 0
M  V30 9407 C 898.624 1.28133 5.1809 0
M  V30 9408 O 898.847 0.156574 5.70185 0
M  V30 9409 O 897.781 2.0947 5.64275 0
M  V30 9410 H 901.607 1.93657 2.33946 0
M  V30 9411 H 899.192 1.00236 1.10784 0
M  V30 9412 H 901.074 0.338664 4.20037 0
M  V30 9413 H 899.749 -0.34424 3.21864 0
M  V30 9414 H 898.656 1.97274 3.17858 0
M  V30 9415 H 899.989 2.57876 4.19238 0
M  V30 9416 N 901.641 -1.19671 1.02551 0
M  V30 9417 C 902.866 -1.93774 0.739363 0
M  V30 9418 C 903.291 -1.74787 -0.695064 0
M  V30 9419 O 902.649 -1.04796 -1.47944 0
M  V30 9420 C 902.697 -3.43684 1.09149 0
M  V30 9421 O 901.801 -4.11874 0.208213 0
M  V30 9422 H 901.142 -0.605064 0.273484 0
M  V30 9423 H 903.672 -1.51846 1.37128 0
M  V30 9424 H 903.682 -3.94339 1.04695 0
M  V30 9425 H 902.357 -3.56826 2.13654 0
M  V30 9426 H 900.934 -3.716 0.311045 0
M  V30 9427 N 903.119 -0.802921 -1.35613 0
M  V30 9428 C 904.367 -0.380822 -1.9848 0
M  V30 9429 C 904.688 1.05464 -1.6402 0
M  V30 9430 O 903.958 1.72908 -0.920854 0
M  V30 9431 H 902.538 -0.137824 -0.734176 0
M  V30 9432 H 905.2 -1.02795 -1.65587 0
M  V30 9433 H 904.296 -0.483565 -3.08331 0
M  V30 9434 N 904.597 1.47463 -0.556102 0
M  V30 9435 C 905.56 2.28478 0.181743 0
M  V30 9436 C 906.56 1.36886 0.843738 0
M  V30 9437 O 907.75 1.59527 0.69977 0
M  V30 9438 C 904.882 3.16534 1.26566 0
M  V30 9439 H 906.075 2.95182 -0.529892 0
M  V30 9440 H 903.628 1.53134 -0.313005 0
M  V30 9441 H 904.363 2.5452 2.00973 0
M  V30 9442 H 904.148 3.83939 0.795798 0
M  V30 9443 H 905.638 3.77579 1.78393 0
M  V30 9444 N 906.075 0.2925 1.54862 0
M  V30 9445 C 906.985 -0.597036 2.26876 0
M  V30 9446 C 908.001 -1.15558 1.30086 0
M  V30 9447 O 909.177 -1.18217 1.63054 0
M  V30 9448 C 906.242 -1.75664 2.98903 0
M  V30 9449 C 905.303 -1.23303 4.11212 0
M  V30 9450 C 904.536 -2.33736 4.79795 0
M  V30 9451 O 904.759 -3.53459 4.47686 0
M  V30 9452 O 903.693 -2.00908 5.67379 0
M  V30 9453 H 907.519 -0.0131242 3.03697 0
M  V30 9454 H 905.104 0.0592642 1.49282 0
M  V30 9455 H 906.986 -2.43241 3.4411 0
M  V30 9456 H 905.661 -2.32731 2.24984 0
M  V30 9457 H 904.568 -0.523222 3.70423 0
M  V30 9458 H 905.901 -0.707887 4.87083 0
M  V30 9459 N 907.553 -1.57587 0.0200696 0
M  V30 9460 C 908.463 -2.13119 -0.980676 0
M  V30 9461 C 909.479 -1.08124 -1.36328 0
M  V30 9462 O 910.655 -1.40134 -1.44653 0
M  V30 9463 C 907.72 -2.63991 -2.24743 0
M  V30 9464 C 906.781 -3.83667 -1.9261 0
M  V30 9465 C 906.014 -4.32103 -3.13246 0
M  V30 9466 O 906.237 -3.79758 -4.25606 0
M  V30 9467 O 905.171 -5.24047 -2.96072 0
M  V30 9468 H 908.997 -2.98887 -0.538528 0
M  V30 9469 H 906.582 -1.48055 -0.19999 0
M  V30 9470 H 908.464 -2.9682 -2.99125 0
M  V30 9471 H 907.139 -1.81311 -2.68157 0
M  V30 9472 H 906.046 -3.55778 -1.15641 0
M  V30 9473 H 907.379 -4.67482 -1.54019 0
M  V30 9474 N 909.032 0.252966 -1.55557 0
M  V30 9475 C 910.28 0.979912 -1.76754 0
M  V30 9476 C 910.601 1.86083 -0.582944 0
M  V30 9477 O 909.871 1.91742 0.401497 0
M  V30 9478 H 908.451 0.364805 -0.651864 0
M  V30 9479 H 911.113 0.272372 -1.92987 0
M  V30 9480 H 910.209 1.60518 -2.67657 0
M  V30 9481 N 910.51 1.48831 0.518367 0
M  V30 9482 C 911.921 1.50842 1.10016 0
M  V30 9483 C 912.272 0.284744 1.94123 0
M  V30 9484 O 911.397 -0.607088 2.0771 0
M  V30 9485 C 911.992 2.73329 2.00191 0
M  V30 9486 C 910.551 2.78175 2.53566 0
M  V30 9487 C 909.698 2.4452 1.30786 0
M  V30 9488 H 912.649 1.55779 0.303073 0
M  V30 9489 H 912.67 2.52506 2.84642 0
M  V30 9490 H 912.182 3.62374 1.3895 0
M  V30 9491 H 910.283 1.93368 3.18496 0
M  V30 9492 H 910.396 3.79905 2.91906 0
M  V30 9493 H 908.76 1.95924 1.62744 0
M  V30 9494 H 909.543 3.35819 0.712797 0
M  V30 9495 N 911.988 -0.768124 1.37614 0
M  V30 9496 C 913.265 -1.51637 1.23554 0
M  V30 9497 C 913.645 -2.1042 -0.169331 0
M  V30 9498 O 912.993 -1.95834 -1.17735 0
M  V30 9499 C 913.203 -2.59436 2.33439 0
M  V30 9500 C 914.551 -3.2674 2.71157 0
M  V30 9501 O 915.575 -2.69733 2.32642 0
M  V30 9502 O 914.434 -4.29814 3.37524 0
M  V30 9503 H 911.528 -0.671778 0.482332 0
M  V30 9504 H 914.074 -0.804779 1.49403 0
M  V30 9505 H 912.846 -2.14146 3.27502 0
M  V30 9506 H 912.469 -3.38192 2.09073 0
M  V30 9507 N 913.466 -1.22244 -0.994698 0
M  V30 9508 C 914.396 -1.01513 -2.10279 0
M  V30 9509 C 915.377 0.0633365 -1.69982 0
M  V30 9510 O 916.562 -0.0985268 -1.9395 0
M  V30 9511 C 913.692 -0.59016 -3.42249 0
M  V30 9512 C 912.646 -1.61436 -3.96387 0
M  V30 9513 C 911.972 -1.04528 -5.24383 0
M  V30 9514 C 913.272 -3.00388 -4.27276 0
M  V30 9515 H 914.966 -1.94194 -2.2788 0
M  V30 9516 H 912.512 -0.935094 -1.09508 0
M  V30 9517 H 914.465 -0.432254 -4.19177 0
M  V30 9518 H 913.189 0.372308 -3.24471 0
M  V30 9519 H 911.848 -1.76001 -3.21589 0
M  V30 9520 H 911.496 -0.0742225 -5.02945 0
M  V30 9521 H 911.196 -1.72949 -5.61571 0
M  V30 9522 H 912.72 -0.898922 -6.03947 0
M  V30 9523 H 914.134 -2.89207 -4.95007 0
M  V30 9524 H 912.531 -3.65916 -4.75631 0
M  V30 9525 H 913.601 -3.50456 -3.35125 0
M  V30 9526 N 914.944 1.19125 -1.03184 0
M  V30 9527 C 915.854 2.26112 -0.625329 0
M  V30 9528 C 916.87 1.7056 0.344298 0
M  V30 9529 O 918.046 2.0039 0.20144 0
M  V30 9530 C 915.111 3.46697 0.0145169 0
M  V30 9531 C 914.172 4.17419 -1.00299 0
M  V30 9532 C 913.405 5.32247 -0.393581 0
M  V30 9533 O 913.628 5.64724 0.802659 0
M  V30 9534 O 912.562 5.91428 -1.1179 0
M  V30 9535 H 916.388 2.63131 -1.51643 0
M  V30 9536 H 913.973 1.26036 -0.802197 0
M  V30 9537 H 915.855 4.19762 0.371139 0
M  V30 9538 H 914.53 3.11521 0.879581 0
M  V30 9539 H 913.437 3.4646 -1.41125 0
M  V30 9540 H 914.77 4.56573 -1.83852 0
M  V30 9541 N 916.422 0.810101 1.35185 0
M  V30 9542 C 917.332 0.224565 2.33523 0
M  V30 9543 C 918.348 -0.634287 1.62027 0
M  V30 9544 O 919.524 -0.545211 1.9388 0
M  V30 9545 C 916.589 -0.614319 3.41214 0
M  V30 9546 C 915.65 0.265435 4.28479 0
M  V30 9547 C 914.883 -0.533506 5.31027 0
M  V30 9548 O 915.106 -1.7679 5.42311 0
M  V30 9549 O 914.04 0.0774573 6.0185 0
M  V30 9550 H 917.866 1.03815 2.85405 0
M  V30 9551 H 915.451 0.571964 1.38018 0
M  V30 9552 H 917.333 -1.09201 4.07005 0
M  V30 9553 H 916.008 -1.40545 2.91597 0
M  V30 9554 H 914.915 0.790343 3.65656 0
M  V30 9555 H 916.248 1.0206 4.81503 0
M  V30 9556 N 917.9 -1.47166 0.563914 0
M  V30 9557 C 919.311 -1.86231 0.132307 0
M  V30 9558 C 919.662 -1.46976 -1.29971 0
M  V30 9559 O 918.787 -0.875911 -1.97881 0
M  V30 9560 C 919.382 -3.37996 0.233335 0
M  V30 9561 C 917.941 -3.76127 -0.143278 0
M  V30 9562 C 917.088 -2.71212 0.577857 0
M  V30 9563 H 920.039 -1.38588 0.773249 0
M  V30 9564 H 920.06 -3.76558 -0.546309 0
M  V30 9565 H 919.572 -3.66535 1.27568 0
M  V30 9566 H 917.673 -3.53205 -1.18648 0
M  V30 9567 H 917.786 -4.78595 0.219952 0
M  V30 9568 H 916.15 -2.54692 0.020186 0
M  V30 9569 H 916.933 -3.02593 1.62149 0
M  V30 9570 N 919.378 -0.300708 -1.54705 0
M  V30 9571 C 920.626 0.308044 -1.99739 0
M  V30 9572 C 920.947 1.54433 -1.19061 0
M  V30 9573 O 920.217 1.93794 -0.286507 0
M  V30 9574 H 918.797 0.116811 -0.73781 0
M  V30 9575 H 921.459 -0.41197 -1.90496 0
M  V30 9576 H 920.555 0.580287 -3.06658 0
M  V30 9577 N 920.856 1.57574 -0.0284266 0
M  V30 9578 C 921.819 2.09096 0.938691 0
M  V30 9579 C 922.819 1.00588 1.25454 0
M  V30 9580 O 924.009 1.2675 1.19499 0
M  V30 9581 C 921.141 2.55624 2.25542 0
M  V30 9582 H 922.334 2.95829 0.49248 0
M  V30 9583 H 919.887 1.5475 0.219594 0
M  V30 9584 H 920.622 1.72218 2.74793 0
M  V30 9585 H 920.407 3.34896 2.03929 0
M  V30 9586 H 921.897 2.95712 2.94863 0
M  V30 9587 N 922.334 -0.244713 1.55689 0
M  V30 9588 C 923.582 -0.970525 1.77272 0
M  V30 9589 C 923.903 -1.85771 0.592804 0
M  V30 9590 O 923.173 -1.91952 -0.391323 0
M  V30 9591 H 921.753 -0.361342 0.653789 0
M  V30 9592 H 924.415 -0.262134 1.93129 0
M  V30 9593 H 923.511 -1.59096 2.68505 0
M  V30 9594 N 923.813 -1.49104 -0.510467 0
M  V30 9595 C 925.043 -1.61571 -1.28757 0
M  V30 9596 C 925.451 -0.282638 -1.87077 0
M  V30 9597 O 924.794 0.740749 -1.68103 0
M  V30 9598 C 924.856 -2.61851 -2.46322 0
M  V30 9599 C 924.52 -4.06438 -2.08942 0
M  V30 9600 C 925.517 -4.93532 -1.63469 0
M  V30 9601 C 923.202 -4.52109 -2.18867 0
M  V30 9602 C 925.196 -6.24331 -1.28411 0
M  V30 9603 C 922.883 -5.82924 -1.83421 0
M  V30 9604 C 923.881 -6.68858 -1.38267 0
M  V30 9605 O 923.569 -7.97236 -1.03296 0
M  V30 9606 H 923.301 -0.547082 -0.397086 0
M  V30 9607 H 925.855 -1.95806 -0.620424 0
M  V30 9608 H 924.085 -2.22777 -3.16081 0
M  V30 9609 H 925.774 -2.63947 -3.08362 0
M  V30 9610 H 926.54 -4.59479 -1.55255 0
M  V30 9611 H 922.419 -3.85395 -2.52966 0
M  V30 9612 H 925.963 -6.9136 -0.930946 0
M  V30 9613 H 921.86 -6.16507 -1.91282 0
M  V30 9614 H 922.628 -8.10163 -1.16525 0
M  V30 9615 N 925.291 0.760815 -1.38019 0
M  V30 9616 C 926.238 1.8744 -1.34666 0
M  V30 9617 C 927.208 1.64762 -0.210386 0
M  V30 9618 O 928.393 1.86528 -0.401479 0
M  V30 9619 C 925.533 3.24648 -1.17037 0
M  V30 9620 C 924.646 3.59206 -2.3999 0
M  V30 9621 C 923.781 4.8568 -2.15148 0
M  V30 9622 C 922.82 5.13002 -3.3391 0
M  V30 9623 N 921.957 6.30668 -3.08549 0
M  V30 9624 H 926.797 1.8964 -2.29871 0
M  V30 9625 H 924.334 0.927004 -1.14215 0
M  V30 9626 H 926.292 4.03814 -1.04834 0
M  V30 9627 H 924.922 3.21793 -0.254758 0
M  V30 9628 H 923.974 2.74939 -2.62893 0
M  V30 9629 H 925.286 3.75328 -3.28527 0
M  V30 9630 H 924.44 5.72773 -2.00039 0
M  V30 9631 H 923.179 4.71682 -1.23965 0
M  V30 9632 H 922.184 4.2438 -3.49545 0
M  V30 9633 H 923.409 5.28901 -4.25958 0
M  V30 9634 H 921.355 6.18008 -2.20006 0
M  V30 9635 H 921.272 6.47257 -3.90633 0
M  V30 9636 H 922.54 7.20669 -2.9708 0
M  V30 9637 N 926.769 1.22769 0.988202 0
M  V30 9638 C 927.716 1.00195 2.07917 0
M  V30 9639 C 928.686 -0.0779391 1.65917 0
M  V30 9640 O 929.871 0.0726005 1.90662 0
M  V30 9641 C 927.011 0.590853 3.40004 0
M  V30 9642 C 926.124 1.74202 3.9532 0
M  V30 9643 C 925.259 1.27846 5.15586 0
M  V30 9644 C 924.298 2.40087 5.63049 0
M  V30 9645 N 923.435 1.94744 6.74551 0
M  V30 9646 H 928.275 1.93581 2.26562 0
M  V30 9647 H 925.812 0.96448 1.11068 0
M  V30 9648 H 927.77 0.333653 4.15864 0
M  V30 9649 H 926.4 -0.306007 3.21346 0
M  V30 9650 H 925.452 2.11342 3.16289 0
M  V30 9651 H 926.764 2.58612 4.26522 0
M  V30 9652 H 925.918 0.978919 5.9875 0
M  V30 9653 H 924.657 0.404617 4.86019 0
M  V30 9654 H 923.662 2.70824 4.78471 0
M  V30 9655 H 924.887 3.27995 5.9464 0
M  V30 9656 H 922.833 1.09729 6.46758 0
M  V30 9657 H 922.75 2.72718 7.05096 0
M  V30 9658 H 924.018 1.67873 7.61209 0
M  V30 9659 N 928.247 -1.18576 1.03814 0
M  V30 9660 C 929.177 -2.24334 0.647795 0
M  V30 9661 C 930.158 -1.66508 -0.34774 0
M  V30 9662 O 931.343 -1.92852 -0.228401 0
M  V30 9663 C 928.473 -3.47299 0.00734922 0
M  V30 9664 C 927.427 -4.17859 0.926152 0
M  V30 9665 C 926.753 -5.34489 0.150317 0
M  V30 9666 C 928.053 -4.71632 2.24411 0
M  V30 9667 H 929.747 -2.57241 1.53191 0
M  V30 9668 H 927.293 -1.23649 0.738028 0
M  V30 9669 H 929.246 -4.20486 -0.277434 0
M  V30 9670 H 927.97 -3.13619 -0.911626 0
M  V30 9671 H 926.629 -3.46567 1.19528 0
M  V30 9672 H 926.277 -4.97056 -0.770985 0
M  V30 9673 H 925.977 -5.82633 0.762407 0
M  V30 9674 H 927.501 -6.10467 -0.127508 0
M  V30 9675 H 928.915 -5.36526 2.02021 0
M  V30 9676 H 927.312 -5.303 2.80894 0
M  V30 9677 H 928.382 -3.89192 2.89236 0
M  V30 9678 N 929.725 -0.817259 -1.34754 0
M  V30 9679 C 930.972 -0.402648 -1.98457 0
M  V30 9680 C 931.3 1.03287 -1.64809 0
M  V30 9681 O 930.555 1.73316 -0.908851 0
M  V30 9682 C 930.854 -0.5453 -3.53216 0
M  V30 9683 C 930.52 -1.9457 -4.06759 0
M  V30 9684 C 929.182 -2.32881 -4.21094 0
M  V30 9685 C 931.534 -2.86141 -4.35629 0
M  V30 9686 C 928.862 -3.62108 -4.61622 0
M  V30 9687 C 931.214 -4.14826 -4.776 0
M  V30 9688 C 929.878 -4.53121 -4.9014 0
M  V30 9689 H 929.148 -0.147339 -0.726204 0
M  V30 9690 H 931.795 -1.04011 -1.60791 0
M  V30 9691 H 930.1 0.175576 -3.91406 0
M  V30 9692 H 931.797 -0.205112 -4.00475 0
M  V30 9693 H 928.387 -1.6381 -3.96061 0
M  V30 9694 H 932.571 -2.57788 -4.24098 0
M  V30 9695 H 927.827 -3.91613 -4.69521 0
M  V30 9696 H 932.001 -4.85874 -4.98899 0
M  V30 9697 H 929.628 -5.53307 -5.21302 0
M  V30 9698 N 931.203 1.46865 -0.571711 0
M  V30 9699 C 932.428 2.07323 -0.0564655 0
M  V30 9700 C 932.853 1.41938 1.23431 0
M  V30 9701 O 932.211 0.499334 1.74288 0
M  V30 9702 C 932.259 3.6044 0.107339 0
M  V30 9703 O 931.363 3.95558 1.1665 0
M  V30 9704 H 930.704 0.661475 -0.0578465 0
M  V30 9705 H 933.234 1.88669 -0.791524 0
M  V30 9706 H 933.244 4.06767 0.316987 0
M  V30 9707 H 931.919 4.07425 -0.835348 0
M  V30 9708 H 930.496 3.60957 0.936189 0
M  V30 9709 N 932.681 0.308908 1.54543 0
M  V30 9710 C 933.958 -0.351558 1.92415 0
M  V30 9711 C 934.338 -1.71061 1.23699 0
M  V30 9712 O 933.686 -2.25394 0.3755 0
M  V30 9713 C 933.896 -0.458357 3.45977 0
M  V30 9714 C 935.244 -0.725524 4.18355 0
M  V30 9715 O 936.268 -0.541859 3.52054 0
M  V30 9716 O 935.127 -1.07884 5.35745 0
M  V30 9717 H 932.221 -0.197957 0.802958 0
M  V30 9718 H 934.767 0.357548 1.65891 0
M  V30 9719 H 933.539 0.496723 3.88134 0
M  V30 9720 H 933.162 -1.21562 3.78561 0
M  V30 9721 N 934.159 -1.57557 0.0367827 0
M  V30 9722 C 935.122 -2.09591 -0.927589 0
M  V30 9723 C 936.122 -1.01252 -1.24919 0
M  V30 9724 O 937.312 -1.27382 -1.18825 0
M  V30 9725 C 934.444 -2.56816 -2.24184 0
M  V30 9726 H 935.637 -2.96086 -0.476784 0
M  V30 9727 H 933.19 -1.54864 -0.211385 0
M  V30 9728 H 933.925 -1.73673 -2.73876 0
M  V30 9729 H 933.71 -3.35973 -2.0215 0
M  V30 9730 H 935.2 -2.97271 -2.93291 0
M  V30 9731 N 935.637 0.236453 -1.55816 0
M  V30 9732 C 936.569 1.31602 -1.87653 0
M  V30 9733 C 937.582 1.43782 -0.763584 0
M  V30 9734 O 938.771 1.44945 -1.04178 0
M  V30 9735 C 935.871 2.69342 -2.05689 0
M  V30 9736 C 935.044 2.79298 -3.36617 0
M  V30 9737 C 934.103 3.97952 -3.44268 0
M  V30 9738 O 933.129 3.86989 -4.17406 0
M  V30 9739 N 934.331 5.11594 -2.74321 0
M  V30 9740 H 937.096 1.04623 -2.80845 0
M  V30 9741 H 934.657 0.426534 -1.5618 0
M  V30 9742 H 936.649 3.47074 -2.08138 0
M  V30 9743 H 935.219 2.88984 -1.19192 0
M  V30 9744 H 934.439 1.8816 -3.46395 0
M  V30 9745 H 935.727 2.82908 -4.22895 0
M  V30 9746 H 935.125 5.23394 -2.14651 0
M  V30 9747 H 933.682 5.87422 -2.8245 0
M  V30 9748 N 937.115 1.49373 0.502552 0
M  V30 9749 C 938.526 1.52 1.0841 0
M  V30 9750 C 938.877 0.305317 1.9381 0
M  V30 9751 O 938.002 -0.585023 2.08342 0
M  V30 9752 C 938.597 2.75437 1.97281 0
M  V30 9753 C 937.156 2.80848 2.50602 0
M  V30 9754 C 936.303 2.45894 1.28186 0
M  V30 9755 H 939.254 1.56092 0.286533 0
M  V30 9756 H 939.275 2.55511 2.81947 0
M  V30 9757 H 938.787 3.63827 1.35098 0
M  V30 9758 H 936.888 1.96735 3.16427 0
M  V30 9759 H 937.001 3.82979 2.8786 0
M  V30 9760 H 935.365 1.97639 1.60657 0
M  V30 9761 H 936.148 3.36556 0.677139 0
M  V30 9762 N 938.594 -0.753485 1.38421 0
M  V30 9763 C 939.524 -1.8808 1.38377 0
M  V30 9764 C 940.505 -1.68258 0.249664 0
M  V30 9765 O 941.69 -1.88848 0.45276 0
M  V30 9766 C 938.82 -3.25608 1.20818 0
M  V30 9767 C 937.774 -3.60032 2.31433 0
M  V30 9768 C 937.1 -4.96297 1.9898 0
M  V30 9769 C 938.4 -3.64898 3.73694 0
M  V30 9770 H 940.094 -1.88375 2.32713 0
M  V30 9771 H 937.64 -0.90489 1.12017 0
M  V30 9772 H 939.593 -4.04127 1.19412 0
M  V30 9773 H 938.317 -3.25793 0.229433 0
M  V30 9774 H 936.976 -2.83831 2.32025 0
M  V30 9775 H 936.624 -4.93043 0.995889 0
M  V30 9776 H 936.324 -5.20298 2.73063 0
M  V30 9777 H 937.848 -5.77196 1.99193 0
M  V30 9778 H 939.262 -4.33531 3.75132 0
M  V30 9779 H 937.659 -4.00407 4.46983 0
M  V30 9780 H 938.729 -2.65124 4.06002 0
M  V30 9781 N 940.072 -1.23292 -0.981677 0
M  V30 9782 C 941.004 -0.970782 -2.07626 0
M  V30 9783 C 942.017 0.0547506 -1.62708 0
M  V30 9784 O 943.206 -0.180623 -1.77584 0
M  V30 9785 C 940.306 -0.44055 -3.36024 0
M  V30 9786 C 939.479 -1.52595 -4.09919 0
M  V30 9787 C 938.538 -1.00082 -5.16595 0
M  V30 9788 O 937.564 -1.68951 -5.43548 0
M  V30 9789 N 938.766 0.172017 -5.80245 0
M  V30 9790 H 941.531 -1.91316 -2.30691 0
M  V30 9791 H 939.092 -1.14133 -1.14828 0
M  V30 9792 H 941.084 -0.0743111 -4.04632 0
M  V30 9793 H 939.654 0.407211 -3.09936 0
M  V30 9794 H 938.874 -2.06501 -3.35784 0
M  V30 9795 H 940.162 -2.2559 -4.56055 0
M  V30 9796 H 939.56 0.748129 -5.60731 0
M  V30 9797 H 938.117 0.479532 -6.50034 0
M  V30 9798 N 941.55 1.18024 -1.04442 0
M  V30 9799 C 942.961 1.69749 -0.777312 0
M  V30 9800 C 943.312 1.83234 0.701399 0
M  V30 9801 O 942.437 1.51452 1.54568 0
M  V30 9802 C 943.032 3.08321 -1.40441 0
M  V30 9803 C 941.591 3.57243 -1.18553 0
M  V30 9804 C 940.738 2.33695 -1.49271 0
M  V30 9805 H 943.689 1.02647 -1.21035 0
M  V30 9806 H 943.71 3.71787 -0.809628 0
M  V30 9807 H 943.222 2.98474 -2.48062 0
M  V30 9808 H 941.323 3.72379 -0.128221 0
M  V30 9809 H 941.436 4.40451 -1.88519 0
M  V30 9810 H 939.8 2.37792 -0.912526 0
M  V30 9811 H 940.583 2.26464 -2.5801 0
M  V30 9812 N 943.028 0.824394 1.34319 0
M  V30 9813 C 943.958 0.262077 2.32025 0
M  V30 9814 C 944.939 -0.622277 1.58309 0
M  V30 9815 O 946.124 -0.548848 1.86283 0
M  V30 9816 C 943.254 -0.57567 3.42496 0
M  V30 9817 C 942.208 0.21167 4.27476 0
M  V30 9818 C 941.534 -0.748913 5.29429 0
M  V30 9819 C 942.834 1.42068 5.02607 0
M  V30 9820 H 944.528 1.07842 2.79304 0
M  V30 9821 H 942.074 0.520022 1.34282 0
M  V30 9822 H 944.027 -0.979251 4.09864 0
M  V30 9823 H 942.751 -1.42508 2.93869 0
M  V30 9824 H 941.41 0.596636 3.61712 0
M  V30 9825 H 941.058 -1.59432 4.77064 0
M  V30 9826 H 940.758 -0.226313 5.87164 0
M  V30 9827 H 942.282 -1.15032 5.99667 0
M  V30 9828 H 943.696 1.09103 5.62823 0
M  V30 9829 H 942.093 1.87903 5.69923 0
M  V30 9830 H 943.163 2.1981 4.32217 0
M  V30 9831 N 944.506 -1.46559 0.579492 0
M  V30 9832 C 945.438 -2.28383 -0.19337 0
M  V30 9833 C 946.451 -1.38324 -0.858511 0
M  V30 9834 O 947.64 -1.62952 -0.728615 0
M  V30 9835 C 944.74 -3.13262 -1.29306 0
M  V30 9836 C 943.913 -4.31426 -0.720459 0
M  V30 9837 C 942.972 -4.97728 -1.70744 0
M  V30 9838 O 941.998 -5.55423 -1.24476 0
M  V30 9839 N 943.2 -4.94445 -3.04146 0
M  V30 9840 H 945.965 -2.95353 0.508611 0
M  V30 9841 H 943.526 -1.56436 0.417046 0
M  V30 9842 H 945.518 -3.54483 -1.95254 0
M  V30 9843 H 944.088 -2.48388 -1.89795 0
M  V30 9844 H 943.308 -3.94028 0.116398 0
M  V30 9845 H 944.596 -5.07808 -0.31763 0
M  V30 9846 H 943.994 -4.4881 -3.44363 0
M  V30 9847 H 942.551 -5.39616 -3.65592 0
M  V30 9848 N 945.984 -0.3171 -1.54377 0
M  V30 9849 C 947.23 0.287836 -2.00747 0
M  V30 9850 C 947.563 1.52292 -1.20502 0
M  V30 9851 O 946.838 1.92391 -0.285626 0
M  V30 9852 C 947.121 0.628423 -3.54574 0
M  V30 9853 C 946.974 -0.616922 -4.45549 0
M  V30 9854 C 948.293 1.44862 -4.15575 0
M  V30 9855 H 945.412 0.103144 -0.729747 0
M  V30 9856 H 948.054 -0.432396 -1.85014 0
M  V30 9857 H 946.204 1.24203 -3.68111 0
M  V30 9858 H 947.876 -1.25526 -4.43893 0
M  V30 9859 H 946.119 -1.24706 -4.15489 0
M  V30 9860 H 946.79 -0.334243 -5.50987 0
M  V30 9861 H 949.266 0.930015 -4.05574 0
M  V30 9862 H 948.142 1.6557 -5.23333 0
M  V30 9863 H 948.403 2.44279 -3.68484 0
M  V30 9864 N 947.462 1.57535 -0.0451378 0
M  V30 9865 C 948.692 1.96476 0.638814 0
M  V30 9866 C 949.1 0.921056 1.65267 0
M  V30 9867 O 948.443 -0.103843 1.83406 0
M  V30 9868 C 948.505 3.31629 1.38788 0
M  V30 9869 C 948.169 4.5391 0.530545 0
M  V30 9870 C 949.166 5.19512 -0.200864 0
M  V30 9871 C 946.851 5.00159 0.463242 0
M  V30 9872 C 948.845 6.29695 -0.988078 0
M  V30 9873 C 946.532 6.10221 -0.327665 0
M  V30 9874 C 947.53 6.74849 -1.05202 0
M  V30 9875 O 947.218 7.82795 -1.82993 0
M  V30 9876 H 946.95 0.651625 0.17989 0
M  V30 9877 H 949.504 2.05126 -0.106031 0
M  V30 9878 H 947.734 3.19516 2.17822 0
M  V30 9879 H 949.423 3.5536 1.96148 0
M  V30 9880 H 950.189 4.84742 -0.158299 0
M  V30 9881 H 946.068 4.49651 1.01663 0
M  V30 9882 H 949.612 6.80072 -1.55397 0
M  V30 9883 H 945.509 6.44428 -0.37189 0
M  V30 9884 H 946.277 7.99542 -1.7514 0
M  V30 9885 N 948.94 -0.228186 1.55939 0
M  V30 9886 C 949.872 -1.30605 1.88348 0
M  V30 9887 C 950.885 -1.43375 0.771198 0
M  V30 9888 O 952.074 -1.44391 1.04945 0
M  V30 9889 C 949.174 -2.68248 2.07115 0
M  V30 9890 C 948.347 -2.77509 3.38094 0
M  V30 9891 C 947.406 -3.96121 3.46373 0
M  V30 9892 O 946.432 -3.8477 4.19453 0
M  V30 9893 N 947.634 -5.10132 2.77031 0
M  V30 9894 H 950.399 -1.03132 2.81396 0
M  V30 9895 H 947.96 -0.418245 1.56404 0
M  V30 9896 H 949.952 -3.45966 2.09976 0
M  V30 9897 H 948.522 -2.88348 1.20723 0
M  V30 9898 H 947.742 -1.8632 3.47388 0
M  V30 9899 H 949.03 -2.80662 4.2439 0
M  V30 9900 H 948.428 -5.22249 2.17424 0
M  V30 9901 H 946.985 -5.85916 2.85561 0
M  V30 9902 N 950.418 -1.49637 -0.494624 0
M  V30 9903 C 951.381 -1.66252 -1.57775 0
M  V30 9904 C 952.381 -0.534054 -1.51672 0
M  V30 9905 O 953.571 -0.800637 -1.54711 0
M  V30 9906 C 950.703 -1.66584 -2.97426 0
M  V30 9907 H 951.896 -2.62864 -1.4437 0
M  V30 9908 H 949.449 -1.38764 -0.719323 0
M  V30 9909 H 950.184 -0.715798 -3.16302 0
M  V30 9910 H 949.969 -2.48543 -3.03264 0
M  V30 9911 H 951.459 -1.81474 -3.76108 0
M  V30 9912 N 951.896 0.746133 -1.38819 0
M  V30 9913 C 953.307 1.32384 -1.31648 0
M  V30 9914 C 953.658 1.96185 0.0243086 0
M  V30 9915 O 952.783 1.95567 0.92641 0
M  V30 9916 C 953.378 2.40712 -2.38418 0
M  V30 9917 C 951.937 2.94185 -2.34803 0
M  V30 9918 C 951.084 1.67639 -2.20891 0
M  V30 9919 H 954.035 0.544457 -1.49068 0
M  V30 9920 H 954.056 3.20833 -2.04564 0
M  V30 9921 H 953.568 1.94247 -3.3599 0
M  V30 9922 H 951.669 3.44959 -1.40834 0
M  V30 9923 H 951.782 3.48057 -3.29231 0
M  V30 9924 H 950.146 1.9155 -1.67871 0
M  V30 9925 H 950.929 1.23242 -3.20416 0
M  V30 9926 N 953.375 1.23811 0.975125 0
M  V30 9927 C 954.305 1.04846 2.08638 0
M  V30 9928 C 955.286 -0.0362859 1.70061 0
M  V30 9929 O 956.471 0.12937 1.93769 0
M  V30 9930 C 953.601 0.644534 3.41267 0
M  V30 9931 C 952.555 1.67722 3.93768 0
M  V30 9932 C 951.881 1.12857 5.22654 0
M  V30 9933 C 953.181 3.07147 4.22443 0
M  V30 9934 H 954.875 1.97795 2.24761 0
M  V30 9935 H 952.421 0.952397 1.08006 0
M  V30 9936 H 954.374 0.498887 4.18436 0
M  V30 9937 H 953.098 -0.320641 3.25022 0
M  V30 9938 H 951.757 1.81095 3.18748 0
M  V30 9939 H 951.405 0.154227 5.02764 0
M  V30 9940 H 951.105 1.81862 5.58749 0
M  V30 9941 H 952.629 0.994891 6.0244 0
M  V30 9942 H 954.043 2.97045 4.90344 0
M  V30 9943 H 952.44 3.73437 4.6975 0
M  V30 9944 H 953.51 3.55743 3.29507 0
M  V30 9945 N 954.853 -1.17469 1.05066 0
M  V30 9946 C 956.078 -1.92162 0.780298 0
M  V30 9947 C 956.503 -1.76222 -0.657832 0
M  V30 9948 O 955.861 -1.0791 -1.45688 0
M  V30 9949 C 955.909 -3.41292 1.16414 0
M  V30 9950 O 955.013 -4.1134 0.295531 0
M  V30 9951 H 954.354 -0.599127 0.286257 0
M  V30 9952 H 956.884 -1.48903 1.40318 0
M  V30 9953 H 956.894 -3.92029 1.13036 0
M  V30 9954 H 955.569 -3.52214 2.21175 0
M  V30 9955 H 954.146 -3.70857 0.389797 0
M  V30 9956 N 956.331 -0.831506 -1.3388 0
M  V30 9957 C 957.261 -0.274378 -2.31882 0
M  V30 9958 C 958.242 0.613872 -1.58637 0
M  V30 9959 O 959.427 0.538961 -1.86571 0
M  V30 9960 C 956.557 0.557498 -3.42796 0
M  V30 9961 C 955.511 -0.234337 -4.27358 0
M  V30 9962 C 954.837 0.720825 -5.29819 0
M  V30 9963 C 956.137 -1.44732 -5.01847 0
M  V30 9964 H 957.831 -1.09322 -2.78728 0
M  V30 9965 H 955.377 -0.527136 -1.34005 0
M  V30 9966 H 957.33 0.957501 -4.10378 0
M  V30 9967 H 956.054 1.40947 -2.94621 0
M  V30 9968 H 954.713 -0.61581 -3.61391 0
M  V30 9969 H 954.361 1.569 -4.77903 0
M  V30 9970 H 954.061 0.195171 -5.87276 0
M  V30 9971 H 955.585 1.1185 -6.00268 0
M  V30 9972 H 956.999 -1.12087 -5.62236 0
M  V30 9973 H 955.396 -1.90923 -5.68919 0
M  V30 9974 H 956.466 -2.22099 -4.31045 0
M  V30 9975 N 957.809 1.4625 -0.587256 0
M  V30 9976 C 958.772 2.28812 0.133238 0
M  V30 9977 C 959.772 1.38645 0.814513 0
M  V30 9978 O 960.962 1.60975 0.665774 0
M  V30 9979 C 958.094 3.19147 1.19824 0
M  V30 9980 H 959.287 2.93991 -0.592386 0
M  V30 9981 H 956.84 1.52435 -0.345416 0
M  V30 9982 H 957.575 2.58725 1.95529 0
M  V30 9983 H 957.36 3.85541 0.71418 0
M  V30 9984 H 958.85 3.81278 1.70344 0
M  V30 9985 N 959.287 0.325282 1.54207 0
M  V30 9986 C 960.515 -0.27869 2.05014 0
M  V30 9987 C 960.93 -1.45649 1.20133 0
M  V30 9988 O 960.287 -1.81014 0.232398 0
M  V30 9989 C 960.338 -0.711486 3.54429 0
M  V30 9990 O 960.059 0.419458 4.36087 0
M  V30 9991 C 961.56 -1.37809 4.21336 0
M  V30 9992 H 958.78 -0.0570388 0.668571 0
M  V30 9993 H 961.324 0.47197 1.98979 0
M  V30 9994 H 959.479 -1.41212 3.60746 0
M  V30 9995 H 959.893 0.0781037 5.24442 0
M  V30 9996 H 961.367 -1.63184 5.27328 0
M  V30 9997 H 961.844 -2.32593 3.72555 0
M  V30 9998 H 962.45 -0.719987 4.19161 0
M  V30 9999 N 960.765 -1.57509 0.0534917 0
M  V30 10000 C 962.011 -1.93068 -0.62069 0
M  V30 10001 C 962.344 -0.932313 -1.70357 0
M  V30 10002 O 961.619 0.0413393 -1.94456 0
M  V30 10003 C 961.902 -3.38997 -1.21463 0
M  V30 10004 C 961.755 -4.49583 -0.13965 0
M  V30 10005 C 963.074 -3.85366 -2.12558 0
M  V30 10006 H 960.193 -0.702083 -0.224163 0
M  V30 10007 H 962.835 -1.89647 0.115729 0
M  V30 10008 H 960.985 -3.42043 -1.84226 0
M  V30 10009 H 962.657 -4.58664 0.492411 0
M  V30 10010 H 960.9 -4.30525 0.532006 0
M  V30 10011 H 961.571 -5.48781 -0.595287 0
M  V30 10012 H 964.047 -3.8421 -1.59755 0
M  V30 10013 H 962.923 -4.8812 -2.51058 0
M  V30 10014 H 963.184 -3.22256 -3.02661 0
M  V30 10015 N 962.243 0.219913 -1.56058 0
M  V30 10016 C 963.654 0.786766 -1.69313 0
M  V30 10017 C 964.005 1.84916 -0.655782 0
M  V30 10018 O 963.13 2.1554 0.192772 0
M  V30 10019 C 963.725 1.43387 -3.06962 0
M  V30 10020 C 962.284 1.94809 -3.22066 0
M  V30 10021 C 961.431 0.808863 -2.65241 0
M  V30 10022 H 964.382 -0.00476777 -1.58699 0
M  V30 10023 H 964.403 2.30272 -3.02911 0
M  V30 10024 H 963.915 0.660405 -3.8244 0
M  V30 10025 H 962.016 2.74952 -2.5146 0
M  V30 10026 H 962.129 2.12694 -4.293 0
M  V30 10027 H 960.493 1.21661 -2.23765 0
M  V30 10028 H 961.276 0.0480458 -3.43266 0
M  V30 10029 N 963.721 1.49897 0.486681 0
M  V30 10030 C 964.671 1.6401 1.58381 0
M  V30 10031 C 965.655 0.495215 1.5309 0
M  V30 10032 O 966.847 0.748876 1.60377 0
M  V30 10033 C 963.976 1.72321 2.96918 0
M  V30 10034 C 963.062 2.92435 3.07152 0
M  V30 10035 N 963.453 4.16326 2.87238 0
M  V30 10036 C 961.751 2.90669 3.38271 0
M  V30 10037 C 962.452 4.97144 3.02031 0
M  V30 10038 N 961.428 4.3079 3.31544 0
M  V30 10039 H 965.23 2.57506 1.41661 0
M  V30 10040 H 962.744 1.46867 0.693106 0
M  V30 10041 H 964.741 1.80532 3.75784 0
M  V30 10042 H 963.401 0.799724 3.14697 0
M  V30 10043 H 964.412 4.46076 2.63128 0
M  V30 10044 H 961.089 2.07758 3.62137 0
M  V30 10045 H 962.479 6.05611 2.91006 0
M  V30 10046 N 965.199 -0.738761 1.39212 0
M  V30 10047 C 966.131 -1.86286 1.3353 0
M  V30 10048 C 967.144 -1.6095 0.244755 0
M  V30 10049 O 968.333 -1.71254 0.50343 0
M  V30 10050 C 965.433 -3.22234 1.04969 0
M  V30 10051 C 964.606 -3.74956 2.25226 0
M  V30 10052 C 963.665 -4.89457 1.9318 0
M  V30 10053 O 962.691 -5.03314 2.65826 0
M  V30 10054 N 963.893 -5.73548 0.895679 0
M  V30 10055 H 966.658 -1.91666 2.304 0
M  V30 10056 H 964.219 -0.919338 1.33266 0
M  V30 10057 H 966.211 -3.96397 0.815566 0
M  V30 10058 H 964.781 -3.12146 0.168451 0
M  V30 10059 H 964.001 -2.92188 2.64612 0
M  V30 10060 H 965.289 -4.06914 3.05448 0
M  V30 10061 H 964.687 -5.64938 0.293541 0
M  V30 10062 H 963.244 -6.47795 0.721451 0
M  V30 10063 N 966.677 -1.24326 -0.968545 0
M  V30 10064 C 967.64 -1.03591 -2.04454 0
M  V30 10065 C 968.64 0.0064809 -1.60799 0
M  V30 10066 O 969.83 -0.234404 -1.72616 0
M  V30 10067 C 966.962 -0.56992 -3.36102 0
M  V30 10068 H 968.155 -1.99092 -2.24282 0
M  V30 10069 H 965.708 -1.06537 -1.14366 0
M  V30 10070 H 966.443 0.388325 -3.21967 0
M  V30 10071 H 966.228 -1.32227 -3.69132 0
M  V30 10072 H 967.718 -0.445854 -4.15213 0
M  V30 10073 N 968.156 1.1691 -1.05688 0
M  V30 10074 C 969.086 2.23275 -0.683402 0
M  V30 10075 C 970.067 1.6704 0.321206 0
M  V30 10076 O 971.252 1.93191 0.197691 0
M  V30 10077 C 968.382 3.47244 -0.0626006 0
M  V30 10078 C 967.336 4.16333 -0.992513 0
M  V30 10079 C 966.662 5.34182 -0.23533 0
M  V30 10080 C 967.962 4.68002 -2.31886 0
M  V30 10081 H 969.656 2.54771 -1.57264 0
M  V30 10082 H 967.202 1.2246 -0.757606 0
M  V30 10083 H 969.155 4.20874 0.210503 0
M  V30 10084 H 967.879 3.1503 0.861616 0
M  V30 10085 H 966.538 3.44622 -1.25026 0
M  V30 10086 H 966.186 4.9822 0.69181 0
M  V30 10087 H 965.886 5.81346 -0.855002 0
M  V30 10088 H 967.41 6.10592 0.0303717 0
M  V30 10089 H 968.824 5.33244 -2.10531 0
M  V30 10090 H 967.221 5.25764 -2.89296 0
M  V30 10091 H 968.291 3.84541 -2.95391 0
M  V30 10092 N 969.634 0.838594 1.33437 0
M  V30 10093 C 970.882 0.433312 1.974 0
M  V30 10094 C 971.203 -1.01078 1.66758 0
M  V30 10095 O 970.473 -1.70406 0.966373 0
M  V30 10096 H 969.053 0.15724 0.730263 0
M  V30 10097 H 971.715 1.07149 1.62804 0
M  V30 10098 H 970.811 0.565144 3.06941 0
M  V30 10099 N 971.112 -1.45937 0.595003 0
M  V30 10100 C 972.528 -1.57507 0.257641 0
M  V30 10101 C 972.728 -1.58829 -1.23998 0
M  V30 10102 O 971.784 -1.51183 -2.02237 0
M  V30 10103 C 973.097 -2.86354 0.917708 0
M  V30 10104 C 974.645 -3.00007 0.892446 0
M  V30 10105 C 975.12 -4.31607 1.53229 0
M  V30 10106 N 976.611 -4.38336 1.49719 0
M  V30 10107 C 977.346 -5.38805 1.96154 0
M  V30 10108 N 976.842 -6.45882 2.50617 0
M  V30 10109 N 978.635 -5.30084 1.86997 0
M  V30 10110 H 970.786 -1.43322 1.56756 0
M  V30 10111 H 973.049 -0.684436 0.655936 0
M  V30 10112 H 972.755 -2.91233 1.97171 0
M  V30 10113 H 972.629 -3.74703 0.433344 0
M  V30 10114 H 975.016 -2.94703 -0.152975 0
M  V30 10115 H 975.097 -2.13103 1.41495 0
M  V30 10116 H 974.741 -4.3767 2.57697 0
M  V30 10117 H 974.671 -5.17308 0.984903 0
M  V30 10118 H 977.162 -3.6156 1.09921 0
M  V30 10119 H 977.475 -7.18774 2.83874 0
M  V30 10120 H 975.82 -6.46668 2.54649 0
M  V30 10121 H 979.011 -4.45337 1.44196 0
M  V30 10122 H 979.184 -6.08237 2.23499 0
M  V30 10123 N 972.59 -0.333456 -1.54032 0
M  V30 10124 C 973.818 0.267813 -2.05159 0
M  V30 10125 C 974.233 1.4501 -1.20903 0
M  V30 10126 O 973.59 1.80888 -0.241994 0
M  V30 10127 C 973.641 0.69268 -3.54802 0
M  V30 10128 O 973.362 -0.442579 -4.35859 0
M  V30 10129 C 974.863 1.35572 -4.2206 0
M  V30 10130 H 972.083 0.0534924 -0.668864 0
M  V30 10131 H 974.627 -0.482515 -1.98726 0
M  V30 10132 H 972.782 1.39297 -3.6149 0
M  V30 10133 H 973.196 -0.105915 -5.24393 0
M  V30 10134 H 974.67 1.60385 -5.28186 0
M  V30 10135 H 975.147 2.30614 -3.73783 0
M  V30 10136 H 975.753 0.697748 -4.19537 0
M  V30 10137 N 974.068 1.57479 -0.061844 0
M  V30 10138 C 975 2.09116 0.938245 0
M  V30 10139 C 976.013 1.0212 1.26788 0
M  V30 10140 O 977.202 1.2966 1.22681 0
M  V30 10141 C 974.302 2.52822 2.25686 0
M  V30 10142 C 973.475 3.83277 2.10755 0
M  V30 10143 C 972.534 4.13182 3.25833 0
M  V30 10144 O 971.56 4.82937 3.01265 0
M  V30 10145 N 972.762 3.65938 4.50633 0
M  V30 10146 H 975.527 2.95543 0.497433 0
M  V30 10147 H 973.088 1.61423 0.124134 0
M  V30 10148 H 975.08 2.69896 3.01559 0
M  V30 10149 H 973.65 1.71586 2.61299 0
M  V30 10150 H 972.87 3.7568 1.19409 0
M  V30 10151 H 974.158 4.68686 1.98018 0
M  V30 10152 H 973.556 3.09566 4.73482 0
M  V30 10153 H 972.113 3.8823 5.23565 0
M  V30 10154 N 975.546 -0.211634 1.56173 0
M  V30 10155 C 976.771 -0.955324 1.84088 0
M  V30 10156 C 977.196 -1.76754 0.643407 0
M  V30 10157 O 976.554 -1.76653 -0.407842 0
M  V30 10158 C 976.602 -1.84063 3.10085 0
M  V30 10159 O 975.706 -2.9373 2.89476 0
M  V30 10160 H 975.047 -0.26996 0.606645 0
M  V30 10161 H 977.577 -0.221947 2.03393 0
M  V30 10162 H 977.587 -2.24852 3.40449 0
M  V30 10163 H 976.262 -1.24373 3.96868 0
M  V30 10164 H 974.839 -2.56816 2.7037 0
M  V30 10165 N 977.024 -1.50153 -0.478725 0
M  V30 10166 C 978.249 -1.64776 -1.2595 0
M  V30 10167 C 978.674 -0.327794 -1.85222 0
M  V30 10168 O 978.032 0.707418 -1.66929 0
M  V30 10169 C 978.08 -2.73551 -2.34952 0
M  V30 10170 O 977.184 -2.34273 -3.39397 0
M  V30 10171 H 976.525 -0.550769 -0.370877 0
M  V30 10172 H 979.055 -1.96482 -0.570605 0
M  V30 10173 H 979.065 -2.96397 -2.8038 0
M  V30 10174 H 977.74 -3.69354 -1.91181 0
M  V30 10175 H 976.317 -2.21844 -2.99733 0
M  V30 10176 N 978.502 0.731368 -1.39602 0
M  V30 10177 C 979.913 1.30981 -1.33045 0
M  V30 10178 C 980.264 1.962 0.00349918 0
M  V30 10179 O 979.389 1.96539 0.905615 0
M  V30 10180 C 979.984 2.3817 -2.40958 0
M  V30 10181 C 978.543 2.91678 -2.3791 0
M  V30 10182 C 977.69 1.65286 -2.22656 0
M  V30 10183 H 980.641 0.528615 -1.49637 0
M  V30 10184 H 980.662 3.18645 -2.07955 0
M  V30 10185 H 980.174 1.90673 -3.38032 0
M  V30 10186 H 978.275 3.43446 -1.44485 0
M  V30 10187 H 978.388 3.44545 -3.32904 0
M  V30 10188 H 976.752 1.89759 -1.69893 0
M  V30 10189 H 977.535 1.19836 -3.21705 0
M  V30 10190 N 979.98 1.24838 0.961938 0
M  V30 10191 C 980.943 1.04674 2.03902 0
M  V30 10192 C 981.943 0.00204674 1.608 0
M  V30 10193 O 983.133 0.243555 1.72489 0
M  V30 10194 C 980.265 0.587736 3.35795 0
M  V30 10195 H 981.458 2.00278 2.23223 0
M  V30 10196 H 979.011 1.07142 1.138 0
M  V30 10197 H 979.746 -0.371244 3.22168 0
M  V30 10198 H 979.531 1.34182 3.68426 0
M  V30 10199 H 981.021 0.467867 4.14971 0
M  V30 10200 N 981.458 -1.16348 1.06306 0
M  V30 10201 C 982.421 -2.18941 0.678053 0
M  V30 10202 C 983.421 -1.58409 -0.276277 0
M  V30 10203 O 984.611 -1.74101 -0.0586435 0
M  V30 10204 C 981.743 -3.409 -0.00228684 0
M  V30 10205 H 982.936 -2.54516 1.58624 0
M  V30 10206 H 980.489 -1.30625 0.858298 0
M  V30 10207 H 981.224 -3.10881 -0.923212 0
M  V30 10208 H 981.009 -3.86089 0.683949 0
M  V30 10209 H 982.499 -4.16806 -0.257374 0
M  V30 10210 N 982.937 -0.845659 -1.3299 0
M  V30 10211 C 984.348 -0.50048 -1.79867 0
M  V30 10212 C 984.699 0.981027 -1.69913 0
M  V30 10213 O 983.824 1.76477 -1.25239 0
M  V30 10214 C 984.419 -0.901679 -3.26581 0
M  V30 10215 C 982.978 -0.608536 -3.71448 0
M  V30 10216 C 982.125 -1.10632 -2.54275 0
M  V30 10217 H 985.076 -1.03372 -1.20416 0
M  V30 10218 H 985.097 -0.214433 -3.79895 0
M  V30 10219 H 984.609 -1.97998 -3.33794 0
M  V30 10220 H 982.71 0.459416 -3.69757 0
M  V30 10221 H 982.823 -1.16853 -4.64631 0
M  V30 10222 H 981.187 -0.526925 -2.4919 0
M  V30 10223 H 981.97 -2.19154 -2.64247 0
M  V30 10224 N 984.415 1.45619 -0.602734 0
M  V30 10225 C 985.663 2.01873 -0.095844 0
M  V30 10226 C 985.984 1.47427 1.27633 0
M  V30 10227 O 985.254 0.666652 1.84208 0
M  V30 10228 H 983.834 0.746295 -0.0324408 0
M  V30 10229 H 986.496 1.78478 -0.783037 0
M  V30 10230 H 985.592 3.12072 -0.0419507 0
M  V30 10231 N 985.893 0.34162 1.53853 0
M  V30 10232 C 987.141 -0.254979 2.00485 0
M  V30 10233 C 987.462 -1.51222 1.23114 0
M  V30 10234 O 986.732 -1.92966 0.337787 0
M  V30 10235 H 985.312 -0.0972084 0.740648 0
M  V30 10236 H 987.974 0.462332 1.89337 0
M  V30 10237 H 987.07 -0.498778 3.08089 0
M  V30 10238 N 987.371 -1.57444 0.0701946 0
M  V30 10239 C 988.304 -2.08232 -0.93352 0
M  V30 10240 C 989.282 -0.987073 -1.29212 0
M  V30 10241 O 990.466 -1.26035 -1.40169 0
M  V30 10242 C 987.593 -2.53866 -2.2421 0
M  V30 10243 C 986.639 -3.7481 -2.03518 0
M  V30 10244 S 987.472 -5.1958 -1.29601 0
M  V30 10245 C 988.628 -5.68544 -2.61742 0
M  V30 10246 H 988.861 -2.93042 -0.501354 0
M  V30 10247 H 986.394 -1.53741 -0.142533 0
M  V30 10248 H 988.352 -2.80818 -2.99419 0
M  V30 10249 H 987.013 -1.69327 -2.64551 0
M  V30 10250 H 986.206 -4.04724 -3.00358 0
M  V30 10251 H 985.808 -3.48222 -1.36445 0
M  V30 10252 H 988.1 -5.75291 -3.57836 0
M  V30 10253 H 989.043 -6.67459 -2.3644 0
M  V30 10254 H 989.451 -4.96354 -2.68873 0
M  V30 10255 N 988.849 0.203349 -1.56283 0
M  V30 10256 C 989.796 1.25205 -1.93888 0
M  V30 10257 C 990.766 1.45654 -0.798376 0
M  V30 10258 O 991.951 1.58924 -1.05583 0
M  V30 10259 C 989.091 2.59355 -2.27659 0
M  V30 10260 C 988.204 2.46553 -3.54733 0
M  V30 10261 C 987.339 3.73351 -3.77865 0
M  V30 10262 C 986.378 3.55347 -4.98392 0
M  V30 10263 N 985.515 4.74137 -5.17821 0
M  V30 10264 H 990.355 0.924356 -2.83301 0
M  V30 10265 H 987.892 0.445082 -1.40205 0
M  V30 10266 H 989.85 3.375 -2.45254 0
M  V30 10267 H 988.48 2.90184 -1.41396 0
M  V30 10268 H 987.532 1.59749 -3.45231 0
M  V30 10269 H 988.844 2.2918 -4.43033 0
M  V30 10270 H 987.998 4.59937 -3.95655 0
M  V30 10271 H 986.737 3.9367 -2.8788 0
M  V30 10272 H 985.742 2.67146 -4.80534 0
M  V30 10273 H 986.967 3.36482 -5.89879 0
M  V30 10274 H 984.913 4.94735 -4.30782 0
M  V30 10275 H 984.83 4.59558 -6.00285 0
M  V30 10276 H 986.098 5.62098 -5.40061 0
M  V30 10277 N 990.327 1.50405 0.470755 0
M  V30 10278 C 991.552 1.65442 1.25075 0
M  V30 10279 C 991.977 0.337612 1.85045 0
M  V30 10280 O 991.335 -0.698555 1.67302 0
M  V30 10281 C 991.383 2.74793 2.33498 0
M  V30 10282 O 990.487 2.36069 3.3815 0
M  V30 10283 H 989.828 0.552728 0.367951 0
M  V30 10284 H 992.358 1.96782 0.560177 0
M  V30 10285 H 992.368 2.97879 2.78804 0
M  V30 10286 H 991.043 3.70363 1.8922 0
M  V30 10287 H 989.62 2.2343 2.98552 0
M  V30 10288 N 991.805 -0.723954 1.39988 0
M  V30 10289 C 993.216 -1.30273 1.33738 0
M  V30 10290 C 993.567 -1.96199 0.00690581 0
M  V30 10291 O 992.692 -1.97016 -0.895179 0
M  V30 10292 C 993.287 -2.36889 2.42217 0
M  V30 10293 C 991.846 -2.90412 2.39453 0
M  V30 10294 C 990.993 -1.64103 2.2353 0
M  V30 10295 H 993.944 -0.520672 1.49916 0
M  V30 10296 H 993.965 -3.17538 2.09642 0
M  V30 10297 H 993.477 -1.88878 3.39038 0
M  V30 10298 H 991.578 -3.42674 1.46304 0
M  V30 10299 H 991.691 -3.42775 3.34727 0
M  V30 10300 H 990.055 -1.88855 1.70897 0
M  V30 10301 H 990.838 -1.18128 3.22336 0
M  V30 10302 N 993.283 -1.25346 -0.955304 0
M  V30 10303 C 994.694 -1.09173 -1.51453 0
M  V30 10304 C 995.045 0.332755 -1.93358 0
M  V30 10305 O 994.17 1.22264 -1.78551 0
M  V30 10306 C 994.765 -1.97564 -2.75234 0
M  V30 10307 C 993.324 -1.85579 -3.27471 0
M  V30 10308 C 992.471 -1.91755 -2.00313 0
M  V30 10309 H 995.422 -1.38642 -0.772271 0
M  V30 10310 H 995.443 -1.51523 -3.49029 0
M  V30 10311 H 994.955 -3.01233 -2.44704 0
M  V30 10312 H 993.056 -0.847906 -3.62824 0
M  V30 10313 H 993.169 -2.70353 -3.95533 0
M  V30 10314 H 991.533 -1.35633 -2.15582 0
M  V30 10315 H 992.316 -2.97028 -1.72132 0
M  V30 10316 N 994.761 1.15782 -1.06922 0
M  V30 10317 C 996.038 1.8253 -0.703 0
M  V30 10318 C 996.418 1.94733 0.814994 0
M  V30 10319 O 995.766 1.49537 1.72774 0
M  V30 10320 C 995.976 3.19145 -1.41234 0
M  V30 10321 C 997.324 3.94839 -1.56164 0
M  V30 10322 O 998.348 3.28685 -1.37277 0
M  V30 10323 O 997.207 5.13436 -1.87205 0
M  V30 10324 H 994.301 0.788425 -0.24963 0
M  V30 10325 H 996.847 1.22931 -1.16988 0
M  V30 10326 H 995.619 3.05336 -2.44715 0
M  V30 10327 H 995.242 3.86427 -0.935959 0
M  V30 10328 N 996.239 0.8527 1.3254 0
M  V30 10329 C 997.171 0.253181 2.27797 0
M  V30 10330 C 998.184 -0.573977 1.52346 0
M  V30 10331 O 999.373 -0.398786 1.73988 0
M  V30 10332 C 996.473 -0.661034 3.32391 0
M  V30 10333 C 995.646 0.12984 4.37207 0
M  V30 10334 C 994.705 -0.709837 5.2139 0
M  V30 10335 O 993.731 -0.144056 5.69018 0
M  V30 10336 N 994.933 -2.0249 5.44039 0
M  V30 10337 H 997.698 1.07171 2.79883 0
M  V30 10338 H 995.259 0.712491 1.45379 0
M  V30 10339 H 997.251 -1.22806 3.85617 0
M  V30 10340 H 995.821 -1.38025 2.80478 0
M  V30 10341 H 995.041 0.878289 3.84291 0
M  V30 10342 H 996.329 0.673141 5.04328 0
M  V30 10343 H 995.727 -2.50792 5.0707 0
M  V30 10344 H 994.284 -2.5401 6.00269 0
M  V30 10345 N 997.718 -1.45297 0.610449 0
M  V30 10346 C 999.129 -1.85715 0.191488 0
M  V30 10347 C 999.48 -1.51036 -1.25229 0
M  V30 10348 O 998.605 -0.938422 -1.94994 0
M  V30 10349 C 999.2 -3.37082 0.340747 0
M  V30 10350 C 997.759 -3.76393 -0.0235433 0
M  V30 10351 C 996.906 -2.69237 0.663849 0
M  V30 10352 H 999.857 -1.36058 0.816948 0
M  V30 10353 H 999.878 -3.78105 -0.426233 0
M  V30 10354 H 999.39 -3.62291 1.39164 0
M  V30 10355 H 997.491 -3.56801 -1.07351 0
M  V30 10356 H 997.604 -4.77653 0.372102 0
M  V30 10357 H 995.968 -2.54499 0.101204 0
M  V30 10358 H 996.751 -2.97281 1.71694 0
M  V30 10359 N 999.196 -0.349774 -1.5367 0
M  V30 10360 C 1000.44 0.245189 -2.01312 0
M  V30 10361 C 1000.77 1.49702 -1.23705 0
M  V30 10362 O 1000.05 1.91742 -0.326371 0
M  V30 10363 C 1000.33 0.553071 -3.55827 0
M  V30 10364 C 1000.19 -0.71129 -4.4414 0
M  V30 10365 C 1001.5 1.36015 -4.18555 0
M  V30 10366 H 998.624 0.0876415 -0.73177 0
M  V30 10367 H 1001.27 -0.471543 -1.84056 0
M  V30 10368 H 999.416 1.16367 -3.70663 0
M  V30 10369 H 1001.09 -1.34913 -4.41131 0
M  V30 10370 H 999.331 -1.33491 -4.1275 0
M  V30 10371 H 1000 -0.45104 -5.50154 0
M  V30 10372 H 1002.48 0.843778 -4.07455 0
M  V30 10373 H 1001.35 1.54432 -5.26728 0
M  V30 10374 H 1001.61 2.36408 -3.73582 0
M  V30 10375 N 1000.67 1.57404 -0.0785433 0
M  V30 10376 C 1001.62 2.13104 0.88631 0
M  V30 10377 C 1002.59 1.04527 1.29086 0
M  V30 10378 O 1003.78 1.32226 1.37553 0
M  V30 10379 C 1000.92 2.70252 2.14611 0
M  V30 10380 C 1000.03 3.93007 1.79358 0
M  V30 10381 C 999.164 4.38376 3 0
M  V30 10382 C 998.203 5.53761 2.60796 0
M  V30 10383 N 997.34 5.94058 3.74219 0
M  V30 10384 H 1002.18 2.95243 0.404452 0
M  V30 10385 H 999.717 1.45894 0.187982 0
M  V30 10386 H 1001.67 3.01497 2.88367 0
M  V30 10387 H 1000.3 1.90868 2.60326 0
M  V30 10388 H 999.357 3.68181 0.956384 0
M  V30 10389 H 1000.67 4.76795 1.4652 0
M  V30 10390 H 999.823 4.71317 3.82027 0
M  V30 10391 H 998.562 3.53455 3.36037 0
M  V30 10392 H 997.567 5.20464 1.77192 0
M  V30 10393 H 998.792 6.40419 2.25922 0
M  V30 10394 H 996.738 5.12085 4.10005 0
M  V30 10395 H 996.655 6.72602 3.45171 0
M  V30 10396 H 997.923 6.31624 4.56805 0
M  V30 10397 N 1002.15 -0.195058 1.56388 0
M  V30 10398 C 1003.1 -1.24584 1.90952 0
M  V30 10399 C 1004.09 -1.40993 0.77522 0
M  V30 10400 O 1005.28 -1.43363 1.03808 0
M  V30 10401 C 1002.41 -2.59064 2.25258 0
M  V30 10402 C 1001.49 -2.46447 3.45145 0
M  V30 10403 N 1001.88 -2.0351 4.63052 0
M  V30 10404 C 1000.18 -2.77339 3.49283 0
M  V30 10405 C 1000.88 -2.02785 5.45209 0
M  V30 10406 N 999.859 -2.4429 4.85616 0
M  V30 10407 H 1003.66 -0.9052 2.79613 0
M  V30 10408 H 1001.17 -0.403493 1.57308 0
M  V30 10409 H 1003.17 -3.34963 2.48205 0
M  V30 10410 H 1001.83 -2.93951 1.37924 0
M  V30 10411 H 1002.84 -1.74219 4.87717 0
M  V30 10412 H 999.52 -3.16423 2.72365 0
M  V30 10413 H 1000.91 -1.71489 6.49647 0
M  V30 10414 N 1003.63 -1.50653 -0.462772 0
M  V30 10415 C 1004.56 -1.73056 -1.5676 0
M  V30 10416 C 1005.54 -0.579699 -1.59917 0
M  V30 10417 O 1006.73 -0.819729 -1.76051 0
M  V30 10418 C 1003.86 -1.83234 -2.9503 0
M  V30 10419 C 1002.81 -2.98488 -3.06739 0
M  V30 10420 C 1002.14 -2.93818 -4.46738 0
M  V30 10421 C 1003.44 -4.38869 -2.83181 0
M  V30 10422 H 1005.13 -2.65562 -1.38265 0
M  V30 10423 H 1002.68 -1.27792 -0.663722 0
M  V30 10424 H 1004.63 -1.97491 -3.72257 0
M  V30 10425 H 1003.35 -0.873558 -3.14701 0
M  V30 10426 H 1002.01 -2.83895 -2.31946 0
M  V30 10427 H 1001.66 -1.95769 -4.63339 0
M  V30 10428 H 1001.36 -3.71197 -4.55507 0
M  V30 10429 H 1002.88 -3.10135 -5.25974 0
M  V30 10430 H 1004.3 -4.53945 -3.50153 0
M  V30 10431 H 1002.69 -5.17762 -3.03386 0
M  V30 10432 H 1003.76 -4.50663 -1.78972 0
M  V30 10433 N 1005.11 0.71652 -1.4037 0
M  V30 10434 C 1006.36 1.47638 -1.38597 0
M  V30 10435 C 1006.68 1.94496 0.0120141 0
M  V30 10436 O 1005.94 1.68437 0.996373 0
M  V30 10437 C 1006.24 2.71777 -2.32103 0
M  V30 10438 C 1005.9 2.43689 -3.79376 0
M  V30 10439 C 1004.57 2.35739 -4.195 0
M  V30 10440 C 1006.92 2.20099 -4.72447 0
M  V30 10441 C 1004.25 2.02265 -5.50732 0
M  V30 10442 C 1006.6 1.88138 -6.03976 0
M  V30 10443 C 1005.26 1.78669 -6.43143 0
M  V30 10444 H 1004.53 0.540246 -0.507163 0
M  V30 10445 H 1007.18 0.820822 -1.73017 0
M  V30 10446 H 1005.48 3.42166 -1.90865 0
M  V30 10447 H 1007.18 3.29864 -2.28015 0
M  V30 10448 H 1003.77 2.50763 -3.47585 0
M  V30 10449 H 1007.95 2.25198 -4.42266 0
M  V30 10450 H 1003.21 1.93471 -5.79982 0
M  V30 10451 H 1007.38 1.68898 -6.75608 0
M  V30 10452 H 1005.01 1.52498 -7.44747 0
M  V30 10453 N 1006.59 1.25851 0.948643 0
M  V30 10454 C 1007.81 1.13711 1.72851 0
M  V30 10455 C 1008.23 -0.308471 1.86263 0
M  V30 10456 O 1007.59 -1.21175 1.36465 0
M  V30 10457 C 1007.64 1.79271 3.13918 0
M  V30 10458 O 1007.36 3.18179 3.01154 0
M  V30 10459 C 1008.86 1.72988 4.08154 0
M  V30 10460 H 1006.08 0.396334 0.541443 0
M  V30 10461 H 1008.62 1.66329 1.18974 0
M  V30 10462 H 1006.78 1.30609 3.64719 0
M  V30 10463 H 1007.19 3.50507 3.90186 0
M  V30 10464 H 1008.67 2.2351 5.04725 0
M  V30 10465 H 1009.14 0.694866 4.33668 0
M  V30 10466 H 1009.75 2.21166 3.63271 0
M  V30 10467 N 1008.06 -1.15214 1.07534 0
M  V30 10468 C 1009.29 -1.89922 0.820804 0
M  V30 10469 C 1009.71 -1.78114 -0.626177 0
M  V30 10470 O 1009.06 -1.13435 -1.42964 0
M  V30 10471 C 1009.12 -3.40207 1.22236 0
M  V30 10472 O 1008.84 -3.51676 2.61257 0
M  V30 10473 C 1010.34 -4.31934 0.997393 0
M  V30 10474 H 1007.56 -0.601865 0.296647 0
M  V30 10475 H 1010.1 -1.45965 1.43229 0
M  V30 10476 H 1008.26 -3.8182 0.655167 0
M  V30 10477 H 1008.67 -4.44959 2.77689 0
M  V30 10478 H 1010.14 -5.35791 1.32785 0
M  V30 10479 H 1010.62 -4.3915 -0.0661599 0
M  V30 10480 H 1011.23 -3.96066 1.54958 0
M  V30 10481 N 1009.54 -0.859717 -1.32086 0
M  V30 10482 C 1010.79 -0.464662 -1.96686 0
M  V30 10483 C 1011.11 0.98412 -1.68345 0
M  V30 10484 O 1010.38 1.68847 -0.993361 0
M  V30 10485 H 1008.96 -0.168838 -0.727669 0
M  V30 10486 H 1011.62 -1.09726 -1.61079 0
M  V30 10487 H 1010.72 -0.613904 -3.06003 0
M  V30 10488 N 1011.02 1.44971 -0.618145 0
M  V30 10489 C 1012.27 2.02458 -0.117656 0
M  V30 10490 C 1012.6 1.48413 1.25248 0
M  V30 10491 O 1011.87 0.662997 1.82851 0
M  V30 10492 C 1012.16 3.59987 -0.0901897 0
M  V30 10493 C 1012.01 4.24343 -1.49175 0
M  V30 10494 C 1013.33 4.36099 0.592121 0
M  V30 10495 H 1010.45 0.735672 -0.0442291 0
M  V30 10496 H 1013.09 1.727 -0.792138 0
M  V30 10497 H 1011.24 3.85471 0.484175 0
M  V30 10498 H 1012.91 4.10009 -2.114 0
M  V30 10499 H 1011.16 3.82337 -2.04941 0
M  V30 10500 H 1011.83 5.33298 -1.42468 0
M  V30 10501 H 1014.3 4.1597 0.103813 0
M  V30 10502 H 1013.18 5.45822 0.580481 0
M  V30 10503 H 1013.44 4.09746 1.66015 0
M  V30 10504 N 1012.5 0.357919 1.53482 0
M  V30 10505 C 1013.74 -0.23451 2.0144 0
M  V30 10506 C 1014.08 -1.49044 1.24497 0
M  V30 10507 O 1013.35 -1.91566 0.336535 0
M  V30 10508 C 1013.64 -0.534193 3.56116 0
M  V30 10509 C 1013.49 0.734834 4.43757 0
M  V30 10510 C 1014.81 -1.33793 4.1927 0
M  V30 10511 H 1011.93 -0.0837595 0.732225 0
M  V30 10512 H 1014.57 0.481297 1.83803 0
M  V30 10513 H 1012.72 -1.144 3.71275 0
M  V30 10514 H 1014.39 1.37251 4.40409 0
M  V30 10515 H 1012.63 1.35678 4.12036 0
M  V30 10516 H 1013.3 0.48021 5.49907 0
M  V30 10517 H 1015.78 -0.822158 4.07897 0
M  V30 10518 H 1014.66 -1.51636 5.27539 0
M  V30 10519 H 1014.92 -2.34423 3.74831 0
M  V30 10520 N 1013.98 -1.5736 0.0868897 0
M  V30 10521 C 1015.21 -1.981 -0.586498 0
M  V30 10522 C 1015.61 -0.96455 -1.62767 0
M  V30 10523 O 1014.96 0.0551801 -1.83617 0
M  V30 10524 C 1015.02 -3.35193 -1.29947 0
M  V30 10525 C 1014.68 -4.55157 -0.410012 0
M  V30 10526 C 1015.68 -5.18797 0.338532 0
M  V30 10527 C 1013.37 -5.01212 -0.33047 0
M  V30 10528 C 1015.36 -6.26854 1.15468 0
M  V30 10529 C 1013.05 -6.09138 0.48934 0
M  V30 10530 C 1014.04 -6.71823 1.23057 0
M  V30 10531 O 1013.73 -7.77669 2.03683 0
M  V30 10532 H 1013.46 -0.656166 -0.16255 0
M  V30 10533 H 1016.02 -2.04773 0.160379 0
M  V30 10534 H 1014.25 -3.25179 -2.09274 0
M  V30 10535 H 1015.94 -3.60435 -1.86658 0
M  V30 10536 H 1016.7 -4.84151 0.286764 0
M  V30 10537 H 1012.58 -4.52188 -0.897058 0
M  V30 10538 H 1016.13 -6.75712 1.73374 0
M  V30 10539 H 1012.02 -6.43215 0.542618 0
M  V30 10540 H 1012.79 -7.94618 1.96277 0
M  V30 10541 N 1015.45 0.186762 -1.56489 0
M  V30 10542 C 1016.73 0.932229 -1.71956 0
M  V30 10543 C 1017.11 2.01037 -0.644006 0
M  V30 10544 O 1016.46 2.259 0.343694 0
M  V30 10545 C 1016.67 1.51106 -3.14592 0
M  V30 10546 C 1018.02 1.98997 -3.75081 0
M  V30 10547 O 1019.04 1.60931 -3.17773 0
M  V30 10548 O 1017.9 2.69067 -4.75673 0
M  V30 10549 H 1014.99 0.437736 -0.701652 0
M  V30 10550 H 1017.54 0.175803 -1.68787 0
M  V30 10551 H 1016.31 0.734327 -3.84348 0
M  V30 10552 H 1015.94 2.33209 -3.22024 0
M  V30 10553 N 1016.93 1.50896 0.454776 0
M  V30 10554 C 1018.16 1.6648 1.22849 0
M  V30 10555 C 1018.58 0.354841 1.85435 0
M  V30 10556 O 1017.93 -0.664931 1.69956 0
M  V30 10557 C 1017.98 2.76787 2.32532 0
M  V30 10558 O 1017.7 4.02706 1.72509 0
M  V30 10559 C 1019.21 3.03488 3.23125 0
M  V30 10560 H 1016.43 0.559152 0.370932 0
M  V30 10561 H 1018.97 1.97215 0.540983 0
M  V30 10562 H 1017.12 2.48701 2.9703 0
M  V30 10563 H 1017.54 4.63834 2.44863 0
M  V30 10564 H 1019.01 3.84294 3.9626 0
M  V30 10565 H 1019.49 2.152 3.82865 0
M  V30 10566 H 1020.1 3.33167 2.64347 0
M  V30 10567 N 1018.41 -0.709066 1.40748 0
M  V30 10568 C 1019.66 -1.46901 1.39378 0
M  V30 10569 C 1019.99 -1.945 -0.0016993 0
M  V30 10570 O 1019.24 -1.68963 -0.987426 0
M  V30 10571 C 1019.54 -2.70543 2.33541 0
M  V30 10572 C 1019.21 -2.41674 3.80663 0
M  V30 10573 C 1017.87 -2.33511 4.20745 0
M  V30 10574 C 1020.22 -2.1759 4.73607 0
M  V30 10575 C 1017.55 -1.99342 5.51797 0
M  V30 10576 C 1019.9 -1.84933 6.04965 0
M  V30 10577 C 1018.56 -1.75256 6.44082 0
M  V30 10578 H 1017.83 -0.537549 0.510021 0
M  V30 10579 H 1020.48 -0.811635 1.7345 0
M  V30 10580 H 1018.79 -3.41149 1.92677 0
M  V30 10581 H 1020.48 -3.2865 2.29761 0
M  V30 10582 H 1017.07 -2.48917 3.4891 0
M  V30 10583 H 1021.26 -2.22849 4.43454 0
M  V30 10584 H 1016.51 -1.90392 5.81 0
M  V30 10585 H 1020.69 -1.65313 6.76494 0
M  V30 10586 H 1018.31 -1.48547 7.45545 0
M  V30 10587 N 1019.89 -1.26353 -0.941956 0
M  V30 10588 C 1020.82 -1.02163 -2.04054 0
M  V30 10589 C 1021.8 0.0533514 -1.62512 0
M  V30 10590 O 1022.98 -0.0889063 -1.8829 0
M  V30 10591 C 1020.11 -0.546908 -3.34255 0
M  V30 10592 C 1019.16 -1.61433 -3.94768 0
M  V30 10593 S 1019.99 -3.20306 -4.29144 0
M  V30 10594 C 1021.15 -2.746 -5.62446 0
M  V30 10595 H 1021.38 -1.9518 -2.24259 0
M  V30 10596 H 1018.91 -1.10024 -1.08324 0
M  V30 10597 H 1020.87 -0.279673 -4.09546 0
M  V30 10598 H 1019.53 0.36297 -3.11996 0
M  V30 10599 H 1018.72 -1.23315 -4.88681 0
M  V30 10600 H 1018.33 -1.8329 -3.26007 0
M  V30 10601 H 1020.62 -2.19015 -6.41123 0
M  V30 10602 H 1021.56 -3.67202 -6.05449 0
M  V30 10603 H 1021.97 -2.1419 -5.22286 0
M  V30 10604 N 1021.37 1.14642 -1.08144 0
M  V30 10605 C 1022.3 2.21775 -0.730609 0
M  V30 10606 C 1023.28 1.67683 0.285702 0
M  V30 10607 O 1024.46 1.93567 0.156667 0
M  V30 10608 C 1021.59 3.47033 -0.136242 0
M  V30 10609 C 1020.55 4.14134 -1.0806 0
M  V30 10610 C 1019.87 5.33563 -0.348585 0
M  V30 10611 C 1021.17 4.62978 -2.41761 0
M  V30 10612 H 1022.87 2.51378 -1.62633 0
M  V30 10613 H 1020.41 1.20825 -0.783411 0
M  V30 10614 H 1022.37 4.21226 0.121182 0
M  V30 10615 H 1021.09 3.16786 0.7946 0
M  V30 10616 H 1019.75 3.41892 -1.32308 0
M  V30 10617 H 1019.4 4.99575 0.585974 0
M  V30 10618 H 1019.1 5.79402 -0.978122 0
M  V30 10619 H 1020.62 6.10519 -0.0991508 0
M  V30 10620 H 1022.04 5.28659 -2.21795 0
M  V30 10621 H 1020.43 5.1951 -3.00383 0
M  V30 10622 H 1021.5 3.78189 -3.03482 0
M  V30 10623 N 1022.85 0.866709 1.31628 0
M  V30 10624 C 1023.79 0.318169 2.28596 0
M  V30 10625 C 1024.76 -0.581558 1.55586 0
M  V30 10626 O 1025.95 -0.513895 1.83749 0
M  V30 10627 C 1023.09 -0.477137 3.41786 0
M  V30 10628 C 1022.2 0.449739 4.29653 0
M  V30 10629 C 1021.34 -0.359373 5.29983 0
M  V30 10630 C 1020.37 0.564138 6.09495 0
M  V30 10631 N 1019.51 -0.208526 7.0179 0
M  V30 10632 H 1024.35 1.15029 2.74904 0
M  V30 10633 H 1021.89 0.578649 1.35241 0
M  V30 10634 H 1023.85 -0.953985 4.06146 0
M  V30 10635 H 1022.48 -1.27398 2.96597 0
M  V30 10636 H 1021.53 1.04502 3.65764 0
M  V30 10637 H 1022.84 1.158 4.85172 0
M  V30 10638 H 1021.99 -0.89887 6.00004 0
M  V30 10639 H 1020.73 -1.10094 4.75111 0
M  V30 10640 H 1019.74 1.11542 5.38366 0
M  V30 10641 H 1020.96 1.30451 6.66453 0
M  V30 10642 H 1018.91 -0.932969 6.49332 0
M  V30 10643 H 1018.83 0.440463 7.54716 0
M  V30 10644 H 1020.09 -0.72936 7.7608 0
M  V30 10645 N 1024.32 -1.44642 0.625825 0
M  V30 10646 C 1025.27 -2.27762 -0.104042 0
M  V30 10647 C 1026.26 -1.38364 -0.821232 0
M  V30 10648 O 1027.45 -1.62214 -0.708213 0
M  V30 10649 C 1024.58 -3.25585 -1.08853 0
M  V30 10650 C 1023.66 -4.22472 -0.371241 0
M  V30 10651 N 1024.06 -5.02262 0.597226 0
M  V30 10652 C 1022.35 -4.4172 -0.616392 0
M  V30 10653 C 1023.05 -5.72678 1.02053 0
M  V30 10654 N 1022.03 -5.42404 0.360423 0
M  V30 10655 H 1025.83 -2.86858 0.639517 0
M  V30 10656 H 1023.35 -1.56015 0.450911 0
M  V30 10657 H 1025.34 -3.83885 -1.62597 0
M  V30 10658 H 1024 -2.68051 -1.83245 0
M  V30 10659 H 1025.01 -5.08643 0.974803 0
M  V30 10660 H 1021.69 -3.9529 -1.34359 0
M  V30 10661 H 1023.08 -6.46772 1.82033 0
M  V30 10662 N 1025.8 -0.366053 -1.5329 0
M  V30 10663 C 1026.73 0.514916 -2.23341 0
M  V30 10664 C 1027.75 1.04579 -1.24768 0
M  V30 10665 O 1028.94 0.952084 -1.50989 0
M  V30 10666 C 1026.04 1.72374 -2.91788 0
M  V30 10667 C 1025.21 1.32429 -4.16871 0
M  V30 10668 C 1024.27 2.39524 -4.68524 0
M  V30 10669 O 1023.29 2.01895 -5.32191 0
M  V30 10670 N 1024.5 3.71116 -4.46378 0
M  V30 10671 H 1027.26 -0.0851272 -2.99579 0
M  V30 10672 H 1024.82 -0.191255 -1.60766 0
M  V30 10673 H 1026.81 2.43496 -3.23252 0
M  V30 10674 H 1025.38 2.23064 -2.19 0
M  V30 10675 H 1024.6 0.442901 -3.91704 0
M  V30 10676 H 1025.89 1.03372 -4.98188 0
M  V30 10677 H 1025.29 4.04463 -3.95508 0
M  V30 10678 H 1023.85 4.38341 -4.82391 0
M  V30 10679 N 1027.28 1.57312 -0.0952337 0
M  V30 10680 C 1028.52 1.96239 0.571813 0
M  V30 10681 C 1028.88 0.97602 1.65342 0
M  V30 10682 O 1030.08 1.25379 2.37768 0
M  V30 10683 C 1028.36 3.39644 1.1125 0
M  V30 10684 S 1029.91 4.00568 1.7914 0
M  V30 10685 H 1026.73 0.686081 0.186585 0
M  V30 10686 H 1029.33 1.94718 -0.174669 0
M  V30 10687 H 1028.04 4.09199 0.313796 0
M  V30 10688 H 1027.57 3.44762 1.89481 0
M  V30 10689 H 1029.58 3.89383 3.07563 0
M  V30 10690 N 1028.76 -0.17846 1.56586 0
M  V30 10691 C 1029.69 -1.2496 1.90946 0
M  V30 10692 C 1030.67 -1.43136 0.771424 0
M  V30 10693 O 1031.85 -1.58258 1.02405 0
M  V30 10694 C 1028.98 -2.61368 2.15417 0
M  V30 10695 C 1028.03 -2.59969 3.3811 0
M  V30 10696 S 1028.86 -2.09756 4.9271 0
M  V30 10697 C 1030.01 -3.47956 5.20267 0
M  V30 10698 H 1030.25 -0.956287 2.815 0
M  V30 10699 H 1027.78 -0.382709 1.49582 0
M  V30 10700 H 1029.74 -3.39882 2.30197 0
M  V30 10701 H 1028.4 -2.87903 1.25582 0
M  V30 10702 H 1027.59 -3.60309 3.52411 0
M  V30 10703 H 1027.19 -1.89547 3.2241 0
M  V30 10704 H 1029.49 -4.43914 5.11807 0
M  V30 10705 H 1030.43 -3.38536 6.21932 0
M  V30 10706 H 1030.84 -3.43637 4.47855 0
M  V30 10707 N 1030.24 -1.51135 -0.446768 0
M  V30 10708 C 1031.48 -1.64989 -1.20656 0
M  V30 10709 C 1031.84 -0.353882 -1.88711 0
M  V30 10710 O 1033.04 -0.368099 -2.66268 0
M  V30 10711 C 1031.31 -2.81371 -2.20375 0
M  V30 10712 S 1032.87 -3.15501 -3.04967 0
M  V30 10713 H 1029.69 -0.581372 -0.409301 0
M  V30 10714 H 1032.29 -1.89008 -0.499613 0
M  V30 10715 H 1030.99 -3.73988 -1.69001 0
M  V30 10716 H 1030.53 -2.59512 -2.95664 0
M  V30 10717 H 1032.54 -2.61205 -4.21884 0
M  V30 10718 N 1031.71 0.701592 -1.41122 0
M  V30 10719 C 1032.96 1.45871 -1.39879 0
M  V30 10720 C 1033.28 1.94999 -0.00668769 0
M  V30 10721 O 1032.55 1.71298 0.95047 0
M  V30 10722 H 1031.13 0.541231 -0.514857 0
M  V30 10723 H 1033.79 0.830803 -1.76306 0
M  V30 10724 H 1032.89 2.32479 -2.0823 0
M  V30 10725 N 1033.19 1.2685 0.935242 0
M  V30 10726 C 1034.14 1.08746 2.05614 0
M  V30 10727 C 1035.13 0.012681 1.69395 0
M  V30 10728 O 1036.34 0.169822 1.79197 0
M  V30 10729 H 1032.71 0.33485 0.673335 0
M  V30 10730 H 1034.69 2.03725 2.18033 0
M  V30 10731 C 1033.43 0.74346 3.39659 0
M  V30 10732 H 1032.76 1.56236 3.68008 0
M  V30 10733 H 1034.2 0.656607 4.18885 0
M  V30 10734 C 1032.66 -0.551751 3.32351 0
M  V30 10735 O 1033.19 -1.58836 3.68963 0
M  V30 10736 N 1031.39 -0.544583 2.85452 0
M  V30 10737 H 1030.94 0.29939 2.55854 0
M  V30 10738 H 1030.9 -1.41129 2.80945 0
M  V30 10739 N 1034.67 -1.14067 1.0875 0
M  V30 10740 C 1035.9 -1.89041 0.840902 0
M  V30 10741 C 1036.31 -1.78768 -0.60725 0
M  V30 10742 O 1035.67 -1.14945 -1.41753 0
M  V30 10743 C 1035.72 -3.38891 1.25838 0
M  V30 10744 O 1035.44 -3.48886 2.64972 0
M  V30 10745 C 1036.94 -4.30852 1.04315 0
M  V30 10746 H 1034.16 -0.598685 0.303014 0
M  V30 10747 H 1036.71 -1.44438 1.44769 0
M  V30 10748 H 1034.86 -3.81103 0.695627 0
M  V30 10749 H 1035.28 -4.41989 2.82393 0
M  V30 10750 H 1036.75 -5.34353 1.38461 0
M  V30 10751 H 1037.23 -4.39196 -0.0195784 0
M  V30 10752 H 1037.83 -3.944 1.59151 0
M  V30 10753 N 1036.15 -0.873678 -1.31166 0
M  V30 10754 C 1037.1 -0.303699 -2.25968 0
M  V30 10755 C 1038.08 0.561387 -1.50789 0
M  V30 10756 O 1039.27 0.407658 -1.72242 0
M  V30 10757 C 1036.4 0.490612 -3.39776 0
M  V30 10758 C 1035.49 -0.387927 -4.22322 0
M  V30 10759 N 1035.88 -1.48313 -4.83567 0
M  V30 10760 C 1034.18 -0.18102 -4.45632 0
M  V30 10761 C 1034.88 -2.0252 -5.45308 0
M  V30 10762 N 1033.86 -1.32169 -5.27288 0
M  V30 10763 H 1037.66 -1.14071 -2.7086 0
M  V30 10764 H 1035.17 -0.721843 -1.45476 0
M  V30 10765 H 1037.17 0.9155 -4.06724 0
M  V30 10766 H 1035.83 1.32519 -2.96427 0
M  V30 10767 H 1036.84 -1.86604 -4.83114 0
M  V30 10768 H 1033.52 0.617304 -4.12911 0
M  V30 10769 H 1034.91 -2.94429 -6.03955 0
M  V30 10770 N 1037.63 1.44308 -0.633487 0
M  V30 10771 C 1038.87 2.02322 -0.139123 0
M  V30 10772 C 1039.21 1.49733 1.23667 0
M  V30 10773 O 1038.48 0.682353 1.82138 0
M  V30 10774 C 1038.76 3.59871 -0.128366 0
M  V30 10775 C 1038.62 4.22737 -1.53667 0
M  V30 10776 C 1039.94 4.36702 0.545834 0
M  V30 10777 H 1037.05 0.735161 -0.0520293 0
M  V30 10778 H 1039.7 1.7185 -0.810411 0
M  V30 10779 H 1037.85 3.85963 0.443263 0
M  V30 10780 H 1039.52 4.07744 -2.15737 0
M  V30 10781 H 1037.76 3.80142 -2.08985 0
M  V30 10782 H 1038.43 5.31757 -1.48116 0
M  V30 10783 H 1040.91 4.16057 0.0596879 0
M  V30 10784 H 1039.78 5.46407 0.522557 0
M  V30 10785 H 1040.05 4.11483 1.6166 0
M  V30 10786 N 1039.1 0.374177 1.53094 0
M  V30 10787 C 1040.05 -0.484848 2.22785 0
M  V30 10788 C 1041.04 -1.04181 1.22617 0
M  V30 10789 O 1042.23 -0.97043 1.48026 0
M  V30 10790 C 1039.36 -1.61956 3.02696 0
M  V30 10791 C 1038.45 -1.07506 4.10248 0
M  V30 10792 N 1038.84 -0.254253 5.05161 0
M  V30 10793 C 1037.13 -1.34904 4.25108 0
M  V30 10794 C 1037.84 0.0448558 5.81683 0
M  V30 10795 N 1036.81 -0.555073 5.40759 0
M  V30 10796 H 1040.61 0.148976 2.93522 0
M  V30 10797 H 1038.13 0.182656 1.6137 0
M  V30 10798 H 1040.12 -2.24723 3.51148 0
M  V30 10799 H 1038.78 -2.25636 2.33492 0
M  V30 10800 H 1039.8 0.107256 5.17789 0
M  V30 10801 H 1036.47 -1.98799 3.67131 0
M  V30 10802 H 1037.86 0.708952 6.68149 0
M  V30 10803 N 1040.58 -1.57259 0.103575 0
M  V30 10804 C 1041.99 -1.81816 -0.424239 0
M  V30 10805 C 1042.34 -1.01976 -1.67617 0
M  V30 10806 O 1041.47 -0.251673 -2.14932 0
M  V30 10807 C 1042.06 -3.29783 -0.776453 0
M  V30 10808 C 1040.62 -3.55074 -1.24897 0
M  V30 10809 C 1039.77 -2.76172 -0.249875 0
M  V30 10810 H 1042.72 -1.55254 0.328913 0
M  V30 10811 H 1042.74 -3.43569 -1.63526 0
M  V30 10812 H 1042.25 -3.87865 0.134906 0
M  V30 10813 H 1040.36 -3.02332 -2.17775 0
M  V30 10814 H 1040.47 -4.637 -1.20495 0
M  V30 10815 H 1038.83 -2.43902 -0.733767 0
M  V30 10816 H 1039.62 -3.37007 0.65431 0
M  V30 10817 N 1042.06 0.170153 -1.56679 0
M  V30 10818 C 1042.97 1.23057 -1.99735 0
M  V30 10819 C 1043.99 1.48374 -0.908912 0
M  V30 10820 O 1045.16 1.60499 -1.21663 0
M  V30 10821 C 1042.23 2.54944 -2.34956 0
M  V30 10822 C 1041.29 2.3748 -3.57634 0
M  V30 10823 C 1040.52 3.63078 -3.91165 0
M  V30 10824 O 1040.74 4.68304 -3.2565 0
M  V30 10825 O 1039.68 3.57119 -4.8451 0
M  V30 10826 H 1043.5 0.895104 -2.9021 0
M  V30 10827 H 1041.09 0.377109 -1.44562 0
M  V30 10828 H 1042.97 3.32742 -2.58574 0
M  V30 10829 H 1041.65 2.88068 -1.47643 0
M  V30 10830 H 1040.55 1.57709 -3.39232 0
M  V30 10831 H 1041.89 2.0928 -4.45491 0
M  V30 10832 N 1043.54 1.5137 0.438746 0
M  V30 10833 C 1044.49 1.68966 1.53083 0
M  V30 10834 C 1045.47 0.543669 1.51437 0
M  V30 10835 O 1046.66 0.799519 1.57914 0
M  V30 10836 C 1043.79 1.8168 2.91286 0
M  V30 10837 C 1042.88 3.02059 2.97693 0
M  V30 10838 N 1043.27 4.25254 2.73848 0
M  V30 10839 C 1041.57 3.01284 3.28852 0
M  V30 10840 C 1042.27 5.06501 2.86062 0
M  V30 10841 N 1041.25 4.41119 3.17671 0
M  V30 10842 H 1045.05 2.61883 1.33397 0
M  V30 10843 H 1042.56 1.48997 0.64603 0
M  V30 10844 H 1044.56 1.92396 3.6985 0
M  V30 10845 H 1043.22 0.899438 3.11994 0
M  V30 10846 H 1044.23 4.54222 2.48803 0
M  V30 10847 H 1040.91 2.19174 3.55344 0
M  V30 10848 H 1042.3 6.14563 2.71592 0
M  V30 10849 N 1045.02 -0.694098 1.41492 0
M  V30 10850 C 1045.98 -1.78976 1.43179 0
M  V30 10851 C 1046.98 -1.57539 0.322191 0
M  V30 10852 O 1048.17 -1.64185 0.582138 0
M  V30 10853 C 1045.3 -3.17368 1.2446 0
M  V30 10854 H 1046.49 -1.78874 2.40716 0
M  V30 10855 H 1044.05 -0.901867 1.27656 0
M  V30 10856 H 1044.78 -3.23109 0.277691 0
M  V30 10857 H 1044.57 -3.3433 2.04856 0
M  V30 10858 H 1046.06 -3.97345 1.28479 0
M  V30 10859 N 1046.49 -1.27344 -0.928501 0
M  V30 10860 C 1047.74 -1.13411 -1.67279 0
M  V30 10861 C 1048.06 0.320698 -1.92345 0
M  V30 10862 O 1047.33 1.2245 -1.52915 0
M  V30 10863 H 1045.91 -0.416712 -0.619968 0
M  V30 10864 H 1048.58 -1.5986 -1.11493 0
M  V30 10865 H 1047.67 -1.66256 -2.64131 0
M  V30 10866 N 1047.97 1.13488 -1.09353 0
M  V30 10867 C 1049.39 1.36739 -0.823086 0
M  V30 10868 C 1049.59 1.93476 0.562963 0
M  V30 10869 O 1048.64 2.15374 1.31796 0
M  V30 10870 C 1049.96 2.31943 -1.91371 0
M  V30 10871 C 1051.51 2.4556 -1.94085 0
M  V30 10872 C 1051.98 3.44072 -3.02289 0
M  V30 10873 N 1053.47 3.51622 -3.01524 0
M  V30 10874 C 1054.21 4.27724 -3.8189 0
M  V30 10875 N 1053.7 5.06987 -4.72161 0
M  V30 10876 N 1055.5 4.23018 -3.70152 0
M  V30 10877 H 1047.65 0.75012 -1.98713 0
M  V30 10878 H 1049.91 0.392564 -0.862901 0
M  V30 10879 H 1049.62 1.97408 -2.91072 0
M  V30 10880 H 1049.49 3.31952 -1.79131 0
M  V30 10881 H 1051.88 2.79382 -0.950234 0
M  V30 10882 H 1051.96 1.45479 -2.10403 0
M  V30 10883 H 1051.6 3.10981 -4.01564 0
M  V30 10884 H 1051.53 4.43956 -2.83214 0
M  V30 10885 H 1054.02 2.95066 -2.36103 0
M  V30 10886 H 1054.34 5.6236 -5.30067 0
M  V30 10887 H 1052.68 5.06222 -4.76197 0
M  V30 10888 H 1055.87 3.60171 -2.98989 0
M  V30 10889 H 1056.04 4.82075 -4.33022 0
M  V30 10890 N 1049.45 0.880621 1.30701 0
M  V30 10891 C 1050.7 0.492957 1.95583 0
M  V30 10892 C 1051.01 -0.961863 1.70316 0
M  V30 10893 O 1052.22 -1.45617 2.29146 0
M  V30 10894 C 1050.68 0.830656 3.50183 0
M  V30 10895 C 1050.28 2.30295 3.84276 0
M  V30 10896 C 1052.03 0.511979 4.21401 0
M  V30 10897 C 1049.93 2.58251 5.32034 0
M  V30 10898 H 1048.86 0.18062 0.732047 0
M  V30 10899 H 1051.52 1.075 1.48715 0
M  V30 10900 H 1049.9 0.177752 3.95601 0
M  V30 10901 H 1051.07 2.99981 3.49783 0
M  V30 10902 H 1049.39 2.58873 3.2615 0
M  V30 10903 H 1051.98 0.697935 5.30125 0
M  V30 10904 H 1052.33 -0.548327 4.12673 0
M  V30 10905 H 1052.86 1.12189 3.81652 0
M  V30 10906 H 1049.6 3.63005 5.45809 0
M  V30 10907 H 1049.12 1.9317 5.67843 0
M  V30 10908 H 1050.8 2.43527 5.99419 0
M  V30 10909 N 1050.93 -1.4397 0.641131 0
M  V30 10910 C 1051.86 -2.28997 -0.0963315 0
M  V30 10911 C 1052.87 -1.4184 -0.799071 0
M  V30 10912 O 1054.06 -1.65896 -0.658846 0
M  V30 10913 C 1051.16 -3.18465 -1.15903 0
M  V30 10914 C 1050.34 -4.34093 -0.536828 0
M  V30 10915 C 1049.4 -5.04522 -1.4948 0
M  V30 10916 O 1048.42 -5.60202 -1.00807 0
M  V30 10917 N 1049.62 -5.06899 -2.82901 0
M  V30 10918 H 1052.39 -2.9293 0.633422 0
M  V30 10919 H 1049.95 -1.54527 0.48302 0
M  V30 10920 H 1051.94 -3.62445 -1.80044 0
M  V30 10921 H 1050.51 -2.56214 -1.79089 0
M  V30 10922 H 1049.73 -3.9318 0.283414 0
M  V30 10923 H 1051.02 -5.08698 -0.101966 0
M  V30 10924 H 1050.42 -4.63012 -3.25017 0
M  V30 10925 H 1048.97 -5.54637 -3.42376 0
M  V30 10926 N 1052.41 -0.382291 -1.52893 0
M  V30 10927 C 1053.63 0.204961 -2.06385 0
M  V30 10928 C 1054.06 1.40316 -1.25271 0
M  V30 10929 O 1053.42 1.79187 -0.275969 0
M  V30 10930 C 1053.46 0.560205 -3.56222 0
M  V30 10931 O 1052.57 1.65515 -3.77728 0
M  V30 10932 H 1051.91 0.0258798 -0.663495 0
M  V30 10933 H 1054.44 -0.547733 -1.97132 0
M  V30 10934 H 1054.45 0.826501 -3.99541 0
M  V30 10935 H 1053.12 -0.31584 -4.14699 0
M  V30 10936 H 1051.7 1.38311 -3.46301 0
M  V30 10937 N 1053.89 1.57202 -0.111913 0
M  V30 10938 C 1055.13 1.94125 0.547573 0
M  V30 10939 C 1055.45 0.997026 1.68282 0
M  V30 10940 O 1056.65 1.26063 2.40459 0
M  V30 10941 C 1055.11 3.44982 1.02545 0
M  V30 10942 C 1054.72 4.47927 -0.0809529 0
M  V30 10943 C 1056.46 3.90837 1.65671 0
M  V30 10944 C 1054.37 5.89955 0.413224 0
M  V30 10945 H 1053.3 0.724651 0.208321 0
M  V30 10946 H 1055.95 1.82507 -0.190625 0
M  V30 10947 H 1054.33 3.5181 1.81785 0
M  V30 10948 H 1055.51 4.52761 -0.857003 0
M  V30 10949 H 1053.82 4.11782 -0.618434 0
M  V30 10950 H 1056.42 4.9436 2.03746 0
M  V30 10951 H 1056.76 3.30417 2.53239 0
M  V30 10952 H 1057.29 3.8678 0.929844 0
M  V30 10953 H 1054.03 6.54113 -0.426238 0
M  V30 10954 H 1053.55 5.88557 1.15591 0
M  V30 10955 H 1055.23 6.41032 0.876756 0
M  V30 10956 N 1055.36 -0.161842 1.56767 0
M  V30 10957 C 1056.61 -0.873481 1.8369 0
M  V30 10958 C 1056.96 -1.79455 0.693817 0
M  V30 10959 O 1056.26 -1.89089 -0.309181 0
M  V30 10960 C 1056.45 -1.69736 3.14522 0
M  V30 10961 C 1056.28 -0.857568 4.41447 0
M  V30 10962 C 1055.05 -0.528952 5.02524 0
M  V30 10963 C 1057.25 -0.194734 5.13931 0
M  V30 10964 N 1055.23 0.325994 6.13034 0
M  V30 10965 C 1056.6 0.520973 6.17807 0
M  V30 10966 C 1058.66 -0.113874 4.9777 0
M  V30 10967 C 1057.36 1.30988 7.07273 0
M  V30 10968 C 1059.39 0.661731 5.87686 0
M  V30 10969 C 1058.75 1.36577 6.91033 0
M  V30 10970 H 1054.85 -0.297939 0.723019 0
M  V30 10971 H 1057.43 -0.139816 1.94197 0
M  V30 10972 H 1055.6 -2.40238 3.05189 0
M  V30 10973 H 1057.33 -2.35103 3.29407 0
M  V30 10974 H 1054.09 -0.861267 4.65703 0
M  V30 10975 H 1054.51 0.744055 6.72899 0
M  V30 10976 H 1059.15 -0.643832 4.17869 0
M  V30 10977 H 1056.87 1.85115 7.86612 0
M  V30 10978 H 1060.46 0.726092 5.77251 0
M  V30 10979 H 1059.34 1.9563 7.59407 0
M  V30 10980 N 1056.84 -1.516 -0.430713 0
M  V30 10981 C 1058.07 -1.687 -1.20644 0
M  V30 10982 C 1058.49 -0.386555 -1.84085 0
M  V30 10983 O 1057.85 0.653952 -1.69095 0
M  V30 10984 C 1057.9 -2.80887 -2.2613 0
M  V30 10985 O 1057 -2.44952 -3.31772 0
M  V30 10986 H 1056.34 -0.562289 -0.353167 0
M  V30 10987 H 1058.87 -1.98198 -0.507807 0
M  V30 10988 H 1058.88 -3.05167 -2.70809 0
M  V30 10989 H 1057.56 -3.75249 -1.79334 0
M  V30 10990 H 1056.13 -2.31267 -2.92523 0
M  V30 10991 N 1058.32 0.686584 -1.41858 0
M  V30 10992 C 1059.74 0.998283 -1.24525 0
M  V30 10993 C 1059.94 2.01006 -0.141007 0
M  V30 10994 O 1058.99 2.47667 0.491648 0
M  V30 10995 C 1060.3 1.51432 -2.59786 0
M  V30 10996 C 1061.85 1.6327 -2.67043 0
M  V30 10997 C 1062.33 2.18274 -4.02642 0
M  V30 10998 N 1063.82 2.25622 -4.04535 0
M  V30 10999 C 1064.55 2.69229 -5.06264 0
M  V30 11000 N 1064.05 3.12375 -6.1838 0
M  V30 11001 N 1065.84 2.68873 -4.93623 0
M  V30 11002 H 1057.99 0.0164825 -2.12394 0
M  V30 11003 H 1060.26 0.0698613 -0.945422 0
M  V30 11004 H 1059.96 0.845426 -3.41388 0
M  V30 11005 H 1059.84 2.49502 -2.82894 0
M  V30 11006 H 1062.22 2.29269 -1.85794 0
M  V30 11007 H 1062.3 0.637221 -2.47736 0
M  V30 11008 H 1061.95 1.52887 -4.84343 0
M  V30 11009 H 1061.88 3.18591 -4.19294 0
M  V30 11010 H 1064.37 1.95186 -3.23591 0
M  V30 11011 H 1064.68 3.44301 -6.91864 0
M  V30 11012 H 1063.03 3.10262 -6.21902 0
M  V30 11013 H 1066.22 2.34521 -4.05114 0
M  V30 11014 H 1066.39 3.02539 -5.7304 0
M  V30 11015 N 1059.8 1.27835 0.921735 0
M  V30 11016 C 1060.73 1.136 2.04003 0
M  V30 11017 C 1061.71 0.0358756 1.70062 0
M  V30 11018 O 1062.89 0.211438 1.93046 0
M  V30 11019 C 1060.02 0.788697 3.38226 0
M  V30 11020 C 1058.98 1.84272 3.863 0
M  V30 11021 C 1058.3 1.34923 5.17397 0
M  V30 11022 C 1059.6 3.24788 4.09035 0
M  V30 11023 H 1061.3 2.07149 2.1617 0
M  V30 11024 H 1058.84 0.997349 1.0387 0
M  V30 11025 H 1060.8 0.675911 4.15944 0
M  V30 11026 H 1059.52 -0.182499 3.2609 0
M  V30 11027 H 1058.18 1.94451 3.1078 0
M  V30 11028 H 1057.83 0.367328 5.01657 0
M  V30 11029 H 1057.53 2.05397 5.50532 0
M  V30 11030 H 1059.05 1.24951 5.97678 0
M  V30 11031 H 1060.47 3.17575 4.77304 0
M  V30 11032 H 1058.86 3.93025 4.53488 0
M  V30 11033 H 1059.93 3.69398 3.14122 0
M  V30 11034 N 1061.28 -1.12907 1.09954 0
M  V30 11035 C 1062.21 -2.18194 0.701701 0
M  V30 11036 C 1063.22 -1.60724 -0.259131 0
M  V30 11037 O 1064.41 -1.78445 -0.0443549 0
M  V30 11038 C 1061.51 -3.38897 0.0140602 0
M  V30 11039 C 1060.68 -4.25867 0.997807 0
M  V30 11040 C 1059.74 -5.25084 0.34257 0
M  V30 11041 O 1058.77 -5.60492 0.991857 0
M  V30 11042 N 1059.97 -5.73464 -0.901058 0
M  V30 11043 H 1062.73 -2.52939 1.60755 0
M  V30 11044 H 1060.3 -1.28281 0.987703 0
M  V30 11045 H 1062.29 -4.02349 -0.435628 0
M  V30 11046 H 1060.86 -3.02345 -0.794118 0
M  V30 11047 H 1060.08 -3.59107 1.6259 0
M  V30 11048 H 1061.37 -4.80825 1.66388 0
M  V30 11049 H 1060.76 -5.46854 -1.44802 0
M  V30 11050 H 1059.32 -6.38827 -1.29398 0
M  V30 11051 N 1062.75 -0.88754 -1.30232 0
M  V30 11052 C 1063.66 -0.360333 -2.31816 0
M  V30 11053 C 1064.68 0.538741 -1.6545 0
M  V30 11054 O 1065.86 0.431246 -1.96729 0
M  V30 11055 C 1062.92 0.414336 -3.44215 0
M  V30 11056 C 1061.98 -0.514799 -4.26202 0
M  V30 11057 C 1061.21 0.222994 -5.33234 0
M  V30 11058 O 1061.44 1.44871 -5.51696 0
M  V30 11059 O 1060.37 -0.428221 -6.00375 0
M  V30 11060 H 1064.2 -1.20279 -2.78867 0
M  V30 11061 H 1061.78 -0.651459 -1.34448 0
M  V30 11062 H 1063.66 0.852859 -4.12679 0
M  V30 11063 H 1062.34 1.23305 -2.99295 0
M  V30 11064 H 1061.25 -1.00219 -3.60426 0
M  V30 11065 H 1062.58 -1.29959 -4.74733 0
M  V30 11066 N 1064.23 1.43628 -0.648757 0
M  V30 11067 C 1065.46 2.06217 -0.167945 0
M  V30 11068 C 1065.88 1.486 1.16462 0
M  V30 11069 O 1065.23 0.61559 1.71804 0
M  V30 11070 C 1065.28 3.6144 -0.0660114 0
M  V30 11071 O 1065 4.16914 -1.34589 0
M  V30 11072 C 1066.51 4.41097 0.441408 0
M  V30 11073 H 1063.73 0.665228 -0.0878237 0
M  V30 11074 H 1066.27 1.84207 -0.888144 0
M  V30 11075 H 1064.42 3.82651 0.604722 0
M  V30 11076 H 1064.84 5.10537 -1.20218 0
M  V30 11077 H 1066.31 5.50066 0.461697 0
M  V30 11078 H 1066.79 4.13803 1.47187 0
M  V30 11079 H 1067.4 4.24845 -0.19668 0
M  V30 11080 N 1065.71 0.390394 1.52688 0
M  V30 11081 C 1066.96 -0.191067 2.01195 0
M  V30 11082 C 1067.28 -1.47229 1.27862 0
M  V30 11083 O 1066.55 -1.91793 0.399007 0
M  V30 11084 H 1065.13 -0.073596 0.743366 0
M  V30 11085 H 1067.79 0.522334 1.8777 0
M  V30 11086 H 1066.89 -0.40051 3.0952 0
M  V30 11087 N 1067.19 -1.57141 0.120249 0
M  V30 11088 C 1068.12 -2.18398 -0.826112 0
M  V30 11089 C 1069.1 -1.12439 -1.27638 0
M  V30 11090 O 1070.28 -1.40679 -1.33877 0
M  V30 11091 C 1067.41 -2.78438 -2.0758 0
M  V30 11092 C 1066.37 -3.89991 -1.76327 0
M  V30 11093 C 1065.69 -4.36844 -3.08336 0
M  V30 11094 C 1066.99 -5.12031 -1.03062 0
M  V30 11095 H 1068.69 -2.97731 -0.315656 0
M  V30 11096 H 1066.23 -1.43213 -0.150387 0
M  V30 11097 H 1068.19 -3.19951 -2.74243 0
M  V30 11098 H 1066.91 -1.96396 -2.60953 0
M  V30 11099 H 1065.57 -3.49055 -1.12053 0
M  V30 11100 H 1065.22 -3.51659 -3.59646 0
M  V30 11101 H 1064.92 -5.1207 -2.88199 0
M  V30 11102 H 1066.44 -4.81009 -3.76116 0
M  V30 11103 H 1067.86 -5.50555 -1.59881 0
M  V30 11104 H 1066.25 -5.92848 -0.930146 0
M  V30 11105 H 1067.32 -4.84897 -0.017582 0
M  V30 11106 N 1068.67 0.153526 -1.5685 0
M  V30 11107 C 1069.6 1.19162 -2.00805 0
M  V30 11108 C 1070.58 1.45172 -0.886518 0
M  V30 11109 O 1071.76 1.56203 -1.15387 0
M  V30 11110 C 1068.89 2.52637 -2.38311 0
M  V30 11111 C 1067.85 2.41161 -3.53589 0
M  V30 11112 C 1067.17 3.79287 -3.76889 0
M  V30 11113 C 1068.47 1.90122 -4.86468 0
M  V30 11114 H 1070.17 0.82617 -2.87776 0
M  V30 11115 H 1067.71 0.395972 -1.38449 0
M  V30 11116 H 1069.67 3.25478 -2.6766 0
M  V30 11117 H 1068.39 2.91005 -1.4827 0
M  V30 11118 H 1067.05 1.70772 -3.24395 0
M  V30 11119 H 1066.7 4.15079 -2.84109 0
M  V30 11120 H 1066.4 3.72472 -4.54465 0
M  V30 11121 H 1067.92 4.53687 -4.08657 0
M  V30 11122 H 1069.33 2.52752 -5.14577 0
M  V30 11123 H 1067.73 1.94214 -5.67804 0
M  V30 11124 H 1068.8 0.856517 -4.77275 0
M  V30 11125 N 1070.14 1.51827 0.422667 0
M  V30 11126 C 1071.37 1.69337 1.19748 0
M  V30 11127 C 1071.79 0.396312 1.83878 0
M  V30 11128 O 1071.15 -0.644976 1.6944 0
M  V30 11129 C 1071.2 2.82082 2.24637 0
M  V30 11130 O 1070.3 2.46708 3.30468 0
M  V30 11131 H 1069.65 0.564154 0.35018 0
M  V30 11132 H 1072.18 1.98465 0.497289 0
M  V30 11133 H 1072.19 3.06599 2.69186 0
M  V30 11134 H 1070.86 3.76195 1.77341 0
M  V30 11135 H 1069.44 2.32815 2.91293 0
M  V30 11136 N 1071.62 -0.679052 1.4222 0
M  V30 11137 C 1072.57 -1.79269 1.45366 0
M  V30 11138 C 1073.54 -1.63255 0.306089 0
M  V30 11139 O 1074.72 -1.8387 0.509548 0
M  V30 11140 C 1071.86 -3.17272 1.35766 0
M  V30 11141 C 1070.98 -3.44603 2.60525 0
M  V30 11142 C 1070.11 -4.7231 2.43098 0
M  V30 11143 C 1069.15 -4.92661 3.63251 0
M  V30 11144 N 1068.29 -6.11606 3.44794 0
M  V30 11145 H 1073.13 -1.75916 2.40536 0
M  V30 11146 H 1070.67 -0.858836 1.19425 0
M  V30 11147 H 1072.62 -3.97015 1.282 0
M  V30 11148 H 1071.25 -3.1976 0.441939 0
M  V30 11149 H 1070.31 -2.59144 2.78475 0
M  V30 11150 H 1071.62 -3.55536 3.49851 0
M  V30 11151 H 1070.77 -5.60136 2.33093 0
M  V30 11152 H 1069.51 -4.63652 1.51255 0
M  V30 11153 H 1068.52 -4.03278 3.73693 0
M  V30 11154 H 1069.74 -5.03167 4.5607 0
M  V30 11155 H 1067.69 -6.04129 2.55663 0
M  V30 11156 H 1067.6 -6.23381 4.27705 0
M  V30 11157 H 1068.87 -7.02122 3.38592 0
M  V30 11158 N 1073.1 -1.28322 -0.914942 0
M  V30 11159 C 1074.34 -1.16657 -1.6784 0
M  V30 11160 C 1074.7 0.280473 -1.8994 0
M  V30 11161 O 1075.91 0.519801 -2.63726 0
M  V30 11162 C 1074.18 -1.94185 -3.00045 0
M  V30 11163 S 1075.74 -1.98881 -3.91141 0
M  V30 11164 H 1072.55 -0.416232 -0.57643 0
M  V30 11165 H 1075.16 -1.62405 -1.08834 0
M  V30 11166 H 1073.86 -2.98488 -2.81661 0
M  V30 11167 H 1073.39 -1.48982 -3.64099 0
M  V30 11168 H 1075.41 -1.09445 -4.8398 0
M  V30 11169 N 1074.58 1.12322 -1.10551 0
M  V30 11170 C 1075.49 2.21678 -0.767862 0
M  V30 11171 C 1076.5 1.72404 0.235132 0
M  V30 11172 O 1077.68 2.01266 0.0735912 0
M  V30 11173 C 1074.75 3.46087 -0.205999 0
M  V30 11174 C 1073.81 4.10195 -1.26642 0
M  V30 11175 C 1073.04 5.28666 -0.731274 0
M  V30 11176 O 1073.26 5.68686 0.44189 0
M  V30 11177 O 1072.2 5.83121 -1.49176 0
M  V30 11178 H 1076.02 2.52955 -1.6807 0
M  V30 11179 H 1073.61 1.2068 -0.880728 0
M  V30 11180 H 1075.49 4.21273 0.103435 0
M  V30 11181 H 1074.16 3.16484 0.679685 0
M  V30 11182 H 1073.07 3.36784 -1.62873 0
M  V30 11183 H 1074.4 4.43957 -2.12516 0
M  V30 11184 N 1076.06 0.894434 1.2976 0
M  V30 11185 C 1077.47 0.589778 1.48303 0
M  V30 11186 C 1077.67 -0.870085 1.81746 0
M  V30 11187 O 1076.73 -1.65065 1.91076 0
M  V30 11188 C 1078.04 1.51107 2.59975 0
M  V30 11189 C 1079.59 1.51571 2.73853 0
M  V30 11190 C 1080.06 2.42316 3.88648 0
M  V30 11191 N 1081.56 2.40333 3.95973 0
M  V30 11192 C 1082.29 3.07254 4.84131 0
M  V30 11193 N 1081.79 3.83435 5.77018 0
M  V30 11194 N 1083.58 2.96438 4.77578 0
M  V30 11195 H 1075.73 1.83871 1.06327 0
M  V30 11196 H 1077.99 0.78758 0.527657 0
M  V30 11197 H 1077.7 2.55097 2.42112 0
M  V30 11198 H 1077.57 1.22767 3.56662 0
M  V30 11199 H 1079.96 0.483277 2.91116 0
M  V30 11200 H 1080.04 1.83946 1.77757 0
M  V30 11201 H 1079.69 3.4565 3.72141 0
M  V30 11202 H 1079.62 2.07252 4.84101 0
M  V30 11203 H 1082.11 1.84979 3.29532 0
M  V30 11204 H 1082.42 4.31565 6.4107 0
M  V30 11205 H 1080.76 3.87542 5.7692 0
M  V30 11206 H 1083.96 2.36442 4.03996 0
M  V30 11207 H 1084.13 3.48867 5.46073 0
M  V30 11208 N 1077.53 -1.43282 0.656365 0
M  V30 11209 C 1078.78 -2.00996 0.168354 0
M  V30 11210 C 1079.1 -1.52408 -1.22601 0
M  V30 11211 O 1080.3 -2.02417 -1.80941 0
M  V30 11212 C 1078.76 -3.5903 0.250161 0
M  V30 11213 C 1078.37 -4.1661 1.64742 0
M  V30 11214 C 1080.11 -4.24118 -0.180084 0
M  V30 11215 C 1078.02 -5.66948 1.68299 0
M  V30 11216 H 1076.95 -0.751674 0.0591769 0
M  V30 11217 H 1079.6 -1.64216 0.818859 0
M  V30 11218 H 1077.98 -3.93226 -0.467908 0
M  V30 11219 H 1079.15 -3.93908 2.3911 0
M  V30 11220 H 1077.47 -3.63905 2.02391 0
M  V30 11221 H 1080.07 -5.34419 -0.173401 0
M  V30 11222 H 1080.41 -3.98264 -1.21208 0
M  V30 11223 H 1080.94 -3.94816 0.486343 0
M  V30 11224 H 1077.68 -5.97573 2.69419 0
M  V30 11225 H 1077.2 -5.91697 0.98261 0
M  V30 11226 H 1078.88 -6.31041 1.42813 0
M  V30 11227 N 1079.01 -0.398486 -1.52479 0
M  V30 11228 C 1080.43 -0.0488635 -1.59525 0
M  V30 11229 C 1080.63 1.43756 -1.41197 0
M  V30 11230 O 1079.69 2.20317 -1.23357 0
M  V30 11231 C 1081 -0.534262 -2.95916 0
M  V30 11232 C 1082.55 -0.491314 -3.0912 0
M  V30 11233 C 1083.02 -0.953049 -4.47974 0
M  V30 11234 N 1084.51 -0.909434 -4.54184 0
M  V30 11235 C 1085.25 -1.23801 -5.59876 0
M  V30 11236 N 1084.74 -1.63752 -6.73169 0
M  V30 11237 N 1086.54 -1.15867 -5.50028 0
M  V30 11238 H 1078.69 -1.36608 -1.62641 0
M  V30 11239 H 1080.95 -0.560515 -0.764544 0
M  V30 11240 H 1080.66 -1.57277 -3.14574 0
M  V30 11241 H 1080.53 0.0617787 -3.77149 0
M  V30 11242 H 1082.92 0.538123 -2.90152 0
M  V30 11243 H 1083 -1.12327 -2.29818 0
M  V30 11244 H 1082.64 -1.98076 -4.67684 0
M  V30 11245 H 1082.57 -0.298007 -5.25756 0
M  V30 11246 H 1085.06 -0.615569 -3.72853 0
M  V30 11247 H 1085.38 -1.87163 -7.49793 0
M  V30 11248 H 1083.72 -1.67647 -6.74477 0
M  V30 11249 H 1086.91 -0.845502 -4.60401 0
M  V30 11250 H 1087.09 -1.41805 -6.32294 0
M  V30 11251 N 1080.49 1.57075 -0.12858 0
M  V30 11252 C 1081.74 1.95134 0.526046 0
M  V30 11253 C 1082.06 1.01337 1.66601 0
M  V30 11254 O 1081.33 0.0714361 1.9577 0
M  V30 11255 H 1079.91 0.720468 0.19732 0
M  V30 11256 H 1082.57 1.93874 -0.199767 0
M  V30 11257 H 1081.67 2.98406 0.914332 0
M  V30 11258 N 1081.97 -0.145205 1.5693 0
M  V30 11259 C 1083.39 -0.497905 1.51635 0
M  V30 11260 C 1083.59 -1.8328 0.837301 0
M  V30 11261 O 1082.64 -2.49172 0.408584 0
M  V30 11262 C 1083.95 -0.506557 2.96403 0
M  V30 11263 C 1085.5 -0.591947 3.07352 0
M  V30 11264 C 1085.98 -0.631244 4.53629 0
M  V30 11265 N 1087.47 -0.693417 4.5798 0
M  V30 11266 C 1088.2 -0.744836 5.68542 0
M  V30 11267 N 1087.7 -0.755492 6.88668 0
M  V30 11268 N 1089.49 -0.785854 5.5658 0
M  V30 11269 H 1081.64 0.729779 1.99469 0
M  V30 11270 H 1083.91 0.266295 0.90983 0
M  V30 11271 H 1083.61 0.406127 3.49347 0
M  V30 11272 H 1083.49 -1.34383 3.5245 0
M  V30 11273 H 1085.87 -1.49505 2.54425 0
M  V30 11274 H 1085.95 0.272507 2.54344 0
M  V30 11275 H 1085.6 0.26771 5.07194 0
M  V30 11276 H 1085.53 -1.51221 5.0442 0
M  V30 11277 H 1088.02 -0.692408 3.71503 0
M  V30 11278 H 1088.33 -0.796624 7.68683 0
M  V30 11279 H 1086.68 -0.723339 6.91226 0
M  V30 11280 H 1089.87 -0.774712 4.61645 0
M  V30 11281 H 1090.04 -0.822461 6.42759 0
M  V30 11282 N 1083.45 -1.52049 -0.414609 0
M  V30 11283 C 1084.39 -1.74998 -1.5048 0
M  V30 11284 C 1085.36 -0.592251 -1.55182 0
M  V30 11285 O 1086.55 -0.829203 -1.7184 0
M  V30 11286 C 1083.69 -1.90157 -2.87983 0
M  V30 11287 C 1082.8 -3.17789 -2.92633 0
M  V30 11288 C 1081.94 -3.23411 -4.21401 0
M  V30 11289 C 1080.98 -4.45267 -4.20004 0
M  V30 11290 N 1080.11 -4.48312 -5.40334 0
M  V30 11291 H 1084.95 -2.68046 -1.30212 0
M  V30 11292 H 1082.49 -1.32824 -0.632154 0
M  V30 11293 H 1084.45 -1.96929 -3.67797 0
M  V30 11294 H 1083.08 -1.00496 -3.06758 0
M  V30 11295 H 1082.13 -3.20216 -2.05343 0
M  V30 11296 H 1083.44 -4.07634 -2.87465 0
M  V30 11297 H 1082.6 -3.29224 -5.09604 0
M  V30 11298 H 1081.34 -2.31495 -4.29257 0
M  V30 11299 H 1080.34 -4.39606 -3.30192 0
M  V30 11300 H 1081.57 -5.38472 -4.13793 0
M  V30 11301 H 1079.51 -3.59277 -5.48868 0
M  V30 11302 H 1079.43 -5.31994 -5.37139 0
M  V30 11303 H 1080.7 -4.58347 -6.30506 0
M  V30 11304 N 1084.93 0.6715 -1.42579 0
M  V30 11305 C 1085.89 1.76676 -1.46008 0
M  V30 11306 C 1086.89 1.57007 -0.347213 0
M  V30 11307 O 1088.08 1.63238 -0.608185 0
M  V30 11308 C 1085.21 3.15348 -1.29494 0
M  V30 11309 H 1086.4 1.75021 -2.43531 0
M  V30 11310 H 1083.96 0.881444 -1.29075 0
M  V30 11311 H 1084.69 3.22626 -0.32906 0
M  V30 11312 H 1084.48 3.31028 -2.10149 0
M  V30 11313 H 1085.97 3.95251 -1.34784 0
M  V30 11314 N 1086.4 1.28806 0.908124 0
M  V30 11315 C 1087.63 1.19153 1.69146 0
M  V30 11316 C 1088.05 -0.249056 1.8715 0
M  V30 11317 O 1087.4 -1.16772 1.40251 0
M  V30 11318 C 1087.45 1.89167 3.08055 0
M  V30 11319 O 1087.18 3.27599 2.90879 0
M  V30 11320 C 1088.68 1.85886 4.02444 0
M  V30 11321 H 1085.9 0.413359 0.528559 0
M  V30 11322 H 1088.44 1.7003 1.13622 0
M  V30 11323 H 1086.6 1.42146 3.60379 0
M  V30 11324 H 1087.01 3.62743 3.78837 0
M  V30 11325 H 1088.48 2.39454 4.97359 0
M  V30 11326 H 1088.96 0.832483 4.31238 0
M  V30 11327 H 1089.57 2.32612 3.5605 0
M  V30 11328 N 1087.88 -1.11734 1.11145 0
M  V30 11329 C 1088.81 -2.1976 0.789152 0
M  V30 11330 C 1089.79 -1.68382 -0.241143 0
M  V30 11331 O 1090.98 -1.93914 -0.105292 0
M  V30 11332 C 1088.11 -3.46549 0.228204 0
M  V30 11333 C 1087.06 -4.11123 1.19002 0
M  V30 11334 C 1086.39 -5.32451 0.489928 0
M  V30 11335 C 1087.69 -4.56406 2.53951 0
M  V30 11336 H 1089.38 -2.46978 1.69241 0
M  V30 11337 H 1086.93 -1.18705 0.81517 0
M  V30 11338 H 1088.88 -4.21399 -0.00945908 0
M  V30 11339 H 1087.6 -3.18782 -0.71033 0
M  V30 11340 H 1086.26 -3.38264 1.41326 0
M  V30 11341 H 1085.91 -5.00953 -0.453315 0
M  V30 11342 H 1085.61 -5.76605 1.1314 0
M  V30 11343 H 1087.14 -6.10042 0.260984 0
M  V30 11344 H 1088.55 -5.22592 2.35733 0
M  V30 11345 H 1086.95 -5.11363 3.14051 0
M  V30 11346 H 1088.02 -3.7001 3.13402 0
M  V30 11347 N 1089.36 -0.901303 -1.29284 0
M  V30 11348 C 1090.64 -0.44747 -1.90413 0
M  V30 11349 C 1091.02 1.07298 -1.81797 0
M  V30 11350 O 1090.36 1.91555 -1.24574 0
M  V30 11351 C 1090.57 -0.963849 -3.35427 0
M  V30 11352 C 1091.92 -1.00851 -4.12449 0
M  V30 11353 O 1092.95 -0.91163 -3.44337 0
M  V30 11354 O 1091.81 -1.15426 -5.34171 0
M  V30 11355 H 1088.9 -0.13976 -0.815105 0
M  V30 11356 H 1091.45 -0.991274 -1.37738 0
M  V30 11357 H 1090.22 -2.00782 -3.3586 0
M  V30 11358 H 1089.84 -0.400149 -3.95581 0
M  V30 11359 N 1090.84 1.42931 -0.663954 0
M  V30 11360 C 1091.75 2.3459 0.0214234 0
M  V30 11361 C 1092.76 1.54487 0.800611 0
M  V30 11362 O 1093.94 1.87098 0.74541 0
M  V30 11363 C 1091 3.32896 0.968556 0
M  V30 11364 C 1090.07 4.28901 0.185108 0
M  V30 11365 C 1089.3 5.2251 1.08713 0
M  V30 11366 O 1089.52 5.20795 2.32655 0
M  V30 11367 O 1088.46 5.99347 0.553758 0
M  V30 11368 H 1092.28 2.94714 -0.733308 0
M  V30 11369 H 1089.87 1.43252 -0.424159 0
M  V30 11370 H 1091.75 3.93318 1.51257 0
M  V30 11371 H 1090.42 2.75261 1.70333 0
M  V30 11372 H 1089.33 3.71926 -0.402752 0
M  V30 11373 H 1090.66 4.89547 -0.510319 0
M  V30 11374 N 1092.32 0.406567 1.52266 0
M  V30 11375 C 1093.56 -0.171391 2.00971 0
M  V30 11376 C 1093.88 -1.46443 1.29668 0
M  V30 11377 O 1095.08 -2.12348 1.69176 0
M  V30 11378 C 1093.54 -0.35599 3.58135 0
M  V30 11379 C 1093.15 0.924803 4.38351 0
M  V30 11380 C 1094.89 -0.889378 4.15079 0
M  V30 11381 C 1092.8 0.707534 5.87152 0
M  V30 11382 H 1091.73 -0.0678253 0.750943 0
M  V30 11383 H 1094.38 0.531619 1.7563 0
M  V30 11384 H 1092.76 -1.12127 3.79794 0
M  V30 11385 H 1093.94 1.69603 4.28452 0
M  V30 11386 H 1092.25 1.38442 3.92712 0
M  V30 11387 H 1094.85 -1.06792 5.23927 0
M  V30 11388 H 1095.19 -1.86334 3.7227 0
M  V30 11389 H 1095.72 -0.183224 3.97378 0
M  V30 11390 H 1092.46 1.65299 6.34316 0
M  V30 11391 H 1091.98 -0.024446 5.99795 0
M  V30 11392 H 1093.66 0.348721 6.4606 0
M  V30 11393 N 1093.79 -1.57004 0.136909 0
M  V30 11394 C 1094.73 -2.13355 -0.837405 0
M  V30 11395 C 1095.74 -1.08053 -1.21772 0
M  V30 11396 O 1096.93 -1.35365 -1.16355 0
M  V30 11397 C 1094.03 -2.63302 -2.13366 0
M  V30 11398 C 1093.2 -3.92896 -1.92228 0
M  V30 11399 C 1092.26 -4.28257 -3.05749 0
M  V30 11400 O 1091.29 -4.96761 -2.7788 0
M  V30 11401 N 1092.49 -3.87021 -4.3266 0
M  V30 11402 H 1095.25 -2.9758 -0.35586 0
M  V30 11403 H 1092.81 -1.61832 -0.0469758 0
M  V30 11404 H 1094.81 -2.83977 -2.88339 0
M  V30 11405 H 1093.38 -1.83858 -2.52814 0
M  V30 11406 H 1092.6 -3.80949 -1.01349 0
M  V30 11407 H 1093.88 -4.776 -1.75431 0
M  V30 11408 H 1093.28 -3.31804 -4.58173 0
M  V30 11409 H 1091.84 -4.12768 -5.04446 0
M  V30 11410 N 1095.27 0.136881 -1.57004 0
M  V30 11411 C 1096.5 0.862436 -1.88068 0
M  V30 11412 C 1096.92 1.74274 -0.726227 0
M  V30 11413 O 1096.27 1.79956 0.30366 0
M  V30 11414 C 1096.32 1.71076 -3.18458 0
M  V30 11415 O 1096.04 0.865918 -4.29457 0
M  V30 11416 C 1097.55 2.54302 -3.63105 0
M  V30 11417 H 1094.77 0.248865 -0.623143 0
M  V30 11418 H 1097.31 0.126633 -2.04108 0
M  V30 11419 H 1095.46 2.39951 -3.04142 0
M  V30 11420 H 1095.88 1.4493 -5.04079 0
M  V30 11421 H 1097.35 3.09384 -4.57149 0
M  V30 11422 H 1097.83 3.3082 -2.88886 0
M  V30 11423 H 1098.44 1.907 -3.80149 0
M  V30 11424 N 1096.75 1.52266 0.40654 0
M  V30 11425 C 1098 1.66699 1.15496 0
M  V30 11426 C 1098.33 0.397019 1.90098 0
M  V30 11427 O 1097.6 -0.604646 1.84863 0
M  V30 11428 C 1097.89 2.8907 2.14734 0
M  V30 11429 C 1097.74 4.26123 1.44012 0
M  V30 11430 C 1099.06 3.06966 3.15373 0
M  V30 11431 H 1096.18 0.606642 0.418515 0
M  V30 11432 H 1098.82 1.84826 0.440381 0
M  V30 11433 H 1096.97 2.73745 2.75673 0
M  V30 11434 H 1098.64 4.5318 0.861722 0
M  V30 11435 H 1096.89 4.27406 0.742064 0
M  V30 11436 H 1097.56 5.07799 2.16436 0
M  V30 11437 H 1100.03 3.21205 2.64512 0
M  V30 11438 H 1098.91 3.94097 3.82072 0
M  V30 11439 H 1099.17 2.20395 3.83247 0
M  V30 11440 N 1098.23 -0.663929 1.42933 0
M  V30 11441 C 1099.18 -1.77007 1.4371 0
M  V30 11442 C 1100.16 -1.57945 0.306948 0
M  V30 11443 O 1101.35 -1.68239 0.549967 0
M  V30 11444 C 1098.48 -3.15535 1.3525 0
M  V30 11445 C 1097.57 -3.40183 2.53252 0
M  V30 11446 N 1097.96 -3.35357 3.78641 0
M  V30 11447 C 1096.26 -3.70861 2.47746 0
M  V30 11448 C 1096.96 -3.5979 4.57085 0
M  V30 11449 N 1095.94 -3.81084 3.87655 0
M  V30 11450 H 1099.74 -1.71686 2.3854 0
M  V30 11451 H 1097.25 -0.865191 1.37434 0
M  V30 11452 H 1099.25 -3.94816 1.33888 0
M  V30 11453 H 1097.91 -3.22046 0.414308 0
M  V30 11454 H 1098.92 -3.15011 4.11082 0
M  V30 11455 H 1095.6 -3.84552 1.62561 0
M  V30 11456 H 1096.99 -3.61928 5.6609 0
M  V30 11457 N 1099.71 -1.29285 -0.901281 0
M  V30 11458 C 1100.93 -1.20169 -1.69039 0
M  V30 11459 C 1101.36 0.234509 -1.86632 0
M  V30 11460 O 1100.71 1.16935 -1.38549 0
M  V30 11461 C 1100.76 -1.91852 -3.05328 0
M  V30 11462 O 1099.87 -1.23448 -3.9349 0
M  V30 11463 H 1099.21 -0.416486 -0.517141 0
M  V30 11464 H 1101.74 -1.70826 -1.12603 0
M  V30 11465 H 1101.75 -2.00244 -3.5548 0
M  V30 11466 H 1100.42 -2.96313 -2.91841 0
M  V30 11467 H 1099 -1.23303 -3.51924 0
M  V30 11468 N 1101.18 1.11143 -1.11736 0
M  V30 11469 C 1102.09 2.20851 -0.791331 0
M  V30 11470 C 1103.11 1.72644 0.216833 0
M  V30 11471 O 1104.29 2.01332 0.0522401 0
M  V30 11472 C 1101.35 3.4585 -0.242694 0
M  V30 11473 C 1100.41 4.08829 -1.30986 0
M  V30 11474 C 1099.65 5.27861 -0.787305 0
M  V30 11475 O 1099.87 5.69122 0.381549 0
M  V30 11476 O 1098.8 5.81506 -1.55352 0
M  V30 11477 H 1102.63 2.51158 -1.70744 0
M  V30 11478 H 1100.21 1.19739 -0.893478 0
M  V30 11479 H 1102.1 4.21359 0.0587472 0
M  V30 11480 H 1100.77 3.17187 0.646079 0
M  V30 11481 H 1099.68 3.35037 -1.66436 0
M  V30 11482 H 1101.01 4.41678 -2.17213 0
M  V30 11483 N 1102.66 0.908147 1.28804 0
M  V30 11484 C 1103.89 0.553287 1.99054 0
M  V30 11485 C 1104.3 -0.868455 1.68091 0
M  V30 11486 O 1103.64 -1.58599 0.926939 0
M  V30 11487 C 1103.71 0.675823 3.5309 0
M  V30 11488 C 1103.37 2.06608 4.0763 0
M  V30 11489 C 1104.37 3.03819 4.21889 0
M  V30 11490 C 1102.05 2.37775 4.42457 0
M  V30 11491 C 1104.05 4.30316 4.7022 0
M  V30 11492 C 1101.73 3.64512 4.90484 0
M  V30 11493 C 1102.73 4.60597 5.04321 0
M  V30 11494 O 1102.42 5.85082 5.51302 0
M  V30 11495 H 1102.15 0.210152 0.642504 0
M  V30 11496 H 1104.7 1.22188 1.65104 0
M  V30 11497 H 1102.93 -0.0498253 3.86668 0
M  V30 11498 H 1104.62 0.328884 4.04565 0
M  V30 11499 H 1105.39 2.81057 3.95262 0
M  V30 11500 H 1101.27 1.63742 4.3094 0
M  V30 11501 H 1104.81 5.05318 4.80936 0
M  V30 11502 H 1100.71 3.87101 5.1655 0
M  V30 11503 H 1101.48 5.87791 5.69599 0
M  V30 11504 N 1104.14 -1.42577 0.671525 0
M  V30 11505 C 1105.09 -2.27978 -0.0315286 0
M  V30 11506 C 1106.07 -1.40907 -0.776796 0
M  V30 11507 O 1107.27 -1.64385 -0.656248 0
M  V30 11508 C 1104.4 -3.28884 -0.9844 0
M  V30 11509 C 1103.48 -4.23439 -0.236647 0
M  V30 11510 N 1103.87 -5.00107 0.756714 0
M  V30 11511 C 1102.17 -4.43457 -0.475551 0
M  V30 11512 C 1102.87 -5.69141 1.20221 0
M  V30 11513 N 1101.85 -5.40983 0.532802 0
M  V30 11514 H 1105.65 -2.84678 0.730455 0
M  V30 11515 H 1103.16 -1.54501 0.500317 0
M  V30 11516 H 1105.16 -3.88864 -1.50302 0
M  V30 11517 H 1103.82 -2.73745 -1.74625 0
M  V30 11518 H 1104.83 -5.05285 1.13613 0
M  V30 11519 H 1101.51 -3.99364 -1.21715 0
M  V30 11520 H 1102.9 -6.40653 2.02517 0
M  V30 11521 N 1105.62 -0.414636 -1.52048 0
M  V30 11522 C 1106.85 0.158686 -2.06291 0
M  V30 11523 C 1107.26 1.38397 -1.2842 0
M  V30 11524 O 1106.62 1.79351 -0.337539 0
M  V30 11525 C 1106.67 0.503634 -3.57975 0
M  V30 11526 O 1106.39 -0.672996 -4.329 0
M  V30 11527 C 1107.89 1.13009 -4.28653 0
M  V30 11528 H 1105.11 0.0179622 -0.67076 0
M  V30 11529 H 1107.66 -0.587177 -1.95889 0
M  V30 11530 H 1105.81 1.19939 -3.68366 0
M  V30 11531 H 1106.22 -0.383735 -5.23094 0
M  V30 11532 H 1107.7 1.32162 -5.35945 0
M  V30 11533 H 1108.18 2.10476 -3.85482 0
M  V30 11534 H 1108.78 0.474379 -4.22646 0
M  V30 11535 N 1107.1 1.56929 -0.145233 0
M  V30 11536 C 1108.03 2.19685 0.791263 0
M  V30 11537 C 1109.01 1.14455 1.25833 0
M  V30 11538 O 1110.19 1.42791 1.31622 0
M  V30 11539 C 1107.32 2.81705 2.03124 0
M  V30 11540 C 1106.28 3.92746 1.70101 0
M  V30 11541 C 1105.6 4.41694 3.01347 0
M  V30 11542 C 1106.9 5.13606 0.949025 0
M  V30 11543 H 1108.6 2.98196 0.26825 0
M  V30 11544 H 1106.14 1.43434 0.127584 0
M  V30 11545 H 1108.1 3.24273 2.69119 0
M  V30 11546 H 1106.82 2.00523 2.57795 0
M  V30 11547 H 1105.48 3.50794 1.06486 0
M  V30 11548 H 1105.13 3.57336 3.54006 0
M  V30 11549 H 1104.83 5.1659 2.80016 0
M  V30 11550 H 1106.35 4.86931 3.68416 0
M  V30 11551 H 1107.76 5.53029 1.51102 0
M  V30 11552 H 1106.16 5.94252 0.835711 0
M  V30 11553 H 1107.23 4.84863 -0.0595631 0
M  V30 11554 N 1108.58 -0.128553 1.57075 0
M  V30 11555 C 1109.51 -1.15953 2.02675 0
M  V30 11556 C 1110.49 -1.43743 0.909501 0
M  V30 11557 O 1111.67 -1.54348 1.17857 0
M  V30 11558 C 1108.8 -2.48813 2.423 0
M  V30 11559 C 1107.76 -2.35506 3.57381 0
M  V30 11560 C 1107.08 -3.73243 3.82875 0
M  V30 11561 C 1108.38 -1.82359 4.89431 0
M  V30 11562 H 1110.08 -0.780283 2.89054 0
M  V30 11563 H 1107.62 -0.373896 1.39061 0
M  V30 11564 H 1109.57 -3.21179 2.72804 0
M  V30 11565 H 1108.3 -2.88609 1.52881 0
M  V30 11566 H 1106.96 -1.6559 3.27071 0
M  V30 11567 H 1106.61 -4.10507 2.90677 0
M  V30 11568 H 1106.31 -3.65195 4.60333 0
M  V30 11569 H 1107.83 -4.47128 4.15823 0
M  V30 11570 H 1109.24 -2.44533 5.18533 0
M  V30 11571 H 1107.64 -1.85156 5.70822 0
M  V30 11572 H 1108.71 -0.780478 4.78578 0
M  V30 11573 N 1110.05 -1.5248 -0.398459 0
M  V30 11574 C 1111.28 -1.70677 -1.16417 0
M  V30 11575 C 1111.69 -0.420629 -1.84465 0
M  V30 11576 O 1111.03 0.614013 -1.73135 0
M  V30 11577 C 1111.1 -2.79401 -2.2622 0
M  V30 11578 C 1110.76 -4.20817 -1.78218 0
M  V30 11579 C 1111.76 -5.04298 -1.26409 0
M  V30 11580 C 1109.44 -4.67098 -1.84728 0
M  V30 11581 C 1111.44 -6.32136 -0.817461 0
M  V30 11582 C 1109.12 -5.94923 -1.39676 0
M  V30 11583 C 1110.12 -6.77272 -0.882716 0
M  V30 11584 O 1109.81 -8.02702 -0.438739 0
M  V30 11585 H 1109.54 -0.57503 -0.355411 0
M  V30 11586 H 1112.1 -1.99868 -0.473471 0
M  V30 11587 H 1110.33 -2.4561 -2.98685 0
M  V30 11588 H 1112.01 -2.86093 -2.87933 0
M  V30 11589 H 1112.78 -4.6973 -1.20744 0
M  V30 11590 H 1108.66 -4.03097 -2.23682 0
M  V30 11591 H 1112.2 -6.96361 -0.415548 0
M  V30 11592 H 1108.1 -6.28998 -1.45024 0
M  V30 11593 H 1108.87 -8.16575 -0.561079 0
M  V30 11594 N 1111.53 0.65634 -1.43283 0
M  V30 11595 C 1112.78 1.41347 -1.44449 0
M  V30 11596 C 1113.1 1.94879 -0.0687217 0
M  V30 11597 O 1112.37 1.74235 0.895492 0
M  V30 11598 H 1110.95 0.524578 -0.531815 0
M  V30 11599 H 1113.61 0.774292 -1.7886 0
M  V30 11600 H 1112.71 2.25737 -2.15521 0
M  V30 11601 N 1113.01 1.29761 0.894412 0
M  V30 11602 C 1114.24 1.2094 1.67872 0
M  V30 11603 C 1114.65 -0.229192 1.87404 0
M  V30 11604 O 1114.01 -1.15278 1.41482 0
M  V30 11605 C 1114.06 1.92424 3.06032 0
M  V30 11606 O 1113.78 3.30665 2.87388 0
M  V30 11607 C 1115.28 1.90144 4.0045 0
M  V30 11608 H 1112.5 0.418942 0.524145 0
M  V30 11609 H 1115.05 1.71226 1.11813 0
M  V30 11610 H 1113.2 1.4596 3.58851 0
M  V30 11611 H 1113.62 3.66741 3.74969 0
M  V30 11612 H 1115.09 2.44716 4.94791 0
M  V30 11613 H 1115.57 0.878175 4.30331 0
M  V30 11614 H 1116.17 2.36375 3.53563 0
M  V30 11615 N 1114.49 -1.10549 1.12324 0
M  V30 11616 C 1115.71 -1.8681 0.900927 0
M  V30 11617 C 1116.14 -1.80049 -0.54443 0
M  V30 11618 O 1115.5 -1.16957 -1.38531 0
M  V30 11619 C 1115.54 -3.33197 1.37883 0
M  V30 11620 O 1114.65 -4.08628 0.556529 0
M  V30 11621 H 1113.99 -0.579709 0.32378 0
M  V30 11622 H 1116.52 -1.39678 1.49503 0
M  V30 11623 H 1116.53 -3.84047 1.37739 0
M  V30 11624 H 1115.2 -3.37435 2.43127 0
M  V30 11625 H 1113.78 -3.67627 0.62486 0
M  V30 11626 N 1115.97 -0.914965 -1.28321 0
M  V30 11627 C 1117.38 -0.59512 -1.76961 0
M  V30 11628 C 1117.73 0.88958 -1.74874 0
M  V30 11629 O 1116.85 1.6959 -1.34418 0
M  V30 11630 C 1117.45 -1.07353 -3.21342 0
M  V30 11631 C 1116.01 -0.804577 -3.677 0
M  V30 11632 C 1115.15 -1.23955 -2.48053 0
M  V30 11633 H 1118.1 -1.0961 -1.14767 0
M  V30 11634 H 1118.13 -0.415506 -3.78225 0
M  V30 11635 H 1117.64 -2.15413 -3.22829 0
M  V30 11636 H 1115.74 0.26277 -3.71672 0
M  V30 11637 H 1115.85 -1.41317 -4.57784 0
M  V30 11638 H 1114.22 -0.658274 -2.46046 0
M  V30 11639 H 1115 -2.32853 -2.52258 0
M  V30 11640 N 1117.44 1.42219 -0.679077 0
M  V30 11641 C 1118.37 2.33493 -0.0174528 0
M  V30 11642 C 1119.35 1.50915 0.78477 0
M  V30 11643 O 1120.54 1.79504 0.741065 0
M  V30 11644 C 1117.67 3.34576 0.931463 0
M  V30 11645 C 1116.62 4.2734 0.237527 0
M  V30 11646 C 1115.95 5.18664 1.29967 0
M  V30 11647 C 1117.25 5.14729 -0.886082 0
M  V30 11648 H 1118.94 2.89068 -0.779748 0
M  V30 11649 H 1116.49 1.38993 -0.376419 0
M  V30 11650 H 1118.44 3.97343 1.40343 0
M  V30 11651 H 1117.17 2.77315 1.72523 0
M  V30 11652 H 1115.83 3.65973 -0.214245 0
M  V30 11653 H 1115.47 4.57727 2.08554 0
M  V30 11654 H 1115.17 5.81558 0.840463 0
M  V30 11655 H 1116.7 5.84308 1.77249 0
M  V30 11656 H 1118.11 5.71158 -0.495141 0
M  V30 11657 H 1116.51 5.86478 -1.27135 0
M  V30 11658 H 1117.58 4.52874 -1.733 0
M  V30 11659 N 1118.92 0.422693 1.51826 0
M  V30 11660 C 1119.87 -0.41063 2.28947 0
M  V30 11661 C 1120.86 -1.03389 1.34191 0
M  V30 11662 O 1122.07 -0.970533 1.51594 0
M  V30 11663 H 1118.44 -0.151219 0.736639 0
M  V30 11664 H 1120.42 0.260859 2.97258 0
M  V30 11665 C 1119.16 -1.50758 3.13317 0
M  V30 11666 H 1118.49 -1.03734 3.86108 0
M  V30 11667 H 1119.93 -2.0642 3.7036 0
M  V30 11668 C 1118.39 -2.48261 2.27746 0
M  V30 11669 O 1118.92 -3.52462 1.92701 0
M  V30 11670 N 1117.12 -2.18795 1.91251 0
M  V30 11671 H 1116.67 -1.34088 2.1995 0
M  V30 11672 H 1116.63 -2.84276 1.34293 0
M  V30 11673 N 1120.4 -1.5685 0.153553 0
M  V30 11674 C 1121.82 -1.58306 -0.202801 0
M  V30 11675 C 1122.02 -1.16813 -1.64186 0
M  V30 11676 O 1121.07 -0.871468 -2.36985 0
M  V30 11677 C 1122.38 -3.00636 0.0619012 0
M  V30 11678 C 1123.93 -3.13 -0.00129219 0
M  V30 11679 C 1124.41 -4.57391 0.236164 0
M  V30 11680 N 1125.9 -4.62837 0.18332 0
M  V30 11681 C 1126.63 -5.72382 0.341471 0
M  V30 11682 N 1126.13 -6.90552 0.557704 0
M  V30 11683 N 1127.92 -5.61409 0.278615 0
M  V30 11684 H 1120.07 -1.82113 1.09309 0
M  V30 11685 H 1122.34 -0.843228 0.433209 0
M  V30 11686 H 1122.04 -3.35406 1.0581 0
M  V30 11687 H 1121.92 -3.71477 -0.654555 0
M  V30 11688 H 1124.3 -2.78068 -0.98805 0
M  V30 11689 H 1124.38 -2.44632 0.747596 0
M  V30 11690 H 1124.03 -4.93029 1.22005 0
M  V30 11691 H 1123.96 -5.23894 -0.533125 0
M  V30 11692 H 1126.45 -3.77894 0.0211138 0
M  V30 11693 H 1126.76 -7.69905 0.66831 0
M  V30 11694 H 1125.11 -6.92456 0.594105 0
M  V30 11695 H 1128.3 -4.6797 0.110401 0
M  V30 11696 H 1128.47 -6.46731 0.4053 0
M  V30 11697 N 1121.88 0.120221 -1.57141 0
M  V30 11698 C 1122.81 1.1732 -1.96898 0
M  V30 11699 C 1123.82 1.37722 -0.868134 0
M  V30 11700 O 1125.01 1.36818 -1.14643 0
M  V30 11701 C 1122.11 2.53343 -2.25102 0
M  V30 11702 C 1121.28 2.53559 -3.56408 0
M  V30 11703 C 1120.34 3.71319 -3.72838 0
M  V30 11704 O 1119.37 3.54961 -4.44962 0
M  V30 11705 N 1120.57 4.89836 -3.11514 0
M  V30 11706 H 1123.34 0.835023 -2.87832 0
M  V30 11707 H 1120.9 0.309508 -1.58914 0
M  V30 11708 H 1122.89 3.30679 -2.3331 0
M  V30 11709 H 1121.46 2.79347 -1.403 0
M  V30 11710 H 1120.68 1.61946 -3.59398 0
M  V30 11711 H 1121.97 2.5076 -4.42716 0
M  V30 11712 H 1121.37 5.0603 -2.52884 0
M  V30 11713 H 1119.92 5.64853 -3.25246 0
M  V30 11714 N 1123.36 1.52689 0.390367 0
M  V30 11715 C 1124.3 1.7737 1.47677 0
M  V30 11716 C 1125.27 0.616864 1.54221 0
M  V30 11717 O 1126.46 0.856437 1.70499 0
M  V30 11718 C 1123.6 1.94715 2.84921 0
M  V30 11719 C 1122.71 3.22405 2.8754 0
M  V30 11720 C 1121.85 3.30074 4.16202 0
M  V30 11721 C 1120.89 4.51893 4.12867 0
M  V30 11722 N 1120.02 4.56851 5.33134 0
M  V30 11723 H 1124.86 2.70084 1.25932 0
M  V30 11724 H 1122.4 1.33813 0.610943 0
M  V30 11725 H 1124.36 2.02755 3.64618 0
M  V30 11726 H 1122.99 1.05363 3.0512 0
M  V30 11727 H 1122.04 3.23442 2.00223 0
M  V30 11728 H 1123.35 4.12156 2.80943 0
M  V30 11729 H 1122.51 3.3729 5.04302 0
M  V30 11730 H 1121.24 2.38295 4.25519 0
M  V30 11731 H 1120.25 4.44803 3.23156 0
M  V30 11732 H 1121.47 5.44987 4.05174 0
M  V30 11733 H 1119.42 3.67963 5.43083 0
M  V30 11734 H 1119.34 5.40472 5.28607 0
M  V30 11735 H 1120.61 4.6832 6.23134 0
M  V30 11736 N 1124.83 -0.648732 1.43629 0
M  V30 11737 C 1125.76 -1.77298 1.51947 0
M  V30 11738 C 1126.75 -1.65942 0.373785 0
M  V30 11739 O 1127.93 -1.8497 0.591596 0
M  V30 11740 C 1125.06 -3.15749 1.44638 0
M  V30 11741 C 1124.01 -3.41872 2.57502 0
M  V30 11742 C 1123.34 -4.8017 2.35246 0
M  V30 11743 C 1124.64 -3.36173 3.99731 0
M  V30 11744 H 1126.33 -1.70594 2.46045 0
M  V30 11745 H 1123.88 -0.819306 1.1842 0
M  V30 11746 H 1125.83 -3.94156 1.4906 0
M  V30 11747 H 1124.56 -3.23194 0.470466 0
M  V30 11748 H 1123.22 -2.65838 2.5244 0
M  V30 11749 H 1122.86 -4.84297 1.35887 0
M  V30 11750 H 1122.56 -4.9861 3.10906 0
M  V30 11751 H 1124.09 -5.6083 2.41459 0
M  V30 11752 H 1125.5 -4.0451 4.06257 0
M  V30 11753 H 1123.9 -3.66148 4.75453 0
M  V30 11754 H 1124.97 -2.34277 4.24549 0
M  V30 11755 N 1126.31 -1.30234 -0.887518 0
M  V30 11756 C 1127.59 -1.09572 -1.62029 0
M  V30 11757 C 1127.97 0.355877 -2.08079 0
M  V30 11758 O 1127.32 1.34692 -1.84582 0
M  V30 11759 C 1127.53 -2.0943 -2.79177 0
M  V30 11760 C 1128.88 -2.4101 -3.4957 0
M  V30 11761 O 1129.9 -2.0772 -2.89363 0
M  V30 11762 O 1128.76 -2.97943 -4.5814 0
M  V30 11763 H 1125.85 -0.420648 -0.712028 0
M  V30 11764 H 1128.4 -1.41651 -0.934517 0
M  V30 11765 H 1127.17 -3.07149 -2.42436 0
M  V30 11766 H 1126.79 -1.78154 -3.55453 0
M  V30 11767 N 1127.79 1.09952 -1.12909 0
M  V30 11768 C 1129.02 1.8633 -0.910821 0
M  V30 11769 C 1129.44 1.80335 0.534874 0
M  V30 11770 O 1128.8 1.1769 1.37908 0
M  V30 11771 C 1128.85 3.32462 -1.39648 0
M  V30 11772 O 1127.95 4.08327 -0.578192 0
M  V30 11773 H 1127.29 0.577984 -0.32685 0
M  V30 11774 H 1129.82 1.38883 -1.50242 0
M  V30 11775 H 1129.83 3.83311 -1.39774 0
M  V30 11776 H 1128.51 3.36141 -2.44913 0
M  V30 11777 H 1127.08 3.67291 -0.644347 0
M  V30 11778 N 1129.27 0.921757 1.27833 0
M  V30 11779 C 1130.22 0.414838 2.27041 0
M  V30 11780 C 1131.19 -0.515045 1.57913 0
M  V30 11781 O 1132.37 -0.435499 1.85763 0
M  V30 11782 C 1129.51 -0.331744 3.43502 0
M  V30 11783 C 1128.62 0.631565 4.27358 0
M  V30 11784 C 1127.76 -0.134265 5.3103 0
M  V30 11785 C 1126.8 0.822138 6.06554 0
M  V30 11786 N 1125.93 0.0893149 7.02043 0
M  V30 11787 H 1130.77 1.26585 2.69778 0
M  V30 11788 H 1128.31 0.635488 1.32665 0
M  V30 11789 H 1130.27 -0.780866 4.09827 0
M  V30 11790 H 1128.9 -1.14704 3.01733 0
M  V30 11791 H 1127.95 1.19922 3.61003 0
M  V30 11792 H 1129.26 1.36274 4.79824 0
M  V30 11793 H 1128.42 -0.643579 6.03277 0
M  V30 11794 H 1127.16 -0.898443 4.79353 0
M  V30 11795 H 1126.16 1.34275 5.33151 0
M  V30 11796 H 1127.39 1.586 6.6032 0
M  V30 11797 H 1125.33 -0.656725 6.52704 0
M  V30 11798 H 1125.25 0.760167 7.52169 0
M  V30 11799 H 1126.52 -0.399541 7.78475 0
M  V30 11800 N 1130.75 -1.41857 0.686609 0
M  V30 11801 C 1131.69 -2.30795 0.015643 0
M  V30 11802 C 1132.66 -1.46616 -0.780569 0
M  V30 11803 O 1133.85 -1.75423 -0.750424 0
M  V30 11804 C 1130.99 -3.32577 -0.921229 0
M  V30 11805 C 1130.1 -4.3184 -0.117585 0
M  V30 11806 C 1129.24 -5.20693 -1.05128 0
M  V30 11807 C 1128.28 -6.11629 -0.240018 0
M  V30 11808 N 1127.41 -6.92995 -1.12704 0
M  V30 11809 H 1132.25 -2.87615 0.77985 0
M  V30 11810 H 1129.79 -1.41661 0.396298 0
M  V30 11811 H 1131.75 -3.90129 -1.47836 0
M  V30 11812 H 1130.38 -2.77328 -1.65193 0
M  V30 11813 H 1129.43 -3.7631 0.55634 0
M  V30 11814 H 1130.74 -4.96168 0.511753 0
M  V30 11815 H 1129.9 -5.83035 -1.67795 0
M  V30 11816 H 1128.63 -4.5657 -1.71449 0
M  V30 11817 H 1127.64 -5.48345 0.399779 0
M  V30 11818 H 1128.86 -6.77805 0.419266 0
M  V30 11819 H 1126.81 -6.31489 -1.77644 0
M  V30 11820 H 1126.73 -7.53974 -0.553065 0
M  V30 11821 H 1128 -7.59813 -1.7408 0
M  V30 11822 N 1132.22 -0.430739 -1.51599 0
M  V30 11823 C 1133.15 0.374695 -2.30474 0
M  V30 11824 C 1134.14 1.02694 -1.35602 0
M  V30 11825 O 1135.32 1.03184 -1.6452 0
M  V30 11826 C 1132.45 1.47981 -3.14196 0
M  V30 11827 C 1131.4 0.951415 -4.17291 0
M  V30 11828 C 1130.73 2.15177 -4.89492 0
M  V30 11829 C 1132.03 -0.00957951 -5.22299 0
M  V30 11830 H 1133.72 -0.283508 -2.98055 0
M  V30 11831 H 1131.27 -0.13779 -1.43339 0
M  V30 11832 H 1133.22 2.05043 -3.68151 0
M  V30 11833 H 1131.95 2.16621 -2.44424 0
M  V30 11834 H 1130.61 0.403052 -3.64378 0
M  V30 11835 H 1130.25 2.82421 -4.1623 0
M  V30 11836 H 1129.95 1.80464 -5.59202 0
M  V30 11837 H 1131.48 2.72806 -5.46269 0
M  V30 11838 H 1132.89 0.470527 -5.71366 0
M  V30 11839 H 1131.29 -0.268959 -5.99497 0
M  V30 11840 H 1132.36 -0.948297 -4.75537 0
M  V30 11841 N 1133.7 1.56767 -0.161869 0
M  V30 11842 C 1134.63 2.20511 0.767918 0
M  V30 11843 C 1135.61 1.15783 1.24612 0
M  V30 11844 O 1136.8 1.44179 1.301 0
M  V30 11845 C 1133.93 2.83844 2.00125 0
M  V30 11846 C 1132.88 3.94528 1.65926 0
M  V30 11847 C 1132.21 4.44866 2.96646 0
M  V30 11848 C 1133.51 5.14583 0.894497 0
M  V30 11849 H 1135.2 2.98464 0.236607 0
M  V30 11850 H 1132.75 1.43561 0.112363 0
M  V30 11851 H 1134.7 3.27109 2.65664 0
M  V30 11852 H 1133.43 2.03246 2.55654 0
M  V30 11853 H 1132.08 3.51904 1.02759 0
M  V30 11854 H 1131.73 3.61071 3.50196 0
M  V30 11855 H 1131.43 5.19531 2.74521 0
M  V30 11856 H 1132.96 4.90812 3.6323 0
M  V30 11857 H 1134.37 5.54601 1.45228 0
M  V30 11858 H 1132.77 5.95105 0.772636 0
M  V30 11859 H 1133.84 4.84773 -0.110986 0
M  V30 11860 N 1135.18 -0.111886 1.57202 0
M  V30 11861 C 1136.43 -0.816794 1.84859 0
M  V30 11862 C 1136.75 -1.80079 0.748113 0
M  V30 11863 O 1136.02 -1.94578 -0.227235 0
M  V30 11864 H 1134.6 -0.304633 0.682061 0
M  V30 11865 H 1137.26 -0.097513 1.94656 0
M  V30 11866 H 1136.36 -1.35768 2.81022 0
M  V30 11867 N 1136.66 -1.52894 -0.382264 0
M  V30 11868 C 1138.07 -1.60135 -0.959887 0
M  V30 11869 C 1138.42 -0.458363 -1.90771 0
M  V30 11870 O 1137.55 0.417614 -2.12332 0
M  V30 11871 C 1138.14 -2.90243 -1.74769 0
M  V30 11872 C 1136.7 -2.99874 -2.27491 0
M  V30 11873 C 1135.85 -2.55302 -1.0824 0
M  V30 11874 H 1138.8 -1.57875 -0.161589 0
M  V30 11875 H 1138.82 -2.77108 -2.60751 0
M  V30 11876 H 1138.33 -3.73412 -1.0576 0
M  V30 11877 H 1136.43 -2.21258 -2.99793 0
M  V30 11878 H 1136.54 -4.04643 -2.56516 0
M  V30 11879 H 1134.91 -2.09781 -1.44444 0
M  V30 11880 H 1135.69 -3.40872 -0.407553 0
M  V30 11881 N 1138.14 0.641106 -1.43971 0
M  V30 11882 C 1139.39 1.39676 -1.45511 0
M  V30 11883 C 1139.7 1.95403 -0.0877084 0
M  V30 11884 O 1140.91 2.71493 0.0193965 0
M  V30 11885 C 1139.36 2.52839 -2.56126 0
M  V30 11886 C 1138.97 2.03668 -3.99028 0
M  V30 11887 C 1140.71 3.30118 -2.66875 0
M  V30 11888 C 1138.62 3.14114 -5.01085 0
M  V30 11889 H 1137.55 0.524854 -0.541336 0
M  V30 11890 H 1140.2 0.69075 -1.70003 0
M  V30 11891 H 1138.58 3.25968 -2.24857 0
M  V30 11892 H 1139.76 1.3747 -4.39817 0
M  V30 11893 H 1138.07 1.39233 -3.92432 0
M  V30 11894 H 1140.67 4.12434 -3.40297 0
M  V30 11895 H 1141.01 3.78946 -1.72353 0
M  V30 11896 H 1141.55 2.64075 -2.97505 0
M  V30 11897 H 1138.28 2.70241 -5.97202 0
M  V30 11898 H 1137.8 3.78985 -4.64898 0
M  V30 11899 H 1139.48 3.79051 -5.24337 0
M  V30 11900 N 1139.62 1.30703 0.880598 0
M  V30 11901 C 1140.84 1.22843 1.67106 0
M  V30 11902 C 1141.27 -0.204788 1.86982 0
M  V30 11903 O 1140.62 -1.14716 1.40392 0
M  V30 11904 C 1140.67 1.96685 3.02237 0
M  V30 11905 O 1139.78 1.29693 3.91476 0
M  V30 11906 H 1139.12 0.424661 0.51045 0
M  V30 11907 H 1141.65 1.72596 1.09871 0
M  V30 11908 H 1141.66 2.05874 3.52249 0
M  V30 11909 H 1140.33 3.00919 2.8709 0
M  V30 11910 H 1138.91 1.28886 3.49918 0
M  V30 11911 N 1141.09 -1.09351 1.1349 0
M  V30 11912 C 1142.03 -2.15852 0.770763 0
M  V30 11913 C 1143.04 -1.61468 -0.207866 0
M  V30 11914 O 1144.23 -1.78496 0.0124385 0
M  V30 11915 C 1141.33 -3.38681 0.121871 0
M  V30 11916 C 1140.5 -4.22477 1.13279 0
M  V30 11917 C 1139.56 -5.23728 0.509448 0
M  V30 11918 O 1138.59 -5.57052 1.16967 0
M  V30 11919 N 1139.79 -5.76041 -0.718159 0
M  V30 11920 H 1142.55 -2.47696 1.6872 0
M  V30 11921 H 1140.11 -1.25074 1.02801 0
M  V30 11922 H 1142.11 -4.03531 -0.307404 0
M  V30 11923 H 1140.68 -3.04718 -0.697527 0
M  V30 11924 H 1139.9 -3.53753 1.73933 0
M  V30 11925 H 1141.18 -4.75288 1.81601 0
M  V30 11926 H 1140.58 -5.51183 -1.27331 0
M  V30 11927 H 1139.14 -6.4262 -1.09008 0
M  V30 11928 N 1142.57 -0.928524 -1.27343 0
M  V30 11929 C 1143.52 -0.426873 -2.26818 0
M  V30 11930 C 1144.49 0.506663 -1.58184 0
M  V30 11931 O 1145.67 0.425641 -1.85992 0
M  V30 11932 C 1142.81 0.313523 -3.43673 0
M  V30 11933 C 1141.93 -0.65422 -4.27018 0
M  V30 11934 C 1141.06 0.106102 -5.31094 0
M  V30 11935 C 1140.1 -0.854293 -6.06109 0
M  V30 11936 N 1139.24 -0.126545 -7.01986 0
M  V30 11937 H 1144.08 -1.28014 -2.69103 0
M  V30 11938 H 1141.61 -0.642515 -1.32326 0
M  V30 11939 H 1143.57 0.75912 -4.10236 0
M  V30 11940 H 1142.2 1.13102 -3.02337 0
M  V30 11941 H 1141.25 -1.21834 -3.60362 0
M  V30 11942 H 1142.57 -1.38817 -4.79094 0
M  V30 11943 H 1141.72 0.611577 -6.0361 0
M  V30 11944 H 1140.46 0.873009 -4.79823 0
M  V30 11945 H 1139.46 -1.37101 -5.32432 0
M  V30 11946 H 1140.69 -1.621 -6.5947 0
M  V30 11947 H 1138.64 0.622102 -6.53044 0
M  V30 11948 H 1138.55 -0.800046 -7.51755 0
M  V30 11949 H 1139.82 0.358251 -7.78676 0
M  V30 11950 N 1144.05 1.41491 -0.694123 0
M  V30 11951 C 1144.98 2.28189 0.0226347 0
M  V30 11952 C 1145.96 1.42152 0.7894 0
M  V30 11953 O 1147.14 1.71581 0.780519 0
M  V30 11954 C 1144.27 3.22357 1.03942 0
M  V30 11955 C 1143.32 4.24927 0.365994 0
M  V30 11956 S 1144.15 5.28043 -0.890562 0
M  V30 11957 C 1145.31 6.25776 0.124665 0
M  V30 11958 H 1145.54 2.88631 -0.712698 0
M  V30 11959 H 1143.07 1.46607 -0.484344 0
M  V30 11960 H 1145.03 3.77143 1.62091 0
M  V30 11961 H 1143.69 2.61013 1.74732 0
M  V30 11962 H 1142.88 4.9108 1.13388 0
M  V30 11963 H 1142.49 3.73729 -0.142389 0
M  V30 11964 H 1144.78 6.70398 0.978393 0
M  V30 11965 H 1145.72 7.06312 -0.502901 0
M  V30 11966 H 1146.13 5.62466 0.478792 0
M  V30 11967 N 1145.53 0.438773 1.51369 0
M  V30 11968 C 1146.76 -0.125665 2.06217 0
M  V30 11969 C 1147.17 -1.36887 1.30609 0
M  V30 11970 O 1146.51 -1.80149 0.359433 0
M  V30 11971 C 1146.57 -0.511846 3.55838 0
M  V30 11972 C 1146.23 0.624755 4.52709 0
M  V30 11973 C 1147.23 1.49731 4.97872 0
M  V30 11974 C 1144.92 0.805895 4.95793 0
M  V30 11975 C 1146.91 2.53569 5.84792 0
M  V30 11976 C 1144.6 1.84755 5.82502 0
M  V30 11977 C 1145.6 2.71083 6.269 0
M  V30 11978 O 1145.28 3.7346 7.11887 0
M  V30 11979 H 1145.02 -0.0107227 0.675915 0
M  V30 11980 H 1147.57 0.617071 1.95912 0
M  V30 11981 H 1145.8 -1.30731 3.63932 0
M  V30 11982 H 1147.49 -1.0076 3.93195 0
M  V30 11983 H 1148.25 1.36891 4.65281 0
M  V30 11984 H 1144.13 0.14352 4.60777 0
M  V30 11985 H 1147.68 3.20984 6.19367 0
M  V30 11986 H 1143.57 1.97614 6.14507 0
M  V30 11987 H 1144.34 3.70058 7.30068 0
M  V30 11988 N 1147.01 -1.56678 0.170181 0
M  V30 11989 C 1147.97 -2.16698 -0.746622 0
M  V30 11990 C 1148.97 -1.11475 -1.15888 0
M  V30 11991 O 1150.16 -1.36994 -1.07602 0
M  V30 11992 C 1147.29 -2.74892 -2.01612 0
M  V30 11993 H 1148.48 -2.99061 -0.224135 0
M  V30 11994 H 1146.04 -1.56098 -0.0793761 0
M  V30 11995 H 1146.77 -1.96259 -2.58172 0
M  V30 11996 H 1146.56 -3.51896 -1.72949 0
M  V30 11997 H 1148.05 -3.21058 -2.67042 0
M  V30 11998 N 1148.48 0.103547 -1.57259 0
M  V30 11999 C 1149.73 0.809774 -1.85931 0
M  V30 12000 C 1150.06 1.78791 -0.758122 0
M  V30 12001 O 1149.34 1.93079 0.234682 0
M  V30 12002 C 1149.62 1.54601 -3.25224 0
M  V30 12003 C 1149.47 0.586439 -4.45961 0
M  V30 12004 C 1150.79 2.4986 -3.62296 0
M  V30 12005 H 1147.91 0.29293 -0.676285 0
M  V30 12006 H 1150.55 0.0736065 -1.89857 0
M  V30 12007 H 1148.7 2.17355 -3.22008 0
M  V30 12008 H 1150.38 -0.0334441 -4.61288 0
M  V30 12009 H 1148.62 -0.10085 -4.33683 0
M  V30 12010 H 1149.29 1.13855 -5.40131 0
M  V30 12011 H 1151.77 1.97203 -3.66402 0
M  V30 12012 H 1150.64 2.98396 -4.60707 0
M  V30 12013 H 1150.9 3.33233 -2.90531 0
M  V30 12014 N 1149.96 1.53094 0.37415 0
M  V30 12015 C 1150.89 1.81901 1.46404 0
M  V30 12016 C 1151.87 0.671949 1.56265 0
M  V30 12017 O 1153.06 0.920978 1.70973 0
M  V30 12018 C 1150.19 2.00123 2.83845 0
M  V30 12019 C 1149.14 3.15864 2.88814 0
M  V30 12020 C 1148.47 3.19364 4.28848 0
M  V30 12021 C 1149.77 4.54633 2.57112 0
M  V30 12022 H 1151.46 2.73172 1.22546 0
M  V30 12023 H 1149.01 1.31444 0.588087 0
M  V30 12024 H 1150.96 2.18859 3.6011 0
M  V30 12025 H 1149.68 1.05555 3.09072 0
M  V30 12026 H 1148.34 2.96935 2.15 0
M  V30 12027 H 1147.99 2.2245 4.51137 0
M  V30 12028 H 1147.69 3.97123 4.3309 0
M  V30 12029 H 1149.22 3.40273 5.06997 0
M  V30 12030 H 1150.63 4.73587 3.23091 0
M  V30 12031 H 1149.03 5.34569 2.72683 0
M  V30 12032 H 1150.1 4.60331 1.52392 0
M  V30 12033 N 1151.44 -0.633461 1.44309 0
M  V30 12034 C 1152.85 -1.21504 1.41752 0
M  V30 12035 C 1153.2 -1.95758 0.131667 0
M  V30 12036 O 1152.33 -2.02311 -0.768072 0
M  V30 12037 C 1152.92 -2.21005 2.56792 0
M  V30 12038 C 1151.48 -2.74596 2.57438 0
M  V30 12039 C 1150.63 -1.49555 2.33513 0
M  V30 12040 H 1153.58 -0.424277 1.52923 0
M  V30 12041 H 1153.6 -3.03563 2.29412 0
M  V30 12042 H 1153.11 -1.66934 3.50364 0
M  V30 12043 H 1151.21 -3.32676 1.67801 0
M  V30 12044 H 1151.33 -3.20794 3.55849 0
M  V30 12045 H 1149.69 -1.77605 1.82561 0
M  V30 12046 H 1150.47 -0.973899 3.29196 0
M  V30 12047 N 1152.92 -1.31168 -0.873655 0
M  V30 12048 C 1154.16 -1.21938 -1.64044 0
M  V30 12049 C 1154.52 0.219903 -1.90737 0
M  V30 12050 O 1155.72 0.435635 -2.65246 0
M  V30 12051 C 1153.99 -2.03633 -2.93715 0
M  V30 12052 S 1155.55 -2.11224 -3.84616 0
M  V30 12053 H 1152.37 -0.43436 -0.562896 0
M  V30 12054 H 1154.97 -1.65786 -1.03612 0
M  V30 12055 H 1153.68 -3.07298 -2.72022 0
M  V30 12056 H 1153.21 -1.6049 -3.59175 0
M  V30 12057 H 1155.22 -1.24787 -4.80253 0
M  V30 12058 N 1154.4 1.08748 -1.14068 0
M  V30 12059 C 1155.64 1.80707 -0.904947 0
M  V30 12060 C 1155.97 1.86478 0.570167 0
M  V30 12061 O 1155.24 1.35536 1.41445 0
M  V30 12062 H 1153.82 0.669261 -0.331811 0
M  V30 12063 H 1156.48 1.31494 -1.43859 0
M  V30 12064 H 1155.57 2.83653 -1.30182 0
M  V30 12065 N 1155.87 0.935264 1.26849 0
M  V30 12066 C 1157.12 0.578545 1.93642 0
M  V30 12067 C 1157.44 -0.884296 1.73796 0
M  V30 12068 O 1156.71 -1.62768 1.09011 0
M  V30 12069 H 1155.29 0.210976 0.716588 0
M  V30 12070 H 1157.96 1.1893 1.54407 0
M  V30 12071 H 1157.05 0.791268 3.01903 0
M  V30 12072 N 1157.35 -1.41121 0.701616 0
M  V30 12073 C 1158.6 -2.00359 0.232214 0
M  V30 12074 C 1158.91 -1.56231 -1.17691 0
M  V30 12075 O 1160.12 -2.08071 -1.74409 0
M  V30 12076 C 1158.58 -3.58052 0.364257 0
M  V30 12077 C 1158.18 -4.11158 1.77913 0
M  V30 12078 C 1159.93 -4.24476 -0.0450628 0
M  V30 12079 C 1157.84 -5.61306 1.8625 0
M  V30 12080 H 1156.77 -0.749411 0.0830609 0
M  V30 12081 H 1159.42 -1.61528 0.870689 0
M  V30 12082 H 1157.8 -3.94515 -0.342569 0
M  V30 12083 H 1158.97 -3.86101 2.5152 0
M  V30 12084 H 1157.29 -3.57282 2.13866 0
M  V30 12085 H 1159.88 -5.347 -0.00329209 0
M  V30 12086 H 1160.23 -4.01919 -1.08477 0
M  V30 12087 H 1160.76 -3.93069 0.611704 0
M  V30 12088 H 1157.5 -5.88699 2.88294 0
M  V30 12089 H 1157.02 -5.88271 1.17036 0
M  V30 12090 H 1158.7 -6.26179 1.62817 0
M  V30 12091 N 1158.83 -0.446794 -1.51134 0
M  V30 12092 C 1160.08 0.116263 -2.01765 0
M  V30 12093 C 1160.4 1.42382 -1.33238 0
M  V30 12094 O 1159.67 1.9018 -0.469915 0
M  V30 12095 H 1158.25 0.0459558 -0.745585 0
M  V30 12096 H 1160.91 -0.591664 -1.85702 0
M  V30 12097 H 1160.01 0.285358 -3.10793 0
M  V30 12098 N 1160.31 1.56586 -0.178487 0
M  V30 12099 C 1161.55 1.9739 0.465306 0
M  V30 12100 C 1161.89 1.06474 1.6241 0
M  V30 12101 O 1161.16 0.113316 1.9417 0
M  V30 12102 C 1161.45 3.47577 0.941408 0
M  V30 12103 C 1161.3 4.49271 -0.218054 0
M  V30 12104 C 1162.62 4.01038 1.81263 0
M  V30 12105 H 1159.74 0.717676 0.167663 0
M  V30 12106 H 1162.38 1.88128 -0.266067 0
M  V30 12107 H 1160.53 3.556 1.56463 0
M  V30 12108 H 1162.2 4.53301 -0.855332 0
M  V30 12109 H 1160.44 4.24936 -0.872441 0
M  V30 12110 H 1161.11 5.51776 0.157315 0
M  V30 12111 H 1163.59 3.9569 1.28718 0
M  V30 12112 H 1162.47 5.06526 2.11476 0
M  V30 12113 H 1162.73 3.45288 2.76096 0
M  V30 12114 N 1161.79 -0.095206 1.57312 0
M  V30 12115 C 1163.06 -0.830388 1.77099 0
M  V30 12116 C 1163.44 -1.9694 0.760121 0
M  V30 12117 O 1162.79 -2.2752 -0.211403 0
M  V30 12118 C 1163 -1.32507 3.22867 0
M  V30 12119 C 1164.35 -1.7679 3.86045 0
M  V30 12120 O 1165.37 -1.42131 3.26615 0
M  V30 12121 O 1164.23 -2.40876 4.90552 0
M  V30 12122 H 1161.33 -0.396083 0.72598 0
M  V30 12123 H 1163.87 -0.0770965 1.69525 0
M  V30 12124 H 1162.64 -0.508992 3.87975 0
M  V30 12125 H 1162.27 -2.14037 3.35073 0
M  V30 12126 N 1163.26 -1.53291 -0.366026 0
M  V30 12127 C 1164.49 -1.73665 -1.13381 0
M  V30 12128 C 1164.91 -0.464284 -1.8228 0
M  V30 12129 O 1164.27 0.581645 -1.71717 0
M  V30 12130 C 1164.32 -2.90225 -2.14013 0
M  V30 12131 O 1163.42 -2.58803 -3.21084 0
M  V30 12132 H 1162.77 -0.576762 -0.329 0
M  V30 12133 H 1165.3 -2.00174 -0.423287 0
M  V30 12134 H 1165.31 -3.16378 -2.57622 0
M  V30 12135 H 1163.98 -3.82518 -1.63257 0
M  V30 12136 H 1162.56 -2.43466 -2.82451 0
M  V30 12137 N 1164.74 0.6258 -1.44643 0
M  V30 12138 C 1166.02 1.38439 -1.38181 0
M  V30 12139 C 1166.4 2.11056 -0.0431928 0
M  V30 12140 O 1165.75 2.06683 0.974383 0
M  V30 12141 C 1165.96 2.34639 -2.58352 0
M  V30 12142 C 1167.31 2.97807 -3.02649 0
M  V30 12143 O 1168.33 2.44963 -2.58595 0
M  V30 12144 O 1167.19 3.93682 -3.79048 0
M  V30 12145 H 1164.28 0.619852 -0.54746 0
M  V30 12146 H 1166.83 0.650409 -1.56741 0
M  V30 12147 H 1165.6 1.80116 -3.47382 0
M  V30 12148 H 1165.22 3.15446 -2.42032 0
M  V30 12149 N 1166.22 1.31629 0.866686 0
M  V30 12150 C 1167.45 1.24474 1.65269 0
M  V30 12151 C 1167.86 -0.18939 1.87848 0
M  V30 12152 O 1167.22 -1.12251 1.43895 0
M  V30 12153 C 1167.27 1.98872 3.01881 0
M  V30 12154 O 1166.99 3.36687 2.8031 0
M  V30 12155 C 1168.49 1.98595 3.96327 0
M  V30 12156 H 1165.71 0.429966 0.515141 0
M  V30 12157 H 1168.26 1.73559 1.08156 0
M  V30 12158 H 1166.41 1.53539 3.55675 0
M  V30 12159 H 1166.83 3.74612 3.67105 0
M  V30 12160 H 1168.3 2.55156 4.89489 0
M  V30 12161 H 1168.78 0.969257 4.28371 0
M  V30 12162 H 1169.38 2.43821 3.4847 0
M  V30 12163 N 1167.7 -1.08142 1.14644 0
M  V30 12164 C 1168.95 -1.80849 0.917685 0
M  V30 12165 C 1169.28 -1.86123 -0.554249 0
M  V30 12166 O 1168.55 -1.33907 -1.41065 0
M  V30 12167 C 1168.84 -3.26325 1.52264 0
M  V30 12168 C 1168.69 -3.29244 3.06461 0
M  V30 12169 C 1170.01 -4.23375 1.20175 0
M  V30 12170 H 1167.13 -0.656559 0.334812 0
M  V30 12171 H 1169.77 -1.26595 1.41682 0
M  V30 12172 H 1167.92 -3.72656 1.09817 0
M  V30 12173 H 1169.59 -2.91216 3.57758 0
M  V30 12174 H 1167.83 -2.68438 3.40769 0
M  V30 12175 H 1168.51 -4.31785 3.43897 0
M  V30 12176 H 1170.98 -3.85394 1.56877 0
M  V30 12177 H 1169.86 -5.23472 1.65132 0
M  V30 12178 H 1170.12 -4.41944 0.117474 0
M  V30 12179 N 1169.18 -0.941978 -1.26351 0
M  V30 12180 C 1170.42 -0.600372 -1.94338 0
M  V30 12181 C 1170.78 0.851343 -1.7254 0
M  V30 12182 O 1170.07 1.60116 -1.0523 0
M  V30 12183 C 1170.27 -0.879481 -3.4641 0
M  V30 12184 C 1170.09 -2.35678 -3.82996 0
M  V30 12185 C 1168.86 -3.01208 -4.05712 0
M  V30 12186 C 1171.06 -3.33531 -3.91486 0
M  V30 12187 N 1169.04 -4.38942 -4.29189 0
M  V30 12188 C 1170.42 -4.56525 -4.19506 0
M  V30 12189 C 1172.47 -3.28544 -3.74117 0
M  V30 12190 C 1171.17 -5.75153 -4.31962 0
M  V30 12191 C 1173.2 -4.46498 -3.87806 0
M  V30 12192 C 1172.56 -5.68275 -4.16225 0
M  V30 12193 H 1168.66 -0.270078 -0.733881 0
M  V30 12194 H 1171.24 -1.21155 -1.52413 0
M  V30 12195 H 1169.42 -0.297345 -3.8726 0
M  V30 12196 H 1171.15 -0.499062 -4.01611 0
M  V30 12197 H 1167.9 -2.51823 -4.01101 0
M  V30 12198 H 1168.33 -5.10236 -4.44959 0
M  V30 12199 H 1172.97 -2.35451 -3.51173 0
M  V30 12200 H 1170.69 -6.68699 -4.53727 0
M  V30 12201 H 1174.27 -4.44173 -3.75768 0
M  V30 12202 H 1173.15 -6.58024 -4.26584 0
M  V30 12203 N 1170.66 1.40747 -0.709091 0
M  V30 12204 C 1171.6 2.32564 -0.0411392 0
M  V30 12205 C 1172.6 1.51692 0.75404 0
M  V30 12206 O 1173.8 1.67537 0.658139 0
M  V30 12207 H 1170.18 0.75198 0.00549889 0
M  V30 12208 H 1172.15 2.86556 -0.83235 0
M  V30 12209 C 1170.9 3.36604 0.871378 0
M  V30 12210 H 1170.22 3.98895 0.268912 0
M  V30 12211 H 1171.66 4.03359 1.30682 0
M  V30 12212 C 1170.12 2.71566 1.99384 0
M  V30 12213 O 1170.65 2.57392 3.08403 0
M  V30 12214 N 1168.86 2.3005 1.77554 0
M  V30 12215 H 1168.4 2.41778 0.888898 0
M  V30 12216 H 1168.36 1.8687 2.52838 0
M  V30 12217 N 1172.13 0.454803 1.50895 0
M  V30 12218 C 1173.04 -0.353495 2.31921 0
M  V30 12219 C 1174.06 -1.01136 1.41589 0
M  V30 12220 O 1175.24 -1.00291 1.74653 0
M  V30 12221 C 1172.3 -1.43032 3.15821 0
M  V30 12222 C 1171.36 -0.790763 4.21954 0
M  V30 12223 C 1170.59 -1.81628 5.01843 0
M  V30 12224 O 1170.82 -3.04078 4.8259 0
M  V30 12225 O 1169.75 -1.39713 5.8546 0
M  V30 12226 H 1173.58 0.308463 3.02129 0
M  V30 12227 H 1171.16 0.216971 1.47816 0
M  V30 12228 H 1173.04 -2.05444 3.67927 0
M  V30 12229 H 1171.72 -2.07605 2.48358 0
M  V30 12230 H 1170.63 -0.128127 3.73881 0
M  V30 12231 H 1171.96 -0.188251 4.9184 0
M  V30 12232 N 1173.61 -1.56489 0.186789 0
M  V30 12233 C 1174.54 -2.14583 -0.776487 0
M  V30 12234 C 1175.52 -1.0802 -1.21534 0
M  V30 12235 O 1176.71 -1.36085 -1.30434 0
M  V30 12236 C 1173.83 -2.69798 -2.04761 0
M  V30 12237 C 1172.88 -3.88874 -1.75155 0
M  V30 12238 S 1173.71 -5.27763 -0.907026 0
M  V30 12239 C 1174.87 -5.86393 -2.18847 0
M  V30 12240 H 1175.1 -2.95954 -0.282602 0
M  V30 12241 H 1172.63 -1.54374 -0.0280989 0
M  V30 12242 H 1174.59 -3.02254 -2.77764 0
M  V30 12243 H 1173.25 -1.88484 -2.51262 0
M  V30 12244 H 1172.45 -4.25888 -2.69509 0
M  V30 12245 H 1172.05 -3.57384 -1.10239 0
M  V30 12246 H 1174.34 -6.00249 -3.14177 0
M  V30 12247 H 1175.28 -6.83159 -1.86278 0
M  V30 12248 H 1175.69 -5.14931 -2.31314 0
M  V30 12249 N 1175.09 0.086862 -1.5736 0
M  V30 12250 C 1176.04 1.11134 -1.99081 0
M  V30 12251 C 1177.02 1.35318 -0.870506 0
M  V30 12252 O 1178.22 1.35871 -1.13437 0
M  V30 12253 C 1175.34 2.42931 -2.42569 0
M  V30 12254 C 1174.43 2.22085 -3.61302 0
M  V30 12255 N 1174.82 1.71128 -4.75971 0
M  V30 12256 C 1173.12 2.52619 -3.67559 0
M  V30 12257 C 1173.82 1.64745 -5.57883 0
M  V30 12258 N 1172.8 2.10257 -5.01291 0
M  V30 12259 H 1176.6 0.710431 -2.85184 0
M  V30 12260 H 1174.11 0.294168 -1.59714 0
M  V30 12261 H 1176.11 3.17069 -2.7069 0
M  V30 12262 H 1174.77 2.83751 -1.57846 0
M  V30 12263 H 1175.78 1.40207 -4.9856 0
M  V30 12264 H 1172.46 2.96908 -2.93516 0
M  V30 12265 H 1173.85 1.26329 -6.59917 0
M  V30 12266 N 1176.57 1.53483 0.357892 0
M  V30 12267 C 1177.79 1.74264 1.12458 0
M  V30 12268 C 1178.22 0.473944 1.82031 0
M  V30 12269 O 1177.58 -0.57253 1.72023 0
M  V30 12270 C 1177.62 2.91356 2.12471 0
M  V30 12271 O 1176.73 2.60502 3.19707 0
M  V30 12272 H 1176.07 0.578499 0.325937 0
M  V30 12273 H 1178.6 2.00395 0.412666 0
M  V30 12274 H 1178.61 3.1774 2.5594 0
M  V30 12275 H 1177.28 3.83378 1.61226 0
M  V30 12276 H 1175.86 2.44961 2.81156 0
M  V30 12277 N 1178.05 -0.61812 1.44973 0
M  V30 12278 C 1179.27 -1.40921 1.52171 0
M  V30 12279 C 1179.7 -1.87487 0.151755 0
M  V30 12280 O 1179.05 -1.59518 -0.861606 0
M  V30 12281 C 1179.1 -2.59689 2.50188 0
M  V30 12282 O 1178.21 -3.59967 2.0124 0
M  V30 12283 H 1177.55 -0.421138 0.51336 0
M  V30 12284 H 1180.08 -0.753258 1.90229 0
M  V30 12285 H 1180.09 -3.07069 2.6865 0
M  V30 12286 H 1178.76 -2.25144 3.4969 0
M  V30 12287 H 1177.34 -3.19308 1.92605 0
M  V30 12288 N 1179.52 -1.32087 -0.859693 0
M  V30 12289 C 1180.75 -1.25486 -1.6513 0
M  V30 12290 C 1181.17 0.175015 -1.87284 0
M  V30 12291 O 1180.53 1.12468 -1.42199 0
M  V30 12292 C 1180.58 -2.01469 -2.9907 0
M  V30 12293 O 1179.68 -1.35904 -3.89363 0
M  V30 12294 H 1179.02 -0.432728 -0.503629 0
M  V30 12295 H 1181.55 -1.74322 -1.07112 0
M  V30 12296 H 1181.56 -2.11452 -3.4893 0
M  V30 12297 H 1180.24 -3.05448 -2.82266 0
M  V30 12298 H 1178.82 -1.34437 -3.47823 0
M  V30 12299 N 1181 1.07532 -1.15215 0
M  V30 12300 C 1181.96 2.1286 -0.84989 0
M  V30 12301 C 1182.96 1.60103 0.149524 0
M  V30 12302 O 1184.15 1.74017 -0.0798918 0
M  V30 12303 C 1181.29 3.3984 -0.268617 0
M  V30 12304 H 1182.48 2.41106 -1.78347 0
M  V30 12305 H 1180.03 1.23392 -0.959386 0
M  V30 12306 H 1180.77 3.17235 0.67325 0
M  V30 12307 H 1180.55 3.79433 -0.988592 0
M  V30 12308 H 1182.04 4.17533 -0.0746554 0
M  V30 12309 N 1182.48 0.948665 1.2585 0
M  V30 12310 C 1183.73 0.601125 1.93686 0
M  V30 12311 C 1184.06 -0.858779 1.7418 0
M  V30 12312 O 1183.33 -1.61539 1.0833 0
M  V30 12313 C 1183.62 0.95333 3.47252 0
M  V30 12314 C 1183.47 2.46853 3.7601 0
M  V30 12315 C 1184.79 0.474098 4.37539 0
M  V30 12316 H 1181.91 0.219864 0.703441 0
M  V30 12317 H 1184.55 1.18424 1.48579 0
M  V30 12318 H 1182.7 0.457114 3.85801 0
M  V30 12319 H 1184.37 3.03804 3.47132 0
M  V30 12320 H 1182.62 2.9088 3.21825 0
M  V30 12321 H 1183.29 2.66547 4.83381 0
M  V30 12322 H 1185.76 0.899664 4.06258 0
M  V30 12323 H 1184.64 0.749287 5.43762 0
M  V30 12324 H 1184.9 -0.625961 4.37646 0
M  V30 12325 N 1183.96 -1.40369 0.716545 0
M  V30 12326 C 1185.37 -1.54757 0.390202 0
M  V30 12327 C 1185.57 -1.68767 -1.10091 0
M  V30 12328 O 1184.63 -1.67779 -1.88697 0
M  V30 12329 C 1185.94 -2.77546 1.15709 0
M  V30 12330 C 1187.49 -2.91364 1.14349 0
M  V30 12331 C 1187.97 -4.17068 1.89256 0
M  V30 12332 N 1189.46 -4.2407 1.8633 0
M  V30 12333 C 1190.19 -5.20243 2.41112 0
M  V30 12334 N 1189.69 -6.22318 3.04454 0
M  V30 12335 N 1191.48 -5.12328 2.31249 0
M  V30 12336 H 1183.63 -1.29521 1.68339 0
M  V30 12337 H 1185.9 -0.626382 0.711582 0
M  V30 12338 H 1185.6 -2.73474 2.21144 0
M  V30 12339 H 1185.48 -3.69682 0.749347 0
M  V30 12340 H 1187.86 -2.94939 0.0973383 0
M  V30 12341 H 1187.94 -2.00344 1.59047 0
M  V30 12342 H 1187.59 -4.14255 2.93863 0
M  V30 12343 H 1187.52 -5.07099 1.41978 0
M  V30 12344 H 1190.01 -3.50944 1.40168 0
M  V30 12345 H 1190.32 -6.92129 3.43769 0
M  V30 12346 H 1188.67 -6.22759 3.08538 0
M  V30 12347 H 1191.86 -4.31514 1.8142 0
M  V30 12348 H 1192.03 -5.87107 2.74243 0
M  V30 12349 N 1185.44 -0.462799 -1.50652 0
M  V30 12350 C 1186.37 0.381469 -2.24989 0
M  V30 12351 C 1187.35 1.00328 -1.27957 0
M  V30 12352 O 1188.53 1.04082 -1.5716 0
M  V30 12353 C 1185.66 1.53378 -3.01981 0
M  V30 12354 C 1184.7 1.03017 -4.13872 0
M  V30 12355 S 1185.54 -0.048447 -5.35478 0
M  V30 12356 C 1186.69 1.10794 -6.16016 0
M  V30 12357 H 1186.93 -0.249578 -2.96251 0
M  V30 12358 H 1184.46 -0.247583 -1.52402 0
M  V30 12359 H 1186.42 2.19425 -3.46934 0
M  V30 12360 H 1185.08 2.13632 -2.30261 0
M  V30 12361 H 1184.27 1.8926 -4.67115 0
M  V30 12362 H 1183.87 0.447548 -3.71313 0
M  V30 12363 H 1186.17 2.02125 -6.46646 0
M  V30 12364 H 1187.11 0.614937 -7.05425 0
M  V30 12365 H 1187.52 1.35802 -5.47922 0
M  V30 12366 N 1186.91 1.56388 -0.195085 0
M  V30 12367 C 1187.88 2.17859 0.712053 0
M  V30 12368 C 1188.88 1.13304 1.141 0
M  V30 12369 O 1190.07 1.38689 1.05409 0
M  V30 12370 C 1187.2 2.78065 1.97213 0
M  V30 12371 H 1188.39 2.9938 0.176529 0
M  V30 12372 H 1185.95 1.56205 0.0545322 0
M  V30 12373 H 1186.68 2.00342 2.55017 0
M  V30 12374 H 1186.47 3.54603 1.67329 0
M  V30 12375 H 1187.96 3.25266 2.619 0
M  V30 12376 N 1188.39 -0.0785156 1.57404 0
M  V30 12377 C 1189.64 -0.780092 1.87196 0
M  V30 12378 C 1189.97 -1.77562 0.78647 0
M  V30 12379 O 1189.25 -1.93428 -0.203935 0
M  V30 12380 C 1189.53 -1.49408 3.27642 0
M  V30 12381 C 1189.38 -0.515416 4.46837 0
M  V30 12382 C 1190.7 -2.44064 3.66225 0
M  V30 12383 H 1187.82 -0.282134 0.680859 0
M  V30 12384 H 1190.46 -0.0433926 1.8995 0
M  V30 12385 H 1188.61 -2.12205 3.25425 0
M  V30 12386 H 1190.28 0.106827 4.61176 0
M  V30 12387 H 1188.53 0.169832 4.33467 0
M  V30 12388 H 1189.2 -1.05247 5.41874 0
M  V30 12389 H 1191.67 -1.91349 3.69493 0
M  V30 12390 H 1190.55 -2.91029 4.65396 0
M  V30 12391 H 1190.81 -3.28569 2.95796 0
M  V30 12392 N 1189.87 -1.5367 -0.349747 0
M  V30 12393 C 1191.12 -1.70281 -1.08853 0
M  V30 12394 C 1191.44 -0.465438 -1.89364 0
M  V30 12395 O 1190.71 0.520615 -1.88856 0
M  V30 12396 H 1189.29 -0.627775 -0.404854 0
M  V30 12397 H 1191.95 -1.90906 -0.392523 0
M  V30 12398 H 1191.05 -2.57096 -1.76941 0
M  V30 12399 N 1191.35 0.610423 -1.45298 0
M  V30 12400 C 1192.59 1.38085 -1.50705 0
M  V30 12401 C 1192.95 1.91459 -0.143997 0
M  V30 12402 O 1194.15 2.68702 -0.0727521 0
M  V30 12403 C 1192.42 2.50009 -2.55402 0
M  V30 12404 S 1193.98 3.37844 -2.80012 0
M  V30 12405 H 1190.8 0.470812 -0.532783 0
M  V30 12406 H 1193.4 0.704638 -1.8236 0
M  V30 12407 H 1192.11 2.09143 -3.53111 0
M  V30 12408 H 1191.64 3.22434 -2.25388 0
M  V30 12409 H 1193.65 4.48074 -2.13176 0
M  V30 12410 N 1192.83 1.32541 0.852676 0
M  V30 12411 C 1193.76 1.24254 1.97694 0
M  V30 12412 C 1194.74 0.125971 1.69633 0
M  V30 12413 O 1195.92 0.31347 1.91653 0
M  V30 12414 C 1193.05 0.966874 3.3357 0
M  V30 12415 C 1192.01 2.0449 3.75989 0
M  V30 12416 C 1191.33 1.6216 5.09518 0
M  V30 12417 C 1192.63 3.46013 3.91244 0
M  V30 12418 H 1194.33 2.18317 2.04886 0
M  V30 12419 H 1191.87 1.05101 0.984371 0
M  V30 12420 H 1193.83 0.895444 4.11776 0
M  V30 12421 H 1192.55 -0.0093893 3.26599 0
M  V30 12422 H 1191.21 2.10651 3.00036 0
M  V30 12423 H 1190.86 0.632729 4.99005 0
M  V30 12424 H 1190.56 2.3429 5.38871 0
M  V30 12425 H 1192.08 1.56457 5.90215 0
M  V30 12426 H 1193.49 3.4243 4.59799 0
M  V30 12427 H 1191.89 4.1651 4.32017 0
M  V30 12428 H 1192.96 3.8553 2.941 0
M  V30 12429 N 1194.3 -1.0692 1.15784 0
M  V30 12430 C 1195.23 -2.16216 0.881649 0
M  V30 12431 C 1196.22 -1.69253 -0.16951 0
M  V30 12432 O 1197.4 -1.94186 -0.0229511 0
M  V30 12433 C 1194.53 -3.4527 0.374982 0
M  V30 12434 C 1193.48 -4.05706 1.36332 0
M  V30 12435 C 1192.81 -5.29894 0.715317 0
M  V30 12436 C 1194.11 -4.45224 2.7308 0
M  V30 12437 H 1195.8 -2.39577 1.79563 0
M  V30 12438 H 1193.35 -1.15141 0.864784 0
M  V30 12439 H 1195.3 -4.2106 0.169279 0
M  V30 12440 H 1194.03 -3.21508 -0.574485 0
M  V30 12441 H 1192.69 -3.31965 1.55546 0
M  V30 12442 H 1192.33 -5.02425 -0.240436 0
M  V30 12443 H 1192.03 -5.71287 1.37494 0
M  V30 12444 H 1193.56 -6.08386 0.519489 0
M  V30 12445 H 1194.97 -5.12124 2.57686 0
M  V30 12446 H 1193.37 -4.97583 3.35457 0
M  V30 12447 H 1194.44 -3.56384 3.28813 0
M  V30 12448 N 1195.78 -0.955326 -1.25345 0
M  V30 12449 C 1196.69 -0.482707 -2.2958 0
M  V30 12450 C 1197.71 0.450283 -1.68073 0
M  V30 12451 O 1198.88 0.326358 -1.98738 0
M  V30 12452 C 1195.95 0.231293 -3.45928 0
M  V30 12453 C 1195.01 -0.739995 -4.22874 0
M  V30 12454 C 1194.24 -0.0599748 -5.33666 0
M  V30 12455 O 1194.47 1.15423 -5.586 0
M  V30 12456 O 1193.4 -0.745865 -5.97261 0
M  V30 12457 H 1197.23 -1.34892 -2.72099 0
M  V30 12458 H 1194.81 -0.721812 -1.30806 0
M  V30 12459 H 1196.69 0.632908 -4.1662 0
M  V30 12460 H 1195.37 1.07267 -3.0541 0
M  V30 12461 H 1194.28 -1.19183 -3.54607 0
M  V30 12462 H 1195.61 -1.54941 -4.67177 0
M  V30 12463 N 1197.26 1.39987 -0.723979 0
M  V30 12464 C 1198.19 2.3332 -0.0917282 0
M  V30 12465 C 1199.17 1.53335 0.736361 0
M  V30 12466 O 1200.36 1.81771 0.683582 0
M  V30 12467 C 1197.49 3.3737 0.824549 0
M  V30 12468 C 1196.44 4.2788 0.101452 0
M  V30 12469 C 1195.77 5.22536 1.13401 0
M  V30 12470 C 1197.07 5.11649 -1.04939 0
M  V30 12471 H 1198.76 2.86441 -0.871318 0
M  V30 12472 H 1196.31 1.37725 -0.420448 0
M  V30 12473 H 1198.26 4.01607 1.27631 0
M  V30 12474 H 1196.98 2.82663 1.63613 0
M  V30 12475 H 1195.64 3.65107 -0.330569 0
M  V30 12476 H 1195.29 4.64131 1.93886 0
M  V30 12477 H 1194.99 5.83938 0.65502 0
M  V30 12478 H 1196.52 5.89651 1.58569 0
M  V30 12479 H 1197.93 5.69293 -0.6766 0
M  V30 12480 H 1196.33 5.82137 -1.45729 0
M  V30 12481 H 1197.4 4.47132 -1.8762 0
M  V30 12482 N 1198.74 0.470782 1.50404 0
M  V30 12483 C 1199.7 -0.312227 2.27063 0
M  V30 12484 C 1200.7 -0.920709 1.31832 0
M  V30 12485 O 1201.89 -0.789937 1.5526 0
M  V30 12486 C 1199.02 -1.44477 3.0877 0
M  V30 12487 H 1200.22 0.36006 2.97731 0
M  V30 12488 H 1197.77 0.224837 1.54674 0
M  V30 12489 H 1198.51 -2.15212 2.42599 0
M  V30 12490 H 1198.29 -1.01426 3.78755 0
M  V30 12491 H 1199.78 -1.99713 3.66749 0
M  V30 12492 N 1200.22 -1.56282 0.203376 0
M  V30 12493 C 1201.46 -1.97812 -0.433202 0
M  V30 12494 C 1201.79 -1.09052 -1.61053 0
M  V30 12495 O 1201.05 -0.131417 -1.95258 0
M  V30 12496 C 1201.35 -3.45148 -0.927759 0
M  V30 12497 C 1201.01 -4.50692 0.137083 0
M  V30 12498 C 1199.67 -4.79278 0.429652 0
M  V30 12499 C 1202.03 -5.14086 0.858174 0
M  V30 12500 C 1199.35 -5.68547 1.44815 0
M  V30 12501 C 1201.71 -6.04457 1.86588 0
M  V30 12502 C 1200.37 -6.31395 2.16556 0
M  V30 12503 H 1199.64 -0.723846 -0.15852 0
M  V30 12504 H 1202.29 -1.89102 0.302082 0
M  V30 12505 H 1200.59 -3.5097 -1.74147 0
M  V30 12506 H 1202.29 -3.74642 -1.42984 0
M  V30 12507 H 1198.88 -4.28481 -0.101111 0
M  V30 12508 H 1203.06 -4.92086 0.645376 0
M  V30 12509 H 1198.32 -5.87689 1.68615 0
M  V30 12510 H 1202.49 -6.52636 2.4298 0
M  V30 12511 H 1200.12 -7.00366 2.9562 0
M  V30 12512 N 1201.7 0.070167 -1.57444 0
M  V30 12513 C 1202.64 1.08322 -2.03801 0
M  V30 12514 C 1203.61 1.38364 -0.918946 0
M  V30 12515 O 1204.8 1.49404 -1.18672 0
M  V30 12516 C 1201.94 2.39128 -2.48821 0
M  V30 12517 C 1201.05 2.15603 -3.74352 0
M  V30 12518 C 1200.19 3.39984 -4.08148 0
M  V30 12519 C 1199.22 3.1183 -5.26715 0
M  V30 12520 N 1198.36 4.28546 -5.56141 0
M  V30 12521 H 1203.2 0.680931 -2.90116 0
M  V30 12522 H 1200.74 0.324657 -1.43473 0
M  V30 12523 H 1202.7 3.15501 -2.72975 0
M  V30 12524 H 1201.33 2.77157 -1.65481 0
M  V30 12525 H 1200.38 1.29915 -3.57528 0
M  V30 12526 H 1201.69 1.90808 -4.60862 0
M  V30 12527 H 1200.84 4.2475 -4.33211 0
M  V30 12528 H 1199.58 3.67856 -3.20208 0
M  V30 12529 H 1198.59 2.2546 -5.01446 0
M  V30 12530 H 1199.81 2.85278 -6.16273 0
M  V30 12531 H 1197.76 4.56447 -4.71161 0
M  V30 12532 H 1197.68 4.0703 -6.37073 0
M  V30 12533 H 1198.94 5.14305 -5.85757 0
M  V30 12534 N 1203.17 1.53854 0.341593 0
M  V30 12535 C 1204.42 1.71447 1.08322 0
M  V30 12536 C 1204.75 0.477289 1.88243 0
M  V30 12537 O 1204.03 -0.525695 1.87261 0
M  V30 12538 C 1204.31 2.97917 2.02281 0
M  V30 12539 C 1204.16 4.31847 1.25809 0
M  V30 12540 C 1205.48 3.20065 3.0207 0
M  V30 12541 H 1202.6 0.623847 0.392408 0
M  V30 12542 H 1205.24 1.86527 0.361594 0
M  V30 12543 H 1203.39 2.85191 2.63815 0
M  V30 12544 H 1205.07 4.56427 0.668737 0
M  V30 12545 H 1203.31 4.30169 0.560119 0
M  V30 12546 H 1203.98 5.16522 1.94704 0
M  V30 12547 H 1206.46 3.32135 2.50651 0
M  V30 12548 H 1205.33 4.09947 3.65013 0
M  V30 12549 H 1205.59 2.36452 3.73554 0
M  V30 12550 N 1204.65 -0.602709 1.4562 0
M  V30 12551 C 1205.61 -1.69508 1.54271 0
M  V30 12552 C 1206.61 -1.55171 0.421727 0
M  V30 12553 O 1207.8 -1.60151 0.685375 0
M  V30 12554 C 1204.94 -3.0881 1.44392 0
M  V30 12555 H 1206.13 -1.63203 2.51605 0
M  V30 12556 H 1203.68 -0.818857 1.33133 0
M  V30 12557 H 1204.42 -3.20689 0.482614 0
M  V30 12558 H 1204.2 -3.20625 2.25704 0
M  V30 12559 H 1205.69 -3.8837 1.53488 0
M  V30 12560 N 1206.13 -1.32992 -0.845635 0
M  V30 12561 C 1207.09 -1.22607 -1.9365 0
M  V30 12562 C 1208.09 -0.146812 -1.60128 0
M  V30 12563 O 1209.28 -0.397863 -1.69596 0
M  V30 12564 C 1206.41 -0.887677 -3.2914 0
M  V30 12565 H 1207.61 -2.19563 -2.04285 0
M  V30 12566 H 1205.16 -1.16952 -1.03691 0
M  V30 12567 H 1205.9 0.0796777 -3.24202 0
M  V30 12568 H 1205.68 -1.66808 -3.54849 0
M  V30 12569 H 1207.17 -0.83958 -4.09073 0
M  V30 12570 N 1207.61 1.06304 -1.1635 0
M  V30 12571 C 1208.86 1.78747 -0.943074 0
M  V30 12572 C 1209.18 1.87646 0.530483 0
M  V30 12573 O 1208.45 1.38506 1.38538 0
M  V30 12574 H 1207.03 0.662072 -0.345932 0
M  V30 12575 H 1209.69 1.28413 -1.46615 0
M  V30 12576 H 1208.78 2.80828 -1.3617 0
M  V30 12577 N 1209.09 0.96196 1.24836 0
M  V30 12578 C 1210 0.494876 2.29321 0
M  V30 12579 C 1211.01 -0.441363 1.68309 0
M  V30 12580 O 1212.19 -0.315814 1.98908 0
M  V30 12581 C 1209.25 -0.212944 3.46045 0
M  V30 12582 C 1208.31 0.762411 4.22476 0
M  V30 12583 C 1207.55 0.0882756 5.33627 0
M  V30 12584 O 1207.77 -1.12459 5.59204 0
M  V30 12585 O 1206.7 0.777529 5.96857 0
M  V30 12586 H 1210.53 1.36333 2.7138 0
M  V30 12587 H 1208.11 0.728738 1.30421 0
M  V30 12588 H 1210 -0.610805 4.1695 0
M  V30 12589 H 1208.67 -1.05645 3.05975 0
M  V30 12590 H 1207.58 1.21062 3.5397 0
M  V30 12591 H 1208.91 1.57416 4.66349 0
M  V30 12592 N 1210.56 -1.39601 0.731392 0
M  V30 12593 C 1211.49 -2.33268 0.1041 0
M  V30 12594 C 1212.47 -1.53724 -0.728219 0
M  V30 12595 O 1213.66 -1.82131 -0.673933 0
M  V30 12596 C 1210.79 -3.37802 -0.806646 0
M  V30 12597 C 1209.74 -4.27928 -0.0787588 0
M  V30 12598 C 1209.07 -5.23131 -1.10628 0
M  V30 12599 C 1210.37 -5.11086 1.07651 0
M  V30 12600 H 1212.06 -2.85975 0.886496 0
M  V30 12601 H 1209.61 -1.375 0.427746 0
M  V30 12602 H 1211.56 -4.02278 -1.25499 0
M  V30 12603 H 1210.29 -2.83527 -1.62112 0
M  V30 12604 H 1208.95 -3.64926 0.349926 0
M  V30 12605 H 1208.59 -4.65152 -1.91422 0
M  V30 12606 H 1208.29 -5.84277 -0.624043 0
M  V30 12607 H 1209.82 -5.90483 -1.5544 0
M  V30 12608 H 1211.23 -5.68927 0.706781 0
M  V30 12609 H 1209.63 -5.81356 1.48814 0
M  V30 12610 H 1210.7 -4.46131 1.89988 0
M  V30 12611 N 1212.04 -0.478751 -1.50152 0
M  V30 12612 C 1212.99 0.311426 -2.28689 0
M  V30 12613 C 1213.96 0.980375 -1.34082 0
M  V30 12614 O 1215.14 0.991337 -1.63025 0
M  V30 12615 C 1212.28 1.38302 -3.16175 0
M  V30 12616 C 1211.4 0.728084 -4.2582 0
M  V30 12617 C 1210.53 1.77822 -5.00552 0
M  V30 12618 C 1209.57 1.10395 -6.02063 0
M  V30 12619 N 1208.71 2.09728 -6.70044 0
M  V30 12620 H 1213.55 -0.364592 -2.95761 0
M  V30 12621 H 1211.09 -0.191645 -1.45846 0
M  V30 12622 H 1213.04 2.01606 -3.65255 0
M  V30 12623 H 1211.67 2.0281 -2.51133 0
M  V30 12624 H 1210.73 -0.0177026 -3.80396 0
M  V30 12625 H 1212.04 0.196209 -4.98414 0
M  V30 12626 H 1211.19 2.48687 -5.53389 0
M  V30 12627 H 1209.93 2.34392 -4.27682 0
M  V30 12628 H 1208.94 0.38096 -5.48479 0
M  V30 12629 H 1210.16 0.545045 -6.76909 0
M  V30 12630 H 1208.11 2.65301 -5.9996 0
M  V30 12631 H 1208.02 1.61546 -7.38538 0
M  V30 12632 H 1209.29 2.7995 -7.27495 0
M  V30 12633 N 1213.52 1.56172 -0.211661 0
M  V30 12634 C 1214.47 2.21206 0.719063 0
M  V30 12635 C 1215.46 1.18835 1.20725 0
M  V30 12636 O 1216.67 1.36939 1.16823 0
M  V30 12637 H 1213.04 0.709129 0.250279 0
M  V30 12638 H 1215.01 2.98038 0.147022 0
M  V30 12639 C 1213.76 2.89826 1.92084 0
M  V30 12640 H 1213.09 3.68351 1.55428 0
M  V30 12641 H 1214.53 3.38744 2.55006 0
M  V30 12642 C 1212.99 1.91756 2.77004 0
M  V30 12643 O 1213.52 1.42826 3.75451 0
M  V30 12644 N 1211.72 1.59622 2.42836 0
M  V30 12645 H 1211.27 1.99606 1.62835 0
M  V30 12646 H 1211.23 0.942641 2.99936 0
M  V30 12647 N 1215 -0.0618163 1.57479 0
M  V30 12648 C 1216.25 -0.757569 1.87364 0
M  V30 12649 C 1216.57 -1.77607 0.805025 0
M  V30 12650 O 1215.84 -1.95202 -0.165216 0
M  V30 12651 H 1214.42 -0.28278 0.691408 0
M  V30 12652 H 1217.08 -0.0355354 1.94868 0
M  V30 12653 H 1216.18 -1.26758 2.85199 0
M  V30 12654 N 1216.48 -1.54033 -0.333429 0
M  V30 12655 C 1217.72 -1.71765 -1.07252 0
M  V30 12656 C 1218.05 -0.486135 -1.88327 0
M  V30 12657 O 1217.31 0.532135 -1.88326 0
M  V30 12658 C 1217.61 -2.93926 -2.03328 0
M  V30 12659 C 1217.27 -4.29107 -1.38486 0
M  V30 12660 C 1215.93 -4.6586 -1.20532 0
M  V30 12661 C 1218.29 -5.13041 -0.918624 0
M  V30 12662 C 1215.61 -5.84155 -0.545881 0
M  V30 12663 C 1217.97 -6.3201 -0.273055 0
M  V30 12664 C 1216.63 -6.67451 -0.0812815 0
M  V30 12665 H 1215.9 -0.628532 -0.392464 0
M  V30 12666 H 1218.55 -1.88261 -0.350709 0
M  V30 12667 H 1216.85 -2.72075 -2.81926 0
M  V30 12668 H 1218.55 -3.0484 -2.60526 0
M  V30 12669 H 1215.14 -4.00185 -1.5346 0
M  V30 12670 H 1219.32 -4.8517 -1.04515 0
M  V30 12671 H 1214.58 -6.1018 -0.386009 0
M  V30 12672 H 1218.75 -6.96333 0.0962582 0
M  V30 12673 H 1216.38 -7.58973 0.431734 0
M  V30 12674 N 1217.95 0.594978 -1.45938 0
M  V30 12675 C 1218.92 1.68688 -1.55168 0
M  V30 12676 C 1219.92 1.54945 -0.429951 0
M  V30 12677 O 1221.11 1.59785 -0.693859 0
M  V30 12678 C 1218.24 3.0804 -1.46027 0
M  V30 12679 H 1219.43 1.61866 -2.52467 0
M  V30 12680 H 1216.99 0.811785 -1.33565 0
M  V30 12681 H 1217.72 3.20428 -0.499614 0
M  V30 12682 H 1217.51 3.19423 -2.27401 0
M  V30 12683 H 1219 3.8755 -1.55546 0
M  V30 12684 N 1219.43 1.33438 0.838571 0
M  V30 12685 C 1220.68 1.24259 1.58879 0
M  V30 12686 C 1220.99 -0.189957 1.94675 0
M  V30 12687 O 1222.2 -0.40376 2.68481 0
M  V30 12688 C 1220.66 2.1773 2.86569 0
M  V30 12689 C 1220.26 3.66156 2.58135 0
M  V30 12690 C 1222.01 2.17424 3.64591 0
M  V30 12691 C 1219.92 4.5154 3.81923 0
M  V30 12692 H 1218.85 0.461534 0.59624 0
M  V30 12693 H 1221.5 1.58504 0.924588 0
M  V30 12694 H 1219.88 1.76418 3.54532 0
M  V30 12695 H 1221.05 4.1591 1.98382 0
M  V30 12696 H 1219.37 3.68754 1.93416 0
M  V30 12697 H 1221.96 2.78446 4.56478 0
M  V30 12698 H 1222.31 1.16939 3.99539 0
M  V30 12699 H 1222.84 2.571 3.03553 0
M  V30 12700 H 1219.58 5.52902 3.52107 0
M  V30 12701 H 1219.1 4.06529 4.41015 0
M  V30 12702 H 1220.78 4.65359 4.495 0
M  V30 12703 N 1220.91 -1.05686 1.16912 0
M  V30 12704 C 1222.16 -1.77987 0.948875 0
M  V30 12705 C 1222.47 -1.8845 -0.524011 0
M  V30 12706 O 1223.68 -2.57442 -0.862322 0
M  V30 12707 C 1222.13 -3.19927 1.64848 0
M  V30 12708 C 1221.74 -3.1761 3.15956 0
M  V30 12709 C 1223.49 -3.96719 1.51044 0
M  V30 12710 C 1221.39 -4.54307 3.78628 0
M  V30 12711 H 1220.32 -0.667119 0.35138 0
M  V30 12712 H 1222.97 -1.18496 1.40111 0
M  V30 12713 H 1221.36 -3.79714 1.12397 0
M  V30 12714 H 1222.53 -2.67369 3.75301 0
M  V30 12715 H 1220.85 -2.54317 3.29715 0
M  V30 12716 H 1223.44 -4.97779 1.95243 0
M  V30 12717 H 1223.79 -4.13748 0.460268 0
M  V30 12718 H 1224.32 -3.43468 2.00685 0
M  V30 12719 H 1221.06 -4.42484 4.8362 0
M  V30 12720 H 1220.58 -5.04717 3.24069 0
M  V30 12721 H 1222.26 -5.23255 3.80543 0
M  V30 12722 N 1222.39 -0.968567 -1.24324 0
M  V30 12723 C 1223.8 -0.675239 -1.44612 0
M  V30 12724 C 1224 0.762641 -1.8651 0
M  V30 12725 O 1223.06 1.53644 -2.00374 0
M  V30 12726 C 1224.37 -1.66007 -2.50723 0
M  V30 12727 C 1225.92 -1.6728 -2.6455 0
M  V30 12728 C 1226.4 -2.64563 -3.73859 0
M  V30 12729 N 1227.89 -2.6301 -3.81287 0
M  V30 12730 C 1228.62 -3.34957 -4.65394 0
M  V30 12731 N 1228.12 -4.16424 -5.53681 0
M  V30 12732 N 1229.91 -3.23778 -4.59483 0
M  V30 12733 H 1222.06 -1.89757 -0.954257 0
M  V30 12734 H 1224.33 -0.817004 -0.480841 0
M  V30 12735 H 1224.03 -2.68779 -2.26827 0
M  V30 12736 H 1223.91 -1.43353 -3.48898 0
M  V30 12737 H 1226.29 -0.652184 -2.87803 0
M  V30 12738 H 1226.37 -1.93997 -1.6673 0
M  V30 12739 H 1226.02 -3.66759 -3.51355 0
M  V30 12740 H 1225.95 -2.35124 -4.71194 0
M  V30 12741 H 1228.44 -2.03877 -3.18186 0
M  V30 12742 H 1228.75 -4.68207 -6.14818 0
M  V30 12743 H 1227.1 -4.20518 -5.53344 0
M  V30 12744 H 1230.29 -2.59594 -3.89524 0
M  V30 12745 H 1230.46 -3.80112 -5.24804 0
M  V30 12746 N 1223.87 1.39211 -0.738786 0
M  V30 12747 C 1225.28 1.83237 -0.357916 0
M  V30 12748 C 1225.63 1.61698 1.11123 0
M  V30 12749 O 1224.75 1.11017 1.85753 0
M  V30 12750 C 1225.35 3.32645 -0.64285 0
M  V30 12751 C 1223.91 3.75076 -0.315432 0
M  V30 12752 C 1223.05 2.62166 -0.903556 0
M  V30 12753 H 1226.01 1.2815 -0.936127 0
M  V30 12754 H 1226.03 3.80407 0.0840812 0
M  V30 12755 H 1225.54 3.4829 -1.71218 0
M  V30 12756 H 1223.64 3.65017 0.747907 0
M  V30 12757 H 1223.75 4.72363 -0.800638 0
M  V30 12758 H 1222.12 2.52554 -0.329927 0
M  V30 12759 H 1222.9 2.80616 -1.97761 0
M  V30 12760 N 1225.34 0.486708 1.49896 0
M  V30 12761 C 1226.76 0.0353906 1.86666 0
M  V30 12762 C 1227.11 -1.3743 1.40026 0
M  V30 12763 O 1226.23 -2.02163 0.77194 0
M  V30 12764 C 1226.83 0.0574475 3.38751 0
M  V30 12765 C 1225.39 -0.338464 3.74875 0
M  V30 12766 C 1224.53 0.436196 2.73848 0
M  V30 12767 H 1227.48 0.700215 1.42417 0
M  V30 12768 H 1227.5 -0.741175 3.73212 0
M  V30 12769 H 1227.02 1.08356 3.72667 0
M  V30 12770 H 1225.12 -1.36835 3.46565 0
M  V30 12771 H 1225.23 -0.0289519 4.79091 0
M  V30 12772 H 1223.59 -0.112141 2.54453 0
M  V30 12773 H 1224.38 1.46212 3.10608 0
M  V30 12774 N 1226.82 -1.56058 0.219941 0
M  V30 12775 C 1228.07 -1.97869 -0.411383 0
M  V30 12776 C 1228.39 -1.10878 -1.60409 0
M  V30 12777 O 1227.66 -0.185454 -1.9502 0
M  V30 12778 H 1226.24 -0.730747 -0.154979 0
M  V30 12779 H 1228.9 -1.92379 0.312461 0
M  V30 12780 H 1228 -3.0323 -0.738798 0
M  V30 12781 N 1228.3 0.053464 -1.57509 0
M  V30 12782 C 1229.25 1.06886 -2.01394 0
M  V30 12783 C 1230.24 1.33441 -0.899013 0
M  V30 12784 O 1231.43 1.33435 -1.16293 0
M  V30 12785 C 1228.56 2.37731 -2.47667 0
M  V30 12786 C 1227.64 2.14371 -3.65931 0
M  V30 12787 N 1228.03 1.60994 -4.79494 0
M  V30 12788 C 1226.33 2.44766 -3.72835 0
M  V30 12789 C 1227.03 1.52875 -5.61252 0
M  V30 12790 N 1226.01 1.99576 -5.05638 0
M  V30 12791 H 1229.81 0.649779 -2.86627 0
M  V30 12792 H 1227.32 0.260224 -1.60302 0
M  V30 12793 H 1229.32 3.11256 -2.77354 0
M  V30 12794 H 1227.98 2.80339 -1.63829 0
M  V30 12795 H 1228.99 1.296 -5.01422 0
M  V30 12796 H 1225.67 2.90616 -2.99748 0
M  V30 12797 H 1227.06 1.12303 -6.62448 0
M  V30 12798 N 1229.78 1.54207 0.325255 0
M  V30 12799 C 1230.73 1.79856 1.40128 0
M  V30 12800 C 1231.71 0.654503 1.46987 0
M  V30 12801 O 1232.91 0.914453 1.51548 0
M  V30 12802 C 1230.03 2.02786 2.77007 0
M  V30 12803 C 1229.12 3.23309 2.74467 0
M  V30 12804 N 1229.51 4.44396 2.41549 0
M  V30 12805 C 1227.81 3.24848 3.05598 0
M  V30 12806 C 1228.51 5.26325 2.47703 0
M  V30 12807 N 1227.49 4.63468 2.84074 0
M  V30 12808 H 1231.29 2.71056 1.13603 0
M  V30 12809 H 1228.8 1.53379 0.533728 0
M  V30 12810 H 1230.8 2.19301 3.5456 0
M  V30 12811 H 1229.46 1.12839 3.04463 0
M  V30 12812 H 1230.47 4.71426 2.14425 0
M  V30 12813 H 1227.15 2.44929 3.38107 0
M  V30 12814 H 1228.54 6.33016 2.25257 0
M  V30 12815 N 1231.26 -0.58723 1.46251 0
M  V30 12816 C 1232.22 -1.67863 1.5606 0
M  V30 12817 C 1233.22 -1.54715 0.438162 0
M  V30 12818 O 1234.41 -1.59415 0.702323 0
M  V30 12819 C 1231.54 -3.07262 1.47659 0
M  V30 12820 H 1232.74 -1.60525 2.53321 0
M  V30 12821 H 1230.29 -0.804691 1.33994 0
M  V30 12822 H 1231.02 -3.20159 0.5166 0
M  V30 12823 H 1230.81 -3.18213 2.29092 0
M  V30 12824 H 1232.3 -3.8672 1.57599 0
M  V30 12825 N 1232.74 -1.33881 -0.831482 0
M  V30 12826 C 1233.65 -1.26802 -1.97379 0
M  V30 12827 C 1234.66 -0.177233 -1.73095 0
M  V30 12828 O 1235.84 -0.402163 -1.97344 0
M  V30 12829 C 1232.9 -1.01474 -3.31517 0
M  V30 12830 C 1231.96 -2.19626 -3.68867 0
M  V30 12831 C 1231.2 -1.95497 -4.96605 0
M  V30 12832 O 1231.42 -0.908948 -5.63111 0
M  V30 12833 O 1230.35 -2.82226 -5.31632 0
M  V30 12834 H 1234.18 -2.22883 -2.06293 0
M  V30 12835 H 1231.76 -1.14001 -0.965613 0
M  V30 12836 H 1233.65 -0.890954 -4.11874 0
M  V30 12837 H 1232.32 -0.0842656 -3.2359 0
M  V30 12838 H 1231.23 -2.37561 -2.88991 0
M  V30 12839 H 1232.56 -3.11034 -3.81469 0
M  V30 12840 N 1234.21 1.05064 -1.1747 0
M  V30 12841 C 1235.12 2.16346 -0.907286 0
M  V30 12842 C 1236.14 1.7355 0.125013 0
M  V30 12843 O 1237.32 2.01326 -0.0545551 0
M  V30 12844 C 1234.38 3.44077 -0.425681 0
M  V30 12845 C 1233.44 4.01311 -1.52473 0
M  V30 12846 C 1232.67 5.22946 -1.06601 0
M  V30 12847 O 1232.9 5.70345 0.0793329 0
M  V30 12848 O 1231.83 5.72454 -1.85958 0
M  V30 12849 H 1235.66 2.41754 -1.83817 0
M  V30 12850 H 1233.24 1.14834 -0.955693 0
M  V30 12851 H 1235.12 4.21078 -0.164689 0
M  V30 12852 H 1233.8 3.20166 0.477037 0
M  V30 12853 H 1232.71 3.25744 -1.83961 0
M  V30 12854 H 1234.04 4.29543 -2.4032 0
M  V30 12855 N 1235.69 0.975146 1.23809 0
M  V30 12856 C 1236.92 0.658605 1.96665 0
M  V30 12857 C 1237.34 -0.766744 1.71763 0
M  V30 12858 O 1236.7 -1.52151 0.985887 0
M  V30 12859 C 1236.75 0.948438 3.47904 0
M  V30 12860 O 1235.85 0.0377241 4.12383 0
M  V30 12861 H 1235.19 0.248231 0.615855 0
M  V30 12862 H 1237.72 1.30732 1.57386 0
M  V30 12863 H 1237.73 0.883 3.9833 0
M  V30 12864 H 1236.41 1.98717 3.65355 0
M  V30 12865 H 1234.98 0.157122 3.72569 0
M  V30 12866 N 1237.17 -1.38817 0.746158 0
M  V30 12867 C 1238.4 -2.0457 0.309605 0
M  V30 12868 C 1238.81 -1.5627 -1.05948 0
M  V30 12869 O 1238.17 -0.73248 -1.67156 0
M  V30 12870 C 1238.22 -3.60126 0.314843 0
M  V30 12871 O 1237.94 -4.06652 1.6299 0
M  V30 12872 C 1239.44 -4.4309 -0.136497 0
M  V30 12873 H 1236.66 -0.657597 0.133441 0
M  V30 12874 H 1239.21 -1.77651 1.01293 0
M  V30 12875 H 1237.36 -3.85908 -0.339685 0
M  V30 12876 H 1237.78 -5.01042 1.55103 0
M  V30 12877 H 1239.25 -5.5194 -0.0816714 0
M  V30 12878 H 1239.73 -4.22959 -1.18332 0
M  V30 12879 H 1240.33 -4.22481 0.488879 0
M  V30 12880 N 1238.65 -0.49465 -1.49636 0
M  V30 12881 C 1239.61 0.276064 -2.27531 0
M  V30 12882 C 1240.61 0.899619 -1.3328 0
M  V30 12883 O 1241.8 0.765136 -1.56497 0
M  V30 12884 C 1238.93 1.39547 -3.1103 0
M  V30 12885 H 1240.13 -0.407381 -2.9712 0
M  V30 12886 H 1237.68 -0.249416 -1.54297 0
M  V30 12887 H 1238.41 2.11326 -2.45992 0
M  V30 12888 H 1238.2 0.953877 -3.8032 0
M  V30 12889 H 1239.69 1.93853 -3.69879 0
M  V30 12890 N 1240.13 1.55939 -0.228214 0
M  V30 12891 C 1241.06 2.16566 0.719321 0
M  V30 12892 C 1242.04 1.11204 1.18627 0
M  V30 12893 O 1243.22 1.39495 1.2678 0
M  V30 12894 C 1240.35 2.75132 1.97536 0
M  V30 12895 C 1239.39 3.93381 1.64783 0
M  V30 12896 S 1240.23 5.29982 0.76678 0
M  V30 12897 C 1241.38 5.91989 2.03223 0
M  V30 12898 H 1241.62 2.96599 0.204035 0
M  V30 12899 H 1239.15 1.54395 -0.0128406 0
M  V30 12900 H 1241.11 3.09512 2.69652 0
M  V30 12901 H 1239.77 1.95079 2.46176 0
M  V30 12902 H 1238.96 4.32884 2.58122 0
M  V30 12903 H 1238.56 3.60181 1.00724 0
M  V30 12904 H 1240.85 6.08368 2.98152 0
M  V30 12905 H 1241.8 6.87858 1.68099 0
M  V30 12906 H 1242.21 5.20883 2.1758 0
M  V30 12907 N 1241.6 -0.0451101 1.57535 0
M  V30 12908 C 1242.85 -0.737654 1.88157 0
M  V30 12909 C 1243.17 -1.76743 0.823817 0
M  V30 12910 O 1242.44 -1.95366 -0.144503 0
M  V30 12911 H 1241.02 -0.275431 0.694368 0
M  V30 12912 H 1243.69 -0.0148651 1.94894 0
M  V30 12913 H 1242.78 -1.23726 2.86528 0
M  V30 12914 N 1243.08 -1.54377 -0.317073 0
M  V30 12915 C 1244.33 -1.72893 -1.05424 0
M  V30 12916 C 1244.66 -0.506082 -1.87801 0
M  V30 12917 O 1243.91 0.51213 -1.8888 0
M  V30 12918 C 1244.21 -2.96066 -2.00199 0
M  V30 12919 C 1243.88 -4.30551 -1.33927 0
M  V30 12920 C 1242.54 -4.67112 -1.15584 0
M  V30 12921 C 1244.89 -5.13986 -0.864158 0
M  V30 12922 C 1242.22 -5.84701 -0.483892 0
M  V30 12923 C 1244.57 -6.32264 -0.206006 0
M  V30 12924 C 1243.24 -6.67499 -0.0104849 0
M  V30 12925 H 1242.51 -0.63266 -0.385776 0
M  V30 12926 H 1245.15 -1.88623 -0.330722 0
M  V30 12927 H 1243.46 -2.7505 -2.79024 0
M  V30 12928 H 1245.15 -3.07586 -2.57278 0
M  V30 12929 H 1241.74 -4.0179 -1.49207 0
M  V30 12930 H 1245.93 -4.86252 -0.993635 0
M  V30 12931 H 1241.18 -6.10555 -0.32127 0
M  V30 12932 H 1245.36 -6.96192 0.170108 0
M  V30 12933 H 1242.99 -7.58472 0.512209 0
M  V30 12934 N 1244.56 0.579466 -1.4656 0
M  V30 12935 C 1245.8 1.34857 -1.536 0
M  V30 12936 C 1246.16 1.91111 -0.184576 0
M  V30 12937 O 1247.37 2.68487 -0.129731 0
M  V30 12938 C 1245.64 2.44535 -2.60648 0
M  V30 12939 S 1247.2 3.31829 -2.87115 0
M  V30 12940 H 1244.01 0.459405 -0.542649 0
M  V30 12941 H 1246.62 0.665798 -1.83813 0
M  V30 12942 H 1245.32 2.01605 -3.57468 0
M  V30 12943 H 1244.85 3.17581 -2.32177 0
M  V30 12944 H 1246.87 4.43452 -2.22632 0
M  V30 12945 N 1246.04 1.3432 0.824371 0
M  V30 12946 C 1247.29 1.26595 1.5805 0
M  V30 12947 C 1247.61 -0.164471 1.93803 0
M  V30 12948 O 1246.87 -1.12537 1.60106 0
M  V30 12949 C 1247.17 2.1008 2.89139 0
M  V30 12950 C 1246.83 3.59102 2.72684 0
M  V30 12951 C 1245.5 3.99726 2.67904 0
M  V30 12952 C 1247.85 4.53736 2.56463 0
M  V30 12953 C 1245.18 5.33178 2.44822 0
M  V30 12954 C 1247.53 5.87366 2.34913 0
M  V30 12955 C 1246.19 6.27155 2.28544 0
M  V30 12956 H 1245.46 0.463245 0.578347 0
M  V30 12957 H 1248.11 1.66048 0.953948 0
M  V30 12958 H 1246.41 1.6345 3.56078 0
M  V30 12959 H 1248.11 2.01451 3.46726 0
M  V30 12960 H 1244.7 3.26855 2.77244 0
M  V30 12961 H 1248.88 4.23248 2.5918 0
M  V30 12962 H 1244.14 5.63028 2.38348 0
M  V30 12963 H 1248.31 6.60286 2.21349 0
M  V30 12964 H 1245.94 7.30498 2.1042 0
M  V30 12965 N 1247.52 -1.0444 1.18026 0
M  V30 12966 C 1248.76 -1.77575 0.973314 0
M  V30 12967 C 1249.09 -1.88032 -0.4974 0
M  V30 12968 O 1248.35 -1.38214 -1.38548 0
M  V30 12969 C 1248.65 -3.21134 1.56869 0
M  V30 12970 C 1248.31 -3.30718 3.0649 0
M  V30 12971 C 1246.97 -3.33041 3.47328 0
M  V30 12972 C 1249.33 -3.3112 4.02503 0
M  V30 12973 C 1246.65 -3.33404 4.82762 0
M  V30 12974 C 1249.01 -3.33023 5.37846 0
M  V30 12975 C 1247.67 -3.33636 5.78138 0
M  V30 12976 H 1246.94 -0.649793 0.356161 0
M  V30 12977 H 1249.59 -1.22693 1.47033 0
M  V30 12978 H 1247.89 -3.78992 0.993584 0
M  V30 12979 H 1249.59 -3.76358 1.38404 0
M  V30 12980 H 1246.18 -3.29628 2.7394 0
M  V30 12981 H 1250.36 -3.2852 3.72006 0
M  V30 12982 H 1245.62 -3.32194 5.13281 0
M  V30 12983 H 1249.79 -3.32283 6.12014 0
M  V30 12984 H 1247.42 -3.33671 6.83058 0
M  V30 12985 N 1248.99 -0.981699 -1.2329 0
M  V30 12986 C 1249.94 -0.515432 -2.26817 0
M  V30 12987 C 1250.94 0.428204 -1.63899 0
M  V30 12988 O 1252.14 0.301954 -1.77449 0
M  V30 12989 H 1248.52 -0.148257 -0.737241 0
M  V30 12990 H 1250.49 -1.40027 -2.63505 0
M  V30 12991 C 1249.24 0.165266 -3.47307 0
M  V30 12992 H 1248.56 -0.55176 -3.95974 0
M  V30 12993 H 1250 0.45513 -4.2155 0
M  V30 12994 C 1248.46 1.39693 -3.06574 0
M  V30 12995 O 1248.99 2.49308 -3.14974 0
M  V30 12996 N 1247.2 1.26806 -2.61474 0
M  V30 12997 H 1246.74 0.376161 -2.54839 0
M  V30 12998 H 1246.7 2.09324 -2.34587 0
M  V30 12999 N 1250.47 1.3842 -0.753509 0
M  V30 13000 C 1251.7 2.04929 -0.319174 0
M  V30 13001 C 1252.12 1.56457 1.04416 0
M  V30 13002 O 1251.48 0.716527 1.6654 0
M  V30 13003 C 1251.53 3.58887 -0.351054 0
M  V30 13004 O 1250.63 4.07166 0.654963 0
M  V30 13005 H 1249.97 0.648782 -0.141343 0
M  V30 13006 H 1252.5 1.77096 -1.02461 0
M  V30 13007 H 1252.51 4.075 -0.201907 0
M  V30 13008 H 1251.19 3.93525 -1.34576 0
M  V30 13009 H 1249.77 3.69921 0.470435 0
M  V30 13010 N 1251.95 0.502579 1.49372 0
M  V30 13011 C 1253.2 -0.0414423 2.02758 0
M  V30 13012 C 1253.53 -1.36499 1.38136 0
M  V30 13013 O 1252.8 -1.87487 0.517593 0
M  V30 13014 C 1253.09 -0.192333 3.59586 0
M  V30 13015 C 1252.94 1.15445 4.34733 0
M  V30 13016 C 1254.26 -0.932218 4.30114 0
M  V30 13017 H 1251.38 -0.0135869 0.736875 0
M  V30 13018 H 1254.02 0.654296 1.78379 0
M  V30 13019 H 1252.17 -0.78491 3.80488 0
M  V30 13020 H 1253.84 1.78603 4.25322 0
M  V30 13021 H 1252.09 1.74333 3.97228 0
M  V30 13022 H 1252.76 1.00216 5.42827 0
M  V30 13023 H 1255.23 -0.429632 4.13876 0
M  V30 13024 H 1254.11 -1.00664 5.39591 0
M  V30 13025 H 1254.37 -1.9763 3.95468 0
M  V30 13026 N 1253.43 -1.55816 0.23648 0
M  V30 13027 C 1254.39 -2.1967 -0.654041 0
M  V30 13028 C 1255.39 -1.1629 -1.11056 0
M  V30 13029 O 1256.58 -1.41435 -1.01695 0
M  V30 13030 C 1253.71 -2.83196 -1.89771 0
M  V30 13031 H 1254.91 -2.99743 -0.0970911 0
M  V30 13032 H 1252.46 -1.56295 -0.013098 0
M  V30 13033 H 1253.19 -2.07033 -2.49616 0
M  V30 13034 H 1252.98 -3.58915 -1.57868 0
M  V30 13035 H 1254.47 -3.32095 -2.53184 0
M  V30 13036 N 1254.91 0.036755 -1.57557 0
M  V30 13037 C 1256.16 0.728107 -1.881 0
M  V30 13038 C 1256.47 1.7693 -0.833974 0
M  V30 13039 O 1257.67 2.5127 -1.02837 0
M  V30 13040 C 1256.13 1.34604 -3.33781 0
M  V30 13041 C 1255.74 0.341599 -4.46696 0
M  V30 13042 C 1257.48 2.01772 -3.73481 0
M  V30 13043 C 1255.39 0.967444 -5.83433 0
M  V30 13044 H 1254.32 0.275695 -0.701789 0
M  V30 13045 H 1256.97 -0.0177555 -1.83491 0
M  V30 13046 H 1255.35 2.14135 -3.3311 0
M  V30 13047 H 1256.53 -0.426441 -4.58823 0
M  V30 13048 H 1254.84 -0.227558 -4.15778 0
M  V30 13049 H 1257.44 2.49435 -4.72955 0
M  V30 13050 H 1257.78 2.83255 -3.05077 0
M  V30 13051 H 1258.31 1.29026 -3.76294 0
M  V30 13052 H 1255.05 0.19219 -6.55218 0
M  V30 13053 H 1254.57 1.70551 -5.75041 0
M  V30 13054 H 1256.25 1.47705 -6.29914 0
M  V30 13055 N 1256.39 1.54543 0.308881 0
M  V30 13056 C 1257.61 1.77431 1.06422 0
M  V30 13057 C 1258.03 0.529972 1.81209 0
M  V30 13058 O 1257.39 -0.499912 1.7552 0
M  V30 13059 C 1257.44 2.9769 2.05092 0
M  V30 13060 O 1257.16 4.17315 1.33341 0
M  V30 13061 C 1258.66 3.32905 2.92727 0
M  V30 13062 H 1255.88 0.591961 0.315948 0
M  V30 13063 H 1258.42 2.01473 0.350547 0
M  V30 13064 H 1256.58 2.7588 2.71973 0
M  V30 13065 H 1256.99 4.85061 1.99539 0
M  V30 13066 H 1258.47 4.20314 3.57827 0
M  V30 13067 H 1258.94 2.50713 3.6061 0
M  V30 13068 H 1259.55 3.56847 2.31388 0
M  V30 13069 N 1257.86 -0.571685 1.46866 0
M  V30 13070 C 1258.83 -1.66198 1.57832 0
M  V30 13071 C 1259.83 -1.54242 0.454547 0
M  V30 13072 O 1261.02 -1.58661 0.719191 0
M  V30 13073 C 1258.15 -3.05678 1.5091 0
M  V30 13074 H 1259.34 -1.57829 2.5501 0
M  V30 13075 H 1256.89 -0.790433 1.3484 0
M  V30 13076 H 1257.63 -3.19593 0.550529 0
M  V30 13077 H 1257.41 -3.15765 2.32454 0
M  V30 13078 H 1258.9 -3.85027 1.61692 0
M  V30 13079 N 1259.34 -1.34755 -0.817236 0
M  V30 13080 C 1260.29 -1.26801 -1.92848 0
M  V30 13081 C 1261.26 -0.142077 -1.65491 0
M  V30 13082 O 1262.44 -0.324006 -1.88029 0
M  V30 13083 C 1259.58 -1.03513 -3.2921 0
M  V30 13084 C 1258.7 -2.24932 -3.68822 0
M  V30 13085 C 1257.83 -1.94881 -4.94161 0
M  V30 13086 C 1256.87 -3.12411 -5.2637 0
M  V30 13087 N 1256.01 -2.82207 -6.42887 0
M  V30 13088 H 1260.85 -2.21832 -1.98983 0
M  V30 13089 H 1258.38 -1.10284 -0.973439 0
M  V30 13090 H 1260.34 -0.88047 -4.07803 0
M  V30 13091 H 1258.97 -0.121478 -3.22571 0
M  V30 13092 H 1258.02 -2.51299 -2.85575 0
M  V30 13093 H 1259.34 -3.12726 -3.88592 0
M  V30 13094 H 1258.49 -1.76184 -5.80555 0
M  V30 13095 H 1257.23 -1.04355 -4.76405 0
M  V30 13096 H 1256.23 -3.31698 -4.3847 0
M  V30 13097 H 1257.46 -4.03724 -5.46062 0
M  V30 13098 H 1255.41 -1.94263 -6.26576 0
M  V30 13099 H 1255.32 -3.63534 -6.62857 0
M  V30 13100 H 1256.59 -2.67026 -7.32337 0
M  V30 13101 N 1260.82 1.03812 -1.18578 0
M  V30 13102 C 1261.75 2.13802 -0.938665 0
M  V30 13103 C 1262.73 1.69643 0.124575 0
M  V30 13104 O 1263.92 1.94179 -0.0285421 0
M  V30 13105 C 1261.05 3.44154 -0.466392 0
M  V30 13106 C 1260 4.01949 -1.47041 0
M  V30 13107 C 1259.33 5.27811 -0.855558 0
M  V30 13108 C 1260.63 4.37827 -2.84789 0
M  V30 13109 H 1262.32 2.34732 -1.85852 0
M  V30 13110 H 1259.87 1.12808 -0.895007 0
M  V30 13111 H 1261.82 4.20463 -0.280856 0
M  V30 13112 H 1260.54 3.22918 0.489041 0
M  V30 13113 H 1259.2 3.27725 -1.64293 0
M  V30 13114 H 1258.85 5.02886 0.107142 0
M  V30 13115 H 1258.55 5.67441 -1.52592 0
M  V30 13116 H 1260.07 6.06795 -0.680609 0
M  V30 13117 H 1261.49 5.05112 -2.71173 0
M  V30 13118 H 1259.88 4.88514 -3.48532 0
M  V30 13119 H 1260.95 3.47541 -3.38147 0
M  V30 13120 N 1262.3 0.988223 1.22768 0
M  V30 13121 C 1263.23 0.554478 2.26821 0
M  V30 13122 C 1264.21 -0.416293 1.64927 0
M  V30 13123 O 1265.39 -0.30795 1.91743 0
M  V30 13124 C 1262.52 -0.136266 3.47033 0
M  V30 13125 C 1261.48 0.752575 4.21332 0
M  V30 13126 C 1260.8 -0.0708236 5.34653 0
M  V30 13127 C 1262.1 2.04717 4.80508 0
M  V30 13128 H 1263.8 1.42423 2.63355 0
M  V30 13129 H 1261.34 0.686267 1.26595 0
M  V30 13130 H 1263.3 -0.451068 4.18979 0
M  V30 13131 H 1262.02 -1.04053 3.09581 0
M  V30 13132 H 1260.68 1.05095 3.51213 0
M  V30 13133 H 1260.33 -0.975859 4.93443 0
M  V30 13134 H 1260.03 0.520835 5.85287 0
M  V30 13135 H 1261.55 -0.379828 6.09417 0
M  V30 13136 H 1262.97 1.79663 5.44421 0
M  V30 13137 H 1261.36 2.58726 5.41462 0
M  V30 13138 H 1262.43 2.72896 4.00819 0
M  V30 13139 N 1263.78 -1.38018 0.760839 0
M  V30 13140 C 1264.71 -2.2899 0.0980916 0
M  V30 13141 C 1265.72 -1.48102 -0.675985 0
M  V30 13142 O 1266.91 -1.70883 -0.515878 0
M  V30 13143 C 1264.01 -3.27142 -0.884959 0
M  V30 13144 C 1263.18 -4.37081 -0.167 0
M  V30 13145 C 1262.24 -5.15375 -1.06184 0
M  V30 13146 O 1261.27 -5.6673 -0.529667 0
M  V30 13147 N 1262.47 -5.29052 -2.38924 0
M  V30 13148 H 1265.23 -2.86508 0.879403 0
M  V30 13149 H 1262.8 -1.49877 0.612245 0
M  V30 13150 H 1264.79 -3.764 -1.48678 0
M  V30 13151 H 1263.36 -2.70471 -1.5673 0
M  V30 13152 H 1262.58 -3.89363 0.615617 0
M  V30 13153 H 1263.87 -5.07732 0.329525 0
M  V30 13154 H 1263.26 -4.88892 -2.84607 0
M  V30 13155 H 1261.82 -5.81658 -2.94139 0
M  V30 13156 N 1265.25 -0.510493 -1.49103 0
M  V30 13157 C 1266.19 0.299697 -2.27232 0
M  V30 13158 C 1267.2 0.922102 -1.34168 0
M  V30 13159 O 1268.39 0.803836 -1.59376 0
M  V30 13160 C 1265.49 1.43778 -3.06889 0
M  V30 13161 C 1264.66 0.920927 -4.27595 0
M  V30 13162 C 1263.72 1.93777 -4.89221 0
M  V30 13163 O 1262.75 1.5025 -5.49011 0
M  V30 13164 N 1263.95 3.2688 -4.79718 0
M  V30 13165 H 1266.71 -0.37028 -2.97404 0
M  V30 13166 H 1264.27 -0.343617 -1.58212 0
M  V30 13167 H 1266.27 2.11577 -3.44988 0
M  V30 13168 H 1264.84 2.01175 -2.39264 0
M  V30 13169 H 1264.06 0.0675358 -3.94142 0
M  V30 13170 H 1265.34 0.554168 -5.05773 0
M  V30 13171 H 1264.74 3.64924 -4.32258 0
M  V30 13172 H 1263.3 3.90366 -5.21974 0
M  V30 13173 N 1266.73 1.55688 -0.24474 0
M  V30 13174 C 1267.68 2.21289 0.655723 0
M  V30 13175 C 1268.65 1.17606 1.17295 0
M  V30 13176 O 1269.83 1.46045 1.22782 0
M  V30 13177 C 1266.97 2.91453 1.84794 0
M  V30 13178 C 1266.09 4.09787 1.36744 0
M  V30 13179 C 1265.22 4.67672 2.51905 0
M  V30 13180 C 1264.26 5.78259 2.00706 0
M  V30 13181 N 1263.4 6.30336 3.09225 0
M  V30 13182 H 1268.24 2.97865 0.0896156 0
M  V30 13183 H 1265.77 1.47064 0.0324725 0
M  V30 13184 H 1267.73 3.30331 2.54828 0
M  V30 13185 H 1266.36 2.17355 2.38656 0
M  V30 13186 H 1265.41 3.76237 0.561228 0
M  V30 13187 H 1266.73 4.89627 0.952199 0
M  V30 13188 H 1265.88 5.09113 3.29984 0
M  V30 13189 H 1264.62 3.87044 2.9673 0
M  V30 13190 H 1263.62 5.36298 1.21097 0
M  V30 13191 H 1264.85 6.60737 1.56853 0
M  V30 13192 H 1262.8 5.52614 3.53489 0
M  V30 13193 H 1262.71 7.05364 2.72025 0
M  V30 13194 H 1263.98 6.76435 3.8737 0
M  V30 13195 N 1268.21 -0.0283989 1.57574 0
M  V30 13196 C 1269.14 -1.02828 2.09639 0
M  V30 13197 C 1270.12 -1.37668 0.999076 0
M  V30 13198 O 1271.31 -1.4654 1.27435 0
M  V30 13199 C 1268.44 -2.329 2.57633 0
M  V30 13200 C 1267.39 -2.12301 3.71635 0
M  V30 13201 C 1266.72 -3.48138 4.05837 0
M  V30 13202 C 1268.02 -1.50864 5.00037 0
M  V30 13203 H 1269.71 -0.594876 2.93431 0
M  V30 13204 H 1267.26 -0.284701 1.41158 0
M  V30 13205 H 1269.21 -3.03179 2.92678 0
M  V30 13206 H 1267.93 -2.78302 1.70926 0
M  V30 13207 H 1266.59 -1.44454 3.3694 0
M  V30 13208 H 1266.24 -3.9119 3.16195 0
M  V30 13209 H 1265.94 -3.3518 4.82626 0
M  V30 13210 H 1267.46 -4.19779 4.43417 0
M  V30 13211 H 1268.88 -2.11062 5.33035 0
M  V30 13212 H 1267.27 -1.48479 5.81441 0
M  V30 13213 H 1268.34 -0.474541 4.82572 0
M  V30 13214 N 1269.69 -1.54705 -0.300681 0
M  V30 13215 C 1270.64 -1.86433 -1.39087 0
M  V30 13216 C 1271.63 -0.738101 -1.52474 0
M  V30 13217 O 1272.84 -0.922096 -1.54588 0
M  V30 13218 H 1269.21 -0.591314 -0.464599 0
M  V30 13219 H 1271.18 -2.77558 -1.09563 0
M  V30 13220 C 1269.93 -2.1286 -2.74929 0
M  V30 13221 H 1269.25 -2.98994 -2.6541 0
M  V30 13222 H 1270.69 -2.39 -3.50222 0
M  V30 13223 C 1269.15 -0.92726 -3.23888 0
M  V30 13224 O 1269.68 -0.147921 -4.01428 0
M  V30 13225 N 1267.89 -0.732553 -2.81215 0
M  V30 13226 H 1267.44 -1.36797 -2.18276 0
M  V30 13227 H 1267.39 0.0696902 -3.14323 0
M  V30 13228 N 1271.17 0.563888 -1.47167 0
M  V30 13229 C 1272.41 1.32331 -1.53676 0
M  V30 13230 C 1272.75 1.93213 -0.195593 0
M  V30 13231 O 1272.02 1.77508 0.795068 0
M  V30 13232 C 1272.3 2.43848 -2.64972 0
M  V30 13233 C 1272.16 1.8788 -4.08682 0
M  V30 13234 C 1273.48 3.45809 -2.72221 0
M  V30 13235 H 1270.59 0.479791 -0.559437 0
M  V30 13236 H 1273.24 0.631669 -1.79192 0
M  V30 13237 H 1271.39 3.02846 -2.43345 0
M  V30 13238 H 1273.06 1.33195 -4.41652 0
M  V30 13239 H 1271.3 1.18593 -4.17275 0
M  V30 13240 H 1271.97 2.68465 -4.82318 0
M  V30 13241 H 1274.45 2.9672 -2.91713 0
M  V30 13242 H 1273.32 4.21272 -3.51882 0
M  V30 13243 H 1273.59 4.04236 -1.79014 0
M  V30 13244 N 1272.64 1.35187 0.810078 0
M  V30 13245 C 1273.89 1.28011 1.56389 0
M  V30 13246 C 1274.21 -0.14622 1.94451 0
M  V30 13247 O 1273.48 -1.08185 1.63318 0
M  V30 13248 H 1272.06 0.470837 0.579932 0
M  V30 13249 H 1274.73 1.69249 0.966476 0
M  V30 13250 H 1273.82 1.89362 2.4809 0
M  V30 13251 N 1274.12 -1.03182 1.19127 0
M  V30 13252 C 1275.07 -2.11394 0.926339 0
M  V30 13253 C 1276.04 -1.65528 -0.137703 0
M  V30 13254 O 1277.22 -1.908 0.00381804 0
M  V30 13255 C 1274.36 -3.41913 0.467894 0
M  V30 13256 C 1273.48 -4.01343 1.59837 0
M  V30 13257 C 1272.61 -5.1986 1.09175 0
M  V30 13258 C 1271.65 -5.71339 2.19632 0
M  V30 13259 N 1270.79 -6.81133 1.703 0
M  V30 13260 H 1275.63 -2.33393 1.85288 0
M  V30 13261 H 1273.17 -1.14473 0.923811 0
M  V30 13262 H 1275.12 -4.16796 0.183513 0
M  V30 13263 H 1273.75 -3.20034 -0.421656 0
M  V30 13264 H 1272.81 -3.23702 1.99803 0
M  V30 13265 H 1274.12 -4.35568 2.43068 0
M  V30 13266 H 1273.27 -6.0189 0.762427 0
M  V30 13267 H 1272.01 -4.87161 0.22914 0
M  V30 13268 H 1271.02 -4.87923 2.53399 0
M  V30 13269 H 1272.24 -6.06078 3.06344 0
M  V30 13270 H 1270.19 -6.50293 0.863415 0
M  V30 13271 H 1270.1 -7.1447 2.47122 0
M  V30 13272 H 1271.37 -7.66766 1.40321 0
M  V30 13273 N 1275.6 -0.99472 -1.22242 0
M  V30 13274 C 1276.85 -0.672596 -1.91322 0
M  V30 13275 C 1277.18 0.793542 -1.77247 0
M  V30 13276 O 1276.45 1.57407 -1.14251 0
M  V30 13277 C 1276.74 -1.08155 -3.43474 0
M  V30 13278 C 1276.59 -2.60638 -3.6659 0
M  V30 13279 C 1277.91 -0.636161 -4.35478 0
M  V30 13280 H 1275.03 -0.24582 -0.694796 0
M  V30 13281 H 1277.67 -1.23857 -1.44082 0
M  V30 13282 H 1275.82 -0.599987 -3.83839 0
M  V30 13283 H 1277.49 -3.16479 -3.35617 0
M  V30 13284 H 1275.74 -3.02624 -3.10808 0
M  V30 13285 H 1276.41 -2.84304 -4.73155 0
M  V30 13286 H 1278.88 -1.04982 -4.02639 0
M  V30 13287 H 1277.76 -0.950584 -5.40606 0
M  V30 13288 H 1278.02 0.4631 -4.39668 0
M  V30 13289 N 1277.08 1.37613 -0.768148 0
M  V30 13290 C 1278.01 2.3291 -0.165911 0
M  V30 13291 C 1278.99 1.556 0.687205 0
M  V30 13292 O 1280.17 1.83854 0.625407 0
M  V30 13293 C 1277.3 3.39822 0.7168 0
M  V30 13294 C 1276.26 4.27986 -0.0347264 0
M  V30 13295 C 1275.58 5.2588 0.967192 0
M  V30 13296 C 1276.88 5.08052 -1.21164 0
M  V30 13297 H 1278.58 2.83524 -0.962006 0
M  V30 13298 H 1276.12 1.36318 -0.464051 0
M  V30 13299 H 1278.08 4.05464 1.14789 0
M  V30 13300 H 1276.8 2.87725 1.54538 0
M  V30 13301 H 1275.46 3.6387 -0.446557 0
M  V30 13302 H 1275.11 4.70064 1.79022 0
M  V30 13303 H 1274.81 5.85726 0.468913 0
M  V30 13304 H 1276.33 5.94397 1.3973 0
M  V30 13305 H 1277.75 5.66853 -0.857373 0
M  V30 13306 H 1276.14 5.77206 -1.64176 0
M  V30 13307 H 1277.21 4.40936 -2.0175 0
M  V30 13308 N 1278.56 0.518393 1.4883 0
M  V30 13309 C 1279.81 -0.0218436 2.01688 0
M  V30 13310 C 1280.12 -1.36421 1.40174 0
M  V30 13311 O 1281.32 -1.99214 1.84461 0
M  V30 13312 C 1279.78 -0.0893538 3.59789 0
M  V30 13313 C 1279.39 1.24741 4.30283 0
M  V30 13314 C 1281.13 -0.579032 4.20532 0
M  V30 13315 C 1279.04 1.14112 5.80286 0
M  V30 13316 H 1277.97 -0.0119353 0.753906 0
M  V30 13317 H 1280.62 0.660432 1.71203 0
M  V30 13318 H 1279 -0.836458 3.87065 0
M  V30 13319 H 1280.18 2.00917 4.14691 0
M  V30 13320 H 1278.49 1.67191 3.81361 0
M  V30 13321 H 1281.09 -0.676343 5.30405 0
M  V30 13322 H 1281.43 -1.58207 3.85067 0
M  V30 13323 H 1281.96 0.112046 3.97642 0
M  V30 13324 H 1278.7 2.11895 6.20307 0
M  V30 13325 H 1278.22 0.420535 5.98324 0
M  V30 13326 H 1279.9 0.826992 6.41693 0
M  V30 13327 N 1280.03 -1.55556 0.252993 0
M  V30 13328 C 1281.28 -1.99385 -0.370599 0
M  V30 13329 C 1281.61 -1.14101 -1.57145 0
M  V30 13330 O 1280.89 -0.205828 -1.93408 0
M  V30 13331 C 1281.17 -3.51672 -0.774503 0
M  V30 13332 C 1281.02 -4.47719 0.432159 0
M  V30 13333 C 1282.34 -4.0923 -1.61923 0
M  V30 13334 H 1279.46 -0.724858 -0.133231 0
M  V30 13335 H 1282.1 -1.86644 0.355522 0
M  V30 13336 H 1280.25 -3.62661 -1.39318 0
M  V30 13337 H 1281.93 -4.48704 1.07063 0
M  V30 13338 H 1280.17 -4.2029 1.07419 0
M  V30 13339 H 1280.84 -5.51898 0.106123 0
M  V30 13340 H 1283.32 -4.01381 -1.09693 0
M  V30 13341 H 1282.19 -5.16039 -1.87068 0
M  V30 13342 H 1282.45 -3.58067 -2.59307 0
M  V30 13343 N 1281.51 0.0200419 -1.57587 0
M  V30 13344 C 1282.79 0.744946 -1.80859 0
M  V30 13345 C 1283.17 1.93089 -0.853218 0
M  V30 13346 O 1282.52 2.28269 0.10261 0
M  V30 13347 C 1282.73 1.16952 -3.28821 0
M  V30 13348 C 1284.08 1.5817 -3.9404 0
M  V30 13349 O 1285.1 1.26385 -3.33024 0
M  V30 13350 O 1283.96 2.17197 -5.01486 0
M  V30 13351 H 1281.05 0.360995 -0.744051 0
M  V30 13352 H 1283.6 -0.00387374 -1.697 0
M  V30 13353 H 1282.37 0.323304 -3.89962 0
M  V30 13354 H 1281.99 1.97807 -3.44903 0
M  V30 13355 N 1282.99 1.54862 0.292472 0
M  V30 13356 C 1284.24 1.75735 1.02415 0
M  V30 13357 C 1284.59 0.541197 1.84632 0
M  V30 13358 O 1283.88 -0.466345 1.85838 0
M  V30 13359 C 1284.08 2.99214 1.95463 0
M  V30 13360 C 1283.91 4.32722 1.22401 0
M  V30 13361 C 1282.68 4.96334 0.947659 0
M  V30 13362 C 1284.88 5.10499 0.62416 0
M  V30 13363 N 1282.86 6.13611 0.188198 0
M  V30 13364 C 1284.23 6.2 -0.00210199 0
M  V30 13365 C 1286.28 4.9507 0.530059 0
M  V30 13366 C 1284.99 7.15754 -0.713371 0
M  V30 13367 C 1287.01 5.91163 -0.167575 0
M  V30 13368 C 1286.37 7.00039 -0.782653 0
M  V30 13369 H 1282.47 0.695548 0.357403 0
M  V30 13370 H 1285.06 1.92346 0.301849 0
M  V30 13371 H 1283.23 2.84013 2.64936 0
M  V30 13372 H 1284.96 3.08575 2.61846 0
M  V30 13373 H 1281.72 4.56861 1.24799 0
M  V30 13374 H 1282.14 6.76765 -0.178295 0
M  V30 13375 H 1286.78 4.11015 0.991288 0
M  V30 13376 H 1284.5 7.99344 -1.18634 0
M  V30 13377 H 1288.09 5.81303 -0.240442 0
M  V30 13378 H 1286.97 7.73115 -1.31389 0
M  V30 13379 N 1284.47 -0.556076 1.47464 0
M  V30 13380 C 1285.75 -1.31689 1.44628 0
M  V30 13381 C 1286.13 -2.10609 0.143841 0
M  V30 13382 O 1285.47 -2.11097 -0.874662 0
M  V30 13383 C 1285.68 -2.22045 2.69253 0
M  V30 13384 C 1287.03 -2.83028 3.16513 0
M  V30 13385 O 1288.06 -2.32346 2.69988 0
M  V30 13386 O 1286.91 -3.75148 3.97399 0
M  V30 13387 H 1284.01 -0.593026 0.576411 0
M  V30 13388 H 1286.55 -0.574885 1.59666 0
M  V30 13389 H 1285.33 -1.63337 3.5558 0
M  V30 13390 H 1284.95 -3.03539 2.56807 0
M  V30 13391 N 1285.95 -1.35615 -0.802897 0
M  V30 13392 C 1287.2 -1.28428 -1.55528 0
M  V30 13393 C 1287.51 0.138275 -1.95111 0
M  V30 13394 O 1288.72 0.332435 -2.69457 0
M  V30 13395 C 1287.17 -2.25251 -2.80696 0
M  V30 13396 C 1286.78 -3.72871 -2.48336 0
M  V30 13397 C 1288.52 -2.27014 -3.58699 0
M  V30 13398 C 1286.43 -4.61507 -3.69817 0
M  V30 13399 H 1285.36 -0.47718 -0.583794 0
M  V30 13400 H 1288.01 -1.609 -0.882238 0
M  V30 13401 H 1286.39 -1.85755 -3.4973 0
M  V30 13402 H 1287.57 -4.21024 -1.87285 0
M  V30 13403 H 1285.88 -3.73752 -1.83571 0
M  V30 13404 H 1288.48 -2.90451 -4.48935 0
M  V30 13405 H 1288.82 -1.27491 -3.96298 0
M  V30 13406 H 1289.36 -2.65058 -2.9663 0
M  V30 13407 H 1286.09 -5.62043 -3.37324 0
M  V30 13408 H 1285.61 -4.18079 -4.30081 0
M  V30 13409 H 1287.29 -4.77113 -4.37004 0
M  V30 13410 N 1287.43 1.02549 -1.19673 0
M  V30 13411 C 1288.38 2.09257 -0.905282 0
M  V30 13412 C 1289.36 1.60363 0.131302 0
M  V30 13413 O 1290.55 1.76842 -0.0748563 0
M  V30 13414 C 1287.68 3.40345 -0.449474 0
M  V30 13415 C 1286.77 3.95964 -1.51899 0
M  V30 13416 N 1287.16 4.25203 -2.73926 0
M  V30 13417 C 1285.46 4.24013 -1.38307 0
M  V30 13418 C 1286.16 4.69925 -3.42849 0
M  V30 13419 N 1285.13 4.71664 -2.70248 0
M  V30 13420 H 1288.93 2.29761 -1.83268 0
M  V30 13421 H 1286.45 1.2044 -1.0894 0
M  V30 13422 H 1288.45 4.16308 -0.222121 0
M  V30 13423 H 1287.11 3.2126 0.471402 0
M  V30 13424 H 1288.12 4.14381 -3.10658 0
M  V30 13425 H 1284.79 4.14174 -0.52592 0
M  V30 13426 H 1286.18 5.01442 -4.4722 0
M  V30 13427 N 1288.9 1.00119 1.21713 0
M  V30 13428 C 1289.85 0.529464 2.21767 0
M  V30 13429 C 1290.84 -0.406858 1.55671 0
M  V30 13430 O 1292.03 -0.232329 1.75469 0
M  V30 13431 C 1289.16 -0.146336 3.42988 0
M  V30 13432 C 1288.24 0.81078 4.16278 0
M  V30 13433 N 1288.64 1.96204 4.66195 0
M  V30 13434 C 1286.93 0.628371 4.41551 0
M  V30 13435 C 1287.63 2.56346 5.2217 0
M  V30 13436 N 1286.61 1.8454 5.11318 0
M  V30 13437 H 1290.41 1.40738 2.58012 0
M  V30 13438 H 1287.93 0.864518 1.37477 0
M  V30 13439 H 1289.92 -0.501726 4.1387 0
M  V30 13440 H 1288.58 -1.02029 3.08254 0
M  V30 13441 H 1289.59 2.34255 4.61893 0
M  V30 13442 H 1286.27 -0.198819 4.17026 0
M  V30 13443 H 1287.66 3.53688 5.71274 0
M  V30 13444 N 1290.38 -1.37203 0.775435 0
M  V30 13445 C 1291.63 -1.99207 0.340756 0
M  V30 13446 C 1291.95 -1.61861 -1.08747 0
M  V30 13447 O 1291.22 -0.88583 -1.74728 0
M  V30 13448 H 1289.8 -0.736803 0.123004 0
M  V30 13449 H 1292.46 -1.67625 0.994379 0
M  V30 13450 H 1291.56 -3.09243 0.421346 0
M  V30 13451 N 1291.86 -0.526279 -1.48553 0
M  V30 13452 C 1292.81 0.251938 -2.31232 0
M  V30 13453 C 1293.8 0.938991 -1.40994 0
M  V30 13454 O 1295.01 0.863798 -1.57919 0
M  V30 13455 H 1291.38 0.100114 -0.745306 0
M  V30 13456 H 1293.35 -0.465013 -2.94754 0
M  V30 13457 C 1292.1 1.28816 -3.22958 0
M  V30 13458 H 1291.43 0.768899 -3.92337 0
M  V30 13459 H 1292.87 1.80417 -3.837 0
M  V30 13460 C 1291.32 2.31982 -2.44307 0
M  V30 13461 O 1291.85 3.3835 -2.16523 0
M  V30 13462 N 1290.06 2.051 -2.05869 0
M  V30 13463 H 1289.61 1.18618 -2.28665 0
M  V30 13464 H 1289.57 2.74349 -1.53557 0
M  V30 13465 N 1293.34 1.5542 -0.261239 0
M  V30 13466 C 1294.59 1.9889 0.358777 0
M  V30 13467 C 1294.91 1.15092 1.57413 0
M  V30 13468 O 1294.18 0.237095 1.9446 0
M  V30 13469 H 1292.76 0.734599 0.13555 0
M  V30 13470 H 1295.42 1.91483 -0.363357 0
M  V30 13471 H 1294.51 3.05082 0.658142 0
M  V30 13472 N 1294.82 -0.0116844 1.57596 0
M  V30 13473 C 1296.04 -0.71026 1.94327 0
M  V30 13474 C 1296.46 -1.67952 0.862418 0
M  V30 13475 O 1295.82 -1.818 -0.159698 0
M  V30 13476 C 1295.87 -1.45228 3.31045 0
M  V30 13477 O 1295.59 -0.52191 4.3498 0
M  V30 13478 C 1297.09 -2.24644 3.82165 0
M  V30 13479 H 1294.31 -0.198559 0.640949 0
M  V30 13480 H 1296.85 0.0359615 2.04468 0
M  V30 13481 H 1295.01 -2.15023 3.22248 0
M  V30 13482 H 1295.42 -1.04415 5.14002 0
M  V30 13483 H 1296.9 -2.72078 4.80289 0
M  V30 13484 H 1297.37 -3.06817 3.14261 0
M  V30 13485 H 1297.98 -1.59888 3.94101 0
M  V30 13486 N 1296.29 -1.55015 -0.284256 0
M  V30 13487 C 1297.23 -1.83517 -1.3731 0
M  V30 13488 C 1298.24 -0.719009 -1.46062 0
M  V30 13489 O 1299.43 -0.996719 -1.4808 0
M  V30 13490 C 1296.53 -1.97309 -2.7554 0
M  V30 13491 C 1295.7 -3.2787 -2.89517 0
M  V30 13492 C 1294.76 -3.31868 -4.08351 0
M  V30 13493 O 1293.79 -4.05309 -3.99642 0
M  V30 13494 N 1294.99 -2.5846 -5.19787 0
M  V30 13495 H 1297.75 -2.77495 -1.1321 0
M  V30 13496 H 1295.31 -1.54795 -0.474359 0
M  V30 13497 H 1297.31 -1.97367 -3.53311 0
M  V30 13498 H 1295.88 -1.10249 -2.92513 0
M  V30 13499 H 1295.1 -3.40445 -1.98722 0
M  V30 13500 H 1296.38 -4.13996 -2.95779 0
M  V30 13501 H 1295.78 -1.98455 -5.29747 0
M  V30 13502 H 1294.34 -2.64253 -5.9583 0
M  V30 13503 N 1297.77 0.548248 -1.47757 0
M  V30 13504 C 1298.7 1.66999 -1.56984 0
M  V30 13505 C 1299.72 1.56302 -0.455372 0
M  V30 13506 O 1300.91 1.63096 -0.725399 0
M  V30 13507 C 1298.01 3.0553 -1.46645 0
M  V30 13508 C 1297.18 3.41892 -2.72816 0
M  V30 13509 C 1296.24 4.59624 -2.56187 0
M  V30 13510 O 1295.26 4.63757 -3.30028 0
M  V30 13511 N 1296.47 5.56675 -1.64601 0
M  V30 13512 H 1299.23 1.59527 -2.53715 0
M  V30 13513 H 1296.79 0.735101 -1.44249 0
M  V30 13514 H 1298.78 3.82137 -1.33242 0
M  V30 13515 H 1297.35 3.0718 -0.57961 0
M  V30 13516 H 1296.57 2.54644 -3.00916 0
M  V30 13517 H 1297.86 3.62965 -3.56559 0
M  V30 13518 H 1297.26 5.561 -1.03778 0
M  V30 13519 H 1295.82 6.32573 -1.57146 0
M  V30 13520 N 1299.25 1.36039 0.795694 0
M  V30 13521 C 1300.21 1.29709 1.88966 0
M  V30 13522 C 1301.21 0.206142 1.59473 0
M  V30 13523 O 1302.4 0.460534 1.68002 0
M  V30 13524 C 1299.53 1.00922 3.25619 0
M  V30 13525 H 1300.73 2.26993 1.95995 0
M  V30 13526 H 1298.28 1.2072 0.992791 0
M  V30 13527 H 1299.02 0.0407027 3.24274 0
M  V30 13528 H 1298.8 1.79863 3.48413 0
M  V30 13529 H 1300.29 0.990826 4.05675 0
M  V30 13530 N 1300.73 -1.01913 1.20215 0
M  V30 13531 C 1301.98 -1.7547 1.01076 0
M  V30 13532 C 1302.3 -1.89045 -0.457404 0
M  V30 13533 O 1301.56 -1.41121 -1.35585 0
M  V30 13534 C 1301.86 -3.17734 1.63646 0
M  V30 13535 C 1301.52 -3.24143 3.13436 0
M  V30 13536 C 1300.19 -3.25599 3.54315 0
M  V30 13537 C 1302.54 -3.22508 4.09436 0
M  V30 13538 C 1299.87 -3.23089 4.89725 0
M  V30 13539 C 1302.22 -3.21539 5.44789 0
M  V30 13540 C 1300.88 -3.21298 5.85085 0
M  V30 13541 H 1300.15 -0.642092 0.369864 0
M  V30 13542 H 1302.8 -1.19547 1.49602 0
M  V30 13543 H 1301.1 -3.76799 1.07375 0
M  V30 13544 H 1302.8 -3.73338 1.46356 0
M  V30 13545 H 1299.39 -3.23743 2.80871 0
M  V30 13546 H 1303.57 -3.20555 3.7889 0
M  V30 13547 H 1298.83 -3.21231 5.20212 0
M  V30 13548 H 1303 -3.19226 6.18924 0
M  V30 13549 H 1300.63 -3.19107 6.89982 0
M  V30 13550 N 1302.21 -1.00763 -1.2118 0
M  V30 13551 C 1303.44 -0.709715 -1.94027 0
M  V30 13552 C 1303.84 0.732135 -1.7446 0
M  V30 13553 O 1303.19 1.50731 -1.05004 0
M  V30 13554 C 1303.25 -0.95427 -3.46603 0
M  V30 13555 C 1302.91 -2.38347 -3.89923 0
M  V30 13556 C 1303.91 -3.36383 -3.96412 0
M  V30 13557 C 1301.6 -2.72183 -4.22163 0
M  V30 13558 C 1303.59 -4.66321 -4.34538 0
M  V30 13559 C 1301.28 -4.02336 -4.59966 0
M  V30 13560 C 1302.27 -4.99216 -4.66125 0
M  V30 13561 O 1301.96 -6.27041 -5.03065 0
M  V30 13562 H 1301.69 -0.260545 -0.623773 0
M  V30 13563 H 1304.25 -1.34922 -1.54872 0
M  V30 13564 H 1302.48 -0.257599 -3.85841 0
M  V30 13565 H 1304.17 -0.649333 -4.00673 0
M  V30 13566 H 1304.93 -3.11578 -3.71677 0
M  V30 13567 H 1300.81 -1.97468 -4.16566 0
M  V30 13568 H 1304.36 -5.41938 -4.3926 0
M  V30 13569 H 1300.25 -4.26924 -4.84155 0
M  V30 13570 H 1301.02 -6.31196 -5.21089 0
M  V30 13571 N 1303.68 1.3679 -0.7827 0
M  V30 13572 C 1304.63 2.32019 -0.164358 0
M  V30 13573 C 1305.63 1.55476 0.672571 0
M  V30 13574 O 1306.83 1.7079 0.568406 0
M  V30 13575 H 1303.21 0.751214 -0.0343697 0
M  V30 13576 H 1305.18 2.81741 -0.983077 0
M  V30 13577 C 1303.93 3.4075 0.691727 0
M  V30 13578 H 1303.25 3.99759 0.0570885 0
M  V30 13579 H 1304.69 4.09719 1.09117 0
M  V30 13580 C 1303.15 2.81753 1.84708 0
M  V30 13581 O 1303.68 2.73378 2.94325 0
M  V30 13582 N 1301.89 2.39138 1.6511 0
M  V30 13583 H 1301.43 2.46149 0.759487 0
M  V30 13584 H 1301.39 2.0001 2.42576 0
M  V30 13585 N 1305.16 0.53415 1.48272 0
M  V30 13586 C 1306.44 -0.0630181 1.95498 0
M  V30 13587 C 1306.82 -1.50877 1.47646 0
M  V30 13588 O 1306.17 -2.17358 0.704829 0
M  V30 13589 C 1306.38 0.0585475 3.48951 0
M  V30 13590 C 1307.73 -0.0985978 4.24486 0
M  V30 13591 O 1308.75 -0.0150438 3.56197 0
M  V30 13592 O 1307.61 -0.274356 5.45811 0
M  V30 13593 H 1304.7 -0.0769841 0.823409 0
M  V30 13594 H 1307.25 0.599043 1.58775 0
M  V30 13595 H 1306.02 1.06549 3.76514 0
M  V30 13596 H 1305.64 -0.642175 3.9238 0
M  V30 13597 N 1306.64 -1.55279 0.269478 0
M  V30 13598 C 1308.05 -1.85286 -0.229372 0
M  V30 13599 C 1308.4 -1.19148 -1.55879 0
M  V30 13600 O 1307.53 -0.4778 -2.11059 0
M  V30 13601 C 1308.12 -3.3615 -0.42296 0
M  V30 13602 C 1306.68 -3.66301 -0.866047 0
M  V30 13603 C 1305.83 -2.77265 0.0439028 0
M  V30 13604 H 1308.78 -1.509 0.491427 0
M  V30 13605 H 1308.8 -3.5895 -1.26234 0
M  V30 13606 H 1308.31 -3.84258 0.544768 0
M  V30 13607 H 1306.41 -3.23688 -1.84545 0
M  V30 13608 H 1306.53 -4.73851 -0.707274 0
M  V30 13609 H 1304.89 -2.50299 -0.471433 0
M  V30 13610 H 1305.67 -3.28186 1.00741 0
M  V30 13611 N 1308.12 0.00332656 -1.576 0
M  V30 13612 C 1309.34 0.703587 -1.95101 0
M  V30 13613 C 1309.77 1.66697 -0.871418 0
M  V30 13614 O 1309.13 1.80494 0.170739 0
M  V30 13615 C 1309.17 1.41457 -3.31696 0
M  V30 13616 O 1308.28 2.52885 -3.25765 0
M  V30 13617 H 1307.62 0.187396 -0.637008 0
M  V30 13618 H 1310.15 -0.0488727 -2.04542 0
M  V30 13619 H 1310.16 1.77874 -3.67185 0
M  V30 13620 H 1308.83 0.708182 -4.09826 0
M  V30 13621 H 1307.41 2.18821 -3.01947 0
M  V30 13622 N 1309.6 1.55164 0.276031 0
M  V30 13623 C 1310.84 1.75887 1.00953 0
M  V30 13624 C 1311.18 0.5567 1.8605 0
M  V30 13625 O 1310.45 -0.445799 1.89322 0
M  V30 13626 C 1310.73 3.06228 1.89463 0
M  V30 13627 C 1310.59 4.36795 1.07379 0
M  V30 13628 C 1311.91 3.32589 2.88223 0
M  V30 13629 H 1309.02 0.639929 0.365596 0
M  V30 13630 H 1311.67 1.87893 0.282156 0
M  V30 13631 H 1309.82 2.96124 2.51481 0
M  V30 13632 H 1311.49 4.58853 0.474549 0
M  V30 13633 H 1309.73 4.32157 0.377165 0
M  V30 13634 H 1310.4 5.24315 1.72621 0
M  V30 13635 H 1312.88 3.42467 2.36338 0
M  V30 13636 H 1311.75 4.2506 3.47297 0
M  V30 13637 H 1312.02 2.52083 3.6319 0
M  V30 13638 N 1311.07 -0.540404 1.48045 0
M  V30 13639 C 1312 -1.65538 1.6468 0
M  V30 13640 C 1312.99 -1.62713 0.495847 0
M  V30 13641 O 1314.17 -1.80072 0.727172 0
M  V30 13642 C 1311.3 -3.0415 1.67661 0
M  V30 13643 C 1310.25 -3.2183 2.82152 0
M  V30 13644 C 1309.58 -4.61397 2.70216 0
M  V30 13645 C 1310.88 -3.05596 4.23567 0
M  V30 13646 H 1312.57 -1.51873 2.58021 0
M  V30 13647 H 1310.12 -0.729208 1.24171 0
M  V30 13648 H 1312.07 -3.82013 1.77887 0
M  V30 13649 H 1310.8 -3.18814 0.708907 0
M  V30 13650 H 1309.46 -2.4638 2.71463 0
M  V30 13651 H 1309.1 -4.72883 1.71437 0
M  V30 13652 H 1308.8 -4.74174 3.47035 0
M  V30 13653 H 1310.33 -5.41374 2.82395 0
M  V30 13654 H 1311.74 -3.73261 4.35143 0
M  V30 13655 H 1310.14 -3.29871 5.01303 0
M  V30 13656 H 1311.21 -2.0214 4.40758 0
M  V30 13657 N 1312.55 -1.36459 -0.788468 0
M  V30 13658 C 1313.78 -1.33703 -1.57502 0
M  V30 13659 C 1314.19 0.0834961 -1.89016 0
M  V30 13660 O 1313.53 1.05107 -1.50659 0
M  V30 13661 C 1313.6 -2.09424 -2.92201 0
M  V30 13662 C 1313.26 -3.58507 -2.83411 0
M  V30 13663 C 1314.26 -4.52736 -2.5559 0
M  V30 13664 C 1311.94 -4.01405 -3.01959 0
M  V30 13665 C 1313.94 -5.87841 -2.46419 0
M  V30 13666 C 1311.62 -5.366 -2.92409 0
M  V30 13667 C 1312.62 -6.29631 -2.64677 0
M  V30 13668 O 1312.31 -7.62343 -2.55124 0
M  V30 13669 H 1312.04 -0.460221 -0.495149 0
M  V30 13670 H 1314.59 -1.80163 -0.986437 0
M  V30 13671 H 1312.82 -1.5763 -3.53114 0
M  V30 13672 H 1314.51 -1.99515 -3.53481 0
M  V30 13673 H 1315.28 -4.20906 -2.40962 0
M  V30 13674 H 1311.16 -3.29367 -3.2255 0
M  V30 13675 H 1314.7 -6.60423 -2.24694 0
M  V30 13676 H 1310.6 -5.68038 -3.066 0
M  V30 13677 H 1311.37 -7.72476 -2.70598 0
M  V30 13678 N 1314.03 1.01274 -1.20754 0
M  V30 13679 C 1315.28 1.74342 -1.01428 0
M  V30 13680 C 1315.59 1.90265 0.453708 0
M  V30 13681 O 1316.8 2.60465 0.76618 0
M  V30 13682 C 1315.25 3.13588 -1.76609 0
M  V30 13683 C 1314.86 3.05664 -3.27526 0
M  V30 13684 C 1316.61 3.9084 -1.65664 0
M  V30 13685 C 1314.51 4.39942 -3.95228 0
M  V30 13686 H 1313.44 0.653619 -0.375897 0
M  V30 13687 H 1316.09 1.13214 -1.44412 0
M  V30 13688 H 1314.48 3.75281 -1.26413 0
M  V30 13689 H 1315.65 2.53256 -3.84965 0
M  V30 13690 H 1313.97 2.41904 -3.38927 0
M  V30 13691 H 1316.56 4.9019 -2.13583 0
M  V30 13692 H 1316.91 4.11754 -0.61351 0
M  V30 13693 H 1317.44 3.35783 -2.13294 0
M  V30 13694 H 1314.18 4.24229 -4.9971 0
M  V30 13695 H 1313.7 4.92342 -3.42578 0
M  V30 13696 H 1315.38 5.08771 -3.99701 0
M  V30 13697 N 1315.51 1.01404 1.20644 0
M  V30 13698 C 1316.73 0.720839 1.9447 0
M  V30 13699 C 1317.16 -0.711711 1.74116 0
M  V30 13700 O 1316.52 -1.48938 1.03379 0
M  V30 13701 C 1316.57 1.05864 3.4471 0
M  V30 13702 O 1315.67 0.168901 4.12054 0
M  V30 13703 H 1315.01 0.267698 0.607646 0
M  V30 13704 H 1317.54 1.35672 1.53147 0
M  V30 13705 H 1317.55 1.00928 3.9532 0
M  V30 13706 H 1316.23 2.1024 3.58848 0
M  V30 13707 H 1314.8 0.275572 3.7188 0
M  V30 13708 N 1316.99 -1.36373 0.789944 0
M  V30 13709 C 1317.92 -2.32616 0.202944 0
M  V30 13710 C 1318.9 -1.56674 -0.662364 0
M  V30 13711 O 1320.08 -1.84826 -0.596078 0
M  V30 13712 C 1317.21 -3.4092 -0.662646 0
M  V30 13713 C 1316.17 -4.27877 0.102811 0
M  V30 13714 C 1315.49 -5.27352 -0.883407 0
M  V30 13715 C 1316.79 -5.0606 1.29231 0
M  V30 13716 H 1318.49 -2.81958 1.00699 0
M  V30 13717 H 1316.03 -1.35562 0.48568 0
M  V30 13718 H 1317.99 -4.07239 -1.08324 0
M  V30 13719 H 1316.71 -2.90147 -1.4994 0
M  V30 13720 H 1315.37 -3.63114 0.504389 0
M  V30 13721 H 1315.02 -4.72853 -1.71521 0
M  V30 13722 H 1314.72 -5.86398 -0.375669 0
M  V30 13723 H 1316.24 -5.96545 -1.30256 0
M  V30 13724 H 1317.66 -5.65417 0.947446 0
M  V30 13725 H 1316.05 -5.74521 1.73338 0
M  V30 13726 H 1317.12 -4.37671 2.08739 0
M  V30 13727 N 1318.47 -0.542005 -1.47987 0
M  V30 13728 C 1319.42 0.234244 -2.26794 0
M  V30 13729 C 1320.4 0.899085 -1.33436 0
M  V30 13730 O 1321.59 0.799904 -1.57894 0
M  V30 13731 C 1318.72 1.27312 -3.18821 0
M  V30 13732 C 1317.81 0.612457 -4.19654 0
M  V30 13733 N 1318.2 -0.30875 -5.04857 0
M  V30 13734 C 1316.5 0.868224 -4.37468 0
M  V30 13735 C 1317.2 -0.691052 -5.77581 0
M  V30 13736 N 1316.17 -0.0493574 -5.43578 0
M  V30 13737 H 1319.97 -0.47427 -2.90048 0
M  V30 13738 H 1317.49 -0.360868 -1.5834 0
M  V30 13739 H 1319.49 1.84305 -3.73948 0
M  V30 13740 H 1318.15 1.98288 -2.57122 0
M  V30 13741 H 1319.16 -0.682054 -5.13389 0
M  V30 13742 H 1315.83 1.56765 -3.86951 0
M  V30 13743 H 1317.22 -1.44713 -6.56131 0
M  V30 13744 N 1319.94 1.55134 -0.277709 0
M  V30 13745 C 1321.36 1.59417 0.0763615 0
M  V30 13746 C 1321.56 1.29491 1.54384 0
M  V30 13747 O 1320.62 1.05703 2.2931 0
M  V30 13748 C 1321.93 2.99194 -0.300607 0
M  V30 13749 C 1323.48 3.1202 -0.247438 0
M  V30 13750 C 1323.95 4.54068 -0.598884 0
M  V30 13751 N 1325.44 4.59917 -0.550534 0
M  V30 13752 C 1326.18 5.67859 -0.795235 0
M  V30 13753 N 1325.67 6.83936 -1.10469 0
M  V30 13754 N 1327.47 5.5742 -0.723859 0
M  V30 13755 H 1319.62 1.72851 -1.23435 0
M  V30 13756 H 1321.88 0.806137 -0.498846 0
M  V30 13757 H 1321.59 3.25937 -1.32129 0
M  V30 13758 H 1321.46 3.75504 0.35729 0
M  V30 13759 H 1323.85 2.8504 0.763959 0
M  V30 13760 H 1323.93 2.37917 -0.939629 0
M  V30 13761 H 1323.57 4.81774 -1.60798 0
M  V30 13762 H 1323.5 5.26474 0.115126 0
M  V30 13763 H 1325.99 3.76531 -0.321341 0
M  V30 13764 H 1326.31 7.62159 -1.278 0
M  V30 13765 H 1324.65 6.85545 -1.14249 0
M  V30 13766 H 1327.84 4.65613 -0.481925 0
M  V30 13767 H 1328.02 6.41465 -0.917944 0
M  V30 13768 N 1321.42 0.00503138 1.57599 0
M  V30 13769 C 1322.65 -0.688609 1.94786 0
M  V30 13770 C 1323.06 -1.67558 0.878698 0
M  V30 13771 O 1322.4 -1.83083 -0.150486 0
M  V30 13772 C 1322.46 -1.47183 3.2799 0
M  V30 13773 C 1322.13 -0.64589 4.52413 0
M  V30 13774 C 1323.13 0.0685859 5.19855 0
M  V30 13775 C 1320.81 -0.590379 4.98818 0
M  V30 13776 C 1322.8 0.827505 6.32006 0
M  V30 13777 C 1320.49 0.172262 6.10857 0
M  V30 13778 C 1321.49 0.879932 6.77308 0
M  V30 13779 O 1321.18 1.63012 7.87199 0
M  V30 13780 H 1320.91 -0.196416 0.646836 0
M  V30 13781 H 1323.46 0.0537933 2.0533 0
M  V30 13782 H 1321.69 -2.25883 3.13869 0
M  V30 13783 H 1323.38 -2.05129 3.50253 0
M  V30 13784 H 1324.15 0.0348834 4.84987 0
M  V30 13785 H 1320.03 -1.13074 4.46918 0
M  V30 13786 H 1323.57 1.3804 6.83806 0
M  V30 13787 H 1319.47 0.207767 6.45166 0
M  V30 13788 H 1320.24 1.54736 8.03741 0
M  V30 13789 N 1322.9 -1.55308 -0.267798 0
M  V30 13790 C 1324.18 -1.66881 -1.02029 0
M  V30 13791 C 1324.56 -0.538708 -2.04111 0
M  V30 13792 O 1323.9 0.460575 -2.2381 0
M  V30 13793 C 1324.11 -3.06318 -1.67243 0
M  V30 13794 C 1325.46 -3.64237 -2.18212 0
M  V30 13795 O 1326.49 -3.08984 -1.77221 0
M  V30 13796 O 1325.35 -4.61055 -2.93413 0
M  V30 13797 H 1322.44 -0.677967 -0.473593 0
M  V30 13798 H 1324.99 -1.67646 -0.263242 0
M  V30 13799 H 1323.76 -3.80015 -0.932985 0
M  V30 13800 H 1323.38 -3.09475 -2.49622 0
M  V30 13801 N 1324.38 0.532545 -1.4833 0
M  V30 13802 C 1325.33 1.65832 -1.63103 0
M  V30 13803 C 1326.32 1.61929 -0.497538 0
M  V30 13804 O 1327.53 1.66817 -0.676176 0
M  V30 13805 H 1323.9 0.549152 -0.513748 0
M  V30 13806 H 1325.87 1.50515 -2.57658 0
M  V30 13807 C 1324.62 3.04113 -1.68555 0
M  V30 13808 H 1323.94 3.07809 -2.55135 0
M  V30 13809 H 1325.38 3.82506 -1.82936 0
M  V30 13810 C 1323.84 3.34225 -0.423711 0
M  V30 13811 O 1324.37 3.99005 0.464523 0
M  V30 13812 N 1322.58 2.89087 -0.296192 0
M  V30 13813 H 1322.13 2.36547 -1.01997 0
M  V30 13814 H 1322.08 3.09604 0.547082 0
M  V30 13815 N 1325.86 1.36875 0.78122 0
M  V30 13816 C 1327.1 1.31299 1.53639 0
M  V30 13817 C 1327.42 -0.104942 1.94717 0
M  V30 13818 O 1326.69 -1.04696 1.65576 0
M  V30 13819 H 1325.27 0.483032 0.569815 0
M  V30 13820 H 1327.94 1.71261 0.930359 0
M  V30 13821 H 1327.03 1.94581 2.44018 0
M  V30 13822 N 1327.33 -1.00632 1.21289 0
M  V30 13823 C 1328.28 -2.11502 0.96798 0
M  V30 13824 C 1329.28 -1.6919 -0.0843024 0
M  V30 13825 O 1330.48 -1.79875 0.06697 0
M  V30 13826 H 1326.86 -0.691398 0.295759 0
M  V30 13827 H 1328.83 -2.29337 1.90911 0
M  V30 13828 C 1327.58 -3.43357 0.547818 0
M  V30 13829 H 1326.9 -3.76348 1.34915 0
M  V30 13830 H 1328.34 -4.21957 0.415759 0
M  V30 13831 C 1326.8 -3.28648 -0.741086 0
M  V30 13832 O 1327.33 -3.59267 -1.79695 0
M  V30 13833 N 1325.53 -2.81866 -0.707084 0
M  V30 13834 H 1325.08 -2.57149 0.152447 0
M  V30 13835 H 1325.04 -2.72406 -1.56979 0
M  V30 13836 N 1328.81 -1.02043 -1.20104 0
M  V30 13837 C 1330.06 -0.711973 -1.89571 0
M  V30 13838 C 1330.39 0.758725 -1.79091 0
M  V30 13839 O 1329.64 1.56728 -1.17195 0
M  V30 13840 C 1329.94 -1.098 -3.40116 0
M  V30 13841 C 1329.61 -2.56555 -3.70797 0
M  V30 13842 C 1328.27 -2.96653 -3.78881 0
M  V30 13843 C 1330.62 -3.51543 -3.84795 0
M  V30 13844 C 1327.95 -4.30669 -3.98424 0
M  V30 13845 C 1330.3 -4.85252 -4.05849 0
M  V30 13846 C 1328.96 -5.2505 -4.12163 0
M  V30 13847 H 1328.23 -0.260529 -0.69369 0
M  V30 13848 H 1330.88 -1.28172 -1.42282 0
M  V30 13849 H 1329.19 -0.446738 -3.89245 0
M  V30 13850 H 1330.88 -0.836985 -3.92168 0
M  V30 13851 H 1327.47 -2.24488 -3.65107 0
M  V30 13852 H 1331.66 -3.21721 -3.77901 0
M  V30 13853 H 1326.91 -4.61052 -4.01548 0
M  V30 13854 H 1331.09 -5.58777 -4.15622 0
M  V30 13855 H 1328.71 -6.28908 -4.27059 0
M  V30 13856 N 1330.29 1.35952 -0.797165 0
M  V30 13857 C 1331.54 1.99032 -0.373142 0
M  V30 13858 C 1331.87 1.63257 1.05723 0
M  V30 13859 O 1331.12 0.883022 1.74646 0
M  V30 13860 C 1331.42 3.53986 -0.492805 0
M  V30 13861 C 1331.09 4.09603 -1.88511 0
M  V30 13862 C 1329.75 4.24505 -2.26604 0
M  V30 13863 C 1332.1 4.39829 -2.79643 0
M  V30 13864 C 1329.43 4.66946 -3.55215 0
M  V30 13865 C 1331.78 4.83706 -4.0769 0
M  V30 13866 C 1330.44 4.96813 -4.45795 0
M  V30 13867 H 1329.71 0.728311 -0.136542 0
M  V30 13868 H 1332.36 1.62318 -1.01613 0
M  V30 13869 H 1330.67 3.91103 0.233661 0
M  V30 13870 H 1332.36 4.00735 -0.145638 0
M  V30 13871 H 1328.95 3.98449 -1.57912 0
M  V30 13872 H 1333.14 4.27878 -2.51464 0
M  V30 13873 H 1328.39 4.75282 -3.84599 0
M  V30 13874 H 1332.57 5.06057 -4.78414 0
M  V30 13875 H 1330.19 5.29458 -5.45507 0
M  V30 13876 N 1331.77 0.549846 1.47697 0
M  V30 13877 C 1333.18 0.11453 1.86348 0
M  V30 13878 C 1333.53 -1.31368 1.45729 0
M  V30 13879 O 1332.66 -1.98707 0.856989 0
M  V30 13880 C 1333.25 0.201072 3.38203 0
M  V30 13881 C 1331.81 -0.179162 3.75973 0
M  V30 13882 C 1330.96 0.551951 2.71751 0
M  V30 13883 H 1333.91 0.759989 1.39319 0
M  V30 13884 H 1333.93 -0.582216 3.76019 0
M  V30 13885 H 1333.44 1.24065 3.67736 0
M  V30 13886 H 1331.54 -1.22013 3.52056 0
M  V30 13887 H 1331.65 0.174273 4.78783 0
M  V30 13888 H 1330.02 -0.00411819 2.547 0
M  V30 13889 H 1330.8 1.59254 3.04127 0
M  V30 13890 N 1333.25 -1.54984 0.285932 0
M  V30 13891 C 1334.49 -1.99436 -0.32709 0
M  V30 13892 C 1334.82 -1.17582 -1.55562 0
M  V30 13893 O 1334.09 -0.268002 -1.94058 0
M  V30 13894 H 1332.67 -0.736662 -0.123846 0
M  V30 13895 H 1335.33 -1.90881 0.393774 0
M  V30 13896 H 1334.42 -3.0609 -0.609523 0
M  V30 13897 N 1334.72 -0.0133892 -1.57594 0
M  V30 13898 C 1335.95 0.682855 -1.95836 0
M  V30 13899 C 1336.37 1.65763 -0.889049 0
M  V30 13900 O 1335.73 1.80665 0.151585 0
M  V30 13901 C 1335.78 1.37931 -3.33178 0
M  V30 13902 O 1334.88 2.49416 -3.28429 0
M  V30 13903 H 1334.23 0.180629 -0.638959 0
M  V30 13904 H 1336.76 -0.0705644 -2.04478 0
M  V30 13905 H 1336.77 1.73969 -3.69051 0
M  V30 13906 H 1335.44 0.664675 -4.10554 0
M  V30 13907 H 1334.02 2.15606 -3.04251 0
M  V30 13908 N 1336.2 1.55448 0.259558 0
M  V30 13909 C 1337.45 1.76337 0.987396 0
M  V30 13910 C 1337.77 0.57505 1.86328 0
M  V30 13911 O 1337.04 -0.409621 1.9157 0
M  V30 13912 H 1335.62 0.650312 0.367565 0
M  V30 13913 H 1338.28 1.9287 0.280551 0
M  V30 13914 H 1337.38 2.66975 1.61651 0
M  V30 13915 N 1337.68 -0.524672 1.4861 0
M  V30 13916 C 1338.64 -1.61092 1.63039 0
M  V30 13917 C 1339.64 -1.52718 0.503387 0
M  V30 13918 O 1340.83 -1.56293 0.769304 0
M  V30 13919 C 1337.97 -3.00722 1.60558 0
M  V30 13920 H 1339.16 -1.49636 2.59902 0
M  V30 13921 H 1336.71 -0.747135 1.37287 0
M  V30 13922 H 1337.45 -3.1768 0.651926 0
M  V30 13923 H 1337.23 -3.0821 2.42382 0
M  V30 13924 H 1338.72 -3.79688 1.73859 0
M  V30 13925 N 1339.16 -1.37287 -0.77395 0
M  V30 13926 C 1340.57 -1.28954 -1.3501 0
M  V30 13927 C 1340.92 0.0638301 -1.96096 0
M  V30 13928 O 1340.05 0.965624 -1.93661 0
M  V30 13929 C 1340.64 -2.3352 -2.45467 0
M  V30 13930 C 1339.2 -2.28828 -2.98856 0
M  V30 13931 C 1338.35 -2.17468 -1.72055 0
M  V30 13932 H 1341.3 -1.47941 -0.57438 0
M  V30 13933 H 1341.32 -1.98058 -3.24889 0
M  V30 13934 H 1340.83 -3.32009 -2.00977 0
M  V30 13935 H 1338.93 -1.33855 -3.47726 0
M  V30 13936 H 1339.04 -3.22152 -3.54619 0
M  V30 13937 H 1337.41 -1.63977 -1.94894 0
M  V30 13938 H 1338.19 -3.17868 -1.29672 0
M  V30 13939 N 1340.64 0.999871 -1.21821 0
M  V30 13940 C 1341.55 2.12303 -0.99823 0
M  V30 13941 C 1342.56 1.73924 0.0512923 0
M  V30 13942 O 1343.74 2.00914 -0.139895 0
M  V30 13943 C 1340.8 3.41962 -0.571232 0
M  V30 13944 C 1339.86 3.94483 -1.69356 0
M  V30 13945 C 1339.1 5.17954 -1.28685 0
M  V30 13946 O 1339.32 5.70168 -0.162641 0
M  V30 13947 O 1338.25 5.64051 -2.10071 0
M  V30 13948 H 1342.08 2.3374 -1.93905 0
M  V30 13949 H 1339.67 1.10677 -1.00354 0
M  V30 13950 H 1341.55 4.20001 -0.343134 0
M  V30 13951 H 1340.22 3.21901 0.340814 0
M  V30 13952 H 1339.13 3.17648 -1.97612 0
M  V30 13953 H 1340.46 4.18964 -2.58322 0
M  V30 13954 N 1342.11 1.02678 1.19562 0
M  V30 13955 C 1343.02 0.615738 2.26375 0
M  V30 13956 C 1344.04 -0.351525 1.70412 0
M  V30 13957 O 1345.22 -0.209932 2.00303 0
M  V30 13958 C 1342.28 -0.0292135 3.46688 0
M  V30 13959 C 1341.34 0.985284 4.1784 0
M  V30 13960 C 1340.58 0.371016 5.32409 0
M  V30 13961 O 1340.8 -0.826591 5.64379 0
M  V30 13962 O 1339.73 1.09282 5.91896 0
M  V30 13963 H 1343.56 1.50526 2.63772 0
M  V30 13964 H 1341.14 0.796847 1.26375 0
M  V30 13965 H 1343.03 -0.38893 4.19601 0
M  V30 13966 H 1341.7 -0.892778 3.11145 0
M  V30 13967 H 1340.61 1.39655 3.47055 0
M  V30 13968 H 1341.94 1.81915 4.57349 0
M  V30 13969 N 1343.59 -1.35528 0.804364 0
M  V30 13970 C 1344.84 -1.99126 0.384261 0
M  V30 13971 C 1345.17 -1.63668 -1.0453 0
M  V30 13972 O 1344.45 -0.898896 -1.72482 0
M  V30 13973 C 1344.73 -3.55636 0.565278 0
M  V30 13974 C 1344.58 -4.00899 2.03961 0
M  V30 13975 C 1345.9 -4.40099 -0.0104301 0
M  V30 13976 H 1343.02 -0.723369 0.141092 0
M  V30 13977 H 1345.66 -1.60712 1.01348 0
M  V30 13978 H 1343.81 -3.88489 0.0296425 0
M  V30 13979 H 1345.48 -3.78465 2.63746 0
M  V30 13980 H 1343.73 -3.5189 2.53685 0
M  V30 13981 H 1344.4 -5.09785 2.11716 0
M  V30 13982 H 1346.87 -4.13692 0.446985 0
M  V30 13983 H 1345.75 -5.48705 0.146155 0
M  V30 13984 H 1346.01 -4.28096 -1.10392 0
M  V30 13985 N 1345.07 -0.557671 -1.47404 0
M  V30 13986 C 1346.32 -0.0337216 -2.02072 0
M  V30 13987 C 1346.64 1.32106 -1.43433 0
M  V30 13988 O 1345.91 1.86171 -0.609692 0
M  V30 13989 H 1344.49 -0.00947648 -0.74694 0
M  V30 13990 H 1347.15 -0.727784 -1.80802 0
M  V30 13991 H 1346.25 0.0540331 -3.12053 0
M  V30 13992 N 1346.55 1.54831 -0.294147 0
M  V30 13993 C 1347.8 1.99606 0.316509 0
M  V30 13994 C 1348.12 1.18405 1.54936 0
M  V30 13995 O 1347.39 0.278289 1.93913 0
M  V30 13996 H 1345.97 0.737309 0.119938 0
M  V30 13997 H 1348.63 1.90669 -0.403891 0
M  V30 13998 H 1347.73 3.06409 0.593282 0
M  V30 13999 N 1348.03 0.0217466 1.57585 0
M  V30 14000 C 1349.28 -0.657187 1.91116 0
M  V30 14001 C 1349.6 -1.7309 0.898039 0
M  V30 14002 O 1348.87 -1.95803 -0.0615116 0
M  V30 14003 H 1347.45 -0.245732 0.705425 0
M  V30 14004 H 1350.11 0.0678096 1.94782 0
M  V30 14005 H 1349.2 -1.11462 2.91518 0
M  V30 14006 N 1349.51 -1.55583 -0.251311 0
M  V30 14007 C 1350.92 -1.67693 -0.820719 0
M  V30 14008 C 1351.27 -0.618393 -1.862 0
M  V30 14009 O 1350.39 0.236158 -2.15108 0
M  V30 14010 C 1350.99 -3.04011 -1.49542 0
M  V30 14011 C 1349.55 -3.18075 -2.01259 0
M  V30 14012 C 1348.69 -2.63557 -0.862138 0
M  V30 14013 H 1351.64 -1.58677 -0.0272072 0
M  V30 14014 H 1351.67 -2.9821 -2.36328 0
M  V30 14015 H 1351.18 -3.81032 -0.737323 0
M  V30 14016 H 1349.28 -2.45869 -2.79963 0
M  V30 14017 H 1349.39 -4.24927 -2.213 0
M  V30 14018 H 1347.76 -2.21268 -1.26145 0
M  V30 14019 H 1348.54 -3.431 -0.117196 0
M  V30 14020 N 1350.98 0.516783 -1.48886 0
M  V30 14021 C 1352.23 1.26936 -1.57263 0
M  V30 14022 C 1352.55 1.93337 -0.254156 0
M  V30 14023 O 1351.82 1.81977 0.725345 0
M  V30 14024 H 1350.4 0.4715 -0.579393 0
M  V30 14025 H 1353.06 0.600289 -1.85425 0
M  V30 14026 H 1352.16 2.04167 -2.36055 0
M  V30 14027 N 1352.46 1.37696 0.766659 0
M  V30 14028 C 1353.71 1.33382 1.52765 0
M  V30 14029 C 1354.04 -0.0800569 1.94035 0
M  V30 14030 O 1353.32 -1.03848 1.64456 0
M  V30 14031 C 1353.6 2.2776 2.78922 0
M  V30 14032 C 1353.45 3.77949 2.43874 0
M  V30 14033 C 1354.77 2.20494 3.80881 0
M  V30 14034 H 1351.89 0.485836 0.554195 0
M  V30 14035 H 1354.53 1.68438 0.879119 0
M  V30 14036 H 1352.68 1.97994 3.34261 0
M  V30 14037 H 1354.35 4.18333 1.9441 0
M  V30 14038 H 1352.6 3.96269 1.76503 0
M  V30 14039 H 1353.27 4.39428 3.34077 0
M  V30 14040 H 1355.74 2.46742 3.35048 0
M  V30 14041 H 1354.62 2.88663 4.66867 0
M  V30 14042 H 1354.88 1.19951 4.25516 0
M  V30 14043 N 1353.94 -0.993397 1.22349 0
M  V30 14044 C 1355.19 -1.72945 1.04568 0
M  V30 14045 C 1355.51 -1.90419 -0.420178 0
M  V30 14046 O 1354.78 -1.46348 -1.30227 0
M  V30 14047 H 1353.36 -0.640777 0.383945 0
M  V30 14048 H 1356.02 -1.19647 1.53853 0
M  V30 14049 H 1355.12 -2.72411 1.52311 0
M  V30 14050 N 1355.42 -1.03311 -1.19015 0
M  V30 14051 C 1356.65 -0.750712 -1.92478 0
M  V30 14052 C 1357.06 0.694964 -1.75974 0
M  V30 14053 O 1356.4 1.4847 -1.08177 0
M  V30 14054 C 1356.46 -1.02757 -3.44501 0
M  V30 14055 C 1356.12 -2.46565 -3.84779 0
M  V30 14056 C 1357.12 -3.44716 -3.89187 0
M  V30 14057 C 1354.81 -2.81076 -4.16295 0
M  V30 14058 C 1356.8 -4.75433 -4.24549 0
M  V30 14059 C 1354.49 -4.12002 -4.51329 0
M  V30 14060 C 1355.49 -5.08991 -4.55431 0
M  V30 14061 O 1355.17 -6.37571 -4.89652 0
M  V30 14062 H 1354.91 -0.273717 -0.618106 0
M  V30 14063 H 1357.46 -1.38176 -1.51975 0
M  V30 14064 H 1355.69 -0.339383 -3.85208 0
M  V30 14065 H 1357.38 -0.734175 -3.99205 0
M  V30 14066 H 1358.14 -3.19392 -3.64985 0
M  V30 14067 H 1354.02 -2.0626 -4.12284 0
M  V30 14068 H 1357.57 -5.51133 -4.27666 0
M  V30 14069 H 1353.46 -4.37098 -4.7499 0
M  V30 14070 H 1354.23 -6.42107 -5.07583 0
M  V30 14071 N 1356.9 1.35099 -0.81154 0
M  V30 14072 C 1357.84 2.31618 -0.213536 0
M  V30 14073 C 1358.84 1.56868 0.63944 0
M  V30 14074 O 1360.04 1.71957 0.532051 0
M  V30 14075 H 1356.42 0.750316 -0.0502963 0
M  V30 14076 H 1358.39 2.79593 -1.04262 0
M  V30 14077 C 1357.14 3.4214 0.619293 0
M  V30 14078 H 1356.46 3.9979 -0.0277192 0
M  V30 14079 H 1357.9 4.11941 1.00401 0
M  V30 14080 C 1356.36 2.85607 1.7869 0
M  V30 14081 O 1356.89 2.7956 2.8846 0
M  V30 14082 N 1355.1 2.42587 1.6 0
M  V30 14083 H 1354.64 2.47705 0.707105 0
M  V30 14084 H 1354.6 2.0511 2.38279 0
M  V30 14085 N 1358.37 0.56548 1.47106 0
M  V30 14086 C 1359.62 0.0445914 2.02751 0
M  V30 14087 C 1359.95 -1.30517 1.43801 0
M  V30 14088 O 1359.23 -1.85123 0.596646 0
M  V30 14089 C 1359.51 -0.0396474 3.60078 0
M  V30 14090 C 1359.36 1.3378 4.29445 0
M  V30 14091 C 1360.68 -0.748954 4.3368 0
M  V30 14092 H 1357.8 0.0176787 0.736788 0
M  V30 14093 H 1360.44 0.729363 1.75443 0
M  V30 14094 H 1358.59 -0.622826 3.83475 0
M  V30 14095 H 1360.27 1.96482 4.17364 0
M  V30 14096 H 1358.51 1.91024 3.89477 0
M  V30 14097 H 1359.18 1.23149 5.38088 0
M  V30 14098 H 1361.66 -0.253707 4.15326 0
M  V30 14099 H 1360.53 -0.776877 5.43374 0
M  V30 14100 H 1360.79 -1.80679 4.03494 0
M  V30 14101 N 1359.85 -1.54672 0.302354 0
M  V30 14102 C 1360.8 -2.25022 -0.58887 0
M  V30 14103 C 1361.79 -1.25671 -1.13592 0
M  V30 14104 O 1363 -1.43518 -1.0864 0
M  V30 14105 H 1359.38 -0.722515 -0.208509 0
M  V30 14106 H 1361.35 -2.98388 0.0269928 0
M  V30 14107 C 1360.1 -3.00532 -1.74859 0
M  V30 14108 H 1359.42 -3.76786 -1.33688 0
M  V30 14109 H 1360.86 -3.53036 -2.34823 0
M  V30 14110 C 1359.32 -2.0758 -2.65353 0
M  V30 14111 O 1359.85 -1.64473 -3.66485 0
M  V30 14112 N 1358.05 -1.73508 -2.33116 0
M  V30 14113 H 1357.6 -2.0876 -1.5092 0
M  V30 14114 H 1357.56 -1.11591 -2.9393 0
M  V30 14115 N 1361.33 -0.0301034 -1.57571 0
M  V30 14116 C 1362.58 0.649283 -1.92125 0
M  V30 14117 C 1362.91 1.71722 -0.90692 0
M  V30 14118 O 1362.18 1.94373 0.0702019 0
M  V30 14119 C 1362.47 1.26482 -3.37156 0
M  V30 14120 C 1362.32 0.206375 -4.49326 0
M  V30 14121 C 1363.64 2.18256 -3.82168 0
M  V30 14122 H 1360.76 0.234561 -0.698678 0
M  V30 14123 H 1363.4 -0.0875634 -1.89798 0
M  V30 14124 H 1361.55 1.89283 -3.3927 0
M  V30 14125 H 1363.22 -0.424268 -4.59345 0
M  V30 14126 H 1361.47 -0.468035 -4.31268 0
M  V30 14127 H 1362.14 0.676689 -5.47837 0
M  V30 14128 H 1364.61 1.65441 -3.81797 0
M  V30 14129 H 1363.49 2.58277 -4.84339 0
M  V30 14130 H 1363.75 3.07411 -3.17727 0
M  V30 14131 N 1362.81 1.55714 0.243056 0
M  V30 14132 C 1363.77 1.89832 1.28438 0
M  V30 14133 C 1364.77 0.775083 1.40887 0
M  V30 14134 O 1365.96 1.04304 1.39521 0
M  V30 14135 C 1363.09 2.13016 2.66153 0
M  V30 14136 H 1364.29 2.82947 0.994022 0
M  V30 14137 H 1361.84 1.48665 0.482521 0
M  V30 14138 H 1362.57 1.22381 3.00322 0
M  V30 14139 H 1362.36 2.94824 2.58498 0
M  V30 14140 H 1363.85 2.40581 3.41336 0
M  V30 14141 N 1364.29 -0.50888 1.49158 0
M  V30 14142 C 1365.53 -1.26274 1.59456 0
M  V30 14143 C 1365.89 -1.90436 0.274217 0
M  V30 14144 O 1365.18 -1.77359 -0.724875 0
M  V30 14145 C 1365.37 -2.35875 2.6851 0
M  V30 14146 C 1365.2 -1.8246 4.11021 0
M  V30 14147 C 1363.97 -1.64114 4.77907 0
M  V30 14148 C 1366.17 -1.34097 4.9651 0
M  V30 14149 N 1364.15 -1.05546 6.04759 0
M  V30 14150 C 1365.52 -0.876125 6.13779 0
M  V30 14151 C 1367.58 -1.22596 4.82571 0
M  V30 14152 C 1366.28 -0.307659 7.18642 0
M  V30 14153 C 1368.31 -0.671474 5.87576 0
M  V30 14154 C 1367.67 -0.216816 7.04066 0
M  V30 14155 H 1363.77 -0.452321 0.63791 0
M  V30 14156 H 1366.35 -0.571257 1.86131 0
M  V30 14157 H 1364.52 -3.02494 2.43622 0
M  V30 14158 H 1366.26 -3.02915 2.68374 0
M  V30 14159 H 1363.01 -1.88254 4.34577 0
M  V30 14160 H 1363.44 -0.782114 6.72467 0
M  V30 14161 H 1368.08 -1.56348 3.9283 0
M  V30 14162 H 1365.8 0.0421419 8.08089 0
M  V30 14163 H 1369.38 -0.585375 5.78848 0
M  V30 14164 H 1368.26 0.205554 7.83931 0
M  V30 14165 N 1365.76 -1.381 -0.759346 0
M  V30 14166 C 1366.99 -1.37213 -1.54855 0
M  V30 14167 C 1367.41 0.0395175 -1.88759 0
M  V30 14168 O 1366.76 1.00462 -1.5236 0
M  V30 14169 C 1366.82 -2.22232 -2.85123 0
M  V30 14170 O 1366.54 -3.57897 -2.52668 0
M  V30 14171 C 1368.04 -2.29461 -3.79292 0
M  V30 14172 H 1365.26 -0.469542 -0.479345 0
M  V30 14173 H 1367.8 -1.81604 -0.940216 0
M  V30 14174 H 1365.96 -1.81317 -3.42349 0
M  V30 14175 H 1366.37 -4.02599 -3.36176 0
M  V30 14176 H 1367.84 -2.93246 -4.67665 0
M  V30 14177 H 1368.32 -1.3066 -4.19315 0
M  V30 14178 H 1368.93 -2.70741 -3.27993 0
M  V30 14179 N 1367.24 0.986894 -1.22875 0
M  V30 14180 C 1368.49 1.72388 -1.05484 0
M  V30 14181 C 1368.81 1.90639 0.410074 0
M  V30 14182 O 1368.08 1.47036 1.2945 0
M  V30 14183 H 1366.66 0.638732 -0.387337 0
M  V30 14184 H 1369.32 1.18829 -1.54485 0
M  V30 14185 H 1368.42 2.71599 -1.53754 0
M  V30 14186 N 1368.72 1.0394 1.18466 0
M  V30 14187 C 1369.97 0.740576 1.88042 0
M  V30 14188 C 1370.29 -0.733822 1.80666 0
M  V30 14189 O 1369.56 -1.52943 1.22414 0
M  V30 14190 H 1368.14 0.270949 0.696129 0
M  V30 14191 H 1370.8 1.31588 1.43772 0
M  V30 14192 H 1369.9 1.04429 2.94111 0
M  V30 14193 N 1370.2 -1.34667 0.818693 0
M  V30 14194 C 1371.44 -1.98708 0.405359 0
M  V30 14195 C 1371.78 -1.64767 -1.02788 0
M  V30 14196 O 1371.05 -0.91714 -1.71519 0
M  V30 14197 C 1371.34 -3.55016 0.602966 0
M  V30 14198 C 1371.19 -3.98713 2.08201 0
M  V30 14199 C 1372.51 -4.40085 0.0362489 0
M  V30 14200 H 1369.63 -0.721831 0.148756 0
M  V30 14201 H 1372.27 -1.59628 1.03047 0
M  V30 14202 H 1370.42 -3.88435 0.0708453 0
M  V30 14203 H 1372.09 -3.75647 2.67745 0
M  V30 14204 H 1370.33 -3.49179 2.57403 0
M  V30 14205 H 1371 -5.0751 2.17111 0
M  V30 14206 H 1373.48 -4.13195 0.490837 0
M  V30 14207 H 1372.36 -5.4852 0.204344 0
M  V30 14208 H 1372.62 -4.29243 -1.05845 0
M  V30 14209 N 1371.68 -0.573274 -1.46804 0
M  V30 14210 C 1372.95 0.011163 -1.95597 0
M  V30 14211 C 1373.33 1.4691 -1.51594 0
M  V30 14212 O 1372.68 2.15413 -0.76221 0
M  V30 14213 C 1372.89 -0.151045 -3.48673 0
M  V30 14214 C 1374.24 -0.0139817 -4.24598 0
M  V30 14215 O 1375.26 -0.0794008 -3.56111 0
M  V30 14216 O 1374.12 0.129547 -5.46346 0
M  V30 14217 H 1371.22 0.0551258 -0.825161 0
M  V30 14218 H 1373.76 -0.640928 -1.57131 0
M  V30 14219 H 1372.53 -1.16494 -3.73557 0
M  V30 14220 H 1372.16 0.537917 -3.93944 0
M  V30 14221 N 1373.15 1.5451 -0.310553 0
M  V30 14222 C 1374.57 1.85829 0.180166 0
M  V30 14223 C 1374.92 1.23239 1.52665 0
M  V30 14224 O 1374.04 0.53359 2.09718 0
M  V30 14225 C 1374.64 3.37153 0.333687 0
M  V30 14226 C 1373.2 3.68469 0.768625 0
M  V30 14227 C 1372.34 2.77051 -0.117399 0
M  V30 14228 H 1375.29 1.49544 -0.531262 0
M  V30 14229 H 1375.31 3.62171 1.16673 0
M  V30 14230 H 1374.83 3.82678 -0.646455 0
M  V30 14231 H 1372.93 3.28467 1.75898 0
M  V30 14232 H 1373.04 4.75559 0.581392 0
M  V30 14233 H 1371.4 2.51461 0.404905 0
M  V30 14234 H 1372.19 3.254 -1.09407 0
M  V30 14235 N 1374.63 0.0384594 1.57553 0
M  V30 14236 C 1376.04 -0.499057 1.79906 0
M  V30 14237 C 1376.4 -1.7169 0.949577 0
M  V30 14238 O 1375.52 -2.15788 0.162584 0
M  V30 14239 C 1376.12 -0.912155 3.2629 0
M  V30 14240 C 1374.67 -1.39473 3.49606 0
M  V30 14241 C 1373.82 -0.363859 2.74902 0
M  V30 14242 H 1376.77 0.264433 1.56481 0
M  V30 14243 H 1376.79 -1.77592 3.36513 0
M  V30 14244 H 1376.31 -0.0255928 3.88092 0
M  V30 14245 H 1374.41 -2.3009 2.93068 0
M  V30 14246 H 1374.52 -1.39566 4.58321 0
M  V30 14247 H 1372.88 -0.833993 2.40659 0
M  V30 14248 H 1373.67 0.514398 3.39424 0
M  V30 14249 N 1376.11 -1.55841 -0.234795 0
M  V30 14250 C 1377.36 -1.77438 -0.959094 0
M  V30 14251 C 1377.67 -0.604621 -1.86021 0
M  V30 14252 O 1378.88 -0.703897 -2.62217 0
M  V30 14253 C 1377.34 -3.14182 -1.7555 0
M  V30 14254 C 1376.94 -4.38843 -0.90118 0
M  V30 14255 C 1378.69 -3.45112 -2.47181 0
M  V30 14256 C 1376.59 -5.66614 -1.69417 0
M  V30 14257 H 1375.52 -0.661503 -0.361843 0
M  V30 14258 H 1378.18 -1.82255 -0.213364 0
M  V30 14259 H 1376.56 -3.03505 -2.54364 0
M  V30 14260 H 1377.73 -4.60541 -0.154515 0
M  V30 14261 H 1376.05 -4.15335 -0.297631 0
M  V30 14262 H 1378.64 -4.37794 -3.06986 0
M  V30 14263 H 1378.99 -2.66995 -3.19405 0
M  V30 14264 H 1379.52 -3.57059 -1.75368 0
M  V30 14265 H 1376.26 -6.47587 -1.01545 0
M  V30 14266 H 1375.78 -5.48998 -2.4158 0
M  V30 14267 H 1377.46 -6.06311 -2.25824 0
M  V30 14268 N 1377.59 0.500963 -1.49426 0
M  V30 14269 C 1378.84 1.25261 -1.58601 0
M  V30 14270 C 1379.16 1.93056 -0.274647 0
M  V30 14271 O 1378.43 1.82736 0.706003 0
M  V30 14272 H 1377.01 0.465328 -0.584362 0
M  V30 14273 H 1379.67 0.580588 -1.86052 0
M  V30 14274 H 1378.77 2.01652 -2.38208 0
M  V30 14275 N 1379.07 1.38501 0.752011 0
M  V30 14276 C 1380.34 1.25315 1.50185 0
M  V30 14277 C 1380.72 -0.144762 2.10603 0
M  V30 14278 O 1380.07 -1.15441 1.97194 0
M  V30 14279 C 1380.28 2.36451 2.56694 0
M  V30 14280 C 1381.63 2.74952 3.23553 0
M  V30 14281 O 1382.65 2.35774 2.67 0
M  V30 14282 O 1381.51 3.42517 4.25845 0
M  V30 14283 H 1378.61 0.490139 0.666103 0
M  V30 14284 H 1381.15 1.50333 0.787288 0
M  V30 14285 H 1379.93 3.29978 2.10309 0
M  V30 14286 H 1379.55 2.13006 3.35729 0
M  V30 14287 N 1380.55 -0.980364 1.23396 0
M  V30 14288 C 1381.79 -1.72421 1.06765 0
M  V30 14289 C 1382.12 -1.90151 -0.394515 0
M  V30 14290 O 1381.4 -1.4538 -1.29209 0
M  V30 14291 C 1381.68 -3.12246 1.79372 0
M  V30 14292 C 1381.54 -3.02087 3.33262 0
M  V30 14293 C 1382.85 -4.11667 1.55624 0
M  V30 14294 H 1379.97 -0.625822 0.389251 0
M  V30 14295 H 1382.62 -1.14132 1.51901 0
M  V30 14296 H 1380.77 -3.62008 1.41004 0
M  V30 14297 H 1382.44 -2.59848 3.81152 0
M  V30 14298 H 1380.68 -2.38592 3.62293 0
M  V30 14299 H 1381.35 -4.01087 3.79254 0
M  V30 14300 H 1383.83 -3.70712 1.88975 0
M  V30 14301 H 1382.7 -5.07593 2.08902 0
M  V30 14302 H 1382.96 -4.39358 0.491601 0
M  V30 14303 N 1382.02 -1.04567 -1.17913 0
M  V30 14304 C 1382.93 -0.651674 -2.25367 0
M  V30 14305 C 1383.95 0.32437 -1.7095 0
M  V30 14306 O 1385.13 0.178039 -2.00612 0
M  V30 14307 C 1382.19 -0.0259452 -3.4669 0
M  V30 14308 C 1381.25 -1.05163 -4.1622 0
M  V30 14309 C 1380.48 -0.45567 -5.31751 0
M  V30 14310 O 1380.71 0.736698 -5.65623 0
M  V30 14311 O 1379.64 -1.18684 -5.90083 0
M  V30 14312 H 1383.47 -1.54704 -2.61344 0
M  V30 14313 H 1381.05 -0.816852 -1.25092 0
M  V30 14314 H 1382.93 0.322126 -4.20167 0
M  V30 14315 H 1381.61 0.843165 -3.12526 0
M  V30 14316 H 1380.52 -1.45159 -3.44789 0
M  V30 14317 H 1381.85 -1.89168 -4.54397 0
M  V30 14318 N 1383.5 1.34231 -0.825823 0
M  V30 14319 C 1384.73 2.02124 -0.427727 0
M  V30 14320 C 1385.14 1.62331 0.971869 0
M  V30 14321 O 1384.48 0.825946 1.64085 0
M  V30 14322 C 1384.54 3.56626 -0.453698 0
M  V30 14323 C 1384.21 4.19752 -1.80713 0
M  V30 14324 C 1385.21 4.40062 -2.76842 0
M  V30 14325 C 1382.89 4.5646 -2.09641 0
M  V30 14326 C 1384.88 4.9621 -4.00069 0
M  V30 14327 C 1382.57 5.12318 -3.33127 0
M  V30 14328 C 1383.57 5.32137 -4.28158 0
M  V30 14329 O 1383.26 5.86811 -5.49462 0
M  V30 14330 H 1382.99 0.654389 -0.169563 0
M  V30 14331 H 1385.54 1.72421 -1.11624 0
M  V30 14332 H 1383.77 3.856 0.291527 0
M  V30 14333 H 1385.46 4.0583 -0.075249 0
M  V30 14334 H 1386.23 4.12064 -2.5579 0
M  V30 14335 H 1382.11 4.40337 -1.36473 0
M  V30 14336 H 1385.65 5.11594 -4.74254 0
M  V30 14337 H 1381.55 5.39746 -3.54041 0
M  V30 14338 H 1382.32 6.05242 -5.51022 0
M  V30 14339 N 1384.98 0.581051 1.46498 0
M  V30 14340 C 1385.91 -0.140957 2.33074 0
M  V30 14341 C 1386.89 -0.885323 1.45245 0
M  V30 14342 O 1388.08 -0.86111 1.74065 0
M  V30 14343 C 1385.21 -1.15625 3.27488 0
M  V30 14344 C 1384.16 -0.526829 4.24745 0
M  V30 14345 C 1383.49 -1.64847 5.08655 0
M  V30 14346 C 1384.79 0.53492 5.19554 0
M  V30 14347 H 1386.48 0.581888 2.93691 0
M  V30 14348 H 1384.03 0.281278 1.41226 0
M  V30 14349 H 1385.98 -1.6697 3.8691 0
M  V30 14350 H 1384.7 -1.90935 2.64974 0
M  V30 14351 H 1383.36 -0.0344738 3.66584 0
M  V30 14352 H 1383.01 -2.3912 4.42528 0
M  V30 14353 H 1382.71 -1.23298 5.74518 0
M  V30 14354 H 1384.23 -2.16472 5.7094 0
M  V30 14355 H 1385.65 0.106606 5.73201 0
M  V30 14356 H 1384.04 0.870639 5.93751 0
M  V30 14357 H 1385.11 1.42184 4.63586 0
M  V30 14358 N 1386.46 -1.54343 0.318742 0
M  V30 14359 C 1387.69 -2.04894 -0.287378 0
M  V30 14360 C 1388.1 -1.19514 -1.46157 0
M  V30 14361 O 1387.46 -0.224722 -1.81111 0
M  V30 14362 C 1387.51 -3.54124 -0.726505 0
M  V30 14363 O 1387.23 -4.36261 0.400968 0
M  V30 14364 C 1388.73 -4.20748 -1.39594 0
M  V30 14365 H 1385.95 -0.668323 -0.0598724 0
M  V30 14366 H 1388.49 -1.99177 0.463531 0
M  V30 14367 H 1386.65 -3.60145 -1.4274 0
M  V30 14368 H 1387.06 -5.2447 0.0558714 0
M  V30 14369 H 1388.54 -5.26632 -1.65418 0
M  V30 14370 H 1389.01 -3.71566 -2.3417 0
M  V30 14371 H 1389.62 -4.18852 -0.737749 0
M  V30 14372 N 1387.94 -0.0468143 -1.5753 0
M  V30 14373 C 1388.9 0.914225 -2.10177 0
M  V30 14374 C 1389.9 1.24271 -1.02045 0
M  V30 14375 O 1391.09 1.18012 -1.28136 0
M  V30 14376 C 1388.22 2.22544 -2.58238 0
M  V30 14377 H 1389.41 0.457922 -2.96383 0
M  V30 14378 H 1386.97 0.20152 -1.54995 0
M  V30 14379 H 1387.7 2.72765 -1.75413 0
M  V30 14380 H 1387.49 2.00007 -3.37253 0
M  V30 14381 H 1388.98 2.91392 -2.99133 0
M  V30 14382 N 1389.41 1.55964 0.226527 0
M  V30 14383 C 1390.66 1.78745 0.95165 0
M  V30 14384 C 1390.99 0.614714 1.84531 0
M  V30 14385 O 1390.24 -0.401137 1.91545 0
M  V30 14386 C 1390.54 3.07235 1.82597 0
M  V30 14387 C 1390.21 4.37627 1.08596 0
M  V30 14388 C 1388.87 4.73057 0.881531 0
M  V30 14389 C 1391.22 5.1815 0.563019 0
M  V30 14390 C 1388.55 5.86528 0.142172 0
M  V30 14391 C 1390.9 6.3239 -0.162972 0
M  V30 14392 C 1389.57 6.66425 -0.378704 0
M  V30 14393 H 1388.84 0.654075 0.348233 0
M  V30 14394 H 1391.48 1.9023 0.220187 0
M  V30 14395 H 1389.79 2.9085 2.62514 0
M  V30 14396 H 1391.49 3.22063 2.38907 0
M  V30 14397 H 1388.08 4.09806 1.25527 0
M  V30 14398 H 1392.26 4.91218 0.708446 0
M  V30 14399 H 1387.52 6.1139 -0.0352481 0
M  V30 14400 H 1391.69 6.94016 -0.575719 0
M  V30 14401 H 1389.32 7.54196 -0.953549 0
M  V30 14402 N 1390.89 -0.493031 1.4969 0
M  V30 14403 C 1392.31 -0.824908 1.36629 0
M  V30 14404 C 1392.51 -1.97378 0.405487 0
M  V30 14405 O 1391.56 -2.51993 -0.159933 0
M  V30 14406 C 1392.88 -1.15761 2.77524 0
M  V30 14407 C 1394.43 -1.26536 2.86282 0
M  V30 14408 C 1394.9 -1.63131 4.27963 0
M  V30 14409 N 1396.39 -1.70165 4.30811 0
M  V30 14410 C 1397.13 -1.99942 5.37411 0
M  V30 14411 N 1396.62 -2.27888 6.54247 0
M  V30 14412 N 1398.42 -2.0126 5.24834 0
M  V30 14413 H 1390.57 0.264433 2.10748 0
M  V30 14414 H 1392.83 0.0557306 0.94636 0
M  V30 14415 H 1392.54 -0.386714 3.49567 0
M  V30 14416 H 1392.41 -2.09915 3.13393 0
M  V30 14417 H 1394.8 -2.02696 2.14472 0
M  V30 14418 H 1394.88 -0.304137 2.53986 0
M  V30 14419 H 1394.52 -0.875184 5.00303 0
M  V30 14420 H 1394.45 -2.60367 4.5773 0
M  V30 14421 H 1396.94 -1.50696 3.46553 0
M  V30 14422 H 1397.26 -2.4982 7.31307 0
M  V30 14423 H 1395.6 -2.25327 6.57459 0
M  V30 14424 H 1398.79 -1.78909 4.32561 0
M  V30 14425 H 1398.96 -2.24131 6.08004 0
M  V30 14426 N 1392.37 -1.38898 -0.744656 0
M  V30 14427 C 1393.6 -1.38848 -1.53391 0
M  V30 14428 C 1394.01 0.0194949 -1.8879 0
M  V30 14429 O 1393.37 0.988399 -1.53417 0
M  V30 14430 C 1393.42 -2.25243 -2.8275 0
M  V30 14431 O 1393.14 -3.60557 -2.48858 0
M  V30 14432 C 1394.64 -2.33471 -3.76837 0
M  V30 14433 H 1391.86 -0.4746 -0.474338 0
M  V30 14434 H 1394.41 -1.82591 -0.920902 0
M  V30 14435 H 1392.56 -1.84938 -3.40407 0
M  V30 14436 H 1392.98 -4.06142 -3.31887 0
M  V30 14437 H 1394.45 -2.9819 -4.64528 0
M  V30 14438 H 1394.93 -1.351 -4.17905 0
M  V30 14439 H 1395.53 -2.74205 -3.25103 0
M  V30 14440 N 1393.85 0.973806 -1.23914 0
M  V30 14441 C 1395.09 1.71852 -1.07678 0
M  V30 14442 C 1395.43 1.90357 0.384425 0
M  V30 14443 O 1394.7 1.46063 1.28436 0
M  V30 14444 C 1394.99 3.1129 -1.81026 0
M  V30 14445 C 1394.84 3.00315 -3.3486 0
M  V30 14446 C 1396.16 4.10835 -1.57805 0
M  V30 14447 H 1393.28 0.623749 -0.392564 0
M  V30 14448 H 1395.92 1.13325 -1.52504 0
M  V30 14449 H 1394.07 3.61255 -1.42922 0
M  V30 14450 H 1395.74 2.57823 -3.82524 0
M  V30 14451 H 1393.98 2.36667 -3.63553 0
M  V30 14452 H 1394.65 3.9907 -3.81376 0
M  V30 14453 H 1397.13 3.69705 -1.90939 0
M  V30 14454 H 1396.01 5.06478 -2.11591 0
M  V30 14455 H 1396.27 4.39091 -0.514894 0
M  V30 14456 N 1395.33 1.05191 1.17357 0
M  V30 14457 C 1396.57 0.763113 1.87895 0
M  V30 14458 C 1396.91 -0.708071 1.80831 0
M  V30 14459 O 1396.18 -1.51777 1.21631 0
M  V30 14460 C 1396.46 1.2442 3.37923 0
M  V30 14461 C 1396.32 2.77832 3.53737 0
M  V30 14462 C 1397.64 0.843209 4.31947 0
M  V30 14463 H 1394.75 0.27869 0.682276 0
M  V30 14464 H 1397.4 1.3059 1.38008 0
M  V30 14465 H 1395.55 0.782438 3.80539 0
M  V30 14466 H 1397.22 3.32131 3.20135 0
M  V30 14467 H 1395.46 3.17108 2.96015 0
M  V30 14468 H 1396.13 3.06555 4.59052 0
M  V30 14469 H 1398.61 1.24073 3.97171 0
M  V30 14470 H 1397.48 1.20743 5.35455 0
M  V30 14471 H 1397.75 -0.252802 4.41377 0
M  V30 14472 N 1396.8 -1.33791 0.83293 0
M  V30 14473 C 1397.74 -2.27259 0.207019 0
M  V30 14474 C 1398.72 -1.49372 -0.642403 0
M  V30 14475 O 1399.9 -1.78562 -0.603963 0
M  V30 14476 C 1397.03 -3.31177 -0.709885 0
M  V30 14477 C 1396.07 -4.26453 0.0633036 0
M  V30 14478 S 1396.91 -5.16406 1.41721 0
M  V30 14479 C 1398.06 -6.23856 0.505446 0
M  V30 14480 H 1398.29 -2.79998 0.999422 0
M  V30 14481 H 1395.83 -1.40991 0.629361 0
M  V30 14482 H 1397.79 -3.91535 -1.23332 0
M  V30 14483 H 1396.45 -2.77265 -1.4759 0
M  V30 14484 H 1395.64 -4.99995 -0.634145 0
M  V30 14485 H 1395.24 -3.70401 0.517607 0
M  V30 14486 H 1397.53 -6.7684 -0.299066 0
M  V30 14487 H 1398.48 -6.97671 1.21084 0
M  V30 14488 H 1398.88 -5.64429 0.0894308 0
M  V30 14489 N 1398.28 -0.588812 -1.46187 0
M  V30 14490 C 1399.69 -0.163897 -1.85979 0
M  V30 14491 C 1400.04 1.27458 -1.49161 0
M  V30 14492 O 1399.17 1.96365 -0.909372 0
M  V30 14493 C 1399.76 -0.29067 -3.37551 0
M  V30 14494 C 1398.32 0.0794165 -3.76316 0
M  V30 14495 C 1397.47 -0.623807 -2.70192 0
M  V30 14496 H 1400.42 -0.79666 -1.37255 0
M  V30 14497 H 1400.44 0.482316 -3.77431 0
M  V30 14498 H 1399.95 -1.33771 -3.64317 0
M  V30 14499 H 1398.06 1.12636 -3.55168 0
M  V30 14500 H 1398.17 -0.301153 -4.78153 0
M  V30 14501 H 1396.53 -0.0634124 -2.54621 0
M  V30 14502 H 1397.32 -1.67261 -2.99797 0
M  V30 14503 N 1399.76 1.54172 -0.326923 0
M  V30 14504 C 1401.01 1.99809 0.275554 0
M  V30 14505 C 1401.32 1.21886 1.52981 0
M  V30 14506 O 1402.53 1.57917 2.20849 0
M  V30 14507 C 1400.98 3.55802 0.541543 0
M  V30 14508 C 1400.59 4.42563 -0.695853 0
M  V30 14509 C 1402.34 4.09898 1.10379 0
M  V30 14510 C 1400.24 5.90035 -0.401581 0
M  V30 14511 H 1399.17 0.746406 0.106742 0
M  V30 14512 H 1401.82 1.78155 -0.439669 0
M  V30 14513 H 1400.21 3.73457 1.31704 0
M  V30 14514 H 1401.38 4.36684 -1.47118 0
M  V30 14515 H 1399.7 3.99373 -1.17855 0
M  V30 14516 H 1402.29 5.17672 1.33863 0
M  V30 14517 H 1402.64 3.62089 2.0542 0
M  V30 14518 H 1403.17 3.9589 0.389395 0
M  V30 14519 H 1399.91 6.42046 -1.32126 0
M  V30 14520 H 1399.43 5.98858 0.335977 0
M  V30 14521 H 1401.11 6.46999 -0.0126539 0
M  V30 14522 N 1401.24 0.0551678 1.57503 0
M  V30 14523 C 1402.2 -0.903065 2.10659 0
M  V30 14524 C 1403.2 -1.23728 1.02703 0
M  V30 14525 O 1404.39 -1.17331 1.2876 0
M  V30 14526 C 1401.52 -2.21171 2.59415 0
M  V30 14527 H 1402.72 -0.442197 2.96622 0
M  V30 14528 H 1400.27 -0.193297 1.551 0
M  V30 14529 H 1401 -2.71831 1.76858 0
M  V30 14530 H 1400.79 -1.98216 3.38309 0
M  V30 14531 H 1402.28 -2.89802 3.00674 0
M  V30 14532 N 1402.72 -1.56081 -0.218252 0
M  V30 14533 C 1403.67 -1.89082 -1.27405 0
M  V30 14534 C 1404.65 -0.754204 -1.42129 0
M  V30 14535 O 1405.84 -1.01668 -1.44888 0
M  V30 14536 C 1402.97 -2.21387 -2.62379 0
M  V30 14537 C 1402.06 -3.41448 -2.51543 0
M  V30 14538 N 1402.45 -4.5998 -2.10362 0
M  V30 14539 C 1400.75 -3.45128 -2.82494 0
M  V30 14540 C 1401.45 -5.42139 -2.10857 0
M  V30 14541 N 1400.42 -4.81936 -2.51472 0
M  V30 14542 H 1404.23 -2.78238 -0.946609 0
M  V30 14543 H 1401.74 -1.56691 -0.426801 0
M  V30 14544 H 1403.74 -2.43205 -3.38611 0
M  V30 14545 H 1402.4 -1.33545 -2.95966 0
M  V30 14546 H 1403.41 -4.85077 -1.8144 0
M  V30 14547 H 1400.08 -2.67638 -3.20431 0
M  V30 14548 H 1401.47 -6.47029 -1.81114 0
M  V30 14549 N 1404.2 0.485086 -1.49949 0
M  V30 14550 C 1405.11 1.61089 -1.70551 0
M  V30 14551 C 1406.12 1.63752 -0.588333 0
M  V30 14552 O 1407.3 1.81879 -0.86498 0
M  V30 14553 C 1404.36 2.97382 -1.78227 0
M  V30 14554 C 1403.42 3.05219 -3.01894 0
M  V30 14555 C 1402.66 4.35011 -3.09195 0
M  V30 14556 O 1402.88 5.24722 -2.23658 0
M  V30 14557 O 1401.81 4.48151 -4.01802 0
M  V30 14558 H 1405.64 1.46633 -2.65956 0
M  V30 14559 H 1403.22 0.663091 -1.33879 0
M  V30 14560 H 1405.11 3.78356 -1.85538 0
M  V30 14561 H 1403.78 3.12066 -0.860043 0
M  V30 14562 H 1402.69 2.23373 -3.00092 0
M  V30 14563 H 1404.02 2.95467 -3.93649 0
M  V30 14564 N 1405.67 1.39291 0.737279 0
M  V30 14565 C 1406.92 1.3639 1.49679 0
M  V30 14566 C 1407.25 -0.0408859 1.94457 0
M  V30 14567 O 1406.5 -1.02127 1.66939 0
M  V30 14568 C 1406.8 2.28043 2.75193 0
M  V30 14569 C 1406.47 3.75717 2.49294 0
M  V30 14570 C 1405.13 4.15955 2.41941 0
M  V30 14571 C 1407.48 4.69127 2.27088 0
M  V30 14572 C 1404.81 5.47669 2.10419 0
M  V30 14573 C 1407.16 6.01116 1.97084 0
M  V30 14574 C 1405.83 6.4042 1.88197 0
M  V30 14575 H 1405.1 0.499088 0.547716 0
M  V30 14576 H 1407.74 1.71779 0.846416 0
M  V30 14577 H 1406.05 1.85765 3.44962 0
M  V30 14578 H 1407.75 2.23093 3.33212 0
M  V30 14579 H 1404.34 3.43825 2.55896 0
M  V30 14580 H 1408.52 4.38875 2.31739 0
M  V30 14581 H 1403.78 5.77046 2.02059 0
M  V30 14582 H 1407.95 6.73026 1.78909 0
M  V30 14583 H 1405.58 7.42401 1.63537 0
M  V30 14584 N 1407.15 -0.967221 1.24429 0
M  V30 14585 C 1408.38 -1.75053 1.11226 0
M  V30 14586 C 1408.8 -1.85162 -0.331139 0
M  V30 14587 O 1408.16 -1.32288 -1.23974 0
M  V30 14588 C 1408.21 -3.14882 1.75733 0
M  V30 14589 O 1407.31 -3.99371 1.02842 0
M  V30 14590 H 1406.65 -0.538078 0.389061 0
M  V30 14591 H 1409.18 -1.21325 1.64746 0
M  V30 14592 H 1409.19 -3.65402 1.81509 0
M  V30 14593 H 1407.87 -3.06839 2.80754 0
M  V30 14594 H 1406.44 -3.57854 1.04856 0
M  V30 14595 N 1408.63 -1.05812 -1.16797 0
M  V30 14596 C 1410.04 -0.79707 -1.6883 0
M  V30 14597 C 1410.39 0.679967 -1.8404 0
M  V30 14598 O 1409.52 1.5279 -1.53245 0
M  V30 14599 C 1410.11 -1.44029 -3.06661 0
M  V30 14600 C 1408.67 -1.22714 -3.55835 0
M  V30 14601 C 1407.82 -1.51988 -2.31937 0
M  V30 14602 H 1410.77 -1.22224 -1.01227 0
M  V30 14603 H 1410.79 -0.852962 -3.70816 0
M  V30 14604 H 1410.3 -2.51529 -2.95559 0
M  V30 14605 H 1408.4 -0.171671 -3.72204 0
M  V30 14606 H 1408.52 -1.93646 -4.38221 0
M  V30 14607 H 1406.88 -0.940215 -2.36711 0
M  V30 14608 H 1407.66 -2.60635 -2.23438 0
M  V30 14609 N 1410.11 1.33347 -0.840014 0
M  V30 14610 C 1411.38 1.92293 -0.358158 0
M  V30 14611 C 1411.76 1.76594 1.15662 0
M  V30 14612 O 1411.11 1.15503 1.97158 0
M  V30 14613 C 1411.32 3.39558 -0.806329 0
M  V30 14614 C 1412.67 4.16705 -0.81501 0
M  V30 14615 O 1413.69 3.48214 -0.75001 0
M  V30 14616 O 1412.55 5.38974 -0.903818 0
M  V30 14617 H 1409.65 0.820737 -0.101585 0
M  V30 14618 H 1412.19 1.42213 -0.925942 0
M  V30 14619 H 1410.97 3.44861 -1.84897 0
M  V30 14620 H 1410.59 3.97017 -0.215181 0
M  V30 14621 N 1411.59 0.596556 1.45873 0
M  V30 14622 C 1412.83 0.0875879 2.02611 0
M  V30 14623 C 1413.16 -1.27438 1.46538 0
M  V30 14624 O 1412.44 -1.83815 0.635779 0
M  V30 14625 C 1412.72 0.0367394 3.60081 0
M  V30 14626 C 1412.58 1.42859 4.26511 0
M  V30 14627 C 1413.89 -0.656795 4.35171 0
M  V30 14628 H 1411.01 0.0333031 0.736247 0
M  V30 14629 H 1413.66 0.766413 1.73857 0
M  V30 14630 H 1411.81 -0.541345 3.8471 0
M  V30 14631 H 1413.48 2.0529 4.13102 0
M  V30 14632 H 1411.72 1.99243 3.85337 0
M  V30 14633 H 1412.39 1.34535 5.35354 0
M  V30 14634 H 1414.87 -0.165553 4.15771 0
M  V30 14635 H 1413.74 -0.661445 5.449 0
M  V30 14636 H 1414 -1.72079 4.07236 0
M  V30 14637 N 1413.06 -1.53996 0.335095 0
M  V30 14638 C 1414.31 -2.01069 -0.264388 0
M  V30 14639 C 1414.64 -1.22271 -1.50876 0
M  V30 14640 O 1413.92 -0.30806 -1.92045 0
M  V30 14641 C 1414.2 -3.55283 -0.587 0
M  V30 14642 C 1414.05 -4.44799 0.668877 0
M  V30 14643 C 1415.37 -4.17238 -1.40003 0
M  V30 14644 H 1412.49 -0.730901 -0.0946202 0
M  V30 14645 H 1415.13 -1.84497 0.453958 0
M  V30 14646 H 1413.28 -3.69536 -1.19899 0
M  V30 14647 H 1414.96 -4.42398 1.30698 0
M  V30 14648 H 1413.2 -4.14005 1.29547 0
M  V30 14649 H 1413.87 -5.5056 0.398523 0
M  V30 14650 H 1416.35 -4.06631 -0.88262 0
M  V30 14651 H 1415.22 -5.2523 -1.59451 0
M  V30 14652 H 1415.48 -3.71309 -2.39962 0
M  V30 14653 N 1414.54 -0.0635198 -1.57472 0
M  V30 14654 C 1415.47 0.90431 -2.15278 0
M  V30 14655 C 1416.45 1.31609 -1.07764 0
M  V30 14656 O 1417.64 1.38861 -1.35762 0
M  V30 14657 C 1414.77 2.17483 -2.70774 0
M  V30 14658 C 1413.72 1.90272 -3.8338 0
M  V30 14659 C 1413.05 3.23885 -4.25444 0
M  V30 14660 C 1414.35 1.21454 -5.07983 0
M  V30 14661 H 1416.04 0.422786 -2.964 0
M  V30 14662 H 1413.59 0.201918 -1.42577 0
M  V30 14663 H 1415.54 2.856 -3.09856 0
M  V30 14664 H 1414.26 2.67863 -1.86861 0
M  V30 14665 H 1412.92 1.24564 -3.44789 0
M  V30 14666 H 1412.57 3.72089 -3.38465 0
M  V30 14667 H 1412.27 3.06472 -5.01347 0
M  V30 14668 H 1413.8 3.93212 -4.67137 0
M  V30 14669 H 1415.21 1.79625 -5.44433 0
M  V30 14670 H 1413.61 1.14327 -5.89109 0
M  V30 14671 H 1414.68 0.19238 -4.84518 0
M  V30 14672 N 1416.02 1.56195 0.209972 0
M  V30 14673 C 1417.27 1.80011 0.93402 0
M  V30 14674 C 1417.6 0.635109 1.83521 0
M  V30 14675 O 1416.87 -0.365099 1.91043 0
M  V30 14676 C 1417.16 3.13989 1.76304 0
M  V30 14677 C 1417.01 4.40956 0.887567 0
M  V30 14678 C 1418.33 3.44514 2.73857 0
M  V30 14679 H 1415.45 0.654859 0.338125 0
M  V30 14680 H 1418.09 1.88921 0.20221 0
M  V30 14681 H 1416.24 3.06524 2.38695 0
M  V30 14682 H 1417.91 4.60452 0.279507 0
M  V30 14683 H 1416.15 4.33368 0.193533 0
M  V30 14684 H 1416.83 5.31164 1.50228 0
M  V30 14685 H 1419.3 3.52182 2.216 0
M  V30 14686 H 1418.18 4.39407 3.28957 0
M  V30 14687 H 1418.44 2.6726 3.52171 0
M  V30 14688 N 1417.5 -0.477127 1.50204 0
M  V30 14689 C 1418.72 -1.25775 1.6491 0
M  V30 14690 C 1419.15 -1.85187 0.329765 0
M  V30 14691 O 1418.51 -1.67004 -0.705641 0
M  V30 14692 C 1418.55 -2.3466 2.73801 0
M  V30 14693 O 1417.66 -3.39147 2.34634 0
M  V30 14694 H 1417 -0.370291 0.551163 0
M  V30 14695 H 1419.53 -0.568514 1.96543 0
M  V30 14696 H 1419.54 -2.80065 2.96695 0
M  V30 14697 H 1418.21 -1.90788 3.69557 0
M  V30 14698 H 1416.79 -2.99496 2.22163 0
M  V30 14699 N 1418.98 -1.3968 -0.729882 0
M  V30 14700 C 1419.94 -1.38577 -1.82562 0
M  V30 14701 C 1420.94 -0.281994 -1.58308 0
M  V30 14702 O 1422.13 -0.540165 -1.65614 0
M  V30 14703 C 1419.26 -1.16343 -3.20433 0
M  V30 14704 H 1420.45 -2.36086 -1.84942 0
M  V30 14705 H 1418.01 -1.25319 -0.934063 0
M  V30 14706 H 1418.74 -0.195372 -3.23711 0
M  V30 14707 H 1418.53 -1.96282 -3.39435 0
M  V30 14708 H 1420.02 -1.18325 -4.00486 0
M  V30 14709 N 1420.45 0.960609 -1.2494 0
M  V30 14710 C 1421.7 1.70111 -1.09117 0
M  V30 14711 C 1422.02 1.91466 0.369544 0
M  V30 14712 O 1421.29 1.49749 1.26302 0
M  V30 14713 H 1419.87 0.630372 -0.400799 0
M  V30 14714 H 1422.54 1.15525 -1.56971 0
M  V30 14715 H 1421.63 2.68277 -1.5948 0
M  V30 14716 N 1421.93 1.0643 1.16234 0
M  V30 14717 C 1423.18 0.78184 1.86798 0
M  V30 14718 C 1423.51 -0.691734 1.81784 0
M  V30 14719 O 1422.76 -1.52271 1.22931 0
M  V30 14720 C 1423.06 1.22348 3.35806 0
M  V30 14721 C 1422.73 2.7014 3.61019 0
M  V30 14722 C 1421.39 3.1051 3.6761 0
M  V30 14723 C 1423.74 3.65582 3.71482 0
M  V30 14724 C 1421.07 4.45159 3.82165 0
M  V30 14725 C 1423.42 4.99981 3.87559 0
M  V30 14726 C 1422.09 5.39986 3.92392 0
M  V30 14727 H 1421.36 0.286096 0.683542 0
M  V30 14728 H 1424 1.33364 1.37427 0
M  V30 14729 H 1422.31 0.590896 3.87319 0
M  V30 14730 H 1424 0.981959 3.88791 0
M  V30 14731 H 1420.59 2.37884 3.56524 0
M  V30 14732 H 1424.78 3.35525 3.657 0
M  V30 14733 H 1420.03 4.75637 3.8416 0
M  V30 14734 H 1424.21 5.73817 3.94597 0
M  V30 14735 H 1421.84 6.44324 4.03423 0
M  V30 14736 N 1423.41 -1.329 0.847073 0
M  V30 14737 C 1424.69 -1.921 0.368351 0
M  V30 14738 C 1425.07 -1.77205 -1.14724 0
M  V30 14739 O 1424.42 -1.16547 -1.96543 0
M  V30 14740 C 1424.63 -3.39125 0.824326 0
M  V30 14741 C 1425.97 -4.16267 0.837097 0
M  V30 14742 O 1427 -3.47812 0.768466 0
M  V30 14743 O 1425.86 -5.38487 0.932389 0
M  V30 14744 H 1422.95 -0.820187 0.105936 0
M  V30 14745 H 1425.5 -1.41719 0.933471 0
M  V30 14746 H 1424.27 -3.43875 1.86723 0
M  V30 14747 H 1423.89 -3.96898 0.236233 0
M  V30 14748 N 1424.89 -0.604284 -1.45555 0
M  V30 14749 C 1425.85 0.106526 -2.28952 0
M  V30 14750 C 1426.85 0.798277 -1.39586 0
M  V30 14751 O 1428.04 0.646943 -1.61741 0
M  V30 14752 C 1425.17 1.16091 -3.20524 0
M  V30 14753 H 1426.37 -0.626655 -2.9328 0
M  V30 14754 H 1423.92 -0.363183 -1.52022 0
M  V30 14755 H 1424.65 1.92496 -2.6099 0
M  V30 14756 H 1424.44 0.669137 -3.86348 0
M  V30 14757 H 1425.93 1.65882 -3.8324 0
M  V30 14758 N 1426.37 1.53816 -0.343257 0
M  V30 14759 C 1427.61 2.01207 0.253721 0
M  V30 14760 C 1427.95 1.23069 1.50225 0
M  V30 14761 O 1427.22 0.31824 1.91879 0
M  V30 14762 C 1427.5 3.5559 0.56815 0
M  V30 14763 C 1427.36 4.44438 -0.692457 0
M  V30 14764 C 1428.68 4.17974 1.37788 0
M  V30 14765 H 1425.79 0.731392 0.0907427 0
M  V30 14766 H 1428.44 1.84254 -0.463736 0
M  V30 14767 H 1426.59 3.70166 1.17937 0
M  V30 14768 H 1428.26 4.41698 -1.33042 0
M  V30 14769 H 1426.5 4.13312 -1.3174 0
M  V30 14770 H 1427.17 5.5034 -0.427715 0
M  V30 14771 H 1429.65 4.07094 0.861043 0
M  V30 14772 H 1428.52 5.26068 1.56663 0
M  V30 14773 H 1428.79 3.72577 2.3799 0
M  V30 14774 N 1427.84 0.0718701 1.57436 0
M  V30 14775 C 1428.75 -0.910077 2.16229 0
M  V30 14776 C 1429.77 -1.32699 1.12548 0
M  V30 14777 O 1430.95 -1.39967 1.44814 0
M  V30 14778 C 1428.01 -2.15942 2.71238 0
M  V30 14779 C 1427.07 -1.79891 3.89792 0
M  V30 14780 C 1426.31 -2.9887 4.42168 0
M  V30 14781 O 1426.53 -4.1289 3.93545 0
M  V30 14782 O 1425.46 -2.78682 5.33498 0
M  V30 14783 H 1429.29 -0.439969 3.00496 0
M  V30 14784 H 1426.87 -0.151204 1.48633 0
M  V30 14785 H 1428.76 -2.89204 3.06494 0
M  V30 14786 H 1427.43 -2.62051 1.90029 0
M  V30 14787 H 1426.34 -1.03881 3.59388 0
M  V30 14788 H 1427.67 -1.38566 4.72293 0
M  V30 14789 N 1429.32 -1.56304 -0.201686 0
M  V30 14790 C 1430.57 -1.79881 -0.921269 0
M  V30 14791 C 1430.89 -0.643809 -1.84065 0
M  V30 14792 O 1430.16 0.338239 -1.92958 0
M  V30 14793 H 1428.74 -0.663506 -0.343175 0
M  V30 14794 H 1431.4 -1.93779 -0.208775 0
M  V30 14795 H 1430.5 -2.7279 -1.51631 0
M  V30 14796 N 1430.8 0.469154 -1.50455 0
M  V30 14797 C 1431.75 1.56456 -1.65848 0
M  V30 14798 C 1432.73 1.52501 -0.513048 0
M  V30 14799 O 1433.93 1.59492 -0.767542 0
M  V30 14800 C 1431.06 2.94887 -1.75774 0
M  V30 14801 C 1430.14 3.03719 -2.96 0
M  V30 14802 N 1430.53 2.8236 -4.1965 0
M  V30 14803 C 1428.83 3.34856 -2.94597 0
M  V30 14804 C 1429.53 2.96208 -5.00635 0
M  V30 14805 N 1428.51 3.26494 -4.3463 0
M  V30 14806 H 1432.31 1.38646 -2.59142 0
M  V30 14807 H 1429.82 0.675918 -1.47666 0
M  V30 14808 H 1431.82 3.73652 -1.84905 0
M  V30 14809 H 1430.48 3.13743 -0.836396 0
M  V30 14810 H 1431.49 2.57904 -4.49117 0
M  V30 14811 H 1428.17 3.59687 -2.1197 0
M  V30 14812 H 1429.56 2.83918 -6.08966 0
M  V30 14813 N 1432.28 1.40065 0.722464 0
M  V30 14814 C 1433.21 1.42532 1.84951 0
M  V30 14815 C 1434.19 0.287082 1.6766 0
M  V30 14816 O 1435.37 0.494715 1.87793 0
M  V30 14817 C 1432.5 1.28041 3.22836 0
M  V30 14818 C 1431.46 2.39396 3.54787 0
M  V30 14819 C 1430.78 2.09986 4.91742 0
M  V30 14820 C 1432.08 3.81729 3.56483 0
M  V30 14821 H 1433.78 2.36851 1.83144 0
M  V30 14822 H 1431.32 1.14005 0.879714 0
M  V30 14823 H 1433.28 1.28385 4.01367 0
M  V30 14824 H 1432 0.301947 3.25201 0
M  V30 14825 H 1430.66 2.3829 2.78592 0
M  V30 14826 H 1430.31 1.10547 4.90702 0
M  V30 14827 H 1430.01 2.84586 5.14086 0
M  V30 14828 H 1431.53 2.12 5.72615 0
M  V30 14829 H 1432.95 3.84696 4.25067 0
M  V30 14830 H 1431.34 4.55791 3.90351 0
M  V30 14831 H 1432.41 4.11807 2.56014 0
M  V30 14832 N 1433.76 -0.95397 1.25448 0
M  V30 14833 C 1434.98 -1.73863 1.13077 0
M  V30 14834 C 1435.41 -1.85503 -0.311481 0
M  V30 14835 O 1434.77 -1.33596 -1.22564 0
M  V30 14836 C 1434.81 -3.13 1.79062 0
M  V30 14837 O 1433.92 -3.98258 1.07072 0
M  V30 14838 H 1433.26 -0.533921 0.394746 0
M  V30 14839 H 1435.79 -1.19571 1.66024 0
M  V30 14840 H 1435.8 -3.63456 1.85374 0
M  V30 14841 H 1434.47 -3.03844 2.83992 0
M  V30 14842 H 1433.05 -3.56722 1.08645 0
M  V30 14843 N 1435.24 -1.07045 -1.15668 0
M  V30 14844 C 1436.65 -0.814932 -1.67975 0
M  V30 14845 C 1437 0.660408 -1.84751 0
M  V30 14846 O 1436.12 1.51156 -1.54857 0
M  V30 14847 C 1436.72 -1.47274 -3.05116 0
M  V30 14848 C 1435.28 -1.26481 -3.54513 0
M  V30 14849 C 1434.42 -1.54439 -2.30312 0
M  V30 14850 H 1437.37 -1.23291 -0.999251 0
M  V30 14851 H 1437.4 -0.892244 -3.69891 0
M  V30 14852 H 1436.91 -2.54649 -2.92874 0
M  V30 14853 H 1435.01 -0.211138 -3.72001 0
M  V30 14854 H 1435.12 -1.98283 -4.36143 0
M  V30 14855 H 1433.49 -0.965269 -2.357 0
M  V30 14856 H 1434.27 -2.6299 -2.20661 0
M  V30 14857 N 1436.71 1.32449 -0.85411 0
M  V30 14858 C 1437.64 2.31383 -0.313697 0
M  V30 14859 C 1438.62 1.59656 0.586858 0
M  V30 14860 O 1439.81 1.87459 0.507216 0
M  V30 14861 C 1436.94 3.43693 0.499235 0
M  V30 14862 C 1435.89 4.26899 -0.306839 0
M  V30 14863 C 1435.22 5.30966 0.630795 0
M  V30 14864 C 1436.52 4.99318 -1.53229 0
M  V30 14865 H 1438.21 2.76832 -1.14037 0
M  V30 14866 H 1435.76 1.33091 -0.549805 0
M  V30 14867 H 1437.71 4.11944 0.887709 0
M  V30 14868 H 1436.44 2.96971 1.35926 0
M  V30 14869 H 1435.1 3.60294 -0.677061 0
M  V30 14870 H 1434.74 4.80498 1.48765 0
M  V30 14871 H 1434.44 5.87522 0.0954635 0
M  V30 14872 H 1435.97 6.0208 1.01646 0
M  V30 14873 H 1437.38 5.60253 -1.21614 0
M  V30 14874 H 1435.78 5.65596 -2.00552 0
M  V30 14875 H 1436.85 4.27213 -2.29383 0
M  V30 14876 N 1438.19 0.611994 1.45232 0
M  V30 14877 C 1439.44 0.108696 2.01807 0
M  V30 14878 C 1439.76 -1.26692 1.48237 0
M  V30 14879 O 1439.03 -1.8378 0.678368 0
M  V30 14880 H 1437.61 0.0371921 0.746074 0
M  V30 14881 H 1440.27 0.794386 1.77976 0
M  V30 14882 H 1439.37 0.0618207 3.12039 0
M  V30 14883 N 1439.67 -1.53632 0.351409 0
M  V30 14884 C 1440.92 -2.00643 -0.242208 0
M  V30 14885 C 1441.24 -1.24074 -1.50435 0
M  V30 14886 O 1440.51 -0.350067 -1.92747 0
M  V30 14887 H 1439.09 -0.741252 -0.0924904 0
M  V30 14888 H 1441.75 -1.89039 0.474379 0
M  V30 14889 H 1440.85 -3.084 -0.479151 0
M  V30 14890 N 1441.15 -0.0802183 -1.57396 0
M  V30 14891 C 1442.38 0.59489 -1.9785 0
M  V30 14892 C 1442.79 1.63174 -0.957641 0
M  V30 14893 O 1442.13 1.83592 0.0629632 0
M  V30 14894 C 1442.19 1.31367 -3.34639 0
M  V30 14895 C 1441.85 0.429303 -4.54979 0
M  V30 14896 C 1442.85 -0.316537 -5.18935 0
M  V30 14897 C 1440.54 0.351714 -5.01067 0
M  V30 14898 C 1442.53 -1.1281 -6.27338 0
M  V30 14899 C 1440.22 -0.463513 -6.0934 0
M  V30 14900 C 1441.22 -1.20208 -6.72338 0
M  V30 14901 O 1440.9 -2.00385 -7.78525 0
M  V30 14902 H 1440.64 0.165331 -0.655471 0
M  V30 14903 H 1443.19 -0.151697 -2.04839 0
M  V30 14904 H 1441.42 2.10651 -3.24289 0
M  V30 14905 H 1443.11 1.88184 -3.59641 0
M  V30 14906 H 1443.87 -0.266237 -4.84269 0
M  V30 14907 H 1439.75 0.916218 -4.51804 0
M  V30 14908 H 1443.3 -1.70508 -6.76441 0
M  V30 14909 H 1439.19 -0.515347 -6.4344 0
M  V30 14910 H 1439.96 -1.92907 -7.95443 0
M  V30 14911 N 1442.63 1.56409 0.193394 0
M  V30 14912 C 1443.85 1.8519 0.933775 0
M  V30 14913 C 1444.28 0.663991 1.75991 0
M  V30 14914 O 1443.63 -0.387198 1.77117 0
M  V30 14915 C 1443.68 3.12212 1.80432 0
M  V30 14916 O 1442.79 2.92884 2.90332 0
M  V30 14917 H 1442.13 0.609754 0.262862 0
M  V30 14918 H 1444.66 2.03638 0.198195 0
M  V30 14919 H 1444.67 3.4305 2.20864 0
M  V30 14920 H 1443.34 3.98292 1.19733 0
M  V30 14921 H 1441.92 2.73349 2.53643 0
M  V30 14922 N 1444.1 -0.461169 1.50702 0
M  V30 14923 C 1445.35 -1.21431 1.62427 0
M  V30 14924 C 1445.68 -1.91406 0.328228 0
M  V30 14925 O 1444.96 -1.82563 -0.670898 0
M  V30 14926 C 1445.24 -2.25016 2.8114 0
M  V30 14927 C 1445.09 -1.5928 4.20654 0
M  V30 14928 C 1446.41 -3.26234 2.95397 0
M  V30 14929 H 1443.53 -0.440113 0.59116 0
M  V30 14930 H 1446.17 -0.506726 1.83118 0
M  V30 14931 H 1444.32 -2.85363 2.63629 0
M  V30 14932 H 1446 -1.02454 4.49779 0
M  V30 14933 H 1444.24 -0.895665 4.24453 0
M  V30 14934 H 1444.91 -2.34602 4.99666 0
M  V30 14935 H 1447.39 -2.7592 3.1146 0
M  V30 14936 H 1446.26 -3.96031 3.80067 0
M  V30 14937 H 1446.52 -3.90943 2.06436 0
M  V30 14938 N 1445.58 -1.40446 -0.715026 0
M  V30 14939 C 1446.81 -1.4207 -1.50412 0
M  V30 14940 C 1447.22 -0.0205547 -1.88789 0
M  V30 14941 O 1446.58 0.955635 -1.55479 0
M  V30 14942 C 1446.63 -2.3119 -2.77909 0
M  V30 14943 O 1446.35 -3.65754 -2.41154 0
M  V30 14944 C 1447.85 -2.41412 -3.718 0
M  V30 14945 H 1445.07 -0.484554 -0.464164 0
M  V30 14946 H 1447.62 -1.84504 -0.881964 0
M  V30 14947 H 1445.77 -1.92117 -3.36407 0
M  V30 14948 H 1446.19 -4.13091 -3.23197 0
M  V30 14949 H 1447.66 -3.07976 -4.58099 0
M  V30 14950 H 1448.14 -1.43934 -4.14945 0
M  V30 14951 H 1448.74 -2.81039 -3.19213 0
M  V30 14952 N 1447.06 0.947303 -1.25952 0
M  V30 14953 C 1448.02 2.02667 -1.07046 0
M  V30 14954 C 1449.02 1.60787 -0.0208127 0
M  V30 14955 O 1450.21 1.72193 -0.263668 0
M  V30 14956 C 1447.34 3.35087 -0.626885 0
M  V30 14957 H 1448.54 2.20871 -2.0287 0
M  V30 14958 H 1446.09 1.12541 -1.08462 0
M  V30 14959 H 1446.83 3.22579 0.333621 0
M  V30 14960 H 1446.61 3.66835 -1.38473 0
M  V30 14961 H 1448.1 4.14397 -0.516264 0
M  V30 14962 N 1448.54 1.07657 1.15099 0
M  V30 14963 C 1449.95 0.802696 1.37945 0
M  V30 14964 C 1450.15 -0.591622 1.92619 0
M  V30 14965 O 1449.21 -1.34979 2.13394 0
M  V30 14966 C 1450.52 1.87907 2.34759 0
M  V30 14967 C 1452.07 1.90418 2.48415 0
M  V30 14968 C 1452.55 2.97148 3.48521 0
M  V30 14969 N 1454.04 2.96271 3.56059 0
M  V30 14970 C 1454.77 3.75498 4.33346 0
M  V30 14971 N 1454.27 4.64583 5.1394 0
M  V30 14972 N 1456.06 3.63831 4.28466 0
M  V30 14973 H 1448.21 1.97578 0.779537 0
M  V30 14974 H 1450.48 0.856978 0.405331 0
M  V30 14975 H 1450.18 2.8811 2.01707 0
M  V30 14976 H 1450.06 1.74183 3.34575 0
M  V30 14977 H 1452.44 0.908655 2.80762 0
M  V30 14978 H 1452.52 2.0822 1.48586 0
M  V30 14979 H 1452.17 3.96903 3.16908 0
M  V30 14980 H 1452.1 2.76593 4.48112 0
M  V30 14981 H 1454.59 2.31697 2.98538 0
M  V30 14982 H 1454.9 5.2166 5.70167 0
M  V30 14983 H 1453.25 4.6863 5.13236 0
M  V30 14984 H 1456.44 2.93609 3.6457 0
M  V30 14985 H 1456.61 4.25818 4.8845 0
M  V30 14986 N 1450.02 -1.31994 0.861122 0
M  V30 14987 C 1451.26 -1.98827 0.474055 0
M  V30 14988 C 1451.62 -1.66627 -0.953916 0
M  V30 14989 O 1452.82 -2.26601 -1.44587 0
M  V30 14990 C 1451.09 -3.50201 0.713743 0
M  V30 14991 S 1452.65 -4.36735 0.425214 0
M  V30 14992 H 1449.47 -0.688534 0.17732 0
M  V30 14993 H 1452.07 -1.6057 1.11523 0
M  V30 14994 H 1450.78 -3.71125 1.75198 0
M  V30 14995 H 1450.31 -3.93355 0.0592289 0
M  V30 14996 H 1452.32 -4.90558 -0.746142 0
M  V30 14997 N 1451.49 -0.619688 -1.44906 0
M  V30 14998 C 1452.74 -0.119633 -2.02146 0
M  V30 14999 C 1453.07 1.25432 -1.48651 0
M  V30 15000 O 1452.32 1.84372 -0.656155 0
M  V30 15001 C 1452.62 -0.0432891 -3.57374 0
M  V30 15002 C 1452.29 -1.35451 -4.30074 0
M  V30 15003 C 1450.95 -1.71365 -4.49653 0
M  V30 15004 C 1453.3 -2.22053 -4.71532 0
M  V30 15005 C 1450.63 -2.93611 -5.07946 0
M  V30 15006 C 1452.98 -3.43559 -5.31178 0
M  V30 15007 C 1451.65 -3.7971 -5.48977 0
M  V30 15008 H 1450.92 -0.0437769 -0.739706 0
M  V30 15009 H 1453.56 -0.803722 -1.73818 0
M  V30 15010 H 1451.87 0.72412 -3.8505 0
M  V30 15011 H 1453.57 0.359964 -3.99381 0
M  V30 15012 H 1450.16 -1.06499 -4.15158 0
M  V30 15013 H 1454.34 -1.95603 -4.56129 0
M  V30 15014 H 1449.6 -3.21712 -5.19915 0
M  V30 15015 H 1453.77 -4.10906 -5.62254 0
M  V30 15016 H 1451.4 -4.7452 -5.93915 0
M  V30 15017 N 1452.97 1.53444 -0.359552 0
M  V30 15018 C 1454.22 2.00769 0.231564 0
M  V30 15019 C 1454.54 1.2487 1.49775 0
M  V30 15020 O 1453.81 0.360284 1.92558 0
M  V30 15021 H 1452.39 0.741732 0.0885581 0
M  V30 15022 H 1455.05 1.88785 -0.484397 0
M  V30 15023 H 1454.15 3.0865 0.462789 0
M  V30 15024 N 1454.45 0.0885642 1.57351 0
M  V30 15025 C 1455.4 -0.883199 2.10199 0
M  V30 15026 C 1456.38 -1.24805 1.0155 0
M  V30 15027 O 1457.58 -1.22423 1.27835 0
M  V30 15028 C 1454.71 -2.14467 2.68065 0
M  V30 15029 C 1453.79 -1.80555 3.83746 0
M  V30 15030 N 1454.18 -1.17169 4.92042 0
M  V30 15031 C 1452.48 -2.10204 3.93358 0
M  V30 15032 C 1453.18 -1.01722 5.72737 0
M  V30 15033 N 1452.16 -1.53241 5.21553 0
M  V30 15034 H 1455.96 -0.38908 2.91313 0
M  V30 15035 H 1453.47 -0.114842 1.61993 0
M  V30 15036 H 1455.47 -2.85021 3.04251 0
M  V30 15037 H 1454.13 -2.64451 1.88403 0
M  V30 15038 H 1455.14 -0.839293 5.11054 0
M  V30 15039 H 1451.82 -2.62448 3.24696 0
M  V30 15040 H 1453.21 -0.522042 6.69869 0
M  V30 15041 N 1455.93 -1.56509 -0.185096 0
M  V30 15042 C 1456.86 -1.98363 -1.23184 0
M  V30 15043 C 1457.84 -0.85709 -1.46929 0
M  V30 15044 O 1459.02 -1.12216 -1.58497 0
M  V30 15045 C 1456.15 -2.33172 -2.57387 0
M  V30 15046 C 1455.11 -3.48658 -2.48236 0
M  V30 15047 C 1454.43 -3.69171 -3.86804 0
M  V30 15048 C 1455.73 -4.82538 -1.99885 0
M  V30 15049 H 1457.43 -2.86053 -0.883982 0
M  V30 15050 H 1454.97 -1.37623 -0.423786 0
M  V30 15051 H 1456.93 -2.61048 -3.30805 0
M  V30 15052 H 1455.65 -1.42377 -2.93933 0
M  V30 15053 H 1454.31 -3.20889 -1.77273 0
M  V30 15054 H 1453.96 -2.75689 -4.20719 0
M  V30 15055 H 1453.66 -4.46868 -3.81553 0
M  V30 15056 H 1455.18 -3.99433 -4.61829 0
M  V30 15057 H 1456.6 -5.0938 -2.63068 0
M  V30 15058 H 1454.99 -5.63775 -2.05614 0
M  V30 15059 H 1456.06 -4.75453 -0.952503 0
M  V30 15060 N 1457.41 0.45317 -1.50944 0
M  V30 15061 C 1458.63 1.22672 -1.66611 0
M  V30 15062 C 1459.05 1.85398 -0.356814 0
M  V30 15063 O 1458.41 1.70026 0.663122 0
M  V30 15064 C 1458.46 2.32238 -2.77034 0
M  V30 15065 O 1458.18 1.72081 -4.02889 0
M  V30 15066 C 1459.68 3.22802 -3.03832 0
M  V30 15067 H 1456.9 0.370337 -0.559546 0
M  V30 15068 H 1459.44 0.538884 -1.97272 0
M  V30 15069 H 1457.6 2.96765 -2.49017 0
M  V30 15070 H 1458.01 2.4437 -4.64095 0
M  V30 15071 H 1459.49 3.95851 -3.84716 0
M  V30 15072 H 1459.96 3.82636 -2.15608 0
M  V30 15073 H 1460.57 2.63993 -3.33449 0
M  V30 15074 N 1458.88 1.40823 0.707568 0
M  V30 15075 C 1460.3 1.23029 1.01666 0
M  V30 15076 C 1460.5 0.111152 2.01193 0
M  V30 15077 O 1459.56 -0.52836 2.4691 0
M  V30 15078 C 1460.87 2.57509 1.55272 0
M  V30 15079 C 1462.42 2.6459 1.67216 0
M  V30 15080 C 1462.89 3.99357 2.24227 0
M  V30 15081 N 1464.38 4.01141 2.31603 0
M  V30 15082 C 1465.12 5.02211 2.76715 0
M  V30 15083 N 1464.61 6.13674 3.21521 0
M  V30 15084 N 1466.41 4.89577 2.76172 0
M  V30 15085 H 1458.56 2.12346 0.0480107 0
M  V30 15086 H 1460.82 0.944281 0.0838885 0
M  V30 15087 H 1460.53 3.40095 0.896012 0
M  V30 15088 H 1460.4 2.79158 2.53674 0
M  V30 15089 H 1462.79 1.8237 2.32002 0
M  V30 15090 H 1462.87 2.46763 0.673927 0
M  V30 15091 H 1462.51 4.8202 1.6006 0
M  V30 15092 H 1462.44 4.14518 3.2478 0
M  V30 15093 H 1464.93 3.20657 1.99968 0
M  V30 15094 H 1465.25 6.86677 3.54534 0
M  V30 15095 H 1463.59 6.17228 3.1946 0
M  V30 15096 H 1466.78 4.01588 2.40509 0
M  V30 15097 H 1466.96 5.68485 3.11012 0
M  V30 15098 N 1460.36 -0.94061 1.26453 0
M  V30 15099 C 1461.29 -2.04322 1.03852 0
M  V30 15100 C 1462.31 -1.628 -0.00122618 0
M  V30 15101 O 1463.5 -1.76894 0.238911 0
M  V30 15102 C 1460.6 -3.34394 0.550789 0
M  V30 15103 C 1459.77 -4.0468 1.6599 0
M  V30 15104 C 1458.83 -5.13025 1.17012 0
M  V30 15105 O 1457.85 -5.37699 1.8673 0
M  V30 15106 N 1459.06 -5.80497 0.0188478 0
M  V30 15107 H 1461.82 -2.24276 1.98797 0
M  V30 15108 H 1459.38 -1.11013 1.17846 0
M  V30 15109 H 1461.37 -4.04169 0.207305 0
M  V30 15110 H 1459.94 -3.11108 -0.30509 0
M  V30 15111 H 1459.16 -3.28813 2.17429 0
M  V30 15112 H 1460.45 -4.48392 2.40463 0
M  V30 15113 H 1459.85 -5.62888 -0.563368 0
M  V30 15114 H 1458.41 -6.51259 -0.265556 0
M  V30 15115 N 1461.84 -1.08266 -1.14527 0
M  V30 15116 C 1462.77 -0.732968 -2.21698 0
M  V30 15117 C 1463.75 0.283917 -1.67714 0
M  V30 15118 O 1464.94 0.154607 -1.93584 0
M  V30 15119 C 1462.07 -0.139935 -3.47018 0
M  V30 15120 C 1461.02 -1.08501 -4.14019 0
M  V30 15121 C 1460.35 -0.354263 -5.33525 0
M  V30 15122 C 1461.65 -2.42254 -4.62721 0
M  V30 15123 H 1463.34 -1.629 -2.51205 0
M  V30 15124 H 1460.89 -0.784696 -1.20742 0
M  V30 15125 H 1462.84 0.1167 -4.21238 0
M  V30 15126 H 1461.56 0.791228 -3.16871 0
M  V30 15127 H 1460.22 -1.32672 -3.41751 0
M  V30 15128 H 1459.87 0.580658 -4.99637 0
M  V30 15129 H 1459.57 -0.984287 -5.79297 0
M  V30 15130 H 1461.09 -0.105648 -6.10509 0
M  V30 15131 H 1462.51 -2.22357 -5.28422 0
M  V30 15132 H 1460.91 -3.00935 -5.1919 0
M  V30 15133 H 1461.98 -3.03884 -3.77866 0
M  V30 15134 N 1463.32 1.31536 -0.86811 0
M  V30 15135 C 1464.25 2.2663 -0.2672 0
M  V30 15136 C 1465.23 1.51023 0.602574 0
M  V30 15137 O 1466.41 1.80101 0.556408 0
M  V30 15138 C 1463.54 3.32943 0.62183 0
M  V30 15139 C 1462.59 4.26135 -0.176348 0
M  V30 15140 S 1463.42 5.12467 -1.55363 0
M  V30 15141 C 1464.58 6.22296 -0.670673 0
M  V30 15142 H 1464.81 2.7725 -1.07331 0
M  V30 15143 H 1462.34 1.39273 -0.666521 0
M  V30 15144 H 1464.3 3.94667 1.12908 0
M  V30 15145 H 1462.96 2.81081 1.40187 0
M  V30 15146 H 1462.15 5.015 0.501358 0
M  V30 15147 H 1461.76 3.68898 -0.61563 0
M  V30 15148 H 1464.05 6.77395 0.119508 0
M  V30 15149 H 1464.99 6.94215 -1.39539 0
M  V30 15150 H 1465.4 5.63994 -0.239048 0
M  V30 15151 N 1464.8 0.627364 1.44575 0
M  V30 15152 C 1466.03 0.137313 2.06444 0
M  V30 15153 C 1466.44 -1.18655 1.46855 0
M  V30 15154 O 1465.8 -1.72699 0.590018 0
M  V30 15155 C 1465.85 0.0123481 3.61498 0
M  V30 15156 O 1465.57 1.28385 4.18866 0
M  V30 15157 C 1467.07 -0.506841 4.40393 0
M  V30 15158 H 1464.29 0.0779387 0.666458 0
M  V30 15159 H 1466.83 0.860701 1.85505 0
M  V30 15160 H 1464.99 -0.66146 3.81711 0
M  V30 15161 H 1465.4 1.12626 5.12265 0
M  V30 15162 H 1466.88 -0.543304 5.4932 0
M  V30 15163 H 1467.35 -1.53314 4.11572 0
M  V30 15164 H 1467.96 0.133589 4.2509 0
M  V30 15165 N 1466.28 -1.53251 0.367684 0
M  V30 15166 C 1467.21 -2.28728 -0.469676 0
M  V30 15167 C 1468.19 -1.3124 -1.08213 0
M  V30 15168 O 1469.37 -1.60112 -1.09898 0
M  V30 15169 C 1466.5 -3.07808 -1.60846 0
M  V30 15170 C 1465.46 -4.13 -1.12315 0
M  V30 15171 C 1464.78 -4.80176 -2.35234 0
M  V30 15172 C 1466.08 -5.21892 -0.2064 0
M  V30 15173 H 1467.78 -2.98972 0.160019 0
M  V30 15174 H 1465.32 -1.43786 0.0784011 0
M  V30 15175 H 1467.27 -3.59358 -2.20091 0
M  V30 15176 H 1466 -2.35258 -2.26542 0
M  V30 15177 H 1464.66 -3.62399 -0.553378 0
M  V30 15178 H 1464.31 -4.04196 -2.99391 0
M  V30 15179 H 1464.01 -5.51261 -2.03433 0
M  V30 15180 H 1465.53 -5.34521 -2.9516 0
M  V30 15181 H 1466.94 -5.68932 -0.706386 0
M  V30 15182 H 1465.34 -6.00096 0.0208362 0
M  V30 15183 H 1466.41 -4.79051 0.750851 0
M  V30 15184 N 1467.75 -0.0969077 -1.57302 0
M  V30 15185 C 1468.72 0.846895 -2.1298 0
M  V30 15186 C 1469.72 1.20962 -1.05947 0
M  V30 15187 O 1470.91 1.13876 -1.31826 0
M  V30 15188 C 1468.04 2.14215 -2.65188 0
M  V30 15189 H 1469.23 0.363398 -2.9769 0
M  V30 15190 H 1466.78 0.152107 -1.55558 0
M  V30 15191 H 1467.52 2.67046 -1.84002 0
M  V30 15192 H 1467.3 1.89176 -3.43445 0
M  V30 15193 H 1468.79 2.81728 -3.08252 0
M  V30 15194 N 1469.23 1.56605 0.176793 0
M  V30 15195 C 1470.48 1.81324 0.892535 0
M  V30 15196 C 1470.8 0.67301 1.83018 0
M  V30 15197 O 1470.07 -0.307498 1.93472 0
M  V30 15198 H 1468.65 0.668881 0.332576 0
M  V30 15199 H 1471.31 1.94086 0.17792 0
M  V30 15200 H 1470.41 2.75168 1.47272 0
M  V30 15201 N 1470.71 -0.445159 1.51182 0
M  V30 15202 C 1471.96 -1.19288 1.6314 0
M  V30 15203 C 1472.28 -1.91904 0.346109 0
M  V30 15204 O 1471.55 -1.8523 -0.637695 0
M  V30 15205 H 1470.13 -0.443319 0.601229 0
M  V30 15206 H 1472.79 -0.511136 1.88078 0
M  V30 15207 H 1471.89 -1.92672 2.45528 0
M  V30 15208 N 1472.19 -1.41197 -0.700089 0
M  V30 15209 C 1473.6 -1.23567 -1.01012 0
M  V30 15210 C 1473.8 -0.121821 -2.01131 0
M  V30 15211 O 1472.86 0.515258 -2.47187 0
M  V30 15212 C 1474.17 -2.58329 -1.53904 0
M  V30 15213 C 1475.72 -2.65473 -1.65811 0
M  V30 15214 C 1476.2 -4.00541 -2.22106 0
M  V30 15215 N 1477.69 -4.02364 -2.29472 0
M  V30 15216 C 1478.42 -5.03672 -2.74048 0
M  V30 15217 N 1477.92 -6.15371 -3.18262 0
M  V30 15218 N 1479.71 -4.91035 -2.73571 0
M  V30 15219 H 1471.86 -2.12368 -0.0367488 0
M  V30 15220 H 1474.12 -0.944713 -0.0788795 0
M  V30 15221 H 1473.83 -3.40565 -0.877964 0
M  V30 15222 H 1473.7 -2.805 -2.5219 0
M  V30 15223 H 1476.09 -1.83598 -2.31032 0
M  V30 15224 H 1476.17 -2.47117 -0.660831 0
M  V30 15225 H 1475.82 -4.82862 -1.57502 0
M  V30 15226 H 1475.75 -4.16235 -3.22577 0
M  V30 15227 H 1478.24 -3.21713 -1.98265 0
M  V30 15228 H 1478.55 -6.88548 -3.50888 0
M  V30 15229 H 1476.9 -6.18914 -3.16182 0
M  V30 15230 H 1480.09 -4.02858 -2.38376 0
M  V30 15231 H 1480.26 -5.70127 -3.07993 0
M  V30 15232 N 1473.67 0.933891 -1.2695 0
M  V30 15233 C 1474.91 1.6834 -1.13091 0
M  V30 15234 C 1475.24 1.91484 0.32367 0
M  V30 15235 O 1474.52 1.50075 1.23724 0
M  V30 15236 C 1474.8 3.05374 -1.90838 0
M  V30 15237 C 1474.66 2.8951 -3.44244 0
M  V30 15238 C 1475.97 4.05607 -1.70795 0
M  V30 15239 H 1473.09 0.610944 -0.41221 0
M  V30 15240 H 1475.74 1.08416 -1.56032 0
M  V30 15241 H 1473.89 3.56526 -1.54343 0
M  V30 15242 H 1475.56 2.45523 -3.90533 0
M  V30 15243 H 1473.8 2.24981 -3.70899 0
M  V30 15244 H 1474.47 3.86734 -3.93879 0
M  V30 15245 H 1476.95 3.63443 -2.02604 0
M  V30 15246 H 1475.82 4.9949 -2.27597 0
M  V30 15247 H 1476.08 4.37231 -0.654327 0
M  V30 15248 N 1475.14 1.08871 1.13951 0
M  V30 15249 C 1476.39 0.822504 1.85372 0
M  V30 15250 C 1476.72 -0.650183 1.82993 0
M  V30 15251 O 1476 -1.4783 1.26398 0
M  V30 15252 C 1476.28 1.35107 3.33793 0
M  V30 15253 C 1476.13 2.88945 3.44719 0
M  V30 15254 C 1477.45 0.980203 4.29045 0
M  V30 15255 H 1474.57 0.300255 0.673065 0
M  V30 15256 H 1477.21 1.34914 1.33784 0
M  V30 15257 H 1475.36 0.903108 3.77857 0
M  V30 15258 H 1477.04 3.42148 3.09407 0
M  V30 15259 H 1475.28 3.26365 2.85777 0
M  V30 15260 H 1475.95 3.21004 4.49066 0
M  V30 15261 H 1478.43 1.36646 3.93023 0
M  V30 15262 H 1477.3 1.37717 5.31343 0
M  V30 15263 H 1477.56 -0.112253 4.41957 0
M  V30 15264 N 1476.62 -1.31073 0.875073 0
M  V30 15265 C 1477.55 -2.30855 0.350468 0
M  V30 15266 C 1478.53 -1.60569 -0.561384 0
M  V30 15267 O 1479.72 -1.88242 -0.477329 0
M  V30 15268 C 1476.85 -3.44444 -0.444493 0
M  V30 15269 C 1475.8 -4.26357 0.374716 0
M  V30 15270 C 1475.13 -5.31903 -0.546243 0
M  V30 15271 C 1476.43 -4.96817 1.61153 0
M  V30 15272 H 1478.12 -2.74983 1.18427 0
M  V30 15273 H 1475.67 -1.32199 0.570909 0
M  V30 15274 H 1477.62 -4.13304 -0.82206 0
M  V30 15275 H 1476.34 -2.99096 -1.31185 0
M  V30 15276 H 1475 -3.59171 0.734295 0
M  V30 15277 H 1474.65 -4.82803 -1.41102 0
M  V30 15278 H 1474.35 -5.876 -0.00198173 0
M  V30 15279 H 1475.88 -6.03621 -0.920542 0
M  V30 15280 H 1477.29 -5.58247 1.30511 0
M  V30 15281 H 1475.69 -5.62334 2.09524 0
M  V30 15282 H 1476.76 -4.2351 2.36151 0
M  V30 15283 N 1478.1 -0.635022 -1.4424 0
M  V30 15284 C 1479.06 0.0579377 -2.29127 0
M  V30 15285 C 1480.06 0.768489 -1.41248 0
M  V30 15286 O 1481.25 0.612489 -1.63077 0
M  V30 15287 C 1478.39 1.09266 -3.22914 0
M  V30 15288 H 1479.58 -0.688723 -2.91885 0
M  V30 15289 H 1477.13 -0.395347 -1.51217 0
M  V30 15290 H 1477.87 1.86917 -2.65014 0
M  V30 15291 H 1477.65 0.587036 -3.87681 0
M  V30 15292 H 1479.14 1.57716 -3.86672 0
M  V30 15293 N 1479.58 1.53054 -0.375806 0
M  V30 15294 C 1480.51 2.28973 0.45754 0
M  V30 15295 C 1481.49 1.31812 1.07516 0
M  V30 15296 O 1482.67 1.60693 1.09048 0
M  V30 15297 C 1479.8 3.08657 1.59212 0
M  V30 15298 C 1478.76 4.1359 1.10123 0
M  V30 15299 C 1478.08 4.81417 2.32684 0
M  V30 15300 C 1479.38 5.21994 0.17872 0
M  V30 15301 H 1481.08 2.98883 -0.175872 0
M  V30 15302 H 1478.62 1.43743 -0.0860253 0
M  V30 15303 H 1480.58 3.6052 2.18182 0
M  V30 15304 H 1479.3 2.36456 2.25291 0
M  V30 15305 H 1477.96 3.62688 0.534151 0
M  V30 15306 H 1477.61 4.05778 2.97243 0
M  V30 15307 H 1477.31 5.52332 2.00506 0
M  V30 15308 H 1478.83 5.36079 2.92322 0
M  V30 15309 H 1480.25 5.69298 0.676204 0
M  V30 15310 H 1478.64 6.00077 -0.0526605 0
M  V30 15311 H 1479.71 4.78646 -0.776246 0
M  V30 15312 N 1481.06 0.105248 1.57248 0
M  V30 15313 C 1481.97 -0.864007 2.1811 0
M  V30 15314 C 1482.98 -1.30282 1.15337 0
M  V30 15315 O 1484.16 -1.36864 1.4775 0
M  V30 15316 C 1481.22 -2.1014 2.75757 0
M  V30 15317 C 1480.28 -1.71583 3.9352 0
M  V30 15318 C 1479.52 -2.89424 4.48408 0
M  V30 15319 O 1479.74 -4.04449 4.02215 0
M  V30 15320 O 1478.67 -2.67303 5.39289 0
M  V30 15321 H 1482.5 -0.376131 3.01362 0
M  V30 15322 H 1480.09 -0.119643 1.4892 0
M  V30 15323 H 1481.97 -2.82638 3.1256 0
M  V30 15324 H 1480.64 -2.57961 1.95545 0
M  V30 15325 H 1479.55 -0.962347 3.6151 0
M  V30 15326 H 1480.88 -1.28517 4.75126 0
M  V30 15327 N 1482.53 -1.56697 -0.168486 0
M  V30 15328 C 1483.78 -1.81794 -0.882907 0
M  V30 15329 C 1484.1 -0.682707 -1.82658 0
M  V30 15330 O 1483.37 0.297234 -1.93632 0
M  V30 15331 H 1481.95 -0.670636 -0.329024 0
M  V30 15332 H 1484.62 -1.94178 -0.167625 0
M  V30 15333 H 1483.71 -2.75945 -1.45811 0
M  V30 15334 N 1484.01 0.437135 -1.51416 0
M  V30 15335 C 1485.26 1.18421 -1.63771 0
M  V30 15336 C 1485.58 1.91718 -0.356282 0
M  V30 15337 O 1484.85 1.85566 0.627863 0
M  V30 15338 H 1483.43 0.440125 -0.603572 0
M  V30 15339 H 1486.09 0.501155 -1.88347 0
M  V30 15340 H 1485.19 1.91367 -2.46546 0
M  V30 15341 N 1485.49 1.41566 0.692592 0
M  V30 15342 C 1486.44 1.40114 1.79867 0
M  V30 15343 C 1487.42 0.275064 1.58531 0
M  V30 15344 O 1488.62 0.515959 1.69313 0
M  V30 15345 C 1485.75 1.28865 3.18196 0
M  V30 15346 C 1484.83 2.46347 3.45216 0
M  V30 15347 N 1485.22 3.71808 3.42918 0
M  V30 15348 C 1483.52 2.40224 3.75777 0
M  V30 15349 C 1484.22 4.49743 3.68926 0
M  V30 15350 N 1483.2 3.79898 3.88817 0
M  V30 15351 H 1487 2.35032 1.76457 0
M  V30 15352 H 1484.51 1.35663 0.892705 0
M  V30 15353 H 1486.51 1.25907 3.97433 0
M  V30 15354 H 1485.17 0.349339 3.22815 0
M  V30 15355 H 1486.18 4.04652 3.2323 0
M  V30 15356 H 1482.86 1.54781 3.87749 0
M  V30 15357 H 1484.25 5.58683 3.7326 0
M  V30 15358 N 1486.97 -0.927146 1.27443 0
M  V30 15359 C 1488.25 -1.65322 1.04538 0
M  V30 15360 C 1488.63 -2.06886 -0.419694 0
M  V30 15361 O 1487.97 -1.80352 -1.40304 0
M  V30 15362 C 1488.18 -2.85486 2.00746 0
M  V30 15363 C 1489.53 -3.56816 2.30147 0
M  V30 15364 O 1490.56 -2.95613 1.98724 0
M  V30 15365 O 1489.41 -4.67085 2.83714 0
M  V30 15366 H 1486.51 -0.724627 0.398554 0
M  V30 15367 H 1489.05 -0.977633 1.3871 0
M  V30 15368 H 1487.83 -2.51766 2.99549 0
M  V30 15369 H 1487.45 -3.60763 1.67139 0
M  V30 15370 N 1488.45 -1.09474 -1.13372 0
M  V30 15371 C 1489.38 -0.756441 -2.20908 0
M  V30 15372 C 1490.36 0.266113 -1.68006 0
M  V30 15373 O 1491.54 0.134067 -1.93737 0
M  V30 15374 C 1488.67 -0.176733 -3.4685 0
M  V30 15375 C 1487.63 -1.12886 -4.12845 0
M  V30 15376 C 1486.95 -0.410831 -5.33119 0
M  V30 15377 C 1488.25 -2.47148 -4.60125 0
M  V30 15378 H 1489.95 -1.65555 -2.49463 0
M  V30 15379 H 1487.49 -0.797458 -1.19902 0
M  V30 15380 H 1489.45 0.0720151 -4.21338 0
M  V30 15381 H 1488.17 0.757576 -3.17692 0
M  V30 15382 H 1486.83 -1.36289 -3.40325 0
M  V30 15383 H 1486.48 0.527632 -5.00225 0
M  V30 15384 H 1486.18 -1.04567 -5.78221 0
M  V30 15385 H 1487.7 -0.170394 -6.10362 0
M  V30 15386 H 1489.11 -2.27949 -5.26034 0
M  V30 15387 H 1487.51 -3.06425 -5.15969 0
M  V30 15388 H 1488.58 -3.07874 -3.74622 0
M  V30 15389 N 1489.92 1.30607 -0.882012 0
M  V30 15390 C 1491.15 2.00418 -0.513815 0
M  V30 15391 C 1491.57 1.66135 0.896916 0
M  V30 15392 O 1490.92 0.89691 1.5894 0
M  V30 15393 C 1490.98 3.55133 -0.675503 0
M  V30 15394 O 1490.7 3.88194 -2.03069 0
M  V30 15395 C 1492.2 4.42215 -0.309906 0
M  V30 15396 H 1489.42 0.640839 -0.198913 0
M  V30 15397 H 1491.96 1.66561 -1.1865 0
M  V30 15398 H 1490.12 3.87367 -0.0502289 0
M  V30 15399 H 1490.53 4.82899 -2.04717 0
M  V30 15400 H 1492 5.49962 -0.473948 0
M  V30 15401 H 1492.48 4.32717 0.751852 0
M  V30 15402 H 1493.09 4.1542 -0.91138 0
M  V30 15403 N 1491.4 0.642663 1.43901 0
M  V30 15404 C 1492.37 -0.0457858 2.29154 0
M  V30 15405 C 1493.37 -0.760988 1.41653 0
M  V30 15406 O 1494.56 -0.603832 1.634 0
M  V30 15407 C 1491.69 -1.07552 3.23489 0
M  V30 15408 H 1492.88 0.704193 2.91515 0
M  V30 15409 H 1490.43 0.403361 1.51006 0
M  V30 15410 H 1491.17 -1.85509 2.66002 0
M  V30 15411 H 1490.95 -0.566468 3.87987 0
M  V30 15412 H 1492.44 -1.55663 3.87503 0
M  V30 15413 N 1492.88 -1.52852 0.383918 0
M  V30 15414 C 1494.13 -2.00694 -0.201206 0
M  V30 15415 C 1494.44 -1.2748 -1.48352 0
M  V30 15416 O 1495.65 -1.66005 -2.14836 0
M  V30 15417 C 1494.11 -3.57567 -0.409117 0
M  V30 15418 C 1493.71 -4.39675 0.859628 0
M  V30 15419 C 1495.46 -4.13713 -0.950899 0
M  V30 15420 C 1493.36 -5.88138 0.620292 0
M  V30 15421 H 1492.29 -0.749854 -0.0789656 0
M  V30 15422 H 1494.95 -1.764 0.505488 0
M  V30 15423 H 1493.33 -3.78088 -1.17753 0
M  V30 15424 H 1494.5 -4.30923 1.63224 0
M  V30 15425 H 1492.82 -3.94724 1.32597 0
M  V30 15426 H 1495.41 -5.22284 -1.14558 0
M  V30 15427 H 1495.76 -3.69463 -1.9184 0
M  V30 15428 H 1496.29 -3.97062 -0.242195 0
M  V30 15429 H 1493.03 -6.367 1.55864 0
M  V30 15430 H 1492.55 -5.99693 -0.113483 0
M  V30 15431 H 1494.23 -6.46506 0.252775 0
M  V30 15432 N 1494.36 -0.113586 -1.5719 0
M  V30 15433 C 1495.6 0.548872 -1.96893 0
M  V30 15434 C 1495.96 1.64191 -0.99525 0
M  V30 15435 O 1497.16 2.36289 -1.28145 0
M  V30 15436 C 1495.44 1.07279 -3.40919 0
M  V30 15437 S 1496.99 1.74453 -4.02631 0
M  V30 15438 H 1493.81 0.178565 -0.688212 0
M  V30 15439 H 1496.41 -0.197382 -1.94501 0
M  V30 15440 H 1495.12 0.266019 -4.09537 0
M  V30 15441 H 1494.65 1.85444 -3.46949 0
M  V30 15442 H 1496.66 3.02998 -3.92946 0
M  V30 15443 N 1495.84 1.56784 0.160173 0
M  V30 15444 C 1497.11 1.73513 0.902908 0
M  V30 15445 C 1497.49 0.678036 1.99915 0
M  V30 15446 O 1496.84 -0.305302 2.26451 0
M  V30 15447 C 1497.05 3.17111 1.45744 0
M  V30 15448 C 1498.4 3.78404 1.92602 0
M  V30 15449 O 1499.42 3.20459 1.55515 0
M  V30 15450 O 1498.28 4.80172 2.60954 0
M  V30 15451 H 1495.38 0.708981 0.425764 0
M  V30 15452 H 1497.92 1.69061 0.147129 0
M  V30 15453 H 1496.7 3.85539 0.668985 0
M  V30 15454 H 1496.32 3.25936 2.2771 0
M  V30 15455 N 1497.32 -0.429099 1.51646 0
M  V30 15456 C 1498.28 -1.50398 1.72954 0
M  V30 15457 C 1499.28 -1.49207 0.599491 0
M  V30 15458 O 1500.47 -1.51084 0.867143 0
M  V30 15459 C 1497.6 -2.89903 1.79358 0
M  V30 15460 H 1498.79 -1.32805 2.68892 0
M  V30 15461 H 1496.35 -0.658313 1.4176 0
M  V30 15462 H 1497.08 -3.12891 0.852639 0
M  V30 15463 H 1496.87 -2.92171 2.61492 0
M  V30 15464 H 1498.36 -3.67862 1.97654 0
M  V30 15465 N 1498.79 -1.41931 -0.685074 0
M  V30 15466 C 1500.02 -1.45432 -1.47866 0
M  V30 15467 C 1500.44 -0.0641302 -1.87991 0
M  V30 15468 O 1499.8 0.935081 -1.55325 0
M  V30 15469 C 1499.85 -2.37801 -2.71077 0
M  V30 15470 O 1498.95 -1.84229 -3.68963 0
M  V30 15471 H 1498.29 -0.493156 -0.444627 0
M  V30 15472 H 1500.82 -1.86508 -0.841177 0
M  V30 15473 H 1500.83 -2.54033 -3.19266 0
M  V30 15474 H 1499.51 -3.38807 -2.41211 0
M  V30 15475 H 1498.09 -1.775 -3.27945 0
M  V30 15476 N 1500.27 0.920374 -1.27933 0
M  V30 15477 C 1501.18 2.05525 -1.13123 0
M  V30 15478 C 1502.2 1.73899 -0.059421 0
M  V30 15479 O 1503.37 1.99617 -0.267386 0
M  V30 15480 C 1500.44 3.37637 -0.787551 0
M  V30 15481 C 1499.5 3.82914 -1.94101 0
M  V30 15482 C 1498.73 5.08721 -1.61364 0
M  V30 15483 O 1498.96 5.6798 -0.524918 0
M  V30 15484 O 1497.89 5.4955 -2.45517 0
M  V30 15485 H 1501.72 2.20935 -2.08378 0
M  V30 15486 H 1499.3 1.04071 -1.07189 0
M  V30 15487 H 1501.18 4.16968 -0.609544 0
M  V30 15488 H 1499.86 3.23417 0.135407 0
M  V30 15489 H 1498.76 3.04438 -2.17413 0
M  V30 15490 H 1500.1 4.01687 -2.84444 0
M  V30 15491 N 1501.75 1.10074 1.1279 0
M  V30 15492 C 1502.71 0.74967 2.16593 0
M  V30 15493 C 1503.71 -0.224046 1.59232 0
M  V30 15494 O 1504.9 -0.00137104 1.742 0
M  V30 15495 C 1502.03 0.109795 3.40723 0
M  V30 15496 H 1503.23 1.66906 2.49164 0
M  V30 15497 H 1500.78 0.900781 1.27733 0
M  V30 15498 H 1501.52 -0.820501 3.13749 0
M  V30 15499 H 1501.3 0.810517 3.83631 0
M  V30 15500 H 1502.79 -0.120198 4.17427 0
M  V30 15501 N 1503.23 -1.30138 0.888926 0
M  V30 15502 C 1504.47 -1.97776 0.516122 0
M  V30 15503 C 1504.83 -1.68613 -0.918358 0
M  V30 15504 O 1506.03 -2.29617 -1.39748 0
M  V30 15505 C 1504.3 -3.48608 0.787866 0
M  V30 15506 S 1505.86 -4.35735 0.517757 0
M  V30 15507 H 1502.68 -0.684617 0.191885 0
M  V30 15508 H 1505.28 -1.58168 1.14904 0
M  V30 15509 H 1503.99 -3.67326 1.8303 0
M  V30 15510 H 1503.52 -3.93141 0.142652 0
M  V30 15511 H 1505.53 -4.9203 -0.64192 0
M  V30 15512 N 1504.71 -0.650285 -1.43559 0
M  V30 15513 C 1505.95 -0.162725 -2.02146 0
M  V30 15514 C 1506.28 1.21911 -1.51166 0
M  V30 15515 O 1505.56 1.81329 -0.703563 0
M  V30 15516 C 1505.84 -0.170356 -3.59697 0
M  V30 15517 C 1505.7 -1.5859 -4.20915 0
M  V30 15518 C 1507.01 0.494831 -4.37309 0
M  V30 15519 H 1504.13 -0.0606055 -0.734504 0
M  V30 15520 H 1506.78 -0.830411 -1.70892 0
M  V30 15521 H 1504.93 0.39819 -3.86454 0
M  V30 15522 H 1506.6 -2.20481 -4.05199 0
M  V30 15523 H 1504.84 -2.13407 -3.77677 0
M  V30 15524 H 1505.51 -1.54312 -5.29992 0
M  V30 15525 H 1507.99 0.0111281 -4.16099 0
M  V30 15526 H 1506.86 0.458753 -5.4698 0
M  V30 15527 H 1507.12 1.56846 -4.13342 0
M  V30 15528 N 1506.18 1.52647 -0.392018 0
M  V30 15529 C 1507.41 2.06511 0.191815 0
M  V30 15530 C 1507.83 1.26162 1.39516 0
M  V30 15531 O 1507.19 0.287373 1.79008 0
M  V30 15532 C 1507.24 3.56571 0.537512 0
M  V30 15533 O 1506.34 3.78774 1.63106 0
M  V30 15534 H 1505.68 0.663647 0.0216546 0
M  V30 15535 H 1508.21 1.96779 -0.560274 0
M  V30 15536 H 1508.22 4.00059 0.801044 0
M  V30 15537 H 1506.9 4.14489 -0.342239 0
M  V30 15538 H 1505.48 3.47175 1.36103 0
M  V30 15539 N 1507.66 0.121921 1.57128 0
M  V30 15540 C 1508.63 -0.812905 2.143 0
M  V30 15541 C 1509.63 -1.19261 1.07858 0
M  V30 15542 O 1510.82 -1.11764 1.33621 0
M  V30 15543 C 1507.95 -2.09969 2.68562 0
M  V30 15544 H 1509.14 -0.315992 2.98231 0
M  V30 15545 H 1506.69 -0.12734 1.5578 0
M  V30 15546 H 1507.43 -2.64085 1.88228 0
M  V30 15547 H 1507.21 -1.83688 3.46412 0
M  V30 15548 H 1508.7 -2.76788 3.12695 0
M  V30 15549 N 1509.14 -1.56867 -0.151857 0
M  V30 15550 C 1510.07 -2.00932 -1.18949 0
M  V30 15551 C 1511.05 -0.888062 -1.45077 0
M  V30 15552 O 1512.24 -1.15553 -1.56081 0
M  V30 15553 C 1509.37 -2.3858 -2.52383 0
M  V30 15554 C 1508.32 -3.53845 -2.40785 0
M  V30 15555 C 1507.65 -3.77292 -3.78886 0
M  V30 15556 C 1508.95 -4.8667 -1.89605 0
M  V30 15557 H 1510.64 -2.87863 -0.823107 0
M  V30 15558 H 1508.19 -1.38491 -0.394499 0
M  V30 15559 H 1510.14 -2.68006 -3.25193 0
M  V30 15560 H 1508.86 -1.48579 -2.90847 0
M  V30 15561 H 1507.52 -3.24577 -1.70427 0
M  V30 15562 H 1507.17 -2.84551 -4.14777 0
M  V30 15563 H 1506.87 -4.54861 -3.71989 0
M  V30 15564 H 1508.39 -4.09139 -4.53252 0
M  V30 15565 H 1509.81 -5.14846 -2.52204 0
M  V30 15566 H 1508.21 -5.6801 -1.93609 0
M  V30 15567 H 1509.28 -4.77366 -0.851438 0
M  V30 15568 N 1510.62 0.421051 -1.51871 0
M  V30 15569 C 1511.55 1.51928 -1.77313 0
M  V30 15570 C 1512.53 1.58258 -0.623579 0
M  V30 15571 O 1513.71 1.73724 -0.867967 0
M  V30 15572 C 1510.84 2.89865 -1.913 0
M  V30 15573 C 1509.8 2.98391 -3.06834 0
M  V30 15574 C 1509.12 4.38466 -3.06026 0
M  V30 15575 C 1510.42 2.7097 -4.46511 0
M  V30 15576 H 1512.12 1.30889 -2.69274 0
M  V30 15577 H 1509.66 0.628229 -1.29573 0
M  V30 15578 H 1511.62 3.66669 -2.07682 0
M  V30 15579 H 1510.34 3.12172 -0.960011 0
M  V30 15580 H 1509 2.24029 -2.90184 0
M  V30 15581 H 1508.65 4.57764 -2.08472 0
M  V30 15582 H 1508.35 4.45097 -3.83618 0
M  V30 15583 H 1509.87 5.17221 -3.24522 0
M  V30 15584 H 1511.29 3.37501 -4.63428 0
M  V30 15585 H 1509.68 2.88992 -5.25931 0
M  V30 15586 H 1510.75 1.66476 -4.55427 0
M  V30 15587 N 1512.1 1.42293 0.677538 0
M  V30 15588 C 1513.32 1.46214 1.47092 0
M  V30 15589 C 1513.75 0.0740989 1.87954 0
M  V30 15590 O 1513.1 -0.926831 1.55819 0
M  V30 15591 C 1513.15 2.39236 2.69812 0
M  V30 15592 O 1512.26 1.86183 3.6798 0
M  V30 15593 H 1511.6 0.495507 0.442006 0
M  V30 15594 H 1514.13 1.86952 0.831274 0
M  V30 15595 H 1514.14 2.55723 3.17915 0
M  V30 15596 H 1512.81 3.40081 2.39411 0
M  V30 15597 H 1511.39 1.79237 3.26999 0
M  V30 15598 N 1513.57 -0.913576 1.28419 0
M  V30 15599 C 1514.82 -1.66519 1.15755 0
M  V30 15600 C 1515.15 -1.91974 -0.293166 0
M  V30 15601 O 1514.43 -1.52025 -1.21321 0
M  V30 15602 C 1514.71 -3.02299 1.95672 0
M  V30 15603 C 1514.56 -2.83996 3.48807 0
M  V30 15604 C 1515.88 -4.02838 1.77226 0
M  V30 15605 H 1513 -0.604309 0.421877 0
M  V30 15606 H 1515.64 -1.05919 1.57737 0
M  V30 15607 H 1513.79 -3.54025 1.59995 0
M  V30 15608 H 1515.47 -2.39279 3.9439 0
M  V30 15609 H 1513.71 -2.19052 3.74431 0
M  V30 15610 H 1514.38 -3.80419 3.99982 0
M  V30 15611 H 1516.86 -3.60174 2.0836 0
M  V30 15612 H 1515.73 -4.95806 2.35515 0
M  V30 15613 H 1515.99 -4.36135 0.723804 0
M  V30 15614 N 1515.05 -1.1067 -1.12204 0
M  V30 15615 C 1515.96 -0.770221 -2.21596 0
M  V30 15616 C 1516.98 0.233297 -1.72429 0
M  V30 15617 O 1518.15 0.0714493 -2.01273 0
M  V30 15618 C 1515.22 -0.209682 -3.46065 0
M  V30 15619 C 1514.28 -1.27079 -4.1006 0
M  V30 15620 C 1513.51 -0.736899 -5.28588 0
M  V30 15621 O 1513.74 0.435838 -5.68732 0
M  V30 15622 O 1512.67 -1.49797 -5.82962 0
M  V30 15623 H 1516.5 -1.6834 -2.52776 0
M  V30 15624 H 1514.08 -0.882012 -1.20586 0
M  V30 15625 H 1515.96 0.0989516 -4.21284 0
M  V30 15626 H 1514.64 0.676316 -3.16556 0
M  V30 15627 H 1513.55 -1.63231 -3.3661 0
M  V30 15628 H 1514.88 -2.12989 -4.4373 0
M  V30 15629 N 1516.53 1.29665 -0.895815 0
M  V30 15630 C 1517.46 2.30268 -0.387151 0
M  V30 15631 C 1518.44 1.61442 0.535768 0
M  V30 15632 O 1519.63 1.88978 0.447321 0
M  V30 15633 C 1516.76 3.45107 0.389639 0
M  V30 15634 C 1515.71 4.25706 -0.442498 0
M  V30 15635 C 1515.04 5.32704 0.461552 0
M  V30 15636 C 1516.34 4.9419 -1.69036 0
M  V30 15637 H 1518.03 2.73064 -1.22786 0
M  V30 15638 H 1515.58 1.31274 -0.591869 0
M  V30 15639 H 1517.53 4.14559 0.756203 0
M  V30 15640 H 1516.25 3.01145 1.2641 0
M  V30 15641 H 1514.91 3.57957 -0.791343 0
M  V30 15642 H 1514.56 4.84987 1.33403 0
M  V30 15643 H 1514.26 5.87529 -0.0915006 0
M  V30 15644 H 1515.78 6.05009 0.824395 0
M  V30 15645 H 1517.2 5.561 -1.39376 0
M  V30 15646 H 1515.6 5.5893 -2.18444 0
M  V30 15647 H 1516.67 4.19699 -2.42859 0
M  V30 15648 N 1518.01 0.657889 1.43212 0
M  V30 15649 C 1518.94 -0.0695999 2.29094 0
M  V30 15650 C 1519.95 -0.782463 1.42763 0
M  V30 15651 O 1521.14 -0.63944 1.66654 0
M  V30 15652 C 1518.24 -1.12178 3.19796 0
M  V30 15653 C 1517.42 -0.486131 4.3469 0
M  V30 15654 C 1516.47 -1.43582 5.06232 0
M  V30 15655 O 1515.5 -0.942622 5.61341 0
M  V30 15656 N 1516.7 -2.76966 5.10167 0
M  V30 15657 H 1519.47 0.667565 2.92171 0
M  V30 15658 H 1517.03 0.501022 1.53953 0
M  V30 15659 H 1519.02 -1.75801 3.64522 0
M  V30 15660 H 1517.59 -1.76087 2.58287 0
M  V30 15661 H 1516.81 0.329281 3.92822 0
M  V30 15662 H 1518.1 -0.0425918 5.08782 0
M  V30 15663 H 1517.5 -3.19592 4.66774 0
M  V30 15664 H 1516.05 -3.3588 5.58595 0
M  V30 15665 N 1519.49 -1.52437 0.400108 0
M  V30 15666 C 1520.9 -1.86563 -0.0715162 0
M  V30 15667 C 1521.25 -1.3193 -1.4522 0
M  V30 15668 O 1520.37 -0.654955 -2.06251 0
M  V30 15669 C 1520.97 -3.38525 -0.13655 0
M  V30 15670 C 1519.53 -3.72323 -0.55249 0
M  V30 15671 C 1518.67 -2.75896 0.278729 0
M  V30 15672 H 1521.63 -1.46192 0.617547 0
M  V30 15673 H 1521.65 -3.68357 -0.953588 0
M  V30 15674 H 1521.16 -3.78258 0.868468 0
M  V30 15675 H 1519.26 -3.38164 -1.56448 0
M  V30 15676 H 1519.37 -4.7814 -0.303139 0
M  V30 15677 H 1517.74 -2.53394 -0.257608 0
M  V30 15678 H 1518.52 -3.18467 1.28193 0
M  V30 15679 N 1520.96 -0.130252 -1.57061 0
M  V30 15680 C 1521.89 0.812189 -2.18919 0
M  V30 15681 C 1522.88 1.2692 -1.13249 0
M  V30 15682 O 1524.06 1.32978 -1.41529 0
M  V30 15683 C 1521.19 2.05803 -2.79754 0
M  V30 15684 C 1520.14 1.73841 -3.91105 0
M  V30 15685 C 1519.47 3.05549 -4.38799 0
M  V30 15686 C 1520.77 0.997991 -5.12677 0
M  V30 15687 H 1522.46 0.296692 -2.97926 0
M  V30 15688 H 1520.01 0.141265 -1.43305 0
M  V30 15689 H 1521.96 2.72201 -3.21691 0
M  V30 15690 H 1520.69 2.59697 -1.98053 0
M  V30 15691 H 1519.35 1.09828 -3.49762 0
M  V30 15692 H 1518.99 3.57399 -3.53942 0
M  V30 15693 H 1518.69 2.84932 -5.13894 0
M  V30 15694 H 1520.22 3.73045 -4.83394 0
M  V30 15695 H 1521.63 1.56372 -5.51562 0
M  V30 15696 H 1520.03 0.892378 -5.93428 0
M  V30 15697 H 1521.1 -0.0132936 -4.84898 0
M  V30 15698 N 1522.44 1.56945 0.143535 0
M  V30 15699 C 1523.72 1.74461 0.884454 0
M  V30 15700 C 1524.1 0.699201 1.99184 0
M  V30 15701 O 1523.45 -0.281267 2.26762 0
M  V30 15702 C 1523.66 3.18639 1.42373 0
M  V30 15703 C 1525.01 3.80426 1.88577 0
M  V30 15704 O 1526.03 3.2209 1.52107 0
M  V30 15705 O 1524.89 4.82913 2.55847 0
M  V30 15706 H 1521.98 0.713457 0.41822 0
M  V30 15707 H 1524.53 1.69208 0.12919 0
M  V30 15708 H 1523.3 3.86227 0.628056 0
M  V30 15709 H 1522.92 3.28332 2.2424 0
M  V30 15710 N 1523.92 -0.412991 1.52093 0
M  V30 15711 C 1524.83 -1.52768 1.78042 0
M  V30 15712 C 1525.85 -1.60758 0.665791 0
M  V30 15713 O 1527.02 -1.77545 0.950772 0
M  V30 15714 C 1524.09 -2.8854 1.92213 0
M  V30 15715 C 1523.15 -2.90468 3.16112 0
M  V30 15716 C 1522.38 -4.19763 3.29598 0
M  V30 15717 O 1522.61 -5.13454 2.48438 0
M  V30 15718 O 1521.54 -4.2847 4.22726 0
M  V30 15719 H 1525.37 -1.33777 2.72649 0
M  V30 15720 H 1522.95 -0.598461 1.3689 0
M  V30 15721 H 1524.83 -3.69073 2.03379 0
M  V30 15722 H 1523.51 -3.07607 1.00795 0
M  V30 15723 H 1522.41 -2.08801 3.10408 0
M  V30 15724 H 1523.75 -2.76349 4.07298 0
M  V30 15725 N 1525.4 -1.4265 -0.669982 0
M  V30 15726 C 1526.36 -1.46196 -1.7652 0
M  V30 15727 C 1527.36 -0.348884 -1.5697 0
M  V30 15728 O 1528.55 -0.609921 -1.63174 0
M  V30 15729 C 1525.68 -1.29829 -3.1521 0
M  V30 15730 H 1526.88 -2.43718 -1.74762 0
M  V30 15731 H 1524.43 -1.29168 -0.88007 0
M  V30 15732 H 1525.17 -0.332493 -3.22591 0
M  V30 15733 H 1524.95 -2.10501 -3.30804 0
M  V30 15734 H 1526.44 -1.35205 -3.95107 0
M  V30 15735 N 1526.88 0.906753 -1.28902 0
M  V30 15736 C 1528.12 1.65903 -1.16636 0
M  V30 15737 C 1528.46 1.92127 0.282981 0
M  V30 15738 O 1527.73 1.52666 1.20513 0
M  V30 15739 C 1528.01 3.01257 -1.97272 0
M  V30 15740 C 1527.87 2.82143 -3.50308 0
M  V30 15741 C 1529.19 4.01893 -1.7936 0
M  V30 15742 H 1526.31 0.602063 -0.425076 0
M  V30 15743 H 1528.95 1.05081 -1.58297 0
M  V30 15744 H 1527.1 3.53172 -1.61871 0
M  V30 15745 H 1528.77 2.37184 -3.95653 0
M  V30 15746 H 1527.01 2.17063 -3.75588 0
M  V30 15747 H 1527.68 3.78293 -4.01993 0
M  V30 15748 H 1530.16 3.59064 -2.10267 0
M  V30 15749 H 1529.04 4.9455 -2.38141 0
M  V30 15750 H 1529.3 4.35745 -0.746923 0
M  V30 15751 N 1528.36 1.11264 1.11616 0
M  V30 15752 C 1529.29 0.79149 2.19676 0
M  V30 15753 C 1530.27 -0.239351 1.68408 0
M  V30 15754 O 1531.45 -0.103228 1.93925 0
M  V30 15755 C 1528.58 0.231891 3.46525 0
M  V30 15756 C 1527.54 1.19439 4.10997 0
M  V30 15757 C 1526.86 0.495593 5.32398 0
M  V30 15758 C 1528.16 2.54437 4.56135 0
M  V30 15759 H 1529.86 1.69503 2.46797 0
M  V30 15760 H 1527.4 0.816433 1.18619 0
M  V30 15761 H 1529.35 -0.00497468 4.214 0
M  V30 15762 H 1528.08 -0.706938 3.18857 0
M  V30 15763 H 1526.74 1.41686 3.38113 0
M  V30 15764 H 1526.39 -0.447984 5.01001 0
M  V30 15765 H 1526.09 1.13753 5.76484 0
M  V30 15766 H 1527.61 0.267476 6.10014 0
M  V30 15767 H 1529.02 2.36289 5.22341 0
M  V30 15768 H 1527.42 3.14595 5.11028 0
M  V30 15769 H 1528.49 3.13795 3.69676 0
M  V30 15770 N 1529.83 -1.29188 0.902679 0
M  V30 15771 C 1530.77 -2.26665 0.339964 0
M  V30 15772 C 1531.78 -1.54426 -0.515396 0
M  V30 15773 O 1532.97 -1.75384 -0.332071 0
M  V30 15774 C 1530.07 -3.34672 -0.533653 0
M  V30 15775 C 1529.24 -4.36393 0.296661 0
M  V30 15776 C 1528.3 -5.2372 -0.510264 0
M  V30 15777 O 1527.33 -5.69153 0.0732871 0
M  V30 15778 N 1528.53 -5.51373 -1.81572 0
M  V30 15779 H 1531.29 -2.75588 1.17778 0
M  V30 15780 H 1528.85 -1.42553 0.767474 0
M  V30 15781 H 1530.85 -3.90025 -1.07995 0
M  V30 15782 H 1529.42 -2.85543 -1.27216 0
M  V30 15783 H 1528.64 -3.80658 1.02436 0
M  V30 15784 H 1529.92 -5.0139 0.865191 0
M  V30 15785 H 1529.32 -5.16275 -2.31251 0
M  V30 15786 H 1527.88 -6.09528 -2.30908 0
M  V30 15787 N 1531.31 -0.665475 -1.42861 0
M  V30 15788 C 1532.24 0.0574495 -2.29128 0
M  V30 15789 C 1533.26 0.774881 -1.43176 0
M  V30 15790 O 1534.45 0.630593 -1.6699 0
M  V30 15791 C 1531.55 1.10481 -3.20386 0
M  V30 15792 C 1530.72 0.463071 -4.34942 0
M  V30 15793 C 1529.78 1.40896 -5.06986 0
M  V30 15794 O 1528.8 0.912839 -5.61833 0
M  V30 15795 N 1530.01 2.74257 -5.11628 0
M  V30 15796 H 1532.77 -0.683051 -2.91812 0
M  V30 15797 H 1530.33 -0.509179 -1.53685 0
M  V30 15798 H 1532.32 1.73866 -3.65449 0
M  V30 15799 H 1530.89 1.74715 -2.59217 0
M  V30 15800 H 1530.11 -0.350109 -3.92642 0
M  V30 15801 H 1531.4 0.0156092 -5.08798 0
M  V30 15802 H 1530.8 3.17112 -4.68462 0
M  V30 15803 H 1529.36 3.32913 -5.60368 0
M  V30 15804 N 1532.79 1.52222 -0.408187 0
M  V30 15805 C 1533.74 2.26988 0.417767 0
M  V30 15806 C 1534.71 1.29362 1.04185 0
M  V30 15807 O 1535.89 1.58223 1.06631 0
M  V30 15808 C 1533.03 3.09379 1.52901 0
M  V30 15809 C 1532.14 4.2196 0.92593 0
M  V30 15810 C 1531.28 4.91712 2.00979 0
M  V30 15811 C 1530.32 5.96258 1.3836 0
M  V30 15812 N 1529.46 6.59531 2.40756 0
M  V30 15813 H 1534.3 2.9714 -0.226228 0
M  V30 15814 H 1531.83 1.46581 -0.123402 0
M  V30 15815 H 1533.79 3.55452 2.18425 0
M  V30 15816 H 1532.42 2.41399 2.14304 0
M  V30 15817 H 1531.47 3.80064 0.159765 0
M  V30 15818 H 1532.78 4.96956 0.428497 0
M  V30 15819 H 1531.94 5.41186 2.74231 0
M  V30 15820 H 1530.68 4.16282 2.54087 0
M  V30 15821 H 1529.68 5.46104 0.636402 0
M  V30 15822 H 1530.91 6.7363 0.860218 0
M  V30 15823 H 1528.85 5.86931 2.92999 0
M  V30 15824 H 1528.77 7.30198 1.95822 0
M  V30 15825 H 1530.04 7.13643 3.13581 0
M  V30 15826 N 1534.27 0.138579 1.5699 0
M  V30 15827 C 1535.68 -0.383633 1.82716 0
M  V30 15828 C 1536.03 -1.65304 1.05684 0
M  V30 15829 O 1535.15 -2.14318 0.299488 0
M  V30 15830 C 1535.75 -0.7028 3.3143 0
M  V30 15831 C 1534.31 -1.16957 3.57768 0
M  V30 15832 C 1533.46 -0.188295 2.7666 0
M  V30 15833 H 1536.41 0.363415 1.54483 0
M  V30 15834 H 1536.43 -1.55832 3.47126 0
M  V30 15835 H 1535.94 0.221271 3.87469 0
M  V30 15836 H 1534.04 -2.10987 3.07108 0
M  V30 15837 H 1534.15 -1.10136 4.66269 0
M  V30 15838 H 1532.52 -0.679255 2.45475 0
M  V30 15839 H 1533.3 0.729218 3.35466 0
M  V30 15840 N 1535.75 -1.57019 -0.13521 0
M  V30 15841 C 1536.69 -2.0011 -1.18569 0
M  V30 15842 C 1537.69 -0.895372 -1.43804 0
M  V30 15843 O 1538.89 -1.08057 -1.43957 0
M  V30 15844 H 1535.27 -0.637176 -0.399388 0
M  V30 15845 H 1537.24 -2.87597 -0.795636 0
M  V30 15846 C 1535.99 -2.40769 -2.50849 0
M  V30 15847 H 1535.31 -3.25412 -2.32265 0
M  V30 15848 H 1536.75 -2.74733 -3.22951 0
M  V30 15849 C 1535.21 -1.26494 -3.12251 0
M  V30 15850 O 1535.74 -0.572067 -3.97606 0
M  V30 15851 N 1533.95 -1.02615 -2.7188 0
M  V30 15852 H 1533.49 -1.59136 -2.02567 0
M  V30 15853 H 1533.45 -0.263464 -3.13294 0
M  V30 15854 N 1537.22 0.404919 -1.52309 0
M  V30 15855 C 1538.47 1.14859 -1.65802 0
M  V30 15856 C 1538.79 1.91546 -0.396174 0
M  V30 15857 O 1539.99 2.68372 -0.410969 0
M  V30 15858 C 1538.45 2.09068 -2.92948 0
M  V30 15859 C 1538.06 1.37878 -4.26255 0
M  V30 15860 C 1539.8 2.83669 -3.15804 0
M  V30 15861 C 1537.71 2.30761 -5.44521 0
M  V30 15862 H 1536.64 0.432463 -0.61765 0
M  V30 15863 H 1539.29 0.412695 -1.78799 0
M  V30 15864 H 1537.67 2.86228 -2.7366 0
M  V30 15865 H 1538.84 0.660543 -4.56041 0
M  V30 15866 H 1537.16 0.753026 -4.09534 0
M  V30 15867 H 1539.76 3.53313 -4.0134 0
M  V30 15868 H 1540.1 3.46855 -2.30212 0
M  V30 15869 H 1540.63 2.13607 -3.35584 0
M  V30 15870 H 1537.37 1.72214 -6.32473 0
M  V30 15871 H 1536.89 3.00546 -5.19069 0
M  V30 15872 H 1538.57 2.91195 -5.77767 0
M  V30 15873 N 1538.7 1.43003 0.662408 0
M  V30 15874 C 1539.65 1.47701 1.79686 0
M  V30 15875 C 1540.64 0.351491 1.65713 0
M  V30 15876 O 1541.85 0.525071 1.72171 0
M  V30 15877 H 1538.23 0.46285 0.592684 0
M  V30 15878 H 1540.2 2.43245 1.72843 0
M  V30 15879 C 1538.95 1.40828 3.17904 0
M  V30 15880 H 1538.27 2.26736 3.29288 0
M  V30 15881 H 1539.71 1.48177 3.97265 0
M  V30 15882 C 1538.17 0.124659 3.36669 0
M  V30 15883 O 1538.7 -0.81769 3.9329 0
M  V30 15884 N 1536.9 0.0378063 2.90575 0
M  V30 15885 H 1536.45 0.805456 2.44684 0
M  V30 15886 H 1536.41 -0.820377 3.03508 0
M  V30 15887 N 1540.18 -0.899904 1.29381 0
M  V30 15888 C 1541.14 -1.98554 1.14494 0
M  V30 15889 C 1542.14 -1.60599 0.0804732 0
M  V30 15890 O 1543.33 -1.71096 0.327395 0
M  V30 15891 C 1540.47 -3.32529 0.750818 0
M  V30 15892 H 1541.66 -2.13189 2.10928 0
M  V30 15893 H 1539.21 -1.08438 1.12565 0
M  V30 15894 H 1539.95 -3.23595 -0.213668 0
M  V30 15895 H 1539.73 -3.61443 1.51992 0
M  V30 15896 H 1541.22 -4.12195 0.669709 0
M  V30 15897 N 1541.66 -1.11854 -1.11024 0
M  V30 15898 C 1542.9 -0.871362 -1.83126 0
M  V30 15899 C 1543.24 0.601437 -1.84652 0
M  V30 15900 O 1542.51 1.44427 -1.30273 0
M  V30 15901 C 1542.8 -1.4391 -3.30094 0
M  V30 15902 C 1542.65 -2.97983 -3.36937 0
M  V30 15903 C 1543.97 -1.09361 -4.26296 0
M  V30 15904 H 1541.09 -0.317994 -0.664867 0
M  V30 15905 H 1543.73 -1.38414 -1.3016 0
M  V30 15906 H 1541.88 -1.00297 -3.7533 0
M  V30 15907 H 1543.55 -3.50231 -3.00227 0
M  V30 15908 H 1541.79 -3.33827 -2.77023 0
M  V30 15909 H 1542.46 -3.32797 -4.40398 0
M  V30 15910 H 1544.94 -1.47018 -3.89262 0
M  V30 15911 H 1543.82 -1.51756 -5.27505 0
M  V30 15912 H 1544.08 -0.0049637 -4.421 0
M  V30 15913 N 1543.14 1.28707 -0.909517 0
M  V30 15914 C 1544.1 2.25692 -0.39946 0
M  V30 15915 C 1545.1 1.53721 0.471848 0
M  V30 15916 O 1546.29 1.72008 0.275504 0
M  V30 15917 C 1543.42 3.38205 0.427793 0
M  V30 15918 H 1544.61 2.72326 -1.25613 0
M  V30 15919 H 1542.17 1.40317 -0.688535 0
M  V30 15920 H 1542.9 2.96926 1.30404 0
M  V30 15921 H 1542.69 3.91606 -0.19667 0
M  V30 15922 H 1544.18 4.10334 0.775634 0
M  V30 15923 N 1544.61 0.673042 1.42506 0
M  V30 15924 C 1545.84 0.202922 2.05902 0
M  V30 15925 C 1546.26 -1.13923 1.50556 0
M  V30 15926 O 1545.61 -1.70735 0.644662 0
M  V30 15927 C 1545.67 0.12735 3.61276 0
M  V30 15928 O 1545.39 1.41646 4.1457 0
M  V30 15929 C 1546.89 -0.366477 4.41783 0
M  V30 15930 H 1544.11 0.0991021 0.663641 0
M  V30 15931 H 1546.65 0.919282 1.82673 0
M  V30 15932 H 1544.81 -0.539687 3.83622 0
M  V30 15933 H 1545.22 1.28866 5.08423 0
M  V30 15934 H 1546.69 -0.368267 5.5077 0
M  V30 15935 H 1547.17 -1.40142 4.16241 0
M  V30 15936 H 1547.78 0.268761 4.2445 0
M  V30 15937 N 1546.09 -1.52004 0.416254 0
M  V30 15938 C 1547.02 -2.30106 -0.396671 0
M  V30 15939 C 1548 -1.34616 -1.03983 0
M  V30 15940 O 1549.19 -1.63528 -1.04749 0
M  V30 15941 C 1546.32 -3.12769 -1.50972 0
M  V30 15942 C 1545.27 -4.16365 -0.99119 0
M  V30 15943 C 1544.6 -4.87417 -2.19838 0
M  V30 15944 C 1545.9 -5.22284 -0.0402599 0
M  V30 15945 H 1547.59 -2.98312 0.255054 0
M  V30 15946 H 1545.14 -1.43464 0.124106 0
M  V30 15947 H 1547.09 -3.66178 -2.08547 0
M  V30 15948 H 1545.82 -2.42346 -2.18943 0
M  V30 15949 H 1544.47 -3.63976 -0.437803 0
M  V30 15950 H 1544.12 -4.13516 -2.8638 0
M  V30 15951 H 1543.82 -5.57454 -1.85792 0
M  V30 15952 H 1545.35 -5.43641 -2.78006 0
M  V30 15953 H 1546.76 -5.70891 -0.525027 0
M  V30 15954 H 1545.16 -5.99726 0.211742 0
M  V30 15955 H 1546.23 -4.7642 0.902877 0
M  V30 15956 N 1547.57 -0.146903 -1.56914 0
M  V30 15957 C 1548.48 0.805875 -2.20324 0
M  V30 15958 C 1549.5 1.27178 -1.18751 0
M  V30 15959 O 1550.67 1.32899 -1.51327 0
M  V30 15960 C 1547.74 2.02755 -2.81232 0
M  V30 15961 C 1546.8 1.61089 -3.97931 0
M  V30 15962 C 1546.03 2.77433 -4.55924 0
M  V30 15963 O 1546.25 3.93643 -4.12797 0
M  V30 15964 O 1545.19 2.52911 -5.46187 0
M  V30 15965 H 1549.01 0.296098 -3.02253 0
M  V30 15966 H 1546.6 0.0801175 -1.49185 0
M  V30 15967 H 1548.48 2.74252 -3.19944 0
M  V30 15968 H 1547.16 2.52686 -2.02316 0
M  V30 15969 H 1546.06 0.86616 -3.63935 0
M  V30 15970 H 1547.4 1.15874 -4.78366 0
M  V30 15971 N 1549.05 1.57088 0.126881 0
M  V30 15972 C 1550 1.99764 1.15599 0
M  V30 15973 C 1550.97 0.868468 1.41587 0
M  V30 15974 O 1552.15 1.13209 1.53585 0
M  V30 15975 C 1549.29 2.40038 2.47943 0
M  V30 15976 C 1548.4 3.66336 2.28958 0
M  V30 15977 C 1547.54 3.95626 3.54477 0
M  V30 15978 C 1546.58 5.15131 3.30616 0
M  V30 15979 N 1545.71 5.4033 4.48317 0
M  V30 15980 H 1550.55 2.87473 0.785078 0
M  V30 15981 H 1548.09 1.42209 0.376169 0
M  V30 15982 H 1550.05 2.61423 3.25136 0
M  V30 15983 H 1548.68 1.55382 2.82942 0
M  V30 15984 H 1547.73 3.52612 1.4272 0
M  V30 15985 H 1549.04 4.53684 2.07298 0
M  V30 15986 H 1548.2 4.17617 4.40092 0
M  V30 15987 H 1546.94 3.06738 3.79161 0
M  V30 15988 H 1545.94 4.92992 2.43391 0
M  V30 15989 H 1547.17 6.05588 3.0731 0
M  V30 15990 H 1545.11 4.54399 4.73136 0
M  V30 15991 H 1545.03 6.21985 4.29733 0
M  V30 15992 H 1546.3 5.66835 5.35088 0
M  V30 15993 N 1550.53 -0.396836 1.52522 0
M  V30 15994 C 1551.77 -1.14432 1.67431 0
M  V30 15995 C 1552.11 -1.89842 0.409115 0
M  V30 15996 O 1551.38 -1.85244 -0.592863 0
M  V30 15997 C 1551.66 -2.12889 2.90431 0
M  V30 15998 C 1551.52 -1.41295 4.27031 0
M  V30 15999 C 1552.84 -3.13412 3.08967 0
M  V30 16000 H 1549.95 -0.414643 0.609295 0
M  V30 16001 H 1552.6 -0.428604 1.85103 0
M  V30 16002 H 1550.75 -2.73924 2.75495 0
M  V30 16003 H 1552.42 -0.832848 4.53719 0
M  V30 16004 H 1550.66 -0.714834 4.2787 0
M  V30 16005 H 1551.33 -2.13198 5.09167 0
M  V30 16006 H 1553.81 -2.62462 3.22883 0
M  V30 16007 H 1552.68 -3.79555 3.96522 0
M  V30 16008 H 1552.95 -3.81836 2.22831 0
M  V30 16009 N 1552.01 -1.43353 -0.654814 0
M  V30 16010 C 1553.25 -1.44172 -1.41058 0
M  V30 16011 C 1553.57 -0.0690586 -1.95478 0
M  V30 16012 O 1554.77 0.0453021 -2.71462 0
M  V30 16013 C 1553.23 -2.53701 -2.55272 0
M  V30 16014 C 1552.84 -3.97066 -2.07466 0
M  V30 16015 C 1554.58 -2.63713 -3.3265 0
M  V30 16016 C 1552.49 -4.98065 -3.18881 0
M  V30 16017 H 1551.42 -0.536303 -0.529995 0
M  V30 16018 H 1554.07 -1.69336 -0.706941 0
M  V30 16019 H 1552.45 -2.21736 -3.28099 0
M  V30 16020 H 1553.63 -4.38485 -1.4166 0
M  V30 16021 H 1551.94 -3.91086 -1.42972 0
M  V30 16022 H 1554.54 -3.36346 -4.15663 0
M  V30 16023 H 1554.88 -1.68729 -3.80574 0
M  V30 16024 H 1555.41 -2.94971 -2.66902 0
M  V30 16025 H 1552.15 -5.94596 -2.75927 0
M  V30 16026 H 1551.67 -4.61261 -3.83404 0
M  V30 16027 H 1553.35 -5.20696 -3.84037 0
M  V30 16028 N 1553.48 0.89303 -1.29857 0
M  V30 16029 C 1554.39 2.03079 -1.17457 0
M  V30 16030 C 1555.41 1.73733 -0.0962941 0
M  V30 16031 O 1556.59 1.99005 -0.309667 0
M  V30 16032 C 1553.65 3.3589 -0.858991 0
M  V30 16033 C 1552.71 3.78711 -2.0218 0
M  V30 16034 C 1551.94 5.05184 -1.72118 0
M  V30 16035 O 1552.17 5.66738 -0.645276 0
M  V30 16036 O 1551.1 5.44218 -2.57119 0
M  V30 16037 H 1554.93 2.16465 -2.13017 0
M  V30 16038 H 1552.51 1.01774 -1.09373 0
M  V30 16039 H 1554.39 4.15582 -0.697852 0
M  V30 16040 H 1553.07 3.23631 0.0667756 0
M  V30 16041 H 1551.98 2.99758 -2.23822 0
M  V30 16042 H 1553.31 3.95563 -2.929 0
M  V30 16043 N 1554.96 1.12442 1.10429 0
M  V30 16044 C 1556.21 0.874466 1.81758 0
M  V30 16045 C 1556.52 -0.601487 1.86122 0
M  V30 16046 O 1557.73 -0.968037 2.53656 0
M  V30 16047 C 1556.19 1.51478 3.2647 0
M  V30 16048 C 1555.79 3.02552 3.30403 0
M  V30 16049 C 1557.54 1.34511 4.02625 0
M  V30 16050 C 1555.44 3.59518 4.69575 0
M  V30 16051 H 1554.37 0.323494 0.681078 0
M  V30 16052 H 1557.03 1.35091 1.24188 0
M  V30 16053 H 1555.41 0.966 3.84037 0
M  V30 16054 H 1556.58 3.63924 2.82659 0
M  V30 16055 H 1554.9 3.18917 2.67733 0
M  V30 16056 H 1557.49 1.74492 5.05427 0
M  V30 16057 H 1557.84 0.288788 4.15297 0
M  V30 16058 H 1558.37 1.86311 3.51473 0
M  V30 16059 H 1555.11 4.6491 4.62103 0
M  V30 16060 H 1554.63 3.02922 5.17686 0
M  V30 16061 H 1556.31 3.58581 5.38543 0
M  V30 16062 N 1556.44 -1.28223 0.91633 0
M  V30 16063 C 1557.37 -2.26291 0.363986 0
M  V30 16064 C 1558.38 -1.54964 -0.498988 0
M  V30 16065 O 1559.57 -1.75726 -0.31345 0
M  V30 16066 C 1556.67 -3.35219 -0.498126 0
M  V30 16067 C 1555.85 -4.36054 0.34293 0
M  V30 16068 C 1554.91 -5.24232 -0.454688 0
M  V30 16069 O 1553.93 -5.69043 0.133649 0
M  V30 16070 N 1555.13 -5.53268 -1.75714 0
M  V30 16071 H 1557.9 -2.74323 1.20694 0
M  V30 16072 H 1555.46 -1.41731 0.782551 0
M  V30 16073 H 1557.45 -3.91148 -1.03852 0
M  V30 16074 H 1556.02 -2.86876 -1.2418 0
M  V30 16075 H 1555.24 -3.7955 1.06468 0
M  V30 16076 H 1556.53 -5.00444 0.918322 0
M  V30 16077 H 1555.93 -5.18698 -2.25762 0
M  V30 16078 H 1554.48 -6.11943 -2.2443 0
M  V30 16079 N 1557.92 -0.68059 -1.42147 0
M  V30 16080 C 1559.14 -0.212293 -2.06311 0
M  V30 16081 C 1559.57 1.12402 -1.50822 0
M  V30 16082 O 1558.93 1.70037 -0.629051 0
M  V30 16083 C 1558.97 -0.164156 -3.60226 0
M  V30 16084 O 1558.08 0.865582 -4.03214 0
M  V30 16085 H 1557.42 -0.107451 -0.655248 0
M  V30 16086 H 1559.95 -0.931233 -1.82179 0
M  V30 16087 H 1559.96 0.0100422 -4.07999 0
M  V30 16088 H 1558.63 -1.13952 -3.99985 0
M  V30 16089 H 1557.21 0.661955 -3.66978 0
M  V30 16090 N 1559.4 1.51781 -0.424309 0
M  V30 16091 C 1560.34 2.27418 0.393668 0
M  V30 16092 C 1561.31 1.3046 1.02808 0
M  V30 16093 O 1562.5 1.59345 1.04946 0
M  V30 16094 C 1559.64 3.10983 1.49611 0
M  V30 16095 C 1558.75 4.22919 0.881123 0
M  V30 16096 C 1557.89 4.93816 1.95752 0
M  V30 16097 C 1556.92 5.97691 1.32028 0
M  V30 16098 N 1556.06 6.62047 2.33747 0
M  V30 16099 H 1560.9 2.96883 -0.257731 0
M  V30 16100 H 1558.44 1.46442 -0.138942 0
M  V30 16101 H 1560.4 3.57749 2.14642 0
M  V30 16102 H 1559.03 2.43658 2.11732 0
M  V30 16103 H 1558.08 3.80212 0.119445 0
M  V30 16104 H 1559.39 4.97383 0.375764 0
M  V30 16105 H 1558.54 5.44064 2.68476 0
M  V30 16106 H 1557.28 4.18954 2.49658 0
M  V30 16107 H 1556.29 5.46749 0.578444 0
M  V30 16108 H 1557.51 6.74504 0.788722 0
M  V30 16109 H 1555.46 5.90005 2.86757 0
M  V30 16110 H 1555.38 7.32234 1.88066 0
M  V30 16111 H 1556.64 7.16929 3.05995 0
M  V30 16112 N 1560.87 0.155222 1.56834 0
M  V30 16113 C 1561.82 -0.793251 2.13756 0
M  V30 16114 C 1562.81 -1.20386 1.06752 0
M  V30 16115 O 1564 -1.1689 1.32912 0
M  V30 16116 C 1561.13 -2.02904 2.7692 0
M  V30 16117 C 1560.21 -1.64116 3.91058 0
M  V30 16118 N 1560.61 -0.961946 4.96568 0
M  V30 16119 C 1558.9 -1.93331 4.01919 0
M  V30 16120 C 1559.6 -0.773392 5.76536 0
M  V30 16121 N 1558.58 -1.30983 5.27584 0
M  V30 16122 H 1562.38 -0.265174 2.92701 0
M  V30 16123 H 1559.9 -0.0460321 1.62335 0
M  V30 16124 H 1561.89 -2.7186 3.16066 0
M  V30 16125 H 1560.55 -2.56222 1.9945 0
M  V30 16126 H 1561.56 -0.621782 5.14154 0
M  V30 16127 H 1558.24 -2.4844 3.35535 0
M  V30 16128 H 1559.63 -0.237458 6.7148 0
M  V30 16129 N 1562.35 -1.57153 -0.118549 0
M  V30 16130 C 1563.6 -1.86029 -0.822493 0
M  V30 16131 C 1563.95 -0.743041 -1.77473 0
M  V30 16132 O 1563.25 0.256918 -1.8987 0
M  V30 16133 C 1563.44 -3.19084 -1.60998 0
M  V30 16134 C 1563.27 -4.43644 -0.735503 0
M  V30 16135 C 1562.04 -5.03791 -0.390169 0
M  V30 16136 C 1564.24 -5.14273 -0.0529326 0
M  V30 16137 N 1562.22 -6.11902 0.494927 0
M  V30 16138 C 1563.59 -6.16136 0.691148 0
M  V30 16139 C 1565.64 -4.97894 0.0234393 0
M  V30 16140 C 1564.35 -7.03391 1.50443 0
M  V30 16141 C 1566.37 -5.85638 0.823546 0
M  V30 16142 C 1565.74 -6.87003 1.55582 0
M  V30 16143 H 1561.83 -0.73096 -0.277887 0
M  V30 16144 H 1564.42 -1.94509 -0.086209 0
M  V30 16145 H 1562.59 -3.11698 -2.3173 0
M  V30 16146 H 1564.32 -3.35765 -2.2593 0
M  V30 16147 H 1561.08 -4.67901 -0.732512 0
M  V30 16148 H 1561.5 -6.70591 0.929337 0
M  V30 16149 H 1566.14 -4.19486 -0.528351 0
M  V30 16150 H 1563.86 -7.81208 2.06737 0
M  V30 16151 H 1567.45 -5.75029 0.885004 0
M  V30 16152 H 1566.33 -7.53723 2.16498 0
M  V30 16153 N 1563.83 0.388742 -1.5273 0
M  V30 16154 C 1565.05 1.15946 -1.71963 0
M  V30 16155 C 1565.48 1.82949 -0.437173 0
M  V30 16156 O 1564.84 1.70834 0.607072 0
M  V30 16157 C 1564.89 2.18298 -2.87016 0
M  V30 16158 O 1563.99 3.24891 -2.54008 0
M  V30 16159 H 1563.33 0.337526 -0.571815 0
M  V30 16160 H 1565.86 0.452957 -1.99523 0
M  V30 16161 H 1565.87 2.6229 -3.12519 0
M  V30 16162 H 1564.55 1.68917 -3.80052 0
M  V30 16163 H 1563.12 2.86034 -2.39246 0
M  V30 16164 N 1565.31 1.43698 0.647203 0
M  V30 16165 C 1566.55 1.47142 1.41876 0
M  V30 16166 C 1566.91 0.0952249 1.91764 0
M  V30 16167 O 1568.11 0.00434552 2.688 0
M  V30 16168 C 1566.38 2.48957 2.56428 0
M  V30 16169 S 1567.94 2.71323 3.44861 0
M  V30 16170 H 1564.76 0.520628 0.484218 0
M  V30 16171 H 1567.36 1.80507 0.75082 0
M  V30 16172 H 1566.07 3.47674 2.18061 0
M  V30 16173 H 1565.6 2.17109 3.28066 0
M  V30 16174 H 1567.61 2.01704 4.53354 0
M  V30 16175 N 1566.79 -0.886131 1.30328 0
M  V30 16176 C 1568.03 -1.64026 1.19261 0
M  V30 16177 C 1568.37 -1.92553 -0.252379 0
M  V30 16178 O 1567.64 -1.54564 -1.18069 0
M  V30 16179 C 1567.92 -2.9808 2.0204 0
M  V30 16180 C 1567.78 -2.76534 3.54752 0
M  V30 16181 C 1569.1 -3.98989 1.85731 0
M  V30 16182 H 1566.21 -0.595224 0.4346 0
M  V30 16183 H 1568.86 -1.0255 1.59949 0
M  V30 16184 H 1567.01 -3.50552 1.67469 0
M  V30 16185 H 1568.68 -2.3086 3.99376 0
M  V30 16186 H 1566.92 -2.1106 3.78993 0
M  V30 16187 H 1567.59 -3.71849 4.07961 0
M  V30 16188 H 1570.07 -3.55673 2.15953 0
M  V30 16189 H 1568.94 -4.90699 2.45979 0
M  V30 16190 H 1569.21 -4.34501 0.816152 0
M  V30 16191 N 1568.26 -1.13026 -1.09832 0
M  V30 16192 C 1569.2 -0.761606 -2.16176 0
M  V30 16193 C 1570.21 0.214709 -1.61378 0
M  V30 16194 O 1571.4 -0.00487178 -1.78499 0
M  V30 16195 C 1568.5 -0.107513 -3.38729 0
M  V30 16196 C 1567.67 -1.11487 -4.22953 0
M  V30 16197 C 1566.73 -0.487243 -5.23939 0
M  V30 16198 O 1565.76 -1.14605 -5.57543 0
M  V30 16199 N 1566.96 0.742571 -5.75731 0
M  V30 16200 H 1569.72 -1.67669 -2.48409 0
M  V30 16201 H 1567.28 -1.0227 -1.25509 0
M  V30 16202 H 1569.28 0.324507 -4.03397 0
M  V30 16203 H 1567.85 0.710438 -3.0442 0
M  V30 16204 H 1567.07 -1.72432 -3.54487 0
M  V30 16205 H 1568.35 -1.79584 -4.76053 0
M  V30 16206 H 1567.75 1.29667 -5.50639 0
M  V30 16207 H 1566.31 1.11731 -6.42152 0
M  V30 16208 N 1569.74 1.27735 -0.923117 0
M  V30 16209 C 1570.69 2.26997 -0.417254 0
M  V30 16210 C 1571.66 1.57968 0.513364 0
M  V30 16211 O 1572.84 1.8581 0.433521 0
M  V30 16212 C 1569.98 3.43537 0.328089 0
M  V30 16213 C 1569.1 4.27291 -0.636112 0
M  V30 16214 C 1568.23 5.31044 0.128614 0
M  V30 16215 C 1567.27 6.06466 -0.828592 0
M  V30 16216 N 1566.41 7.02033 -0.0967858 0
M  V30 16217 H 1571.25 2.69643 -1.26872 0
M  V30 16218 H 1568.79 1.32597 -0.6369 0
M  V30 16219 H 1570.74 4.0991 0.776504 0
M  V30 16220 H 1569.37 3.01855 1.14383 0
M  V30 16221 H 1568.43 3.60875 -1.20306 0
M  V30 16222 H 1569.74 4.79679 -1.36784 0
M  V30 16223 H 1568.89 6.03345 0.637159 0
M  V30 16224 H 1567.63 4.79448 0.893341 0
M  V30 16225 H 1566.64 5.33008 -1.34843 0
M  V30 16226 H 1567.86 6.60151 -1.59303 0
M  V30 16227 H 1565.81 6.52774 0.649779 0
M  V30 16228 H 1565.72 7.52087 -0.768171 0
M  V30 16229 H 1566.99 7.78517 0.391257 0
M  V30 16230 N 1571.22 0.688118 1.41784 0
M  V30 16231 C 1572.47 0.215944 2.01345 0
M  V30 16232 C 1572.8 -1.18197 1.54466 0
M  V30 16233 O 1572.05 -1.81032 0.743374 0
M  V30 16234 C 1572.35 0.213747 3.5676 0
M  V30 16235 C 1572.02 1.55816 4.23122 0
M  V30 16236 C 1570.68 1.92623 4.40964 0
M  V30 16237 C 1573.03 2.44297 4.604 0
M  V30 16238 C 1570.36 3.17511 4.93359 0
M  V30 16239 C 1572.71 3.68511 5.14182 0
M  V30 16240 C 1571.37 4.0547 5.30236 0
M  V30 16241 H 1570.64 0.0790193 0.736775 0
M  V30 16242 H 1573.29 0.885737 1.69785 0
M  V30 16243 H 1571.6 -0.539583 3.88067 0
M  V30 16244 H 1573.29 -0.169004 4.00644 0
M  V30 16245 H 1569.88 1.26186 4.09604 0
M  V30 16246 H 1574.07 2.17143 4.46277 0
M  V30 16247 H 1569.32 3.46151 5.03973 0
M  V30 16248 H 1573.5 4.37264 5.42008 0
M  V30 16249 H 1571.12 5.02316 5.70598 0
M  V30 16250 N 1572.7 -1.51554 0.432352 0
M  V30 16251 C 1573.66 -2.26195 -0.369912 0
M  V30 16252 C 1574.66 -1.29446 -0.953961 0
M  V30 16253 O 1575.85 -1.53199 -0.829193 0
M  V30 16254 C 1572.98 -3.04993 -1.52289 0
M  V30 16255 H 1574.18 -2.98551 0.284173 0
M  V30 16256 H 1571.73 -1.55197 0.1854 0
M  V30 16257 H 1572.46 -2.37043 -2.21317 0
M  V30 16258 H 1572.25 -3.76051 -1.11032 0
M  V30 16259 H 1573.74 -3.61547 -2.08982 0
M  V30 16260 N 1574.18 -0.163538 -1.56749 0
M  V30 16261 C 1575.14 0.755801 -2.1638 0
M  V30 16262 C 1576.14 1.16359 -1.10982 0
M  V30 16263 O 1577.33 1.08182 -1.36537 0
M  V30 16264 C 1574.46 2.02775 -2.74035 0
M  V30 16265 H 1575.65 0.23681 -2.98964 0
M  V30 16266 H 1573.21 0.0859925 -1.56063 0
M  V30 16267 H 1573.94 2.59002 -1.95163 0
M  V30 16268 H 1573.73 1.74439 -3.5116 0
M  V30 16269 H 1575.22 2.684 -3.19923 0
M  V30 16270 N 1575.65 1.57214 0.110213 0
M  V30 16271 C 1576.9 1.84946 0.814827 0
M  V30 16272 C 1577.22 0.750029 1.79999 0
M  V30 16273 O 1576.49 -0.225164 1.94602 0
M  V30 16274 H 1575.07 0.682385 0.303907 0
M  V30 16275 H 1577.74 1.94666 0.0954415 0
M  V30 16276 H 1576.83 2.81167 1.35469 0
M  V30 16277 N 1577.13 -0.380637 1.52934 0
M  V30 16278 C 1578.06 -1.47174 1.81279 0
M  V30 16279 C 1579.04 -1.56549 0.665319 0
M  V30 16280 O 1580.23 -1.71362 0.913722 0
M  V30 16281 C 1577.36 -2.84691 1.98918 0
M  V30 16282 C 1576.31 -2.90151 3.14637 0
M  V30 16283 C 1575.64 -4.30198 3.17544 0
M  V30 16284 C 1576.94 -2.59037 4.53539 0
M  V30 16285 H 1578.63 -1.23703 2.7265 0
M  V30 16286 H 1576.18 -0.593654 1.31194 0
M  V30 16287 H 1578.13 -3.61034 2.1733 0
M  V30 16288 H 1576.86 -3.09517 1.04244 0
M  V30 16289 H 1575.51 -2.16257 2.96021 0
M  V30 16290 H 1575.16 -4.52076 2.20536 0
M  V30 16291 H 1574.86 -4.3477 3.95284 0
M  V30 16292 H 1576.39 -5.08435 3.38121 0
M  V30 16293 H 1577.8 -3.25096 4.72214 0
M  V30 16294 H 1576.2 -2.74946 5.33408 0
M  V30 16295 H 1577.27 -1.54342 4.59681 0
M  V30 16296 N 1578.61 -1.44039 -0.639573 0
M  V30 16297 C 1579.86 -1.46088 -1.39652 0
M  V30 16298 C 1580.18 -0.0914602 -1.94785 0
M  V30 16299 O 1579.45 0.875097 -1.75268 0
M  V30 16300 H 1578.03 -0.537901 -0.518335 0
M  V30 16301 H 1580.69 -1.79751 -0.753365 0
M  V30 16302 H 1579.79 -2.1814 -2.23207 0
M  V30 16303 N 1580.09 0.879207 -1.30796 0
M  V30 16304 C 1581.5 1.16344 -1.09253 0
M  V30 16305 C 1581.7 2.00992 0.142993 0
M  V30 16306 O 1580.76 2.38295 0.834966 0
M  V30 16307 C 1582.07 1.86452 -2.35915 0
M  V30 16308 C 1583.62 1.99193 -2.41436 0
M  V30 16309 C 1584.1 2.72714 -3.67955 0
M  V30 16310 N 1585.59 2.80256 -3.68796 0
M  V30 16311 C 1586.32 3.37732 -4.63384 0
M  V30 16312 N 1585.82 3.96212 -5.6832 0
M  V30 16313 N 1587.61 3.35602 -4.50918 0
M  V30 16314 H 1579.76 0.314928 -2.10052 0
M  V30 16315 H 1582.03 0.202087 -0.92621 0
M  V30 16316 H 1581.73 1.31699 -3.26111 0
M  V30 16317 H 1581.61 2.86796 -2.45006 0
M  V30 16318 H 1583.99 2.53113 -1.51716 0
M  V30 16319 H 1584.07 0.97919 -2.36317 0
M  V30 16320 H 1583.72 2.19464 -4.58037 0
M  V30 16321 H 1583.65 3.74376 -3.70338 0
M  V30 16322 H 1586.14 2.38742 -2.92935 0
M  V30 16323 H 1586.45 4.38153 -6.36586 0
M  V30 16324 H 1584.8 3.94615 -5.72105 0
M  V30 16325 H 1587.99 2.89147 -3.68119 0
M  V30 16326 H 1588.16 3.80099 -5.24813 0
M  V30 16327 N 1581.57 1.13606 1.09231 0
M  V30 16328 C 1582.79 0.922667 1.85746 0
M  V30 16329 C 1583.22 -0.523381 1.80672 0
M  V30 16330 O 1582.58 -1.37156 1.18566 0
M  V30 16331 C 1582.62 1.41762 3.31566 0
M  V30 16332 O 1581.73 0.60418 4.0795 0
M  V30 16333 H 1581.07 0.330523 0.575891 0
M  V30 16334 H 1583.6 1.51123 1.37924 0
M  V30 16335 H 1583.61 1.42212 3.82413 0
M  V30 16336 H 1582.28 2.47048 3.34574 0
M  V30 16337 H 1580.86 0.667721 3.66873 0
M  V30 16338 N 1583.05 -1.27244 0.929878 0
M  V30 16339 C 1583.98 -2.29161 0.448066 0
M  V30 16340 C 1584.96 -1.62806 -0.492776 0
M  V30 16341 O 1586.14 -1.90098 -0.39706 0
M  V30 16342 C 1583.27 -3.46019 -0.298002 0
M  V30 16343 C 1582.23 -4.24384 0.555211 0
M  V30 16344 C 1581.55 -5.33741 -0.320153 0
M  V30 16345 C 1582.85 -4.89535 1.8208 0
M  V30 16346 H 1584.55 -2.69712 1.29983 0
M  V30 16347 H 1582.09 -1.29659 0.626466 0
M  V30 16348 H 1584.04 -4.16419 -0.646024 0
M  V30 16349 H 1582.77 -3.0439 -1.18381 0
M  V30 16350 H 1581.43 -3.55733 0.885971 0
M  V30 16351 H 1581.08 -4.88354 -1.20498 0
M  V30 16352 H 1580.78 -5.8708 0.247241 0
M  V30 16353 H 1582.3 -6.06982 -0.663697 0
M  V30 16354 H 1583.71 -5.52209 1.54071 0
M  V30 16355 H 1582.11 -5.52941 2.33186 0
M  V30 16356 H 1583.18 -4.13113 2.53901 0
M  V30 16357 N 1584.52 -0.695628 -1.41417 0
M  V30 16358 C 1585.94 -0.367185 -1.55319 0
M  V30 16359 C 1586.14 1.12584 -1.67114 0
M  V30 16360 O 1585.2 1.91166 -1.64959 0
M  V30 16361 C 1586.51 -1.11576 -2.79233 0
M  V30 16362 C 1588.06 -1.10011 -2.9303 0
M  V30 16363 C 1588.53 -1.83044 -4.19832 0
M  V30 16364 N 1590.02 -1.80014 -4.26789 0
M  V30 16365 C 1590.76 -2.33362 -5.23765 0
M  V30 16366 N 1590.25 -2.95182 -6.26769 0
M  V30 16367 N 1592.05 -2.23618 -5.15705 0
M  V30 16368 H 1584.2 -1.66398 -1.32006 0
M  V30 16369 H 1586.46 -0.702205 -0.636877 0
M  V30 16370 H 1586.17 -2.1706 -2.76727 0
M  V30 16371 H 1586.04 -0.694385 -3.70753 0
M  V30 16372 H 1588.43 -0.0535436 -2.95051 0
M  V30 16373 H 1588.51 -1.56055 -2.02683 0
M  V30 16374 H 1588.15 -2.8768 -4.18572 0
M  V30 16375 H 1588.08 -1.34434 -5.09151 0
M  V30 16376 H 1590.57 -1.34942 -3.52986 0
M  V30 16377 H 1590.89 -3.33456 -6.97156 0
M  V30 16378 H 1589.23 -2.99259 -6.27271 0
M  V30 16379 H 1592.42 -1.74994 -4.3416 0
M  V30 16380 H 1592.6 -2.65497 -5.91113 0
M  V30 16381 N 1586 1.51322 -0.440383 0
M  V30 16382 C 1586.91 2.31574 0.37561 0
M  V30 16383 C 1587.93 1.40617 1.02483 0
M  V30 16384 O 1589.1 1.73688 1.01953 0
M  V30 16385 C 1586.17 3.14441 1.4604 0
M  V30 16386 C 1585.23 4.21181 0.830991 0
M  V30 16387 C 1584.46 5.00087 1.86409 0
M  V30 16388 O 1584.69 4.79666 3.08669 0
M  V30 16389 O 1583.62 5.84101 1.45293 0
M  V30 16390 H 1587.45 3.0241 -0.27962 0
M  V30 16391 H 1585.03 1.48016 -0.202857 0
M  V30 16392 H 1586.91 3.6595 2.08946 0
M  V30 16393 H 1585.59 2.46366 2.09965 0
M  V30 16394 H 1584.49 3.73741 0.163798 0
M  V30 16395 H 1585.83 4.91638 0.235174 0
M  V30 16396 N 1587.48 0.171848 1.5666 0
M  V30 16397 C 1588.44 -0.744316 2.16778 0
M  V30 16398 C 1589.44 -1.15769 1.11598 0
M  V30 16399 O 1590.63 -1.07456 1.37109 0
M  V30 16400 C 1587.76 -2.01319 2.75106 0
M  V30 16401 H 1588.96 -0.220952 2.99085 0
M  V30 16402 H 1586.51 -0.0777149 1.56107 0
M  V30 16403 H 1587.25 -2.57963 1.96534 0
M  V30 16404 H 1587.03 -1.72575 3.5208 0
M  V30 16405 H 1588.52 -2.667 3.21342 0
M  V30 16406 N 1588.96 -1.5727 -0.101874 0
M  V30 16407 C 1589.89 -1.98253 -1.15014 0
M  V30 16408 C 1590.9 -0.884147 -1.36699 0
M  V30 16409 O 1592.09 -1.16232 -1.35471 0
M  V30 16410 C 1589.19 -2.28043 -2.50698 0
M  V30 16411 C 1588.36 -3.59343 -2.49383 0
M  V30 16412 C 1587.42 -3.77147 -3.66943 0
M  V30 16413 O 1586.45 -4.49075 -3.49744 0
M  V30 16414 N 1587.65 -3.1721 -4.86167 0
M  V30 16415 H 1590.42 -2.88787 -0.801375 0
M  V30 16416 H 1587.98 -1.59264 -0.290941 0
M  V30 16417 H 1589.97 -2.37153 -3.27934 0
M  V30 16418 H 1588.54 -1.4355 -2.77691 0
M  V30 16419 H 1587.76 -3.61264 -1.57741 0
M  V30 16420 H 1589.05 -4.45612 -2.45576 0
M  V30 16421 H 1588.45 -2.58772 -5.03044 0
M  V30 16422 H 1587 -3.31816 -5.61018 0
M  V30 16423 N 1590.44 0.372521 -1.53134 0
M  V30 16424 C 1591.4 1.43875 -1.78417 0
M  V30 16425 C 1592.4 1.46879 -0.654455 0
M  V30 16426 O 1593.59 1.47761 -0.922619 0
M  V30 16427 C 1590.72 2.83046 -1.89994 0
M  V30 16428 H 1591.91 1.22733 -2.73636 0
M  V30 16429 H 1589.47 0.605247 -1.44106 0
M  V30 16430 H 1590.2 3.09511 -0.968179 0
M  V30 16431 H 1589.99 2.82265 -2.72156 0
M  V30 16432 H 1591.48 3.60273 -2.11171 0
M  V30 16433 N 1591.91 1.44376 0.631925 0
M  V30 16434 C 1593.16 1.46827 1.38875 0
M  V30 16435 C 1593.48 0.101789 1.94734 0
M  V30 16436 O 1592.75 -0.86579 1.7573 0
M  V30 16437 H 1591.33 0.540642 0.515475 0
M  V30 16438 H 1593.99 1.80148 0.743822 0
M  V30 16439 H 1593.09 2.19321 2.22047 0
M  V30 16440 N 1593.39 -0.872258 1.31261 0
M  V30 16441 C 1594.3 -2.01185 1.20673 0
M  V30 16442 C 1595.32 -1.73558 0.123921 0
M  V30 16443 O 1596.49 -1.98487 0.341288 0
M  V30 16444 C 1593.56 -3.34481 0.91232 0
M  V30 16445 C 1592.62 -3.75446 2.08179 0
M  V30 16446 C 1591.85 -5.02382 1.80134 0
M  V30 16447 O 1592.08 -5.6564 0.735358 0
M  V30 16448 O 1591.01 -5.40059 2.65744 0
M  V30 16449 H 1594.84 -2.13049 2.16434 0
M  V30 16450 H 1592.42 -1.00021 1.10978 0
M  V30 16451 H 1594.3 -4.14419 0.763879 0
M  V30 16452 H 1592.98 -3.23696 -0.0152802 0
M  V30 16453 H 1591.88 -2.96159 2.28562 0
M  V30 16454 H 1593.22 -3.90853 2.99156 0
M  V30 16455 N 1594.87 -1.14184 -1.08627 0
M  V30 16456 C 1596.1 -0.932104 -1.84714 0
M  V30 16457 C 1596.51 0.519335 -1.81517 0
M  V30 16458 O 1595.87 1.35978 -1.21722 0
M  V30 16459 C 1595.92 -1.42217 -3.3235 0
M  V30 16460 O 1595.64 -2.81674 -3.35547 0
M  V30 16461 C 1597.14 -1.25205 -4.25251 0
M  V30 16462 H 1594.36 -0.331854 -0.583193 0
M  V30 16463 H 1596.91 -1.51641 -1.37205 0
M  V30 16464 H 1595.06 -0.880679 -3.77257 0
M  V30 16465 H 1595.48 -3.03615 -4.2769 0
M  V30 16466 H 1596.95 -1.64358 -5.26963 0
M  V30 16467 H 1597.43 -0.194659 -4.38768 0
M  V30 16468 H 1598.03 -1.78198 -3.86168 0
M  V30 16469 N 1596.35 1.26749 -0.936613 0
M  V30 16470 C 1597.26 2.30272 -0.448573 0
M  V30 16471 C 1598.27 1.67386 0.475184 0
M  V30 16472 O 1599.45 1.98232 0.355825 0
M  V30 16473 C 1596.52 3.45546 0.28262 0
M  V30 16474 C 1595.58 4.23926 -0.677138 0
M  V30 16475 C 1594.81 5.33697 0.019255 0
M  V30 16476 O 1595.03 5.56825 1.23703 0
M  V30 16477 O 1593.97 5.98302 -0.657119 0
M  V30 16478 H 1597.79 2.74072 -1.30838 0
M  V30 16479 H 1595.38 1.31863 -0.702314 0
M  V30 16480 H 1597.26 4.15635 0.694686 0
M  V30 16481 H 1595.93 3.03784 1.11789 0
M  V30 16482 H 1594.84 3.56337 -1.13906 0
M  V30 16483 H 1596.17 4.69425 -1.47988 0
M  V30 16484 N 1597.83 0.703118 1.41046 0
M  V30 16485 C 1598.74 0.0432777 2.3456 0
M  V30 16486 C 1599.75 -0.757704 1.56636 0
M  V30 16487 O 1600.93 -0.693531 1.89082 0
M  V30 16488 C 1597.99 -0.876385 3.35441 0
M  V30 16489 C 1597.05 -0.06676 4.29248 0
M  V30 16490 C 1596.29 -0.942622 5.2531 0
M  V30 16491 O 1596.51 -2.18205 5.27013 0
M  V30 16492 O 1595.44 -0.388266 6.00646 0
M  V30 16493 H 1599.27 0.814302 2.9258 0
M  V30 16494 H 1596.86 0.463503 1.42028 0
M  V30 16495 H 1598.74 -1.40353 3.9734 0
M  V30 16496 H 1597.41 -1.62677 2.79853 0
M  V30 16497 H 1596.32 0.505165 3.70674 0
M  V30 16498 H 1597.65 0.645128 4.87954 0
M  V30 16499 N 1599.3 -1.51086 0.448402 0
M  V30 16500 C 1600.27 -2.26575 -0.3459 0
M  V30 16501 C 1601.27 -1.3045 -0.940178 0
M  V30 16502 O 1602.46 -1.5407 -0.812898 0
M  V30 16503 C 1599.59 -3.06591 -1.49045 0
M  V30 16504 H 1600.78 -2.98232 0.315822 0
M  V30 16505 H 1598.34 -1.54991 0.201851 0
M  V30 16506 H 1599.07 -2.39377 -2.1879 0
M  V30 16507 H 1598.86 -3.77207 -1.07038 0
M  V30 16508 H 1600.35 -3.63743 -2.05135 0
M  V30 16509 N 1600.78 -0.180154 -1.56567 0
M  V30 16510 C 1601.69 0.758959 -2.21984 0
M  V30 16511 C 1602.71 1.24631 -1.21422 0
M  V30 16512 O 1603.88 1.29659 -1.54112 0
M  V30 16513 C 1600.95 1.96744 -2.85469 0
M  V30 16514 C 1600.01 1.52612 -4.01258 0
M  V30 16515 C 1599.24 2.677 -4.61706 0
M  V30 16516 O 1599.47 3.84799 -4.21054 0
M  V30 16517 O 1598.4 2.41269 -5.51428 0
M  V30 16518 H 1602.23 0.231919 -3.02813 0
M  V30 16519 H 1599.81 0.0484552 -1.49321 0
M  V30 16520 H 1601.69 2.67404 -3.25689 0
M  V30 16521 H 1600.37 2.48337 -2.0763 0
M  V30 16522 H 1599.28 0.78877 -3.6569 0
M  V30 16523 H 1600.61 1.05701 -4.80716 0
M  V30 16524 N 1602.26 1.57322 0.0935319 0
M  V30 16525 C 1603.49 1.90375 0.810245 0
M  V30 16526 C 1603.9 0.774011 1.72205 0
M  V30 16527 O 1603.26 -0.253918 1.80725 0
M  V30 16528 C 1603.31 3.23054 1.62228 0
M  V30 16529 O 1603.03 4.31682 0.747157 0
M  V30 16530 C 1604.53 3.6998 2.44192 0
M  V30 16531 H 1601.75 0.629769 0.231586 0
M  V30 16532 H 1604.3 2.04379 0.0702984 0
M  V30 16533 H 1602.45 3.10643 2.31472 0
M  V30 16534 H 1602.87 5.07884 1.30974 0
M  V30 16535 H 1604.34 4.65507 2.96659 0
M  V30 16536 H 1604.82 2.97899 3.22727 0
M  V30 16537 H 1605.42 3.85264 1.80144 0
M  V30 16538 N 1603.74 -0.364395 1.53329 0
M  V30 16539 C 1604.98 -1.10855 1.6982 0
M  V30 16540 C 1605.32 -1.88931 0.449291 0
M  V30 16541 O 1604.59 -1.8646 -0.553437 0
M  V30 16542 C 1604.88 -2.06681 2.94881 0
M  V30 16543 C 1604.73 -1.32206 4.29932 0
M  V30 16544 C 1606.05 -3.06788 3.15546 0
M  V30 16545 H 1603.17 -0.401626 0.617953 0
M  V30 16546 H 1605.81 -0.389244 1.8597 0
M  V30 16547 H 1603.96 -2.68019 2.81244 0
M  V30 16548 H 1605.63 -0.73642 4.55384 0
M  V30 16549 H 1603.87 -0.623916 4.2929 0
M  V30 16550 H 1604.54 -2.0235 5.13574 0
M  V30 16551 H 1607.02 -2.55554 3.28377 0
M  V30 16552 H 1605.9 -3.71059 4.04483 0
M  V30 16553 H 1606.16 -3.77023 2.3088 0
M  V30 16554 N 1605.22 -1.44709 -0.62426 0
M  V30 16555 C 1606.44 -1.51573 -1.41564 0
M  V30 16556 C 1606.87 -0.143806 -1.87549 0
M  V30 16557 O 1606.22 0.868361 -1.59151 0
M  V30 16558 C 1606.27 -2.49085 -2.60747 0
M  V30 16559 O 1605.38 -1.99712 -3.60817 0
M  V30 16560 H 1604.72 -0.51157 -0.423311 0
M  V30 16561 H 1607.25 -1.89908 -0.761316 0
M  V30 16562 H 1607.26 -2.67346 -3.08205 0
M  V30 16563 H 1605.93 -3.48733 -2.26624 0
M  V30 16564 H 1604.51 -1.9125 -3.20122 0
M  V30 16565 N 1606.69 0.865285 -1.31722 0
M  V30 16566 C 1607.66 1.95449 -1.19718 0
M  V30 16567 C 1608.66 1.60329 -0.123025 0
M  V30 16568 O 1609.85 1.70168 -0.372643 0
M  V30 16569 C 1606.98 3.30421 -0.838718 0
M  V30 16570 H 1608.17 2.07522 -2.16506 0
M  V30 16571 H 1605.73 1.05416 -1.154 0
M  V30 16572 H 1606.46 3.24048 0.127797 0
M  V30 16573 H 1606.25 3.57286 -1.61522 0
M  V30 16574 H 1607.74 4.10274 -0.77876 0
M  V30 16575 N 1608.17 1.14759 1.0802 0
M  V30 16576 C 1609.11 0.781719 2.14393 0
M  V30 16577 C 1610.08 -0.238743 1.60838 0
M  V30 16578 O 1611.27 -0.126879 1.88073 0
M  V30 16579 C 1608.39 0.161293 3.38316 0
M  V30 16580 C 1607.44 1.15256 4.10632 0
M  V30 16581 S 1608.27 2.69159 4.6294 0
M  V30 16582 C 1609.43 2.08517 5.90145 0
M  V30 16583 H 1609.66 1.6827 2.45097 0
M  V30 16584 H 1607.2 0.969222 1.20189 0
M  V30 16585 H 1609.15 -0.190243 4.10059 0
M  V30 16586 H 1607.81 -0.717181 3.05803 0
M  V30 16587 H 1607.01 0.666543 4.99573 0
M  V30 16588 H 1606.61 1.44829 3.4482 0
M  V30 16589 H 1608.9 1.44304 6.61954 0
M  V30 16590 H 1609.84 2.95598 6.4345 0
M  V30 16591 H 1610.25 1.53092 5.43344 0
M  V30 16592 N 1609.65 -1.26251 0.943322 0
M  V30 16593 C 1610.61 -2.24554 0.459158 0
M  V30 16594 C 1611.61 -1.54918 -0.430926 0
M  V30 16595 O 1612.8 -1.72678 -0.229803 0
M  V30 16596 C 1609.94 -3.39221 -0.337973 0
M  V30 16597 H 1611.13 -2.689 1.32789 0
M  V30 16598 H 1608.68 -1.38442 0.725495 0
M  V30 16599 H 1609.42 -3.00279 -1.22486 0
M  V30 16600 H 1609.2 -3.90947 0.300428 0
M  V30 16601 H 1610.69 -4.12246 -0.666568 0
M  V30 16602 N 1611.13 -0.710588 -1.40671 0
M  V30 16603 C 1612.06 -0.0694601 -2.33397 0
M  V30 16604 C 1613.04 0.750959 -1.52626 0
M  V30 16605 O 1614.23 0.700896 -1.81111 0
M  V30 16606 C 1611.36 0.856704 -3.36568 0
M  V30 16607 C 1610.31 0.142276 -4.27763 0
M  V30 16608 C 1609.64 1.18382 -5.21431 0
M  V30 16609 C 1610.94 -1.00052 -5.12627 0
M  V30 16610 H 1612.63 -0.843945 -2.87259 0
M  V30 16611 H 1610.18 -0.407287 -1.3812 0
M  V30 16612 H 1612.13 1.31457 -4.00371 0
M  V30 16613 H 1610.85 1.66303 -2.81089 0
M  V30 16614 H 1609.51 -0.295714 -3.65405 0
M  V30 16615 H 1609.16 1.98306 -4.62259 0
M  V30 16616 H 1608.86 0.71071 -5.83286 0
M  V30 16617 H 1610.38 1.64189 -5.88111 0
M  V30 16618 H 1611.8 -0.622246 -5.69913 0
M  V30 16619 H 1610.19 -1.40168 -5.83501 0
M  V30 16620 H 1611.26 -1.83345 -4.48902 0
M  V30 16621 N 1612.61 1.50847 -0.456408 0
M  V30 16622 C 1613.54 2.31077 0.335523 0
M  V30 16623 C 1614.52 1.37326 1.00377 0
M  V30 16624 O 1615.7 1.66247 1.00376 0
M  V30 16625 C 1612.83 3.16662 1.42627 0
M  V30 16626 C 1611.79 4.18846 0.88045 0
M  V30 16627 C 1611.11 4.93074 2.06838 0
M  V30 16628 C 1612.41 5.22208 -0.0982288 0
M  V30 16629 H 1614.11 2.97531 -0.334056 0
M  V30 16630 H 1611.65 1.43085 -0.162099 0
M  V30 16631 H 1613.61 3.71578 1.98765 0
M  V30 16632 H 1612.33 2.48066 2.12441 0
M  V30 16633 H 1610.99 3.65009 0.341147 0
M  V30 16634 H 1610.64 4.20963 2.75316 0
M  V30 16635 H 1610.34 5.62184 1.70947 0
M  V30 16636 H 1611.86 5.5082 2.63494 0
M  V30 16637 H 1613.28 5.72082 0.373481 0
M  V30 16638 H 1611.67 5.98954 -0.370674 0
M  V30 16639 H 1612.74 4.73859 -1.02887 0
M  V30 16640 N 1614.09 0.188454 1.56469 0
M  V30 16641 C 1615.31 -0.460975 2.02212 0
M  V30 16642 C 1615.74 -1.54856 1.06777 0
M  V30 16643 O 1615.09 -1.81231 0.0501425 0
M  V30 16644 C 1615.14 -1.00047 3.46443 0
M  V30 16645 O 1614.25 -2.1137 3.54114 0
M  V30 16646 H 1613.59 -0.108497 0.655076 0
M  V30 16647 H 1616.12 0.297381 2.02427 0
M  V30 16648 H 1616.13 -1.31876 3.86099 0
M  V30 16649 H 1614.8 -0.204273 4.15398 0
M  V30 16650 H 1613.38 -1.80456 3.26328 0
M  V30 16651 N 1615.56 -1.5737 -0.0851874 0
M  V30 16652 C 1616.81 -1.86864 -0.78802 0
M  V30 16653 C 1617.14 -0.778936 -1.77894 0
M  V30 16654 O 1616.42 0.212132 -1.9334 0
M  V30 16655 C 1616.7 -3.27006 -1.50795 0
M  V30 16656 C 1616.55 -4.46615 -0.534354 0
M  V30 16657 C 1617.87 -3.65187 -2.45614 0
M  V30 16658 H 1614.99 -0.679657 -0.285017 0
M  V30 16659 H 1617.63 -1.8993 -0.0514443 0
M  V30 16660 H 1615.78 -3.24522 -2.13583 0
M  V30 16661 H 1617.46 -4.61217 0.0872761 0
M  V30 16662 H 1615.7 -4.33536 0.151455 0
M  V30 16663 H 1616.37 -5.41423 -1.07544 0
M  V30 16664 H 1618.85 -3.68678 -1.92913 0
M  V30 16665 H 1617.72 -4.64158 -2.92999 0
M  V30 16666 H 1617.98 -2.944 -3.2982 0
M  V30 16667 N 1617.04 0.356258 -1.53521 0
M  V30 16668 C 1618.29 1.09573 -1.69818 0
M  V30 16669 C 1618.61 1.89559 -0.457406 0
M  V30 16670 O 1617.88 1.88633 0.528616 0
M  V30 16671 H 1616.46 0.407512 -0.626054 0
M  V30 16672 H 1619.12 0.400612 -1.90738 0
M  V30 16673 H 1618.22 1.7803 -2.56343 0
M  V30 16674 N 1618.52 1.45038 0.616577 0
M  V30 16675 C 1619.48 1.52647 1.70973 0
M  V30 16676 C 1620.48 0.406902 1.55567 0
M  V30 16677 O 1621.67 0.670062 1.60797 0
M  V30 16678 C 1618.8 1.41438 3.10174 0
M  V30 16679 H 1620 2.50036 1.65596 0
M  V30 16680 H 1617.55 1.32346 0.831524 0
M  V30 16681 H 1618.29 0.451991 3.21135 0
M  V30 16682 H 1618.07 2.22634 3.22764 0
M  V30 16683 H 1619.56 1.49776 3.89817 0
M  V30 16684 N 1620 -0.858287 1.32179 0
M  V30 16685 C 1620.91 -1.99894 1.228 0
M  V30 16686 C 1621.92 -1.73417 0.142323 0
M  V30 16687 O 1623.1 -1.98114 0.362321 0
M  V30 16688 C 1620.16 -3.33495 0.947745 0
M  V30 16689 C 1619.23 -3.73217 2.12149 0
M  V30 16690 C 1618.46 -5.00443 1.85452 0
M  V30 16691 O 1618.68 -5.64828 0.79531 0
M  V30 16692 O 1617.62 -5.3721 2.71457 0
M  V30 16693 H 1621.44 -2.10742 2.18682 0
M  V30 16694 H 1619.03 -0.988385 1.12033 0
M  V30 16695 H 1620.91 -4.13585 0.807791 0
M  V30 16696 H 1619.58 -3.23694 0.019053 0
M  V30 16697 H 1618.49 -2.93718 2.3169 0
M  V30 16698 H 1619.82 -3.87659 3.03285 0
M  V30 16699 N 1621.48 -1.1533 -1.07409 0
M  V30 16700 C 1622.41 -0.807289 -2.14512 0
M  V30 16701 C 1623.42 0.18043 -1.61797 0
M  V30 16702 O 1624.61 -0.042733 -1.78449 0
M  V30 16703 C 1621.71 -0.179338 -3.38425 0
M  V30 16704 C 1620.88 -1.20433 -4.20493 0
M  V30 16705 C 1619.94 -0.598268 -5.22788 0
M  V30 16706 O 1618.97 -1.26405 -5.54987 0
M  V30 16707 N 1620.17 0.620283 -5.77177 0
M  V30 16708 H 1622.93 -1.729 -2.44797 0
M  V30 16709 H 1620.5 -1.0491 -1.23311 0
M  V30 16710 H 1622.49 0.238867 -4.03994 0
M  V30 16711 H 1621.06 0.645706 -3.05858 0
M  V30 16712 H 1620.28 -1.79912 -3.5075 0
M  V30 16713 H 1621.57 -1.89642 -4.72137 0
M  V30 16714 H 1620.96 1.17958 -5.53265 0
M  V30 16715 H 1619.52 0.980853 -6.44378 0
M  V30 16716 N 1622.95 1.25748 -0.950004 0
M  V30 16717 C 1623.92 2.24307 -0.47106 0
M  V30 16718 C 1624.92 1.55145 0.422704 0
M  V30 16719 O 1626.11 1.72797 0.220642 0
M  V30 16720 C 1623.24 3.39395 0.319979 0
M  V30 16721 H 1624.43 2.68192 -1.34214 0
M  V30 16722 H 1621.98 1.38056 -0.732827 0
M  V30 16723 H 1622.72 3.00925 1.20892 0
M  V30 16724 H 1622.5 3.90783 -0.321157 0
M  V30 16725 H 1623.99 4.12594 0.644697 0
M  V30 16726 N 1624.43 0.718038 1.40292 0
M  V30 16727 C 1625.36 0.0276294 2.29183 0
M  V30 16728 C 1626.38 -0.721208 1.45954 0
M  V30 16729 O 1627.57 -0.568181 1.69216 0
M  V30 16730 C 1624.67 -0.985139 3.24266 0
M  V30 16731 C 1623.84 -0.301327 4.36361 0
M  V30 16732 C 1622.9 -1.21982 5.11866 0
M  V30 16733 O 1621.92 -0.70369 5.64833 0
M  V30 16734 N 1623.13 -2.55079 5.21455 0
M  V30 16735 H 1625.89 0.790884 2.89076 0
M  V30 16736 H 1623.45 0.565867 1.51689 0
M  V30 16737 H 1625.44 -1.60183 3.7165 0
M  V30 16738 H 1624.01 -1.64973 2.65523 0
M  V30 16739 H 1623.23 0.495594 3.91072 0
M  V30 16740 H 1624.52 0.173238 5.08505 0
M  V30 16741 H 1623.92 -2.99506 4.79909 0
M  V30 16742 H 1622.48 -3.11886 5.72338 0
M  V30 16743 N 1625.91 -1.50602 0.464402 0
M  V30 16744 C 1626.87 -2.26929 -0.32185 0
M  V30 16745 C 1627.87 -1.3144 -0.926289 0
M  V30 16746 O 1629.06 -1.54924 -0.796511 0
M  V30 16747 C 1626.2 -3.08155 -1.45785 0
M  V30 16748 H 1627.39 -2.97881 0.347436 0
M  V30 16749 H 1624.94 -1.54768 0.218278 0
M  V30 16750 H 1625.68 -2.41684 -2.16239 0
M  V30 16751 H 1625.46 -3.78321 -1.03031 0
M  V30 16752 H 1626.95 -3.65899 -2.01266 0
M  V30 16753 N 1627.39 -0.19675 -1.56367 0
M  V30 16754 C 1628.35 0.709734 -2.17934 0
M  V30 16755 C 1629.35 1.13979 -1.13426 0
M  V30 16756 O 1630.54 1.05261 -1.38801 0
M  V30 16757 C 1627.67 1.96917 -2.78274 0
M  V30 16758 H 1628.87 0.173342 -2.99399 0
M  V30 16759 H 1626.42 0.0528698 -1.56211 0
M  V30 16760 H 1627.15 2.54804 -2.00613 0
M  V30 16761 H 1626.94 1.66951 -3.54781 0
M  V30 16762 H 1628.43 2.61554 -3.25545 0
M  V30 16763 N 1628.87 1.57413 0.0768405 0
M  V30 16764 C 1629.83 2.02363 1.0762 0
M  V30 16765 C 1630.83 0.919879 1.3189 0
M  V30 16766 O 1632.02 1.18489 1.27695 0
M  V30 16767 C 1629.15 2.39995 2.42106 0
M  V30 16768 H 1630.34 2.91881 0.688889 0
M  V30 16769 H 1627.9 1.52938 0.322422 0
M  V30 16770 H 1628.63 1.53488 2.85678 0
M  V30 16771 H 1628.42 3.20534 2.25833 0
M  V30 16772 H 1629.91 2.75365 3.13948 0
M  V30 16773 N 1630.34 -0.348112 1.53707 0
M  V30 16774 C 1631.31 -1.41018 1.80683 0
M  V30 16775 C 1632.31 -1.4582 0.67774 0
M  V30 16776 O 1633.5 -1.46275 0.94601 0
M  V30 16777 C 1630.63 -2.79988 1.94473 0
M  V30 16778 H 1631.82 -1.18365 2.75554 0
M  V30 16779 H 1629.38 -0.582244 1.4505 0
M  V30 16780 H 1630.11 -3.07931 1.0173 0
M  V30 16781 H 1629.9 -2.77899 2.76612 0
M  V30 16782 H 1631.39 -3.56868 2.16876 0
M  V30 16783 N 1631.82 -1.45363 -0.608876 0
M  V30 16784 C 1633.24 -1.29741 -0.929491 0
M  V30 16785 C 1633.44 -0.249486 -1.9995 0
M  V30 16786 O 1632.49 0.357014 -2.49963 0
M  V30 16787 C 1633.81 -2.67594 -1.37164 0
M  V30 16788 C 1635.36 -2.7548 -1.48592 0
M  V30 16789 C 1635.83 -4.13855 -1.96183 0
M  V30 16790 N 1637.32 -4.16143 -2.03419 0
M  V30 16791 C 1638.06 -5.20081 -2.41462 0
M  V30 16792 N 1637.55 -6.34365 -2.78482 0
M  V30 16793 N 1639.35 -5.07439 -2.4179 0
M  V30 16794 H 1631.5 -2.12172 0.0983838 0
M  V30 16795 H 1633.76 -0.947817 -0.0186397 0
M  V30 16796 H 1633.47 -3.45459 -0.6596 0
M  V30 16797 H 1633.34 -2.9597 -2.33841 0
M  V30 16798 H 1635.73 -1.97919 -2.18888 0
M  V30 16799 H 1635.81 -2.50819 -0.502337 0
M  V30 16800 H 1635.45 -4.91901 -1.26475 0
M  V30 16801 H 1635.38 -4.35907 -2.95453 0
M  V30 16802 H 1637.87 -3.33671 -1.77404 0
M  V30 16803 H 1638.19 -7.09469 -3.06388 0
M  V30 16804 H 1636.53 -6.37769 -2.76181 0
M  V30 16805 H 1639.72 -4.17202 -2.12273 0
M  V30 16806 H 1639.89 -5.8856 -2.71112 0
M  V30 16807 N 1633.3 0.851265 -1.32632 0
M  V30 16808 C 1634.21 1.99239 -1.23858 0
M  V30 16809 C 1635.23 1.73339 -0.151517 0
M  V30 16810 O 1636.4 1.97919 -0.372822 0
M  V30 16811 C 1633.47 3.32987 -0.965417 0
M  V30 16812 C 1632.53 3.72087 -2.14126 0
M  V30 16813 C 1631.76 4.99453 -1.88103 0
M  V30 16814 O 1631.98 5.64399 -0.825253 0
M  V30 16815 O 1630.92 5.35763 -2.74302 0
M  V30 16816 H 1634.74 2.09579 -2.19796 0
M  V30 16817 H 1632.33 0.98243 -1.12555 0
M  V30 16818 H 1634.21 4.13151 -0.829713 0
M  V30 16819 H 1632.89 3.2368 -0.036219 0
M  V30 16820 H 1631.79 2.92485 -2.33245 0
M  V30 16821 H 1633.13 3.86045 -3.05336 0
M  V30 16822 N 1634.78 1.15898 1.06796 0
M  V30 16823 C 1635.73 0.829255 2.12385 0
M  V30 16824 C 1636.71 -0.189029 1.59786 0
M  V30 16825 O 1637.9 0.0110547 1.76997 0
M  V30 16826 C 1635.03 0.326484 3.41744 0
M  V30 16827 C 1634.12 1.37525 4.01183 0
M  V30 16828 N 1634.51 2.58419 4.34802 0
M  V30 16829 C 1632.81 1.22931 4.28724 0
M  V30 16830 C 1633.51 3.25684 4.8198 0
M  V30 16831 N 1632.49 2.53068 4.811 0
M  V30 16832 H 1636.29 1.74866 2.36218 0
M  V30 16833 H 1633.8 1.04527 1.24289 0
M  V30 16834 H 1635.8 0.0718935 4.16838 0
M  V30 16835 H 1634.46 -0.586913 3.19352 0
M  V30 16836 H 1635.47 2.95518 4.25311 0
M  V30 16837 H 1632.15 0.376264 4.15801 0
M  V30 16838 H 1633.54 4.28852 5.17238 0
M  V30 16839 N 1636.26 -1.25243 0.956659 0
M  V30 16840 C 1637.48 -1.97621 0.629337 0
M  V30 16841 C 1637.91 -1.70606 -0.792158 0
M  V30 16842 O 1637.26 -0.963192 -1.53598 0
M  V30 16843 C 1637.31 -3.49273 0.896687 0
M  V30 16844 O 1636.42 -4.12393 -0.0234986 0
M  V30 16845 H 1635.76 -0.619472 0.239061 0
M  V30 16846 H 1638.29 -1.5931 1.28381 0
M  V30 16847 H 1638.3 -3.99597 0.82377 0
M  V30 16848 H 1636.97 -3.68265 1.93271 0
M  V30 16849 H 1635.55 -3.72761 0.101796 0
M  V30 16850 N 1637.73 -0.725468 -1.3991 0
M  V30 16851 C 1639.15 -0.340415 -1.8357 0
M  V30 16852 C 1639.5 1.1266 -1.6063 0
M  V30 16853 O 1638.62 1.86804 -1.0924 0
M  V30 16854 C 1639.22 -0.611079 -3.33244 0
M  V30 16855 C 1637.78 -0.279627 -3.7536 0
M  V30 16856 C 1636.92 -0.878498 -2.63017 0
M  V30 16857 H 1639.87 -0.923856 -1.29037 0
M  V30 16858 H 1639.89 0.120377 -3.8031 0
M  V30 16859 H 1639.41 -1.67886 -3.49908 0
M  V30 16860 H 1637.51 0.782703 -3.64286 0
M  V30 16861 H 1637.62 -0.755528 -4.73105 0
M  V30 16862 H 1635.98 -0.305813 -2.52857 0
M  V30 16863 H 1636.77 -1.95075 -2.8249 0
M  V30 16864 N 1639.21 1.50354 -0.472382 0
M  V30 16865 C 1640.63 1.59097 -0.126613 0
M  V30 16866 C 1640.83 1.4804 1.36698 0
M  V30 16867 O 1639.88 1.33956 2.14038 0
M  V30 16868 C 1641.2 2.92958 -0.677957 0
M  V30 16869 C 1642.75 3.06356 -0.6415 0
M  V30 16870 C 1643.22 4.42793 -1.17041 0
M  V30 16871 N 1644.71 4.49208 -1.12988 0
M  V30 16872 C 1645.45 5.53171 -1.50961 0
M  V30 16873 N 1644.94 6.64381 -1.96391 0
M  V30 16874 N 1646.74 5.43722 -1.42556 0
M  V30 16875 H 1638.89 1.55785 -1.44378 0
M  V30 16876 H 1641.15 0.736295 -0.597138 0
M  V30 16877 H 1640.86 3.06529 -1.72433 0
M  V30 16878 H 1640.73 3.77002 -0.122247 0
M  V30 16879 H 1643.12 2.92431 0.395964 0
M  V30 16880 H 1643.2 2.24066 -1.23403 0
M  V30 16881 H 1642.84 4.57466 -2.20651 0
M  V30 16882 H 1642.77 5.23677 -0.554086 0
M  V30 16883 H 1645.26 3.69407 -0.796692 0
M  V30 16884 H 1645.58 7.39772 -2.23511 0
M  V30 16885 H 1643.92 6.65498 -2.00344 0
M  V30 16886 H 1647.11 4.55729 -1.06905 0
M  V30 16887 H 1647.28 6.24625 -1.72476 0
M  V30 16888 N 1640.69 0.205039 1.56261 0
M  V30 16889 C 1642.1 -0.305792 1.84179 0
M  V30 16890 C 1642.45 -1.60672 1.126 0
M  V30 16891 O 1641.58 -2.12855 0.390118 0
M  V30 16892 C 1642.17 -0.561596 3.34113 0
M  V30 16893 C 1640.73 -1.01677 3.62407 0
M  V30 16894 C 1639.88 -0.0707844 2.7721 0
M  V30 16895 H 1642.83 0.428609 1.52803 0
M  V30 16896 H 1642.85 -1.40969 3.53423 0
M  V30 16897 H 1642.36 0.38541 3.86182 0
M  V30 16898 H 1640.46 -1.97771 3.1578 0
M  V30 16899 H 1640.58 -0.902607 4.70521 0
M  V30 16900 H 1638.94 -0.574529 2.48136 0
M  V30 16901 H 1639.72 0.870844 3.32071 0
M  V30 16902 N 1642.17 -1.57451 -0.0684915 0
M  V30 16903 C 1643.13 -2.0293 -1.06545 0
M  V30 16904 C 1644.13 -0.926861 -1.314 0
M  V30 16905 O 1645.32 -1.19164 -1.27065 0
M  V30 16906 C 1642.45 -2.41276 -2.4083 0
M  V30 16907 H 1643.65 -2.92242 -0.673401 0
M  V30 16908 H 1641.2 -1.53107 -0.314307 0
M  V30 16909 H 1641.94 -1.55 -2.8486 0
M  V30 16910 H 1641.72 -3.21727 -2.2413 0
M  V30 16911 H 1643.21 -2.77026 -3.12484 0
M  V30 16912 N 1643.65 0.339955 -1.5389 0
M  V30 16913 C 1644.56 1.441 -1.85128 0
M  V30 16914 C 1645.57 1.57399 -0.741733 0
M  V30 16915 O 1646.75 1.72807 -1.0344 0
M  V30 16916 C 1643.81 2.7904 -2.05761 0
M  V30 16917 C 1642.88 2.75055 -3.29611 0
M  V30 16918 C 1642.11 4.0356 -3.4925 0
M  V30 16919 O 1642.33 5.01015 -2.72653 0
M  V30 16920 O 1641.27 4.07813 -4.42687 0
M  V30 16921 H 1645.09 1.20616 -2.78721 0
M  V30 16922 H 1642.68 0.532468 -1.39589 0
M  V30 16923 H 1644.56 3.5895 -2.20756 0
M  V30 16924 H 1643.23 3.02447 -1.15357 0
M  V30 16925 H 1642.14 1.93753 -3.20016 0
M  V30 16926 H 1643.47 2.56602 -4.20019 0
M  V30 16927 N 1645.13 1.45684 0.601159 0
M  V30 16928 C 1646.04 1.57396 1.73965 0
M  V30 16929 C 1647.05 0.458133 1.6786 0
M  V30 16930 O 1648.23 0.719717 1.88101 0
M  V30 16931 C 1645.29 1.54363 3.1044 0
M  V30 16932 C 1644.35 2.77034 3.27949 0
M  V30 16933 C 1643.59 2.74136 4.57914 0
M  V30 16934 O 1643.81 1.81829 5.40643 0
M  V30 16935 O 1642.74 3.65428 4.78274 0
M  V30 16936 H 1646.57 2.5364 1.67034 0
M  V30 16937 H 1644.15 1.28267 0.766017 0
M  V30 16938 H 1646.04 1.55302 3.91739 0
M  V30 16939 H 1644.71 0.612723 3.17848 0
M  V30 16940 H 1643.62 2.81655 2.46214 0
M  V30 16941 H 1644.95 3.69272 3.25422 0
M  V30 16942 N 1646.6 -0.84422 1.33082 0
M  V30 16943 C 1648.01 -1.41526 1.21767 0
M  V30 16944 C 1648.37 -1.955 -0.165606 0
M  V30 16945 O 1647.49 -1.88384 -1.06492 0
M  V30 16946 C 1648.09 -2.57266 2.20454 0
M  V30 16947 C 1646.64 -3.10339 2.12995 0
M  V30 16948 C 1645.79 -1.83119 2.08237 0
M  V30 16949 H 1648.74 -0.650452 1.44758 0
M  V30 16950 H 1648.76 -3.34739 1.80914 0
M  V30 16951 H 1648.28 -2.17952 3.21121 0
M  V30 16952 H 1646.38 -3.5421 1.15612 0
M  V30 16953 H 1646.49 -3.70875 3.03296 0
M  V30 16954 H 1644.85 -2.03148 1.53632 0
M  V30 16955 H 1645.64 -1.46009 3.10703 0
M  V30 16956 N 1648.08 -1.16463 -1.0618 0
M  V30 16957 C 1649.01 -0.815728 -2.13122 0
M  V30 16958 C 1649.99 0.213124 -1.61197 0
M  V30 16959 O 1651.18 0.0969425 -1.88251 0
M  V30 16960 C 1648.3 -0.215095 -3.38016 0
M  V30 16961 C 1647.35 -1.21774 -4.08746 0
M  V30 16962 S 1648.18 -2.7649 -4.586 0
M  V30 16963 C 1649.34 -2.17879 -5.86753 0
M  V30 16964 H 1649.57 -1.72148 -2.42389 0
M  V30 16965 H 1647.1 -0.98822 -1.18632 0
M  V30 16966 H 1649.06 0.124982 -4.1031 0
M  V30 16967 H 1647.72 0.66844 -3.06905 0
M  V30 16968 H 1646.92 -0.745936 -4.98449 0
M  V30 16969 H 1646.52 -1.50296 -3.42472 0
M  V30 16970 H 1648.81 -1.54817 -6.59574 0
M  V30 16971 H 1649.75 -3.05797 -6.38666 0
M  V30 16972 H 1650.16 -1.61717 -5.4084 0
M  V30 16973 N 1649.56 1.24734 -0.963288 0
M  V30 16974 C 1650.47 2.29268 -0.497316 0
M  V30 16975 C 1651.49 1.68356 0.439572 0
M  V30 16976 O 1652.66 1.98942 0.313697 0
M  V30 16977 C 1649.73 3.46068 0.209261 0
M  V30 16978 C 1648.79 4.22394 -0.766907 0
M  V30 16979 C 1648.02 5.33617 -0.0939542 0
M  V30 16980 O 1648.24 5.59323 1.11864 0
M  V30 16981 O 1647.18 5.96774 -0.78388 0
M  V30 16982 H 1651 2.71235 -1.36622 0
M  V30 16983 H 1648.59 1.30344 -0.730126 0
M  V30 16984 H 1650.47 4.17015 0.606367 0
M  V30 16985 H 1649.15 3.06087 1.0532 0
M  V30 16986 H 1648.05 3.53841 -1.21439 0
M  V30 16987 H 1649.39 4.66181 -1.57912 0
M  V30 16988 N 1651.04 0.732878 1.39523 0
M  V30 16989 C 1651.97 0.0519358 2.29141 0
M  V30 16990 C 1652.98 -0.705687 1.4671 0
M  V30 16991 O 1654.17 -0.550202 1.69809 0
M  V30 16992 C 1651.27 -0.950691 3.25292 0
M  V30 16993 C 1650.44 -0.255028 4.36656 0
M  V30 16994 C 1649.5 -1.16546 5.13131 0
M  V30 16995 O 1648.53 -0.643742 5.65548 0
M  V30 16996 N 1649.73 -2.49534 5.24131 0
M  V30 16997 H 1652.5 0.8215 2.88221 0
M  V30 16998 H 1650.06 0.581924 1.5108 0
M  V30 16999 H 1652.05 -1.56232 3.73328 0
M  V30 17000 H 1650.62 -1.62148 2.67258 0
M  V30 17001 H 1649.84 0.537045 3.90525 0
M  V30 17002 H 1651.13 0.227162 5.08293 0
M  V30 17003 H 1650.53 -2.944 4.83058 0
M  V30 17004 H 1649.08 -3.05798 5.75613 0
M  V30 17005 N 1652.52 -1.50101 0.480349 0
M  V30 17006 C 1653.43 -2.32488 -0.31408 0
M  V30 17007 C 1654.44 -1.43285 -0.987186 0
M  V30 17008 O 1655.62 -1.7633 -0.973123 0
M  V30 17009 C 1652.68 -3.18203 -1.37651 0
M  V30 17010 C 1651.74 -4.23236 -0.71903 0
M  V30 17011 C 1650.98 -5.04854 -1.73084 0
M  V30 17012 O 1651.2 -4.87681 -2.95843 0
M  V30 17013 O 1650.13 -5.87748 -1.29755 0
M  V30 17014 H 1653.96 -3.01562 0.3597 0
M  V30 17015 H 1651.54 -1.47427 0.242029 0
M  V30 17016 H 1653.43 -3.71362 -1.9917 0
M  V30 17017 H 1652.1 -2.51846 -2.0336 0
M  V30 17018 H 1651.01 -3.74044 -0.0646492 0
M  V30 17019 H 1652.34 -4.92089 -0.104743 0
M  V30 17020 N 1653.99 -0.213323 -1.5615 0
M  V30 17021 C 1655.4 0.29602 -1.84338 0
M  V30 17022 C 1655.76 1.60073 -1.13451 0
M  V30 17023 O 1654.88 2.12645 -0.4014 0
M  V30 17024 C 1655.48 0.54387 -3.34406 0
M  V30 17025 C 1654.03 0.997539 -3.62941 0
M  V30 17026 C 1653.18 0.0560823 -2.77243 0
M  V30 17027 H 1656.13 -0.436707 -1.52573 0
M  V30 17028 H 1656.15 1.39093 -3.54166 0
M  V30 17029 H 1655.67 -0.405885 -3.85972 0
M  V30 17030 H 1653.77 1.96094 -3.16825 0
M  V30 17031 H 1653.88 0.877642 -4.70993 0
M  V30 17032 H 1652.24 0.561362 -2.48437 0
M  V30 17033 H 1653.03 -0.888442 -3.31605 0
M  V30 17034 N 1655.47 1.57485 0.0601405 0
M  V30 17035 C 1656.44 2.03493 1.05467 0
M  V30 17036 C 1657.44 0.933816 1.30907 0
M  V30 17037 O 1658.63 1.19837 1.26431 0
M  V30 17038 C 1655.76 2.42549 2.39547 0
M  V30 17039 H 1656.95 2.92595 0.657893 0
M  V30 17040 H 1654.5 1.53272 0.306183 0
M  V30 17041 H 1655.24 1.56509 2.84034 0
M  V30 17042 H 1655.02 3.22911 2.22421 0
M  V30 17043 H 1656.51 2.7868 3.1101 0
M  V30 17044 N 1656.95 -0.331789 1.54068 0
M  V30 17045 C 1657.88 -1.41332 1.8587 0
M  V30 17046 C 1658.86 -1.54353 0.714787 0
M  V30 17047 O 1660.05 -1.68368 0.967777 0
M  V30 17048 C 1657.18 -2.78218 2.07875 0
M  V30 17049 C 1656.13 -2.79994 3.23709 0
M  V30 17050 C 1655.46 -4.19878 3.31069 0
M  V30 17051 C 1656.76 -2.44476 4.6155 0
M  V30 17052 H 1658.45 -1.14966 2.76447 0
M  V30 17053 H 1656 -0.551615 1.33016 0
M  V30 17054 H 1657.95 -3.53937 2.28706 0
M  V30 17055 H 1656.67 -3.06044 1.14038 0
M  V30 17056 H 1655.33 -2.0673 3.02751 0
M  V30 17057 H 1654.98 -4.44831 2.34807 0
M  V30 17058 H 1654.68 -4.21974 4.08915 0
M  V30 17059 H 1656.2 -4.97421 3.54125 0
M  V30 17060 H 1657.62 -3.09908 4.82317 0
M  V30 17061 H 1656.02 -2.57837 5.41886 0
M  V30 17062 H 1657.09 -1.3964 4.64358 0
M  V30 17063 O 1658.47 -1.54272 -0.477754 0
M  V30 17064 H 1659.16 -1.57161 -1.13226 0
M  V30 END ATOM
M  V30 BEGIN BOND
M  V30 END BOND
M  V30 END CTAB
M  END
$$$$
