drugbank_target|Q9WWU5 Alpha-ketoglutarate-dependent sulfate ester dioxygenase (DB07518)
 OpenBabel12092120283D

  0  0  0     0  0            999 V3000
M  V30 BEGIN CTAB
M  V30 COUNTS 4672 4729 0 0 0
M  V30 BEGIN ATOM
M  V30 1 H -0.908 1.98254 -0.117106 0
M  V30 2 N 0 1.576 0 0
M  V30 3 C 0.933 2.03868 1.02534 0
M  V30 4 C 1.911 0.928543 1.3348 0
M  V30 5 O 3.095 1.19667 1.45644 0
M  V30 6 C 0.222 2.43627 2.35294 0
M  V30 7 C -0.732 3.65373 2.2001 0
M  V30 8 S 0.101 5.13292 1.52614 0
M  V30 9 C 1.257 5.56322 2.86805 0
M  V30 10 H 1.49 2.90518 0.631377 0
M  V30 11 H -0.977 1.52953 0.210867 0
M  V30 12 H 0.981 2.67203 3.11629 0
M  V30 13 H -0.358 1.57376 2.7183 0
M  V30 14 H -1.165 3.90944 3.18086 0
M  V30 15 H -1.563 3.418 1.51819 0
M  V30 16 H 0.729 5.58782 3.83104 0
M  V30 17 H 1.672 6.56266 2.65933 0
M  V30 18 H 2.08 4.83886 2.90714 0
M  V30 19 N 1.4781 -0.272755 1.55222 0
M  V30 20 C 2.7031 -1.02683 1.80197 0
M  V30 21 C 3.1281 -1.79142 0.573551 0
M  V30 22 O 2.4861 -1.74917 -0.476849 0
M  V30 23 C 2.5341 -1.9609 3.02624 0
M  V30 24 O 1.6381 -3.04863 2.77727 0
M  V30 25 H 0.9791 -0.293557 0.595584 0
M  V30 26 H 3.5091 -0.30159 2.02365 0
M  V30 27 H 3.5191 -2.38039 3.31363 0
M  V30 28 H 2.1941 -1.39851 3.91682 0
M  V30 29 H 0.7711 -2.67228 2.60084 0
M  V30 30 N 2.9562 -1.48159 -0.537278 0
M  V30 31 C 3.9042 -1.62573 -1.66352 0
M  V30 32 C 4.8982 -0.492366 -1.62087 0
M  V30 33 O 6.1042 -0.670847 -1.67032 0
M  V30 34 H 2.4792 -0.511992 -0.550789 0
M  V30 35 H 4.4502 -2.57176 -1.51337 0
M  V30 36 C 3.1992 -1.67583 -3.04649 0
M  V30 37 H 2.5222 -2.54151 -3.08622 0
M  V30 38 H 3.9622 -1.81713 -3.83088 0
M  V30 39 C 2.4212 -0.413039 -3.34358 0
M  V30 40 O 2.9512 0.477259 -3.98855 0
M  V30 41 N 1.1572 -0.286961 -2.8918 0
M  V30 42 H 0.7042 -1.01241 -2.36871 0
M  V30 43 H 0.6622 0.556963 -3.09427 0
M  V30 44 N 4.4343 0.785586 -1.36625 0
M  V30 45 C 5.3973 1.87999 -1.31107 0
M  V30 46 C 6.3973 1.59316 -0.217959 0
M  V30 47 O 7.5873 1.67656 -0.472977 0
M  V30 48 C 4.7193 3.24861 -1.03334 0
M  V30 49 H 5.9123 1.94307 -2.2844 0
M  V30 50 H 3.4653 0.983813 -1.21453 0
M  V30 51 H 4.2003 3.24235 -0.0647432 0
M  V30 52 H 3.9853 3.4707 -1.82441 0
M  V30 53 H 5.4753 4.04929 -1.02088 0
M  V30 54 N 5.9124 1.20967 1.01018 0
M  V30 55 C 6.8754 0.965918 2.07853 0
M  V30 56 C 7.8754 -0.0610545 1.60684 0
M  V30 57 O 9.0654 0.175681 1.73312 0
M  V30 58 C 6.1974 0.455513 3.37843 0
M  V30 59 H 7.3904 1.91365 2.3091 0
M  V30 60 H 4.9434 1.02594 1.17916 0
M  V30 61 H 5.6784 -0.497381 3.20463 0
M  V30 62 H 5.4634 1.19622 3.73407 0
M  V30 63 H 6.9534 0.304667 4.16487 0
M  V30 64 N 7.3905 -1.2043 1.01659 0
M  V30 65 C 8.3205 -2.25466 0.607226 0
M  V30 66 C 9.3015 -1.65853 -0.377716 0
M  V30 67 O 10.4865 -1.92409 -0.263149 0
M  V30 68 C 7.6165 -3.47256 -0.0552949 0
M  V30 69 C 6.5705 -4.19462 0.850632 0
M  V30 70 C 5.8965 -5.34673 0.0538859 0
M  V30 71 C 7.1965 -4.75603 2.15868 0
M  V30 72 H 8.8905 -2.59962 1.48526 0
M  V30 73 H 6.4365 -1.2496 0.715605 0
M  V30 74 H 8.3895 -4.19917 -0.353233 0
M  V30 75 H 7.1135 -3.11924 -0.968045 0
M  V30 76 H 5.7725 -3.48667 1.13257 0
M  V30 77 H 5.4205 -4.95585 -0.860514 0
M  V30 78 H 5.1205 -5.83913 0.657192 0
M  V30 79 H 6.6445 -6.10138 -0.237598 0
M  V30 80 H 8.0585 -5.40083 1.92311 0
M  V30 81 H 6.4555 -5.3528 2.71284 0
M  V30 82 H 7.5255 -3.94346 2.82169 0
M  V30 83 N 8.8686 -0.792821 -1.36206 0
M  V30 84 C 9.8316 -0.199459 -2.2833 0
M  V30 85 C 10.8316 0.605189 -1.48977 0
M  V30 86 O 12.0216 0.425685 -1.68919 0
M  V30 87 C 9.1536 0.723523 -3.33134 0
M  V30 88 H 10.3466 -1.01181 -2.82316 0
M  V30 89 H 7.8996 -0.562485 -1.45828 0
M  V30 90 H 8.6346 1.56008 -2.84309 0
M  V30 91 H 8.4196 0.148436 -3.91819 0
M  V30 92 H 9.9096 1.13344 -4.01924 0
M  V30 93 N 10.3467 1.47872 -0.545128 0
M  V30 94 C 11.5747 2.06889 -0.021084 0
M  V30 95 C 11.9897 1.39955 1.2672 0
M  V30 96 O 11.3467 0.492036 1.75742 0
M  V30 97 C 11.3977 3.60996 0.190817 0
M  V30 98 O 11.1187 4.25419 -1.04644 0
M  V30 99 C 12.6197 4.36849 0.753521 0
M  V30 100 H 9.8397 0.669785 -0.0403635 0
M  V30 101 H 12.3837 1.90049 -0.755095 0
M  V30 102 H 10.5387 3.77391 0.87492 0
M  V30 103 H 10.9527 5.17785 -0.836611 0
M  V30 104 H 12.4267 5.45399 0.851139 0
M  V30 105 H 12.9037 4.02306 1.762 0
M  V30 106 H 13.5097 4.25169 0.105503 0
M  V30 107 N 11.8248 0.280983 1.55075 0
M  V30 108 C 12.7878 -0.590896 2.21452 0
M  V30 109 C 13.7878 -1.07682 1.19421 0
M  V30 110 O 14.9778 -0.97605 1.44288 0
M  V30 111 C 12.1098 -1.81587 2.88511 0
M  V30 112 H 13.3028 -0.0112554 2.99898 0
M  V30 113 H 10.8558 0.0316438 1.56268 0
M  V30 114 H 11.5908 -2.43587 2.14093 0
M  V30 115 H 11.3758 -1.4753 3.63287 0
M  V30 116 H 12.8658 -2.43575 3.39206 0
M  V30 117 N 13.3029 -1.57598 0.00835791 0
M  V30 118 C 14.7139 -1.7892 -0.53333 0
M  V30 119 C 15.0649 -0.916609 -1.73473 0
M  V30 120 O 14.1899 -0.121336 -2.1606 0
M  V30 121 C 14.7849 -3.24488 -0.974313 0
M  V30 122 C 13.3439 -3.46878 -1.46125 0
M  V30 123 C 12.4909 -2.74157 -0.416302 0
M  V30 124 H 15.4419 -1.56958 0.234495 0
M  V30 125 H 15.4629 -3.3306 -1.83988 0
M  V30 126 H 14.9749 -3.87972 -0.099718 0
M  V30 127 H 13.0759 -2.8862 -2.35646 0
M  V30 128 H 13.1889 -4.55572 -1.48295 0
M  V30 129 H 11.5529 -2.39022 -0.87981 0
M  V30 130 H 12.3359 -3.40345 0.44947 0
M  V30 131 N 14.781 0.264519 -1.55364 0
M  V30 132 C 15.731 1.32966 -1.85214 0
M  V30 133 C 16.715 1.44306 -0.711653 0
M  V30 134 O 17.907 1.47844 -0.973192 0
M  V30 135 C 15.036 2.68839 -2.13495 0
M  V30 136 C 14.122 2.61575 -3.33825 0
M  V30 137 N 14.513 2.23933 -4.53528 0
M  V30 138 C 12.811 2.92621 -3.36584 0
M  V30 139 C 13.512 2.26868 -5.35636 0
M  V30 140 N 12.488 2.65677 -4.74254 0
M  V30 141 H 16.29 1.02884 -2.75304 0
M  V30 142 H 13.804 0.473157 -1.55354 0
M  V30 143 H 15.801 3.45685 -2.33039 0
M  V30 144 H 14.461 2.99802 -1.24694 0
M  V30 145 H 15.472 1.95769 -4.79474 0
M  V30 146 H 12.149 3.2824 -2.58002 0
M  V30 147 H 13.539 2.00254 -6.41364 0
M  V30 148 N 16.2591 1.48442 0.529413 0
M  V30 149 C 17.2221 1.62524 1.61612 0
M  V30 150 C 18.2221 0.498509 1.52877 0
M  V30 151 O 19.4121 0.76431 1.56537 0
M  V30 152 C 16.5441 1.59597 3.01233 0
M  V30 153 H 17.7371 2.59423 1.50465 0
M  V30 154 H 15.2901 1.37047 0.751514 0
M  V30 155 H 16.0251 0.641781 3.17886 0
M  V30 156 H 15.8101 2.41397 3.08982 0
M  V30 157 H 17.3001 1.72646 3.80241 0
M  V30 158 N 17.7372 -0.778329 1.37039 0
M  V30 159 C 18.6672 -1.90546 1.34962 0
M  V30 160 C 19.6482 -1.68681 0.219274 0
M  V30 161 O 20.8332 -1.89634 0.418624 0
M  V30 162 C 17.9632 -3.27734 1.14925 0
M  V30 163 C 16.9172 -3.64147 2.24902 0
M  V30 164 C 16.2432 -4.99806 1.89996 0
M  V30 165 C 17.5432 -3.71579 3.67051 0
M  V30 166 H 19.2372 -1.92541 2.29277 0
M  V30 167 H 16.7832 -0.924948 1.10366 0
M  V30 168 H 18.7362 -4.06215 1.12104 0
M  V30 169 H 17.4602 -3.26154 0.170631 0
M  V30 170 H 16.1192 -2.8797 2.26868 0
M  V30 171 H 15.7672 -4.94759 0.906796 0
M  V30 172 H 15.4672 -5.25139 2.63634 0
M  V30 173 H 16.9912 -5.80694 1.88749 0
M  V30 174 H 18.4052 -4.40227 3.67251 0
M  V30 175 H 16.8022 -4.08405 4.39688 0
M  V30 176 H 17.8722 -2.72404 4.01154 0
M  V30 177 N 19.2153 -1.21501 -1.00376 0
M  V30 178 C 20.1253 -0.991447 -2.12621 0
M  V30 179 C 21.1413 0.0568446 -1.73907 0
M  V30 180 O 22.3173 -0.13348 -2.00957 0
M  V30 181 C 19.3823 -0.560312 -3.42142 0
M  V30 182 C 18.4433 -1.68096 -3.95022 0
M  V30 183 C 17.6763 -1.2703 -5.18362 0
M  V30 184 O 17.8993 -0.144438 -5.70217 0
M  V30 185 O 16.8333 -2.08269 -5.64719 0
M  V30 186 H 20.6593 -1.93158 -2.34358 0
M  V30 187 H 18.2443 -0.999999 -1.10997 0
M  V30 188 H 20.1263 -0.329724 -4.20108 0
M  V30 189 H 18.8013 0.351089 -3.2179 0
M  V30 190 H 17.7083 -1.96597 -3.18278 0
M  V30 191 H 19.0413 -2.56983 -4.19786 0
M  V30 192 N 20.6934 1.19889 -1.02296 0
M  V30 193 C 21.6234 2.25141 -0.619174 0
M  V30 194 C 22.6044 1.66051 0.368915 0
M  V30 195 O 23.7894 1.92546 0.252941 0
M  V30 196 C 20.9194 3.4728 0.0368783 0
M  V30 197 C 19.8734 4.19005 -0.872865 0
M  V30 198 C 19.1994 5.34637 -0.0822402 0
M  V30 199 C 20.4994 4.74452 -2.18387 0
M  V30 200 H 22.1934 2.59171 -1.49903 0
M  V30 201 H 19.7394 1.24579 -0.722222 0
M  V30 202 H 21.6924 4.20098 0.330958 0
M  V30 203 H 20.4164 3.12433 0.95149 0
M  V30 204 H 19.0754 3.48061 -1.15105 0
M  V30 205 H 18.7234 4.96034 0.83422 0
M  V30 206 H 18.4234 5.83557 -0.688149 0
M  V30 207 H 19.9474 6.10255 0.205238 0
M  V30 208 H 21.3614 5.39055 -1.95172 0
M  V30 209 H 19.7584 5.33834 -2.74119 0
M  V30 210 H 20.8284 3.92844 -2.84257 0
M  V30 211 N 22.1715 0.800033 1.35784 0
M  V30 212 C 23.4485 0.30088 1.93272 0
M  V30 213 C 23.8285 -1.20857 1.73081 0
M  V30 214 O 23.1765 -2.00502 1.09596 0
M  V30 215 C 23.3865 0.70511 3.41803 0
M  V30 216 C 24.7345 0.690871 4.18942 0
M  V30 217 O 25.7585 0.646244 3.50289 0
M  V30 218 O 24.6175 0.74332 5.41421 0
M  V30 219 H 21.7115 0.0771605 0.823393 0
M  V30 220 H 24.2575 0.88329 1.449 0
M  V30 221 H 23.0295 1.74571 3.50201 0
M  V30 222 H 22.6525 0.0971541 3.97481 0
M  V30 223 N 23.6496 -1.47581 0.552962 0
M  V30 224 C 24.8956 -2.02782 0.0273648 0
M  V30 225 C 25.2286 -1.42687 -1.31734 0
M  V30 226 O 24.5036 -0.580897 -1.85623 0
M  V30 227 C 24.7866 -3.60031 -0.0702371 0
M  V30 228 C 24.6396 -4.30566 1.30126 0
M  V30 229 C 25.9586 -4.33028 -0.785771 0
M  V30 230 H 23.0776 -0.736912 0.0114185 0
M  V30 231 H 25.7196 -1.76056 0.714432 0
M  V30 232 H 23.8696 -3.82932 -0.655382 0
M  V30 233 H 25.5416 -4.19018 1.92929 0
M  V30 234 H 23.7846 -3.91086 1.87709 0
M  V30 235 H 24.4556 -5.39114 1.18573 0
M  V30 236 H 26.9316 -4.15095 -0.288982 0
M  V30 237 H 25.8076 -5.42695 -0.823013 0
M  V30 238 H 26.0686 -4.01945 -1.841 0
M  V30 239 N 25.1277 -0.289203 -1.54924 0
M  V30 240 C 26.0777 0.606939 -2.19773 0
M  V30 241 C 27.0617 1.10783 -1.16687 0
M  V30 242 O 28.2537 1.05057 -1.4245 0
M  V30 243 C 25.3827 1.78398 -2.93307 0
M  V30 244 C 24.4687 1.29961 -4.03697 0
M  V30 245 N 24.8597 0.532377 -5.0299 0
M  V30 246 C 23.1577 1.58136 -4.17024 0
M  V30 247 C 23.8587 0.275912 -5.81045 0
M  V30 248 N 22.8347 0.852365 -5.36876 0
M  V30 249 H 26.6367 0.0130779 -2.93897 0
M  V30 250 H 24.1507 -0.09341 -1.62131 0
M  V30 251 H 26.1477 2.43741 -3.38225 0
M  V30 252 H 24.8077 2.38166 -2.20697 0
M  V30 253 H 25.8187 0.17838 -5.17593 0
M  V30 254 H 22.4957 2.18738 -3.55612 0
M  V30 255 H 23.8857 -0.339502 -6.71042 0
M  V30 256 N 26.6058 1.57591 -0.0167156 0
M  V30 257 C 28.0168 1.79201 0.523834 0
M  V30 258 C 28.3678 0.925796 1.72984 0
M  V30 259 O 27.4928 0.132792 2.15992 0
M  V30 260 C 28.0878 3.25 0.957091 0
M  V30 261 C 26.6468 3.47648 1.44283 0
M  V30 262 C 25.7938 2.74374 0.401757 0
M  V30 263 H 28.7448 1.56831 -0.242816 0
M  V30 264 H 28.7658 3.34031 1.82219 0
M  V30 265 H 28.2778 3.88019 0.0791415 0
M  V30 266 H 26.3788 2.89866 2.34113 0
M  V30 267 H 26.4918 4.56352 1.45877 0
M  V30 268 H 24.8558 2.39485 0.867121 0
M  V30 269 H 25.6388 3.40102 -0.467513 0
M  V30 270 N 28.0839 -0.256276 1.55502 0
M  V30 271 C 29.3299 -0.987079 1.77157 0
M  V30 272 C 29.6629 -1.85327 0.580315 0
M  V30 273 O 28.9379 -1.89874 -0.421686 0
M  V30 274 C 29.2209 -1.85553 3.08613 0
M  V30 275 C 29.0739 -1.01816 4.38125 0
M  V30 276 C 30.3929 -2.8397 3.36228 0
M  V30 277 H 27.5119 -0.357428 0.644526 0
M  V30 278 H 30.1539 -0.258239 1.88237 0
M  V30 279 H 28.3039 -2.47695 2.99298 0
M  V30 280 H 29.9759 -0.416159 4.59419 0
M  V30 281 H 28.2189 -0.322178 4.32602 0
M  V30 282 H 28.8899 -1.65939 5.26468 0
M  V30 283 H 31.3659 -2.31964 3.45445 0
M  V30 284 H 30.2419 -3.41864 4.29442 0
M  V30 285 H 30.5029 -3.59955 2.56681 0
M  V30 286 N 29.562 -1.4872 -0.521534 0
M  V30 287 C 30.525 -1.63379 -1.60748 0
M  V30 288 C 31.525 -0.50661 -1.52611 0
M  V30 289 O 32.715 -0.772601 -1.5613 0
M  V30 290 C 29.847 -1.61192 -3.00383 0
M  V30 291 H 31.04 -2.60217 -1.49087 0
M  V30 292 H 28.593 -1.37444 -0.744235 0
M  V30 293 H 29.328 -0.65863 -3.17541 0
M  V30 294 H 29.113 -2.43032 -3.07698 0
M  V30 295 H 30.603 -1.7466 -3.7932 0
M  V30 296 N 31.0401 0.771051 -1.3745 0
M  V30 297 C 32.2881 1.52661 -1.32435 0
M  V30 298 C 32.6091 1.9479 0.0905024 0
M  V30 299 O 31.8791 1.66348 1.03466 0
M  V30 300 H 30.4591 0.566218 -0.487244 0
M  V30 301 H 33.1211 0.917636 -1.71946 0
M  V30 302 H 32.2171 2.42568 -1.96385 0
M  V30 303 N 32.5182 1.22032 0.997298 0
M  V30 304 C 33.9342 0.979326 1.26021 0
M  V30 305 C 34.1342 -0.32972 1.98784 0
M  V30 306 O 33.1902 -1.05345 2.29475 0
M  V30 307 C 34.5032 2.17509 2.07631 0
M  V30 308 C 36.0512 2.21817 2.2083 0
M  V30 309 C 36.5262 3.40933 3.05825 0
M  V30 310 N 38.0172 3.41067 3.13412 0
M  V30 311 C 38.7522 4.29885 3.79455 0
M  V30 312 N 38.2482 5.28914 4.47462 0
M  V30 313 N 40.0412 4.17673 3.76173 0
M  V30 314 H 32.1922 2.06202 0.509352 0
M  V30 315 H 34.4552 0.90334 0.287541 0
M  V30 316 H 34.1612 3.12415 1.61524 0
M  V30 317 H 34.0352 2.17206 3.08385 0
M  V30 318 H 36.4222 1.27462 2.66153 0
M  V30 319 H 36.5032 2.2616 1.1952 0
M  V30 320 H 36.1472 4.35586 2.61203 0
M  V30 321 H 36.0772 3.33829 4.07266 0
M  V30 322 H 38.5682 2.69406 2.65007 0
M  V30 323 H 38.8812 5.92973 4.95583 0
M  V30 324 H 37.2262 5.32831 4.46224 0
M  V30 325 H 40.4172 3.39564 3.22202 0
M  V30 326 H 40.5902 4.87098 4.27363 0
M  V30 327 N 33.9963 -1.19345 1.0293 0
M  V30 328 C 35.2453 -1.88363 0.721256 0
M  V30 329 C 35.5583 -1.80514 -0.753254 0
M  V30 330 O 36.7643 -2.44788 -1.17436 0
M  V30 331 C 35.2203 -3.37872 1.23978 0
M  V30 332 C 34.8283 -3.54278 2.74211 0
M  V30 333 C 36.5723 -4.12365 1.00775 0
M  V30 334 C 34.4793 -4.97682 3.19479 0
M  V30 335 H 33.4093 -0.705484 0.266098 0
M  V30 336 H 36.0603 -1.34928 1.24365 0
M  V30 337 H 34.4423 -3.90707 0.6453 0
M  V30 338 H 35.6163 -3.11769 3.39318 0
M  V30 339 H 33.9313 -2.93174 2.95699 0
M  V30 340 H 36.5283 -5.18119 1.32123 0
M  V30 341 H 36.8713 -4.16263 -0.0554308 0
M  V30 342 H 37.4043 -3.65668 1.56625 0
M  V30 343 H 34.1433 -4.98945 4.25128 0
M  V30 344 H 33.6633 -5.4095 2.591 0
M  V30 345 H 35.3423 -5.66337 3.12845 0
M  V30 346 N 35.4744 -0.807222 -1.35358 0
M  V30 347 C 36.7224 -0.387122 -1.98358 0
M  V30 348 C 37.0434 1.04942 -1.64354 0
M  V30 349 O 36.3134 1.72615 -0.926339 0
M  V30 350 H 34.8934 -0.140154 -0.733734 0
M  V30 351 H 37.5554 -1.0332 -1.6526 0
M  V30 352 H 36.6514 -0.493352 -3.08176 0
M  V30 353 N 36.9525 1.47285 -0.560781 0
M  V30 354 C 37.9155 2.28535 0.174488 0
M  V30 355 C 38.9155 1.37153 0.839388 0
M  V30 356 O 40.1055 1.59748 0.694702 0
M  V30 357 C 37.2375 3.16934 1.25561 0
M  V30 358 H 38.4305 2.95012 -0.539262 0
M  V30 359 H 35.9835 1.53034 -0.317865 0
M  V30 360 H 36.7185 2.55157 2.00164 0
M  V30 361 H 36.5035 3.8419 0.783604 0
M  V30 362 H 37.9935 3.78143 1.77193 0
M  V30 363 N 38.4306 0.297415 1.54768 0
M  V30 364 C 39.3406 -0.58983 2.27064 0
M  V30 365 C 40.3566 -1.15144 1.30453 0
M  V30 366 O 41.5326 -1.17699 1.63428 0
M  V30 367 C 38.5976 -1.74714 2.9946 0
M  V30 368 C 37.6586 -1.21997 4.11601 0
M  V30 369 C 36.8916 -2.32212 4.80535 0
M  V30 370 O 37.1146 -3.52036 4.48806 0
M  V30 371 O 36.0486 -1.99106 5.68014 0
M  V30 372 H 39.8746 -0.00348199 3.037 0
M  V30 373 H 37.4596 0.0640035 1.49263 0
M  V30 374 H 39.3416 -2.42147 3.44881 0
M  V30 375 H 38.0166 -2.32016 2.25722 0
M  V30 376 H 36.9236 -0.511458 3.70587 0
M  V30 377 H 38.2566 -0.692419 4.87305 0
M  V30 378 N 39.9087 -1.5758 0.0250728 0
M  V30 379 C 41.1577 -1.90811 -0.653767 0
M  V30 380 C 41.4707 -0.90273 -1.73523 0
M  V30 381 O 42.6767 -1.12614 -2.47043 0
M  V30 382 C 41.1327 -3.38804 -1.21409 0
M  V30 383 C 40.7407 -4.47692 -0.166126 0
M  V30 384 C 42.4847 -3.81108 -1.86967 0
M  V30 385 C 40.3917 -5.86779 -0.737856 0
M  V30 386 H 39.3217 -0.712063 -0.247956 0
M  V30 387 H 41.9727 -1.83281 0.0897137 0
M  V30 388 H 40.3547 -3.41252 -2.00905 0
M  V30 389 H 41.5287 -4.56797 0.606079 0
M  V30 390 H 39.8437 -4.14565 0.390466 0
M  V30 391 H 42.4407 -4.82375 -2.30692 0
M  V30 392 H 42.7837 -3.15953 -2.71071 0
M  V30 393 H 43.3167 -3.81065 -1.14167 0
M  V30 394 H 40.0557 -6.55468 0.0649577 0
M  V30 395 H 39.5757 -5.81288 -1.47864 0
M  V30 396 H 41.2547 -6.35223 -1.22884 0
M  V30 397 N 41.3868 0.248026 -1.55636 0
M  V30 398 C 42.8028 0.596483 -1.48035 0
M  V30 399 C 43.0028 1.88386 -0.715039 0
M  V30 400 O 42.0588 2.51319 -0.243944 0
M  V30 401 C 43.3718 0.700258 -2.92433 0
M  V30 402 C 44.9198 0.792659 -3.02797 0
M  V30 403 C 45.3948 0.928005 -4.485 0
M  V30 404 N 46.8858 0.992903 -4.52433 0
M  V30 405 C 47.6208 1.11687 -5.62418 0
M  V30 406 N 47.1168 1.20645 -6.82214 0
M  V30 407 N 48.9098 1.14994 -5.50212 0
M  V30 408 H 41.0608 -0.597109 -2.03834 0
M  V30 409 H 43.3238 -0.205925 -0.925364 0
M  V30 410 H 43.0298 -0.175658 -3.51261 0
M  V30 411 H 42.9038 1.57255 -3.42857 0
M  V30 412 H 45.2908 1.65903 -2.4405 0
M  V30 413 H 45.3718 -0.104762 -2.55585 0
M  V30 414 H 45.0158 0.0661971 -5.07857 0
M  V30 415 H 44.9458 1.84045 -4.93391 0
M  V30 416 H 47.4368 0.935064 -3.66149 0
M  V30 417 H 47.7498 1.30008 -7.61786 0
M  V30 418 H 46.0948 1.17605 -6.84977 0
M  V30 419 H 49.2858 1.07643 -4.55555 0
M  V30 420 H 49.4588 1.24311 -6.35965 0
M  V30 421 N 42.8649 1.48995 0.513639 0
M  V30 422 C 44.1129 1.57531 1.26604 0
M  V30 423 C 44.4339 0.258236 1.93283 0
M  V30 424 O 43.7039 -0.721502 1.8213 0
M  V30 425 H 42.2839 0.580387 0.470276 0
M  V30 426 H 44.9459 1.85552 0.596373 0
M  V30 427 H 44.0419 2.36486 2.03669 0
M  V30 428 N 44.343 -0.763751 1.37857 0
M  V30 429 C 45.589 -1.52483 1.33704 0
M  V30 430 C 45.922 -1.94051 -0.0759612 0
M  V30 431 O 45.197 -1.64675 -1.03501 0
M  V30 432 C 45.48 -2.78441 2.28348 0
M  V30 433 C 45.333 -2.43075 3.78463 0
M  V30 434 C 46.652 -3.80415 2.21298 0
M  V30 435 H 43.771 -0.553169 0.487005 0
M  V30 436 H 46.413 -0.875562 1.68624 0
M  V30 437 H 44.563 -3.33842 1.987 0
M  V30 438 H 46.235 -1.93527 4.18742 0
M  V30 439 H 44.478 -1.75666 3.96641 0
M  V30 440 H 45.149 -3.33149 4.40132 0
M  V30 441 H 47.625 -3.34527 2.47449 0
M  V30 442 H 46.501 -4.66257 2.89647 0
M  V30 443 H 46.762 -4.25262 1.20849 0
M  V30 444 N 45.8211 -1.22559 -0.990812 0
M  V30 445 C 46.7681 -0.997519 -2.0813 0
M  V30 446 C 47.7381 0.0814702 -1.659 0
M  V30 447 O 48.9231 -0.0685424 -1.90677 0
M  V30 448 C 46.0631 -0.583615 -3.40129 0
M  V30 449 C 45.1761 -1.7336 -3.9569 0
M  V30 450 C 44.3111 -1.26748 -5.15857 0
M  V30 451 C 43.3501 -2.38888 -5.63559 0
M  V30 452 N 42.4871 -1.93308 -6.74964 0
M  V30 453 H 47.3271 -1.93099 -2.26973 0
M  V30 454 H 44.8641 -0.962114 -1.11273 0
M  V30 455 H 46.8221 -0.324801 -4.15934 0
M  V30 456 H 45.4521 0.312845 -3.2128 0
M  V30 457 H 44.5041 -2.10669 -3.16738 0
M  V30 458 H 45.8161 -2.57704 -4.27071 0
M  V30 459 H 44.9701 -0.966173 -5.98957 0
M  V30 460 H 43.7091 -0.394272 -4.86104 0
M  V30 461 H 42.7141 -2.69805 -4.79046 0
M  V30 462 H 43.9391 -3.26728 -5.95336 0
M  V30 463 H 41.8851 -1.08352 -6.4699 0
M  V30 464 H 41.8021 -2.71217 -7.05675 0
M  V30 465 H 43.0701 -1.66252 -7.61564 0
M  V30 466 N 47.2992 1.18797 -1.03562 0
M  V30 467 C 48.2292 2.24472 -0.643019 0
M  V30 468 C 49.2102 1.66433 0.351283 0
M  V30 469 O 50.3952 1.92803 0.232505 0
M  V30 470 C 47.5252 3.473 4.24935e-05 0
M  V30 471 C 46.4792 4.18055 -0.917257 0
M  V30 472 C 45.8052 5.34519 -0.138941 0
M  V30 473 C 47.1052 4.72109 -2.23407 0
M  V30 474 H 48.7992 2.57566 -1.52643 0
M  V30 475 H 46.3452 1.23806 -0.735394 0
M  V30 476 H 48.2982 4.20426 0.286383 0
M  V30 477 H 47.0222 3.13424 0.918299 0
M  V30 478 H 45.6812 3.46821 -1.1879 0
M  V30 479 H 45.3292 4.96891 0.781562 0
M  V30 480 H 45.0292 5.82794 -0.750005 0
M  V30 481 H 46.5532 6.10438 0.1405 0
M  V30 482 H 47.9672 5.36955 -2.00879 0
M  V30 483 H 46.3642 5.30897 -2.79765 0
M  V30 484 H 47.4342 3.89807 -2.88407 0
M  V30 485 N 48.7773 0.814389 1.34928 0
M  V30 486 C 50.0023 0.410097 2.03305 0
M  V30 487 C 50.4273 -0.973464 1.60951 0
M  V30 488 O 49.7853 -1.63185 0.789964 0
M  V30 489 C 49.8333 0.51049 3.56968 0
M  V30 490 O 48.9373 -0.473035 4.09678 0
M  V30 491 H 48.2783 0.170088 0.641846 0
M  V30 492 H 50.8083 1.10244 1.72358 0
M  V30 493 H 50.8183 0.383135 4.06197 0
M  V30 494 H 49.4933 1.51963 3.87144 0
M  V30 495 H 48.0703 -0.305272 3.71648 0
M  V30 496 N 50.2554 -1.46986 0.568584 0
M  V30 497 C 51.6664 -1.86188 0.138219 0
M  V30 498 C 52.0174 -1.47388 -1.29504 0
M  V30 499 O 51.1424 -0.88219 -1.97602 0
M  V30 500 C 51.7374 -3.3792 0.244065 0
M  V30 501 C 50.2964 -3.76171 -0.131335 0
M  V30 502 C 49.4434 -2.71027 0.586465 0
M  V30 503 H 52.3944 -1.38342 0.777645 0
M  V30 504 H 52.4154 -3.76729 -0.534351 0
M  V30 505 H 51.9274 -3.66128 1.28731 0
M  V30 506 H 50.0284 -3.5358 -1.17526 0
M  V30 507 H 50.1414 -4.78523 0.235146 0
M  V30 508 H 48.5054 -2.54684 0.0282722 0
M  V30 509 H 49.2884 -3.02077 1.63109 0
M  V30 510 N 51.7335 -0.305618 -1.54608 0
M  V30 511 C 53.0105 0.355652 -1.92339 0
M  V30 512 C 53.3905 1.71324 -1.23335 0
M  V30 513 O 52.7385 2.25473 -0.370702 0
M  V30 514 C 52.9485 0.46572 -3.45879 0
M  V30 515 C 54.2965 0.734426 -4.182 0
M  V30 516 O 55.3205 0.54935 -3.51938 0
M  V30 517 O 54.1795 1.09024 -5.35515 0
M  V30 518 H 51.2735 0.199666 -0.802535 0
M  V30 519 H 53.8195 -0.354017 -1.65966 0
M  V30 520 H 52.5915 -0.488461 -3.88239 0
M  V30 521 H 52.2145 1.22367 -3.78301 0
M  V30 522 N 53.2116 1.57565 -0.0334293 0
M  V30 523 C 54.1416 2.13511 0.945265 0
M  V30 524 C 55.1226 1.05231 1.33643 0
M  V30 525 O 56.3076 1.33084 1.41429 0
M  V30 526 C 53.4376 2.6657 2.22616 0
M  V30 527 C 52.3916 3.79676 1.97561 0
M  V30 528 C 51.7176 4.1918 3.31952 0
M  V30 529 C 53.0176 5.0557 1.31135 0
M  V30 530 H 54.7116 2.95538 0.479325 0
M  V30 531 H 52.2576 1.42166 0.229115 0
M  V30 532 H 54.2106 3.04344 2.91466 0
M  V30 533 H 52.9346 1.8171 2.71384 0
M  V30 534 H 51.5936 3.42347 1.31127 0
M  V30 535 H 51.2416 3.31296 3.78487 0
M  V30 536 H 50.9416 4.95402 3.15992 0
M  V30 537 H 52.4656 4.59541 4.02063 0
M  V30 538 H 53.8796 5.40903 1.89992 0
M  V30 539 H 52.2766 5.86818 1.25559 0
M  V30 540 H 53.3466 4.84062 0.284894 0
M  V30 541 N 54.6897 -0.239769 1.55765 0
M  V30 542 C 55.9667 -0.990056 1.68693 0
M  V30 543 C 56.3467 -2.03107 0.5754 0
M  V30 544 O 55.6947 -2.24604 -0.42017 0
M  V30 545 C 55.9047 -1.61696 3.09282 0
M  V30 546 C 57.2527 -2.11613 3.6811 0
M  V30 547 O 58.2767 -1.71624 3.12127 0
M  V30 548 O 57.1357 -2.85057 4.66267 0
M  V30 549 H 54.2297 -0.461299 0.686391 0
M  V30 550 H 56.7757 -0.232991 1.68093 0
M  V30 551 H 55.5477 -0.864357 3.81634 0
M  V30 552 H 55.1707 -2.44005 3.13923 0
M  V30 553 N 56.1678 -1.49265 -0.50573 0
M  V30 554 C 57.1308 -1.65075 -1.59006 0
M  V30 555 C 58.1308 -0.522768 -1.52065 0
M  V30 556 O 59.3208 -0.789117 -1.55302 0
M  V30 557 C 56.4528 -1.64369 -2.98656 0
M  V30 558 H 57.6458 -2.61784 -1.46319 0
M  V30 559 H 55.1988 -1.38226 -0.729616 0
M  V30 560 H 55.9338 -0.692272 -3.16825 0
M  V30 561 H 55.7188 -2.46282 -3.05103 0
M  V30 562 H 57.2088 -1.78674 -3.77446 0
M  V30 563 N 57.6459 0.756429 -1.3826 0
M  V30 564 C 58.6089 1.85176 -1.35065 0
M  V30 565 C 59.6089 1.58818 -0.251703 0
M  V30 566 O 60.7989 1.66615 -0.508433 0
M  V30 567 C 57.9309 3.22596 -1.10201 0
M  V30 568 H 59.1239 1.89417 -2.3251 0
M  V30 569 H 56.6769 0.95783 -1.23512 0
M  V30 570 H 57.4119 3.24025 -0.133504 0
M  V30 571 H 57.1969 3.43122 -1.89762 0
M  V30 572 H 58.6869 4.02673 -1.10654 0
M  V30 573 N 59.124 1.23083 0.984299 0
M  V30 574 C 60.352 1.08714 1.76037 0
M  V30 575 C 60.767 -0.361691 1.85303 0
M  V30 576 O 60.124 -1.25034 1.32939 0
M  V30 577 C 60.175 1.70206 3.18923 0
M  V30 578 O 59.896 3.09423 3.10144 0
M  V30 579 C 61.397 1.61227 4.12941 0
M  V30 580 H 58.617 0.380664 0.552572 0
M  V30 581 H 61.161 1.62853 1.23689 0
M  V30 582 H 59.316 1.20109 3.6831 0
M  V30 583 H 59.73 3.39188 4.00065 0
M  V30 584 H 61.204 2.08962 5.10919 0
M  V30 585 H 61.681 0.570375 4.35481 0
M  V30 586 H 62.287 2.10671 3.69456 0
M  V30 587 N 60.6021 -1.18246 1.0419 0
M  V30 588 C 61.8481 -1.88536 0.747122 0
M  V30 589 C 62.1811 -1.80223 -0.723409 0
M  V30 590 O 61.4561 -1.20337 -1.52804 0
M  V30 591 C 61.7391 -3.38968 1.21544 0
M  V30 592 C 61.5921 -3.56084 2.74816 0
M  V30 593 C 62.9111 -4.32648 0.806482 0
M  V30 594 H 60.0301 -0.684619 0.272883 0
M  V30 595 H 62.6721 -1.39113 1.29413 0
M  V30 596 H 60.8221 -3.8119 0.750081 0
M  V30 597 H 62.4941 -3.22946 3.29399 0
M  V30 598 H 60.7371 -2.98699 3.14582 0
M  V30 599 H 61.4081 -4.61639 3.02644 0
M  V30 600 H 63.8841 -3.98211 1.20695 0
M  V30 601 H 62.7601 -5.36462 1.1619 0
M  V30 602 H 63.0211 -4.41146 -0.29029 0
M  V30 603 N 62.0802 -0.821533 -1.34494 0
M  V30 604 C 62.9902 -0.244355 -2.33324 0
M  V30 605 C 64.0062 0.620527 -1.62559 0
M  V30 606 O 65.1822 0.528754 -1.94335 0
M  V30 607 C 62.2472 0.585368 -3.41723 0
M  V30 608 C 61.3082 -0.301752 -4.28238 0
M  V30 609 C 60.5412 0.488466 -5.3146 0
M  V30 610 O 60.7642 1.72186 -5.4379 0
M  V30 611 O 59.6982 -0.12848 -6.01763 0
M  V30 612 H 63.5242 -1.06231 -2.84515 0
M  V30 613 H 61.1092 -0.583645 -1.37528 0
M  V30 614 H 62.9912 1.05747 -4.07916 0
M  V30 615 H 61.6662 1.38068 -2.92778 0
M  V30 616 H 60.5732 -0.821315 -3.64973 0
M  V30 617 H 61.9062 -1.06138 -4.8062 0
M  V30 618 N 63.5583 1.46682 -0.576371 0
M  V30 619 C 64.5213 2.28707 0.150239 0
M  V30 620 C 65.5213 1.38035 0.824794 0
M  V30 621 O 66.7113 1.60476 0.677719 0
M  V30 622 C 63.8433 3.18248 1.22192 0
M  V30 623 H 65.0363 2.94423 -0.570521 0
M  V30 624 H 62.5893 1.52688 -0.334078 0
M  V30 625 H 63.3243 2.57265 1.97447 0
M  V30 626 H 63.1093 3.85 0.742812 0
M  V30 627 H 64.5993 3.80001 1.73172 0
M  V30 628 N 65.0364 0.313813 1.54444 0
M  V30 629 C 66.2854 -0.292519 1.99568 0
M  V30 630 C 66.5984 -1.54011 1.20582 0
M  V30 631 O 67.8044 -2.22183 1.56035 0
M  V30 632 C 66.2604 -0.571752 3.55329 0
M  V30 633 C 65.8684 0.658229 4.43138 0
M  V30 634 C 67.6124 -1.13857 4.08946 0
M  V30 635 C 65.5194 0.351439 5.90355 0
M  V30 636 H 64.4494 -0.113079 0.745472 0
M  V30 637 H 67.1004 0.424518 1.78522 0
M  V30 638 H 65.4824 -1.34872 3.72325 0
M  V30 639 H 66.6564 1.43403 4.37918 0
M  V30 640 H 64.9714 1.14458 4.0036 0
M  V30 641 H 67.5684 -1.38257 5.16516 0
M  V30 642 H 67.9114 -2.08489 3.6033 0
M  V30 643 H 68.4444 -0.423015 3.95544 0
M  V30 644 H 65.1834 1.26667 6.43145 0
M  V30 645 H 64.7034 -0.386842 5.98551 0
M  V30 646 H 66.3824 -0.0423134 6.46986 0
M  V30 647 N 66.5145 -1.57545 0.0417849 0
M  V30 648 C 67.4465 -2.07904 -0.964799 0
M  V30 649 C 68.4595 -1.00497 -1.28079 0
M  V30 650 O 69.6485 -1.28087 -1.24322 0
M  V30 651 C 66.7485 -2.49928 -2.28887 0
M  V30 652 C 65.9215 -3.80562 -2.15619 0
M  V30 653 C 64.9805 -4.08999 -3.31069 0
M  V30 654 O 64.0065 -4.79061 -3.0739 0
M  V30 655 N 65.2085 -3.6017 -4.55256 0
M  V30 656 H 67.9735 -2.94886 -0.535029 0
M  V30 657 H 65.5345 -1.61252 -0.144681 0
M  V30 658 H 67.5265 -2.66034 -3.04972 0
M  V30 659 H 66.0965 -1.68245 -2.63463 0
M  V30 660 H 65.3165 -3.74129 -1.24183 0
M  V30 661 H 66.6045 -4.66126 -2.03971 0
M  V30 662 H 66.0025 -3.03512 -4.77386 0
M  V30 663 H 64.5595 -3.81532 -5.28466 0
M  V30 664 N 67.9926 0.231505 -1.5589 0
M  V30 665 C 68.9556 1.27028 -1.90779 0
M  V30 666 C 69.9556 1.40308 -0.785507 0
M  V30 667 O 71.1456 1.38744 -1.05336 0
M  V30 668 C 68.2776 2.64566 -2.14983 0
M  V30 669 H 69.4706 0.973017 -2.83677 0
M  V30 670 H 67.0236 0.471486 -1.49019 0
M  V30 671 H 67.7586 2.99406 -1.24604 0
M  V30 672 H 67.5436 2.56305 -2.96732 0
M  V30 673 H 69.0336 3.39543 -2.43105 0
M  V30 674 N 69.4707 1.49531 0.497807 0
M  V30 675 C 70.4337 1.65916 1.58128 0
M  V30 676 C 71.4337 0.530825 1.51786 0
M  V30 677 O 72.6237 0.797342 1.54881 0
M  V30 678 C 69.7557 1.65951 2.9778 0
M  V30 679 H 70.9487 2.62556 1.44929 0
M  V30 680 H 68.5017 1.38611 0.722275 0
M  V30 681 H 69.2367 0.709065 3.16453 0
M  V30 682 H 69.0217 2.47897 3.03792 0
M  V30 683 H 70.5117 1.80673 3.76493 0
M  V30 684 N 70.9488 -0.749086 1.3866 0
M  V30 685 C 71.8788 -1.8764 1.38973 0
M  V30 686 C 72.8598 -1.68178 0.255004 0
M  V30 687 O 74.0448 -1.88704 0.458754 0
M  V30 688 C 71.1748 -3.25222 1.21851 0
M  V30 689 C 70.1288 -3.59295 2.32575 0
M  V30 690 C 69.4548 -4.95663 2.00555 0
M  V30 691 C 70.7548 -3.63709 3.7485 0
M  V30 692 H 72.4488 -1.87635 2.3331 0
M  V30 693 H 69.9948 -0.901329 1.12303 0
M  V30 694 H 71.9478 -4.03746 1.20695 0
M  V30 695 H 70.6718 -3.25719 0.239775 0
M  V30 696 H 69.3308 -2.83093 2.32925 0
M  V30 697 H 68.9788 -4.92724 1.01154 0
M  V30 698 H 68.6788 -5.19429 2.74714 0
M  V30 699 H 70.2028 -5.7656 2.01024 0
M  V30 700 H 71.6168 -4.32338 3.76506 0
M  V30 701 H 70.0138 -3.98986 4.48252 0
M  V30 702 H 71.0838 -2.63834 4.06841 0
M  V30 703 N 72.4269 -1.23603 -0.977757 0
M  V30 704 C 73.6729 -1.07129 -1.72195 0
M  V30 705 C 74.0059 0.390501 -1.90233 0
M  V30 706 O 73.2809 1.28902 -1.45653 0
M  V30 707 C 73.5639 -1.80031 -3.11867 0
M  V30 708 C 73.4169 -3.33899 -3.01383 0
M  V30 709 C 74.7359 -1.56492 -4.11337 0
M  V30 710 H 71.8549 -0.390571 -0.624999 0
M  V30 711 H 74.4969 -1.52142 -1.13811 0
M  V30 712 H 72.6469 -1.41768 -3.6171 0
M  V30 713 H 74.3189 -3.81699 -2.59043 0
M  V30 714 H 72.5619 -3.62796 -2.37827 0
M  V30 715 H 73.2329 -3.801 -4.00285 0
M  V30 716 H 75.7089 -1.89757 -3.70313 0
M  V30 717 H 74.5849 -2.09973 -5.07151 0
M  V30 718 H 74.8459 -0.500874 -4.39254 0
M  V30 719 N 73.905 1.17692 -1.04816 0
M  V30 720 C 75.321 1.39863 -0.768794 0
M  V30 721 C 75.521 1.91118 0.638451 0
M  V30 722 O 74.577 2.10036 1.40146 0
M  V30 723 C 75.89 2.39274 -1.82122 0
M  V30 724 C 77.438 2.52987 -1.843 0
M  V30 725 C 77.913 3.55669 -2.88555 0
M  V30 726 N 79.404 3.63183 -2.87493 0
M  V30 727 C 80.139 4.42381 -3.64811 0
M  V30 728 N 79.635 5.25125 -4.51903 0
M  V30 729 N 81.428 4.37217 -3.53267 0
M  V30 730 H 73.579 0.82752 -1.95617 0
M  V30 731 H 75.842 0.426123 -0.846831 0
M  V30 732 H 75.548 2.08678 -2.83102 0
M  V30 733 H 75.422 3.38725 -1.65967 0
M  V30 734 H 77.809 2.82896 -0.839869 0
M  V30 735 H 77.89 1.53623 -2.04532 0
M  V30 736 H 77.534 3.26499 -3.89051 0
M  V30 737 H 77.464 4.54728 -2.65575 0
M  V30 738 H 79.955 3.04103 -2.24343 0
M  V30 739 H 80.268 5.82728 -5.07591 0
M  V30 740 H 78.613 5.24519 -4.55966 0
M  V30 741 H 81.804 3.71626 -2.84625 0
M  V30 742 H 81.977 4.98696 -4.13771 0
M  V30 743 N 75.3831 0.828654 1.34056 0
M  V30 744 C 76.3331 0.226828 2.26869 0
M  V30 745 C 77.3171 -0.612243 1.48796 0
M  V30 746 O 78.5091 -0.465884 1.70759 0
M  V30 747 C 75.6381 -0.605654 3.37915 0
M  V30 748 C 74.7241 0.244361 4.23395 0
M  V30 749 N 75.1151 1.31815 4.88322 0
M  V30 750 C 73.4131 0.0296616 4.4599 0
M  V30 751 C 74.1141 1.83895 5.51867 0
M  V30 752 N 73.0901 1.14196 5.3147 0
M  V30 753 H 76.8921 1.04811 2.74576 0
M  V30 754 H 74.4061 0.67205 1.47842 0
M  V30 755 H 76.4031 -1.05302 4.03382 0
M  V30 756 H 75.0631 -1.42504 2.91758 0
M  V30 757 H 76.0741 1.70099 4.8917 0
M  V30 758 H 72.7511 -0.757097 4.10578 0
M  V30 759 H 74.1411 2.7376 6.136 0
M  V30 760 N 76.8612 -1.46375 0.584142 0
M  V30 761 C 77.8082 -2.30323 -0.148286 0
M  V30 762 C 78.7782 -1.40703 -0.882713 0
M  V30 763 O 79.9632 -1.69651 -0.873099 0
M  V30 764 C 77.1032 -3.25196 -1.15507 0
M  V30 765 C 76.2162 -4.29915 -0.423943 0
M  V30 766 C 75.3512 -5.11914 -1.41838 0
M  V30 767 C 74.3902 -6.08381 -0.673736 0
M  V30 768 N 73.5272 -6.83242 -1.6163 0
M  V30 769 H 78.3672 -2.92427 0.573644 0
M  V30 770 H 75.9042 -1.44118 0.294703 0
M  V30 771 H 77.8622 -3.78646 -1.75166 0
M  V30 772 H 76.4922 -2.64898 -1.8447 0
M  V30 773 H 75.5442 -3.7931 0.287714 0
M  V30 774 H 76.8562 -4.98549 0.158128 0
M  V30 775 H 76.0102 -5.69648 -2.08773 0
M  V30 776 H 74.7492 -4.43243 -2.03438 0
M  V30 777 H 73.7542 -5.49799 0.00938483 0
M  V30 778 H 74.9792 -6.79071 -0.0631082 0
M  V30 779 H 72.9252 -6.1728 -2.22038 0
M  V30 780 H 72.8422 -7.48144 -1.08707 0
M  V30 781 H 74.1102 -7.45534 -2.27596 0
M  V30 782 N 78.3393 -0.321999 -1.54275 0
M  V30 783 C 79.5853 0.281461 -2.00837 0
M  V30 784 C 79.9183 1.51909 -1.20985 0
M  V30 785 O 79.1933 1.923 -0.291733 0
M  V30 786 C 79.4763 0.617162 -3.54772 0
M  V30 787 C 79.3293 -0.631064 -4.45351 0
M  V30 788 C 80.6483 1.43542 -4.16033 0
M  V30 789 H 77.7673 0.100826 -0.730071 0
M  V30 790 H 80.4093 -0.438268 -1.84876 0
M  V30 791 H 78.5593 1.23034 -3.68504 0
M  V30 792 H 80.2313 -1.26934 -4.43492 0
M  V30 793 H 78.4743 -1.26025 -4.15091 0
M  V30 794 H 79.1453 -0.351735 -5.50878 0
M  V30 795 H 81.6213 0.917134 -4.05867 0
M  V30 796 H 80.4973 1.63907 -5.23856 0
M  V30 797 H 80.7583 2.43108 -3.69257 0
M  V30 798 N 79.8174 1.5752 -0.0501392 0
M  V30 799 C 81.0664 1.91827 0.623328 0
M  V30 800 C 81.3794 0.930222 1.72065 0
M  V30 801 O 82.5854 1.1653 2.4522 0
M  V30 802 C 81.0414 3.40692 1.16003 0
M  V30 803 C 80.6494 4.479 0.0948811 0
M  V30 804 C 82.3934 3.84034 1.80881 0
M  V30 805 C 80.3004 5.87879 0.644411 0
M  V30 806 H 79.2304 0.715918 0.236596 0
M  V30 807 H 81.8814 1.83115 -0.118861 0
M  V30 808 H 80.2634 3.44405 1.9545 0
M  V30 809 H 81.4374 4.55775 -0.678675 0
M  V30 810 H 79.7524 4.13892 -0.45637 0
M  V30 811 H 82.3494 4.85984 2.22988 0
M  V30 812 H 82.6924 3.20225 2.6601 0
M  V30 813 H 83.2254 3.82833 1.0809 0
M  V30 814 H 79.9644 6.55282 -0.169229 0
M  V30 815 H 79.4844 5.83567 1.38598 0
M  V30 816 H 81.1634 6.37098 1.12763 0
M  V30 817 N 81.2955 -0.223234 1.56011 0
M  V30 818 C 82.5425 -0.947875 1.78946 0
M  V30 819 C 82.8705 -1.844 0.618608 0
M  V30 820 O 82.1255 -1.91629 -0.397093 0
M  V30 821 C 82.4245 -1.81948 3.0762 0
M  V30 822 C 82.0905 -1.07672 4.37856 0
M  V30 823 C 80.7525 -0.871544 4.73242 0
M  V30 824 C 83.1045 -0.552081 5.18268 0
M  V30 825 C 80.4325 -0.129791 5.86556 0
M  V30 826 C 82.7845 0.17632 6.32354 0
M  V30 827 C 81.4485 0.39277 6.66343 0
M  V30 828 H 80.7185 -0.346852 0.654809 0
M  V30 829 H 83.3655 -0.216171 1.90276 0
M  V30 830 H 81.6705 -2.61899 2.91404 0
M  V30 831 H 83.3675 -2.38227 3.22566 0
M  V30 832 H 79.9575 -1.24662 4.1007 0
M  V30 833 H 84.1415 -0.698076 4.91366 0
M  V30 834 H 79.3975 0.048153 6.11381 0
M  V30 835 H 83.5715 0.590367 6.93893 0
M  V30 836 H 81.1985 0.969466 7.53993 0
M  V30 837 N 82.7736 -1.49793 -0.48987 0
M  V30 838 C 84.0206 -1.59841 -1.24327 0
M  V30 839 C 84.3486 -0.290135 -1.92324 0
M  V30 840 O 83.6036 0.722749 -1.81865 0
M  V30 841 C 83.9026 -2.71488 -2.32441 0
M  V30 842 C 83.5686 -4.12614 -1.81826 0
M  V30 843 C 82.2306 -4.51017 -1.67742 0
M  V30 844 C 84.5826 -5.00892 -1.4407 0
M  V30 845 C 81.9106 -5.75459 -1.14297 0
M  V30 846 C 84.2626 -6.25863 -0.920742 0
M  V30 847 C 82.9266 -6.63086 -0.766383 0
M  V30 848 H 82.1966 -0.584899 -0.454944 0
M  V30 849 H 84.8436 -1.83663 -0.542215 0
M  V30 850 H 83.1486 -2.4168 -3.0838 0
M  V30 851 H 84.8456 -2.76469 -2.90458 0
M  V30 852 H 81.4356 -3.82307 -1.93751 0
M  V30 853 H 85.6196 -4.7187 -1.53794 0
M  V30 854 H 80.8756 -6.02989 -1.01068 0
M  V30 855 H 85.0496 -6.9364 -0.619448 0
M  V30 856 H 82.6766 -7.59393 -0.350083 0
M  V30 857 N 84.2517 0.741722 -1.39055 0
M  V30 858 C 85.6677 1.04638 -1.20512 0
M  V30 859 C 85.8677 2.01405 -0.0620218 0
M  V30 860 O 84.9237 2.45547 0.588457 0
M  V30 861 C 86.2367 1.6151 -2.53643 0
M  V30 862 C 87.7847 1.73623 -2.6043 0
M  V30 863 C 88.2597 2.33906 -3.93767 0
M  V30 864 N 89.7507 2.41323 -3.9537 0
M  V30 865 C 90.4857 2.88888 -4.95309 0
M  V30 866 N 89.9817 3.36401 -6.05645 0
M  V30 867 N 91.7747 2.88037 -4.82692 0
M  V30 868 H 83.9257 0.0998155 -2.12165 0
M  V30 869 H 86.1887 0.106907 -0.941953 0
M  V30 870 H 85.8947 0.978739 -3.37807 0
M  V30 871 H 85.7687 2.60411 -2.72885 0
M  V30 872 H 88.1557 2.36384 -1.76655 0
M  V30 873 H 88.2367 0.733945 -2.45045 0
M  V30 874 H 87.8807 1.71776 -4.7797 0
M  V30 875 H 87.8107 3.34799 -4.06469 0
M  V30 876 H 90.3017 2.07734 -3.15682 0
M  V30 877 H 90.6147 3.71186 -6.77821 0
M  V30 878 H 88.9597 3.34427 -6.09248 0
M  V30 879 H 92.1507 2.50237 -3.95599 0
M  V30 880 H 92.3237 3.24792 -5.60726 0
M  V30 881 N 85.7298 1.2412 0.971189 0
M  V30 882 C 86.9778 1.07668 1.71032 0
M  V30 883 C 87.2988 -0.385797 1.91146 0
M  V30 884 O 86.5688 -1.27569 1.4867 0
M  V30 885 H 85.1488 0.395429 0.633755 0
M  V30 886 H 87.8108 1.55984 1.16855 0
M  V30 887 H 86.9068 1.57195 2.69622 0
M  V30 888 N 87.2079 -1.17134 1.05439 0
M  V30 889 C 88.1399 -2.2078 0.615539 0
M  V30 890 C 89.1529 -1.59584 -0.322001 0
M  V30 891 O 90.3419 -1.78133 -0.114344 0
M  V30 892 C 87.4419 -3.38691 -0.118938 0
M  V30 893 C 86.6149 -4.29454 0.829924 0
M  V30 894 C 85.6739 -5.26024 0.136258 0
M  V30 895 O 84.6999 -5.63952 0.77115 0
M  V30 896 N 85.9019 -5.69487 -1.1254 0
M  V30 897 H 88.6669 -2.59052 1.50705 0
M  V30 898 H 86.2279 -1.32058 0.936603 0
M  V30 899 H 88.2199 -4.00329 -0.593179 0
M  V30 900 H 86.7899 -2.98996 -0.91215 0
M  V30 901 H 86.0099 -3.65211 1.48373 0
M  V30 902 H 87.2979 -4.86984 1.47392 0
M  V30 903 H 86.6959 -5.4075 -1.6615 0
M  V30 904 H 85.2529 -6.33257 -1.54366 0
M  V30 905 N 88.686 -0.835752 -1.33615 0
M  V30 906 C 89.914 -0.443344 -2.02094 0
M  V30 907 C 90.329 0.954522 -1.62894 0
M  V30 908 O 89.686 1.61982 -0.840723 0
M  V30 909 C 89.737 -0.550775 -3.5728 0
M  V30 910 O 89.458 -1.89356 -3.95065 0
M  V30 911 C 90.959 -0.154919 -4.43029 0
M  V30 912 H 88.179 -0.176359 -0.647409 0
M  V30 913 H 90.723 -1.12746 -1.70612 0
M  V30 914 H 88.878 0.0853997 -3.87306 0
M  V30 915 H 89.292 -1.87687 -4.89769 0
M  V30 916 H 90.766 -0.281144 -5.51284 0
M  V30 917 H 91.243 0.902863 -4.2982 0
M  V30 918 H 91.849 -0.765404 -4.18356 0
M  V30 919 N 90.1641 1.46063 -0.591896 0
M  V30 920 C 91.1141 2.27458 0.157172 0
M  V30 921 C 92.0981 1.3641 0.853301 0
M  V30 922 O 93.2901 1.60517 0.74588 0
M  V30 923 C 90.4191 3.22956 1.16423 0
M  V30 924 C 89.5051 4.2149 0.469742 0
M  V30 925 N 89.8961 5.03519 -0.479839 0
M  V30 926 C 88.1941 4.40161 0.719319 0
M  V30 927 C 88.8951 5.74904 -0.886591 0
M  V30 928 N 87.8711 5.43097 -0.233731 0
M  V30 929 H 91.6731 2.88272 -0.572392 0
M  V30 930 H 89.1871 1.57024 -0.414375 0
M  V30 931 H 91.1841 3.79986 1.71513 0
M  V30 932 H 89.8441 2.63701 1.89451 0
M  V30 933 H 90.8551 5.1078 -0.855823 0
M  V30 934 H 87.5321 3.92046 1.43548 0
M  V30 935 H 88.9221 6.50844 -1.66888 0
M  V30 936 N 91.6422 0.330177 1.54103 0
M  V30 937 C 92.5722 -0.525353 2.27513 0
M  V30 938 C 93.5532 -1.11383 1.2856 0
M  V30 939 O 94.7382 -1.13773 1.57383 0
M  V30 940 C 91.8682 -1.6831 3.03791 0
M  V30 941 C 90.8222 -1.2236 4.10137 0
M  V30 942 C 90.1482 -2.46882 4.74293 0
M  V30 943 C 91.4482 -0.333697 5.21233 0
M  V30 944 H 93.1422 0.087013 2.99274 0
M  V30 945 H 90.6882 0.0432893 1.43935 0
M  V30 946 H 92.6412 -2.28795 3.5388 0
M  V30 947 H 91.3652 -2.32216 2.29659 0
M  V30 948 H 90.0242 -0.64165 3.60941 0
M  V30 949 H 89.6722 -3.09165 3.96769 0
M  V30 950 H 89.3722 -2.16825 5.46133 0
M  V30 951 H 90.8962 -3.08117 5.27159 0
M  V30 952 H 92.3102 -0.845013 5.67038 0
M  V30 953 H 90.7072 -0.125612 5.99969 0
M  V30 954 H 91.7772 0.633724 4.80741 0
M  V30 955 N 93.1203 -1.57491 0.0584922 0
M  V30 956 C 94.3973 -1.84346 -0.653918 0
M  V30 957 C 94.7773 -0.948355 -1.88599 0
M  V30 958 O 94.1253 -0.0112403 -2.28497 0
M  V30 959 C 94.3353 -3.34239 -1.00425 0
M  V30 960 C 95.6833 -4.01431 -1.38342 0
M  V30 961 O 96.7073 -3.38907 -1.09637 0
M  V30 962 O 95.5663 -5.11683 -1.91943 0
M  V30 963 H 92.6603 -0.761112 -0.323478 0
M  V30 964 H 95.2063 -1.6947 0.0884125 0
M  V30 965 H 93.9783 -3.91089 -0.128625 0
M  V30 966 H 93.6013 -3.54329 -1.80378 0
M  V30 967 N 94.5984 0.214957 -1.56127 0
M  V30 968 C 95.8754 0.963093 -1.70247 0
M  V30 969 C 96.2554 2.02166 -0.60764 0
M  V30 970 O 95.6034 2.25244 0.384385 0
M  V30 971 C 95.8134 1.56756 -3.11815 0
M  V30 972 C 97.1614 2.0573 -3.7143 0
M  V30 973 O 98.1854 1.66637 -3.14818 0
M  V30 974 O 97.0444 2.77603 -4.70743 0
M  V30 975 H 94.1384 0.450321 -0.693643 0
M  V30 976 H 96.6844 0.206219 -1.68442 0
M  V30 977 H 95.4564 0.803533 -3.82961 0
M  V30 978 H 95.0794 2.3898 -3.17765 0
M  V30 979 N 96.0765 1.50051 0.48192 0
M  V30 980 C 97.0085 1.64263 1.59844 0
M  V30 981 C 98.0215 0.52451 1.54119 0
M  V30 982 O 99.2105 0.797293 1.59704 0
M  V30 983 C 96.3105 1.60102 2.98698 0
M  V30 984 C 95.4835 2.87767 3.29407 0
M  V30 985 C 94.5425 2.76397 4.47762 0
M  V30 986 O 93.5685 3.50348 4.48603 0
M  V30 987 N 94.7705 1.89222 5.48794 0
M  V30 988 H 97.5355 2.60566 1.48073 0
M  V30 989 H 95.0965 1.47379 0.670149 0
M  V30 990 H 97.0885 1.50123 3.75826 0
M  V30 991 H 95.6585 0.715798 3.04294 0
M  V30 992 H 94.8785 3.11954 2.40994 0
M  V30 993 H 96.1665 3.72365 3.4673 0
M  V30 994 H 95.5645 1.28434 5.50928 0
M  V30 995 H 94.1215 1.85154 6.24949 0
M  V30 996 N 97.5546 -0.734337 1.39446 0
M  V30 997 C 98.7796 -1.52866 1.40167 0
M  V30 998 C 99.2046 -1.881 -0.00171513 0
M  V30 999 O 98.5626 -1.51957 -0.988879 0
M  V30 1000 C 98.6106 -2.79235 2.28167 0
M  V30 1001 O 97.7146 -3.75185 1.71201 0
M  V30 1002 H 97.0556 -0.461618 0.477289 0
M  V30 1003 H 99.5856 -0.905949 1.8345 0
M  V30 1004 H 99.5956 -3.27963 2.42702 0
M  V30 1005 H 98.2706 -2.52923 3.30156 0
M  V30 1006 H 96.8476 -3.33958 1.65912 0
M  V30 1007 N 99.0327 -1.24633 -0.964593 0
M  V30 1008 C 99.9647 -0.999302 -2.06268 0
M  V30 1009 C 100.978 0.0323226 -1.62768 0
M  V30 1010 O 102.167 -0.205079 -1.77318 0
M  V30 1011 C 99.2667 -0.486816 -3.35385 0
M  V30 1012 C 98.4397 -1.5823 -4.07777 0
M  V30 1013 C 97.4987 -1.07191 -5.15166 0
M  V30 1014 O 96.5247 -1.76426 -5.41168 0
M  V30 1015 N 97.7267 0.0920373 -5.80427 0
M  V30 1016 H 100.492 -1.94477 -2.28033 0
M  V30 1017 H 98.0527 -1.15704 -1.13244 0
M  V30 1018 H 100.045 -0.130066 -4.04491 0
M  V30 1019 H 98.6147 0.364459 -3.10468 0
M  V30 1020 H 97.8347 -2.11109 -3.32906 0
M  V30 1021 H 99.1227 -2.31854 -4.52903 0
M  V30 1022 H 98.5207 0.670784 -5.61709 0
M  V30 1023 H 97.0777 0.389905 -6.50633 0
M  V30 1024 N 100.511 1.16574 -1.06058 0
M  V30 1025 C 101.421 2.2452 -0.680282 0
M  V30 1026 C 102.437 1.71348 0.302604 0
M  V30 1027 O 103.613 2.00822 0.152513 0
M  V30 1028 C 100.678 3.46629 -0.0700315 0
M  V30 1029 C 99.7388 4.14849 -1.10448 0
M  V30 1030 C 98.9718 5.31129 -0.523256 0
M  V30 1031 O 99.1948 5.66514 0.664709 0
M  V30 1032 O 98.1288 5.88526 -1.26179 0
M  V30 1033 H 101.955 2.59355 -1.58015 0
M  V30 1034 H 99.5398 1.24043 -0.832694 0
M  V30 1035 H 101.422 4.20543 0.268667 0
M  V30 1036 H 100.097 3.13573 0.803353 0
M  V30 1037 H 99.0038 3.42916 -1.49532 0
M  V30 1038 H 100.337 4.51954 -1.94931 0
M  V30 1039 N 101.989 0.842826 1.3317 0
M  V30 1040 C 103.237 0.439577 1.97262 0
M  V30 1041 C 103.558 -1.00548 1.67078 0
M  V30 1042 O 102.828 -1.70098 0.971779 0
M  V30 1043 H 101.408 0.159558 0.72976 0
M  V30 1044 H 104.07 1.07665 1.62463 0
M  V30 1045 H 103.166 0.574886 3.0676 0
M  V30 1046 N 103.467 -1.45747 0.599634 0
M  V30 1047 C 104.714 -2.02292 0.0917284 0
M  V30 1048 C 105.042 -1.46906 -1.27472 0
M  V30 1049 O 104.297 -0.630652 -1.8526 0
M  V30 1050 C 104.596 -3.57399 -0.00602758 0
M  V30 1051 C 104.262 -4.31902 1.29503 0
M  V30 1052 C 102.924 -4.51974 1.65144 0
M  V30 1053 C 105.276 -4.74551 2.15525 0
M  V30 1054 C 102.604 -5.11949 2.86574 0
M  V30 1055 C 104.956 -5.35868 3.36196 0
M  V30 1056 C 103.62 -5.54165 3.72099 0
M  V30 1057 H 102.89 -0.740239 0.0335658 0
M  V30 1058 H 105.537 -1.7491 0.779661 0
M  V30 1059 H 103.842 -3.84014 -0.777183 0
M  V30 1060 H 105.539 -3.98846 -0.415038 0
M  V30 1061 H 102.129 -4.16588 1.00761 0
M  V30 1062 H 106.313 -4.58784 1.8929 0
M  V30 1063 H 101.569 -5.24305 3.14507 0
M  V30 1064 H 105.743 -5.6787 4.03109 0
M  V30 1065 H 103.37 -6.00406 4.6628 0
M  V30 1066 N 104.945 -0.338344 -1.53925 0
M  V30 1067 C 105.908 0.508299 -2.23493 0
M  V30 1068 C 106.908 1.03175 -1.23335 0
M  V30 1069 O 108.098 0.921826 -1.47811 0
M  V30 1070 C 105.23 1.70754 -2.95052 0
M  V30 1071 H 106.423 -0.100058 -2.99733 0
M  V30 1072 H 103.976 -0.0896198 -1.56043 0
M  V30 1073 H 104.711 2.35474 -2.22986 0
M  V30 1074 H 104.496 1.33946 -3.68512 0
M  V30 1075 H 105.986 2.30818 -3.48013 0
M  V30 1076 N 106.423 1.57458 -0.0668435 0
M  V30 1077 C 107.37 2.12439 0.902122 0
M  V30 1078 C 108.34 1.03565 1.2986 0
M  V30 1079 O 109.525 1.312 1.38532 0
M  V30 1080 C 106.665 2.6865 2.16614 0
M  V30 1081 C 105.778 3.91663 1.82274 0
M  V30 1082 C 104.913 4.36134 3.0325 0
M  V30 1083 C 103.952 5.51808 2.64904 0
M  V30 1084 N 103.089 5.9126 3.78624 0
M  V30 1085 H 107.929 2.94934 0.426382 0
M  V30 1086 H 105.466 1.4575 0.198819 0
M  V30 1087 H 107.424 2.99346 2.90599 0
M  V30 1088 H 106.054 1.88928 2.61737 0
M  V30 1089 H 105.106 3.6746 0.983719 0
M  V30 1090 H 106.418 4.75693 1.50059 0
M  V30 1091 H 105.572 4.68465 3.85519 0
M  V30 1092 H 104.311 3.50948 3.38655 0
M  V30 1093 H 103.316 5.19133 1.81055 0
M  V30 1094 H 104.541 6.38722 2.30675 0
M  V30 1095 H 102.487 5.09024 4.138 0
M  V30 1096 H 102.404 6.70018 3.5016 0
M  V30 1097 H 103.672 6.28212 4.61486 0
M  V30 1098 N 107.901 -0.206675 1.56239 0
M  V30 1099 C 108.831 -1.25909 1.96645 0
M  V30 1100 C 109.812 -1.48097 0.836734 0
M  V30 1101 O 110.997 -1.6003 1.10019 0
M  V30 1102 C 108.127 -2.6058 2.29599 0
M  V30 1103 C 107.081 -2.53024 3.452 0
M  V30 1104 C 106.407 -3.91861 3.63798 0
M  V30 1105 C 107.707 -2.06524 4.79734 0
M  V30 1106 H 109.401 -0.923369 2.84806 0
M  V30 1107 H 106.947 -0.442735 1.37025 0
M  V30 1108 H 108.9 -3.34375 2.56459 0
M  V30 1109 H 107.624 -2.95869 1.38307 0
M  V30 1110 H 106.283 -1.81684 3.18412 0
M  V30 1111 H 105.931 -4.24483 2.69857 0
M  V30 1112 H 105.631 -3.87683 4.4156 0
M  V30 1113 H 107.155 -4.67296 3.93022 0
M  V30 1114 H 108.569 -2.70072 5.05702 0
M  V30 1115 H 106.966 -2.13374 5.60885 0
M  V30 1116 H 108.036 -1.01802 4.74093 0
M  V30 1117 N 109.379 -1.50304 -0.473955 0
M  V30 1118 C 110.309 -1.71886 -1.58042 0
M  V30 1119 C 111.29 -0.567799 -1.60344 0
M  V30 1120 O 112.475 -0.806623 -1.76656 0
M  V30 1121 C 109.605 -1.81036 -2.96384 0
M  V30 1122 C 108.559 -2.962 -3.08949 0
M  V30 1123 C 107.885 -2.9049 -4.48909 0
M  V30 1124 C 109.185 -4.36752 -2.86434 0
M  V30 1125 H 110.879 -2.64527 -1.40234 0
M  V30 1126 H 108.425 -1.27295 -0.673201 0
M  V30 1127 H 110.378 -1.94719 -3.73714 0
M  V30 1128 H 109.102 -0.850147 -3.15341 0
M  V30 1129 H 107.761 -2.82164 -2.3405 0
M  V30 1130 H 107.409 -1.92321 -4.64781 0
M  V30 1131 H 107.109 -3.67802 -4.58253 0
M  V30 1132 H 108.633 -3.06218 -5.28264 0
M  V30 1133 H 110.047 -4.5133 -3.53517 0
M  V30 1134 H 108.444 -5.15493 -3.07225 0
M  V30 1135 H 109.514 -4.49321 -1.82316 0
M  V30 1136 N 110.857 0.726932 -1.39834 0
M  V30 1137 C 112.105 1.4837 -1.37225 0
M  V30 1138 C 112.426 1.94979 0.0284857 0
M  V30 1139 O 111.696 1.69555 0.981213 0
M  V30 1140 H 110.276 0.55043 -0.505011 0
M  V30 1141 H 112.938 0.862468 -1.74778 0
M  V30 1142 H 112.034 2.36198 -2.04003 0
M  V30 1143 N 112.336 1.25143 0.95797 0
M  V30 1144 C 113.246 1.06968 2.08794 0
M  V30 1145 C 114.262 0.00773911 1.73998 0
M  V30 1146 O 115.438 0.207972 2.00323 0
M  V30 1147 C 112.503 0.68691 3.39827 0
M  V30 1148 C 111.564 1.82641 3.88511 0
M  V30 1149 C 110.797 1.46181 5.1329 0
M  V30 1150 O 111.02 0.355971 5.69288 0
M  V30 1151 O 109.954 2.29085 5.566 0
M  V30 1152 H 113.78 2.01723 2.27027 0
M  V30 1153 H 111.365 1.04051 1.07209 0
M  V30 1154 H 113.247 0.485417 4.18595 0
M  V30 1155 H 111.922 -0.231417 3.22872 0
M  V30 1156 H 110.829 2.08274 3.10762 0
M  V30 1157 H 112.162 2.72386 4.09959 0
M  V30 1158 N 113.814 -1.1601 1.06675 0
M  V30 1159 C 115.225 -1.68235 0.809565 0
M  V30 1160 C 115.576 -1.8454 -0.666303 0
M  V30 1161 O 114.701 -1.54374 -1.5165 0
M  V30 1162 C 115.296 -3.05585 1.46299 0
M  V30 1163 C 113.855 -3.54915 1.25349 0
M  V30 1164 C 113.002 -2.30804 1.53703 0
M  V30 1165 H 115.953 -1.00318 1.22971 0
M  V30 1166 H 115.974 -3.70174 0.880431 0
M  V30 1167 H 115.486 -2.93686 2.53713 0
M  V30 1168 H 113.587 -3.72067 0.199261 0
M  V30 1169 H 113.7 -4.36774 1.9689 0
M  V30 1170 H 112.064 -2.36007 0.957739 0
M  V30 1171 H 112.847 -2.21499 2.62284 0
M  V30 1172 N 115.292 -0.849877 -1.32721 0
M  V30 1173 C 116.538 -0.451591 -1.97708 0
M  V30 1174 C 116.871 0.989175 -1.6712 0
M  V30 1175 O 116.146 1.69334 -0.956891 0
M  V30 1176 C 116.429 -0.685598 -3.53513 0
M  V30 1177 C 116.282 -2.17444 -3.93749 0
M  V30 1178 C 117.601 -0.138874 -4.39881 0
M  V30 1179 H 114.72 -0.16555 -0.718166 0
M  V30 1180 H 117.362 -1.06742 -1.57182 0
M  V30 1181 H 115.512 -0.161416 -3.88165 0
M  V30 1182 H 117.184 -2.76433 -3.693 0
M  V30 1183 H 115.427 -2.65476 -3.43081 0
M  V30 1184 H 116.098 -2.28888 -5.02309 0
M  V30 1185 H 118.574 -0.587068 -4.11938 0
M  V30 1186 H 117.45 -0.332213 -5.47894 0
M  V30 1187 H 117.711 0.95806 -4.31594 0
M  V30 1188 N 116.77 1.45427 -0.607355 0
M  V30 1189 C 117.733 2.28974 0.101693 0
M  V30 1190 C 118.733 1.39754 0.795329 0
M  V30 1191 O 119.923 1.61878 0.643527 0
M  V30 1192 C 117.055 3.20768 1.15414 0
M  V30 1193 H 118.248 2.93147 -0.632844 0
M  V30 1194 H 115.801 1.51945 -0.366391 0
M  V30 1195 H 116.536 2.61395 1.91945 0
M  V30 1196 H 116.321 3.86489 0.66098 0
M  V30 1197 H 117.811 3.83589 1.65073 0
M  V30 1198 N 118.248 0.346503 1.53744 0
M  V30 1199 C 119.198 -0.524953 2.21874 0
M  V30 1200 C 120.182 -1.06376 1.20718 0
M  V30 1201 O 121.374 -0.996972 1.46251 0
M  V30 1202 C 118.503 -1.6739 2.99726 0
M  V30 1203 C 117.589 -1.14888 4.08242 0
M  V30 1204 N 117.98 -0.345329 5.0462 0
M  V30 1205 C 116.278 -1.4255 4.22606 0
M  V30 1206 C 116.979 -0.0600706 5.81669 0
M  V30 1207 N 115.955 -0.65252 5.39669 0
M  V30 1208 H 119.757 0.0960091 2.93743 0
M  V30 1209 H 117.271 0.15352 1.61673 0
M  V30 1210 H 119.268 -2.3102 3.47038 0
M  V30 1211 H 117.928 -2.29811 2.29384 0
M  V30 1212 H 118.939 0.0138439 5.17898 0
M  V30 1213 H 115.616 -2.05389 3.63486 0
M  V30 1214 H 117.006 0.588321 6.69319 0
M  V30 1215 N 119.726 -1.57421 0.075193 0
M  V30 1216 C 121.137 -1.81021 -0.456964 0
M  V30 1217 C 121.488 -0.98936 -1.69429 0
M  V30 1218 O 120.613 -0.212865 -2.15351 0
M  V30 1219 C 121.208 -3.28329 -0.83581 0
M  V30 1220 C 119.767 -3.52764 -1.31281 0
M  V30 1221 C 118.914 -2.75676 -0.299648 0
M  V30 1222 H 121.865 -1.55822 0.300856 0
M  V30 1223 H 121.886 -3.40564 -1.69696 0
M  V30 1224 H 121.398 -3.88046 0.0649238 0
M  V30 1225 H 119.499 -2.98355 -2.23193 0
M  V30 1226 H 119.612 -4.61451 -1.28839 0
M  V30 1227 H 117.976 -2.42538 -0.777641 0
M  V30 1228 H 118.759 -3.38132 0.593417 0
M  V30 1229 N 121.204 0.198386 -1.56346 0
M  V30 1230 C 122.432 0.935572 -1.84539 0
M  V30 1231 C 122.847 1.76989 -0.657281 0
M  V30 1232 O 122.204 1.78626 0.374043 0
M  V30 1233 C 122.255 1.8344 -3.11499 0
M  V30 1234 O 121.976 1.03377 -4.25728 0
M  V30 1235 C 123.477 2.68355 -3.52846 0
M  V30 1236 H 120.697 0.273126 -0.612897 0
M  V30 1237 H 123.241 0.20663 -2.03453 0
M  V30 1238 H 121.396 2.51701 -2.94492 0
M  V30 1239 H 121.81 1.64599 -4.98003 0
M  V30 1240 H 123.284 3.27085 -4.44657 0
M  V30 1241 H 123.761 3.41901 -2.75681 0
M  V30 1242 H 124.367 2.05471 -3.72373 0
M  V30 1243 N 122.682 1.50554 0.465978 0
M  V30 1244 C 123.928 1.62038 1.21949 0
M  V30 1245 C 124.261 0.322116 1.9151 0
M  V30 1246 O 123.536 -0.676723 1.82348 0
M  V30 1247 C 123.819 2.80421 2.25912 0
M  V30 1248 C 123.672 4.20144 1.60622 0
M  V30 1249 C 124.991 2.94354 3.27176 0
M  V30 1250 H 122.11 0.589752 0.441998 0
M  V30 1251 H 124.752 1.82956 0.51257 0
M  V30 1252 H 122.902 2.62717 2.86203 0
M  V30 1253 H 124.574 4.49449 1.03889 0
M  V30 1254 H 122.817 4.24165 0.909211 0
M  V30 1255 H 123.488 4.98914 2.36196 0
M  V30 1256 H 125.964 3.10578 2.76913 0
M  V30 1257 H 124.84 3.788 3.97242 0
M  V30 1258 H 125.101 2.05186 3.916 0
M  V30 1259 N 124.16 -0.719506 1.40217 0
M  V30 1260 C 125.571 -1.29848 1.34151 0
M  V30 1261 C 125.922 -1.96196 0.0131349 0
M  V30 1262 O 125.047 -1.973 -0.88892 0
M  V30 1263 C 125.642 -2.36118 2.42968 0
M  V30 1264 C 124.201 -2.8965 2.40374 0
M  V30 1265 C 123.348 -1.63393 2.24049 0
M  V30 1266 H 126.299 -0.51591 1.5008 0
M  V30 1267 H 126.32 -3.16871 2.10649 0
M  V30 1268 H 125.832 -1.878 3.39636 0
M  V30 1269 H 123.933 -3.42208 1.47392 0
M  V30 1270 H 124.046 -3.4171 3.35814 0
M  V30 1271 H 122.41 -1.88312 1.71495 0
M  V30 1272 H 123.193 -1.17104 3.2271 0
M  V30 1273 N 125.638 -1.25649 -0.95132 0
M  V30 1274 C 126.884 -1.10757 -1.69884 0
M  V30 1275 C 127.217 0.350061 -1.91019 0
M  V30 1276 O 126.492 1.25783 -1.48354 0
M  V30 1277 C 126.775 -1.86606 -3.07978 0
M  V30 1278 C 126.628 -3.40217 -2.94232 0
M  V30 1279 C 127.947 -1.65182 -4.07925 0
M  V30 1280 H 125.066 -0.40374 -0.616574 0
M  V30 1281 H 127.708 -1.54521 -1.10558 0
M  V30 1282 H 125.858 -1.49409 -3.58621 0
M  V30 1283 H 127.53 -3.87108 -2.50889 0
M  V30 1284 H 125.773 -3.67759 -2.30078 0
M  V30 1285 H 126.444 -3.88505 -3.92133 0
M  V30 1286 H 128.92 -1.9757 -3.66204 0
M  V30 1287 H 127.796 -2.20683 -5.02583 0
M  V30 1288 H 128.057 -0.593933 -4.38092 0
M  V30 1289 N 127.117 1.15442 -1.07289 0
M  V30 1290 C 128.363 1.86489 -0.796846 0
M  V30 1291 C 128.696 1.82078 0.675371 0
M  V30 1292 O 127.971 1.24346 1.4956 0
M  V30 1293 C 128.254 3.35626 -1.30489 0
M  V30 1294 C 128.107 3.48673 -2.84161 0
M  V30 1295 C 129.426 4.30357 -0.920907 0
M  V30 1296 H 126.545 0.677144 -0.290939 0
M  V30 1297 H 129.187 1.35633 -1.33056 0
M  V30 1298 H 127.337 3.79068 -0.850883 0
M  V30 1299 H 129.009 3.14099 -3.37846 0
M  V30 1300 H 127.252 2.90253 -3.22391 0
M  V30 1301 H 127.923 4.53453 -3.14777 0
M  V30 1302 H 130.399 3.94871 -1.3121 0
M  V30 1303 H 129.275 5.33193 -1.30372 0
M  V30 1304 H 129.536 4.4176 0.173226 0
M  V30 1305 N 128.595 0.856903 1.32268 0
M  V30 1306 C 129.872 0.382583 1.91822 0
M  V30 1307 C 130.252 -1.13407 1.78051 0
M  V30 1308 O 129.6 -1.95673 1.18001 0
M  V30 1309 C 129.81 0.849446 3.38505 0
M  V30 1310 C 131.158 0.867936 4.15634 0
M  V30 1311 O 132.182 0.794232 3.47232 0
M  V30 1312 O 131.041 0.972286 5.37781 0
M  V30 1313 H 128.135 0.112014 0.819379 0
M  V30 1314 H 130.681 0.943952 1.41024 0
M  V30 1315 H 129.453 1.89267 3.42482 0
M  V30 1316 H 129.076 0.265652 3.96712 0
M  V30 1317 N 130.073 -1.45103 0.615059 0
M  V30 1318 C 131.321 -2.01784 0.112955 0
M  V30 1319 C 131.642 -1.48504 -1.26378 0
M  V30 1320 O 130.912 -0.682245 -1.83636 0
M  V30 1321 H 129.492 -0.745993 0.0387668 0
M  V30 1322 H 132.154 -1.77808 0.798141 0
M  V30 1323 H 131.25 -3.12025 0.0684069 0
M  V30 1324 N 131.551 -0.354651 -1.53558 0
M  V30 1325 C 132.779 0.239515 -2.05509 0
M  V30 1326 C 133.194 1.4333 -1.2289 0
M  V30 1327 O 132.551 1.80538 -0.266899 0
M  V30 1328 C 132.602 0.643719 -3.55723 0
M  V30 1329 O 132.323 -0.502602 -4.35207 0
M  V30 1330 C 133.824 1.29743 -4.23889 0
M  V30 1331 H 131.044 0.0442697 -0.669538 0
M  V30 1332 H 133.588 -0.509856 -1.98042 0
M  V30 1333 H 131.743 1.34302 -3.63376 0
M  V30 1334 H 132.157 -0.178172 -5.24197 0
M  V30 1335 H 133.631 1.53091 -5.30346 0
M  V30 1336 H 134.108 2.25441 -3.76926 0
M  V30 1337 H 134.714 0.639865 -4.20459 0
M  V30 1338 N 133.029 1.57378 -0.0835403 0
M  V30 1339 C 134.445 1.57246 0.273109 0
M  V30 1340 C 134.645 1.09385 1.69225 0
M  V30 1341 O 133.701 0.765051 2.40631 0
M  V30 1342 C 135.014 3.00614 0.0720628 0
M  V30 1343 C 136.562 3.12684 0.1407 0
M  V30 1344 C 137.037 4.57989 -0.0322094 0
M  V30 1345 N 138.528 4.63194 0.0230085 0
M  V30 1346 C 139.263 5.73335 -0.0861941 0
M  V30 1347 N 138.759 6.9235 -0.24958 0
M  V30 1348 N 140.552 5.62093 -0.0282886 0
M  V30 1349 H 132.703 1.86801 -1.0109 0
M  V30 1350 H 134.966 0.861687 -0.395222 0
M  V30 1351 H 134.672 3.39786 -0.907662 0
M  V30 1352 H 134.546 3.68193 0.81936 0
M  V30 1353 H 136.933 2.73391 1.11092 0
M  V30 1354 H 137.014 2.47719 -0.637896 0
M  V30 1355 H 136.658 4.97973 -0.999247 0
M  V30 1356 H 136.588 5.21 0.765937 0
M  V30 1357 H 139.079 3.77613 0.14722 0
M  V30 1358 H 139.392 7.72117 -0.324733 0
M  V30 1359 H 137.737 6.94415 -0.285097 0
M  V30 1360 H 140.928 4.67997 0.0981408 0
M  V30 1361 H 141.101 6.47895 -0.116845 0
M  V30 1362 N 134.507 -0.190092 1.56449 0
M  V30 1363 C 135.737 -0.92443 1.84764 0
M  V30 1364 C 136.145 -1.77146 0.664529 0
M  V30 1365 O 135.488 -1.79812 -0.375957 0
M  V30 1366 C 135.55 -1.86651 3.07248 0
M  V30 1367 C 135.214 -1.20094 4.40938 0
M  V30 1368 C 136.211 -0.575445 5.16706 0
M  V30 1369 C 133.896 -1.2033 4.87674 0
M  V30 1370 C 135.89 0.0388111 6.37388 0
M  V30 1371 C 133.577 -0.585214 6.08291 0
M  V30 1372 C 134.575 0.0347578 6.82991 0
M  V30 1373 O 134.263 0.643147 8.01323 0
M  V30 1374 H 133.995 -0.274974 0.617548 0
M  V30 1375 H 136.549 -0.200788 2.04416 0
M  V30 1376 H 134.779 -2.62998 2.83494 0
M  V30 1377 H 136.468 -2.46907 3.22167 0
M  V30 1378 H 137.234 -0.565728 4.81689 0
M  V30 1379 H 133.113 -1.67526 4.29484 0
M  V30 1380 H 136.657 0.523329 6.95634 0
M  V30 1381 H 132.554 -0.592451 6.42775 0
M  V30 1382 H 133.322 0.540545 8.16713 0
M  V30 1383 N 135.985 -1.50799 -0.457987 0
M  V30 1384 C 136.915 -1.73553 -1.5621 0
M  V30 1385 C 137.896 -0.584774 -1.59732 0
M  V30 1386 O 139.081 -0.825314 -1.7579 0
M  V30 1387 C 136.211 -1.84169 -2.94447 0
M  V30 1388 C 135.165 -2.99461 -3.0579 0
M  V30 1389 C 134.491 -2.95235 -4.45803 0
M  V30 1390 C 135.791 -4.39766 -2.81786 0
M  V30 1391 H 137.485 -2.66 -1.37421 0
M  V30 1392 H 135.031 -1.28002 -0.659662 0
M  V30 1393 H 136.984 -1.98672 -3.71628 0
M  V30 1394 H 135.708 -0.883545 -3.14422 0
M  V30 1395 H 134.367 -2.8463 -2.31044 0
M  V30 1396 H 134.015 -1.97239 -4.62715 0
M  V30 1397 H 133.715 -3.72642 -4.54326 0
M  V30 1398 H 135.239 -3.11803 -5.24987 0
M  V30 1399 H 136.653 -4.55054 -3.4871 0
M  V30 1400 H 135.05 -5.18722 -3.0174 0
M  V30 1401 H 136.12 -4.51229 -1.7754 0
M  V30 1402 N 137.463 0.71206 -1.40597 0
M  V30 1403 C 138.393 1.83889 -1.43899 0
M  V30 1404 C 139.374 1.67442 -0.299504 0
M  V30 1405 O 140.559 1.87421 -0.508624 0
M  V30 1406 C 137.689 3.21877 -1.30431 0
M  V30 1407 C 136.643 3.53002 -2.42019 0
M  V30 1408 C 135.969 4.90172 -2.13626 0
M  V30 1409 C 137.269 3.53643 -3.84362 0
M  V30 1410 H 138.963 1.81383 -2.38203 0
M  V30 1411 H 136.509 0.871237 -1.14654 0
M  V30 1412 H 138.462 4.00404 -1.31357 0
M  V30 1413 H 137.186 3.24968 -0.326049 0
M  V30 1414 H 135.845 2.76818 -2.40349 0
M  V30 1415 H 135.493 4.89869 -1.14182 0
M  V30 1416 H 135.193 5.11962 -2.88389 0
M  V30 1417 H 136.717 5.71028 -2.1624 0
M  V30 1418 H 138.131 4.22203 -3.87837 0
M  V30 1419 H 136.528 3.86961 -4.58673 0
M  V30 1420 H 137.598 2.52954 -4.13693 0
M  V30 1421 N 138.941 1.26152 0.944643 0
M  V30 1422 C 139.873 1.03199 2.04652 0
M  V30 1423 C 140.886 -0.00642356 1.62799 0
M  V30 1424 O 142.075 0.233263 1.76969 0
M  V30 1425 C 139.175 0.540111 3.34568 0
M  V30 1426 C 138.348 1.64697 4.05208 0
M  V30 1427 C 137.407 1.15374 5.13396 0
M  V30 1428 O 136.433 1.85013 5.38293 0
M  V30 1429 N 137.635 0.00031529 5.805 0
M  V30 1430 H 140.4 1.9808 2.2491 0
M  V30 1431 H 137.961 1.17491 1.11389 0
M  V30 1432 H 139.953 0.194401 4.04233 0
M  V30 1433 H 138.523 -0.315021 3.11009 0
M  V30 1434 H 137.743 2.16379 3.29506 0
M  V30 1435 H 139.031 2.3903 4.49157 0
M  V30 1436 H 138.429 -0.581336 5.62705 0
M  V30 1437 H 136.986 -0.286346 6.51171 0
M  V30 1438 N 140.419 -1.14872 1.07899 0
M  V30 1439 C 141.349 -2.2193 0.725887 0
M  V30 1440 C 142.33 -1.67622 -0.28927 0
M  V30 1441 O 143.515 -1.93533 -0.160787 0
M  V30 1442 C 140.645 -3.47061 0.128856 0
M  V30 1443 C 139.599 -4.14363 1.07178 0
M  V30 1444 C 138.925 -5.33636 0.337229 0
M  V30 1445 C 140.225 -4.63492 2.40775 0
M  V30 1446 H 141.919 -2.51724 1.62097 0
M  V30 1447 H 139.465 -1.20991 0.780838 0
M  V30 1448 H 141.418 -4.21199 -0.130147 0
M  V30 1449 H 140.142 -3.16617 -0.80134 0
M  V30 1450 H 138.801 -3.42173 1.3158 0
M  V30 1451 H 138.449 -4.99449 -0.596606 0
M  V30 1452 H 138.149 -5.79609 0.965788 0
M  V30 1453 H 139.673 -6.10539 0.0861567 0
M  V30 1454 H 141.087 -5.2913 2.20669 0
M  V30 1455 H 139.484 -5.20148 2.99276 0
M  V30 1456 H 140.554 -3.78834 3.02676 0
M  V30 1457 N 141.898 -0.863906 -1.31812 0
M  V30 1458 C 143.175 -0.39275 -1.91616 0
M  V30 1459 C 143.555 1.12461 -1.7865 0
M  V30 1460 O 142.903 1.95045 -1.19037 0
M  V30 1461 C 143.113 -0.867385 -3.38049 0
M  V30 1462 C 144.461 -0.889966 -4.15168 0
M  V30 1463 O 145.485 -0.812635 -3.46806 0
M  V30 1464 O 144.344 -1.00079 -5.37258 0
M  V30 1465 H 141.438 -0.116358 -0.818773 0
M  V30 1466 H 143.984 -0.951418 -1.40521 0
M  V30 1467 H 142.756 -1.91081 -3.41473 0
M  V30 1468 H 142.379 -0.286687 -3.96565 0
M  V30 1469 N 143.376 1.44774 -0.622745 0
M  V30 1470 C 144.624 2.01721 -0.123655 0
M  V30 1471 C 144.945 1.49172 1.25589 0
M  V30 1472 O 144.215 0.691974 1.83272 0
M  V30 1473 H 142.795 0.745777 -0.0427225 0
M  V30 1474 H 145.457 1.77382 -0.807559 0
M  V30 1475 H 144.553 3.11984 -0.0849534 0
M  V30 1476 N 144.854 0.36279 1.53368 0
M  V30 1477 C 145.817 -0.472679 2.24273 0
M  V30 1478 C 146.817 -1.012 1.24961 0
M  V30 1479 O 148.007 -0.898194 1.49259 0
M  V30 1480 C 145.139 -1.66039 2.97731 0
M  V30 1481 H 146.332 0.14773 2.99536 0
M  V30 1482 H 143.885 0.114434 1.55881 0
M  V30 1483 H 144.62 -2.31896 2.26704 0
M  V30 1484 H 144.405 -1.28066 3.70596 0
M  V30 1485 H 145.895 -2.25252 3.51641 0
M  V30 1486 N 146.332 -1.57332 0.0918853 0
M  V30 1487 C 147.264 -2.10869 -0.898168 0
M  V30 1488 C 148.277 -1.04521 -1.24817 0
M  V30 1489 O 149.466 -1.31977 -1.20184 0
M  V30 1490 C 146.566 -2.57083 -2.2082 0
M  V30 1491 C 145.739 -3.87229 -2.03402 0
M  V30 1492 C 144.798 -4.19324 -3.17889 0
M  V30 1493 O 143.824 -4.88598 -2.91994 0
M  V30 1494 N 145.026 -3.74471 -4.43567 0
M  V30 1495 H 147.791 -2.96439 -0.440943 0
M  V30 1496 H 145.352 -1.61631 -0.0933064 0
M  V30 1497 H 147.344 -2.75602 -2.96354 0
M  V30 1498 H 145.914 -1.76541 -2.57977 0
M  V30 1499 H 145.134 -3.7789 -1.12218 0
M  V30 1500 H 146.422 -4.72379 -1.89038 0
M  V30 1501 H 145.82 -3.18546 -4.67488 0
M  V30 1502 H 144.377 -3.98151 -5.16061 0
M  V30 1503 N 147.81 0.181792 -1.56548 0
M  V30 1504 C 149.058 0.89832 -1.81038 0
M  V30 1505 C 149.379 1.83232 -0.667164 0
M  V30 1506 O 148.649 1.93372 0.313673 0
M  V30 1507 H 147.229 0.33471 -0.667816 0
M  V30 1508 H 149.891 0.184116 -1.94028 0
M  V30 1509 H 148.987 1.4815 -2.74696 0
M  V30 1510 N 149.288 1.51039 0.449983 0
M  V30 1511 C 150.22 1.67617 1.56324 0
M  V30 1512 C 151.233 0.557083 1.52972 0
M  V30 1513 O 152.422 0.830989 1.57977 0
M  V30 1514 C 149.522 1.66402 2.95235 0
M  V30 1515 C 148.695 2.9469 3.23229 0
M  V30 1516 C 147.754 2.85832 4.41799 0
M  V30 1517 O 146.78 3.59785 4.41071 0
M  V30 1518 N 147.982 2.00821 5.44657 0
M  V30 1519 H 150.747 2.63648 1.42512 0
M  V30 1520 H 148.308 1.48767 0.638737 0
M  V30 1521 H 150.3 1.58062 3.72557 0
M  V30 1522 H 148.87 0.780182 3.02708 0
M  V30 1523 H 148.09 3.16996 2.34323 0
M  V30 1524 H 149.378 3.79636 3.38754 0
M  V30 1525 H 148.776 1.40091 5.48079 0
M  V30 1526 H 147.333 1.98368 6.20881 0
M  V30 1527 N 150.766 -0.704594 1.40972 0
M  V30 1528 C 152.182 -1.01406 1.23244 0
M  V30 1529 C 152.382 -2.01169 0.115399 0
M  V30 1530 O 151.438 -2.47021 -0.523147 0
M  V30 1531 C 152.751 -1.54728 2.57836 0
M  V30 1532 C 154.299 -1.66658 2.64942 0
M  V30 1533 C 154.774 -2.23383 3.9983 0
M  V30 1534 N 156.265 -2.30756 4.01629 0
M  V30 1535 C 157 -2.75655 5.02794 0
M  V30 1536 N 156.496 -3.20225 6.14352 0
M  V30 1537 N 158.289 -2.75138 4.90159 0
M  V30 1538 H 150.44 -0.0435285 2.12355 0
M  V30 1539 H 152.703 -0.0818951 0.944456 0
M  V30 1540 H 152.409 -0.888832 3.40283 0
M  V30 1541 H 152.283 -2.53084 2.79693 0
M  V30 1542 H 154.67 -2.31617 1.8286 0
M  V30 1543 H 154.751 -0.668717 2.46904 0
M  V30 1544 H 154.395 -1.59043 4.82357 0
M  V30 1545 H 154.325 -3.23904 4.15203 0
M  V30 1546 H 156.816 -1.99291 3.21079 0
M  V30 1547 H 157.129 -3.53084 6.87424 0
M  V30 1548 H 155.474 -3.18156 6.17901 0
M  V30 1549 H 158.665 -2.39661 4.02095 0
M  V30 1550 H 158.838 -3.09812 5.6914 0
M  V30 1551 N 152.244 -1.26651 -0.937939 0
M  V30 1552 C 153.207 -1.08546 -2.01867 0
M  V30 1553 C 154.207 -0.0327327 -1.60767 0
M  V30 1554 O 155.397 -0.276427 -1.71993 0
M  V30 1555 C 152.529 -0.651711 -3.34613 0
M  V30 1556 H 153.722 -2.04502 -2.1936 0
M  V30 1557 H 151.275 -1.09294 -1.11734 0
M  V30 1558 H 152.01 0.309696 -3.22818 0
M  V30 1559 H 151.795 -1.41189 -3.65798 0
M  V30 1560 H 153.285 -0.546973 -4.14002 0
M  V30 1561 N 153.722 1.14298 -1.08507 0
M  V30 1562 C 154.67 2.21483 -0.710483 0
M  V30 1563 C 155.664 1.66998 0.284234 0
M  V30 1564 O 156.87 1.79401 0.146692 0
M  V30 1565 H 153.245 0.721578 -0.211729 0
M  V30 1566 H 155.216 2.50348 -1.62384 0
M  V30 1567 C 153.965 3.4743 -0.137007 0
M  V30 1568 H 153.288 3.89686 -0.893592 0
M  V30 1569 H 154.728 4.2391 0.0872789 0
M  V30 1570 C 153.187 3.17548 1.12538 0
M  V30 1571 O 153.717 3.35437 2.21009 0
M  V30 1572 N 151.923 2.71499 1.03617 0
M  V30 1573 H 151.47 2.57143 0.153403 0
M  V30 1574 H 151.428 2.51881 1.88158 0
M  V30 1575 N 155.201 0.870884 1.31352 0
M  V30 1576 C 156.426 0.495957 2.01383 0
M  V30 1577 C 156.851 -0.904324 1.64935 0
M  V30 1578 O 156.209 -1.59687 0.858466 0
M  V30 1579 C 156.257 0.661433 3.54482 0
M  V30 1580 O 155.361 -0.298851 4.11316 0
M  V30 1581 H 154.702 0.197158 0.634054 0
M  V30 1582 H 157.232 1.17455 1.67527 0
M  V30 1583 H 157.242 0.555072 4.04207 0
M  V30 1584 H 155.917 1.68246 3.8035 0
M  V30 1585 H 154.494 -0.147368 3.72609 0
M  V30 1586 N 156.679 -1.44442 0.630414 0
M  V30 1587 C 157.925 -2.02894 0.143332 0
M  V30 1588 C 158.28 -1.48697 -1.22094 0
M  V30 1589 O 157.573 -0.661171 -1.79831 0
M  V30 1590 C 157.767 -3.57332 0.0697835 0
M  V30 1591 C 157.596 -4.26512 1.42539 0
M  V30 1592 C 156.366 -4.63516 2.01198 0
M  V30 1593 C 158.564 -4.57004 2.35907 0
M  V30 1594 N 156.546 -5.17661 3.30001 0
M  V30 1595 C 157.917 -5.12223 3.49324 0
M  V30 1596 C 159.972 -4.38955 2.34995 0
M  V30 1597 C 158.675 -5.51295 4.62024 0
M  V30 1598 C 160.701 -4.79075 3.46758 0
M  V30 1599 C 160.063 -5.34407 4.58899 0
M  V30 1600 H 156.162 -0.776041 0.0963523 0
M  V30 1601 H 158.746 -1.75945 0.833752 0
M  V30 1602 H 156.917 -3.83894 -0.589915 0
M  V30 1603 H 158.649 -4.02451 -0.42606 0
M  V30 1604 H 155.404 -4.47811 1.54151 0
M  V30 1605 H 155.828 -5.4921 3.95851 0
M  V30 1606 H 160.47 -3.95469 1.49545 0
M  V30 1607 H 158.188 -5.93736 5.48182 0
M  V30 1608 H 161.774 -4.66824 3.47227 0
M  V30 1609 H 160.654 -5.64878 5.4395 0
M  V30 1610 N 158.157 -0.370918 -1.53173 0
M  V30 1611 C 159.107 0.489588 -2.22681 0
M  V30 1612 C 160.091 1.04442 -1.22395 0
M  V30 1613 O 161.283 0.973578 -1.47819 0
M  V30 1614 C 158.412 1.626 -3.02351 0
M  V30 1615 C 157.498 1.08379 -4.10018 0
M  V30 1616 N 157.889 0.265004 -5.05105 0
M  V30 1617 C 156.187 1.35809 -4.2482 0
M  V30 1618 C 156.888 -0.0324755 -5.81691 0
M  V30 1619 N 155.864 0.566581 -5.40639 0
M  V30 1620 H 159.666 -0.142729 -2.93553 0
M  V30 1621 H 157.18 -0.179221 -1.61408 0
M  V30 1622 H 159.177 2.2547 -3.50669 0
M  V30 1623 H 157.837 2.26132 -2.33011 0
M  V30 1624 H 158.848 -0.0962352 -5.17811 0
M  V30 1625 H 155.525 1.9958 -3.66707 0
M  V30 1626 H 156.915 -0.69473 -6.68299 0
M  V30 1627 N 159.635 1.57281 -0.100228 0
M  V30 1628 C 160.863 1.98879 0.570509 0
M  V30 1629 C 161.278 0.979476 1.61405 0
M  V30 1630 O 160.635 -0.0302288 1.82475 0
M  V30 1631 C 160.686 3.4052 1.2136 0
M  V30 1632 O 160.407 4.37588 0.211786 0
M  V30 1633 C 161.908 3.97149 1.96945 0
M  V30 1634 H 159.128 0.653428 0.152555 0
M  V30 1635 H 161.672 2.03697 -0.18103 0
M  V30 1636 H 159.827 3.367 1.91603 0
M  V30 1637 H 160.241 5.20118 0.676607 0
M  V30 1638 H 161.715 4.98393 2.37294 0
M  V30 1639 H 162.192 3.3525 2.83733 0
M  V30 1640 H 162.798 4.04458 1.31506 0
M  V30 1641 N 161.113 -0.173488 1.56642 0
M  V30 1642 C 162.39 -0.917617 1.7274 0
M  V30 1643 C 162.77 -2.00484 0.661027 0
M  V30 1644 O 162.118 -2.26184 -0.32453 0
M  V30 1645 C 162.328 -1.48433 3.15862 0
M  V30 1646 C 163.676 -1.95809 3.76754 0
M  V30 1647 O 164.7 -1.58231 3.19126 0
M  V30 1648 O 163.559 -2.65024 4.77938 0
M  V30 1649 H 160.653 -0.431772 0.705338 0
M  V30 1650 H 163.199 -0.161487 1.6893 0
M  V30 1651 H 161.971 -0.701715 3.84957 0
M  V30 1652 H 161.594 -2.30471 3.23989 0
M  V30 1653 N 162.591 -1.51276 -0.441967 0
M  V30 1654 C 163.837 -1.63958 -1.19355 0
M  V30 1655 C 164.17 -0.352543 -1.90973 0
M  V30 1656 O 163.445 0.647627 -1.83401 0
M  V30 1657 C 163.728 -2.83979 -2.21422 0
M  V30 1658 C 163.581 -4.22646 -1.53918 0
M  V30 1659 C 164.9 -2.99521 -3.22451 0
M  V30 1660 H 162.019 -0.596709 -0.432559 0
M  V30 1661 H 164.661 -1.83748 -0.483398 0
M  V30 1662 H 162.811 -2.67237 -2.81987 0
M  V30 1663 H 164.483 -4.51045 -0.967256 0
M  V30 1664 H 162.726 -4.25558 -0.841615 0
M  V30 1665 H 163.397 -5.02609 -2.28229 0
M  V30 1666 H 165.873 -3.14944 -2.71937 0
M  V30 1667 H 164.749 -3.85072 -3.91166 0
M  V30 1668 H 165.01 -2.11391 -3.88287 0
M  V30 1669 N 164.069 0.697108 -1.41344 0
M  V30 1670 C 165.297 1.48593 -1.43972 0
M  V30 1671 C 165.712 1.88747 -0.0445612 0
M  V30 1672 O 165.069 1.56682 0.935785 0
M  V30 1673 C 165.12 2.74946 -2.34706 0
M  V30 1674 O 164.841 2.36484 -3.68791 0
M  V30 1675 C 166.342 3.687 -2.46121 0
M  V30 1676 H 163.562 0.457964 -0.490418 0
M  V30 1677 H 166.106 0.858429 -1.8561 0
M  V30 1678 H 164.261 3.33937 -1.9638 0
M  V30 1679 H 164.675 3.17918 -4.17167 0
M  V30 1680 H 166.149 4.54145 -3.13777 0
M  V30 1681 H 166.626 4.13081 -1.49199 0
M  V30 1682 H 167.232 3.15613 -2.85076 0
M  V30 1683 N 165.547 1.27147 0.931209 0
M  V30 1684 C 166.794 1.13278 1.67852 0
M  V30 1685 C 167.122 -0.32204 1.91815 0
M  V30 1686 O 166.377 -1.25224 1.50391 0
M  V30 1687 C 166.676 1.8579 3.05314 0
M  V30 1688 C 166.342 3.35657 3.01073 0
M  V30 1689 C 165.004 3.76536 2.99623 0
M  V30 1690 C 167.356 4.31299 2.92627 0
M  V30 1691 C 164.684 5.11426 2.87506 0
M  V30 1692 C 167.036 5.66242 2.82051 0
M  V30 1693 C 165.7 6.06418 2.7895 0
M  V30 1694 H 164.97 0.414515 0.614214 0
M  V30 1695 H 167.617 1.57712 1.08624 0
M  V30 1696 H 165.922 1.33854 3.68226 0
M  V30 1697 H 167.619 1.72491 3.62005 0
M  V30 1698 H 164.209 3.03146 3.02986 0
M  V30 1699 H 168.393 4.00692 2.92848 0
M  V30 1700 H 163.649 5.41705 2.83489 0
M  V30 1701 H 167.823 6.40026 2.74481 0
M  V30 1702 H 165.45 7.10895 2.69318 0
M  V30 1703 N 167.025 -1.13721 1.09112 0
M  V30 1704 C 168.271 -1.85198 0.826414 0
M  V30 1705 C 168.604 -1.83129 -0.646319 0
M  V30 1706 O 167.879 -1.2671 -1.47563 0
M  V30 1707 C 168.162 -3.33507 1.35812 0
M  V30 1708 C 168.015 -3.44108 2.89672 0
M  V30 1709 C 169.334 -4.28838 0.989256 0
M  V30 1710 H 166.453 -0.67243 0.301675 0
M  V30 1711 H 169.095 -1.33499 1.35197 0
M  V30 1712 H 167.245 -3.77666 0.911082 0
M  V30 1713 H 168.917 -3.08684 3.428 0
M  V30 1714 H 167.16 -2.85087 3.26967 0
M  V30 1715 H 167.831 -4.48388 3.21951 0
M  V30 1716 H 170.307 -3.92734 1.37475 0
M  V30 1717 H 169.183 -5.31051 1.38838 0
M  V30 1718 H 169.444 -4.4198 -0.102924 0
M  V30 1719 N 168.503 -0.877838 -1.30888 0
M  V30 1720 C 169.413 -0.343096 -2.32078 0
M  V30 1721 C 170.429 0.551022 -1.65045 0
M  V30 1722 O 171.605 0.445854 -1.96403 0
M  V30 1723 C 168.67 0.439905 -3.43898 0
M  V30 1724 C 167.731 -0.483111 -4.26573 0
M  V30 1725 C 166.964 0.262616 -5.33053 0
M  V30 1726 O 167.187 1.48967 -5.50604 0
M  V30 1727 O 166.121 -0.383593 -6.00676 0
M  V30 1728 H 169.947 -1.18203 -2.79753 0
M  V30 1729 H 167.532 -0.64145 -1.34929 0
M  V30 1730 H 169.414 0.883504 -4.12034 0
M  V30 1731 H 168.089 1.25526 -2.98371 0
M  V30 1732 H 166.996 -0.975374 -3.61161 0
M  V30 1733 H 168.329 -1.26427 -4.75686 0
M  V30 1734 N 169.982 1.44106 -0.638065 0
M  V30 1735 C 170.945 2.29138 0.0531013 0
M  V30 1736 C 171.945 1.41409 0.765506 0
M  V30 1737 O 173.135 1.63206 0.609046 0
M  V30 1738 C 170.267 3.23144 1.08584 0
M  V30 1739 H 171.46 2.91739 -0.694883 0
M  V30 1740 H 169.013 1.51134 -0.398538 0
M  V30 1741 H 169.748 2.65408 1.86357 0
M  V30 1742 H 169.533 3.87804 0.578852 0
M  V30 1743 H 171.023 3.87004 1.56899 0
M  V30 1744 N 171.46 0.379036 1.52974 0
M  V30 1745 C 172.69 -0.20649 2.05566 0
M  V30 1746 C 173.098 -1.41906 1.25137 0
M  V30 1747 O 172.441 -1.81421 0.288464 0
M  V30 1748 C 172.503 -0.651086 3.53555 0
M  V30 1749 C 172.167 0.446626 4.54812 0
M  V30 1750 C 173.164 1.30079 5.03364 0
M  V30 1751 C 170.849 0.610719 4.98573 0
M  V30 1752 C 172.843 2.30426 5.94292 0
M  V30 1753 C 170.53 1.61754 5.89304 0
M  V30 1754 C 171.528 2.46274 6.37054 0
M  V30 1755 O 171.216 3.45237 7.25994 0
M  V30 1756 H 170.948 -0.0372381 0.674974 0
M  V30 1757 H 173.502 0.539718 1.98182 0
M  V30 1758 H 171.732 -1.44911 3.58522 0
M  V30 1759 H 173.421 -1.16112 3.88938 0
M  V30 1760 H 174.187 1.18527 4.70294 0
M  V30 1761 H 170.066 -0.0374044 4.60985 0
M  V30 1762 H 173.61 2.96432 6.31485 0
M  V30 1763 H 169.507 1.73348 6.21788 0
M  V30 1764 H 170.275 3.41124 7.44027 0
M  V30 1765 N 172.938 -1.57226 0.108567 0
M  V30 1766 C 174.349 -1.8195 -0.418464 0
M  V30 1767 C 174.7 -1.02508 -1.67292 0
M  V30 1768 O 173.825 -0.258496 -2.14851 0
M  V30 1769 C 174.42 -3.30028 -0.765979 0
M  V30 1770 C 172.979 -3.55469 -1.23769 0
M  V30 1771 C 172.126 -2.7625 -0.241106 0
M  V30 1772 H 175.077 -1.55149 0.33384 0
M  V30 1773 H 175.098 -3.44086 -1.62434 0
M  V30 1774 H 174.61 -3.87821 0.147219 0
M  V30 1775 H 172.711 -3.03022 -2.16814 0
M  V30 1776 H 172.824 -4.6408 -1.19022 0
M  V30 1777 H 171.188 -2.44133 -0.72602 0
M  V30 1778 H 171.971 -3.36797 0.665007 0
M  V30 1779 N 174.416 0.165178 -1.56732 0
M  V30 1780 C 175.363 1.2044 -1.96883 0
M  V30 1781 C 176.333 1.43664 -0.833657 0
M  V30 1782 O 177.518 1.56302 -1.09427 0
M  V30 1783 C 174.658 2.53727 -2.33916 0
M  V30 1784 C 173.771 2.3783 -3.6064 0
M  V30 1785 C 172.906 3.64026 -3.86857 0
M  V30 1786 C 171.945 3.43088 -5.06909 0
M  V30 1787 N 171.082 4.61369 -5.29229 0
M  V30 1788 H 175.922 0.854996 -2.85471 0
M  V30 1789 H 173.459 0.41076 -1.41249 0
M  V30 1790 H 175.417 3.31419 -2.53411 0
M  V30 1791 H 174.047 2.8665 -1.48431 0
M  V30 1792 H 173.099 1.51282 -3.49024 0
M  V30 1793 H 174.411 2.18308 -4.4849 0
M  V30 1794 H 173.565 4.50152 -4.06753 0
M  V30 1795 H 172.304 3.86533 -2.97394 0
M  V30 1796 H 171.309 2.55349 -4.86906 0
M  V30 1797 H 172.534 3.21997 -5.97909 0
M  V30 1798 H 170.48 4.84084 -4.42718 0
M  V30 1799 H 170.397 4.44783 -6.11313 0
M  V30 1800 H 171.665 5.48761 -5.53608 0
M  V30 1801 N 175.894 1.51508 0.433938 0
M  V30 1802 C 176.857 1.72473 1.50949 0
M  V30 1803 C 177.857 0.594725 1.49398 0
M  V30 1804 O 179.047 0.862315 1.5136 0
M  V30 1805 C 176.179 1.78431 2.90474 0
M  V30 1806 H 177.372 2.68467 1.33662 0
M  V30 1807 H 174.925 1.41549 0.662836 0
M  V30 1808 H 175.66 0.842645 3.13161 0
M  V30 1809 H 175.445 2.60558 2.93005 0
M  V30 1810 H 176.935 1.96479 3.68491 0
M  V30 1811 N 177.372 -0.689602 1.41712 0
M  V30 1812 C 178.597 -1.48329 1.44959 0
M  V30 1813 C 179.022 -1.8801 0.0581283 0
M  V30 1814 O 178.38 -1.55026 -0.940035 0
M  V30 1815 C 178.428 -2.71835 2.36935 0
M  V30 1816 O 177.532 -3.69549 1.8305 0
M  V30 1817 H 176.873 -0.446199 0.491734 0
M  V30 1818 H 179.403 -0.847127 1.86239 0
M  V30 1819 H 179.413 -3.20076 2.53013 0
M  V30 1820 H 178.088 -2.42291 3.38035 0
M  V30 1821 H 176.665 -3.2851 1.76452 0
M  V30 1822 N 178.85 -1.27639 -0.924453 0
M  V30 1823 C 180.099 -1.13549 -1.66702 0
M  V30 1824 C 180.412 0.317487 -1.93006 0
M  V30 1825 O 181.618 0.579333 -2.65247 0
M  V30 1826 C 180.074 -1.98426 -3.00259 0
M  V30 1827 C 179.682 -3.484 -2.81641 0
M  V30 1828 C 181.426 -1.92993 -3.78092 0
M  V30 1829 C 179.333 -4.25464 -4.10773 0
M  V30 1830 H 178.263 -0.421351 -0.625283 0
M  V30 1831 H 180.914 -1.52085 -1.02676 0
M  V30 1832 H 179.296 -1.52736 -3.6536 0
M  V30 1833 H 180.47 -4.01973 -2.25287 0
M  V30 1834 H 178.785 -3.55245 -2.17232 0
M  V30 1835 H 181.382 -2.47844 -4.7379 0
M  V30 1836 H 181.725 -0.904281 -4.0636 0
M  V30 1837 H 182.258 -2.36595 -3.19793 0
M  V30 1838 H 178.997 -5.28566 -3.87683 0
M  V30 1839 H 178.517 -3.76667 -4.66779 0
M  V30 1840 H 180.196 -4.34812 -4.79111 0
M  V30 1841 N 180.328 1.1314 -1.09713 0
M  V30 1842 C 181.258 2.20748 -0.761102 0
M  V30 1843 C 182.239 1.68061 0.262566 0
M  V30 1844 O 183.424 1.93765 0.129977 0
M  V30 1845 C 180.554 3.46812 -0.184054 0
M  V30 1846 C 179.508 4.12606 -1.13757 0
M  V30 1847 C 178.834 5.33031 -0.422083 0
M  V30 1848 C 180.134 4.59603 -2.48118 0
M  V30 1849 H 181.828 2.49113 -1.66082 0
M  V30 1850 H 179.374 1.19734 -0.799987 0
M  V30 1851 H 181.327 4.21353 0.0631215 0
M  V30 1852 H 180.051 3.17851 0.750868 0
M  V30 1853 H 178.71 3.40036 -1.37007 0
M  V30 1854 H 178.358 5.00335 0.517072 0
M  V30 1855 H 178.058 5.77999 -1.05788 0
M  V30 1856 H 179.582 6.10325 -0.183277 0
M  V30 1857 H 180.996 5.25552 -2.29059 0
M  V30 1858 H 179.393 5.15321 -3.07514 0
M  V30 1859 H 180.463 3.73971 -3.08665 0
M  V30 1860 N 181.806 0.884767 1.30421 0
M  V30 1861 C 183.222 0.57874 1.48737 0
M  V30 1862 C 183.422 -0.883567 1.81095 0
M  V30 1863 O 182.478 -1.6648 1.89844 0
M  V30 1864 C 183.791 1.49171 2.61091 0
M  V30 1865 C 185.339 1.49532 2.74971 0
M  V30 1866 C 185.814 2.39421 3.90438 0
M  V30 1867 N 187.305 2.37383 3.97748 0
M  V30 1868 C 188.04 3.03647 4.86401 0
M  V30 1869 N 187.536 3.79136 5.79852 0
M  V30 1870 N 189.329 2.9288 4.79768 0
M  V30 1871 H 181.48 1.83075 1.0769 0
M  V30 1872 H 183.743 0.783637 0.533495 0
M  V30 1873 H 183.449 2.53291 2.44001 0
M  V30 1874 H 183.323 1.20113 3.57565 0
M  V30 1875 H 185.71 0.46163 2.91467 0
M  V30 1876 H 185.791 1.8262 1.79119 0
M  V30 1877 H 185.435 3.42874 3.74699 0
M  V30 1878 H 185.365 2.03649 4.85628 0
M  V30 1879 H 187.856 1.82525 3.30897 0
M  V30 1880 H 188.169 4.26789 6.4426 0
M  V30 1881 H 186.514 3.83243 5.79784 0
M  V30 1882 H 189.705 2.33433 4.05742 0
M  V30 1883 H 189.878 3.448 5.4865 0
M  V30 1884 N 183.284 -1.43765 0.645699 0
M  V30 1885 C 184.509 -2.06767 0.161883 0
M  V30 1886 C 184.934 -1.48034 -1.16049 0
M  V30 1887 O 184.292 -0.587369 -1.71522 0
M  V30 1888 C 184.34 -3.60519 0.0762003 0
M  V30 1889 O 183.444 -4.00982 -0.963721 0
M  V30 1890 H 182.785 -0.657675 0.091429 0
M  V30 1891 H 185.315 -1.84397 0.886499 0
M  V30 1892 H 185.325 -4.07853 -0.109604 0
M  V30 1893 H 184 -4.02646 1.04157 0
M  V30 1894 H 182.577 -3.65253 -0.751312 0
M  V30 1895 N 184.763 -0.387143 -1.52771 0
M  V30 1896 C 186.009 0.196025 -2.0185 0
M  V30 1897 C 186.342 1.46641 -1.27319 0
M  V30 1898 O 185.617 1.90889 -0.373032 0
M  V30 1899 C 185.9 0.466136 -3.5707 0
M  V30 1900 C 185.753 -0.819385 -4.42274 0
M  V30 1901 C 187.072 1.25768 -4.21747 0
M  V30 1902 H 184.191 0.0697708 -0.73369 0
M  V30 1903 H 186.833 -0.516286 -1.82851 0
M  V30 1904 H 184.983 1.07293 -3.7339 0
M  V30 1905 H 186.655 -1.4563 -4.37709 0
M  V30 1906 H 184.898 -1.43517 -4.09372 0
M  V30 1907 H 185.569 -0.585065 -5.48891 0
M  V30 1908 H 188.045 0.744167 -4.09391 0
M  V30 1909 H 186.921 1.41541 -5.30337 0
M  V30 1910 H 187.182 2.27228 -3.79236 0
M  V30 1911 N 186.241 1.57166 -0.116904 0
M  V30 1912 C 187.487 1.95412 0.542405 0
M  V30 1913 C 187.82 1.00019 1.66463 0
M  V30 1914 O 187.095 0.0370346 1.94465 0
M  V30 1915 C 187.378 3.43615 1.07708 0
M  V30 1916 C 187.231 4.49781 -0.0415868 0
M  V30 1917 C 188.55 3.93616 1.96861 0
M  V30 1918 H 185.669 0.710543 0.195696 0
M  V30 1919 H 188.311 1.89027 -0.192038 0
M  V30 1920 H 186.461 3.49187 1.70296 0
M  V30 1921 H 188.133 4.56308 -0.676793 0
M  V30 1922 H 186.376 4.28033 -0.705019 0
M  V30 1923 H 187.047 5.50733 0.373717 0
M  V30 1924 H 189.523 3.90335 1.44146 0
M  V30 1925 H 188.399 4.97838 2.3119 0
M  V30 1926 H 188.66 3.34188 2.89432 0
M  V30 1927 N 187.719 -0.156864 1.56817 0
M  V30 1928 C 188.682 -1.17781 1.96622 0
M  V30 1929 C 189.682 -1.36401 0.851555 0
M  V30 1930 O 190.872 -1.33561 1.11836 0
M  V30 1931 C 188.004 -2.54008 2.27361 0
M  V30 1932 H 189.197 -0.836564 2.87996 0
M  V30 1933 H 186.75 -0.39985 1.51099 0
M  V30 1934 H 187.485 -2.9312 1.38748 0
M  V30 1935 H 187.27 -2.41856 3.08623 0
M  V30 1936 H 188.76 -3.27558 2.59029 0
M  V30 1937 N 189.197 -1.51736 -0.425897 0
M  V30 1938 C 190.608 -1.5732 -1.00536 0
M  V30 1939 C 190.959 -0.403537 -1.92005 0
M  V30 1940 O 190.084 0.478256 -2.11049 0
M  V30 1941 C 190.679 -2.85119 -1.8301 0
M  V30 1942 C 189.238 -2.93236 -2.35987 0
M  V30 1943 C 188.385 -2.52098 -1.15508 0
M  V30 1944 H 191.336 -1.57348 -0.206739 0
M  V30 1945 H 191.357 -2.69526 -2.68581 0
M  V30 1946 H 190.869 -3.7023 -1.16411 0
M  V30 1947 H 188.97 -2.12581 -3.06007 0
M  V30 1948 H 189.083 -3.9713 -2.68001 0
M  V30 1949 H 187.447 -2.05558 -1.50393 0
M  V30 1950 H 188.23 -3.39565 -0.505014 0
M  V30 1951 N 190.675 0.682077 -1.42076 0
M  V30 1952 C 191.638 1.77756 -1.44691 0
M  V30 1953 C 192.638 1.5726 -0.335535 0
M  V30 1954 O 193.828 1.63686 -0.596037 0
M  V30 1955 C 190.96 3.16301 -1.27146 0
M  V30 1956 H 192.153 1.76826 -2.42224 0
M  V30 1957 H 189.706 0.891012 -1.28416 0
M  V30 1958 H 190.441 3.22862 -0.305075 0
M  V30 1959 H 190.226 3.32581 -2.07683 0
M  V30 1960 H 191.716 3.96241 -1.31843 0
M  V30 1961 N 192.153 1.28127 0.917671 0
M  V30 1962 C 193.378 1.18007 1.70555 0
M  V30 1963 C 193.803 -0.258257 1.86319 0
M  V30 1964 O 193.161 -1.1869 1.37049 0
M  V30 1965 C 193.209 1.87948 3.07746 0
M  V30 1966 O 192.313 1.18427 3.9503 0
M  V30 1967 H 191.654 0.409867 0.522403 0
M  V30 1968 H 194.184 1.69379 1.1477 0
M  V30 1969 H 194.194 1.95701 3.58001 0
M  V30 1970 H 192.869 2.92573 2.95591 0
M  V30 1971 H 191.446 1.18811 3.53466 0
M  V30 1972 N 193.631 -1.12557 1.10312 0
M  V30 1973 C 194.879 -1.83675 0.843091 0
M  V30 1974 C 195.2 -1.84435 -0.633131 0
M  V30 1975 O 194.47 -1.30657 -1.45964 0
M  V30 1976 H 193.05 -0.680138 0.308904 0
M  V30 1977 H 195.712 -1.36301 1.39313 0
M  V30 1978 H 194.808 -2.87908 1.2048 0
M  V30 1979 N 195.109 -0.891671 -1.2995 0
M  V30 1980 C 196.357 -0.512486 -1.95494 0
M  V30 1981 C 196.678 0.942776 -1.70695 0
M  V30 1982 O 195.948 1.66374 -1.03424 0
M  V30 1983 H 194.528 -0.186533 -0.723336 0
M  V30 1984 H 197.19 -1.13621 -1.58355 0
M  V30 1985 H 196.286 -0.688342 -3.04415 0
M  V30 1986 N 196.587 1.43421 -0.653314 0
M  V30 1987 C 197.864 1.95361 -0.0966581 0
M  V30 1988 C 198.244 1.59461 1.38331 0
M  V30 1989 O 197.592 0.879777 2.10884 0
M  V30 1990 C 197.802 3.47311 -0.342988 0
M  V30 1991 C 199.15 4.23875 -0.24798 0
M  V30 1992 O 200.174 3.55133 -0.275553 0
M  V30 1993 O 199.033 5.4623 -0.171771 0
M  V30 1994 H 196.127 0.826945 0.00956291 0
M  V30 1995 H 198.673 1.5336 -0.726558 0
M  V30 1996 H 197.445 3.66569 -1.36906 0
M  V30 1997 H 197.068 3.9631 0.319975 0
M  V30 1998 N 198.065 0.39524 1.52563 0
M  V30 1999 C 199.293 -0.184943 2.06072 0
M  V30 2000 C 199.708 -1.40021 1.26647 0
M  V30 2001 O 199.065 -1.79767 0.314672 0
M  V30 2002 C 199.116 -0.549179 3.57304 0
M  V30 2003 O 198.837 0.617813 4.33722 0
M  V30 2004 C 200.338 -1.18459 4.2718 0
M  V30 2005 H 197.558 -0.0265025 0.670476 0
M  V30 2006 H 200.102 0.562184 1.96621 0
M  V30 2007 H 198.257 -1.2462 3.66809 0
M  V30 2008 H 198.671 0.317091 5.23541 0
M  V30 2009 H 200.145 -1.38976 5.34219 0
M  V30 2010 H 200.622 -2.15368 3.82771 0
M  V30 2011 H 201.228 -0.528163 4.22008 0
M  V30 2012 N 199.544 -1.57102 0.125237 0
M  V30 2013 C 200.79 -1.95697 -0.532035 0
M  V30 2014 C 201.123 -1.009 -1.6593 0
M  V30 2015 O 200.398 -0.047347 -1.94442 0
M  V30 2016 C 200.681 -3.44181 -1.05884 0
M  V30 2017 C 200.534 -4.49752 0.0654392 0
M  V30 2018 C 201.853 -3.94655 -1.9477 0
M  V30 2019 H 198.972 -0.711571 -0.191925 0
M  V30 2020 H 201.614 -1.88923 0.20206 0
M  V30 2021 H 199.764 -3.50085 -1.68442 0
M  V30 2022 H 201.436 -4.55943 0.700982 0
M  V30 2023 H 199.679 -4.27653 0.727709 0
M  V30 2024 H 200.35 -5.50924 -0.344505 0
M  V30 2025 H 202.826 -3.91094 -1.42074 0
M  V30 2026 H 201.702 -4.99057 -2.28546 0
M  V30 2027 H 201.963 -3.35718 -2.87656 0
M  V30 2028 N 201.022 0.148545 -1.56898 0
M  V30 2029 C 202.268 0.857877 -1.84424 0
M  V30 2030 C 202.623 1.7886 -0.709006 0
M  V30 2031 O 201.916 1.89344 0.293139 0
M  V30 2032 C 202.11 1.67064 -3.1595 0
M  V30 2033 C 201.939 0.82011 -4.42159 0
M  V30 2034 C 200.709 0.486328 -5.02954 0
M  V30 2035 C 202.907 0.151155 -5.14078 0
M  V30 2036 N 200.889 -0.377956 -6.12735 0
M  V30 2037 C 202.26 -0.573333 -6.17343 0
M  V30 2038 C 204.315 0.0716685 -4.97848 0
M  V30 2039 C 203.018 -1.3698 -7.06137 0
M  V30 2040 C 205.044 -0.711532 -5.87104 0
M  V30 2041 C 204.406 -1.42431 -6.8985 0
M  V30 2042 H 200.505 0.291798 -0.725519 0
M  V30 2043 H 203.089 0.123347 -1.94309 0
M  V30 2044 H 201.26 2.37642 -3.07215 0
M  V30 2045 H 202.992 2.32302 -3.31388 0
M  V30 2046 H 199.747 0.821753 -4.66416 0
M  V30 2047 H 200.171 -0.801077 -6.72244 0
M  V30 2048 H 204.813 0.608381 -4.184 0
M  V30 2049 H 202.531 -1.91778 -7.85014 0
M  V30 2050 H 206.117 -0.775005 -5.76615 0
M  V30 2051 H 204.997 -2.02061 -7.57721 0
M  V30 2052 N 202.5 1.5196 0.417844 0
M  V30 2053 C 203.463 1.74065 1.49111 0
M  V30 2054 C 204.463 0.610537 1.48758 0
M  V30 2055 O 205.653 0.87832 1.50437 0
M  V30 2056 C 202.785 1.81502 2.88565 0
M  V30 2057 H 203.978 2.69869 1.30807 0
M  V30 2058 H 201.531 1.42244 0.647785 0
M  V30 2059 H 202.266 0.875813 3.1225 0
M  V30 2060 H 202.051 2.63651 2.90225 0
M  V30 2061 H 203.541 2.00376 3.66387 0
M  V30 2062 N 203.978 -0.674533 1.42435 0
M  V30 2063 C 204.926 -1.80934 1.46169 0
M  V30 2064 C 205.92 -1.66006 0.3374 0
M  V30 2065 O 207.126 -1.72611 0.510425 0
M  V30 2066 H 203.501 -0.596594 0.457798 0
M  V30 2067 H 205.472 -1.74903 2.41767 0
M  V30 2068 C 204.221 -3.19088 1.38123 0
M  V30 2069 H 203.544 -3.31203 2.23931 0
M  V30 2070 H 204.984 -3.9851 1.44797 0
M  V30 2071 C 203.443 -3.36763 0.0960517 0
M  V30 2072 O 203.973 -3.92581 -0.851073 0
M  V30 2073 N 202.179 -2.90597 0.0131186 0
M  V30 2074 H 201.726 -2.45359 0.784639 0
M  V30 2075 H 201.684 -3.028 -0.846133 0
M  V30 2076 N 205.456 -1.28612 -0.910864 0
M  V30 2077 C 206.684 -1.18792 -1.69399 0
M  V30 2078 C 207.099 0.253039 -1.87097 0
M  V30 2079 O 206.456 1.17071 -1.40003 0
M  V30 2080 C 206.507 -1.88511 -3.08457 0
M  V30 2081 O 206.228 -3.26979 -2.91576 0
M  V30 2082 C 207.729 -1.85029 -4.02839 0
M  V30 2083 H 204.949 -0.412233 -0.529438 0
M  V30 2084 H 207.493 -1.69788 -1.13984 0
M  V30 2085 H 205.648 -1.41379 -3.60681 0
M  V30 2086 H 206.062 -3.61936 -3.79608 0
M  V30 2087 H 207.536 -2.38395 -4.97867 0
M  V30 2088 H 208.013 -0.823303 -4.31414 0
M  V30 2089 H 208.619 -2.31853 -3.56545 0
M  V30 2090 N 206.934 1.1197 -1.10907 0
M  V30 2091 C 207.897 2.16031 -0.765707 0
M  V30 2092 C 208.897 1.59393 0.212235 0
M  V30 2093 O 210.087 1.74196 -0.0115441 0
M  V30 2094 C 207.219 3.40632 -0.135053 0
M  V30 2095 H 208.412 2.47919 -1.68748 0
M  V30 2096 H 205.965 1.27061 -0.910226 0
M  V30 2097 H 206.7 3.14348 0.797218 0
M  V30 2098 H 206.485 3.8302 -0.838937 0
M  V30 2099 H 207.975 4.17505 0.0892469 0
M  V30 2100 N 208.412 0.89855 1.29475 0
M  V30 2101 C 209.375 0.380272 2.26023 0
M  V30 2102 C 210.375 -0.484891 1.53315 0
M  V30 2103 O 211.565 -0.290108 1.71767 0
M  V30 2104 C 208.697 -0.45651 3.3783 0
M  V30 2105 H 209.89 1.23295 2.73383 0
M  V30 2106 H 207.443 0.676589 1.40897 0
M  V30 2107 H 208.178 -1.32922 2.95808 0
M  V30 2108 H 207.963 0.163393 3.91759 0
M  V30 2109 H 209.453 -0.810466 4.0966 0
M  V30 2110 N 209.89 -1.43072 0.660911 0
M  V30 2111 C 210.853 -2.29194 -0.0166406 0
M  V30 2112 C 211.853 -1.42609 -0.742912 0
M  V30 2113 O 213.043 -1.64155 -0.583004 0
M  V30 2114 C 210.175 -3.24831 -1.0343 0
M  V30 2115 H 211.368 -2.90596 0.741208 0
M  V30 2116 H 208.921 -1.5048 0.422532 0
M  V30 2117 H 209.656 -2.68339 -1.82111 0
M  V30 2118 H 209.441 -3.88676 -0.517082 0
M  V30 2119 H 210.931 -3.89451 -1.50723 0
M  V30 2120 N 211.368 -0.403325 -1.52352 0
M  V30 2121 C 212.598 0.17376 -2.05868 0
M  V30 2122 C 213.006 1.39898 -1.27378 0
M  V30 2123 O 212.349 1.80939 -0.31729 0
M  V30 2124 C 212.411 0.594756 -3.54546 0
M  V30 2125 C 212.075 -0.518926 -4.54044 0
M  V30 2126 C 213.072 -1.3807 -5.01231 0
M  V30 2127 C 210.757 -0.689961 -4.97539 0
M  V30 2128 C 212.751 -2.39852 -5.90551 0
M  V30 2129 C 210.438 -1.71109 -5.86656 0
M  V30 2130 C 211.436 -2.56378 -6.33056 0
M  V30 2131 O 211.124 -3.56743 -7.20409 0
M  V30 2132 H 210.856 0.0264951 -0.675481 0
M  V30 2133 H 213.41 -0.571179 -1.97299 0
M  V30 2134 H 211.64 1.39189 -3.60782 0
M  V30 2135 H 213.329 1.0991 -3.90736 0
M  V30 2136 H 214.095 -1.25994 -4.68349 0
M  V30 2137 H 209.974 -0.035939 -4.60986 0
M  V30 2138 H 213.518 -3.06441 -6.26689 0
M  V30 2139 H 209.415 -1.83218 -6.18952 0
M  V30 2140 H 210.183 -3.52918 -7.38506 0
M  V30 2141 N 212.846 1.57033 -0.133567 0
M  V30 2142 C 213.778 2.13176 0.841944 0
M  V30 2143 C 214.791 1.07794 1.22001 0
M  V30 2144 O 215.98 1.35117 1.16643 0
M  V30 2145 C 213.08 2.62847 2.13926 0
M  V30 2146 C 212.253 3.92486 1.93064 0
M  V30 2147 C 211.312 4.27605 3.0666 0
M  V30 2148 O 210.338 4.96168 2.78937 0
M  V30 2149 N 211.54 3.861 4.33483 0
M  V30 2150 H 214.305 2.97503 0.362192 0
M  V30 2151 H 211.866 1.61821 0.05042 0
M  V30 2152 H 213.858 2.83363 2.88942 0
M  V30 2153 H 212.428 1.83319 2.53205 0
M  V30 2154 H 211.648 3.80732 1.02159 0
M  V30 2155 H 212.936 4.77225 1.76447 0
M  V30 2156 H 212.334 3.30828 4.58878 0
M  V30 2157 H 210.891 4.11694 5.05323 0
M  V30 2158 N 214.325 -0.140222 1.56975 0
M  V30 2159 C 215.235 -1.19223 2.02047 0
M  V30 2160 C 216.251 -1.46612 0.937062 0
M  V30 2161 O 217.427 -1.58148 1.24704 0
M  V30 2162 C 214.492 -2.50414 2.39778 0
M  V30 2163 C 213.553 -2.30612 3.621 0
M  V30 2164 C 212.786 -3.55547 3.98023 0
M  V30 2165 O 213.009 -4.62004 3.34528 0
M  V30 2166 O 211.943 -3.47808 4.91237 0
M  V30 2167 H 215.769 -0.839559 2.91865 0
M  V30 2168 H 213.354 -0.349453 1.45256 0
M  V30 2169 H 215.236 -3.27747 2.64877 0
M  V30 2170 H 213.911 -2.85198 1.53114 0
M  V30 2171 H 212.818 -1.51207 3.4218 0
M  V30 2172 H 214.151 -2.00741 4.49404 0
M  V30 2173 N 215.803 -1.52179 -0.40978 0
M  V30 2174 C 216.733 -1.78435 -1.5061 0
M  V30 2175 C 217.714 -0.635295 -1.57791 0
M  V30 2176 O 218.899 -0.880823 -1.73076 0
M  V30 2177 C 216.029 -1.93444 -2.88439 0
M  V30 2178 C 214.983 -3.09038 -2.96108 0
M  V30 2179 C 214.309 -3.09268 -4.36185 0
M  V30 2180 C 215.609 -4.48508 -2.67652 0
M  V30 2181 H 217.303 -2.70237 -1.28889 0
M  V30 2182 H 214.849 -1.30036 -0.618605 0
M  V30 2183 H 216.802 -2.10394 -3.65119 0
M  V30 2184 H 215.526 -0.983129 -3.11452 0
M  V30 2185 H 214.185 -2.91837 -2.21872 0
M  V30 2186 H 213.833 -2.11861 -4.56206 0
M  V30 2187 H 213.533 -3.86907 -4.42241 0
M  V30 2188 H 215.057 -3.28348 -5.14801 0
M  V30 2189 H 216.471 -4.65918 -3.34056 0
M  V30 2190 H 214.868 -5.28059 -2.85085 0
M  V30 2191 H 215.938 -4.56649 -1.63095 0
M  V30 2192 N 217.281 0.66697 -1.42791 0
M  V30 2193 C 218.692 1.2478 -1.38877 0
M  V30 2194 C 219.043 1.96012 -0.0859426 0
M  V30 2195 O 218.168 2.00463 0.815081 0
M  V30 2196 C 218.763 2.26938 -2.51564 0
M  V30 2197 C 217.322 2.80529 -2.50959 0
M  V30 2198 C 216.469 1.54965 -2.29959 0
M  V30 2199 H 219.42 0.459853 -1.51892 0
M  V30 2200 H 219.441 3.08834 -2.22265 0
M  V30 2201 H 218.953 1.75065 -3.46372 0
M  V30 2202 H 217.054 3.36502 -1.59991 0
M  V30 2203 H 217.167 3.29012 -3.48265 0
M  V30 2204 H 215.531 1.81817 -1.78366 0
M  V30 2205 H 216.314 1.05047 -3.26833 0
M  V30 2206 N 218.759 1.29093 0.90403 0
M  V30 2207 C 219.669 1.15727 2.0407 0
M  V30 2208 C 220.685 0.0815308 1.73809 0
M  V30 2209 O 221.861 0.292749 1.99261 0
M  V30 2210 C 218.926 0.830424 3.36608 0
M  V30 2211 C 217.987 1.98955 3.80415 0
M  V30 2212 C 217.22 1.6782 5.06628 0
M  V30 2213 O 217.443 0.597105 5.67266 0
M  V30 2214 O 216.377 2.52486 5.46383 0
M  V30 2215 H 220.203 2.11171 2.18267 0
M  V30 2216 H 217.788 1.08504 1.027 0
M  V30 2217 H 219.67 0.662521 4.16159 0
M  V30 2218 H 218.345 -0.0942678 3.23563 0
M  V30 2219 H 217.252 2.21267 3.01648 0
M  V30 2220 H 218.585 2.89529 3.98037 0
M  V30 2221 N 220.237 -1.11381 1.11499 0
M  V30 2222 C 221.648 -1.6465 0.880191 0
M  V30 2223 C 221.999 -1.87199 -0.587434 0
M  V30 2224 O 221.124 -1.60667 -1.44966 0
M  V30 2225 C 221.719 -2.99105 1.59128 0
M  V30 2226 C 220.278 -3.49279 1.40289 0
M  V30 2227 C 219.425 -2.24077 1.63354 0
M  V30 2228 H 222.376 -0.950123 1.27116 0
M  V30 2229 H 222.397 -3.66107 1.03664 0
M  V30 2230 H 221.909 -2.82661 2.65941 0
M  V30 2231 H 220.01 -3.70887 0.356888 0
M  V30 2232 H 220.123 -4.2803 2.15238 0
M  V30 2233 H 218.487 -2.31733 1.05698 0
M  V30 2234 H 219.27 -2.10175 2.71443 0
M  V30 2235 N 221.715 -0.905404 -1.28997 0
M  V30 2236 C 222.645 -0.404212 -2.29975 0
M  V30 2237 C 223.626 0.523784 -1.61835 0
M  V30 2238 O 224.811 0.433298 -1.89304 0
M  V30 2239 C 221.941 0.364042 -3.45387 0
M  V30 2240 C 220.895 -0.474048 -4.25367 0
M  V30 2241 C 220.221 0.422045 -5.33032 0
M  V30 2242 C 221.521 -1.72696 -4.92923 0
M  V30 2243 H 223.215 -1.24807 -2.72146 0
M  V30 2244 H 220.761 -0.601585 -1.30832 0
M  V30 2245 H 222.714 0.725447 -4.15109 0
M  V30 2246 H 221.438 1.24174 -3.02074 0
M  V30 2247 H 220.097 -0.81786 -3.57361 0
M  V30 2248 H 219.745 1.29804 -4.85963 0
M  V30 2249 H 219.445 -0.135057 -5.87445 0
M  V30 2250 H 220.969 0.779517 -6.05604 0
M  V30 2251 H 222.383 -1.43495 -5.55051 0
M  V30 2252 H 220.78 -2.22582 -5.57295 0
M  V30 2253 H 221.85 -2.45964 -4.17887 0
M  V30 2254 N 223.193 1.4272 -0.668489 0
M  V30 2255 C 224.609 1.55992 -0.33745 0
M  V30 2256 C 224.809 1.64933 1.15756 0
M  V30 2257 O 223.865 1.61278 1.94282 0
M  V30 2258 C 225.178 2.81314 -1.06222 0
M  V30 2259 C 226.726 2.95078 -1.04394 0
M  V30 2260 C 227.201 4.23252 -1.74991 0
M  V30 2261 N 228.692 4.3015 -1.71829 0
M  V30 2262 C 229.427 5.28127 -2.23315 0
M  V30 2263 N 228.923 6.32293 -2.83156 0
M  V30 2264 N 230.716 5.19882 -2.13726 0
M  V30 2265 H 222.867 1.3516 -1.63846 0
M  V30 2266 H 225.13 0.650174 -0.689912 0
M  V30 2267 H 224.836 2.80823 -2.11734 0
M  V30 2268 H 224.71 3.72012 -0.62344 0
M  V30 2269 H 227.097 2.951 0.0028244 0
M  V30 2270 H 227.178 2.05627 -1.52155 0
M  V30 2271 H 226.822 4.2399 -2.79633 0
M  V30 2272 H 226.752 5.11626 -1.24685 0
M  V30 2273 H 229.243 3.55499 -1.28175 0
M  V30 2274 H 229.556 7.03398 -3.20079 0
M  V30 2275 H 227.901 6.32873 -2.87223 0
M  V30 2276 H 231.092 4.37423 -1.66669 0
M  V30 2277 H 231.265 5.96077 -2.54158 0
M  V30 2278 N 224.671 0.411399 1.52136 0
M  V30 2279 C 225.581 -0.419774 2.30814 0
M  V30 2280 C 226.597 -1.0515 1.38634 0
M  V30 2281 O 227.773 -1.05252 1.71709 0
M  V30 2282 C 224.838 -1.52019 3.11594 0
M  V30 2283 C 223.899 -0.91129 4.19516 0
M  V30 2284 C 223.132 -1.95927 4.96436 0
M  V30 2285 O 223.355 -3.17775 4.73683 0
M  V30 2286 O 222.289 -1.56423 5.81219 0
M  V30 2287 H 226.115 0.221805 3.02889 0
M  V30 2288 H 223.7 0.174547 1.48377 0
M  V30 2289 H 225.582 -2.15898 3.61892 0
M  V30 2290 H 224.257 -2.14633 2.42311 0
M  V30 2291 H 223.164 -0.235157 3.7336 0
M  V30 2292 H 224.497 -0.32904 4.91099 0
M  V30 2293 N 226.149 -1.5696 0.141893 0
M  V30 2294 C 227.079 -2.19516 -0.795936 0
M  V30 2295 C 228.06 -1.14187 -1.26077 0
M  V30 2296 O 229.245 -1.42511 -1.31925 0
M  V30 2297 C 226.375 -2.81272 -2.03723 0
M  V30 2298 C 225.329 -3.92384 -1.70936 0
M  V30 2299 C 224.655 -4.41052 -3.02287 0
M  V30 2300 C 225.955 -5.13403 -0.959954 0
M  V30 2301 H 227.649 -2.98138 -0.274596 0
M  V30 2302 H 225.195 -1.43406 -0.130636 0
M  V30 2303 H 227.148 -3.237 -2.69808 0
M  V30 2304 H 225.872 -1.99973 -2.58221 0
M  V30 2305 H 224.531 -3.50566 -1.07232 0
M  V30 2306 H 224.179 -3.56582 -3.54765 0
M  V30 2307 H 223.879 -5.15993 -2.81114 0
M  V30 2308 H 225.403 -4.86146 -3.69451 0
M  V30 2309 H 226.817 -5.52706 -1.52279 0
M  V30 2310 H 225.214 -5.94073 -0.848357 0
M  V30 2311 H 226.284 -4.84875 0.0492434 0
M  V30 2312 N 227.627 0.131896 -1.57047 0
M  V30 2313 C 228.59 1.14638 -1.98471 0
M  V30 2314 C 229.59 1.35029 -0.873148 0
M  V30 2315 O 230.78 1.31764 -1.13946 0
M  V30 2316 C 227.912 2.50358 -2.31373 0
M  V30 2317 H 229.105 0.79064 -2.8929 0
M  V30 2318 H 226.658 0.375761 -1.51716 0
M  V30 2319 H 227.393 2.90876 -1.43393 0
M  V30 2320 H 227.178 2.36915 -3.12432 0
M  V30 2321 H 228.668 3.23395 -2.64207 0
M  V30 2322 N 229.106 1.52395 0.401703 0
M  V30 2323 C 230.383 1.57387 1.16141 0
M  V30 2324 C 230.763 0.359359 2.08019 0
M  V30 2325 O 230.111 -0.65326 2.18963 0
M  V30 2326 C 230.321 2.90631 1.93221 0
M  V30 2327 C 231.669 3.43904 2.49028 0
M  V30 2328 O 232.693 2.92421 2.03393 0
M  V30 2329 O 231.552 4.33823 3.32356 0
M  V30 2330 H 228.646 0.634262 0.530698 0
M  V30 2331 H 231.192 1.64725 0.407883 0
M  V30 2332 H 229.964 3.70473 1.25958 0
M  V30 2333 H 229.587 2.8662 2.75563 0
M  V30 2334 N 230.584 -0.659388 1.43143 0
M  V30 2335 C 231.531 -1.77249 1.47822 0
M  V30 2336 C 232.501 -1.62818 0.328558 0
M  V30 2337 O 233.686 -1.83151 0.534838 0
M  V30 2338 C 230.826 -3.15371 1.40126 0
M  V30 2339 C 229.939 -3.4098 2.65249 0
M  V30 2340 C 229.074 -4.68915 2.49584 0
M  V30 2341 C 228.113 -4.87608 3.70006 0
M  V30 2342 N 227.25 -6.06796 3.53189 0
M  V30 2343 H 232.09 -1.72584 2.42938 0
M  V30 2344 H 229.627 -0.842297 1.20598 0
M  V30 2345 H 231.585 -3.9521 1.33659 0
M  V30 2346 H 230.215 -3.19121 0.485964 0
M  V30 2347 H 229.267 -2.55282 2.8202 0
M  V30 2348 H 230.579 -3.50681 3.54717 0
M  V30 2349 H 229.733 -5.56871 2.4079 0
M  V30 2350 H 228.472 -4.61524 1.5763 0
M  V30 2351 H 227.477 -3.9809 3.79215 0
M  V30 2352 H 228.702 -4.96834 4.62961 0
M  V30 2353 H 226.648 -6.00549 2.63965 0
M  V30 2354 H 226.565 -6.17428 4.36255 0
M  V30 2355 H 227.833 -6.9739 3.48236 0
M  V30 2356 N 232.062 -1.29571 -0.897171 0
M  V30 2357 C 232.992 -1.17473 -2.01798 0
M  V30 2358 C 233.973 -0.068323 -1.69963 0
M  V30 2359 O 235.158 -0.248239 -1.92607 0
M  V30 2360 C 232.288 -0.853099 -3.36659 0
M  V30 2361 C 231.242 -1.9161 -3.82713 0
M  V30 2362 C 230.568 -1.44773 -5.14728 0
M  V30 2363 C 231.868 -3.32535 -4.02763 0
M  V30 2364 H 233.562 -2.11237 -2.12177 0
M  V30 2365 H 231.108 -1.01699 -1.01948 0
M  V30 2366 H 233.061 -0.755165 -4.14578 0
M  V30 2367 H 231.785 0.120236 -3.26379 0
M  V30 2368 H 230.444 -2.00346 -3.07013 0
M  V30 2369 H 230.092 -0.462995 -5.00865 0
M  V30 2370 H 229.792 -2.15865 -5.46513 0
M  V30 2371 H 231.316 -1.36334 -5.95185 0
M  V30 2372 H 232.73 -3.26626 -4.71156 0
M  V30 2373 H 231.127 -4.01607 -4.45905 0
M  V30 2374 H 232.197 -3.75326 -3.07016 0
M  V30 2375 N 233.54 1.10788 -1.12088 0
M  V30 2376 C 234.786 1.8313 -0.885148 0
M  V30 2377 C 235.141 1.8336 0.582839 0
M  V30 2378 O 234.434 1.28062 1.42516 0
M  V30 2379 C 234.628 3.29294 -1.38926 0
M  V30 2380 C 234.457 3.43302 -2.90472 0
M  V30 2381 C 233.227 3.55928 -3.58669 0
M  V30 2382 C 235.425 3.37014 -3.88492 0
M  V30 2383 N 233.407 3.58475 -4.98366 0
M  V30 2384 C 234.778 3.46263 -5.14298 0
M  V30 2385 C 236.833 3.20589 -3.80955 0
M  V30 2386 C 235.536 3.4078 -6.33452 0
M  V30 2387 C 237.562 3.16427 -4.99628 0
M  V30 2388 C 236.924 3.26253 -6.2429 0
M  V30 2389 H 233.023 0.685054 -0.377128 0
M  V30 2390 H 235.607 1.3251 -1.4265 0
M  V30 2391 H 233.778 3.78416 -0.874999 0
M  V30 2392 H 235.51 3.89578 -1.09596 0
M  V30 2393 H 232.265 3.58779 -3.09151 0
M  V30 2394 H 232.689 3.6337 -5.71219 0
M  V30 2395 H 237.331 3.11873 -2.85474 0
M  V30 2396 H 235.049 3.48263 -7.29204 0
M  V30 2397 H 238.635 3.04874 -4.95523 0
M  V30 2398 H 237.515 3.2303 -7.14578 0
M  V30 2399 N 235.018 0.912232 1.28515 0
M  V30 2400 C 235.981 0.404223 2.25607 0
M  V30 2401 C 236.981 -0.468602 1.53821 0
M  V30 2402 O 238.171 -0.271873 1.72065 0
M  V30 2403 C 235.303 -0.420653 3.38295 0
M  V30 2404 H 236.496 1.26188 2.7206 0
M  V30 2405 H 234.049 0.691495 1.40171 0
M  V30 2406 H 234.784 -1.29777 2.97201 0
M  V30 2407 H 234.569 0.204935 3.91564 0
M  V30 2408 H 236.059 -0.766971 4.10496 0
M  V30 2409 N 236.496 -1.42363 0.676048 0
M  V30 2410 C 237.742 -2.0182 0.199125 0
M  V30 2411 C 238.075 -1.53339 -1.19168 0
M  V30 2412 O 237.35 -0.736124 -1.80032 0
M  V30 2413 C 237.633 -3.59331 0.235144 0
M  V30 2414 C 237.486 -4.17989 1.66149 0
M  V30 2415 C 238.805 -4.3813 -0.41595 0
M  V30 2416 H 235.924 -0.733293 0.0738311 0
M  V30 2417 H 238.566 -1.69368 0.86107 0
M  V30 2418 H 236.716 -3.87109 -0.328487 0
M  V30 2419 H 238.388 -4.0116 2.27747 0
M  V30 2420 H 236.631 -3.7377 2.20178 0
M  V30 2421 H 237.302 -5.27126 1.63837 0
M  V30 2422 H 239.778 -4.16051 0.0638529 0
M  V30 2423 H 238.654 -5.47717 -0.360115 0
M  V30 2424 H 238.915 -4.16101 -1.49373 0
M  V30 2425 N 237.974 -0.419461 -1.51915 0
M  V30 2426 C 238.924 0.418496 -2.24126 0
M  V30 2427 C 239.908 1.00495 -1.25656 0
M  V30 2428 O 241.1 0.926058 -1.50842 0
M  V30 2429 C 238.229 1.52899 -3.07371 0
M  V30 2430 C 237.315 0.952797 -4.13258 0
M  V30 2431 N 237.706 0.104175 -5.05693 0
M  V30 2432 C 236.004 1.22224 -4.28926 0
M  V30 2433 C 236.705 -0.21752 -5.81293 0
M  V30 2434 N 235.681 0.394293 -5.42168 0
M  V30 2435 H 239.483 -0.236048 -2.92951 0
M  V30 2436 H 236.997 -0.230481 -1.60756 0
M  V30 2437 H 238.994 2.14199 -3.57665 0
M  V30 2438 H 237.654 2.18605 -2.40088 0
M  V30 2439 H 238.665 -0.260924 -5.17242 0
M  V30 2440 H 235.342 1.87812 -3.72871 0
M  V30 2441 H 236.732 -0.906992 -6.6575 0
M  V30 2442 N 239.452 1.56882 -0.150215 0
M  V30 2443 C 240.677 2.01027 0.510184 0
M  V30 2444 C 241.102 1.02966 1.57415 0
M  V30 2445 O 240.46 0.00590158 1.81299 0
M  V30 2446 C 240.508 3.43899 1.08472 0
M  V30 2447 O 239.612 3.4885 2.19948 0
M  V30 2448 H 238.953 0.652233 0.124451 0
M  V30 2449 H 241.483 2.03093 -0.247894 0
M  V30 2450 H 241.493 3.82766 1.41259 0
M  V30 2451 H 240.168 4.14776 0.305582 0
M  V30 2452 H 238.745 3.21827 1.88366 0
M  V30 2453 N 240.93 -0.123565 1.57115 0
M  V30 2454 C 241.878 -1.17082 2.00984 0
M  V30 2455 C 242.872 -1.43136 0.906009 0
M  V30 2456 O 244.078 -1.43152 1.09121 0
M  V30 2457 H 240.453 -0.394653 0.64012 0
M  V30 2458 H 242.424 -0.774292 2.88179 0
M  V30 2459 C 241.173 -2.49057 2.42623 0
M  V30 2460 H 240.496 -2.29846 3.27125 0
M  V30 2461 H 241.936 -3.20906 2.7712 0
M  V30 2462 C 240.395 -3.11305 1.28805 0
M  V30 2463 O 240.925 -3.97171 0.60153 0
M  V30 2464 N 239.131 -2.71111 1.04628 0
M  V30 2465 H 238.678 -2.01382 1.60634 0
M  V30 2466 H 238.636 -3.1309 0.286685 0
M  V30 2467 N 242.408 -1.52605 -0.393616 0
M  V30 2468 C 243.318 -1.79971 -1.50492 0
M  V30 2469 C 244.334 -0.686181 -1.59899 0
M  V30 2470 O 245.51 -0.973274 -1.76322 0
M  V30 2471 C 242.575 -1.95867 -2.86072 0
M  V30 2472 C 241.636 -3.19781 -2.86424 0
M  V30 2473 C 240.869 -3.34909 -4.15538 0
M  V30 2474 O 241.092 -2.54948 -5.10253 0
M  V30 2475 O 240.026 -4.28141 -4.23059 0
M  V30 2476 H 243.852 -2.74328 -1.30299 0
M  V30 2477 H 241.437 -1.3764 -0.581005 0
M  V30 2478 H 243.319 -2.08056 -3.66457 0
M  V30 2479 H 241.994 -1.04699 -3.063 0
M  V30 2480 H 240.901 -3.13038 -2.04837 0
M  V30 2481 H 242.234 -4.1078 -2.71147 0
M  V30 2482 N 243.887 0.651787 -1.4349 0
M  V30 2483 C 245.117 1.43728 -1.48411 0
M  V30 2484 C 245.525 1.8893 -0.10103 0
M  V30 2485 O 244.868 1.60182 0.899307 0
M  V30 2486 C 244.93 2.70411 -2.36893 0
M  V30 2487 C 244.594 2.4714 -3.8441 0
M  V30 2488 C 245.591 2.10271 -4.75481 0
M  V30 2489 C 243.276 2.6142 -4.28912 0
M  V30 2490 C 245.27 1.87982 -6.0905 0
M  V30 2491 C 242.957 2.38746 -5.62533 0
M  V30 2492 C 243.955 2.02083 -6.5242 0
M  V30 2493 O 243.643 1.79647 -7.8357 0
M  V30 2494 H 243.375 0.447962 -0.506267 0
M  V30 2495 H 245.929 0.80624 -1.88915 0
M  V30 2496 H 244.159 3.36079 -1.91278 0
M  V30 2497 H 245.848 3.32364 -2.33 0
M  V30 2498 H 246.614 1.98814 -4.42378 0
M  V30 2499 H 242.493 2.88931 -3.59222 0
M  V30 2500 H 246.037 1.5929 -6.7917 0
M  V30 2501 H 241.934 2.49806 -5.95203 0
M  V30 2502 H 242.702 1.9406 -7.95162 0
M  V30 2503 N 245.365 1.30045 0.890287 0
M  V30 2504 C 246.642 1.09227 1.62262 0
M  V30 2505 C 247.022 -0.360305 2.08002 0
M  V30 2506 O 246.37 -1.35084 1.84295 0
M  V30 2507 C 246.58 2.08835 2.79623 0
M  V30 2508 C 247.928 2.40266 3.50082 0
M  V30 2509 O 248.952 2.07104 2.89804 0
M  V30 2510 O 247.811 2.96967 4.58773 0
M  V30 2511 H 244.905 0.419132 0.712922 0
M  V30 2512 H 247.451 1.41451 0.937529 0
M  V30 2513 H 246.223 3.06633 2.43089 0
M  V30 2514 H 245.846 1.77397 3.55832 0
M  V30 2515 N 246.843 -1.10192 1.12674 0
M  V30 2516 C 248.073 -1.85713 0.905213 0
M  V30 2517 C 248.481 -1.81056 -0.549108 0
M  V30 2518 O 247.824 -1.19927 -1.39151 0
M  V30 2519 C 247.886 -3.34972 1.30516 0
M  V30 2520 C 247.55 -3.63385 2.77129 0
M  V30 2521 C 248.547 -3.59772 3.75313 0
M  V30 2522 C 246.232 -3.91981 3.14096 0
M  V30 2523 C 248.226 -3.84354 5.08479 0
M  V30 2524 C 245.913 -4.16218 4.47443 0
M  V30 2525 C 246.911 -4.12395 5.44444 0
M  V30 2526 O 246.599 -4.36014 6.75387 0
M  V30 2527 H 246.331 -0.593719 0.323223 0
M  V30 2528 H 248.885 -1.40198 1.50112 0
M  V30 2529 H 247.115 -3.81156 0.652463 0
M  V30 2530 H 248.804 -3.91886 1.05736 0
M  V30 2531 H 249.57 -3.37716 3.48099 0
M  V30 2532 H 245.449 -3.94085 2.39202 0
M  V30 2533 H 248.993 -3.81285 5.84181 0
M  V30 2534 H 244.89 -4.37754 4.74386 0
M  V30 2535 H 245.658 -4.53516 6.8137 0
M  V30 2536 N 248.321 -0.919034 -1.28029 0
M  V30 2537 C 249.284 -0.416182 -2.2539 0
M  V30 2538 C 250.284 0.460438 -1.54067 0
M  V30 2539 O 251.474 0.262744 -1.72207 0
M  V30 2540 C 248.606 0.402707 -3.38513 0
M  V30 2541 H 249.799 -1.27629 -2.71387 0
M  V30 2542 H 247.352 -0.698919 -1.39803 0
M  V30 2543 H 248.087 1.282 -2.97885 0
M  V30 2544 H 247.872 -0.225698 -3.9145 0
M  V30 2545 H 249.362 0.745191 -4.10897 0
M  V30 2546 N 249.799 1.42003 -0.683588 0
M  V30 2547 C 251.024 2.06265 -0.216647 0
M  V30 2548 C 251.449 1.51059 1.12083 0
M  V30 2549 O 250.807 0.632638 1.69904 0
M  V30 2550 C 250.855 3.60191 -0.171759 0
M  V30 2551 O 249.959 4.03396 0.857069 0
M  V30 2552 H 249.3 0.65502 -0.108834 0
M  V30 2553 H 251.83 1.81982 -0.935077 0
M  V30 2554 H 251.84 4.08 0.0014303 0
M  V30 2555 H 250.515 3.99743 -1.14796 0
M  V30 2556 H 249.092 3.67117 0.654208 0
M  V30 2557 N 251.277 0.427512 1.51691 0
M  V30 2558 C 252.207 -0.3796 2.30394 0
M  V30 2559 C 253.188 -1.02982 1.35384 0
M  V30 2560 O 254.373 -1.03534 1.643 0
M  V30 2561 C 251.503 -1.48649 3.1388 0
M  V30 2562 C 250.457 -0.960294 4.17088 0
M  V30 2563 C 249.783 -2.16219 4.89033 0
M  V30 2564 C 251.083 -0.00153679 5.223 0
M  V30 2565 H 252.777 0.277164 2.98114 0
M  V30 2566 H 250.323 0.134739 1.43368 0
M  V30 2567 H 252.276 -2.05826 3.67714 0
M  V30 2568 H 251 -2.1714 2.43962 0
M  V30 2569 H 249.659 -0.410806 3.64291 0
M  V30 2570 H 249.307 -2.83307 4.15628 0
M  V30 2571 H 249.007 -1.81654 5.58816 0
M  V30 2572 H 250.531 -2.73968 5.45687 0
M  V30 2573 H 251.945 -0.482687 5.71264 0
M  V30 2574 H 250.342 0.256199 5.99553 0
M  V30 2575 H 251.412 0.938174 4.75738 0
M  V30 2576 N 252.755 -1.56801 0.158532 0
M  V30 2577 C 253.702 -2.17337 -0.776729 0
M  V30 2578 C 254.672 -1.1096 -1.23601 0
M  V30 2579 O 255.857 -1.39054 -1.30647 0
M  V30 2580 C 252.997 -2.80822 -2.00582 0
M  V30 2581 C 252.11 -4.01624 -1.59129 0
M  V30 2582 C 251.245 -4.53072 -2.77306 0
M  V30 2583 C 250.284 -5.66314 -2.32282 0
M  V30 2584 N 249.421 -6.12329 -3.43508 0
M  V30 2585 H 254.261 -2.96918 -0.253701 0
M  V30 2586 H 251.798 -1.46661 -0.113504 0
M  V30 2587 H 253.756 -3.15779 -2.72652 0
M  V30 2588 H 252.386 -2.03866 -2.50277 0
M  V30 2589 H 251.438 -3.72571 -0.767806 0
M  V30 2590 H 252.75 -4.83633 -1.2207 0
M  V30 2591 H 251.904 -4.90145 -3.57551 0
M  V30 2592 H 250.643 -3.70095 -3.17617 0
M  V30 2593 H 249.648 -5.28806 -1.5048 0
M  V30 2594 H 250.873 -6.51085 -1.93043 0
M  V30 2595 H 248.819 -5.32284 -3.83418 0
M  V30 2596 H 248.736 -6.89293 -3.105 0
M  V30 2597 H 250.004 -6.5405 -4.24075 0
M  V30 2598 N 254.233 0.115231 -1.57178 0
M  V30 2599 C 255.644 0.67197 -1.74188 0
M  V30 2600 C 255.995 1.80125 -0.777777 0
M  V30 2601 O 255.12 2.16346 0.0484376 0
M  V30 2602 C 255.715 1.22573 -3.1585 0
M  V30 2603 C 254.274 1.72872 -3.34353 0
M  V30 2604 C 253.421 0.629972 -2.70049 0
M  V30 2605 H 256.372 -0.110712 -1.58313 0
M  V30 2606 H 256.393 2.09535 -3.17609 0
M  V30 2607 H 255.905 0.403598 -3.85996 0
M  V30 2608 H 254.006 2.5755 -2.69256 0
M  V30 2609 H 254.119 1.83557 -4.42542 0
M  V30 2610 H 252.483 1.0645 -2.31388 0
M  V30 2611 H 253.266 -0.181241 -3.42821 0
M  V30 2612 N 255.711 1.52812 0.385517 0
M  V30 2613 C 256.988 1.5861 1.14465 0
M  V30 2614 C 257.368 0.381402 2.07626 0
M  V30 2615 O 256.716 -0.629999 2.19643 0
M  V30 2616 C 256.926 2.92664 1.90128 0
M  V30 2617 C 258.274 3.46526 2.45367 0
M  V30 2618 O 259.298 2.94562 2.0028 0
M  V30 2619 O 258.157 4.37323 3.27736 0
M  V30 2620 H 255.251 0.639855 0.523941 0
M  V30 2621 H 257.797 1.65149 0.390389 0
M  V30 2622 H 256.569 3.71788 1.22022 0
M  V30 2623 H 256.192 2.89527 2.72507 0
M  V30 2624 N 257.189 -0.644168 1.43834 0
M  V30 2625 C 258.438 -1.39985 1.45214 0
M  V30 2626 C 258.751 -1.95421 0.0835494 0
M  V30 2627 O 259.957 -2.71488 -0.0251748 0
M  V30 2628 C 258.413 -2.53384 2.55587 0
M  V30 2629 C 258.021 -2.04517 3.98594 0
M  V30 2630 C 259.765 -3.30685 2.66172 0
M  V30 2631 C 257.672 -3.1518 5.00416 0
M  V30 2632 H 256.602 -0.526005 0.540218 0
M  V30 2633 H 259.253 -0.694367 1.69855 0
M  V30 2634 H 257.635 -3.26446 2.24163 0
M  V30 2635 H 258.809 -1.38405 4.39523 0
M  V30 2636 H 257.124 -1.40068 3.92135 0
M  V30 2637 H 259.721 -4.13158 3.39418 0
M  V30 2638 H 260.064 -3.79312 1.71546 0
M  V30 2639 H 260.597 -2.64708 2.96942 0
M  V30 2640 H 257.336 -2.71511 5.96625 0
M  V30 2641 H 256.856 -3.79974 4.64091 0
M  V30 2642 H 258.535 -3.80166 5.23529 0
M  V30 2643 N 258.668 -1.30515 -0.883378 0
M  V30 2644 C 259.945 -1.10086 -1.6168 0
M  V30 2645 C 260.325 0.349269 -2.08191 0
M  V30 2646 O 259.673 1.34105 -1.85008 0
M  V30 2647 C 259.883 -2.10315 -2.78511 0
M  V30 2648 C 261.231 -2.42119 -3.48803 0
M  V30 2649 O 262.255 -2.08638 -2.88702 0
M  V30 2650 O 261.114 -2.99396 -4.57192 0
M  V30 2651 H 258.208 -0.422907 -0.710689 0
M  V30 2652 H 260.754 -1.41947 -0.930015 0
M  V30 2653 H 259.526 -3.07917 -2.41459 0
M  V30 2654 H 259.149 -1.79282 -3.54886 0
M  V30 2655 N 260.146 1.09593 -1.13257 0
M  V30 2656 C 261.557 1.63229 -0.906274 0
M  V30 2657 C 261.908 1.8811 0.557578 0
M  V30 2658 O 261.033 1.62953 1.42391 0
M  V30 2659 C 261.628 2.96535 -1.63867 0
M  V30 2660 C 260.187 3.47003 -1.45828 0
M  V30 2661 C 259.334 2.2145 -1.66898 0
M  V30 2662 H 262.285 0.92978 -1.28611 0
M  V30 2663 H 262.306 3.64411 -1.09476 0
M  V30 2664 H 261.818 2.78394 -2.70404 0
M  V30 2665 H 259.919 3.70272 -0.415848 0
M  V30 2666 H 260.032 4.24551 -2.2202 0
M  V30 2667 H 258.396 2.30022 -1.09371 0
M  V30 2668 H 259.179 2.0583 -2.74752 0
M  V30 2669 N 261.624 0.925811 1.2754 0
M  V30 2670 C 262.587 0.428129 2.25166 0
M  V30 2671 C 263.587 -0.452261 1.54309 0
M  V30 2672 O 264.777 -0.253608 1.72344 0
M  V30 2673 C 261.909 -0.384749 3.38722 0
M  V30 2674 H 263.102 1.29066 2.70706 0
M  V30 2675 H 260.655 0.706323 1.3943 0
M  V30 2676 H 261.39 -1.26618 2.98561 0
M  V30 2677 H 261.175 0.246454 3.91325 0
M  V30 2678 H 262.665 -0.723389 4.11287 0
M  V30 2679 N 263.102 -1.41638 0.69111 0
M  V30 2680 C 264.049 -2.30789 0.0229705 0
M  V30 2681 C 265.019 -1.46863 -0.775911 0
M  V30 2682 O 266.204 -1.75661 -0.74485 0
M  V30 2683 C 263.344 -3.32868 -0.910666 0
M  V30 2684 C 262.457 -4.31875 -0.103874 0
M  V30 2685 C 261.592 -5.21024 -1.03475 0
M  V30 2686 C 260.631 -6.11702 -0.220598 0
M  V30 2687 N 259.768 -6.93349 -1.10504 0
M  V30 2688 H 264.608 -2.87366 0.788978 0
M  V30 2689 H 262.145 -1.41535 0.400794 0
M  V30 2690 H 264.103 -3.90596 -1.46597 0
M  V30 2691 H 262.733 -2.77851 -1.64312 0
M  V30 2692 H 261.785 -3.76131 0.568285 0
M  V30 2693 H 263.097 -4.96003 0.527504 0
M  V30 2694 H 262.251 -5.83565 -1.65943 0
M  V30 2695 H 260.99 -4.57112 -1.69999 0
M  V30 2696 H 259.995 -5.48215 0.417187 0
M  V30 2697 H 261.22 -6.77668 0.440784 0
M  V30 2698 H 259.166 -6.3205 -1.75638 0
M  V30 2699 H 259.083 -7.54146 -0.529125 0
M  V30 2700 H 260.351 -7.60362 -1.71667 0
M  V30 2701 N 264.58 -0.43555 -1.51462 0
M  V30 2702 C 265.51 0.367376 -2.30592 0
M  V30 2703 C 266.491 1.02263 -1.35928 0
M  V30 2704 O 267.676 1.02661 -1.64847 0
M  V30 2705 C 264.806 1.46983 -3.14664 0
M  V30 2706 C 263.76 0.938161 -4.17591 0
M  V30 2707 C 263.086 2.13622 -4.90173 0
M  V30 2708 C 264.386 -0.0261621 -5.22293 0
M  V30 2709 H 266.08 -0.292969 -2.97963 0
M  V30 2710 H 263.626 -0.14234 -1.43295 0
M  V30 2711 H 265.579 2.03873 -3.688 0
M  V30 2712 H 264.303 2.15843 -2.4511 0
M  V30 2713 H 262.962 0.391481 -3.64504 0
M  V30 2714 H 262.61 2.81098 -4.17124 0
M  V30 2715 H 262.31 1.78688 -5.59772 0
M  V30 2716 H 263.834 2.7107 -5.47132 0
M  V30 2717 H 265.248 0.452384 -5.71512 0
M  V30 2718 H 263.645 -0.287992 -5.99409 0
M  V30 2719 H 264.715 -0.963391 -4.75233 0
M  V30 2720 N 266.058 1.56714 -0.166846 0
M  V30 2721 C 266.968 2.21331 0.777791 0
M  V30 2722 C 267.984 1.20358 1.25658 0
M  V30 2723 O 269.16 1.53005 1.30964 0
M  V30 2724 C 266.225 2.83787 1.99163 0
M  V30 2725 C 265.286 3.99947 1.56016 0
M  V30 2726 C 264.519 4.59415 2.71613 0
M  V30 2727 O 264.742 4.17769 3.88362 0
M  V30 2728 O 263.676 5.49359 2.45945 0
M  V30 2729 H 267.502 3.02605 0.257636 0
M  V30 2730 H 265.087 1.49275 0.0611393 0
M  V30 2731 H 266.969 3.23405 2.70161 0
M  V30 2732 H 265.644 2.05513 2.50092 0
M  V30 2733 H 264.551 3.65007 0.819809 0
M  V30 2734 H 265.884 4.79801 1.09782 0
M  V30 2735 N 267.536 -0.106894 1.57237 0
M  V30 2736 C 268.952 -0.46078 1.52804 0
M  V30 2737 C 269.152 -1.81184 0.881746 0
M  V30 2738 O 268.208 -2.48102 0.469224 0
M  V30 2739 C 269.521 -0.434127 2.9755 0
M  V30 2740 C 271.069 -0.516821 3.08704 0
M  V30 2741 C 271.544 -0.520436 4.55033 0
M  V30 2742 N 273.035 -0.58153 4.59535 0
M  V30 2743 C 273.77 -0.605973 5.70189 0
M  V30 2744 N 273.266 -0.587331 6.90306 0
M  V30 2745 N 275.059 -0.649895 5.5833 0
M  V30 2746 H 267.21 0.778203 1.9763 0
M  V30 2747 H 269.473 0.288403 0.903066 0
M  V30 2748 H 269.179 0.491197 3.48253 0
M  V30 2749 H 269.053 -1.25748 3.55622 0
M  V30 2750 H 271.44 -1.43256 2.57995 0
M  V30 2751 H 271.521 0.334449 2.53604 0
M  V30 2752 H 271.165 0.391313 5.0639 0
M  V30 2753 H 271.095 -1.38876 5.07958 0
M  V30 2754 H 273.586 -0.60161 3.73081 0
M  V30 2755 H 273.899 -0.60894 7.70397 0
M  V30 2756 H 272.244 -0.554564 6.92784 0
M  V30 2757 H 275.435 -0.661907 4.63397 0
M  V30 2758 H 275.608 -0.665476 6.44574 0
M  V30 2759 N 269.014 -1.53014 -0.377408 0
M  V30 2760 C 269.964 -1.74996 -1.46152 0
M  V30 2761 C 270.948 -0.604236 -1.49123 0
M  V30 2762 O 272.14 -0.862489 -1.54564 0
M  V30 2763 C 269.269 -1.93267 -2.8373 0
M  V30 2764 C 268.355 -3.13807 -2.85283 0
M  V30 2765 N 268.746 -4.35941 -2.56493 0
M  V30 2766 C 267.044 -3.14288 -3.16448 0
M  V30 2767 C 267.745 -5.17615 -2.65424 0
M  V30 2768 N 266.721 -4.53559 -2.99641 0
M  V30 2769 H 270.523 -2.67044 -1.22738 0
M  V30 2770 H 268.037 -1.51479 -0.585479 0
M  V30 2771 H 270.034 -2.0714 -3.61799 0
M  V30 2772 H 268.694 -1.0244 -3.08117 0
M  V30 2773 H 269.705 -4.63876 -2.30302 0
M  V30 2774 H 266.382 -2.33312 -3.46225 0
M  V30 2775 H 267.772 -6.25006 -2.46612 0
M  V30 2776 N 270.492 0.636531 -1.44174 0
M  V30 2777 C 271.908 0.954104 -1.27941 0
M  V30 2778 C 272.108 2.0039 -0.211248 0
M  V30 2779 O 271.164 2.49236 0.404695 0
M  V30 2780 C 272.477 1.4225 -2.64925 0
M  V30 2781 C 274.025 1.53827 -2.72592 0
M  V30 2782 C 274.5 2.04053 -4.10032 0
M  V30 2783 N 275.991 2.11331 -4.12182 0
M  V30 2784 C 276.726 2.51352 -5.15374 0
M  V30 2785 N 276.222 2.90549 -6.2893 0
M  V30 2786 N 278.015 2.51438 -5.02728 0
M  V30 2787 H 270.166 -0.0578386 -2.12321 0
M  V30 2788 H 272.429 0.0367406 -0.947288 0
M  V30 2789 H 272.135 0.725466 -3.44136 0
M  V30 2790 H 272.009 2.39451 -2.9145 0
M  V30 2791 H 274.396 2.22628 -1.93702 0
M  V30 2792 H 274.477 0.550154 -2.49814 0
M  V30 2793 H 274.121 1.35848 -4.89395 0
M  V30 2794 H 274.051 3.03726 -4.30184 0
M  V30 2795 H 276.542 1.83745 -3.30222 0
M  V30 2796 H 276.855 3.19884 -7.03487 0
M  V30 2797 H 275.2 2.88313 -6.32377 0
M  V30 2798 H 278.391 2.20203 -4.13072 0
M  V30 2799 H 278.564 2.82304 -5.83274 0
M  V30 2800 N 271.97 1.30982 0.876444 0
M  V30 2801 C 272.917 1.18085 1.98304 0
M  V30 2802 C 273.887 0.0682263 1.6596 0
M  V30 2803 O 275.072 0.239937 1.89285 0
M  V30 2804 C 272.212 0.887475 3.33493 0
M  V30 2805 C 271.325 2.08281 3.78475 0
M  V30 2806 C 270.46 1.72678 5.0235 0
M  V30 2807 C 269.499 2.88657 5.39762 0
M  V30 2808 N 268.636 2.53292 6.54819 0
M  V30 2809 H 273.476 2.1275 2.08666 0
M  V30 2810 H 271.013 1.05839 1.02159 0
M  V30 2811 H 272.971 0.697961 4.1132 0
M  V30 2812 H 271.601 -0.022315 3.22792 0
M  V30 2813 H 270.653 2.3833 2.96484 0
M  V30 2814 H 271.965 2.95108 4.02135 0
M  V30 2815 H 271.119 1.50151 5.87826 0
M  V30 2816 H 269.858 0.830327 4.8058 0
M  V30 2817 H 268.863 3.1184 4.52809 0
M  V30 2818 H 270.088 3.79002 5.63502 0
M  V30 2819 H 268.034 1.66163 6.34607 0
M  V30 2820 H 267.951 3.3365 6.7839 0
M  V30 2821 H 269.219 2.34143 7.43503 0
M  V30 2822 N 273.449 -1.08991 1.13837 0
M  V30 2823 C 274.695 -1.81526 0.90422 0
M  V30 2824 C 275.028 -1.85706 -0.568066 0
M  V30 2825 O 274.303 -1.32855 -1.42056 0
M  V30 2826 C 274.586 -3.27447 1.49835 0
M  V30 2827 C 274.439 -3.31512 3.04006 0
M  V30 2828 C 275.758 -4.24256 1.17025 0
M  V30 2829 H 272.877 -0.659029 0.329923 0
M  V30 2830 H 275.519 -1.27644 1.40737 0
M  V30 2831 H 273.669 -3.73462 1.07044 0
M  V30 2832 H 275.341 -2.93867 3.55584 0
M  V30 2833 H 273.584 -2.70963 3.38765 0
M  V30 2834 H 274.255 -4.34329 3.40679 0
M  V30 2835 H 276.731 -3.86549 1.54009 0
M  V30 2836 H 275.607 -5.24684 1.61237 0
M  V30 2837 H 275.868 -4.42019 0.0846274 0
M  V30 2838 N 274.927 -0.932562 -1.27047 0
M  V30 2839 C 276.174 -0.575559 -1.94148 0
M  V30 2840 C 276.502 0.883984 -1.73251 0
M  V30 2841 O 275.757 1.64655 -1.0577 0
M  V30 2842 C 276.056 -0.853713 -3.47054 0
M  V30 2843 C 275.722 -2.29577 -3.88079 0
M  V30 2844 C 274.384 -2.68999 -3.9899 0
M  V30 2845 C 276.736 -3.23331 -4.08787 0
M  V30 2846 C 274.064 -4.01289 -4.28 0
M  V30 2847 C 276.416 -4.55207 -4.39282 0
M  V30 2848 C 275.08 -4.94457 -4.48407 0
M  V30 2849 H 274.35 -0.210612 -0.710439 0
M  V30 2850 H 276.997 -1.17744 -1.51025 0
M  V30 2851 H 275.302 -0.169204 -3.91434 0
M  V30 2852 H 276.999 -0.55639 -3.97121 0
M  V30 2853 H 273.589 -1.97994 -3.80127 0
M  V30 2854 H 277.773 -2.94074 -3.99793 0
M  V30 2855 H 273.029 -4.31374 -4.33275 0
M  V30 2856 H 277.203 -5.27852 -4.54252 0
M  V30 2857 H 274.83 -5.96994 -4.7064 0
M  V30 2858 N 276.405 1.4127 -0.698611 0
M  V30 2859 C 277.633 2.05503 -0.239992 0
M  V30 2860 C 278.048 1.52584 1.11191 0
M  V30 2861 O 277.405 0.675323 1.69545 0
M  V30 2862 C 277.456 3.60987 -0.192429 0
M  V30 2863 O 277.177 4.1195 -1.49094 0
M  V30 2864 C 278.678 4.42371 0.28681 0
M  V30 2865 H 275.898 0.661748 -0.111045 0
M  V30 2866 H 278.442 1.80987 -0.95205 0
M  V30 2867 H 276.597 3.84533 0.470472 0
M  V30 2868 H 277.011 5.06018 -1.38007 0
M  V30 2869 H 278.485 5.51344 0.26896 0
M  V30 2870 H 278.962 4.18699 1.32619 0
M  V30 2871 H 279.568 4.23897 -0.345201 0
M  V30 2872 N 277.883 0.443576 1.51229 0
M  V30 2873 C 279.108 -0.121648 2.07043 0
M  V30 2874 C 279.533 -1.35156 1.30823 0
M  V30 2875 O 278.891 -1.7793 0.347934 0
M  V30 2876 C 278.939 -0.41624 3.5819 0
M  V30 2877 O 278.043 -1.50163 3.8409 0
M  V30 2878 H 277.384 0.000871367 0.663999 0
M  V30 2879 H 279.914 0.626706 1.94765 0
M  V30 2880 H 279.924 -0.664867 4.02546 0
M  V30 2881 H 278.599 0.482653 4.1309 0
M  V30 2882 H 277.176 -1.24248 3.51592 0
M  V30 2883 N 279.361 -1.56624 0.175154 0
M  V30 2884 C 280.589 -2.01374 -0.474971 0
M  V30 2885 C 281.004 -1.05537 -1.56548 0
M  V30 2886 O 280.361 -0.0568668 -1.82411 0
M  V30 2887 C 280.412 -3.45923 -1.04975 0
M  V30 2888 O 280.133 -4.381 -0.00276605 0
M  V30 2889 C 281.634 -4.06093 -1.77773 0
M  V30 2890 H 278.854 -0.659962 -0.121206 0
M  V30 2891 H 281.398 -2.02601 0.27801 0
M  V30 2892 H 279.553 -3.45458 -1.75321 0
M  V30 2893 H 279.967 -5.22753 -0.427681 0
M  V30 2894 H 281.441 -5.09147 -2.13245 0
M  V30 2895 H 281.918 -3.48405 -2.67414 0
M  V30 2896 H 282.524 -4.10272 -1.12059 0
M  V30 2897 N 280.839 0.0985539 -1.57292 0
M  V30 2898 C 282.085 0.803867 -1.86188 0
M  V30 2899 C 282.418 1.78549 -0.763794 0
M  V30 2900 O 281.693 1.93153 0.22855 0
M  V30 2901 C 281.976 1.53568 -3.25713 0
M  V30 2902 C 281.829 0.572277 -4.46145 0
M  V30 2903 C 283.148 2.48708 -3.63087 0
M  V30 2904 H 280.267 0.290781 -0.677211 0
M  V30 2905 H 282.909 0.0675783 -1.8988 0
M  V30 2906 H 281.059 2.16332 -3.22696 0
M  V30 2907 H 282.731 -0.0480894 -4.61275 0
M  V30 2908 H 280.974 -0.114618 -4.33649 0
M  V30 2909 H 281.645 1.12139 -5.40489 0
M  V30 2910 H 284.121 1.96039 -3.67026 0
M  V30 2911 H 282.997 2.96932 -4.61652 0
M  V30 2912 H 283.258 3.32309 -2.91588 0
M  V30 2913 N 282.317 1.53212 0.369288 0
M  V30 2914 C 283.547 1.72868 1.13139 0
M  V30 2915 C 283.955 0.455754 1.83629 0
M  V30 2916 O 283.298 -0.580861 1.74275 0
M  V30 2917 C 283.36 2.83667 2.20847 0
M  V30 2918 C 283.024 4.24142 1.70155 0
M  V30 2919 C 284.021 5.06619 1.16763 0
M  V30 2920 C 281.706 4.70539 1.7578 0
M  V30 2921 C 283.7 6.33581 0.696678 0
M  V30 2922 C 281.387 5.97481 1.28297 0
M  V30 2923 C 282.385 6.78833 0.753307 0
M  V30 2924 O 282.073 8.03393 0.285475 0
M  V30 2925 H 281.805 0.581707 0.344373 0
M  V30 2926 H 284.359 2.00736 0.435243 0
M  V30 2927 H 282.589 2.51265 2.93944 0
M  V30 2928 H 284.278 2.91536 2.82421 0
M  V30 2929 H 285.044 4.71948 1.11758 0
M  V30 2930 H 280.923 4.07293 2.15949 0
M  V30 2931 H 284.467 6.97027 0.282581 0
M  V30 2932 H 280.364 6.31651 1.32994 0
M  V30 2933 H 281.132 8.17497 0.405145 0
M  V30 2934 N 283.795 -0.628877 1.44509 0
M  V30 2935 C 284.705 -1.7694 1.54044 0
M  V30 2936 C 285.721 -1.68705 0.425987 0
M  V30 2937 O 286.897 -1.89442 0.683656 0
M  V30 2938 C 283.962 -3.13332 1.48405 0
M  V30 2939 C 283.023 -3.33181 2.70719 0
M  V30 2940 C 282.256 -4.63067 2.6534 0
M  V30 2941 O 282.479 -5.44017 1.71469 0
M  V30 2942 O 281.413 -4.85167 3.56226 0
M  V30 2943 H 285.239 -1.71848 2.50403 0
M  V30 2944 H 282.824 -0.790378 1.26781 0
M  V30 2945 H 284.706 -3.94634 1.47791 0
M  V30 2946 H 283.381 -3.1896 0.551898 0
M  V30 2947 H 282.288 -2.51549 2.769 0
M  V30 2948 H 283.621 -3.32416 3.62988 0
M  V30 2949 N 285.273 -1.31445 -0.869486 0
M  V30 2950 C 286.501 -1.24122 -1.65534 0
M  V30 2951 C 286.916 0.193387 -1.87807 0
M  V30 2952 O 286.273 1.12557 -1.43656 0
M  V30 2953 C 286.324 -1.98229 -3.02304 0
M  V30 2954 O 286.045 -3.3609 -2.81026 0
M  V30 2955 C 287.546 -1.97751 -3.96749 0
M  V30 2956 H 284.766 -0.428868 -0.516055 0
M  V30 2957 H 287.31 -1.73328 -1.08525 0
M  V30 2958 H 285.465 -1.52782 -3.56001 0
M  V30 2959 H 285.879 -3.7383 -3.67902 0
M  V30 2960 H 287.353 -2.54114 -4.90031 0
M  V30 2961 H 287.83 -0.960137 -4.28577 0
M  V30 2962 H 288.436 -2.43079 -3.48988 0
M  V30 2963 N 286.751 1.08385 -1.14413 0
M  V30 2964 C 287.661 2.18856 -0.844951 0
M  V30 2965 C 288.677 1.73121 0.174668 0
M  V30 2966 O 289.853 2.014 0.00312857 0
M  V30 2967 C 286.918 3.45155 -0.32696 0
M  V30 2968 C 285.979 4.05513 -1.40916 0
M  V30 2969 C 285.212 5.25784 -0.915793 0
M  V30 2970 O 285.435 5.69884 0.242651 0
M  V30 2971 O 284.369 5.77545 -1.69487 0
M  V30 2972 H 288.195 2.46919 -1.76818 0
M  V30 2973 H 285.78 1.17524 -0.922411 0
M  V30 2974 H 287.662 4.21377 -0.0440211 0
M  V30 2975 H 286.337 3.18668 0.568539 0
M  V30 2976 H 285.244 3.30879 -1.74556 0
M  V30 2977 H 286.577 4.3625 -2.27919 0
M  V30 2978 N 288.23 0.939286 1.26551 0
M  V30 2979 C 289.18 0.418284 2.2413 0
M  V30 2980 C 290.164 -0.483935 1.5345 0
M  V30 2981 O 291.356 -0.319489 1.74093 0
M  V30 2982 C 288.485 -0.31709 3.41832 0
M  V30 2983 C 287.571 0.602311 4.19801 0
M  V30 2984 N 287.962 1.72726 4.75394 0
M  V30 2985 C 286.26 0.407534 4.44134 0
M  V30 2986 C 286.961 2.30004 5.34297 0
M  V30 2987 N 285.937 1.58828 5.1988 0
M  V30 2988 H 289.739 1.27705 2.64705 0
M  V30 2989 H 287.253 0.794929 1.41614 0
M  V30 2990 H 289.25 -0.707364 4.10855 0
M  V30 2991 H 287.91 -1.17264 3.02786 0
M  V30 2992 H 288.921 2.10944 4.72994 0
M  V30 2993 H 285.598 -0.406406 4.15517 0
M  V30 2994 H 286.988 3.24778 5.88191 0
M  V30 2995 N 289.708 -1.40897 0.706093 0
M  V30 2996 C 291.119 -1.84023 0.315052 0
M  V30 2997 C 291.47 -1.5906 -1.14866 0
M  V30 2998 O 290.595 -1.06651 -1.88293 0
M  V30 2999 C 291.19 -3.34055 0.565038 0
M  V30 3000 C 289.749 -3.7571 0.227806 0
M  V30 3001 C 288.896 -2.64204 0.842122 0
M  V30 3002 H 291.847 -1.303 0.905963 0
M  V30 3003 H 291.868 -3.80107 -0.172843 0
M  V30 3004 H 291.38 -3.52192 1.63042 0
M  V30 3005 H 289.481 -3.63172 -0.832895 0
M  V30 3006 H 289.594 -4.74103 0.690174 0
M  V30 3007 H 287.958 -2.53255 0.270893 0
M  V30 3008 H 288.741 -2.85155 1.91158 0
M  V30 3009 N 291.186 -0.45159 -1.50991 0
M  V30 3010 C 292.432 0.110237 -2.025 0
M  V30 3011 C 292.765 1.41109 -1.33424 0
M  V30 3012 O 292.04 1.89135 -0.453659 0
M  V30 3013 C 292.323 0.314271 -3.58726 0
M  V30 3014 C 292.176 -1.00623 -4.38401 0
M  V30 3015 C 293.495 1.07767 -4.26702 0
M  V30 3016 H 290.614 0.0385897 -0.735989 0
M  V30 3017 H 293.256 -0.593374 -1.80497 0
M  V30 3018 H 291.406 0.913601 -3.77605 0
M  V30 3019 H 293.078 -1.64064 -4.31139 0
M  V30 3020 H 291.321 -1.6075 -4.02917 0
M  V30 3021 H 291.992 -0.817341 -5.45915 0
M  V30 3022 H 294.468 0.56986 -4.12179 0
M  V30 3023 H 293.344 1.18921 -5.35863 0
M  V30 3024 H 293.605 2.10939 -3.88532 0
M  V30 3025 N 292.664 1.56529 -0.183458 0
M  V30 3026 C 293.91 1.97537 0.459036 0
M  V30 3027 C 294.243 1.06989 1.62071 0
M  V30 3028 O 293.518 0.11948 1.94133 0
M  V30 3029 C 293.801 3.47874 0.930368 0
M  V30 3030 C 293.654 4.492 -0.232317 0
M  V30 3031 C 294.973 4.01612 1.79989 0
M  V30 3032 H 292.092 0.718204 0.165383 0
M  V30 3033 H 294.734 1.88042 -0.272038 0
M  V30 3034 H 292.884 3.56095 1.55333 0
M  V30 3035 H 294.556 4.53027 -0.86972 0
M  V30 3036 H 292.799 4.24657 -0.885928 0
M  V30 3037 H 293.47 5.51823 0.139796 0
M  V30 3038 H 295.946 3.96097 1.27461 0
M  V30 3039 H 294.822 5.07195 2.09867 0
M  V30 3040 H 295.083 3.46163 2.74998 0
M  V30 3041 N 294.142 -0.090211 1.57342 0
M  V30 3042 C 295.558 -0.444547 1.53284 0
M  V30 3043 C 295.758 -1.80238 0.900914 0
M  V30 3044 O 294.814 -2.4759 0.495513 0
M  V30 3045 C 296.127 -0.402543 2.97993 0
M  V30 3046 C 297.675 -0.48405 3.09234 0
M  V30 3047 C 298.15 -0.472144 4.5556 0
M  V30 3048 N 299.641 -0.532757 4.60126 0
M  V30 3049 C 300.376 -0.545462 5.708 0
M  V30 3050 N 299.872 -0.514082 6.9089 0
M  V30 3051 N 301.665 -0.59064 5.58988 0
M  V30 3052 H 293.816 0.799121 1.96794 0
M  V30 3053 H 296.079 0.297965 0.899956 0
M  V30 3054 H 295.785 0.528106 3.47712 0
M  V30 3055 H 295.659 -1.21969 3.56936 0
M  V30 3056 H 298.046 -1.40512 2.595 0
M  V30 3057 H 298.127 0.361328 2.53235 0
M  V30 3058 H 297.771 0.445 5.05947 0
M  V30 3059 H 297.701 -1.3348 5.09402 0
M  V30 3060 H 300.192 -0.562006 3.73698 0
M  V30 3061 H 300.505 -0.527195 7.71 0
M  V30 3062 H 298.85 -0.481054 6.93333 0
M  V30 3063 H 302.041 -0.61272 4.64073 0
M  V30 3064 H 302.214 -0.597073 6.45243 0
M  V30 3065 N 295.62 -1.53406 -0.361157 0
M  V30 3066 C 296.866 -1.70054 -1.10496 0
M  V30 3067 C 297.199 -0.453278 -1.88836 0
M  V30 3068 O 296.474 0.5495 -1.86576 0
M  V30 3069 C 296.757 -2.95317 -2.06058 0
M  V30 3070 C 296.61 -4.3021 -1.31298 0
M  V30 3071 C 297.929 -3.16193 -3.06121 0
M  V30 3072 H 295.048 -0.618799 -0.400321 0
M  V30 3073 H 297.69 -1.86052 -0.385318 0
M  V30 3074 H 295.84 -2.81809 -2.67425 0
M  V30 3075 H 297.512 -4.55538 -0.726807 0
M  V30 3076 H 295.755 -4.29421 -0.614853 0
M  V30 3077 H 296.426 -5.14 -2.01265 0
M  V30 3078 H 298.902 -3.28916 -2.5486 0
M  V30 3079 H 297.778 -4.05266 -3.70204 0
M  V30 3080 H 298.039 -2.31676 -3.76535 0
M  V30 3081 N 297.098 0.621204 -1.44841 0
M  V30 3082 C 298.048 1.72663 -1.48901 0
M  V30 3083 C 299.032 1.56964 -0.353702 0
M  V30 3084 O 300.224 1.66532 -0.599669 0
M  V30 3085 C 297.353 3.11381 -1.44557 0
M  V30 3086 C 296.439 3.32514 -2.6324 0
M  V30 3087 N 296.83 3.23969 -3.8843 0
M  V30 3088 C 295.128 3.63343 -2.58647 0
M  V30 3089 C 295.829 3.46062 -4.67564 0
M  V30 3090 N 294.805 3.69407 -3.98797 0
M  V30 3091 H 298.607 1.64529 -2.43531 0
M  V30 3092 H 296.121 0.82401 -1.39942 0
M  V30 3093 H 298.118 3.90667 -1.4555 0
M  V30 3094 H 296.778 3.20674 -0.509731 0
M  V30 3095 H 297.789 3.02669 -4.20252 0
M  V30 3096 H 294.466 3.79556 -1.73906 0
M  V30 3097 H 295.856 3.44963 -5.76585 0
M  V30 3098 N 298.576 1.31904 0.862503 0
M  V30 3099 C 299.987 1.19803 1.43193 0
M  V30 3100 C 300.338 -0.192567 1.95253 0
M  V30 3101 O 299.463 -1.09081 1.86896 0
M  V30 3102 C 300.058 2.16883 2.60283 0
M  V30 3103 C 298.617 2.08692 3.13248 0
M  V30 3104 C 297.764 2.05691 1.85975 0
M  V30 3105 H 300.715 1.43846 0.670365 0
M  V30 3106 H 300.736 1.76278 3.37204 0
M  V30 3107 H 300.248 3.18083 2.22363 0
M  V30 3108 H 298.349 1.10713 3.55771 0
M  V30 3109 H 298.462 2.9815 3.75025 0
M  V30 3110 H 296.826 1.50814 2.05249 0
M  V30 3111 H 297.609 3.08659 1.50282 0
M  V30 3112 N 300.054 -1.07777 1.14986 0
M  V30 3113 C 301.303 -1.79669 0.916617 0
M  V30 3114 C 301.616 -1.87474 -0.557917 0
M  V30 3115 O 302.822 -2.55845 -0.908617 0
M  V30 3116 C 301.278 -3.22848 1.59051 0
M  V30 3117 C 300.886 -3.23257 3.10176 0
M  V30 3118 C 302.63 -3.99379 1.43864 0
M  V30 3119 C 300.537 -4.61063 3.70372 0
M  V30 3120 H 299.467 -0.673349 0.33929 0
M  V30 3121 H 302.118 -1.21003 1.37951 0
M  V30 3122 H 300.5 -3.8168 1.0553 0
M  V30 3123 H 301.674 -2.74095 3.70417 0
M  V30 3124 H 299.989 -2.60222 3.25074 0
M  V30 3125 H 302.586 -5.0122 1.86232 0
M  V30 3126 H 302.929 -4.14511 0.385564 0
M  V30 3127 H 303.462 -3.47032 1.94457 0
M  V30 3128 H 300.201 -4.51135 4.7556 0
M  V30 3129 H 299.721 -5.1048 3.14913 0
M  V30 3130 H 301.4 -5.30034 3.71043 0
M  V30 3131 N 301.532 -0.945985 -1.26051 0
M  V30 3132 C 302.757 -0.612525 -1.98149 0
M  V30 3133 C 303.182 0.806623 -1.69927 0
M  V30 3134 O 302.54 1.54411 -0.950108 0
M  V30 3135 C 302.588 -0.866981 -3.50023 0
M  V30 3136 O 301.692 0.0585333 -4.12358 0
M  V30 3137 H 301.033 -0.23379 -0.621481 0
M  V30 3138 H 303.563 -1.27023 -1.60395 0
M  V30 3139 H 303.573 -0.789792 -4.00283 0
M  V30 3140 H 302.248 -1.90135 -3.69894 0
M  V30 3141 H 300.825 -0.0701241 -3.72834 0
M  V30 3142 N 303.011 1.40521 -0.713556 0
M  V30 3143 C 304.259 2.00527 -0.251692 0
M  V30 3144 C 304.58 1.56857 1.15848 0
M  V30 3145 O 303.85 0.807127 1.785 0
M  V30 3146 H 302.43 0.741551 -0.0900646 0
M  V30 3147 H 305.092 1.71887 -0.918733 0
M  V30 3148 H 304.188 3.10813 -0.283192 0
M  V30 3149 N 304.489 0.459591 1.5075 0
M  V30 3150 C 305.399 -0.34613 2.32033 0
M  V30 3151 C 306.415 -1.00686 1.41909 0
M  V30 3152 O 307.591 -0.997361 1.7497 0
M  V30 3153 C 304.656 -1.42029 3.16273 0
M  V30 3154 C 303.717 -0.777362 4.22203 0
M  V30 3155 C 302.95 -1.80034 5.02418 0
M  V30 3156 O 303.173 -3.02544 4.83553 0
M  V30 3157 O 302.107 -1.37853 5.85901 0
M  V30 3158 H 305.933 0.318054 3.0203 0
M  V30 3159 H 303.518 0.221663 1.47746 0
M  V30 3160 H 305.4 -2.04275 3.68578 0
M  V30 3161 H 304.075 -2.06815 2.49016 0
M  V30 3162 H 302.982 -0.116256 3.73919 0
M  V30 3163 H 304.315 -0.172634 4.91897 0
M  V30 3164 N 305.967 -1.56429 0.191757 0
M  V30 3165 C 307.383 -1.58754 -0.164137 0
M  V30 3166 C 307.583 -1.20782 -1.61288 0
M  V30 3167 O 306.639 -0.928999 -2.34789 0
M  V30 3168 C 307.952 -3.00396 0.135195 0
M  V30 3169 C 309.5 -3.1291 0.0750351 0
M  V30 3170 C 309.975 -4.56679 0.347632 0
M  V30 3171 N 311.466 -4.62252 0.296131 0
M  V30 3172 C 312.201 -5.71379 0.480948 0
M  V30 3173 N 311.697 -6.88986 0.725933 0
M  V30 3174 N 313.49 -5.60563 0.415435 0
M  V30 3175 H 305.641 -1.79393 1.13718 0
M  V30 3176 H 307.904 -0.832414 0.453643 0
M  V30 3177 H 307.61 -3.32726 1.13958 0
M  V30 3178 H 307.484 -3.72963 -0.563773 0
M  V30 3179 H 309.871 -2.80394 -0.919948 0
M  V30 3180 H 309.952 -2.42736 0.807029 0
M  V30 3181 H 309.596 -4.89907 1.33992 0
M  V30 3182 H 309.526 -5.25039 -0.405212 0
M  V30 3183 H 312.017 -3.7773 0.113259 0
M  V30 3184 H 312.33 -7.68046 0.855857 0
M  V30 3185 H 310.675 -6.90801 0.762788 0
M  V30 3186 H 313.866 -4.67561 0.224486 0
M  V30 3187 H 314.039 -6.45551 0.562889 0
M  V30 3188 N 307.445 0.0818655 -1.57387 0
M  V30 3189 C 308.408 1.08265 -2.02018 0
M  V30 3190 C 309.408 1.32183 -0.915664 0
M  V30 3191 O 310.598 1.28073 -1.18081 0
M  V30 3192 C 307.73 2.42871 -2.39221 0
M  V30 3193 H 308.923 0.698204 -2.91659 0
M  V30 3194 H 306.476 0.327303 -1.52835 0
M  V30 3195 H 307.211 2.86167 -1.52575 0
M  V30 3196 H 306.996 2.26855 -3.19811 0
M  V30 3197 H 308.486 3.14826 -2.74362 0
M  V30 3198 N 308.923 1.53595 0.353017 0
M  V30 3199 C 309.853 1.83902 1.43883 0
M  V30 3200 C 310.834 0.693421 1.55324 0
M  V30 3201 O 312.019 0.944452 1.69687 0
M  V30 3202 C 309.149 2.04016 2.8106 0
M  V30 3203 C 308.103 3.19814 2.84434 0
M  V30 3204 C 307.429 3.25244 4.24406 0
M  V30 3205 C 308.729 4.58133 2.50822 0
M  V30 3206 H 310.423 2.74835 1.1877 0
M  V30 3207 H 307.969 1.32242 0.569917 0
M  V30 3208 H 309.922 2.238 3.57059 0
M  V30 3209 H 308.646 1.09804 3.07588 0
M  V30 3210 H 307.305 2.9987 2.10887 0
M  V30 3211 H 306.953 2.28646 4.48029 0
M  V30 3212 H 306.653 4.03054 4.27576 0
M  V30 3213 H 308.177 3.47228 5.0226 0
M  V30 3214 H 309.591 4.77995 3.16534 0
M  V30 3215 H 307.988 5.38276 2.6529 0
M  V30 3216 H 309.058 4.62387 1.46034 0
M  V30 3217 N 310.401 -0.613514 1.45168 0
M  V30 3218 C 311.333 -1.73825 1.4939 0
M  V30 3219 C 312.346 -1.58175 0.385304 0
M  V30 3220 O 313.535 -1.66165 0.652036 0
M  V30 3221 C 310.635 -3.11758 1.32891 0
M  V30 3222 C 309.808 -3.53704 2.57317 0
M  V30 3223 C 308.867 -4.70579 2.35462 0
M  V30 3224 O 307.893 -4.77996 3.09044 0
M  V30 3225 N 309.095 -5.63454 1.39644 0
M  V30 3226 H 311.86 -1.70669 2.46358 0
M  V30 3227 H 309.421 -0.79862 1.40832 0
M  V30 3228 H 311.413 -3.87692 1.1609 0
M  V30 3229 H 309.983 -3.09456 0.442218 0
M  V30 3230 H 309.203 -2.67794 2.89275 0
M  V30 3231 H 310.491 -3.78486 3.40038 0
M  V30 3232 H 309.889 -5.6017 0.789062 0
M  V30 3233 H 308.446 -6.38944 1.28816 0
M  V30 3234 N 311.879 -1.3236 -0.855495 0
M  V30 3235 C 312.809 -1.23833 -1.97958 0
M  V30 3236 C 313.79 -0.122361 -1.69659 0
M  V30 3237 O 314.975 -0.30939 -1.9172 0
M  V30 3238 C 312.105 -0.959772 -3.33775 0
M  V30 3239 C 311.059 -2.03689 -3.76424 0
M  V30 3240 C 310.385 -1.61075 -5.09862 0
M  V30 3241 C 311.685 -3.4518 -3.9198 0
M  V30 3242 H 313.379 -2.1788 -2.0535 0
M  V30 3243 H 310.925 -1.04891 -0.986605 0
M  V30 3244 H 312.878 -0.886678 -4.11966 0
M  V30 3245 H 311.602 0.0163404 -3.26596 0
M  V30 3246 H 310.261 -2.10012 -3.00484 0
M  V30 3247 H 309.909 -0.622107 -4.99138 0
M  V30 3248 H 309.609 -2.33143 -5.39368 0
M  V30 3249 H 311.133 -1.55201 -5.90546 0
M  V30 3250 H 312.547 -3.4145 -4.60526 0
M  V30 3251 H 310.944 -4.1559 -4.32903 0
M  V30 3252 H 312.014 -3.84903 -2.94919 0
M  V30 3253 N 313.357 1.07166 -1.15556 0
M  V30 3254 C 314.605 1.79443 -0.929764 0
M  V30 3255 C 314.926 1.87246 0.544414 0
M  V30 3256 O 314.196 1.37473 1.39564 0
M  V30 3257 H 312.776 0.664625 -0.341003 0
M  V30 3258 H 315.438 1.29499 -1.45657 0
M  V30 3259 H 314.534 2.81832 -1.34079 0
M  V30 3260 N 314.835 0.952656 1.25548 0
M  V30 3261 C 315.785 0.442033 2.23674 0
M  V30 3262 C 316.769 -0.467632 1.53955 0
M  V30 3263 O 317.961 -0.301006 1.74422 0
M  V30 3264 C 315.09 -0.280816 3.4215 0
M  V30 3265 C 314.176 0.646803 4.19139 0
M  V30 3266 N 314.567 1.77759 4.73535 0
M  V30 3267 C 312.865 0.454617 4.43677 0
M  V30 3268 C 313.566 2.35658 5.31827 0
M  V30 3269 N 312.542 1.64333 5.18166 0
M  V30 3270 H 316.344 1.30505 2.63336 0
M  V30 3271 H 313.858 0.809904 1.40763 0
M  V30 3272 H 315.855 -0.663747 4.11582 0
M  V30 3273 H 314.515 -1.14046 3.04012 0
M  V30 3274 H 315.526 2.15949 4.7073 0
M  V30 3275 H 312.203 -0.362312 4.15925 0
M  V30 3276 H 313.593 3.30998 5.84713 0
M  V30 3277 N 316.313 -1.40141 0.720998 0
M  V30 3278 C 317.56 -2.00787 0.262842 0
M  V30 3279 C 317.888 -1.5718 -1.14563 0
M  V30 3280 O 317.143 -0.785391 -1.79249 0
M  V30 3281 C 317.442 -3.56165 0.296892 0
M  V30 3282 C 317.108 -4.19373 1.65641 0
M  V30 3283 C 315.77 -4.36352 2.02855 0
M  V30 3284 C 318.122 -4.54578 2.54968 0
M  V30 3285 C 315.45 -4.8582 3.28931 0
M  V30 3286 C 317.802 -5.05447 3.80402 0
M  V30 3287 C 316.466 -5.20635 4.17726 0
M  V30 3288 H 315.736 -0.734731 0.0961807 0
M  V30 3289 H 318.383 -1.67673 0.925093 0
M  V30 3290 H 316.688 -3.8922 -0.448932 0
M  V30 3291 H 318.385 -4.00929 -0.0755208 0
M  V30 3292 H 314.975 -4.06549 1.35704 0
M  V30 3293 H 319.159 -4.41091 2.27491 0
M  V30 3294 H 314.415 -4.95764 3.57811 0
M  V30 3295 H 318.589 -5.31663 4.49786 0
M  V30 3296 H 316.216 -5.58728 5.15487 0
M  V30 3297 N 317.792 -0.46758 -1.50504 0
M  V30 3298 C 319.038 0.0887532 -2.02606 0
M  V30 3299 C 319.371 1.39686 -1.34913 0
M  V30 3300 O 318.646 1.88644 -0.473694 0
M  V30 3301 C 318.929 0.276206 -3.59039 0
M  V30 3302 C 318.782 -1.05267 -4.37309 0
M  V30 3303 C 320.101 1.03235 -4.27821 0
M  V30 3304 H 317.22 0.0307814 -0.736357 0
M  V30 3305 H 319.862 -0.612485 -1.79857 0
M  V30 3306 H 318.012 0.8735 -3.78553 0
M  V30 3307 H 319.684 -1.68628 -4.29374 0
M  V30 3308 H 317.927 -1.65015 -4.01189 0
M  V30 3309 H 318.598 -0.875197 -5.45018 0
M  V30 3310 H 321.074 0.526111 -4.12761 0
M  V30 3311 H 319.95 1.1323 -5.37094 0
M  V30 3312 H 320.211 2.06806 -3.90748 0
M  V30 3313 N 319.27 1.56325 -0.20005 0
M  V30 3314 C 320.217 2.1932 0.718833 0
M  V30 3315 C 321.187 1.14198 1.20615 0
M  V30 3316 O 322.372 1.42469 1.26914 0
M  V30 3317 C 319.512 2.86041 1.93066 0
M  V30 3318 C 318.625 4.05702 1.48425 0
M  V30 3319 C 317.76 4.60266 2.65196 0
M  V30 3320 C 316.799 5.72273 2.17185 0
M  V30 3321 N 315.936 6.21221 3.27152 0
M  V30 3322 H 320.776 2.97486 0.17489 0
M  V30 3323 H 318.313 1.46911 0.0745794 0
M  V30 3324 H 320.271 3.22897 2.64184 0
M  V30 3325 H 318.901 2.1043 2.44783 0
M  V30 3326 H 317.953 3.74475 0.668755 0
M  V30 3327 H 319.265 4.86699 1.09204 0
M  V30 3328 H 318.419 4.99453 3.4443 0
M  V30 3329 H 317.158 3.78386 3.07693 0
M  V30 3330 H 316.163 5.3261 1.36407 0
M  V30 3331 H 317.388 6.55974 1.75713 0
M  V30 3332 H 315.334 5.42263 3.69171 0
M  V30 3333 H 315.251 6.97284 2.92116 0
M  V30 3334 H 316.519 6.65063 4.06585 0
M  V30 3335 N 320.748 -0.0735177 1.57428 0
M  V30 3336 C 322.164 -0.428264 1.53747 0
M  V30 3337 C 322.364 -1.79272 0.91998 0
M  V30 3338 O 321.42 -2.47051 0.521745 0
M  V30 3339 C 322.733 -0.370914 2.98404 0
M  V30 3340 C 324.281 -0.451224 3.0973 0
M  V30 3341 C 324.756 -0.4238 4.56035 0
M  V30 3342 N 326.247 -0.483925 4.60665 0
M  V30 3343 C 326.982 -0.484891 5.71346 0
M  V30 3344 N 326.478 -0.440775 6.91396 0
M  V30 3345 N 328.271 -0.531319 5.59583 0
M  V30 3346 H 320.422 0.819949 1.95935 0
M  V30 3347 H 322.685 0.307493 0.896745 0
M  V30 3348 H 322.391 0.564956 3.47133 0
M  V30 3349 H 322.265 -1.18176 3.5821 0
M  V30 3350 H 324.652 -1.37752 2.60976 0
M  V30 3351 H 324.733 0.388167 2.52838 0
M  V30 3352 H 324.377 0.498638 5.05446 0
M  V30 3353 H 324.307 -1.2807 5.10789 0
M  V30 3354 H 326.798 -0.522338 3.74273 0
M  V30 3355 H 327.111 -0.44539 7.71515 0
M  V30 3356 H 325.456 -0.40749 6.93804 0
M  V30 3357 H 328.647 -0.563464 4.64696 0
M  V30 3358 H 328.82 -0.528603 6.4584 0
M  V30 3359 N 322.226 -1.5378 -0.344866 0
M  V30 3360 C 323.475 -1.7018 -1.08267 0
M  V30 3361 C 323.788 -0.471 -1.89845 0
M  V30 3362 O 324.994 -0.515917 -2.66553 0
M  V30 3363 C 323.45 -3.00923 -1.97417 0
M  V30 3364 C 323.058 -4.31335 -1.21053 0
M  V30 3365 C 324.802 -3.26688 -2.71063 0
M  V30 3366 C 322.709 -5.53153 -2.09225 0
M  V30 3367 H 321.639 -0.634138 -0.407903 0
M  V30 3368 H 324.29 -1.8028 -0.342246 0
M  V30 3369 H 322.672 -2.84676 -2.75274 0
M  V30 3370 H 323.846 -4.58281 -0.481159 0
M  V30 3371 H 322.161 -4.12173 -0.591813 0
M  V30 3372 H 324.758 -4.1489 -3.37299 0
M  V30 3373 H 325.101 -2.43639 -3.37558 0
M  V30 3374 H 325.634 -3.43705 -2.0028 0
M  V30 3375 H 322.373 -6.38741 -1.47274 0
M  V30 3376 H 321.893 -5.30458 -2.79955 0
M  V30 3377 H 323.572 -5.88744 -2.68308 0
M  V30 3378 N 323.704 0.605807 -1.45491 0
M  V30 3379 C 324.651 1.7164 -1.54299 0
M  V30 3380 C 325.621 1.61486 -0.388761 0
M  V30 3381 O 326.806 1.81039 -0.602445 0
M  V30 3382 C 323.946 3.09953 -1.51734 0
M  V30 3383 C 323.059 3.309 -2.77721 0
M  V30 3384 C 322.194 4.59329 -2.66816 0
M  V30 3385 C 321.233 4.7354 -3.87848 0
M  V30 3386 N 320.37 5.9327 -3.75467 0
M  V30 3387 H 325.21 1.63449 -2.49176 0
M  V30 3388 H 322.747 0.796957 -1.23641 0
M  V30 3389 H 324.705 3.89977 -1.48235 0
M  V30 3390 H 323.335 3.17098 -0.604068 0
M  V30 3391 H 322.387 2.44639 -2.913 0
M  V30 3392 H 323.699 3.37274 -3.67488 0
M  V30 3393 H 322.853 5.4755 -2.61292 0
M  V30 3394 H 321.592 4.55355 -1.74651 0
M  V30 3395 H 320.597 3.83741 -3.93729 0
M  V30 3396 H 321.822 4.79309 -4.81082 0
M  V30 3397 H 319.768 5.90338 -2.86072 0
M  V30 3398 H 319.685 6.00811 -4.5887 0
M  V30 3399 H 320.953 6.83984 -3.73879 0
M  V30 3400 N 325.182 1.32811 0.848464 0
M  V30 3401 C 326.43 1.23479 1.59991 0
M  V30 3402 C 326.751 -0.201853 1.93952 0
M  V30 3403 O 326.021 -1.12818 1.60153 0
M  V30 3404 H 324.601 0.454034 0.593179 0
M  V30 3405 H 327.263 1.66412 1.01455 0
M  V30 3406 H 326.359 1.82178 2.53412 0
M  V30 3407 N 326.66 -1.06551 1.16123 0
M  V30 3408 C 327.89 -1.8274 0.963838 0
M  V30 3409 C 328.298 -1.82712 -0.491228 0
M  V30 3410 O 327.641 -1.24294 -1.35265 0
M  V30 3411 C 327.703 -3.3065 1.41106 0
M  V30 3412 C 327.367 -3.54384 2.88549 0
M  V30 3413 C 328.364 -3.4765 3.86569 0
M  V30 3414 C 326.049 -3.81789 3.26408 0
M  V30 3415 C 328.043 -3.67982 5.2045 0
M  V30 3416 C 325.73 -4.01772 4.60459 0
M  V30 3417 C 326.728 -3.94866 5.57288 0
M  V30 3418 O 326.416 -4.14306 6.88916 0
M  V30 3419 H 326.148 -0.583136 0.341948 0
M  V30 3420 H 328.702 -1.35351 1.54497 0
M  V30 3421 H 326.932 -3.78887 0.773394 0
M  V30 3422 H 328.621 -3.88324 1.1815 0
M  V30 3423 H 329.387 -3.2647 3.58667 0
M  V30 3424 H 325.266 -3.86276 2.51619 0
M  V30 3425 H 328.81 -3.62507 5.96015 0
M  V30 3426 H 324.707 -4.2244 4.88072 0
M  V30 3427 H 325.475 -4.31609 6.95454 0
M  V30 3428 N 328.138 -0.959301 -1.25041 0
M  V30 3429 C 329.363 -0.633507 -1.97488 0
M  V30 3430 C 329.788 0.788555 -1.70773 0
M  V30 3431 O 329.146 1.53394 -0.966431 0
M  V30 3432 C 329.194 -0.904057 -3.49083 0
M  V30 3433 O 328.298 0.0147939 -4.12397 0
M  V30 3434 H 327.639 -0.240368 -0.618966 0
M  V30 3435 H 330.169 -1.28717 -1.59038 0
M  V30 3436 H 330.179 -0.832203 -3.99423 0
M  V30 3437 H 328.854 -1.94048 -3.67856 0
M  V30 3438 H 327.431 -0.109664 -3.72739 0
M  V30 3439 N 329.616 1.39756 -0.72842 0
M  V30 3440 C 330.546 2.33289 -0.0991354 0
M  V30 3441 C 331.527 1.53568 0.731489 0
M  V30 3442 O 332.712 1.81987 0.677807 0
M  V30 3443 C 329.842 3.3763 0.813834 0
M  V30 3444 C 328.796 4.2791 0.0878663 0
M  V30 3445 C 328.122 5.22894 1.11741 0
M  V30 3446 C 329.422 5.11314 -1.06563 0
M  V30 3447 H 331.116 2.86163 -0.880408 0
M  V30 3448 H 328.662 1.37591 -0.424819 0
M  V30 3449 H 330.615 4.0201 1.26355 0
M  V30 3450 H 329.339 2.83181 1.62715 0
M  V30 3451 H 327.998 3.65 -0.342159 0
M  V30 3452 H 327.646 4.64744 1.92412 0
M  V30 3453 H 327.346 5.84143 0.636477 0
M  V30 3454 H 328.87 5.90151 1.56697 0
M  V30 3455 H 330.284 5.69076 -0.694671 0
M  V30 3456 H 328.681 5.81671 -1.47577 0
M  V30 3457 H 329.751 4.46534 -1.89038 0
M  V30 3458 N 331.094 0.475555 1.50254 0
M  V30 3459 C 332.057 -0.305016 2.27161 0
M  V30 3460 C 333.057 -0.916519 1.32123 0
M  V30 3461 O 334.247 -0.785003 1.5551 0
M  V30 3462 C 331.379 -1.43496 3.09227 0
M  V30 3463 H 332.572 0.369511 2.97615 0
M  V30 3464 H 330.125 0.229747 1.54602 0
M  V30 3465 H 330.86 -2.14441 2.43281 0
M  V30 3466 H 330.645 -1.00223 3.79075 0
M  V30 3467 H 332.135 -1.98548 3.67381 0
M  V30 3468 N 332.573 -1.56217 0.208337 0
M  V30 3469 C 333.85 -1.89739 -0.475234 0
M  V30 3470 C 334.23 -1.1238 -1.78701 0
M  V30 3471 O 333.578 -0.228979 -2.2735 0
M  V30 3472 C 333.788 -3.42289 -0.681101 0
M  V30 3473 C 335.136 -4.12789 -0.994507 0
M  V30 3474 O 336.16 -3.47814 -0.768357 0
M  V30 3475 O 335.019 -5.27649 -1.42299 0
M  V30 3476 H 332.113 -0.788478 -0.249461 0
M  V30 3477 H 334.659 -1.67855 0.249538 0
M  V30 3478 H 333.431 -3.90534 0.244722 0
M  V30 3479 H 333.054 -3.69909 -1.45785 0
M  V30 3480 N 334.051 0.0651679 -1.57465 0
M  V30 3481 C 335.276 0.779605 -1.9219 0
M  V30 3482 C 335.701 1.69988 -0.805333 0
M  V30 3483 O 335.059 1.79685 0.241435 0
M  V30 3484 C 335.107 1.54364 -3.2589 0
M  V30 3485 O 334.211 2.65474 -3.1559 0
M  V30 3486 H 333.552 0.212249 -0.629163 0
M  V30 3487 H 336.082 0.0314294 -2.04576 0
M  V30 3488 H 336.092 1.92146 -3.59922 0
M  V30 3489 H 334.767 0.868457 -4.06732 0
M  V30 3490 H 333.344 2.30501 -2.93128 0
M  V30 3491 N 335.529 1.53961 0.336706 0
M  V30 3492 C 336.461 1.78751 1.4346 0
M  V30 3493 C 337.474 0.669019 1.48418 0
M  V30 3494 O 338.663 0.945884 1.51378 0
M  V30 3495 C 335.763 1.87844 2.82078 0
M  V30 3496 C 334.936 3.17854 3.00479 0
M  V30 3497 C 333.995 3.17816 4.19379 0
M  V30 3498 O 333.021 3.91511 4.13168 0
M  V30 3499 N 334.223 2.40669 5.2826 0
M  V30 3500 H 336.988 2.73493 1.22563 0
M  V30 3501 H 334.549 1.53096 0.526625 0
M  V30 3502 H 336.541 1.85261 3.59806 0
M  V30 3503 H 335.111 1.00257 2.96086 0
M  V30 3504 H 334.331 3.33504 2.10163 0
M  V30 3505 H 335.619 4.03718 3.0966 0
M  V30 3506 H 335.017 1.8036 5.36178 0
M  V30 3507 H 333.574 2.43877 6.04456 0
M  V30 3508 N 337.007 -0.598083 1.45811 0
M  V30 3509 C 337.957 -1.70272 1.51629 0
M  V30 3510 C 338.941 -1.56382 0.378629 0
M  V30 3511 O 340.133 -1.65557 0.626087 0
M  V30 3512 C 337.262 -3.09042 1.49493 0
M  V30 3513 C 336.348 -3.28284 2.68496 0
M  V30 3514 N 336.739 -3.17748 3.93535 0
M  V30 3515 C 335.037 -3.59182 2.64394 0
M  V30 3516 C 335.738 -3.38579 4.7301 0
M  V30 3517 N 334.714 -3.63016 4.04624 0
M  V30 3518 H 338.516 -1.60634 2.46118 0
M  V30 3519 H 336.03 -0.801642 1.41235 0
M  V30 3520 H 338.027 -3.88302 1.51747 0
M  V30 3521 H 336.687 -3.19823 0.560683 0
M  V30 3522 H 337.698 -2.95944 4.25014 0
M  V30 3523 H 334.375 -3.76742 1.79922 0
M  V30 3524 H 335.765 -3.35747 5.82 0
M  V30 3525 N 338.485 -1.33259 -0.841409 0
M  V30 3526 C 339.415 -1.25926 -1.96634 0
M  V30 3527 C 340.396 -0.140349 -1.6952 0
M  V30 3528 O 341.581 -0.329707 -1.91381 0
M  V30 3529 C 338.711 -0.99512 -3.32738 0
M  V30 3530 C 337.665 -2.0767 -3.74242 0
M  V30 3531 C 336.991 -1.66474 -5.08125 0
M  V30 3532 C 338.291 -3.49318 -3.88297 0
M  V30 3533 H 339.985 -2.20046 -2.03027 0
M  V30 3534 H 337.531 -1.05931 -0.975425 0
M  V30 3535 H 339.484 -0.930323 -4.11002 0
M  V30 3536 H 338.208 -0.0183004 -3.26595 0
M  V30 3537 H 336.867 -2.13187 -2.98239 0
M  V30 3538 H 336.515 -0.675012 -4.9845 0
M  V30 3539 H 336.215 -2.3885 -5.36865 0
M  V30 3540 H 337.739 -1.61455 -5.88867 0
M  V30 3541 H 339.153 -3.46316 -4.56879 0
M  V30 3542 H 337.55 -4.20158 -4.28471 0
M  V30 3543 H 338.62 -3.8801 -2.9082 0
M  V30 3544 N 339.963 1.05934 -1.16686 0
M  V30 3545 C 341.21 1.788 -0.950622 0
M  V30 3546 C 341.538 1.87384 0.521305 0
M  V30 3547 O 340.793 1.36438 1.40297 0
M  V30 3548 C 341.092 3.23105 -1.52767 0
M  V30 3549 C 340.758 3.34594 -3.02254 0
M  V30 3550 C 339.42 3.37437 -3.43059 0
M  V30 3551 C 341.772 3.36219 -3.98254 0
M  V30 3552 C 339.1 3.39525 -4.78477 0
M  V30 3553 C 341.452 3.39845 -5.33562 0
M  V30 3554 C 340.116 3.40971 -5.73842 0
M  V30 3555 H 339.386 0.654275 -0.347857 0
M  V30 3556 H 342.033 1.24555 -1.45459 0
M  V30 3557 H 340.338 3.80227 -0.94524 0
M  V30 3558 H 342.035 3.7809 -1.336 0
M  V30 3559 H 338.625 3.3309 -2.6972 0
M  V30 3560 H 342.809 3.33231 -3.67792 0
M  V30 3561 H 338.065 3.38703 -5.09009 0
M  V30 3562 H 342.239 3.4005 -6.07733 0
M  V30 3563 H 339.866 3.42342 -6.78753 0
M  V30 3564 N 341.441 0.965919 1.2453 0
M  V30 3565 C 342.404 0.499547 2.2369 0
M  V30 3566 C 343.404 -0.40294 1.5567 0
M  V30 3567 O 344.594 -0.19865 1.73064 0
M  V30 3568 C 341.726 -0.276792 3.39774 0
M  V30 3569 H 342.919 1.37613 2.66463 0
M  V30 3570 H 340.472 0.750324 1.37112 0
M  V30 3571 H 341.207 -1.17055 3.02438 0
M  V30 3572 H 340.992 0.370826 3.90343 0
M  V30 3573 H 342.482 -0.592175 4.1338 0
M  V30 3574 N 342.919 -1.39368 0.735821 0
M  V30 3575 C 344.165 -2.00794 0.284544 0
M  V30 3576 C 344.498 -1.58255 -1.12557 0
M  V30 3577 O 343.773 -0.811819 -1.76748 0
M  V30 3578 C 344.056 -3.58011 0.387337 0
M  V30 3579 C 343.909 -4.10566 1.83728 0
M  V30 3580 C 345.228 -4.395 -0.22975 0
M  V30 3581 H 342.347 -0.729501 0.104866 0
M  V30 3582 H 344.989 -1.65564 0.93213 0
M  V30 3583 H 343.139 -3.88154 -0.164006 0
M  V30 3584 H 344.811 -3.91139 2.44556 0
M  V30 3585 H 343.054 -3.64095 2.35833 0
M  V30 3586 H 343.725 -5.19702 1.86047 0
M  V30 3587 H 346.201 -4.15406 0.240257 0
M  V30 3588 H 345.077 -5.48752 -0.127485 0
M  V30 3589 H 345.338 -4.22062 -1.3159 0
M  V30 3590 N 344.397 -0.483516 -1.5 0
M  V30 3591 C 345.327 0.293829 -2.31644 0
M  V30 3592 C 346.308 0.978864 -1.39112 0
M  V30 3593 O 347.493 0.973644 -1.68029 0
M  V30 3594 C 344.623 1.36897 -3.19181 0
M  V30 3595 C 343.577 0.804833 -4.20365 0
M  V30 3596 C 342.903 1.9792 -4.96721 0
M  V30 3597 C 344.203 -0.192313 -5.21946 0
M  V30 3598 H 345.897 -0.387616 -2.9688 0
M  V30 3599 H 343.443 -0.187856 -1.42769 0
M  V30 3600 H 345.396 1.92037 -3.751 0
M  V30 3601 H 344.12 2.07936 -2.51853 0
M  V30 3602 H 342.779 0.275319 -3.65565 0
M  V30 3603 H 342.427 2.67686 -4.25856 0
M  V30 3604 H 342.127 1.60789 -5.65173 0
M  V30 3605 H 343.651 2.53526 -5.55479 0
M  V30 3606 H 345.065 0.270333 -5.72662 0
M  V30 3607 H 343.462 -0.478543 -5.98189 0
M  V30 3608 H 344.532 -1.11409 -4.71928 0
M  V30 3609 N 345.875 1.56104 -0.216619 0
M  V30 3610 C 346.807 2.17339 0.72776 0
M  V30 3611 C 347.82 1.14109 1.16116 0
M  V30 3612 O 349.009 1.4111 1.09317 0
M  V30 3613 C 346.109 2.73818 1.99693 0
M  V30 3614 C 345.282 4.02168 1.71988 0
M  V30 3615 C 344.341 4.43259 2.83562 0
M  V30 3616 O 343.367 5.10257 2.52244 0
M  V30 3617 N 344.569 4.08535 4.12407 0
M  V30 3618 H 347.334 2.99005 0.203983 0
M  V30 3619 H 344.895 1.61861 -0.0354289 0
M  V30 3620 H 346.887 2.9828 2.73516 0
M  V30 3621 H 345.457 1.96483 2.43132 0
M  V30 3622 H 344.677 3.85612 0.818337 0
M  V30 3623 H 345.965 4.85907 1.50903 0
M  V30 3624 H 345.363 3.54687 4.40696 0
M  V30 3625 H 343.92 4.37901 4.8279 0
M  V30 3626 N 347.353 -0.0568162 1.57498 0
M  V30 3627 C 348.601 -0.751617 1.87604 0
M  V30 3628 C 348.922 -1.77351 0.81066 0
M  V30 3629 O 348.192 -1.95254 -0.159018 0
M  V30 3630 H 346.772 -0.280583 0.692302 0
M  V30 3631 H 349.434 -0.0293483 1.94878 0
M  V30 3632 H 348.53 -1.25852 2.856 0
M  V30 3633 N 348.832 -1.54138 -0.328536 0
M  V30 3634 C 349.782 -1.79557 -1.4051 0
M  V30 3635 C 350.766 -0.651373 -1.47126 0
M  V30 3636 O 351.958 -0.911226 -1.51742 0
M  V30 3637 C 349.087 -2.02196 -2.77438 0
M  V30 3638 C 348.173 -3.22724 -2.75155 0
M  V30 3639 N 348.564 -4.43881 -2.42494 0
M  V30 3640 C 346.862 -3.24196 -3.06289 0
M  V30 3641 C 347.563 -5.25797 -2.48822 0
M  V30 3642 N 346.539 -4.62862 -2.8506 0
M  V30 3643 H 350.341 -2.70814 -1.1418 0
M  V30 3644 H 347.855 -1.53265 -0.536991 0
M  V30 3645 H 349.852 -2.18546 -3.55026 0
M  V30 3646 H 348.512 -1.12191 -3.04702 0
M  V30 3647 H 349.523 -4.70969 -2.15428 0
M  V30 3648 H 346.2 -2.44208 -3.38627 0
M  V30 3649 H 347.59 -6.32535 -2.26603 0
M  V30 3650 N 350.31 0.590341 -1.46126 0
M  V30 3651 C 351.556 1.35082 -1.51264 0
M  V30 3652 C 351.889 1.93534 -0.160711 0
M  V30 3653 O 351.164 1.76045 0.826956 0
M  V30 3654 C 351.447 2.48588 -2.6053 0
M  V30 3655 C 351.3 1.95221 -4.05227 0
M  V30 3656 C 352.619 3.50662 -2.6594 0
M  V30 3657 H 349.738 0.489803 -0.550692 0
M  V30 3658 H 352.38 0.663887 -1.78024 0
M  V30 3659 H 350.53 3.07186 -2.37843 0
M  V30 3660 H 352.202 1.41139 -4.39178 0
M  V30 3661 H 350.445 1.26101 -4.15068 0
M  V30 3662 H 351.116 2.77121 -4.77397 0
M  V30 3663 H 353.592 3.01934 -2.86313 0
M  V30 3664 H 352.468 4.27551 -3.44226 0
M  V30 3665 H 352.729 4.07399 -1.71694 0
M  V30 3666 N 351.788 1.33704 0.83433 0
M  V30 3667 C 353.016 1.28467 1.62185 0
M  V30 3668 C 353.431 -0.143526 1.88254 0
M  V30 3669 O 352.788 -1.08709 1.4659 0
M  V30 3670 C 352.839 2.06174 2.96942 0
M  V30 3671 O 352.56 3.43422 2.72016 0
M  V30 3672 C 354.061 2.08201 3.91366 0
M  V30 3673 H 351.281 0.4424 0.504503 0
M  V30 3674 H 353.825 1.76145 1.03891 0
M  V30 3675 H 351.98 1.62167 3.51825 0
M  V30 3676 H 352.394 3.83453 3.57861 0
M  V30 3677 H 353.868 2.67017 4.83121 0
M  V30 3678 H 354.345 1.07343 4.2588 0
M  V30 3679 H 354.951 2.52246 3.42421 0
M  V30 3680 N 353.266 -1.05314 1.17247 0
M  V30 3681 C 354.682 -1.30452 0.919473 0
M  V30 3682 C 354.882 -1.9703 -0.42209 0
M  V30 3683 O 353.938 -2.24311 -1.15935 0
M  V30 3684 C 355.251 -2.17551 2.07586 0
M  V30 3685 C 356.799 -2.30937 2.11275 0
M  V30 3686 C 357.274 -3.21396 3.26296 0
M  V30 3687 N 358.765 -3.28981 3.26076 0
M  V30 3688 C 359.5 -3.99095 4.11716 0
M  V30 3689 N 358.996 -4.71648 5.07465 0
M  V30 3690 N 360.789 -3.95247 3.9967 0
M  V30 3691 H 352.94 -0.604988 2.03602 0
M  V30 3692 H 355.203 -0.329368 0.888944 0
M  V30 3693 H 354.909 -1.75921 3.0454 0
M  V30 3694 H 354.783 -3.18182 2.02584 0
M  V30 3695 H 357.17 -2.71809 1.14907 0
M  V30 3696 H 357.251 -1.2994 2.20339 0
M  V30 3697 H 356.895 -2.81238 4.22927 0
M  V30 3698 H 356.825 -4.22395 3.14467 0
M  V30 3699 H 359.316 -2.77286 2.5675 0
M  V30 3700 H 359.629 -5.22705 5.6921 0
M  V30 3701 H 357.974 -4.70594 5.11435 0
M  V30 3702 H 361.165 -3.37691 3.24164 0
M  V30 3703 H 361.338 -4.4962 4.66632 0
M  V30 3704 N 354.744 -0.972509 -1.24016 0
M  V30 3705 C 355.674 -0.525548 -2.27509 0
M  V30 3706 C 356.655 0.437262 -1.64384 0
M  V30 3707 O 357.84 0.332343 -1.91335 0
M  V30 3708 C 354.97 0.180448 -3.46831 0
M  V30 3709 C 353.924 -0.698859 -4.22256 0
M  V30 3710 C 353.25 0.138903 -5.3452 0
M  V30 3711 C 354.55 -1.98582 -4.83076 0
M  V30 3712 H 356.244 -1.39058 -2.65148 0
M  V30 3713 H 353.79 -0.67009 -1.27459 0
M  V30 3714 H 355.743 0.504387 -4.18371 0
M  V30 3715 H 354.467 1.07987 -3.08231 0
M  V30 3716 H 353.126 -1.00614 -3.52523 0
M  V30 3717 H 352.774 1.03862 -4.9216 0
M  V30 3718 H 352.474 -0.446259 -5.85903 0
M  V30 3719 H 353.998 0.457404 -6.08884 0
M  V30 3720 H 355.412 -1.72715 -5.46665 0
M  V30 3721 H 353.809 -2.5181 -5.44713 0
M  V30 3722 H 354.879 -2.67769 -4.04262 0
M  V30 3723 N 356.222 1.38976 -0.743202 0
M  V30 3724 C 357.132 2.3434 -0.110399 0
M  V30 3725 C 358.148 1.58741 0.712559 0
M  V30 3726 O 359.324 1.9099 0.639125 0
M  V30 3727 C 356.389 3.37812 0.780012 0
M  V30 3728 C 355.45 4.29263 -0.0561319 0
M  V30 3729 C 354.683 5.27793 0.791875 0
M  V30 3730 O 354.906 5.33043 2.03031 0
M  V30 3731 O 353.84 6.01512 0.216183 0
M  V30 3732 H 357.666 2.90129 -0.897714 0
M  V30 3733 H 355.251 1.40643 -0.503966 0
M  V30 3734 H 357.133 4.01194 1.28923 0
M  V30 3735 H 355.808 2.84395 1.546 0
M  V30 3736 H 354.715 3.69076 -0.611056 0
M  V30 3737 H 356.048 4.85907 -0.784531 0
M  V30 3738 N 357.7 0.491464 1.49741 0
M  V30 3739 C 358.648 -0.305837 2.30581 0
M  V30 3740 C 359.642 -0.971642 1.38764 0
M  V30 3741 O 360.848 -0.90042 1.5586 0
M  V30 3742 H 357.223 -0.117482 0.742767 0
M  V30 3743 H 359.194 0.396093 2.95759 0
M  V30 3744 C 357.943 -1.36319 3.19863 0
M  V30 3745 H 357.266 -0.860258 3.90435 0
M  V30 3746 H 358.706 -1.89323 3.79385 0
M  V30 3747 C 357.165 -2.37621 2.38826 0
M  V30 3748 O 357.695 -3.43311 2.08567 0
M  V30 3749 N 355.901 -2.09849 2.01026 0
M  V30 3750 H 355.448 -1.23922 2.25834 0
M  V30 3751 H 355.406 -2.77859 1.47112 0
M  V30 3752 N 359.178 -1.55987 0.224894 0
M  V30 3753 C 360.406 -2.02784 -0.410665 0
M  V30 3754 C 360.821 -1.10464 -1.53112 0
M  V30 3755 O 360.178 -0.114871 -1.82138 0
M  V30 3756 C 360.229 -3.49087 -0.939165 0
M  V30 3757 O 359.95 -4.37887 0.136614 0
M  V30 3758 C 361.451 -4.11543 -1.64763 0
M  V30 3759 H 358.671 -0.663484 -0.100148 0
M  V30 3760 H 361.215 -2.01614 0.342326 0
M  V30 3761 H 359.37 -3.50861 -1.64242 0
M  V30 3762 H 359.784 -5.23849 -0.261155 0
M  V30 3763 H 361.258 -5.15673 -1.96939 0
M  V30 3764 H 361.735 -3.56736 -2.56195 0
M  V30 3765 H 362.341 -4.13629 -0.989503 0
M  V30 3766 N 360.656 0.0484629 -1.57525 0
M  V30 3767 C 361.902 0.744226 -1.88651 0
M  V30 3768 C 362.235 1.76029 -0.820212 0
M  V30 3769 O 361.51 1.93782 0.166985 0
M  V30 3770 C 361.793 1.43128 -3.30434 0
M  V30 3771 C 361.646 0.43005 -4.47739 0
M  V30 3772 C 362.965 2.37031 -3.70816 0
M  V30 3773 H 360.084 0.269089 -0.68612 0
M  V30 3774 H 362.726 0.00713532 -1.89999 0
M  V30 3775 H 360.876 2.05956 -3.29415 0
M  V30 3776 H 362.548 -0.194816 -4.60888 0
M  V30 3777 H 360.791 -0.252522 -4.33064 0
M  V30 3778 H 361.462 0.948874 -5.43783 0
M  V30 3779 H 363.938 1.84263 -3.73077 0
M  V30 3780 H 362.814 2.82094 -4.70865 0
M  V30 3781 H 363.075 3.22864 -3.02012 0
M  V30 3782 N 362.134 1.5431 0.320358 0
M  V30 3783 C 363.55 1.45091 0.664889 0
M  V30 3784 C 363.75 0.626382 1.91517 0
M  V30 3785 O 362.806 0.126443 2.52183 0
M  V30 3786 C 364.119 2.88848 0.83591 0
M  V30 3787 C 365.667 2.9877 0.933046 0
M  V30 3788 C 366.142 4.43683 1.13621 0
M  V30 3789 N 367.633 4.47309 1.20287 0
M  V30 3790 C 368.368 5.56595 1.37801 0
M  V30 3791 N 367.864 6.75844 1.52338 0
M  V30 3792 N 369.657 5.44248 1.40535 0
M  V30 3793 H 361.808 2.06398 -0.501374 0
M  V30 3794 H 364.071 0.933963 -0.162534 0
M  V30 3795 H 363.777 3.51698 -0.0116092 0
M  V30 3796 H 363.651 3.35148 1.73078 0
M  V30 3797 H 366.038 2.36045 1.77107 0
M  V30 3798 H 366.119 2.55796 0.0145782 0
M  V30 3799 H 365.763 5.06995 0.303032 0
M  V30 3800 H 365.693 4.84269 2.0686 0
M  V30 3801 H 368.184 3.61388 1.10485 0
M  V30 3802 H 368.497 7.54892 1.65403 0
M  V30 3803 H 366.842 6.78746 1.4943 0
M  V30 3804 H 370.033 4.50038 1.28777 0
M  V30 3805 H 370.206 6.29473 1.53842 0
M  V30 3806 N 363.613 -0.582584 1.46437 0
M  V30 3807 C 364.859 -1.34064 1.52965 0
M  V30 3808 C 365.214 -1.91566 0.178968 0
M  V30 3809 O 364.507 -1.73526 -0.812365 0
M  V30 3810 C 364.701 -2.48964 2.56421 0
M  V30 3811 C 364.53 -2.02717 4.01417 0
M  V30 3812 C 363.3 -1.87728 4.69134 0
M  V30 3813 C 365.498 -1.58675 4.8921 0
M  V30 3814 N 363.48 -1.35554 5.98747 0
M  V30 3815 C 364.851 -1.18093 6.08649 0
M  V30 3816 C 366.906 -1.46494 4.75861 0
M  V30 3817 C 365.609 -0.665427 7.16215 0
M  V30 3818 C 367.635 -0.96347 5.83499 0
M  V30 3819 C 366.997 -0.567432 7.02111 0
M  V30 3820 H 363.096 -0.483551 0.614575 0
M  V30 3821 H 365.68 -0.663309 1.83053 0
M  V30 3822 H 363.851 -3.1426 2.28244 0
M  V30 3823 H 365.583 -3.15913 2.52944 0
M  V30 3824 H 362.338 -2.09678 4.24655 0
M  V30 3825 H 362.762 -1.11628 6.67734 0
M  V30 3826 H 367.404 -1.75731 3.8455 0
M  V30 3827 H 365.122 -0.360639 8.07295 0
M  V30 3828 H 368.708 -0.873129 5.75211 0
M  V30 3829 H 367.588 -0.185389 7.83981 0
M  V30 3830 N 365.091 -1.34144 -0.827227 0
M  V30 3831 C 366.507 -1.13732 -1.11969 0
M  V30 3832 C 366.707 0.0640463 -2.01398 0
M  V30 3833 O 365.763 0.740856 -2.41387 0
M  V30 3834 C 367.076 -2.43047 -1.77055 0
M  V30 3835 C 368.624 -2.49063 -1.89569 0
M  V30 3836 C 369.099 -3.78369 -2.58072 0
M  V30 3837 N 370.59 -3.79505 -2.65575 0
M  V30 3838 C 371.325 -4.76274 -3.19297 0
M  V30 3839 N 370.821 -5.83424 -3.73616 0
M  V30 3840 N 372.614 -4.63735 -3.17658 0
M  V30 3841 H 364.765 -2.11126 -0.232296 0
M  V30 3842 H 367.028 -0.933424 -0.165602 0
M  V30 3843 H 366.734 -3.31025 -1.18807 0
M  V30 3844 H 366.608 -2.56066 -2.76966 0
M  V30 3845 H 368.995 -1.61527 -2.46968 0
M  V30 3846 H 369.076 -2.39975 -0.885745 0
M  V30 3847 H 368.72 -4.66293 -2.01329 0
M  V30 3848 H 368.65 -3.84737 -3.59562 0
M  V30 3849 H 371.141 -3.02074 -2.27068 0
M  V30 3850 H 371.454 -6.53282 -4.12846 0
M  V30 3851 H 369.799 -5.87143 -3.71871 0
M  V30 3852 H 372.99 -3.79177 -2.74486 0
M  V30 3853 H 373.163 -5.39318 -3.59221 0
M  V30 3854 N 366.569 1.04691 -1.17803 0
M  V30 3855 C 367.815 1.78181 -0.980977 0
M  V30 3856 C 368.17 1.86191 0.484825 0
M  V30 3857 O 367.463 1.35436 1.35527 0
M  V30 3858 C 367.657 3.21467 -1.56186 0
M  V30 3859 C 367.486 3.27422 -3.08261 0
M  V30 3860 C 366.256 3.36415 -3.77032 0
M  V30 3861 C 368.454 3.15947 -4.0581 0
M  V30 3862 N 366.436 3.31554 -5.16667 0
M  V30 3863 C 367.807 3.18514 -5.31929 0
M  V30 3864 C 369.862 2.99945 -3.97413 0
M  V30 3865 C 368.565 3.06723 -6.50625 0
M  V30 3866 C 370.591 2.89497 -5.15699 0
M  V30 3867 C 369.953 2.92702 -6.40706 0
M  V30 3868 H 366.052 0.6641 -0.412911 0
M  V30 3869 H 368.636 1.24762 -1.49474 0
M  V30 3870 H 366.807 3.73245 -1.07436 0
M  V30 3871 H 368.539 3.8322 -1.30093 0
M  V30 3872 H 365.294 3.41887 -3.27735 0
M  V30 3873 H 365.718 3.3258 -5.89678 0
M  V30 3874 H 370.36 2.96302 -3.01604 0
M  V30 3875 H 368.078 3.0912 -7.46639 0
M  V30 3876 H 371.664 2.78179 -5.10987 0
M  V30 3877 H 370.544 2.84697 -7.30696 0
M  V30 3878 N 368.047 0.979072 1.23499 0
M  V30 3879 C 368.957 0.526431 2.28617 0
M  V30 3880 C 369.973 -0.418126 1.68901 0
M  V30 3881 O 371.149 -0.288372 1.99325 0
M  V30 3882 C 368.214 -0.165235 3.46306 0
M  V30 3883 C 367.275 0.82056 4.21385 0
M  V30 3884 C 366.508 0.161807 5.33455 0
M  V30 3885 O 366.731 -1.04742 5.60701 0
M  V30 3886 O 365.665 0.859708 5.95729 0
M  V30 3887 H 369.491 1.4006 2.69475 0
M  V30 3888 H 367.076 0.746643 1.29405 0
M  V30 3889 H 368.958 -0.553287 4.17752 0
M  V30 3890 H 367.633 -1.01419 3.07402 0
M  V30 3891 H 366.54 1.25929 3.52268 0
M  V30 3892 H 367.873 1.63828 4.64135 0
M  V30 3893 N 369.525 -1.3858 0.750561 0
M  V30 3894 C 370.488 -2.28836 0.129152 0
M  V30 3895 C 371.488 -1.47045 -0.650714 0
M  V30 3896 O 372.678 -1.6753 -0.477428 0
M  V30 3897 C 369.81 -3.30751 -0.825622 0
M  V30 3898 H 371.003 -2.85294 0.924516 0
M  V30 3899 H 368.556 -1.47489 0.517376 0
M  V30 3900 H 369.291 -2.79378 -1.64677 0
M  V30 3901 H 369.076 -3.91177 -0.268852 0
M  V30 3902 H 370.566 -3.98249 -1.2565 0
M  V30 3903 N 371.003 -0.499398 -1.49478 0
M  V30 3904 C 372.251 0.0455996 -2.02049 0
M  V30 3905 C 372.572 1.37633 -1.38138 0
M  V30 3906 O 371.842 1.8842 -0.536166 0
M  V30 3907 H 370.422 0.0198416 -0.746736 0
M  V30 3908 H 373.084 -0.656274 -1.83519 0
M  V30 3909 H 372.18 0.176445 -3.11601 0
M  V30 3910 N 372.481 1.55866 -0.233164 0
M  V30 3911 C 373.758 1.90471 0.444988 0
M  V30 3912 C 374.138 1.15209 1.7689 0
M  V30 3913 O 373.486 0.265119 2.26957 0
M  V30 3914 C 373.696 3.4333 0.626559 0
M  V30 3915 C 375.044 4.14319 0.92871 0
M  V30 3916 O 376.068 3.48993 0.712926 0
M  V30 3917 O 374.927 5.29846 1.33887 0
M  V30 3918 H 372.021 0.792347 0.236885 0
M  V30 3919 H 374.567 1.67437 -0.276211 0
M  V30 3920 H 373.339 3.90095 -0.306822 0
M  V30 3921 H 372.962 3.72181 1.39881 0
M  V30 3922 N 373.959 -0.0401083 1.57549 0
M  V30 3923 C 375.205 -0.734211 1.89043 0
M  V30 3924 C 375.538 -1.75591 0.829535 0
M  V30 3925 O 374.813 -1.93868 -0.156706 0
M  V30 3926 C 375.096 -1.41374 3.31188 0
M  V30 3927 C 374.949 -0.406299 4.47961 0
M  V30 3928 C 376.268 -2.35061 3.72068 0
M  V30 3929 H 373.387 -0.265447 0.687537 0
M  V30 3930 H 376.029 0.00294087 1.9 0
M  V30 3931 H 374.179 -2.04206 3.30503 0
M  V30 3932 H 375.851 0.219255 4.60779 0
M  V30 3933 H 374.094 0.275485 4.32924 0
M  V30 3934 H 374.765 -0.920022 5.44279 0
M  V30 3935 H 377.241 -1.82282 3.74049 0
M  V30 3936 H 376.117 -2.79593 4.72355 0
M  V30 3937 H 376.378 -3.21258 3.0372 0
M  V30 3938 N 375.437 -1.54477 -0.31217 0
M  V30 3939 C 376.4 -1.83923 -1.36766 0
M  V30 3940 C 377.4 -0.711563 -1.44199 0
M  V30 3941 O 378.59 -0.979866 -1.44029 0
M  V30 3942 C 375.722 -2.0095 -2.75376 0
M  V30 3943 H 376.915 -2.78239 -1.11906 0
M  V30 3944 H 374.468 -1.46369 -0.548257 0
M  V30 3945 H 375.203 -1.08883 -3.05475 0
M  V30 3946 H 374.988 -2.83018 -2.71373 0
M  V30 3947 H 376.478 -2.2514 -3.51713 0
M  V30 3948 N 376.915 0.57481 -1.46744 0
M  V30 3949 C 378.164 1.32898 -1.51727 0
M  V30 3950 C 378.477 1.948 -0.176692 0
M  V30 3951 O 379.683 2.71299 -0.104385 0
M  V30 3952 C 378.139 2.40901 -2.67385 0
M  V30 3953 C 377.747 1.85266 -4.07898 0
M  V30 3954 C 379.491 3.17609 -2.81646 0
M  V30 3955 C 377.398 2.90945 -5.14883 0
M  V30 3956 H 376.328 0.499631 -0.564699 0
M  V30 3957 H 378.979 0.612536 -1.72975 0
M  V30 3958 H 377.361 3.15379 -2.39483 0
M  V30 3959 H 378.535 1.17278 -4.45626 0
M  V30 3960 H 376.85 1.21199 -3.98371 0
M  V30 3961 H 379.447 3.96493 -3.58744 0
M  V30 3962 H 379.79 3.70696 -1.89448 0
M  V30 3963 H 380.323 2.50239 -3.09233 0
M  V30 3964 H 377.062 2.42736 -6.089 0
M  V30 3965 H 376.582 3.57398 -4.81691 0
M  V30 3966 H 378.261 3.54755 -5.41071 0
M  V30 3967 N 378.394 1.34581 0.820102 0
M  V30 3968 C 379.64 1.28294 1.57836 0
M  V30 3969 C 379.995 -0.145099 1.91852 0
M  V30 3970 O 379.288 -1.09209 1.57429 0
M  V30 3971 C 379.482 2.10997 2.8847 0
M  V30 3972 C 379.311 3.61698 2.67216 0
M  V30 3973 C 378.081 4.3097 2.63805 0
M  V30 3974 C 380.279 4.55638 2.38534 0
M  V30 3975 N 378.261 5.67502 2.34126 0
M  V30 3976 C 379.632 5.80194 2.18574 0
M  V30 3977 C 381.687 4.44523 2.24285 0
M  V30 3978 C 380.39 6.94886 1.8581 0
M  V30 3979 C 382.416 5.5905 1.92916 0
M  V30 3980 C 381.778 6.82627 1.73782 0
M  V30 3981 H 377.877 0.524697 0.579842 0
M  V30 3982 H 380.461 1.69323 0.961139 0
M  V30 3983 H 378.632 1.7226 3.48111 0
M  V30 3984 H 380.364 1.96333 3.53886 0
M  V30 3985 H 377.119 3.83438 2.77978 0
M  V30 3986 H 377.543 6.39525 2.22118 0
M  V30 3987 H 382.185 3.49599 2.37782 0
M  V30 3988 H 379.903 7.89789 1.7105 0
M  V30 3989 H 383.489 5.52396 1.82619 0
M  V30 3990 H 382.369 7.69748 1.49861 0
M  V30 3991 N 379.872 -1.04064 1.18357 0
M  V30 3992 C 381.149 -1.74252 0.888581 0
M  V30 3993 C 381.529 -2.02138 -0.60856 0
M  V30 3994 O 380.877 -1.66656 -1.56327 0
M  V30 3995 C 381.087 -3.0277 1.73584 0
M  V30 3996 C 382.435 -3.76506 1.96286 0
M  V30 3997 O 383.459 -3.12668 1.70637 0
M  V30 3998 O 382.318 -4.91243 2.39464 0
M  V30 3999 H 379.412 -0.758271 0.330082 0
M  V30 4000 H 381.958 -1.1013 1.2911 0
M  V30 4001 H 380.73 -2.78299 2.75073 0
M  V30 4002 H 380.353 -3.74631 1.33183 0
M  V30 4003 N 381.35 -0.985608 -1.22978 0
M  V30 4004 C 382.298 -0.522631 -2.26652 0
M  V30 4005 C 383.292 0.422998 -1.64034 0
M  V30 4006 O 384.498 0.296319 -1.77544 0
M  V30 4007 H 380.873 -0.150597 -0.736766 0
M  V30 4008 H 382.844 -1.40863 -2.63059 0
M  V30 4009 C 381.593 0.154238 -3.47358 0
M  V30 4010 H 380.916 -0.564329 -3.95797 0
M  V30 4011 H 382.356 0.441744 -4.21693 0
M  V30 4012 C 380.815 1.38719 -3.07016 0
M  V30 4013 O 381.345 2.48307 -3.15764 0
M  V30 4014 N 379.551 1.25975 -2.61875 0
M  V30 4015 H 379.098 0.368068 -2.54957 0
M  V30 4016 H 379.056 2.08578 -2.3525 0
M  V30 4017 N 382.828 1.3818 -0.7579 0
M  V30 4018 C 384.244 1.5353 -0.435972 0
M  V30 4019 C 384.444 1.71961 1.05032 0
M  V30 4020 O 383.5 1.73307 1.83633 0
M  V30 4021 C 384.813 2.73989 -1.23898 0
M  V30 4022 C 386.361 2.87841 -1.22949 0
M  V30 4023 C 386.836 4.11266 -2.01554 0
M  V30 4024 N 388.327 4.18352 -1.98837 0
M  V30 4025 C 389.062 5.12856 -2.5645 0
M  V30 4026 N 388.558 6.13005 -3.22794 0
M  V30 4027 N 390.351 5.05238 -2.46356 0
M  V30 4028 H 382.502 1.24467 -1.7211 0
M  V30 4029 H 384.765 0.604982 -0.729864 0
M  V30 4030 H 384.471 2.66789 -2.29165 0
M  V30 4031 H 384.345 3.67294 -0.858764 0
M  V30 4032 H 386.732 2.9452 -0.184854 0
M  V30 4033 H 386.813 1.95534 -1.64924 0
M  V30 4034 H 386.457 4.05349 -3.06031 0
M  V30 4035 H 386.387 5.02661 -1.5697 0
M  V30 4036 H 388.878 3.46628 -1.50524 0
M  V30 4037 H 389.191 6.81619 -3.64165 0
M  V30 4038 H 387.536 6.13325 -3.2689 0
M  V30 4039 H 390.727 4.25938 -1.9415 0
M  V30 4040 H 390.9 5.78707 -2.91552 0
M  V30 4041 N 384.306 0.507319 1.49211 0
M  V30 4042 C 385.269 -0.256763 2.27757 0
M  V30 4043 C 386.269 -0.888287 1.34038 0
M  V30 4044 O 387.459 -0.751841 1.5714 0
M  V30 4045 C 384.591 -1.36905 3.12202 0
M  V30 4046 H 385.784 0.432557 2.96764 0
M  V30 4047 H 383.337 0.262488 1.5408 0
M  V30 4048 H 384.072 -2.09233 2.47775 0
M  V30 4049 H 383.857 -0.921599 3.81115 0
M  V30 4050 H 385.347 -1.9071 3.7151 0
M  V30 4051 N 385.784 -1.5574 0.241426 0
M  V30 4052 C 387.012 -2.03208 -0.389134 0
M  V30 4053 C 387.427 -1.12082 -1.51931 0
M  V30 4054 O 386.784 -0.134183 -1.82006 0
M  V30 4055 C 386.835 -3.50064 -0.902087 0
M  V30 4056 O 386.556 -4.37717 0.18305 0
M  V30 4057 C 388.057 -4.13268 -1.60389 0
M  V30 4058 H 385.277 -0.664509 -0.0931053 0
M  V30 4059 H 387.821 -2.0124 0.36369 0
M  V30 4060 H 385.976 -3.52583 -1.60511 0
M  V30 4061 H 386.39 -5.24097 -0.205579 0
M  V30 4062 H 387.864 -5.17733 -1.91458 0
M  V30 4063 H 388.341 -3.59434 -2.52397 0
M  V30 4064 H 388.947 -4.14655 -0.945576 0
M  V30 4065 N 387.262 0.0317525 -1.57568 0
M  V30 4066 C 388.194 1.06073 -2.03178 0
M  V30 4067 C 389.207 1.32627 -0.944132 0
M  V30 4068 O 390.396 1.30162 -1.22148 0
M  V30 4069 C 387.496 2.40297 -2.38978 0
M  V30 4070 C 386.669 2.33137 -3.70089 0
M  V30 4071 C 385.728 3.49787 -3.9311 0
M  V30 4072 O 384.754 3.29403 -4.64201 0
M  V30 4073 N 385.956 4.71562 -3.38541 0
M  V30 4074 H 388.721 0.672006 -2.92069 0
M  V30 4075 H 386.282 0.219745 -1.60402 0
M  V30 4076 H 388.274 3.1705 -2.51518 0
M  V30 4077 H 386.844 2.71024 -1.55771 0
M  V30 4078 H 386.064 1.415 -3.67928 0
M  V30 4079 H 387.352 2.25493 -4.56104 0
M  V30 4080 H 386.75 4.91024 -2.80912 0
M  V30 4081 H 385.307 5.45689 -3.56464 0
M  V30 4082 N 388.74 1.54641 0.303973 0
M  V30 4083 C 389.69 1.8177 1.37636 0
M  V30 4084 C 390.674 0.674697 1.46071 0
M  V30 4085 O 391.866 0.935251 1.50273 0
M  V30 4086 C 388.995 2.06584 2.74186 0
M  V30 4087 C 388.081 3.2706 2.69986 0
M  V30 4088 N 388.472 4.47682 2.35402 0
M  V30 4089 C 386.77 3.29028 3.01092 0
M  V30 4090 C 387.471 5.29689 2.40426 0
M  V30 4091 N 386.447 4.67339 2.7766 0
M  V30 4092 H 390.249 2.72596 1.09857 0
M  V30 4093 H 387.763 1.541 0.51254 0
M  V30 4094 H 389.76 2.24166 3.51504 0
M  V30 4095 H 388.42 1.17024 3.02879 0
M  V30 4096 H 389.431 4.74336 2.07908 0
M  V30 4097 H 386.108 2.49565 3.34699 0
M  V30 4098 H 387.498 6.3606 2.16512 0
M  V30 4099 N 390.218 -0.567019 1.47046 0
M  V30 4100 C 391.448 -1.34831 1.56538 0
M  V30 4101 C 391.856 -1.8802 0.21101 0
M  V30 4102 O 391.199 -1.65152 -0.804387 0
M  V30 4103 C 391.261 -2.56139 2.52256 0
M  V30 4104 C 390.925 -2.24307 3.98165 0
M  V30 4105 C 391.922 -1.82192 4.86931 0
M  V30 4106 C 389.607 -2.35968 4.43423 0
M  V30 4107 C 391.601 -1.52153 6.18973 0
M  V30 4108 C 389.288 -2.05542 5.75496 0
M  V30 4109 C 390.286 -1.63701 6.63092 0
M  V30 4110 O 389.974 -1.33657 7.92711 0
M  V30 4111 H 389.706 -0.417683 0.531523 0
M  V30 4112 H 392.26 -0.694726 1.93294 0
M  V30 4113 H 390.49 -3.24356 2.10548 0
M  V30 4114 H 392.179 -3.18214 2.51982 0
M  V30 4115 H 392.945 -1.72684 4.53217 0
M  V30 4116 H 388.824 -2.67495 3.75456 0
M  V30 4117 H 392.368 -1.19421 6.87302 0
M  V30 4118 H 388.265 -2.14679 6.08755 0
M  V30 4119 H 389.033 -1.4737 8.05124 0
M  V30 4120 N 391.696 -1.35014 -0.812953 0
M  V30 4121 C 392.659 -1.27292 -1.90602 0
M  V30 4122 C 393.659 -0.185817 -1.59723 0
M  V30 4123 O 394.849 -0.439102 -1.68575 0
M  V30 4124 C 391.981 -0.967676 -3.26877 0
M  V30 4125 H 393.174 -2.24479 -1.9887 0
M  V30 4126 H 390.727 -1.19446 -1.00808 0
M  V30 4127 H 391.462 0.0005954 -3.243 0
M  V30 4128 H 391.247 -1.75412 -3.50675 0
M  V30 4129 H 392.737 -0.939085 -4.06904 0
M  V30 4130 N 393.175 1.03435 -1.18907 0
M  V30 4131 C 394.421 1.77005 -0.989798 0
M  V30 4132 C 394.754 1.88205 0.478816 0
M  V30 4133 O 394.029 1.39481 1.35556 0
M  V30 4134 C 394.312 3.19925 -1.65287 0
M  V30 4135 C 394.165 3.1663 -3.19477 0
M  V30 4136 C 395.484 4.18189 -1.37134 0
M  V30 4137 H 392.603 0.642538 -0.360991 0
M  V30 4138 H 395.245 1.20784 -1.46667 0
M  V30 4139 H 393.395 3.67929 -1.24741 0
M  V30 4140 H 395.067 2.76567 -3.692 0
M  V30 4141 H 393.31 2.54491 -3.51307 0
M  V30 4142 H 393.981 4.1758 -3.61013 0
M  V30 4143 H 396.457 3.78761 -1.72276 0
M  V30 4144 H 395.333 5.16394 -1.86087 0
M  V30 4145 H 395.594 4.41112 -0.295424 0
M  V30 4146 N 394.653 0.992116 1.22453 0
M  V30 4147 C 395.93 0.583508 1.86694 0
M  V30 4148 C 396.31 -0.9392 1.89056 0
M  V30 4149 O 395.658 -1.82081 1.38053 0
M  V30 4150 C 395.868 1.20304 3.2761 0
M  V30 4151 C 397.216 1.30308 4.0411 0
M  V30 4152 O 398.24 1.15737 3.36873 0
M  V30 4153 O 397.099 1.53615 5.24466 0
M  V30 4154 H 394.193 0.198129 0.802916 0
M  V30 4155 H 396.739 1.08794 1.30238 0
M  V30 4156 H 395.511 2.24461 3.2052 0
M  V30 4157 H 395.134 0.684144 3.9167 0
M  V30 4158 N 396.131 -1.37776 0.765217 0
M  V30 4159 C 397.408 -1.93975 0.251596 0
M  V30 4160 C 397.788 -1.69949 -1.25222 0
M  V30 4161 O 397.136 -1.04457 -2.03226 0
M  V30 4162 C 397.346 -3.43487 0.617895 0
M  V30 4163 C 398.694 -4.20564 0.584029 0
M  V30 4164 O 399.718 -3.5182 0.556888 0
M  V30 4165 O 398.577 -5.43138 0.605291 0
M  V30 4166 H 395.671 -0.82509 0.0561806 0
M  V30 4167 H 398.217 -1.47101 0.846128 0
M  V30 4168 H 396.989 -3.5453 1.65602 0
M  V30 4169 H 396.612 -3.976 -0.00403411 0
M  V30 4170 N 397.609 -0.515225 -1.4894 0
M  V30 4171 C 398.839 0.0205735 -2.0659 0
M  V30 4172 C 399.247 1.30064 -1.37405 0
M  V30 4173 O 398.59 1.78087 -0.450632 0
M  V30 4174 C 398.652 0.330124 -3.57981 0
M  V30 4175 C 398.316 -0.854295 -4.48944 0
M  V30 4176 C 399.313 -1.7487 -4.89609 0
M  V30 4177 C 396.998 -1.05712 -4.9105 0
M  V30 4178 C 398.992 -2.82996 -5.71132 0
M  V30 4179 C 396.679 -2.14154 -5.72347 0
M  V30 4180 C 397.677 -3.0263 -6.12294 0
M  V30 4181 O 397.365 -4.09198 -6.91962 0
M  V30 4182 H 397.097 -0.0236833 -0.675585 0
M  V30 4183 H 399.651 -0.715956 -1.92518 0
M  V30 4184 H 397.881 1.12044 -3.70112 0
M  V30 4185 H 399.57 0.806233 -3.97812 0
M  V30 4186 H 400.336 -1.60388 -4.57712 0
M  V30 4187 H 396.215 -0.377788 -4.59449 0
M  V30 4188 H 399.759 -3.52083 -6.02232 0
M  V30 4189 H 395.656 -2.28626 -6.03656 0
M  V30 4190 H 396.424 -4.06726 -7.10293 0
M  V30 4191 N 399.087 1.5561 -0.249682 0
M  V30 4192 C 400.335 1.98618 0.373548 0
M  V30 4193 C 400.656 1.13919 1.58264 0
M  V30 4194 O 399.926 0.222637 1.94631 0
M  V30 4195 H 398.506 0.733571 0.141006 0
M  V30 4196 H 401.168 1.91748 -0.349117 0
M  V30 4197 H 400.264 3.04584 0.680796 0
M  V30 4198 N 400.565 -0.0233959 1.57583 0
M  V30 4199 C 401.793 -0.724682 1.93794 0
M  V30 4200 C 402.208 -1.68588 0.849912 0
M  V30 4201 O 401.565 -1.81676 -0.173204 0
M  V30 4202 C 401.616 -1.47684 3.29957 0
M  V30 4203 O 401.337 -0.554222 4.3458 0
M  V30 4204 C 402.838 -2.27477 3.80485 0
M  V30 4205 H 400.058 -0.203317 0.639455 0
M  V30 4206 H 402.602 0.0207653 2.04489 0
M  V30 4207 H 400.757 -2.17412 3.20641 0
M  V30 4208 H 401.171 -1.08232 5.13212 0
M  V30 4209 H 402.645 -2.7564 4.78254 0
M  V30 4210 H 403.122 -3.09144 3.11972 0
M  V30 4211 H 403.728 -1.62813 3.92902 0
M  V30 4212 N 402.043 -1.548 -0.295768 0
M  V30 4213 C 402.975 -1.82492 -1.3867 0
M  V30 4214 C 403.988 -0.708134 -1.46592 0
M  V30 4215 O 405.177 -0.985686 -1.48817 0
M  V30 4216 C 402.277 -1.95256 -2.76999 0
M  V30 4217 C 401.45 -3.25709 -2.91946 0
M  V30 4218 C 400.509 -3.28824 -4.10806 0
M  V30 4219 O 399.535 -4.02328 -4.02643 0
M  V30 4220 N 400.737 -2.5459 -5.21694 0
M  V30 4221 H 403.502 -2.76646 -1.15269 0
M  V30 4222 H 401.063 -1.54438 -0.485849 0
M  V30 4223 H 403.055 -1.94736 -3.54768 0
M  V30 4224 H 401.625 -1.08072 -2.93324 0
M  V30 4225 H 400.845 -3.38959 -2.01247 0
M  V30 4226 H 402.133 -4.11786 -2.98847 0
M  V30 4227 H 401.531 -1.94512 -5.31208 0
M  V30 4228 H 400.088 -2.59818 -5.97778 0
M  V30 4229 N 403.521 0.559213 -1.47345 0
M  V30 4230 C 404.932 1.14134 -1.47751 0
M  V30 4231 C 405.283 1.94834 -0.231103 0
M  V30 4232 O 404.408 2.05957 0.664137 0
M  V30 4233 C 405.003 2.07653 -2.67705 0
M  V30 4234 C 403.562 2.61141 -2.71076 0
M  V30 4235 C 402.709 1.3748 -2.40821 0
M  V30 4236 H 405.66 0.345917 -1.54884 0
M  V30 4237 H 405.681 2.91497 -2.44561 0
M  V30 4238 H 405.193 1.4889 -3.58404 0
M  V30 4239 H 403.294 3.23707 -1.84511 0
M  V30 4240 H 403.407 3.02272 -3.7171 0
M  V30 4241 H 401.771 1.68086 -1.91362 0
M  V30 4242 H 402.554 0.805135 -3.33725 0
M  V30 4243 N 404.999 1.35443 0.805782 0
M  V30 4244 C 406.415 1.15499 1.10146 0
M  V30 4245 C 406.615 -0.0319975 2.01475 0
M  V30 4246 O 405.671 -0.70236 2.42535 0
M  V30 4247 C 406.984 2.45833 1.73166 0
M  V30 4248 C 408.532 2.52047 1.85583 0
M  V30 4249 C 409.007 3.82427 2.52019 0
M  V30 4250 N 410.498 3.83682 2.59504 0
M  V30 4251 C 411.233 4.81294 3.11679 0
M  V30 4252 N 410.729 5.89294 3.64287 0
M  V30 4253 N 412.522 4.6873 3.1024 0
M  V30 4254 H 404.673 2.11469 0.198678 0
M  V30 4255 H 406.936 0.93594 0.150731 0
M  V30 4256 H 406.642 3.32874 1.13526 0
M  V30 4257 H 406.516 2.6044 2.72857 0
M  V30 4258 H 408.903 1.65435 2.44367 0
M  V30 4259 H 408.984 2.41354 0.847455 0
M  V30 4260 H 408.628 4.69437 1.93885 0
M  V30 4261 H 408.558 3.90409 3.53395 0
M  V30 4262 H 411.049 3.05648 2.22234 0
M  V30 4263 H 411.362 6.59768 4.02401 0
M  V30 4264 H 409.707 5.92985 3.62483 0
M  V30 4265 H 412.898 3.83496 2.68419 0
M  V30 4266 H 413.071 5.44965 3.50596 0
M  V30 4267 N 406.477 -1.02803 1.19454 0
M  V30 4268 C 407.726 -1.7562 0.991996 0
M  V30 4269 C 408.039 -1.89672 -0.477901 0
M  V30 4270 O 409.245 -2.59468 -0.799287 0
M  V30 4271 C 407.701 -3.15812 1.72601 0
M  V30 4272 C 407.309 -3.0981 3.23607 0
M  V30 4273 C 409.053 -3.92918 1.60674 0
M  V30 4274 C 406.96 -4.44939 3.89594 0
M  V30 4275 H 405.89 -0.658352 0.367543 0
M  V30 4276 H 408.541 -1.15044 1.42959 0
M  V30 4277 H 406.923 -3.7686 1.21624 0
M  V30 4278 H 408.097 -2.58138 3.81709 0
M  V30 4279 H 406.412 -2.46201 3.35819 0
M  V30 4280 H 409.009 -4.9287 2.07323 0
M  V30 4281 H 409.352 -4.12502 0.561025 0
M  V30 4282 H 409.885 -3.38472 2.09001 0
M  V30 4283 H 406.624 -4.30559 4.94267 0
M  V30 4284 H 406.144 -4.96664 3.36281 0
M  V30 4285 H 407.823 -5.1382 3.93189 0
M  V30 4286 N 407.956 -0.998596 -1.21925 0
M  V30 4287 C 409.202 -0.678667 -1.91107 0
M  V30 4288 C 409.535 0.78791 -1.77498 0
M  V30 4289 O 408.81 1.57043 -1.1475 0
M  V30 4290 C 409.093 -1.09245 -3.43129 0
M  V30 4291 C 408.946 -2.61801 -3.6576 0
M  V30 4292 C 410.265 -0.649984 -4.35274 0
M  V30 4293 H 407.384 -0.248025 -0.694012 0
M  V30 4294 H 410.026 -1.24314 -1.43688 0
M  V30 4295 H 408.176 -0.612171 -3.83647 0
M  V30 4296 H 409.848 -3.17543 -3.34611 0
M  V30 4297 H 408.091 -3.03609 -3.09845 0
M  V30 4298 H 408.762 -2.85804 -4.7225 0
M  V30 4299 H 411.238 -1.0626 -4.02303 0
M  V30 4300 H 410.114 -0.967743 -5.40302 0
M  V30 4301 H 410.375 0.449139 -4.39813 0
M  V30 4302 N 409.434 1.37368 -0.772513 0
M  V30 4303 C 410.85 1.53059 -0.452231 0
M  V30 4304 C 411.05 1.73065 1.03203 0
M  V30 4305 O 410.106 1.75245 1.81784 0
M  V30 4306 C 411.419 2.72659 -1.26797 0
M  V30 4307 C 412.967 2.86521 -1.25995 0
M  V30 4308 C 413.442 4.09105 -2.05905 0
M  V30 4309 N 414.933 4.16219 -2.03263 0
M  V30 4310 C 415.668 5.10107 -2.61875 0
M  V30 4311 N 415.164 6.09547 -3.29278 0
M  V30 4312 N 416.957 5.02596 -2.51701 0
M  V30 4313 H 409.108 1.22634 -1.7342 0
M  V30 4314 H 411.371 0.597206 -0.736239 0
M  V30 4315 H 411.077 2.64343 -2.31982 0
M  V30 4316 H 410.951 3.66363 -0.897672 0
M  V30 4317 H 413.338 2.94308 -0.216081 0
M  V30 4318 H 413.419 1.93774 -1.66989 0
M  V30 4319 H 413.063 4.0208 -3.10313 0
M  V30 4320 H 412.993 5.00968 -1.62292 0
M  V30 4321 H 415.484 3.45012 -1.54192 0
M  V30 4322 H 415.797 6.77718 -3.71374 0
M  V30 4323 H 414.142 6.09824 -3.33377 0
M  V30 4324 H 417.333 4.23855 -1.98657 0
M  V30 4325 H 417.506 5.75582 -2.97673 0
M  V30 4326 N 410.912 0.523116 1.48665 0
M  V30 4327 C 412.328 0.180511 1.58576 0
M  V30 4328 C 412.528 -1.31597 1.52592 0
M  V30 4329 O 411.584 -2.0937 1.4114 0
M  V30 4330 C 412.897 0.776949 2.90489 0
M  V30 4331 C 414.445 0.745058 3.04003 0
M  V30 4332 C 414.92 1.31995 4.38567 0
M  V30 4333 N 416.411 1.28162 4.45117 0
M  V30 4334 C 417.146 1.6964 5.47731 0
M  V30 4335 N 416.642 2.18816 6.57337 0
M  V30 4336 N 418.435 1.6092 5.38573 0
M  V30 4337 H 410.586 1.4958 1.50797 0
M  V30 4338 H 412.849 0.621772 0.715614 0
M  V30 4339 H 412.555 1.82732 3.00503 0
M  V30 4340 H 412.429 0.25007 3.7637 0
M  V30 4341 H 414.816 -0.296532 2.93606 0
M  V30 4342 H 414.897 1.30933 2.1975 0
M  V30 4343 H 414.541 2.36043 4.49718 0
M  V30 4344 H 414.471 0.731418 5.21496 0
M  V30 4345 H 416.962 0.92155 3.66491 0
M  V30 4346 H 417.275 2.48478 7.31764 0
M  V30 4347 H 415.62 2.22805 6.58318 0
M  V30 4348 H 418.811 1.22304 4.5184 0
M  V30 4349 H 418.984 1.93567 6.18414 0
M  V30 4350 N 412.39 -1.55475 0.257931 0
M  V30 4351 C 413.636 -1.99502 -0.364266 0
M  V30 4352 C 413.969 -1.146 -1.56782 0
M  V30 4353 O 413.244 -0.211968 -1.93342 0
M  V30 4354 C 413.527 -3.51917 -0.763333 0
M  V30 4355 C 413.38 -4.4758 0.446371 0
M  V30 4356 C 414.699 -4.09742 -1.60623 0
M  V30 4357 H 411.818 -0.725277 -0.130929 0
M  V30 4358 H 414.46 -1.8653 0.361446 0
M  V30 4359 H 412.61 -3.63101 -1.38166 0
M  V30 4360 H 414.282 -4.48362 1.08487 0
M  V30 4361 H 412.525 -4.19947 1.08753 0
M  V30 4362 H 413.196 -5.51862 0.123645 0
M  V30 4363 H 415.672 -4.01727 -1.08418 0
M  V30 4364 H 414.548 -5.16631 -1.85429 0
M  V30 4365 H 414.809 -3.58889 -2.58169 0
M  V30 4366 N 413.868 0.0150385 -1.57593 0
M  V30 4367 C 415.096 0.714395 -1.94175 0
M  V30 4368 C 415.511 1.68135 -0.858841 0
M  V30 4369 O 414.868 1.81766 0.163567 0
M  V30 4370 C 414.919 1.45933 -3.30735 0
M  V30 4371 O 414.64 0.531167 -4.34868 0
M  V30 4372 C 416.141 2.25456 -3.81686 0
M  V30 4373 H 413.361 0.199923 -0.640525 0
M  V30 4374 H 415.905 -0.0316096 -2.04476 0
M  V30 4375 H 414.06 2.15709 -3.21789 0
M  V30 4376 H 414.474 1.05509 -5.13778 0
M  V30 4377 H 415.948 2.731 -4.79709 0
M  V30 4378 H 416.425 3.07485 -3.13607 0
M  V30 4379 H 417.031 1.60727 -3.9376 0
M  V30 4380 N 415.346 1.54954 0.287554 0
M  V30 4381 C 416.276 1.89839 1.35954 0
M  V30 4382 C 417.257 0.758675 1.52244 0
M  V30 4383 O 418.442 1.01557 1.65529 0
M  V30 4384 C 415.572 2.15753 2.72154 0
M  V30 4385 C 414.526 3.3159 2.70614 0
M  V30 4386 C 413.852 3.42952 4.10229 0
M  V30 4387 C 415.152 4.68359 2.31165 0
M  V30 4388 H 416.846 2.79625 1.07007 0
M  V30 4389 H 414.392 1.3454 0.513316 0
M  V30 4390 H 416.345 2.38743 3.47246 0
M  V30 4391 H 415.069 1.22752 3.02654 0
M  V30 4392 H 413.728 3.08545 1.97979 0
M  V30 4393 H 413.376 2.47443 4.37928 0
M  V30 4394 H 413.076 4.20826 4.10097 0
M  V30 4395 H 414.6 3.68218 4.87081 0
M  V30 4396 H 416.014 4.9099 2.95976 0
M  V30 4397 H 414.411 5.49044 2.42221 0
M  V30 4398 H 415.481 4.68165 1.26291 0
M  V30 4399 N 416.824 -0.551391 1.4764 0
M  V30 4400 C 417.787 -1.64007 1.60107 0
M  V30 4401 C 418.787 -1.53601 0.47576 0
M  V30 4402 O 419.977 -1.57655 0.740988 0
M  V30 4403 C 417.109 -3.03569 1.55108 0
M  V30 4404 H 418.302 -1.543 2.57161 0
M  V30 4405 H 415.855 -0.771776 1.35917 0
M  V30 4406 H 416.59 -3.18804 0.594519 0
M  V30 4407 H 416.375 -3.12532 2.36783 0
M  V30 4408 H 417.865 -3.82762 1.66982 0
M  V30 4409 N 418.302 -1.35869 -0.798587 0
M  V30 4410 C 419.55 -1.29332 -1.55298 0
M  V30 4411 C 419.871 0.129729 -1.94568 0
M  V30 4412 O 419.141 1.06796 -1.6423 0
M  V30 4413 H 417.721 -0.475737 -0.57592 0
M  V30 4414 H 420.383 -1.70062 -0.952093 0
M  V30 4415 H 419.479 -1.91458 -2.46476 0
M  V30 4416 N 419.78 1.02168 -1.19998 0
M  V30 4417 C 420.69 2.14069 -0.959774 0
M  V30 4418 C 421.706 1.73804 0.082655 0
M  V30 4419 O 422.882 2.01133 -0.103633 0
M  V30 4420 C 419.947 3.42936 -0.509459 0
M  V30 4421 C 419.008 3.97474 -1.62213 0
M  V30 4422 C 418.241 5.2019 -1.19321 0
M  V30 4423 O 418.464 5.70369 -0.0597726 0
M  V30 4424 O 417.398 5.67749 -1.99863 0
M  V30 4425 H 421.224 2.37199 -1.89658 0
M  V30 4426 H 418.809 1.12469 -0.983411 0
M  V30 4427 H 420.691 4.20551 -0.267322 0
M  V30 4428 H 419.366 3.21234 0.398821 0
M  V30 4429 H 418.273 3.21161 -1.9185 0
M  V30 4430 H 419.606 4.23555 -2.50723 0
M  V30 4431 N 421.258 1.00505 1.21394 0
M  V30 4432 C 422.504 0.688793 1.90745 0
M  V30 4433 C 422.837 -0.778486 1.77914 0
M  V30 4434 O 422.112 -1.56433 1.15581 0
M  V30 4435 C 422.395 1.11063 3.42545 0
M  V30 4436 C 422.248 2.63737 3.64367 0
M  V30 4437 C 423.567 0.673059 4.34923 0
M  V30 4438 H 420.686 0.251702 0.692687 0
M  V30 4439 H 423.328 1.25074 1.43026 0
M  V30 4440 H 421.478 0.632508 3.83317 0
M  V30 4441 H 423.15 3.19313 3.32922 0
M  V30 4442 H 421.393 3.05248 3.08231 0
M  V30 4443 H 422.064 2.88305 4.70727 0
M  V30 4444 H 424.54 1.08392 4.01734 0
M  V30 4445 H 423.416 0.996383 5.39781 0
M  V30 4446 H 423.677 -0.425808 4.40045 0
M  V30 4447 N 422.737 -1.36956 0.779787 0
M  V30 4448 C 424.148 -1.82094 0.412156 0
M  V30 4449 C 424.499 -1.64926 -1.06273 0
M  V30 4450 O 423.624 -1.16483 -1.82375 0
M  V30 4451 C 424.219 -3.3059 0.741319 0
M  V30 4452 C 422.778 -3.73974 0.426641 0
M  V30 4453 C 421.925 -2.59368 0.980987 0
M  V30 4454 H 424.876 -1.25314 0.973758 0
M  V30 4455 H 424.897 -3.80489 0.028887 0
M  V30 4456 H 424.409 -3.43054 1.81482 0
M  V30 4457 H 422.51 -3.67076 -0.639215 0
M  V30 4458 H 422.623 -4.69778 0.940515 0
M  V30 4459 H 420.987 -2.51463 0.404757 0
M  V30 4460 H 421.77 -2.74621 2.06005 0
M  V30 4461 N 424.215 -0.530993 -1.48385 0
M  V30 4462 C 425.461 0.00274135 -2.028 0
M  V30 4463 C 425.794 1.33838 -1.40716 0
M  V30 4464 O 425.069 1.86465 -0.553277 0
M  V30 4465 C 425.352 0.123676 -3.59888 0
M  V30 4466 C 425.205 -1.2372 -4.3245 0
M  V30 4467 C 426.524 0.849967 -4.31814 0
M  V30 4468 H 423.643 -0.000477758 -0.737 0
M  V30 4469 H 426.285 -0.688217 -1.77098 0
M  V30 4470 H 424.435 0.712157 -3.81917 0
M  V30 4471 H 426.107 -1.86687 -4.21836 0
M  V30 4472 H 424.35 -1.81882 -3.93829 0
M  V30 4473 H 425.021 -1.10557 -5.40815 0
M  V30 4474 H 427.497 0.350572 -4.14621 0
M  V30 4475 H 426.373 0.903486 -5.41413 0
M  V30 4476 H 426.634 1.90047 -3.99167 0
M  V30 4477 N 425.693 1.55336 -0.266172 0
M  V30 4478 C 426.941 1.99003 0.35246 0
M  V30 4479 C 427.262 1.15591 1.57047 0
M  V30 4480 O 426.532 0.243268 1.94384 0
M  V30 4481 H 425.112 0.735025 0.133217 0
M  V30 4482 H 427.774 1.91367 -0.369434 0
M  V30 4483 H 426.87 3.05289 0.648453 0
M  V30 4484 N 427.171 -0.0066808 1.57599 0
M  V30 4485 C 428.417 -0.693947 1.90558 0
M  V30 4486 C 428.75 -1.73792 0.866594 0
M  V30 4487 O 428.025 -1.94156 -0.115548 0
M  V30 4488 C 428.308 -1.34317 3.34112 0
M  V30 4489 C 428.161 -0.311189 4.48722 0
M  V30 4490 C 429.48 -2.27116 3.7697 0
M  V30 4491 H 426.599 -0.250803 0.693013 0
M  V30 4492 H 429.241 0.043242 1.89951 0
M  V30 4493 H 427.391 -1.9715 3.3476 0
M  V30 4494 H 429.063 0.316944 4.6021 0
M  V30 4495 H 427.306 0.367253 4.32243 0
M  V30 4496 H 427.977 -0.804366 5.46108 0
M  V30 4497 H 430.453 -1.74306 3.77831 0
M  V30 4498 H 429.329 -2.69511 4.78179 0
M  V30 4499 H 429.59 -3.14743 3.10466 0
M  V30 4500 N 428.649 -1.55105 -0.279332 0
M  V30 4501 C 429.926 -1.66119 -1.03267 0
M  V30 4502 C 430.306 -0.523525 -2.04505 0
M  V30 4503 O 429.654 0.477194 -2.23462 0
M  V30 4504 C 429.864 -3.05067 -1.69515 0
M  V30 4505 C 431.212 -3.62606 -2.20912 0
M  V30 4506 O 432.236 -3.07659 -1.79512 0
M  V30 4507 O 431.095 -4.58861 -2.96831 0
M  V30 4508 H 428.189 -0.674429 -0.478618 0
M  V30 4509 H 430.735 -1.67446 -0.275694 0
M  V30 4510 H 429.507 -3.79311 -0.9612 0
M  V30 4511 H 429.13 -3.07611 -2.51915 0
M  V30 4512 N 430.127 0.543554 -1.4793 0
M  V30 4513 C 431.375 1.29752 -1.54948 0
M  V30 4514 C 431.696 1.93764 -0.219242 0
M  V30 4515 O 430.966 1.80639 0.75805 0
M  V30 4516 H 429.546 0.481874 -0.570795 0
M  V30 4517 H 432.208 0.633636 -1.84312 0
M  V30 4518 H 431.304 2.08392 -2.32334 0
M  V30 4519 N 431.605 1.3629 0.791371 0
M  V30 4520 C 432.537 1.26321 1.91248 0
M  V30 4521 C 433.55 0.18313 1.61767 0
M  V30 4522 O 434.739 0.437682 1.73051 0
M  V30 4523 C 431.839 0.925901 3.26007 0
M  V30 4524 C 431.012 2.10746 3.83281 0
M  V30 4525 C 430.071 1.74352 4.96475 0
M  V30 4526 O 429.097 2.46416 5.13096 0
M  V30 4527 N 430.299 0.676058 5.7655 0
M  V30 4528 H 433.064 2.22915 2.00323 0
M  V30 4529 H 430.625 1.29659 0.969546 0
M  V30 4530 H 432.617 0.663636 3.99222 0
M  V30 4531 H 431.187 0.0491581 3.12561 0
M  V30 4532 H 430.407 2.53264 3.02077 0
M  V30 4533 H 431.695 2.8969 4.18279 0
M  V30 4534 H 431.093 0.0776467 5.65647 0
M  V30 4535 H 429.65 0.473612 6.50077 0
M  V30 4536 N 433.083 -1.0153 1.20538 0
M  V30 4537 C 434.013 -2.11972 0.979295 0
M  V30 4538 C 434.994 -1.6985 -0.0921787 0
M  V30 4539 O 436.179 -1.94089 0.0655932 0
M  V30 4540 C 433.309 -3.43201 0.531984 0
M  V30 4541 C 432.263 -3.9907 1.54685 0
M  V30 4542 C 431.589 -5.26082 0.956127 0
M  V30 4543 C 432.889 -4.32313 2.93092 0
M  V30 4544 H 434.583 -2.31143 1.90298 0
M  V30 4545 H 432.129 -1.11079 0.916372 0
M  V30 4546 H 434.082 -4.1985 0.361044 0
M  V30 4547 H 432.806 -3.23792 -0.427327 0
M  V30 4548 H 431.465 -3.2453 1.70517 0
M  V30 4549 H 431.113 -5.02999 -0.0111538 0
M  V30 4550 H 430.813 -5.64426 1.63393 0
M  V30 4551 H 432.337 -6.05386 0.796284 0
M  V30 4552 H 433.751 -4.99845 2.80763 0
M  V30 4553 H 432.148 -4.81774 3.57791 0
M  V30 4554 H 433.218 -3.41025 3.44717 0
M  V30 4555 N 434.561 -1.01147 -1.20859 0
M  V30 4556 C 435.786 -0.716698 -1.94623 0
M  V30 4557 C 436.211 0.715415 -1.73964 0
M  V30 4558 O 435.569 1.49157 -1.03062 0
M  V30 4559 C 435.617 -1.0513 -3.44935 0
M  V30 4560 O 434.721 -0.160131 -4.12089 0
M  V30 4561 H 434.062 -0.266404 -0.608214 0
M  V30 4562 H 436.592 -1.35346 -1.53436 0
M  V30 4563 H 436.602 -1.00086 -3.95533 0
M  V30 4564 H 435.277 -2.09475 -3.59295 0
M  V30 4565 H 433.854 -0.267657 -3.71938 0
M  V30 4566 N 436.039 1.36541 -0.78704 0
M  V30 4567 C 437.455 1.52571 -0.46844 0
M  V30 4568 C 437.655 1.7415 1.01361 0
M  V30 4569 O 436.711 1.77163 1.79915 0
M  V30 4570 C 438.024 2.71299 -1.29682 0
M  V30 4571 C 439.572 2.85169 -1.29027 0
M  V30 4572 C 440.047 4.06898 -2.10233 0
M  V30 4573 N 441.538 4.1404 -2.07666 0
M  V30 4574 C 442.273 5.07301 -2.67271 0
M  V30 4575 N 441.769 6.06021 -3.35724 0
M  V30 4576 N 443.562 4.99898 -2.57018 0
M  V30 4577 H 435.713 1.20788 -1.74711 0
M  V30 4578 H 437.976 0.589364 -0.742532 0
M  V30 4579 H 437.682 2.61868 -2.34773 0
M  V30 4580 H 437.556 3.6539 -0.936479 0
M  V30 4581 H 439.943 2.94062 -0.247284 0
M  V30 4582 H 440.024 1.91992 -1.69035 0
M  V30 4583 H 439.668 3.98766 -3.1456 0
M  V30 4584 H 439.598 4.99218 -1.67597 0
M  V30 4585 H 442.089 3.43357 -1.57843 0
M  V30 4586 H 442.402 6.73741 -3.78541 0
M  V30 4587 H 440.747 6.06253 -3.39826 0
M  V30 4588 H 443.938 4.21724 -2.03142 0
M  V30 4589 H 444.111 5.72392 -3.03761 0
M  V30 4590 N 437.518 0.538854 1.48102 0
M  V30 4591 C 438.746 0.0123136 2.06896 0
M  V30 4592 C 439.161 -1.27312 1.39417 0
M  V30 4593 O 438.518 -1.75949 0.484582 0
M  V30 4594 C 438.569 -0.206118 3.60912 0
M  V30 4595 O 438.29 1.0284 4.25859 0
M  V30 4596 C 439.791 -0.772033 4.36526 0
M  V30 4597 H 437.011 0.0375239 0.66995 0
M  V30 4598 H 439.555 0.747032 1.90367 0
M  V30 4599 H 437.71 -0.89091 3.77017 0
M  V30 4600 H 438.124 0.814654 5.18135 0
M  V30 4601 H 439.598 -0.874251 5.45033 0
M  V30 4602 H 440.075 -1.77904 4.01555 0
M  V30 4603 H 440.681 -0.123526 4.25121 0
M  V30 4604 N 438.996 -1.55193 0.274407 0
M  V30 4605 C 440.224 -2.03987 -0.345943 0
M  V30 4606 C 440.639 -1.15279 -1.4952 0
M  V30 4607 O 439.996 -0.172759 -1.8168 0
M  V30 4608 C 440.047 -3.51898 -0.827631 0
M  V30 4609 O 439.768 -4.37231 0.275855 0
M  V30 4610 C 441.269 -4.16577 -1.51587 0
M  V30 4611 H 438.489 -0.666335 -0.0789892 0
M  V30 4612 H 441.033 -2.00423 0.406294 0
M  V30 4613 H 439.188 -3.55909 -1.52996 0
M  V30 4614 H 439.602 -5.24415 -0.0943638 0
M  V30 4615 H 441.076 -5.21678 -1.80433 0
M  V30 4616 H 441.553 -3.64707 -2.44716 0
M  V30 4617 H 442.159 -4.16568 -0.857409 0
M  V30 4618 N 440.474 -0.00167713 -1.576 0
M  V30 4619 C 441.89 0.354422 -1.55615 0
M  V30 4620 C 442.09 1.74679 -1.00447 0
M  V30 4621 O 441.146 2.4428 -0.639022 0
M  V30 4622 C 442.459 0.22812 -2.99833 0
M  V30 4623 C 444.007 0.302934 -3.11531 0
M  V30 4624 C 444.482 0.205737 -4.57538 0
M  V30 4625 N 445.973 0.263584 -4.62449 0
M  V30 4626 C 446.708 0.211742 -5.73009 0
M  V30 4627 N 446.204 0.110399 -6.92712 0
M  V30 4628 N 447.997 0.263729 -5.61481 0
M  V30 4629 H 440.148 -0.912498 -1.918 0
M  V30 4630 H 442.411 -0.349928 -0.881053 0
M  V30 4631 H 442.117 -0.729934 -3.44042 0
M  V30 4632 H 441.991 1.00951 -3.6344 0
M  V30 4633 H 444.378 1.25143 -2.67251 0
M  V30 4634 H 444.459 -0.508357 -2.50698 0
M  V30 4635 H 444.103 -0.739225 -5.02492 0
M  V30 4636 H 444.033 1.03554 -5.16318 0
M  V30 4637 H 446.524 0.343173 -3.76339 0
M  V30 4638 H 446.837 0.0767828 -7.72762 0
M  V30 4639 H 445.182 0.0760025 -6.94958 0
M  V30 4640 H 448.373 0.34111 -4.66855 0
M  V30 4641 H 448.546 0.219862 -6.47627 0
M  V30 4642 N 441.952 1.55251 0.271103 0
M  V30 4643 C 442.899 1.88261 1.33516 0
M  V30 4644 C 443.869 0.734296 1.48988 0
M  V30 4645 O 445.054 0.985741 1.63364 0
M  V30 4646 C 442.194 2.16168 2.69008 0
M  V30 4647 C 441.307 3.43678 2.61743 0
M  V30 4648 C 440.442 3.61276 3.89427 0
M  V30 4649 C 439.481 4.82472 3.7668 0
M  V30 4650 N 438.618 4.96717 4.96202 0
M  V30 4651 H 443.458 2.79015 1.04665 0
M  V30 4652 H 440.995 1.38137 0.505618 0
M  V30 4653 H 442.953 2.30349 3.47844 0
M  V30 4654 H 441.583 1.28646 2.96057 0
M  V30 4655 H 440.635 3.37959 1.74607 0
M  V30 4656 H 441.947 4.3265 2.48224 0
M  V30 4657 H 441.101 3.75284 4.76704 0
M  V30 4658 H 439.84 2.70492 4.05814 0
M  V30 4659 H 438.845 4.68465 2.87786 0
M  V30 4660 H 440.07 5.74692 3.61809 0
M  V30 4661 H 438.016 4.08865 5.12997 0
M  V30 4662 H 437.933 5.79738 4.85222 0
M  V30 4663 H 439.201 5.15113 5.85046 0
M  V30 4664 N 443.43 -0.535701 1.48216 0
M  V30 4665 C 444.678 -1.28928 1.55634 0
M  V30 4666 C 444.999 -1.93645 0.229514 0
M  V30 4667 O 444.269 -1.81038 -0.74846 0
M  V30 4668 H 442.849 -0.47884 0.573342 0
M  V30 4669 H 445.511 -0.623853 1.84646 0
M  V30 4670 H 444.607 -2.07157 2.33436 0
M  V30 4671 O 444.947 -1.46458 -0.680617 0
M  V30 4672 H 445.638 -1.40531 -1.33307 0
M  V30 END ATOM
M  V30 BEGIN BOND
M  V30 END BOND
M  V30 END CTAB
M  END
$$$$
