drugbank_target|Q9WXN1 Laminarinase (DB02379)
 OpenBabel12092120243D

  0  0  0     0  0            999 V3000
M  V30 BEGIN CTAB
M  V30 COUNTS 9891 10038 0 0 0
M  V30 BEGIN ATOM
M  V30 1 H -0.908 1.98254 -0.117106 0
M  V30 2 N 0 1.576 0 0
M  V30 3 C 0.933 2.03868 1.02534 0
M  V30 4 C 1.911 0.928543 1.3348 0
M  V30 5 O 3.095 1.19667 1.45644 0
M  V30 6 C 0.222 2.43627 2.35294 0
M  V30 7 C -0.732 3.65373 2.2001 0
M  V30 8 S 0.101 5.13292 1.52614 0
M  V30 9 C 1.257 5.56322 2.86805 0
M  V30 10 H 1.49 2.90518 0.631377 0
M  V30 11 H -0.977 1.52953 0.210867 0
M  V30 12 H 0.981 2.67203 3.11629 0
M  V30 13 H -0.358 1.57376 2.7183 0
M  V30 14 H -1.165 3.90944 3.18086 0
M  V30 15 H -1.563 3.418 1.51819 0
M  V30 16 H 0.729 5.58782 3.83104 0
M  V30 17 H 1.672 6.56266 2.65933 0
M  V30 18 H 2.08 4.83886 2.90714 0
M  V30 19 N 1.4781 -0.272755 1.55222 0
M  V30 20 C 2.4111 -1.3627 1.83046 0
M  V30 21 C 3.3891 -1.47536 0.683521 0
M  V30 22 O 4.5731 -1.64157 0.926545 0
M  V30 23 C 1.7001 -2.73908 1.99229 0
M  V30 24 C 0.7461 -2.79925 3.21783 0
M  V30 25 S 1.5791 -2.39146 4.79134 0
M  V30 26 C 2.7351 -3.78758 4.9829 0
M  V30 27 H 2.9681 -1.12464 2.75207 0
M  V30 28 H 0.5011 -0.472398 1.46996 0
M  V30 29 H 2.4591 -3.53171 2.09238 0
M  V30 30 H 1.1201 -2.94965 1.07956 0
M  V30 31 H 0.3131 -3.80946 3.29994 0
M  V30 32 H -0.0849 -2.08683 3.10367 0
M  V30 33 H 2.2071 -4.7403 4.84047 0
M  V30 34 H 3.1501 -3.75499 6.00338 0
M  V30 35 H 3.5581 -3.70072 4.26271 0
M  V30 36 N 2.9562 -1.48159 -0.537278 0
M  V30 37 C 4.1812 -1.59707 -1.32319 0
M  V30 38 C 4.6062 -0.254859 -1.86365 0
M  V30 39 O 3.9642 0.772378 -1.64024 0
M  V30 40 C 4.0122 -2.6412 -2.45505 0
M  V30 41 O 3.1162 -2.20774 -3.48328 0
M  V30 42 H 2.4572 -0.535791 -0.392204 0
M  V30 43 H 4.9872 -1.94092 -0.647268 0
M  V30 44 H 4.9972 -2.85166 -2.91795 0
M  V30 45 H 3.6722 -3.61567 -2.05528 0
M  V30 46 H 2.2492 -2.09911 -3.08207 0
M  V30 47 N 4.4343 0.785586 -1.36625 0
M  V30 48 C 5.8503 1.08419 -1.17122 0
M  V30 49 C 6.0503 2.015 0.00208491 0
M  V30 50 O 5.1063 2.43551 0.666278 0
M  V30 51 C 6.4193 1.69498 -2.48377 0
M  V30 52 C 7.9673 1.81821 -2.54775 0
M  V30 53 C 8.4423 2.46315 -3.86126 0
M  V30 54 N 9.9333 2.53779 -3.87492 0
M  V30 55 C 10.6683 3.045 -4.85868 0
M  V30 56 N 10.1643 3.55499 -5.94637 0
M  V30 57 N 11.9573 3.03247 -4.73284 0
M  V30 58 H 4.1083 0.167264 -2.1174 0
M  V30 59 H 6.3713 0.13682 -0.938075 0
M  V30 60 H 6.0773 1.08571 -3.34522 0
M  V30 61 H 5.9513 2.6896 -2.64462 0
M  V30 62 H 8.3383 2.41884 -1.69045 0
M  V30 63 H 8.4193 0.811532 -2.42586 0
M  V30 64 H 8.0633 1.86895 -4.72263 0
M  V30 65 H 7.9933 3.47561 -3.95612 0
M  V30 66 H 10.4843 2.17672 -3.08913 0
M  V30 67 H 10.7973 3.92562 -6.65669 0
M  V30 68 H 9.1423 3.5364 -5.98301 0
M  V30 69 H 12.3333 2.62696 -3.87438 0
M  V30 70 H 12.5063 3.42467 -5.50109 0
M  V30 71 N 5.9124 1.20967 1.01018 0
M  V30 72 C 6.8424 0.988272 2.11555 0
M  V30 73 C 7.8234 -0.0849778 1.69888 0
M  V30 74 O 9.0084 0.0738202 1.9406 0
M  V30 75 C 6.1384 0.546528 3.42973 0
M  V30 76 C 5.0924 1.56375 3.9841 0
M  V30 77 C 4.4184 0.97842 5.25672 0
M  V30 78 C 5.7184 2.94922 4.31066 0
M  V30 79 H 7.4124 1.91276 2.30334 0
M  V30 80 H 4.9584 0.921073 1.1069 0
M  V30 81 H 6.9114 0.378839 4.19694 0
M  V30 82 H 5.6354 -0.413598 3.23971 0
M  V30 83 H 4.2944 1.71891 3.23804 0
M  V30 84 H 3.9424 0.0101688 5.02999 0
M  V30 85 H 3.6424 1.65784 5.63728 0
M  V30 86 H 5.1664 0.821939 6.05043 0
M  V30 87 H 6.5804 2.8288 4.9865 0
M  V30 88 H 4.9774 3.5983 4.80253 0
M  V30 89 H 6.0474 3.4616 3.39561 0
M  V30 90 N 7.3905 -1.2043 1.01659 0
M  V30 91 C 8.6365 -1.90079 0.706963 0
M  V30 92 C 8.9695 -1.78648 -0.761474 0
M  V30 93 O 8.2445 -1.17069 -1.55323 0
M  V30 94 C 8.5275 -3.41469 1.14327 0
M  V30 95 C 8.3805 -3.61833 2.67201 0
M  V30 96 C 9.6995 -4.34261 0.714529 0
M  V30 97 H 6.8185 -0.690254 0.2583 0
M  V30 98 H 9.4605 -1.41826 1.26433 0
M  V30 99 H 7.6105 -3.82696 0.669056 0
M  V30 100 H 9.2825 -3.2986 3.22475 0
M  V30 101 H 7.5255 -3.05304 3.08175 0
M  V30 102 H 8.1965 -4.67955 2.92783 0
M  V30 103 H 10.6725 -4.00682 1.12221 0
M  V30 104 H 9.5485 -5.38806 1.04784 0
M  V30 105 H 9.8095 -4.40431 -0.383799 0
M  V30 106 N 8.8686 -0.792821 -1.36206 0
M  V30 107 C 10.1156 -0.366786 -1.99151 0
M  V30 108 C 10.4436 1.06243 -1.62919 0
M  V30 109 O 9.6986 1.74927 -0.877442 0
M  V30 110 C 9.9976 -0.481501 -3.54142 0
M  V30 111 C 9.6636 -1.87202 -4.10203 0
M  V30 112 C 8.3256 -2.25248 -4.25226 0
M  V30 113 C 10.6776 -2.78237 -4.40719 0
M  V30 114 C 8.0056 -3.53723 -4.68078 0
M  V30 115 C 10.3576 -4.06144 -4.85005 0
M  V30 116 C 9.0216 -4.44207 -4.98234 0
M  V30 117 H 8.2916 -0.134217 -0.728743 0
M  V30 118 H 10.9386 -1.01094 -1.62641 0
M  V30 119 H 9.2436 0.246146 -3.91026 0
M  V30 120 H 10.9406 -0.132844 -4.0078 0
M  V30 121 H 7.5306 -1.56639 -3.98951 0
M  V30 122 H 11.7146 -2.50097 -4.28679 0
M  V30 123 H 6.9706 -3.8308 -4.76508 0
M  V30 124 H 11.1446 -4.76796 -5.07581 0
M  V30 125 H 8.7716 -5.43814 -5.31197 0
M  V30 126 N 10.3467 1.47872 -0.545128 0
M  V30 127 C 11.3097 2.28337 0.198717 0
M  V30 128 C 12.3097 1.36255 0.853888 0
M  V30 129 O 13.4997 1.59003 0.711606 0
M  V30 130 C 10.6317 3.15585 1.28915 0
M  V30 131 H 11.8247 2.95567 -0.507941 0
M  V30 132 H 9.3777 1.53362 -0.301616 0
M  V30 133 H 10.1127 2.53019 2.02859 0
M  V30 134 H 9.8977 3.83337 0.824309 0
M  V30 135 H 11.3877 3.76243 1.81194 0
M  V30 136 N 11.8248 0.280983 1.55075 0
M  V30 137 C 12.7548 -0.597469 2.25727 0
M  V30 138 C 13.7358 -1.15417 1.24952 0
M  V30 139 O 14.9208 -1.18722 1.53684 0
M  V30 140 C 12.0508 -1.7789 2.98283 0
M  V30 141 C 11.0048 -1.35347 4.06036 0
M  V30 142 C 10.3308 -2.61846 4.66198 0
M  V30 143 C 11.6308 -0.499354 5.19907 0
M  V30 144 H 13.3248 -0.00824265 2.99399 0
M  V30 145 H 10.8708 -0.0025244 1.44 0
M  V30 146 H 12.8238 -2.39937 3.46422 0
M  V30 147 H 11.5478 -2.39405 2.22155 0
M  V30 148 H 10.2068 -0.756156 3.58717 0
M  V30 149 H 9.8548 -3.21632 3.86732 0
M  V30 150 H 9.5548 -2.3409 5.38958 0
M  V30 151 H 11.0788 -3.24732 5.1709 0
M  V30 152 H 12.4928 -1.02498 5.64063 0
M  V30 153 H 10.8898 -0.316424 5.99265 0
M  V30 154 H 11.9598 0.480459 4.82514 0
M  V30 155 N 13.3029 -1.57598 0.00835791 0
M  V30 156 C 14.2329 -2.1198 -0.979113 0
M  V30 157 C 15.2139 -1.03091 -1.35301 0
M  V30 158 O 16.3989 -1.30818 -1.43528 0
M  V30 159 C 13.5289 -2.62995 -2.26828 0
M  V30 160 C 12.4829 -3.76485 -2.03576 0
M  V30 161 C 11.8089 -4.13846 -3.38579 0
M  V30 162 C 13.1089 -5.0342 -1.39161 0
M  V30 163 H 14.8029 -2.94738 -0.526281 0
M  V30 164 H 12.3489 -1.41783 -0.251704 0
M  V30 165 H 14.3019 -2.99669 -2.96271 0
M  V30 166 H 13.0259 -1.7737 -2.7424 0
M  V30 167 H 11.6849 -3.40217 -1.36557 0
M  V30 168 H 11.3329 -3.25232 -3.83709 0
M  V30 169 H 11.0329 -4.90312 -3.23834 0
M  V30 170 H 12.5569 -4.53086 -4.09323 0
M  V30 171 H 13.9709 -5.37812 -1.98573 0
M  V30 172 H 12.3679 -5.84746 -1.34878 0
M  V30 173 H 13.4379 -4.83548 -0.361868 0
M  V30 174 N 14.781 0.264519 -1.55364 0
M  V30 175 C 15.711 1.33121 -1.91836 0
M  V30 176 C 16.692 1.51101 -0.781192 0
M  V30 177 O 17.877 1.64003 -1.04003 0
M  V30 178 C 15.007 2.68921 -2.19769 0
M  V30 179 C 13.961 2.65661 -3.35571 0
M  V30 180 C 13.287 4.05093 -3.49004 0
M  V30 181 C 14.587 2.24187 -4.71739 0
M  V30 182 H 16.281 1.02844 -2.81182 0
M  V30 183 H 13.827 0.493286 -1.35287 0
M  V30 184 H 15.78 3.43663 -2.43872 0
M  V30 185 H 14.504 3.00799 -1.27231 0
M  V30 186 H 13.163 1.93377 -3.1145 0
M  V30 187 H 12.811 4.34206 -2.53917 0
M  V30 188 H 12.511 4.03804 -4.26868 0
M  V30 189 H 14.035 4.81561 -3.75408 0
M  V30 190 H 15.449 2.88654 -4.9533 0
M  V30 191 H 13.846 2.34044 -5.52579 0
M  V30 192 H 14.916 1.19327 -4.69988 0
M  V30 193 N 16.2591 1.48442 0.529413 0
M  V30 194 C 17.5061 1.56488 1.28521 0
M  V30 195 C 17.8341 0.239042 1.93025 0
M  V30 196 O 17.0891 -0.770713 1.79885 0
M  V30 197 C 17.3881 2.6523 2.39558 0
M  V30 198 C 17.0541 4.07648 1.92702 0
M  V30 199 C 15.7161 4.46411 1.79641 0
M  V30 200 C 18.0681 4.96896 1.573 0
M  V30 201 C 15.3961 5.72226 1.29514 0
M  V30 202 C 17.7481 6.23202 1.08636 0
M  V30 203 C 16.4121 6.60821 0.941919 0
M  V30 204 H 15.6821 0.572631 0.470292 0
M  V30 205 H 18.3291 1.82161 0.59072 0
M  V30 206 H 16.6341 2.33419 3.14679 0
M  V30 207 H 18.3311 2.68671 2.97686 0
M  V30 208 H 14.9211 3.77036 2.03819 0
M  V30 209 H 19.1051 4.67626 1.66251 0
M  V30 210 H 14.3611 6.00097 1.17019 0
M  V30 211 H 18.5351 6.91753 0.803136 0
M  V30 212 H 16.1621 7.58198 0.5513 0
M  V30 213 N 17.7372 -0.778329 1.37039 0
M  V30 214 C 19.1482 -1.35421 1.28523 0
M  V30 215 C 19.4992 -1.96075 -0.0700901 0
M  V30 216 O 18.6242 -1.93352 -0.971801 0
M  V30 217 C 19.2192 -2.46211 2.32735 0
M  V30 218 C 17.7782 -2.99585 2.27873 0
M  V30 219 C 16.9252 -1.72748 2.16918 0
M  V30 220 H 19.8762 -0.5791 1.47757 0
M  V30 221 H 19.8972 -3.2552 1.9702 0
M  V30 222 H 19.4092 -2.02036 3.31365 0
M  V30 223 H 17.5102 -3.48152 1.32745 0
M  V30 224 H 17.6232 -3.55646 3.21018 0
M  V30 225 H 15.9872 -1.95416 1.63354 0
M  V30 226 H 16.7702 -1.30686 3.17452 0
M  V30 227 N 19.2153 -1.21501 -1.00376 0
M  V30 228 C 20.4613 -1.03452 -1.74429 0
M  V30 229 C 20.7943 0.430764 -1.89362 0
M  V30 230 O 20.0693 1.31962 -1.42886 0
M  V30 231 C 20.3523 -1.73375 -3.15615 0
M  V30 232 C 20.2053 -3.27431 -3.08397 0
M  V30 233 C 21.5243 -1.47732 -4.14564 0
M  V30 234 H 18.6433 -0.377226 -0.633143 0
M  V30 235 H 21.2853 -1.49693 -1.17013 0
M  V30 236 H 19.4353 -1.34064 -3.64636 0
M  V30 237 H 21.1073 -3.76119 -2.67081 0
M  V30 238 H 19.3503 -3.5767 -2.45468 0
M  V30 239 H 20.0213 -3.71524 -4.08258 0
M  V30 240 H 22.4973 -1.8186 -3.74254 0
M  V30 241 H 21.3733 -1.99169 -5.11491 0
M  V30 242 H 21.6343 -0.407589 -4.40217 0
M  V30 243 N 20.6934 1.19889 -1.02296 0
M  V30 244 C 21.9404 1.8942 -0.715972 0
M  V30 245 C 22.2684 1.79251 0.754944 0
M  V30 246 O 21.5234 1.17526 1.56481 0
M  V30 247 C 21.8224 3.39883 -1.10518 0
M  V30 248 C 21.4884 3.70254 -2.57337 0
M  V30 249 C 20.1504 3.78254 -2.97452 0
M  V30 250 C 22.5024 3.84052 -3.52354 0
M  V30 251 C 19.8304 3.97514 -4.31509 0
M  V30 252 C 22.1824 4.04824 -4.86108 0
M  V30 253 C 20.8464 4.11054 -5.25919 0
M  V30 254 H 20.1164 0.693138 -0.261993 0
M  V30 255 H 22.7634 1.42012 -1.28472 0
M  V30 256 H 21.0684 3.8915 -0.454953 0
M  V30 257 H 22.7654 3.9199 -0.845261 0
M  V30 258 H 19.3554 3.64632 -2.25258 0
M  V30 259 H 23.5394 3.77221 -3.22518 0
M  V30 260 H 18.7954 4.00574 -4.61898 0
M  V30 261 H 22.9694 4.14442 -5.59653 0
M  V30 262 H 20.5964 4.2573 -6.29808 0
M  V30 263 N 22.1715 0.800033 1.35784 0
M  V30 264 C 23.4205 0.37387 1.98205 0
M  V30 265 C 23.7335 -1.06302 1.64193 0
M  V30 266 O 24.9395 -1.59198 2.19928 0
M  V30 267 C 23.3955 0.617532 3.54562 0
M  V30 268 C 23.0035 2.06654 3.9749 0
M  V30 269 C 24.7475 0.256401 4.23725 0
M  V30 270 C 22.6545 2.2563 5.46667 0
M  V30 271 H 21.5845 0.136055 0.741623 0
M  V30 272 H 24.2355 0.983166 1.54939 0
M  V30 273 H 22.6175 -0.0616248 3.95952 0
M  V30 274 H 23.7915 2.78296 3.67271 0
M  V30 275 H 22.1065 2.38691 3.41197 0
M  V30 276 H 24.7035 0.376318 5.33374 0
M  V30 277 H 25.0465 -0.796692 4.08606 0
M  V30 278 H 25.5795 0.889214 3.87734 0
M  V30 279 H 22.3185 3.2936 5.66747 0
M  V30 280 H 21.8385 1.58504 5.78478 0
M  V30 281 H 23.5175 2.06861 6.1304 0
M  V30 282 N 23.6496 -1.47581 0.552962 0
M  V30 283 C 24.5796 -2.32762 -0.185451 0
M  V30 284 C 25.5606 -1.43527 -0.912905 0
M  V30 285 O 26.7456 -1.72388 -0.894201 0
M  V30 286 C 23.8756 -3.25219 -1.21859 0
M  V30 287 C 22.8296 -4.23661 -0.607864 0
M  V30 288 C 22.1556 -5.05413 -1.74533 0
M  V30 289 C 23.4556 -5.20481 0.435582 0
M  V30 290 H 25.1496 -2.94749 0.525684 0
M  V30 291 H 22.6956 -1.41738 0.254251 0
M  V30 292 H 24.6486 -3.8365 -1.7433 0
M  V30 293 H 23.3726 -2.61279 -1.95961 0
M  V30 294 H 22.0316 -3.66451 -0.104489 0
M  V30 295 H 21.6796 -4.3788 -2.47529 0
M  V30 296 H 21.3796 -5.72059 -1.34249 0
M  V30 297 H 22.9036 -5.66701 -2.27338 0
M  V30 298 H 24.3176 -5.733 -0.00290157 0
M  V30 299 H 22.7146 -5.95305 0.757067 0
M  V30 300 H 23.7846 -4.66217 1.33303 0
M  V30 301 N 25.1277 -0.289203 -1.54924 0
M  V30 302 C 26.0907 0.579144 -2.21762 0
M  V30 303 C 27.0907 1.07047 -1.1999 0
M  V30 304 O 28.2807 0.968384 -1.44803 0
M  V30 305 C 25.4127 1.80055 -2.8947 0
M  V30 306 H 26.6057 -0.00464908 -2.999 0
M  V30 307 H 24.1587 -0.0399306 -1.56249 0
M  V30 308 H 24.8937 2.42449 -2.15381 0
M  V30 309 H 24.6787 1.45602 -3.64064 0
M  V30 310 H 26.1687 2.41773 -3.40493 0
M  V30 311 N 26.6058 1.57591 -0.0167156 0
M  V30 312 C 27.5378 2.06343 0.997753 0
M  V30 313 C 28.5508 0.984469 1.29661 0
M  V30 314 O 29.7398 1.26093 1.26344 0
M  V30 315 C 26.8398 2.46255 2.32834 0
M  V30 316 C 26.0128 3.77083 2.21646 0
M  V30 317 C 25.0718 4.0368 3.37534 0
M  V30 318 O 24.0978 4.7411 3.14973 0
M  V30 319 N 25.2998 3.52881 4.60929 0
M  V30 320 H 28.0648 2.93997 0.581875 0
M  V30 321 H 25.6258 1.61002 0.170316 0
M  V30 322 H 27.6178 2.61149 3.09166 0
M  V30 323 H 26.1878 1.64032 2.66106 0
M  V30 324 H 25.4078 3.72106 1.30119 0
M  V30 325 H 26.6958 4.62822 2.11361 0
M  V30 326 H 26.0938 2.95878 4.82154 0
M  V30 327 H 24.6508 3.73076 5.34469 0
M  V30 328 N 28.0839 -0.256276 1.55502 0
M  V30 329 C 29.0319 -1.33694 1.90338 0
M  V30 330 C 30.0259 -1.50299 0.781441 0
M  V30 331 O 31.2319 -1.51885 0.965966 0
M  V30 332 H 27.6069 -0.447483 0.60437 0
M  V30 333 H 29.5779 -1.01574 2.8058 0
M  V30 334 C 28.3269 -2.68724 2.20642 0
M  V30 335 H 27.6499 -2.56743 3.06469 0
M  V30 336 H 29.0899 -3.43237 2.48926 0
M  V30 337 C 27.5489 -3.21101 1.01959 0
M  V30 338 O 28.0789 -4.0084 0.262762 0
M  V30 339 N 26.2849 -2.79003 0.812746 0
M  V30 340 H 25.8319 -2.14271 1.42989 0
M  V30 341 H 25.7899 -3.14393 0.0203076 0
M  V30 342 N 29.562 -1.4872 -0.521534 0
M  V30 343 C 30.811 -1.56419 -1.27341 0
M  V30 344 C 31.124 -0.246805 -1.94037 0
M  V30 345 O 32.33 -0.202122 -2.70747 0
M  V30 346 C 30.786 -2.75896 -2.31105 0
M  V30 347 C 30.394 -4.14311 -1.70441 0
M  V30 348 C 32.138 -2.92913 -3.07249 0
M  V30 349 C 30.045 -5.25038 -2.72194 0
M  V30 350 H 28.975 -0.582344 -0.478949 0
M  V30 351 H 31.626 -1.75071 -0.549779 0
M  V30 352 H 30.008 -2.50697 -3.06541 0
M  V30 353 H 31.182 -4.49564 -1.01136 0
M  V30 354 H 29.497 -4.02482 -1.06759 0
M  V30 355 H 32.094 -3.72805 -3.83302 0
M  V30 356 H 32.437 -2.02689 -3.63625 0
M  V30 357 H 32.97 -3.18054 -2.38928 0
M  V30 358 H 29.709 -6.17255 -2.20627 0
M  V30 359 H 29.229 -4.94263 -3.39801 0
M  V30 360 H 30.908 -5.53508 -3.35019 0
M  V30 361 N 31.0401 0.771051 -1.3745 0
M  V30 362 C 31.9701 1.89827 -1.3597 0
M  V30 363 C 32.9511 1.68562 -0.228216 0
M  V30 364 O 34.1361 1.8941 -0.428675 0
M  V30 365 C 31.2661 3.2712 -1.16662 0
M  V30 366 C 30.2201 3.6295 -2.2683 0
M  V30 367 C 29.5461 4.98791 -1.92644 0
M  V30 368 C 30.8461 3.69627 -3.69017 0
M  V30 369 H 32.5401 1.91323 -2.30295 0
M  V30 370 H 30.0861 0.919082 -1.10855 0
M  V30 371 H 32.0391 4.05615 -1.14256 0
M  V30 372 H 30.7631 3.26059 -0.187926 0
M  V30 373 H 29.4221 2.86763 -2.28392 0
M  V30 374 H 29.0701 4.94271 -0.933021 0
M  V30 375 H 28.7701 5.23733 -2.66416 0
M  V30 376 H 30.2941 5.79685 -1.91826 0
M  V30 377 H 31.7081 4.38273 -3.69581 0
M  V30 378 H 30.1051 4.06067 -4.41848 0
M  V30 379 H 31.1751 2.70273 -4.02592 0
M  V30 380 N 32.5182 1.22032 0.997298 0
M  V30 381 C 33.7662 1.04016 1.73278 0
M  V30 382 C 34.0872 -0.426255 1.90284 0
M  V30 383 O 33.3572 -1.30694 1.45931 0
M  V30 384 H 31.9372 0.381897 0.642 0
M  V30 385 H 34.5992 1.5347 1.20137 0
M  V30 386 H 33.6952 1.51441 2.72896 0
M  V30 387 N 33.9963 -1.19345 1.0293 0
M  V30 388 C 34.9443 -2.24621 0.604001 0
M  V30 389 C 35.9383 -1.65452 -0.363587 0
M  V30 390 O 37.1443 -1.78497 -0.23212 0
M  V30 391 H 33.5193 -0.730858 0.177061 0
M  V30 392 H 35.4903 -2.5781 1.50255 0
M  V30 393 C 34.2393 -3.47688 -0.0289127 0
M  V30 394 H 33.5623 -3.93505 0.706651 0
M  V30 395 H 35.0023 -4.23011 -0.289432 0
M  V30 396 C 33.4613 -3.11817 -1.2756 0
M  V30 397 O 33.9913 -3.2451 -2.36762 0
M  V30 398 N 32.1973 -2.66246 -1.16453 0
M  V30 399 H 31.7443 -2.56118 -0.275914 0
M  V30 400 H 31.7023 -2.42617 -1.99961 0
M  V30 401 N 35.4744 -0.807222 -1.35358 0
M  V30 402 C 36.4374 -0.223665 -2.28106 0
M  V30 403 C 37.4374 0.589354 -1.4961 0
M  V30 404 O 38.6274 0.407745 -1.69361 0
M  V30 405 C 35.7594 0.688149 -3.33882 0
M  V30 406 H 36.9524 -1.04169 -2.81227 0
M  V30 407 H 34.5054 -0.577921 -1.45223 0
M  V30 408 H 35.2404 1.52984 -2.85948 0
M  V30 409 H 35.0254 0.10687 -3.91954 0
M  V30 410 H 36.5154 1.09075 -4.03104 0
M  V30 411 N 36.9525 1.47285 -0.560781 0
M  V30 412 C 38.1775 2.07359 -0.0410566 0
M  V30 413 C 38.6025 1.41017 1.24483 0
M  V30 414 O 37.9605 0.486368 1.74654 0
M  V30 415 C 38.0085 3.6035 0.134123 0
M  V30 416 O 37.1125 3.94681 1.19587 0
M  V30 417 H 36.4535 0.661887 -0.0529291 0
M  V30 418 H 38.9835 1.89252 -0.777482 0
M  V30 419 H 38.9935 4.0652 0.347207 0
M  V30 420 H 37.6685 4.08034 -0.805047 0
M  V30 421 H 36.2455 3.60251 0.962987 0
M  V30 422 N 38.4306 0.297415 1.54768 0
M  V30 423 C 39.6776 -0.312913 2.00068 0
M  V30 424 C 40.0056 -1.54171 1.18582 0
M  V30 425 O 39.2606 -1.94108 0.249133 0
M  V30 426 C 39.5596 -0.717561 3.50123 0
M  V30 427 C 39.2256 0.409095 4.4904 0
M  V30 428 C 37.8876 0.718399 4.75807 0
M  V30 429 C 40.2396 1.16717 5.07963 0
M  V30 430 C 37.5676 1.78896 5.5876 0
M  V30 431 C 39.9196 2.22762 5.92081 0
M  V30 432 C 38.5836 2.54303 6.1716 0
M  V30 433 H 37.8536 -0.114503 0.7321 0
M  V30 434 H 40.5006 0.415767 1.86932 0
M  V30 435 H 38.8056 -1.52627 3.60849 0
M  V30 436 H 40.5026 -1.20091 3.82595 0
M  V30 437 H 37.0926 0.157918 4.28309 0
M  V30 438 H 41.2766 0.941466 4.87289 0
M  V30 439 H 36.5326 2.0381 5.7643 0
M  V30 440 H 40.7066 2.81962 6.36765 0
M  V30 441 H 38.3336 3.3739 6.81229 0
M  V30 442 N 39.9087 -1.5758 0.0250728 0
M  V30 443 C 41.1857 -1.82917 -0.692873 0
M  V30 444 C 41.5657 -0.908137 -1.90568 0
M  V30 445 O 40.9137 0.0372298 -2.2847 0
M  V30 446 C 41.1237 -3.32034 -1.07492 0
M  V30 447 C 42.4717 -3.98406 -1.46826 0
M  V30 448 O 43.4957 -3.36505 -1.16801 0
M  V30 449 O 42.3547 -5.07497 -2.02754 0
M  V30 450 H 39.4487 -0.754079 -0.33955 0
M  V30 451 H 41.9947 -1.69619 0.0524456 0
M  V30 452 H 40.7667 -3.90728 -0.211552 0
M  V30 453 H 40.3897 -3.50424 -1.87854 0
M  V30 454 N 41.3868 0.248026 -1.55636 0
M  V30 455 C 42.2968 1.32859 -1.93354 0
M  V30 456 C 43.3128 1.52719 -0.833838 0
M  V30 457 O 44.4888 1.66363 -1.13513 0
M  V30 458 C 41.5538 2.66337 -2.21958 0
M  V30 459 C 40.6148 2.55008 -3.45354 0
M  V30 460 C 39.8478 3.82121 -3.72584 0
M  V30 461 O 40.0708 4.83951 -3.01907 0
M  V30 462 O 39.0048 3.80822 -4.6611 0
M  V30 463 H 42.8308 1.03862 -2.85388 0
M  V30 464 H 40.4158 0.448686 -1.42503 0
M  V30 465 H 42.2978 3.45216 -2.4167 0
M  V30 466 H 40.9728 2.95068 -1.33103 0
M  V30 467 H 39.8798 1.7442 -3.30951 0
M  V30 468 H 41.2128 2.31222 -4.34508 0
M  V30 469 N 42.8649 1.48995 0.513639 0
M  V30 470 C 44.2759 1.5119 1.09537 0
M  V30 471 C 44.6269 0.290906 1.94031 0
M  V30 472 O 43.7519 -0.60049 2.07902 0
M  V30 473 C 44.3469 2.73964 1.99322 0
M  V30 474 C 42.9059 2.78978 2.52682 0
M  V30 475 C 42.0529 2.44934 1.30009 0
M  V30 476 H 45.0039 1.55875 0.298125 0
M  V30 477 H 45.0249 2.53409 2.83838 0
M  V30 478 H 44.5369 3.62813 1.37799 0
M  V30 479 H 42.6379 1.94378 3.1788 0
M  V30 480 H 42.7509 3.8083 2.90698 0
M  V30 481 H 41.1149 1.9644 1.62122 0
M  V30 482 H 41.8979 3.36043 0.702131 0
M  V30 483 N 44.343 -0.763751 1.37857 0
M  V30 484 C 45.592 -1.51789 1.32827 0
M  V30 485 C 45.905 -1.95426 -0.0823719 0
M  V30 486 O 47.111 -2.70298 -0.255172 0
M  V30 487 C 45.567 -2.74133 2.33193 0
M  V30 488 C 45.175 -2.37562 3.79827 0
M  V30 489 C 46.919 -3.52054 2.37188 0
M  V30 490 C 44.826 -3.56456 4.71904 0
M  V30 491 H 43.756 -0.569896 0.493695 0
M  V30 492 H 46.407 -0.835822 1.63359 0
M  V30 493 H 44.789 -3.4427 1.9569 0
M  V30 494 H 45.963 -1.75157 4.26212 0
M  V30 495 H 44.278 -1.72798 3.78853 0
M  V30 496 H 46.875 -4.40437 3.03182 0
M  V30 497 H 47.218 -3.92486 1.38782 0
M  V30 498 H 47.751 -2.88921 2.7344 0
M  V30 499 H 44.49 -3.21099 5.71468 0
M  V30 500 H 44.01 -4.17938 4.30218 0
M  V30 501 H 45.689 -4.23168 4.89426 0
M  V30 502 N 45.8211 -1.22559 -0.990812 0
M  V30 503 C 46.7511 -1.0218 -2.09956 0
M  V30 504 C 47.7321 0.0579394 -1.70001 0
M  V30 505 O 48.9171 -0.104684 -1.93918 0
M  V30 506 C 46.0471 -0.601023 -3.4206 0
M  V30 507 C 45.0011 -1.62694 -3.95872 0
M  V30 508 C 44.3271 -1.06193 -5.24049 0
M  V30 509 C 45.6271 -3.01743 -4.2632 0
M  V30 510 H 47.3211 -1.94916 -2.27262 0
M  V30 511 H 44.8671 -0.938566 -1.09211 0
M  V30 512 H 46.8201 -0.445561 -4.19038 0
M  V30 513 H 45.5441 0.362005 -3.24588 0
M  V30 514 H 44.2031 -1.77021 -3.21028 0
M  V30 515 H 43.8511 -0.0901903 -5.02919 0
M  V30 516 H 43.5511 -1.74732 -5.61019 0
M  V30 517 H 45.0751 -0.918092 -6.03658 0
M  V30 518 H 46.4891 -2.90777 -4.94087 0
M  V30 519 H 44.8861 -3.67425 -4.74467 0
M  V30 520 H 45.9561 -3.51518 -3.34011 0
M  V30 521 N 47.2992 1.18797 -1.03562 0
M  V30 522 C 48.5482 1.87978 -0.731235 0
M  V30 523 C 48.8612 1.80911 0.743671 0
M  V30 524 O 50.0672 2.45407 1.16137 0
M  V30 525 C 48.5232 3.3721 -1.25768 0
M  V30 526 C 48.1312 3.52818 -2.76085 0
M  V30 527 C 49.8752 4.11825 -1.0296 0
M  V30 528 C 47.7822 4.9598 -3.22114 0
M  V30 529 H 46.7122 0.704063 -0.269835 0
M  V30 530 H 49.3632 1.34266 -1.25079 0
M  V30 531 H 47.7452 3.90359 -0.666011 0
M  V30 532 H 48.9192 3.09965 -3.40966 0
M  V30 533 H 47.2342 2.91602 -2.97249 0
M  V30 534 H 49.8312 5.17411 -1.34869 0
M  V30 535 H 50.1742 4.16287 0.0333546 0
M  V30 536 H 50.7072 3.64833 -1.58562 0
M  V30 537 H 47.4462 4.96684 -4.27768 0
M  V30 538 H 46.9662 5.39569 -2.61965 0
M  V30 539 H 48.6452 5.6467 -3.15844 0
M  V30 540 N 48.7773 0.814389 1.34928 0
M  V30 541 C 49.7403 0.235759 2.27984 0
M  V30 542 C 50.7403 -0.581412 1.49921 0
M  V30 543 O 51.9303 -0.398758 1.69575 0
M  V30 544 C 49.0623 -0.670433 3.34242 0
M  V30 545 H 50.2553 1.05659 2.80671 0
M  V30 546 H 47.8083 0.585614 1.44915 0
M  V30 547 H 48.5433 -1.51466 2.86755 0
M  V30 548 H 48.3283 -0.0860822 3.92005 0
M  V30 549 H 49.8183 -1.06935 4.03676 0
M  V30 550 N 50.2554 -1.46986 0.568584 0
M  V30 551 C 51.5034 -2.02041 0.0487022 0
M  V30 552 C 51.8244 -1.44408 -1.31039 0
M  V30 553 O 51.0944 -0.623477 -1.85714 0
M  V30 554 H 49.6744 -0.746849 0.015014 0
M  V30 555 H 52.3364 -1.80257 0.741168 0
M  V30 556 H 51.4324 -3.12085 -0.0308961 0
M  V30 557 N 51.7335 -0.305618 -1.54608 0
M  V30 558 C 52.9795 0.302746 -2.00528 0
M  V30 559 C 53.3125 1.53184 -1.19367 0
M  V30 560 O 52.5875 1.92598 -0.271321 0
M  V30 561 C 52.8705 0.654756 -3.54097 0
M  V30 562 C 52.7235 -0.583793 -4.45995 0
M  V30 563 C 54.0425 1.47947 -4.14487 0
M  V30 564 H 51.1615 0.108564 -0.72896 0
M  V30 565 H 53.8035 -0.418634 -1.85331 0
M  V30 566 H 51.9535 1.26935 -3.67178 0
M  V30 567 H 53.6255 -1.22224 -4.44814 0
M  V30 568 H 51.8685 -1.21615 -4.16404 0
M  V30 569 H 52.5395 -0.293287 -5.5122 0
M  V30 570 H 55.0155 0.96013 -4.04871 0
M  V30 571 H 53.8915 1.69454 -5.22088 0
M  V30 572 H 54.1525 2.47011 -3.66658 0
M  V30 573 N 53.2116 1.57565 -0.0334293 0
M  V30 574 C 54.4886 1.83282 0.683163 0
M  V30 575 C 54.8686 0.91823 1.90084 0
M  V30 576 O 54.2166 -0.025113 2.28486 0
M  V30 577 C 54.4266 3.32599 1.0573 0
M  V30 578 C 55.7746 3.99179 1.44711 0
M  V30 579 O 56.7986 3.3712 1.15015 0
M  V30 580 O 55.6576 5.08565 2.0006 0
M  V30 581 H 52.7516 0.755869 0.335546 0
M  V30 582 H 55.2976 1.69589 -0.0614402 0
M  V30 583 H 54.0696 3.90834 0.190828 0
M  V30 584 H 53.6926 3.51415 1.85993 0
M  V30 585 N 54.6897 -0.239769 1.55765 0
M  V30 586 C 55.9387 -0.964754 1.77131 0
M  V30 587 C 56.2517 -1.86213 0.59868 0
M  V30 588 O 57.4577 -2.6244 0.695522 0
M  V30 589 C 55.9137 -1.76552 3.1362 0
M  V30 590 C 55.5217 -0.915185 4.38553 0
M  V30 591 C 57.2657 -2.48281 3.44321 0
M  V30 592 C 55.1727 -1.71225 5.66071 0
M  V30 593 H 54.1027 -0.363953 0.660344 0
M  V30 594 H 56.7537 -0.219181 1.82186 0
M  V30 595 H 55.1357 -2.55331 3.02691 0
M  V30 596 H 56.3097 -0.169217 4.60489 0
M  V30 597 H 54.6247 -0.310889 4.15238 0
M  V30 598 H 57.2217 -3.08382 4.36812 0
M  V30 599 H 57.5647 -3.20256 2.65973 0
M  V30 600 H 58.0977 -1.76507 3.56497 0
M  V30 601 H 54.8367 -1.03612 6.4726 0
M  V30 602 H 54.3567 -2.43331 5.48224 0
M  V30 603 H 56.0357 -2.27758 6.05587 0
M  V30 604 N 56.1678 -1.49265 -0.50573 0
M  V30 605 C 57.4448 -1.49012 -1.26707 0
M  V30 606 C 57.8248 -0.215205 -2.1 0
M  V30 607 O 57.1728 0.802547 -2.13943 0
M  V30 608 C 57.3828 -2.7663 -2.12783 0
M  V30 609 C 58.7308 -3.25932 -2.72127 0
M  V30 610 O 59.7548 -2.77715 -2.23054 0
M  V30 611 O 58.6138 -4.09897 -3.61451 0
M  V30 612 H 55.7078 -0.596197 -0.57313 0
M  V30 613 H 58.2538 -1.61524 -0.52039 0
M  V30 614 H 57.0258 -3.60916 -1.5118 0
M  V30 615 H 56.6488 -2.66956 -2.94653 0
M  V30 616 N 57.6459 0.756429 -1.3826 0
M  V30 617 C 59.0569 1.33359 -1.30661 0
M  V30 618 C 59.4079 1.96161 0.0388875 0
M  V30 619 O 58.5329 1.94874 0.940918 0
M  V30 620 C 59.1279 2.42477 -2.36622 0
M  V30 621 C 57.6869 2.95922 -2.3261 0
M  V30 622 C 56.8339 1.69275 -2.19639 0
M  V30 623 H 59.7849 0.55552 -1.4866 0
M  V30 624 H 59.8059 3.22345 -2.02174 0
M  V30 625 H 59.3179 1.96739 -3.34538 0
M  V30 626 H 57.4189 3.45996 -1.38267 0
M  V30 627 H 57.5319 3.50494 -3.26636 0
M  V30 628 H 55.8959 1.92793 -1.66442 0
M  V30 629 H 56.6789 1.25619 -3.19491 0
M  V30 630 N 59.124 1.23083 0.984299 0
M  V30 631 C 60.535 1.05609 1.5396 0
M  V30 632 C 60.886 -0.377793 1.92528 0
M  V30 633 O 60.011 -1.26398 1.75649 0
M  V30 634 C 60.606 1.91087 2.7977 0
M  V30 635 C 59.165 1.77885 3.31713 0
M  V30 636 C 58.312 1.87028 2.04733 0
M  V30 637 H 61.263 1.36802 0.804419 0
M  V30 638 H 61.284 1.43336 3.5247 0
M  V30 639 H 60.796 2.9544 2.51668 0
M  V30 640 H 58.897 0.762995 3.64704 0
M  V30 641 H 59.01 2.61047 4.01735 0
M  V30 642 H 57.374 1.30565 2.18689 0
M  V30 643 H 58.157 2.92929 1.79017 0
M  V30 644 N 60.6021 -1.18246 1.0419 0
M  V30 645 C 61.5651 -2.20128 0.638452 0
M  V30 646 C 62.5651 -1.57885 -0.304805 0
M  V30 647 O 63.7551 -1.73967 -0.0900369 0
M  V30 648 C 60.8871 -3.4084 -0.0637751 0
M  V30 649 H 62.0801 -2.57336 1.54007 0
M  V30 650 H 59.6331 -1.32152 0.834598 0
M  V30 651 H 60.3681 -3.09166 -0.979136 0
M  V30 652 H 60.1531 -3.8726 0.614198 0
M  V30 653 H 61.6431 -4.16274 -0.332512 0
M  V30 654 N 62.0802 -0.821533 -1.34494 0
M  V30 655 C 62.9902 -0.244355 -2.33324 0
M  V30 656 C 64.0062 0.620527 -1.62559 0
M  V30 657 O 65.1822 0.528754 -1.94335 0
M  V30 658 C 62.2472 0.585368 -3.41723 0
M  V30 659 C 61.3082 -0.301752 -4.28238 0
M  V30 660 C 60.5412 0.488466 -5.3146 0
M  V30 661 O 60.7642 1.72186 -5.4379 0
M  V30 662 O 59.6982 -0.12848 -6.01763 0
M  V30 663 H 63.5242 -1.06231 -2.84515 0
M  V30 664 H 61.1092 -0.583645 -1.37528 0
M  V30 665 H 62.9912 1.05747 -4.07916 0
M  V30 666 H 61.6662 1.38068 -2.92778 0
M  V30 667 H 60.5732 -0.821315 -3.64973 0
M  V30 668 H 61.9062 -1.06138 -4.8062 0
M  V30 669 N 63.5583 1.46682 -0.576371 0
M  V30 670 C 64.8353 1.95599 0.00703437 0
M  V30 671 C 65.2153 1.51904 1.46589 0
M  V30 672 O 64.5633 0.766755 2.15251 0
M  V30 673 C 64.7733 3.4864 -0.158404 0
M  V30 674 C 66.1213 4.24594 -0.0229439 0
M  V30 675 O 67.1453 3.56094 -0.0869173 0
M  V30 676 O 66.0043 5.46373 0.118015 0
M  V30 677 H 63.0983 0.825275 0.053384 0
M  V30 678 H 65.6443 1.56996 -0.644244 0
M  V30 679 H 64.4163 3.7331 -1.17282 0
M  V30 680 H 64.0393 3.94057 0.5296 0
M  V30 681 N 65.0364 0.313813 1.54444 0
M  V30 682 C 66.2844 -0.291099 1.99993 0
M  V30 683 C 66.6054 -1.53418 1.20366 0
M  V30 684 O 65.8754 -1.93544 0.302927 0
M  V30 685 H 64.4554 -0.110552 0.738774 0
M  V30 686 H 67.1174 0.428106 1.9014 0
M  V30 687 H 66.2134 -0.554268 3.07139 0
M  V30 688 N 66.5145 -1.57545 0.0417849 0
M  V30 689 C 67.7395 -1.97035 -0.647455 0
M  V30 690 C 68.1645 -0.918775 -1.64135 0
M  V30 691 O 67.5225 0.119006 -1.80909 0
M  V30 692 C 67.5705 -3.35609 -1.31905 0
M  V30 693 O 66.6745 -3.3287 -2.43457 0
M  V30 694 H 66.0155 -0.64211 -0.169086 0
M  V30 695 H 68.5455 -2.04318 0.107399 0
M  V30 696 H 68.5555 -3.72126 -1.67291 0
M  V30 697 H 67.2305 -4.11685 -0.590586 0
M  V30 698 H 65.8075 -3.08087 -2.10088 0
M  V30 699 N 67.9926 0.231505 -1.5589 0
M  V30 700 C 69.2416 0.955346 -1.7764 0
M  V30 701 C 69.5546 1.85893 -0.608546 0
M  V30 702 O 70.7606 2.62067 -0.70943 0
M  V30 703 C 69.2166 1.74886 -3.14552 0
M  V30 704 C 68.8246 0.891915 -4.39032 0
M  V30 705 C 70.5686 2.46452 -3.45633 0
M  V30 706 C 68.4756 1.68221 -5.66971 0
M  V30 707 H 67.4056 0.360446 -0.662265 0
M  V30 708 H 70.0566 0.209516 -1.823 0
M  V30 709 H 68.4386 2.53723 -3.04041 0
M  V30 710 H 69.6126 0.144793 -4.60572 0
M  V30 711 H 67.9276 0.288863 -4.15397 0
M  V30 712 H 70.5246 3.06061 -4.38441 0
M  V30 713 H 70.8676 3.18841 -2.67668 0
M  V30 714 H 71.4006 1.74613 -3.57428 0
M  V30 715 H 68.1396 1.00178 -6.478 0
M  V30 716 H 67.6596 2.4042 -5.49507 0
M  V30 717 H 69.3386 2.24544 -6.06786 0
M  V30 718 N 69.4707 1.49531 0.497807 0
M  V30 719 C 70.7477 1.49682 1.25915 0
M  V30 720 C 71.1277 0.226339 2.09883 0
M  V30 721 O 70.4757 -0.791189 2.14365 0
M  V30 722 C 70.6857 2.77755 2.11313 0
M  V30 723 C 72.0337 3.27371 2.70395 0
M  V30 724 O 73.0577 2.78894 2.21578 0
M  V30 725 O 71.9167 4.11808 3.59272 0
M  V30 726 H 69.0107 0.599228 0.56996 0
M  V30 727 H 71.5567 1.61798 0.511816 0
M  V30 728 H 70.3287 3.61713 1.49264 0
M  V30 729 H 69.9517 2.68515 2.93233 0
M  V30 730 N 70.9488 -0.749086 1.3866 0
M  V30 731 C 72.1768 -1.53834 1.38358 0
M  V30 732 C 72.5918 -1.88783 -0.0255219 0
M  V30 733 O 71.9488 -1.53101 -0.993292 0
M  V30 734 C 71.9998 -2.83468 2.2434 0
M  V30 735 O 71.7208 -2.50008 3.5976 0
M  V30 736 C 73.2218 -3.7758 2.32267 0
M  V30 737 H 70.4418 -0.47585 0.473083 0
M  V30 738 H 72.9858 -0.926726 1.82297 0
M  V30 739 H 71.1408 -3.40995 1.83851 0
M  V30 740 H 71.5548 -3.33182 4.05081 0
M  V30 741 H 73.0288 -4.65478 2.96706 0
M  V30 742 H 73.5058 -4.18334 1.33765 0
M  V30 743 H 74.1118 -3.25976 2.73166 0
M  V30 744 N 72.4269 -1.23603 -0.977757 0
M  V30 745 C 73.6749 -1.06759 -1.71601 0
M  V30 746 C 73.9959 0.395929 -1.90938 0
M  V30 747 O 73.2659 1.28356 -1.47992 0
M  V30 748 H 71.8459 -0.392062 -0.635843 0
M  V30 749 H 74.5079 -1.55362 -1.1768 0
M  V30 750 H 73.6039 -1.55763 -2.70452 0
M  V30 751 N 73.905 1.17692 -1.04816 0
M  V30 752 C 75.153 1.87488 -0.754497 0
M  V30 753 C 75.474 1.81205 0.720407 0
M  V30 754 O 74.744 1.23544 1.52032 0
M  V30 755 H 73.324 0.694101 -0.276102 0
M  V30 756 H 75.986 1.42793 -1.32651 0
M  V30 757 H 75.082 2.93328 -1.06606 0
M  V30 758 N 75.3831 0.828654 1.34056 0
M  V30 759 C 76.3311 0.242973 2.31327 0
M  V30 760 C 77.3251 -0.61944 1.57668 0
M  V30 761 O 78.5311 -0.51014 1.7262 0
M  V30 762 H 74.9061 0.059834 0.749616 0
M  V30 763 H 76.8771 1.07809 2.78244 0
M  V30 764 C 75.6261 -0.575733 3.429 0
M  V30 765 H 74.9491 0.0785582 3.99723 0
M  V30 766 H 76.3891 -0.951547 4.13185 0
M  V30 767 C 74.8481 -1.75044 2.87856 0
M  V30 768 O 75.3781 -2.84882 2.83205 0
M  V30 769 N 73.5841 -1.56903 2.44602 0
M  V30 770 H 73.1311 -0.675547 2.48584 0
M  V30 771 H 73.0891 -2.35652 2.08124 0
M  V30 772 N 76.8612 -1.46375 0.584142 0
M  V30 773 C 78.1072 -2.03248 0.0787103 0
M  V30 774 C 78.4622 -1.44737 -1.26763 0
M  V30 775 O 77.7552 -0.603625 -1.81843 0
M  V30 776 C 77.9492 -3.57373 -0.0439342 0
M  V30 777 C 77.7782 -4.30831 1.28897 0
M  V30 778 C 76.5482 -4.69683 1.8635 0
M  V30 779 C 78.7462 -4.64278 2.21248 0
M  V30 780 N 76.7282 -5.27898 3.13365 0
M  V30 781 C 78.0992 -5.23078 3.32851 0
M  V30 782 C 80.1542 -4.46209 2.20911 0
M  V30 783 C 78.8572 -5.65715 4.44251 0
M  V30 784 C 80.8832 -4.89864 3.31341 0
M  V30 785 C 80.2452 -5.48736 4.41665 0
M  V30 786 H 76.3442 -0.778714 0.0716144 0
M  V30 787 H 78.9282 -1.78509 0.777355 0
M  V30 788 H 77.0992 -3.81823 -0.711749 0
M  V30 789 H 78.8312 -4.00892 -0.553881 0
M  V30 790 H 75.5862 -4.52488 1.39826 0
M  V30 791 H 76.0102 -5.61525 3.78178 0
M  V30 792 H 80.6522 -4.00027 1.36888 0
M  V30 793 H 78.3702 -6.10875 5.29015 0
M  V30 794 H 81.9562 -4.77634 3.322 0
M  V30 795 H 80.8362 -5.81898 5.25704 0
M  V30 796 N 78.3393 -0.321999 -1.54275 0
M  V30 797 C 79.5853 0.281461 -2.00837 0
M  V30 798 C 79.9183 1.51909 -1.20985 0
M  V30 799 O 79.1933 1.923 -0.291733 0
M  V30 800 C 79.4763 0.617162 -3.54772 0
M  V30 801 C 79.3293 -0.631064 -4.45351 0
M  V30 802 C 80.6483 1.43542 -4.16033 0
M  V30 803 H 77.7673 0.100826 -0.730071 0
M  V30 804 H 80.4093 -0.438268 -1.84876 0
M  V30 805 H 78.5593 1.23034 -3.68504 0
M  V30 806 H 80.2313 -1.26934 -4.43492 0
M  V30 807 H 78.4743 -1.26025 -4.15091 0
M  V30 808 H 79.1453 -0.351735 -5.50878 0
M  V30 809 H 81.6213 0.917134 -4.05867 0
M  V30 810 H 80.4973 1.63907 -5.23856 0
M  V30 811 H 80.7583 2.43108 -3.69257 0
M  V30 812 N 79.8174 1.5752 -0.0501392 0
M  V30 813 C 81.0644 1.9265 0.623874 0
M  V30 814 C 81.3924 0.928411 1.70912 0
M  V30 815 O 80.6474 -0.0594525 1.9561 0
M  V30 816 C 80.9464 3.34467 1.25963 0
M  V30 817 C 80.6124 4.49883 0.302689 0
M  V30 818 C 79.2744 4.81184 0.0393636 0
M  V30 819 C 81.6264 5.20002 -0.353205 0
M  V30 820 C 78.9544 5.79951 -0.887308 0
M  V30 821 C 81.3064 6.1976 -1.26806 0
M  V30 822 C 79.9704 6.49491 -1.54007 0
M  V30 823 H 79.2404 0.704957 0.228292 0
M  V30 824 H 81.8874 1.91146 -0.116398 0
M  V30 825 H 80.1924 3.32333 2.07514 0
M  V30 826 H 81.8894 3.58928 1.78806 0
M  V30 827 H 78.4794 4.25457 0.518109 0
M  V30 828 H 82.6634 4.96033 -0.162854 0
M  V30 829 H 77.9194 6.01322 -1.10553 0
M  V30 830 H 82.0934 6.73205 -1.78236 0
M  V30 831 H 79.7204 7.25837 -2.25976 0
M  V30 832 N 81.2955 -0.223234 1.56011 0
M  V30 833 C 82.5425 -0.947875 1.78946 0
M  V30 834 C 82.8705 -1.844 0.618608 0
M  V30 835 O 82.1255 -1.91629 -0.397093 0
M  V30 836 C 82.4245 -1.81948 3.0762 0
M  V30 837 C 82.0905 -1.07672 4.37856 0
M  V30 838 C 80.7525 -0.871544 4.73242 0
M  V30 839 C 83.1045 -0.552081 5.18268 0
M  V30 840 C 80.4325 -0.129791 5.86556 0
M  V30 841 C 82.7845 0.17632 6.32354 0
M  V30 842 C 81.4485 0.39277 6.66343 0
M  V30 843 H 80.7185 -0.346852 0.654809 0
M  V30 844 H 83.3655 -0.216171 1.90276 0
M  V30 845 H 81.6705 -2.61899 2.91404 0
M  V30 846 H 83.3675 -2.38227 3.22566 0
M  V30 847 H 79.9575 -1.24662 4.1007 0
M  V30 848 H 84.1415 -0.698076 4.91366 0
M  V30 849 H 79.3975 0.048153 6.11381 0
M  V30 850 H 83.5715 0.590367 6.93893 0
M  V30 851 H 81.1985 0.969466 7.53993 0
M  V30 852 N 82.7736 -1.49793 -0.48987 0
M  V30 853 C 84.0016 -1.63568 -1.26701 0
M  V30 854 C 84.4166 -0.311465 -1.86213 0
M  V30 855 O 83.7736 0.704416 -1.68357 0
M  V30 856 C 83.8246 -2.71284 -2.38929 0
M  V30 857 O 83.5456 -3.9857 -1.81861 0
M  V30 858 C 85.0466 -2.95864 -3.3012 0
M  V30 859 H 82.2666 -0.550342 -0.383881 0
M  V30 860 H 84.8106 -1.95898 -0.586864 0
M  V30 861 H 82.9656 -2.417 -3.02753 0
M  V30 862 H 83.3796 -4.57993 -2.55622 0
M  V30 863 H 84.8536 -3.74941 -4.05121 0
M  V30 864 H 85.3306 -2.06206 -3.87783 0
M  V30 865 H 85.9366 -3.26907 -2.72051 0
M  V30 866 N 84.2517 0.741722 -1.39055 0
M  V30 867 C 85.1997 1.87702 -1.3737 0
M  V30 868 C 86.1937 1.67427 -0.257812 0
M  V30 869 O 87.3997 1.7485 -0.427489 0
M  V30 870 H 83.7747 0.617757 -0.428812 0
M  V30 871 H 85.7457 1.86239 -2.33147 0
M  V30 872 C 84.4947 3.25315 -1.22741 0
M  V30 873 H 83.8177 3.41509 -2.07873 0
M  V30 874 H 85.2577 4.04964 -1.25618 0
M  V30 875 C 83.7167 3.36838 0.0647316 0
M  V30 876 O 84.2467 3.88073 1.03741 0
M  V30 877 N 82.4527 2.90329 0.125544 0
M  V30 878 H 81.9997 2.48823 -0.666682 0
M  V30 879 H 81.9577 2.98418 0.989639 0
M  V30 880 N 85.7298 1.2412 0.971189 0
M  V30 881 C 86.9548 1.10667 1.75407 0
M  V30 882 C 87.3798 -0.337048 1.85056 0
M  V30 883 O 86.7378 -1.24396 1.31892 0
M  V30 884 C 86.7858 1.74726 3.15441 0
M  V30 885 O 85.8898 1.01566 3.99697 0
M  V30 886 H 85.2308 0.387341 0.539317 0
M  V30 887 H 87.7608 1.64358 1.2185 0
M  V30 888 H 87.7708 1.80341 3.6598 0
M  V30 889 H 86.4458 2.79773 3.07734 0
M  V30 890 H 85.0228 1.03713 3.58187 0
M  V30 891 N 87.2079 -1.17134 1.05439 0
M  V30 892 C 88.1559 -2.23289 0.651511 0
M  V30 893 C 89.1499 -1.66186 -0.328411 0
M  V30 894 O 90.3559 -1.78949 -0.194206 0
M  V30 895 H 86.7309 -0.726938 0.192523 0
M  V30 896 H 88.7019 -2.54565 1.55689 0
M  V30 897 C 87.4509 -3.47671 0.0448436 0
M  V30 898 H 86.7739 -3.91918 0.78996 0
M  V30 899 H 88.2139 -4.2353 -0.19964 0
M  V30 900 C 86.6729 -3.14453 -1.20918 0
M  V30 901 O 87.2029 -3.29459 -2.29825 0
M  V30 902 N 85.4089 -2.68657 -1.10779 0
M  V30 903 H 84.9559 -2.56646 -0.221526 0
M  V30 904 H 84.9139 -2.46804 -1.9477 0
M  V30 905 N 88.686 -0.835752 -1.33615 0
M  V30 906 C 89.934 -0.429109 -1.97492 0
M  V30 907 C 90.255 1.01433 -1.66543 0
M  V30 908 O 89.525 1.70611 -0.962744 0
M  V30 909 H 88.105 -0.155686 -0.730596 0
M  V30 910 H 90.767 -1.06802 -1.63031 0
M  V30 911 H 89.863 -0.55861 -3.0706 0
M  V30 912 N 90.1641 1.46063 -0.591896 0
M  V30 913 C 91.0741 2.34192 0.13831 0
M  V30 914 C 92.0901 1.50305 0.876608 0
M  V30 915 O 93.2661 1.8315 0.837728 0
M  V30 916 C 90.3311 3.27656 1.13326 0
M  V30 917 C 89.3921 4.27445 0.39863 0
M  V30 918 C 88.6251 5.16443 1.34618 0
M  V30 919 O 88.8481 5.08553 2.58321 0
M  V30 920 O 87.7821 5.95843 0.851768 0
M  V30 921 H 91.6081 2.98002 -0.58552 0
M  V30 922 H 89.1931 1.45188 -0.352239 0
M  V30 923 H 91.0751 3.85291 1.70671 0
M  V30 924 H 89.7501 2.6643 1.83839 0
M  V30 925 H 88.6571 3.73471 -0.216895 0
M  V30 926 H 89.9901 4.91482 -0.265709 0
M  V30 927 N 91.6422 0.330177 1.54103 0
M  V30 928 C 92.8902 -0.269871 2.0029 0
M  V30 929 C 93.2112 -1.52133 1.21986 0
M  V30 930 O 92.4812 -1.93212 0.323438 0
M  V30 931 H 91.0612 -0.10271 0.739905 0
M  V30 932 H 93.7232 0.448249 1.89675 0
M  V30 933 H 92.8192 -0.52166 3.07709 0
M  V30 934 N 93.1203 -1.57491 0.0584922 0
M  V30 935 C 94.3483 -1.97296 -0.623037 0
M  V30 936 C 94.7633 -0.936338 -1.63946 0
M  V30 937 O 94.1203 0.0785981 -1.82331 0
M  V30 938 C 94.1713 -3.37183 -1.30345 0
M  V30 939 O 93.8923 -4.36872 -0.32773 0
M  V30 940 C 95.3933 -3.91788 -2.07406 0
M  V30 941 H 92.6133 -0.649153 -0.169826 0
M  V30 942 H 95.1573 -2.04106 0.12696 0
M  V30 943 H 93.3123 -3.31502 -2.00463 0
M  V30 944 H 93.7263 -5.18141 -0.814269 0
M  V30 945 H 95.2003 -4.91926 -2.50425 0
M  V30 946 H 95.6773 -3.27609 -2.92521 0
M  V30 947 H 96.2833 -4.00829 -1.42184 0
M  V30 948 N 94.5984 0.214957 -1.56127 0
M  V30 949 C 95.5614 1.24997 -1.92116 0
M  V30 950 C 96.5614 1.39467 -0.800344 0
M  V30 951 O 97.7514 1.37619 -1.06802 0
M  V30 952 C 94.8834 2.62271 -2.17777 0
M  V30 953 H 96.0764 0.942875 -2.84693 0
M  V30 954 H 93.6294 0.455654 -1.49511 0
M  V30 955 H 94.3644 2.98068 -1.27773 0
M  V30 956 H 94.1494 2.53143 -2.99434 0
M  V30 957 H 95.6394 3.36946 -2.46693 0
M  V30 958 N 96.0765 1.50051 0.48192 0
M  V30 959 C 97.4925 1.37237 0.814756 0
M  V30 960 C 97.6925 0.420109 1.97072 0
M  V30 961 O 96.7485 -0.141246 2.52105 0
M  V30 962 C 98.0615 2.78375 1.13701 0
M  V30 963 C 99.6095 2.87213 1.2441 0
M  V30 964 C 100.084 4.29161 1.59954 0
M  V30 965 N 101.575 4.32061 1.66967 0
M  V30 966 C 102.31 5.38879 1.95952 0
M  V30 967 N 101.806 6.55918 2.23031 0
M  V30 968 N 103.599 5.26312 1.97363 0
M  V30 969 H 95.7505 2.10546 -0.28005 0
M  V30 970 H 98.0135 0.945921 -0.0627454 0
M  V30 971 H 97.7195 3.49845 0.360787 0
M  V30 972 H 97.5935 3.14941 2.07586 0
M  V30 973 H 99.9805 2.15969 2.01101 0
M  V30 974 H 100.061 2.54204 0.285299 0
M  V30 975 H 99.7055 5.00938 0.838067 0
M  V30 976 H 99.6355 4.59648 2.56966 0
M  V30 977 H 102.126 3.47661 1.48123 0
M  V30 978 H 102.439 7.33139 2.44391 0
M  V30 979 H 100.784 6.59112 2.20447 0
M  V30 980 H 103.975 4.33876 1.75697 0
M  V30 981 H 104.148 6.09649 2.19618 0
M  V30 982 N 97.5546 -0.734337 1.39446 0
M  V30 983 C 98.8006 -1.49613 1.36908 0
M  V30 984 C 99.1336 -1.94169 -0.0347829 0
M  V30 985 O 98.4086 -1.66833 -0.999847 0
M  V30 986 C 98.6916 -2.73534 2.34203 0
M  V30 987 C 98.5446 -2.34993 3.83534 0
M  V30 988 C 99.8636 -3.75635 2.29317 0
M  V30 989 H 96.9826 -0.542714 0.498629 0
M  V30 990 H 99.6246 -0.839597 1.70443 0
M  V30 991 H 97.7746 -3.29553 2.05736 0
M  V30 992 H 99.4466 -1.84601 4.22753 0
M  V30 993 H 97.6896 -1.67213 4.00278 0
M  V30 994 H 98.3606 -3.23738 4.47099 0
M  V30 995 H 100.837 -3.29203 2.54489 0
M  V30 996 H 99.7126 -4.60008 2.99472 0
M  V30 997 H 99.9736 -4.22603 1.29842 0
M  V30 998 N 99.0327 -1.24633 -0.964593 0
M  V30 999 C 99.9427 -1.05859 -2.09359 0
M  V30 1000 C 100.959 0.00148855 -1.74 0
M  V30 1001 O 102.135 -0.197346 -2.00431 0
M  V30 1002 C 99.1997 -0.668879 -3.40187 0
M  V30 1003 C 98.2607 -1.80578 -3.89474 0
M  V30 1004 C 97.4937 -1.43457 -5.14058 0
M  V30 1005 O 97.7167 -0.325775 -5.69469 0
M  V30 1006 O 96.6507 -2.2613 -5.57807 0
M  V30 1007 H 100.477 -2.00516 -2.28094 0
M  V30 1008 H 98.0617 -1.03481 -1.0776 0
M  V30 1009 H 99.9437 -0.463211 -4.18846 0
M  V30 1010 H 98.6187 0.248536 -3.22744 0
M  V30 1011 H 97.5257 -2.06623 -3.11862 0
M  V30 1012 H 98.8587 -2.70208 -4.11398 0
M  V30 1013 N 100.511 1.16574 -1.06058 0
M  V30 1014 C 101.459 2.22941 -0.663343 0
M  V30 1015 C 102.453 1.66358 0.319593 0
M  V30 1016 O 103.659 1.7905 0.184713 0
M  V30 1017 H 100.034 0.725907 -0.196376 0
M  V30 1018 H 102.005 2.53736 -1.57037 0
M  V30 1019 C 100.754 3.47642 -0.0632808 0
M  V30 1020 H 100.077 3.91493 -0.810733 0
M  V30 1021 H 101.517 4.2363 0.177177 0
M  V30 1022 C 99.9758 3.1509 1.19248 0
M  V30 1023 O 100.506 3.30673 2.28075 0
M  V30 1024 N 98.7118 2.6924 1.09353 0
M  V30 1025 H 98.2588 2.5676 0.207912 0
M  V30 1026 H 98.2168 2.47833 1.93458 0
M  V30 1027 N 101.989 0.842826 1.3317 0
M  V30 1028 C 103.237 0.439577 1.97262 0
M  V30 1029 C 103.558 -1.00548 1.67078 0
M  V30 1030 O 102.828 -1.70098 0.971779 0
M  V30 1031 H 101.408 0.159558 0.72976 0
M  V30 1032 H 104.07 1.07665 1.62463 0
M  V30 1033 H 103.166 0.574886 3.0676 0
M  V30 1034 N 103.467 -1.45747 0.599634 0
M  V30 1035 C 104.713 -2.02592 0.0918643 0
M  V30 1036 C 105.046 -1.46806 -1.27128 0
M  V30 1037 O 104.321 -0.639658 -1.83681 0
M  V30 1038 C 104.604 -3.60073 0.0443398 0
M  V30 1039 C 104.457 -4.26208 1.43759 0
M  V30 1040 C 105.776 -4.35309 -0.647608 0
M  V30 1041 H 102.895 -0.736175 0.034857 0
M  V30 1042 H 105.537 -1.73694 0.770081 0
M  V30 1043 H 103.687 -3.84823 -0.533224 0
M  V30 1044 H 105.359 -4.12668 2.06162 0
M  V30 1045 H 103.602 -3.84916 2.00056 0
M  V30 1046 H 104.273 -5.35069 1.35665 0
M  V30 1047 H 106.749 -4.15805 -0.156776 0
M  V30 1048 H 105.625 -5.45038 -0.649942 0
M  V30 1049 H 105.886 -4.07598 -1.71219 0
M  V30 1050 N 104.945 -0.338344 -1.53925 0
M  V30 1051 C 105.875 0.51328 -2.27789 0
M  V30 1052 C 106.856 1.107 -1.29149 0
M  V30 1053 O 108.041 1.12937 -1.57984 0
M  V30 1054 C 105.171 1.66697 -3.04679 0
M  V30 1055 C 104.125 1.20183 -4.1078 0
M  V30 1056 C 103.451 2.44363 -4.75595 0
M  V30 1057 C 104.751 0.30605 -5.21403 0
M  V30 1058 H 106.445 -0.102883 -2.99223 0
M  V30 1059 H 103.991 -0.0509219 -1.4391 0
M  V30 1060 H 105.944 2.26915 -3.55088 0
M  V30 1061 H 104.668 2.30995 -2.30887 0
M  V30 1062 H 103.327 0.622499 -3.61276 0
M  V30 1063 H 102.975 3.07057 -3.98403 0
M  V30 1064 H 102.675 2.13925 -5.47275 0
M  V30 1065 H 104.199 3.05317 -5.28786 0
M  V30 1066 H 105.613 0.814929 -5.67478 0
M  V30 1067 H 104.01 0.0937929 -6.00027 0
M  V30 1068 H 105.08 -0.65921 -4.80398 0
M  V30 1069 N 106.423 1.57458 -0.0668435 0
M  V30 1070 C 107.669 1.93587 0.6043 0
M  V30 1071 C 108.002 0.946722 1.69561 0
M  V30 1072 O 107.277 -0.0248516 1.94484 0
M  V30 1073 C 107.56 3.40014 1.18585 0
M  V30 1074 C 107.413 4.49685 0.101529 0
M  V30 1075 C 108.732 3.87154 2.09284 0
M  V30 1076 H 105.851 0.703958 0.218202 0
M  V30 1077 H 108.493 1.89542 -0.131804 0
M  V30 1078 H 106.643 3.43592 1.81319 0
M  V30 1079 H 108.315 4.5823 -0.531279 0
M  V30 1080 H 106.558 4.30059 -0.568487 0
M  V30 1081 H 107.229 5.49266 0.54874 0
M  V30 1082 H 109.705 3.85551 1.56491 0
M  V30 1083 H 108.581 4.90231 2.46911 0
M  V30 1084 H 108.842 3.2481 2.99918 0
M  V30 1085 N 107.901 -0.206675 1.56239 0
M  V30 1086 C 109.147 -0.930218 1.80208 0
M  V30 1087 C 109.48 -1.83387 0.638981 0
M  V30 1088 O 108.755 -1.91119 -0.361066 0
M  V30 1089 C 109.038 -1.75641 3.1436 0
M  V30 1090 C 108.891 -0.878257 4.41142 0
M  V30 1091 C 110.21 -2.73129 3.45092 0
M  V30 1092 H 107.329 -0.336742 0.655571 0
M  V30 1093 H 109.971 -0.198222 1.88963 0
M  V30 1094 H 108.121 -2.38048 3.07027 0
M  V30 1095 H 109.793 -0.269787 4.6051 0
M  V30 1096 H 108.036 -0.184385 4.33408 0
M  V30 1097 H 108.707 -1.49106 5.3148 0
M  V30 1098 H 111.183 -2.20856 3.52649 0
M  V30 1099 H 110.059 -3.28028 4.40101 0
M  V30 1100 H 110.32 -3.51606 2.68003 0
M  V30 1101 N 109.379 -1.50304 -0.473955 0
M  V30 1102 C 110.289 -1.7174 -1.5982 0
M  V30 1103 C 111.305 -0.600457 -1.63311 0
M  V30 1104 O 112.481 -0.878441 -1.81233 0
M  V30 1105 C 109.546 -1.80427 -2.96052 0
M  V30 1106 C 108.607 -3.04148 -3.02972 0
M  V30 1107 C 107.84 -3.12411 -4.32706 0
M  V30 1108 O 108.063 -2.27542 -5.23049 0
M  V30 1109 O 106.997 -4.05113 -4.45159 0
M  V30 1110 H 110.823 -2.67035 -1.44657 0
M  V30 1111 H 108.408 -1.34366 -0.653148 0
M  V30 1112 H 110.29 -1.88338 -3.7697 0
M  V30 1113 H 108.965 -0.883156 -3.11419 0
M  V30 1114 H 107.872 -3.0174 -2.21142 0
M  V30 1115 H 109.205 -3.95829 -2.92541 0
M  V30 1116 N 110.857 0.726932 -1.39834 0
M  V30 1117 C 112.106 1.48214 -1.36805 0
M  V30 1118 C 112.419 1.95576 0.0305291 0
M  V30 1119 O 113.625 2.7088 0.183417 0
M  V30 1120 C 112.081 2.67854 -2.40379 0
M  V30 1121 C 111.689 2.27408 -3.85992 0
M  V30 1122 C 113.433 3.45641 -2.46439 0
M  V30 1123 C 111.34 3.43819 -4.81189 0
M  V30 1124 H 110.27 0.556606 -0.508631 0
M  V30 1125 H 112.921 0.792216 -1.65518 0
M  V30 1126 H 111.303 3.3896 -2.04749 0
M  V30 1127 H 112.477 1.63795 -4.30706 0
M  V30 1128 H 110.792 1.62692 -3.83302 0
M  V30 1129 H 113.389 4.32244 -3.14753 0
M  V30 1130 H 113.732 3.88669 -1.49139 0
M  V30 1131 H 114.265 2.8157 -2.81004 0
M  V30 1132 H 111.004 3.05834 -5.79781 0
M  V30 1133 H 110.524 4.06385 -4.41148 0
M  V30 1134 H 112.203 4.10043 -5.00474 0
M  V30 1135 N 112.336 1.25143 0.95797 0
M  V30 1136 C 113.564 1.12424 1.73691 0
M  V30 1137 C 113.979 -0.322304 1.86029 0
M  V30 1138 O 113.336 -1.22186 1.35561 0
M  V30 1139 C 113.387 1.76933 3.15241 0
M  V30 1140 O 113.108 3.15932 3.03511 0
M  V30 1141 C 114.609 1.6995 4.09429 0
M  V30 1142 H 111.829 0.3923 0.544373 0
M  V30 1143 H 114.373 1.6544 1.20207 0
M  V30 1144 H 112.528 1.27895 3.6568 0
M  V30 1145 H 112.942 3.47598 3.9278 0
M  V30 1146 H 114.416 2.19753 5.06372 0
M  V30 1147 H 114.893 0.662619 4.34173 0
M  V30 1148 H 115.499 2.18461 3.64904 0
M  V30 1149 N 113.814 -1.1601 1.06675 0
M  V30 1150 C 114.762 -2.22586 0.675157 0
M  V30 1151 C 115.756 -1.66525 -0.310766 0
M  V30 1152 O 116.962 -1.79145 -0.175215 0
M  V30 1153 H 113.337 -0.724855 0.200223 0
M  V30 1154 H 115.308 -2.52899 1.58381 0
M  V30 1155 C 114.057 -3.47604 0.0817162 0
M  V30 1156 H 113.38 -3.91058 0.831484 0
M  V30 1157 H 114.82 -4.23718 -0.154708 0
M  V30 1158 C 113.279 -3.15718 -1.17576 0
M  V30 1159 O 113.809 -3.31878 -2.26318 0
M  V30 1160 N 112.015 -2.69816 -1.07923 0
M  V30 1161 H 111.562 -2.56866 -0.194293 0
M  V30 1162 H 111.52 -2.48855 -1.92141 0
M  V30 1163 N 115.292 -0.849877 -1.32721 0
M  V30 1164 C 116.54 -0.450032 -1.97026 0
M  V30 1165 C 116.861 0.996604 -1.67609 0
M  V30 1166 O 116.131 1.6958 -0.980786 0
M  V30 1167 H 114.711 -0.163426 -0.728904 0
M  V30 1168 H 117.373 -1.08526 -1.6189 0
M  V30 1169 H 116.469 -0.591146 -3.0645 0
M  V30 1170 N 116.77 1.45427 -0.607355 0
M  V30 1171 C 118.018 2.01841 -0.102253 0
M  V30 1172 C 118.339 1.47832 1.27164 0
M  V30 1173 O 117.609 0.672497 1.83995 0
M  V30 1174 H 116.189 0.746188 -0.0348101 0
M  V30 1175 H 118.851 1.78229 -0.7887 0
M  V30 1176 H 117.947 3.12057 -0.0518585 0
M  V30 1177 N 118.248 0.346503 1.53744 0
M  V30 1178 C 119.525 -0.304532 1.93215 0
M  V30 1179 C 119.905 -1.67993 1.27834 0
M  V30 1180 O 119.253 -2.24411 0.430352 0
M  V30 1181 C 119.463 -0.373852 3.46992 0
M  V30 1182 C 120.811 -0.62329 4.2 0
M  V30 1183 O 121.835 -0.455847 3.53271 0
M  V30 1184 O 120.694 -0.947879 5.38217 0
M  V30 1185 H 117.788 -0.178318 0.807547 0
M  V30 1186 H 120.334 0.397895 1.64969 0
M  V30 1187 H 119.106 0.591224 3.86808 0
M  V30 1188 H 118.729 -1.12294 3.81413 0
M  V30 1189 N 119.726 -1.57421 0.075193 0
M  V30 1190 C 120.676 -2.09441 -0.901025 0
M  V30 1191 C 121.66 -1.00486 -1.25663 0
M  V30 1192 O 122.852 -1.2679 -1.23504 0
M  V30 1193 C 119.981 -2.66233 -2.16737 0
M  V30 1194 C 119.067 -3.82198 -1.83808 0
M  V30 1195 N 119.458 -4.91028 -1.21345 0
M  V30 1196 C 117.756 -3.91558 -2.13538 0
M  V30 1197 C 118.457 -5.71852 -1.06585 0
M  V30 1198 N 117.433 -5.20233 -1.57667 0
M  V30 1199 H 121.235 -2.90972 -0.413815 0
M  V30 1200 H 118.749 -1.6189 -0.128601 0
M  V30 1201 H 120.746 -3.01819 -2.87595 0
M  V30 1202 H 119.406 -1.8615 -2.66042 0
M  V30 1203 H 120.417 -5.10323 -0.88268 0
M  V30 1204 H 117.094 -3.22454 -2.65197 0
M  V30 1205 H 118.484 -6.69401 -0.578933 0
M  V30 1206 N 121.204 0.198386 -1.56346 0
M  V30 1207 C 122.432 0.935572 -1.84539 0
M  V30 1208 C 122.847 1.76989 -0.657281 0
M  V30 1209 O 122.204 1.78626 0.374043 0
M  V30 1210 C 122.255 1.8344 -3.11499 0
M  V30 1211 O 121.976 1.03377 -4.25728 0
M  V30 1212 C 123.477 2.68355 -3.52846 0
M  V30 1213 H 120.697 0.273126 -0.612897 0
M  V30 1214 H 123.241 0.20663 -2.03453 0
M  V30 1215 H 121.396 2.51701 -2.94492 0
M  V30 1216 H 121.81 1.64599 -4.98003 0
M  V30 1217 H 123.284 3.27085 -4.44657 0
M  V30 1218 H 123.761 3.41901 -2.75681 0
M  V30 1219 H 124.367 2.05471 -3.72373 0
M  V30 1220 N 122.682 1.50554 0.465978 0
M  V30 1221 C 123.928 1.63006 1.21658 0
M  V30 1222 C 124.283 0.328613 1.89573 0
M  V30 1223 O 123.576 -0.673813 1.79361 0
M  V30 1224 C 123.77 2.75152 2.28093 0
M  V30 1225 C 123.599 4.16075 1.7062 0
M  V30 1226 C 122.369 4.82408 1.50368 0
M  V30 1227 C 124.567 5.00145 1.1983 0
M  V30 1228 N 122.549 6.07532 0.881924 0
M  V30 1229 C 123.92 6.16035 0.700083 0
M  V30 1230 C 125.975 4.85882 1.08733 0
M  V30 1231 C 124.678 7.19228 0.101835 0
M  V30 1232 C 126.704 5.89257 0.503016 0
M  V30 1233 C 126.066 7.04398 0.0152005 0
M  V30 1234 H 122.165 0.650596 0.433877 0
M  V30 1235 H 124.749 1.8769 0.517746 0
M  V30 1236 H 122.92 2.52181 2.95397 0
M  V30 1237 H 124.652 2.76935 2.95109 0
M  V30 1238 H 121.407 4.39788 1.75737 0
M  V30 1239 H 121.831 6.7443 0.589312 0
M  V30 1240 H 126.473 3.97144 1.4504 0
M  V30 1241 H 124.191 8.07637 -0.273426 0
M  V30 1242 H 127.777 5.80286 0.419451 0
M  V30 1243 H 126.657 7.83021 -0.429856 0
M  V30 1244 N 124.16 -0.719506 1.40217 0
M  V30 1245 C 125.385 -1.51371 1.4178 0
M  V30 1246 C 125.81 -1.88091 0.0182355 0
M  V30 1247 O 125.168 -1.52997 -0.972707 0
M  V30 1248 C 125.216 -2.768 2.31115 0
M  V30 1249 O 124.32 -3.73349 1.7517 0
M  V30 1250 H 123.661 -0.456529 0.482159 0
M  V30 1251 H 126.191 -0.88644 1.844 0
M  V30 1252 H 126.201 -3.25371 2.46167 0
M  V30 1253 H 124.876 -2.49407 3.3282 0
M  V30 1254 H 123.453 -3.32179 1.69444 0
M  V30 1255 N 125.638 -1.25649 -0.95132 0
M  V30 1256 C 126.884 -1.10757 -1.69884 0
M  V30 1257 C 127.217 0.350061 -1.91019 0
M  V30 1258 O 126.492 1.25783 -1.48354 0
M  V30 1259 C 126.775 -1.86606 -3.07978 0
M  V30 1260 C 126.628 -3.40217 -2.94232 0
M  V30 1261 C 127.947 -1.65182 -4.07925 0
M  V30 1262 H 125.066 -0.40374 -0.616574 0
M  V30 1263 H 127.708 -1.54521 -1.10558 0
M  V30 1264 H 125.858 -1.49409 -3.58621 0
M  V30 1265 H 127.53 -3.87108 -2.50889 0
M  V30 1266 H 125.773 -3.67759 -2.30078 0
M  V30 1267 H 126.444 -3.88505 -3.92133 0
M  V30 1268 H 128.92 -1.9757 -3.66204 0
M  V30 1269 H 127.796 -2.20683 -5.02583 0
M  V30 1270 H 128.057 -0.593933 -4.38092 0
M  V30 1271 N 127.117 1.15442 -1.07289 0
M  V30 1272 C 128.049 2.19773 -0.650585 0
M  V30 1273 C 129.062 1.60076 0.296572 0
M  V30 1274 O 130.251 1.78293 0.0859905 0
M  V30 1275 C 127.351 3.38838 0.0650398 0
M  V30 1276 C 126.524 4.2808 -0.898141 0
M  V30 1277 C 125.583 5.2574 -0.219926 0
M  V30 1278 O 124.609 5.62654 -0.860773 0
M  V30 1279 N 125.811 5.71205 1.03466 0
M  V30 1280 H 128.576 2.56622 -1.54808 0
M  V30 1281 H 126.137 1.30551 -0.957494 0
M  V30 1282 H 128.129 4.01222 0.529415 0
M  V30 1283 H 126.699 3.00409 0.864466 0
M  V30 1284 H 125.919 3.62804 -1.54165 0
M  V30 1285 H 127.207 4.84577 -1.5512 0
M  V30 1286 H 126.605 5.43325 1.57526 0
M  V30 1287 H 125.162 6.35633 1.44272 0
M  V30 1288 N 128.595 0.856903 1.32268 0
M  V30 1289 C 129.844 0.457599 1.96441 0
M  V30 1290 C 130.157 -0.992426 1.68553 0
M  V30 1291 O 131.363 -1.49727 2.26482 0
M  V30 1292 C 129.819 0.767358 3.51624 0
M  V30 1293 C 129.427 2.23326 3.88367 0
M  V30 1294 C 131.171 0.435887 4.22256 0
M  V30 1295 C 129.078 2.48613 5.36606 0
M  V30 1296 H 128.008 0.167387 0.735185 0
M  V30 1297 H 130.659 1.048 1.5063 0
M  V30 1298 H 129.041 0.106367 3.95857 0
M  V30 1299 H 130.215 2.93623 3.55137 0
M  V30 1300 H 128.53 2.52948 3.30766 0
M  V30 1301 H 131.127 0.602202 5.31298 0
M  V30 1302 H 131.47 -0.622672 4.11617 0
M  V30 1303 H 132.003 1.05286 3.83614 0
M  V30 1304 H 128.742 3.53101 5.52268 0
M  V30 1305 H 128.262 1.82896 5.71235 0
M  V30 1306 H 129.941 2.32676 6.03714 0
M  V30 1307 N 130.073 -1.45103 0.615059 0
M  V30 1308 C 131.322 -2.01396 0.110718 0
M  V30 1309 C 131.635 -1.48834 -1.26916 0
M  V30 1310 O 132.841 -1.97152 -1.86664 0
M  V30 1311 C 131.297 -3.59599 0.14723 0
M  V30 1312 C 130.905 -4.21158 1.52743 0
M  V30 1313 C 132.649 -4.23428 -0.30148 0
M  V30 1314 C 130.556 -5.71535 1.51992 0
M  V30 1315 H 129.486 -0.753061 0.0376241 0
M  V30 1316 H 132.137 -1.66494 0.77149 0
M  V30 1317 H 130.519 -3.91724 -0.580339 0
M  V30 1318 H 131.693 -4.00594 2.2773 0
M  V30 1319 H 130.008 -3.69552 1.91886 0
M  V30 1320 H 132.605 -5.33703 -0.326392 0
M  V30 1321 H 132.948 -3.94629 -1.32565 0
M  V30 1322 H 133.481 -3.96047 0.373065 0
M  V30 1323 H 130.22 -6.05044 2.52193 0
M  V30 1324 H 129.74 -5.94268 0.81274 0
M  V30 1325 H 131.419 -6.34873 1.24681 0
M  V30 1326 N 131.551 -0.354651 -1.53558 0
M  V30 1327 C 132.483 0.5315 -2.22952 0
M  V30 1328 C 133.496 1.05503 -1.23988 0
M  V30 1329 O 134.685 0.963279 -1.50277 0
M  V30 1330 C 131.785 1.74538 -2.90499 0
M  V30 1331 C 130.958 1.35524 -4.15875 0
M  V30 1332 C 130.017 2.42999 -4.66731 0
M  V30 1333 O 129.043 2.05844 -5.30676 0
M  V30 1334 N 130.245 3.74423 -4.43608 0
M  V30 1335 H 133.01 -0.0628615 -2.99634 0
M  V30 1336 H 130.571 -0.179302 -1.60904 0
M  V30 1337 H 132.563 2.45892 -3.21433 0
M  V30 1338 H 131.133 2.24686 -2.17336 0
M  V30 1339 H 130.353 0.471998 -3.91364 0
M  V30 1340 H 131.641 1.07071 -4.97406 0
M  V30 1341 H 131.039 4.07391 -3.92491 0
M  V30 1342 H 129.596 4.41913 -4.7912 0
M  V30 1343 N 133.029 1.57378 -0.0835403 0
M  V30 1344 C 133.992 2.12252 0.864959 0
M  V30 1345 C 134.992 1.04916 1.21858 0
M  V30 1346 O 136.182 1.30853 1.14991 0
M  V30 1347 C 133.314 2.63358 2.16461 0
M  V30 1348 H 134.507 2.97371 0.388676 0
M  V30 1349 H 132.06 1.55423 0.165317 0
M  V30 1350 H 132.795 1.81727 2.686 0
M  V30 1351 H 132.58 3.41826 1.92087 0
M  V30 1352 H 134.07 3.05847 2.84337 0
M  V30 1353 N 134.507 -0.190092 1.56449 0
M  V30 1354 C 135.918 -0.754312 1.70784 0
M  V30 1355 C 136.269 -1.83631 0.690951 0
M  V30 1356 O 135.394 -2.15868 -0.151604 0
M  V30 1357 C 135.989 -1.37503 3.09642 0
M  V30 1358 C 134.548 -1.88628 3.25725 0
M  V30 1359 C 133.695 -0.758098 2.66736 0
M  V30 1360 H 136.646 0.0350524 1.58661 0
M  V30 1361 H 136.667 -2.2445 3.0725 0
M  V30 1362 H 136.179 -0.587302 3.83631 0
M  V30 1363 H 134.28 -2.70103 2.56661 0
M  V30 1364 H 134.393 -2.04462 4.3328 0
M  V30 1365 H 132.757 -1.17369 2.26046 0
M  V30 1366 H 133.54 0.0174705 3.43296 0
M  V30 1367 N 135.985 -1.50799 -0.457987 0
M  V30 1368 C 137.234 -1.6168 -1.20593 0
M  V30 1369 C 137.547 -0.32888 -1.92815 0
M  V30 1370 O 138.753 -0.316773 -2.69646 0
M  V30 1371 C 137.209 -2.8545 -2.19195 0
M  V30 1372 C 136.817 -4.21168 -1.52715 0
M  V30 1373 C 138.561 -3.05681 -2.94549 0
M  V30 1374 C 136.468 -5.3611 -2.4968 0
M  V30 1375 H 135.398 -0.602134 -0.453818 0
M  V30 1376 H 138.049 -1.77245 -0.475031 0
M  V30 1377 H 136.431 -2.63472 -2.95632 0
M  V30 1378 H 137.605 -4.53449 -0.819775 0
M  V30 1379 H 135.92 -4.06648 -0.895922 0
M  V30 1380 H 138.517 -3.88727 -3.67145 0
M  V30 1381 H 138.86 -2.17929 -3.54701 0
M  V30 1382 H 139.393 -3.27901 -2.25223 0
M  V30 1383 H 136.132 -6.26057 -1.94249 0
M  V30 1384 H 135.652 -5.0823 -3.18532 0
M  V30 1385 H 137.331 -5.6722 -3.11241 0
M  V30 1386 N 137.463 0.71206 -1.40597 0
M  V30 1387 C 138.879 1.02058 -1.22704 0
M  V30 1388 C 139.079 2.01228 -0.104729 0
M  V30 1389 O 138.135 2.4674 0.53624 0
M  V30 1390 C 139.448 1.56094 -2.57012 0
M  V30 1391 C 140.996 1.6806 -2.64054 0
M  V30 1392 C 141.471 2.25501 -3.9864 0
M  V30 1393 N 142.962 2.32882 -4.004 0
M  V30 1394 C 143.697 2.78317 -5.01325 0
M  V30 1395 N 143.193 3.23478 -6.12645 0
M  V30 1396 N 144.986 2.77733 -4.88693 0
M  V30 1397 H 137.137 0.0547896 -2.12329 0
M  V30 1398 H 139.4 0.0869027 -0.944008 0
M  V30 1399 H 139.106 0.906865 -3.39807 0
M  V30 1400 H 138.98 2.54564 -2.78347 0
M  V30 1401 H 141.367 2.32583 -1.81629 0
M  V30 1402 H 141.448 0.681802 -2.46546 0
M  V30 1403 H 141.092 1.61598 -4.81506 0
M  V30 1404 H 141.022 3.26102 -4.13479 0
M  V30 1405 H 143.513 2.00991 -3.20017 0
M  V30 1406 H 143.826 3.56725 -6.85542 0
M  V30 1407 H 142.171 3.21429 -6.16205 0
M  V30 1408 H 145.362 2.4179 -4.00818 0
M  V30 1409 H 145.535 3.12826 -5.67489 0
M  V30 1410 N 138.941 1.26152 0.944643 0
M  V30 1411 C 140.187 1.11657 1.69294 0
M  V30 1412 C 140.52 -0.339926 1.91202 0
M  V30 1413 O 139.795 -1.24994 1.49019 0
M  V30 1414 C 140.078 1.88236 3.06984 0
M  V30 1415 C 139.931 3.41772 2.92424 0
M  V30 1416 C 141.25 1.67343 4.07043 0
M  V30 1417 H 138.369 0.407004 0.614424 0
M  V30 1418 H 141.011 1.55106 1.09737 0
M  V30 1419 H 139.161 1.51308 3.57824 0
M  V30 1420 H 140.833 3.88433 2.48832 0
M  V30 1421 H 139.076 3.68974 2.28124 0
M  V30 1422 H 139.747 3.90579 3.90067 0
M  V30 1423 H 142.223 1.99509 3.65151 0
M  V30 1424 H 141.099 2.23346 5.01406 0
M  V30 1425 H 141.36 0.617158 4.37771 0
M  V30 1426 N 140.419 -1.14872 1.07899 0
M  V30 1427 C 141.329 -2.2341 0.715915 0
M  V30 1428 C 142.345 -1.71808 -0.275306 0
M  V30 1429 O 143.521 -2.01039 -0.120545 0
M  V30 1430 C 140.586 -3.46474 0.125168 0
M  V30 1431 C 139.647 -4.13039 1.17034 0
M  V30 1432 C 138.88 -5.30229 0.607688 0
M  V30 1433 O 139.103 -5.675 -0.574497 0
M  V30 1434 O 138.037 -5.86444 1.35526 0
M  V30 1435 H 141.863 -2.56808 1.62121 0
M  V30 1436 H 139.448 -1.22702 0.852322 0
M  V30 1437 H 141.33 -4.20917 -0.201729 0
M  V30 1438 H 140.005 -3.14811 -0.753364 0
M  V30 1439 H 138.912 -3.40493 1.54968 0
M  V30 1440 H 140.245 -4.48796 2.02097 0
M  V30 1441 N 141.898 -0.863906 -1.31812 0
M  V30 1442 C 142.845 -0.313303 -2.28664 0
M  V30 1443 C 143.815 0.584868 -1.55462 0
M  V30 1444 O 145 0.517805 -1.83639 0
M  V30 1445 C 142.14 0.48441 -3.41683 0
M  V30 1446 C 141.253 -0.440594 -4.29747 0
M  V30 1447 C 140.388 0.370652 -5.29905 0
M  V30 1448 C 139.427 -0.551164 -6.09613 0
M  V30 1449 N 138.564 0.223462 -7.01744 0
M  V30 1450 H 143.404 -1.14444 -2.75148 0
M  V30 1451 H 140.941 -0.575769 -1.35364 0
M  V30 1452 H 142.899 0.962627 -4.05943 0
M  V30 1453 H 141.529 1.28029 -2.96325 0
M  V30 1454 H 140.581 -1.03724 -3.65986 0
M  V30 1455 H 141.893 -1.14767 -4.85417 0
M  V30 1456 H 141.047 0.911638 -5.99812 0
M  V30 1457 H 139.786 1.11105 -4.74876 0
M  V30 1458 H 138.791 -1.10396 -5.38603 0
M  V30 1459 H 140.016 -1.29032 -6.66729 0
M  V30 1460 H 137.962 0.946787 -6.49132 0
M  V30 1461 H 137.879 -0.424399 -7.54808 0
M  V30 1462 H 139.147 0.745876 -7.75923 0
M  V30 1463 N 143.376 1.44774 -0.622745 0
M  V30 1464 C 144.306 2.33382 0.0741861 0
M  V30 1465 C 145.287 1.47719 0.843387 0
M  V30 1466 O 146.472 1.76458 0.810934 0
M  V30 1467 C 143.602 3.30663 1.06204 0
M  V30 1468 C 142.556 4.26079 0.405037 0
M  V30 1469 C 141.882 5.13165 1.5022 0
M  V30 1470 C 143.182 5.1781 -0.683414 0
M  V30 1471 H 144.876 2.91905 -0.665713 0
M  V30 1472 H 142.422 1.40363 -0.321587 0
M  V30 1473 H 144.375 3.9153 1.55827 0
M  V30 1474 H 143.099 2.70331 1.83272 0
M  V30 1475 H 141.758 3.66532 -0.0704683 0
M  V30 1476 H 141.406 4.49191 2.26355 0
M  V30 1477 H 141.106 5.77812 1.06803 0
M  V30 1478 H 142.63 5.76902 2.00041 0
M  V30 1479 H 144.044 5.72661 -0.270631 0
M  V30 1480 H 142.441 5.91015 -1.04023 0
M  V30 1481 H 143.511 4.59326 -1.55395 0
M  V30 1482 N 144.854 0.36279 1.53368 0
M  V30 1483 C 145.804 -0.501391 2.22419 0
M  V30 1484 C 146.788 -1.0509 1.2184 0
M  V30 1485 O 147.98 -0.981404 1.47301 0
M  V30 1486 C 145.109 -1.64201 3.01484 0
M  V30 1487 C 144.195 -1.10552 4.09438 0
M  V30 1488 N 144.586 -0.291788 5.04958 0
M  V30 1489 C 142.884 -1.3806 4.24094 0
M  V30 1490 C 143.585 0.00162655 5.817 0
M  V30 1491 N 142.561 -0.595244 5.40331 0
M  V30 1492 H 146.363 0.127159 2.93625 0
M  V30 1493 H 143.877 0.170658 1.61501 0
M  V30 1494 H 145.874 -2.27326 3.49469 0
M  V30 1495 H 144.534 -2.27365 2.31809 0
M  V30 1496 H 145.545 0.0687731 5.17854 0
M  V30 1497 H 142.222 -2.01522 3.65644 0
M  V30 1498 H 143.612 0.659278 6.68658 0
M  V30 1499 N 146.332 -1.57332 0.0918853 0
M  V30 1500 C 147.279 -2.13847 -0.868211 0
M  V30 1501 C 148.249 -1.05618 -1.28196 0
M  V30 1502 O 149.434 -1.33387 -1.36427 0
M  V30 1503 C 146.574 -2.72062 -2.12312 0
M  V30 1504 C 145.687 -3.94514 -1.7602 0
M  V30 1505 C 144.822 -4.40903 -2.96273 0
M  V30 1506 C 143.861 -5.55953 -2.56092 0
M  V30 1507 N 142.998 -5.97209 -3.69169 0
M  V30 1508 H 147.838 -2.95575 -0.379406 0
M  V30 1509 H 145.375 -1.46048 -0.175606 0
M  V30 1510 H 147.333 -3.03931 -2.858 0
M  V30 1511 H 145.963 -1.93068 -2.58698 0
M  V30 1512 H 145.015 -3.68979 -0.925135 0
M  V30 1513 H 146.327 -4.7802 -1.42472 0
M  V30 1514 H 145.481 -4.74539 -3.78018 0
M  V30 1515 H 144.22 -3.56291 -3.33029 0
M  V30 1516 H 143.225 -5.21948 -1.72773 0
M  V30 1517 H 144.45 -6.42311 -2.20484 0
M  V30 1518 H 142.396 -5.15543 -4.05649 0
M  V30 1519 H 142.313 -6.75504 -3.39456 0
M  V30 1520 H 143.581 -6.35475 -4.51434 0
M  V30 1521 N 147.81 0.181792 -1.56548 0
M  V30 1522 C 149.04 0.914618 -1.85252 0
M  V30 1523 C 149.448 1.76791 -0.673914 0
M  V30 1524 O 148.791 1.80009 0.366416 0
M  V30 1525 C 148.853 1.85019 -3.08234 0
M  V30 1526 C 148.517 1.17754 -4.41569 0
M  V30 1527 C 149.514 0.548035 -5.17003 0
M  V30 1528 C 147.199 1.17742 -4.88305 0
M  V30 1529 C 149.193 -0.0726128 -6.37359 0
M  V30 1530 C 146.88 0.552946 -6.08593 0
M  V30 1531 C 147.878 -0.070978 -6.82963 0
M  V30 1532 O 147.566 -0.685635 -8.00971 0
M  V30 1533 H 147.298 0.271695 -0.618998 0
M  V30 1534 H 149.852 0.189944 -2.0452 0
M  V30 1535 H 148.082 2.61491 -2.84885 0
M  V30 1536 H 149.771 2.45195 -3.23472 0
M  V30 1537 H 150.537 0.540174 -4.81982 0
M  V30 1538 H 146.416 1.65246 -4.30366 0
M  V30 1539 H 149.96 -0.560213 -6.95347 0
M  V30 1540 H 145.857 0.558354 -6.43081 0
M  V30 1541 H 146.625 -0.58385 -8.16415 0
M  V30 1542 N 149.288 1.51039 0.449983 0
M  V30 1543 C 150.704 1.38934 0.785462 0
M  V30 1544 C 150.904 0.461817 1.96136 0
M  V30 1545 O 149.96 -0.0877389 2.52348 0
M  V30 1546 C 151.273 2.80724 1.0777 0
M  V30 1547 C 152.821 2.89787 1.1829 0
M  V30 1548 C 153.296 4.32457 1.50815 0
M  V30 1549 N 154.787 4.35505 1.57764 0
M  V30 1550 C 155.522 5.42914 1.84477 0
M  V30 1551 N 155.018 6.60502 2.09068 0
M  V30 1552 N 156.811 5.3038 1.86155 0
M  V30 1553 H 148.962 2.09904 -0.324647 0
M  V30 1554 H 151.225 0.944378 -0.0827957 0
M  V30 1555 H 150.931 3.50531 0.286498 0
M  V30 1556 H 150.805 3.19273 2.00859 0
M  V30 1557 H 153.192 2.20186 1.96474 0
M  V30 1558 H 153.273 2.54752 0.231314 0
M  V30 1559 H 152.917 5.02603 0.731622 0
M  V30 1560 H 152.847 4.64995 2.47158 0
M  V30 1561 H 155.338 3.50724 1.40715 0
M  V30 1562 H 155.651 7.38158 2.28785 0
M  V30 1563 H 153.996 6.63639 2.06416 0
M  V30 1564 H 157.187 4.37505 1.66454 0
M  V30 1565 H 157.36 6.1417 2.06637 0
M  V30 1566 N 150.766 -0.704594 1.40972 0
M  V30 1567 C 152.012 -1.46675 1.40051 0
M  V30 1568 C 152.345 -1.94199 0.00641102 0
M  V30 1569 O 151.62 -1.68916 -0.964235 0
M  V30 1570 C 151.903 -2.68505 2.39952 0
M  V30 1571 C 151.756 -2.26805 3.88432 0
M  V30 1572 C 153.075 -3.70686 2.37233 0
M  V30 1573 H 150.194 -0.532015 0.510028 0
M  V30 1574 H 152.836 -0.803255 1.72185 0
M  V30 1575 H 150.986 -3.25114 2.1268 0
M  V30 1576 H 152.658 -1.75592 4.26574 0
M  V30 1577 H 150.901 -1.58685 4.03734 0
M  V30 1578 H 151.572 -3.14181 4.53866 0
M  V30 1579 H 154.048 -3.23731 2.61415 0
M  V30 1580 H 152.924 -4.53553 3.09162 0
M  V30 1581 H 153.185 -4.19754 1.38777 0
M  V30 1582 N 152.244 -1.26651 -0.937939 0
M  V30 1583 C 153.469 -1.15279 -1.72411 0
M  V30 1584 C 153.894 0.287866 -1.85884 0
M  V30 1585 O 153.252 1.20855 -1.35143 0
M  V30 1586 C 153.3 -1.83028 -3.10698 0
M  V30 1587 O 152.404 -1.12128 -3.96864 0
M  V30 1588 H 151.745 -0.401504 -0.528858 0
M  V30 1589 H 154.275 -1.67531 -1.1745 0
M  V30 1590 H 154.285 -1.89981 -3.6107 0
M  V30 1591 H 152.96 -2.87833 -3.00208 0
M  V30 1592 H 151.537 -1.13173 -3.55312 0
M  V30 1593 N 153.722 1.14298 -1.08507 0
M  V30 1594 C 154.969 1.85359 -0.815373 0
M  V30 1595 C 155.297 1.83001 0.658865 0
M  V30 1596 O 154.552 1.25655 1.50031 0
M  V30 1597 C 154.851 3.33547 -1.28379 0
M  V30 1598 C 154.517 3.56093 -2.76602 0
M  V30 1599 C 153.179 3.61955 -3.17084 0
M  V30 1600 C 155.531 3.64834 -3.72217 0
M  V30 1601 C 152.859 3.74082 -4.51973 0
M  V30 1602 C 155.211 3.78487 -5.06883 0
M  V30 1603 C 153.875 3.82598 -5.46969 0
M  V30 1604 H 153.145 0.678276 -0.298366 0
M  V30 1605 H 155.792 1.35002 -1.35819 0
M  V30 1606 H 154.097 3.86191 -0.660593 0
M  V30 1607 H 155.794 3.86959 -1.05186 0
M  V30 1608 H 152.384 3.52179 -2.4427 0
M  V30 1609 H 156.568 3.59595 -3.42061 0
M  V30 1610 H 151.824 3.75527 -4.82483 0
M  V30 1611 H 155.998 3.84193 -5.80834 0
M  V30 1612 H 153.625 3.91747 -6.51489 0
M  V30 1613 N 155.201 0.870884 1.31352 0
M  V30 1614 C 156.617 0.562932 1.49343 0
M  V30 1615 C 156.817 -0.902725 1.80148 0
M  V30 1616 O 155.873 -1.68484 1.88067 0
M  V30 1617 C 157.186 1.46393 2.62659 0
M  V30 1618 C 158.734 1.46607 2.76542 0
M  V30 1619 C 159.209 2.35266 3.92955 0
M  V30 1620 N 160.7 2.33151 4.00243 0
M  V30 1621 C 161.435 2.98471 4.89594 0
M  V30 1622 N 160.931 3.72964 5.8384 0
M  V30 1623 N 162.724 2.87775 4.82848 0
M  V30 1624 H 154.875 1.81923 1.09626 0
M  V30 1625 H 157.138 0.777934 0.541777 0
M  V30 1626 H 156.844 2.50689 2.46674 0
M  V30 1627 H 156.718 1.16314 3.58819 0
M  V30 1628 H 159.105 0.43069 2.9194 0
M  V30 1629 H 159.186 1.8071 1.81046 0
M  V30 1630 H 158.83 3.38881 3.78315 0
M  V30 1631 H 158.76 1.98487 4.87761 0
M  V30 1632 H 161.251 1.79006 3.32814 0
M  V30 1633 H 161.564 4.19932 6.4875 0
M  V30 1634 H 159.909 3.77073 5.83816 0
M  V30 1635 H 163.1 2.29116 4.08195 0
M  V30 1636 H 163.273 3.38961 5.52277 0
M  V30 1637 N 156.679 -1.44442 0.630414 0
M  V30 1638 C 157.642 -2.29107 -0.0652523 0
M  V30 1639 C 158.642 -1.41002 -0.772995 0
M  V30 1640 O 159.832 -1.62881 -0.617692 0
M  V30 1641 C 156.964 -3.22564 -1.10296 0
M  V30 1642 H 158.157 -2.92103 0.679401 0
M  V30 1643 H 155.71 -1.51343 0.390517 0
M  V30 1644 H 156.445 -2.64416 -1.87762 0
M  V30 1645 H 156.23 -3.87491 -0.59941 0
M  V30 1646 H 157.72 -3.86167 -1.5895 0
M  V30 1647 N 158.157 -0.370918 -1.53173 0
M  V30 1648 C 159.104 0.473035 -2.259 0
M  V30 1649 C 160.074 1.07311 -1.26781 0
M  V30 1650 O 161.259 1.1046 -1.55574 0
M  V30 1651 C 158.399 1.60405 -3.05556 0
M  V30 1652 C 157.512 1.02863 -4.19575 0
M  V30 1653 C 156.647 2.12918 -4.86661 0
M  V30 1654 C 155.686 1.52869 -5.92704 0
M  V30 1655 N 154.823 2.56779 -6.53459 0
M  V30 1656 H 159.663 -0.153649 -2.97604 0
M  V30 1657 H 157.2 -0.0875946 -1.46839 0
M  V30 1658 H 159.158 2.27034 -3.50016 0
M  V30 1659 H 157.788 2.20131 -2.36097 0
M  V30 1660 H 156.84 0.252465 -3.79561 0
M  V30 1661 H 158.152 0.549642 -4.95762 0
M  V30 1662 H 157.306 2.87356 -5.34333 0
M  V30 1663 H 156.045 2.6417 -4.09958 0
M  V30 1664 H 155.05 0.769479 -5.44389 0
M  V30 1665 H 156.275 1.02435 -6.7133 0
M  V30 1666 H 154.221 3.07235 -5.79606 0
M  V30 1667 H 154.138 2.13583 -7.25202 0
M  V30 1668 H 155.406 3.30903 -7.05779 0
M  V30 1669 N 159.635 1.57281 -0.100228 0
M  V30 1670 C 160.598 2.13158 0.842398 0
M  V30 1671 C 161.598 1.06202 1.20738 0
M  V30 1672 O 162.788 1.32066 1.13597 0
M  V30 1673 C 159.92 2.65639 2.13655 0
M  V30 1674 H 161.113 2.97766 0.357114 0
M  V30 1675 H 158.666 1.5559 0.148823 0
M  V30 1676 H 159.401 1.84566 2.66657 0
M  V30 1677 H 159.186 3.43844 1.88451 0
M  V30 1678 H 160.676 3.08846 2.81077 0
M  V30 1679 N 161.113 -0.173488 1.56642 0
M  V30 1680 C 162.338 -0.910149 1.86363 0
M  V30 1681 C 162.763 -1.75132 0.686318 0
M  V30 1682 O 162.121 -1.77595 -0.364643 0
M  V30 1683 C 162.169 -1.76447 3.14482 0
M  V30 1684 O 161.273 -2.86584 2.96553 0
M  V30 1685 H 160.614 -0.255086 0.613047 0
M  V30 1686 H 163.144 -0.172283 2.03873 0
M  V30 1687 H 163.154 -2.16483 3.45831 0
M  V30 1688 H 161.829 -1.14658 3.99783 0
M  V30 1689 H 160.406 -2.50146 2.76553 0
M  V30 1690 N 162.591 -1.51276 -0.441967 0
M  V30 1691 C 163.816 -1.67799 -1.21895 0
M  V30 1692 C 164.241 -0.372864 -1.84367 0
M  V30 1693 O 163.599 0.666501 -1.68604 0
M  V30 1694 C 163.647 -2.79199 -2.28211 0
M  V30 1695 O 162.751 -2.42479 -3.33583 0
M  V30 1696 H 162.092 -0.559649 -0.357336 0
M  V30 1697 H 164.622 -1.97815 -0.522522 0
M  V30 1698 H 164.632 -3.03146 -2.73069 0
M  V30 1699 H 163.307 -3.73906 -1.82118 0
M  V30 1700 H 161.884 -2.29087 -2.94234 0
M  V30 1701 N 164.069 0.697108 -1.41344 0
M  V30 1702 C 165.001 1.8224 -1.39001 0
M  V30 1703 C 166.014 1.60152 -0.292428 0
M  V30 1704 O 167.203 1.69684 -0.554048 0
M  V30 1705 C 164.303 3.18976 -1.14489 0
M  V30 1706 C 163.476 3.68105 -2.36258 0
M  V30 1707 C 162.535 4.83506 -2.07625 0
M  V30 1708 O 161.561 4.95201 -2.8065 0
M  V30 1709 N 162.763 5.70637 -1.06555 0
M  V30 1710 H 165.528 1.84742 -2.35988 0
M  V30 1711 H 163.089 0.87937 -1.35936 0
M  V30 1712 H 165.081 3.93801 -0.932885 0
M  V30 1713 H 163.651 3.11508 -0.261043 0
M  V30 1714 H 162.871 2.84204 -2.7317 0
M  V30 1715 H 164.159 3.97667 -3.17393 0
M  V30 1716 H 163.557 5.63817 -0.461125 0
M  V30 1717 H 162.114 6.45368 -0.913444 0
M  V30 1718 N 165.547 1.27147 0.931209 0
M  V30 1719 C 166.494 1.09568 2.03134 0
M  V30 1720 C 167.464 -0.00222433 1.661 0
M  V30 1721 O 168.649 0.159439 1.90133 0
M  V30 1722 C 165.789 0.745231 3.36957 0
M  V30 1723 C 164.902 1.92041 3.86968 0
M  V30 1724 C 164.037 1.51216 5.09222 0
M  V30 1725 C 163.076 2.65504 5.5152 0
M  V30 1726 N 162.213 2.25291 6.64972 0
M  V30 1727 H 167.053 2.03708 2.17502 0
M  V30 1728 H 164.59 1.01411 1.06556 0
M  V30 1729 H 166.548 0.522878 4.1391 0
M  V30 1730 H 165.178 -0.159202 3.22407 0
M  V30 1731 H 164.23 2.25541 3.06326 0
M  V30 1732 H 165.542 2.77787 4.1429 0
M  V30 1733 H 164.696 1.25084 5.93666 0
M  V30 1734 H 163.435 0.625749 4.83669 0
M  V30 1735 H 162.44 2.92354 4.65628 0
M  V30 1736 H 163.665 3.54761 5.7907 0
M  V30 1737 H 161.611 1.39098 6.41083 0
M  V30 1738 H 161.528 3.04577 6.91931 0
M  V30 1739 H 162.796 2.02398 7.52765 0
M  V30 1740 N 167.025 -1.13721 1.09112 0
M  V30 1741 C 167.973 -2.21103 0.722219 0
M  V30 1742 C 168.967 -1.67147 -0.275374 0
M  V30 1743 O 170.173 -1.79477 -0.137176 0
M  V30 1744 H 166.548 -0.720445 0.215553 0
M  V30 1745 H 168.519 -2.49483 1.63709 0
M  V30 1746 C 167.268 -3.47352 0.15543 0
M  V30 1747 H 166.591 -3.89206 0.914246 0
M  V30 1748 H 168.031 -4.2395 -0.0647967 0
M  V30 1749 C 166.49 -3.1814 -1.10852 0
M  V30 1750 O 167.02 -3.36604 -2.19227 0
M  V30 1751 N 165.226 -2.72045 -1.02176 0
M  V30 1752 H 164.773 -2.57221 -0.139764 0
M  V30 1753 H 164.731 -2.52875 -1.8682 0
M  V30 1754 N 168.503 -0.877838 -1.30888 0
M  V30 1755 C 169.752 -0.488793 -1.95688 0
M  V30 1756 C 170.065 0.965485 -1.70111 0
M  V30 1757 O 171.271 1.46104 -2.28836 0
M  V30 1758 C 169.727 -0.823201 -3.50359 0
M  V30 1759 C 169.335 -2.29477 -3.84765 0
M  V30 1760 C 171.079 -0.503009 -4.21509 0
M  V30 1761 C 168.986 -2.57118 -5.32583 0
M  V30 1762 H 167.916 -0.179062 -0.732429 0
M  V30 1763 H 170.567 -1.07183 -1.48943 0
M  V30 1764 H 168.949 -0.169331 -3.95638 0
M  V30 1765 H 170.123 -2.99236 -3.5042 0
M  V30 1766 H 168.438 -2.58178 -3.267 0
M  V30 1767 H 171.035 -0.68665 -5.30273 0
M  V30 1768 H 171.378 0.557109 -4.12555 0
M  V30 1769 H 171.911 -1.11376 -3.8189 0
M  V30 1770 H 168.65 -3.61843 -5.4658 0
M  V30 1771 H 168.17 -1.91961 -5.68253 0
M  V30 1772 H 169.849 -2.42251 -5.99936 0
M  V30 1773 N 169.982 1.44106 -0.638065 0
M  V30 1774 C 171.23 2.01579 -0.145043 0
M  V30 1775 C 171.551 1.50496 1.24 0
M  V30 1776 O 170.821 0.711374 1.82527 0
M  V30 1777 H 169.401 0.745282 -0.05063 0
M  V30 1778 H 172.063 1.76516 -0.826327 0
M  V30 1779 H 171.159 3.11877 -0.118039 0
M  V30 1780 N 171.46 0.379036 1.52974 0
M  V30 1781 C 172.706 -0.206727 2.01744 0
M  V30 1782 C 173.039 -1.47314 1.26539 0
M  V30 1783 O 172.314 -1.91084 0.362903 0
M  V30 1784 C 172.597 -0.485066 3.56818 0
M  V30 1785 C 172.45 0.795919 4.42702 0
M  V30 1786 C 173.769 -1.28003 4.21074 0
M  V30 1787 H 170.888 -0.0736607 0.73331 0
M  V30 1788 H 173.53 0.506581 1.83122 0
M  V30 1789 H 171.68 -1.09272 3.72816 0
M  V30 1790 H 173.352 1.43307 4.38476 0
M  V30 1791 H 171.595 1.41344 4.10127 0
M  V30 1792 H 172.266 0.555947 5.49193 0
M  V30 1793 H 174.742 -0.765867 4.08991 0
M  V30 1794 H 173.618 -1.44352 5.29579 0
M  V30 1795 H 173.879 -2.29236 3.78026 0
M  V30 1796 N 172.938 -1.57226 0.108567 0
M  V30 1797 C 173.885 -2.14756 -0.845481 0
M  V30 1798 C 174.855 -1.06971 -1.27068 0
M  V30 1799 O 176.04 -1.34827 -1.35005 0
M  V30 1800 C 173.18 -2.74298 -2.09415 0
M  V30 1801 C 172.293 -3.96358 -1.71826 0
M  V30 1802 C 171.428 -4.44021 -2.9158 0
M  V30 1803 C 170.467 -5.58637 -2.50181 0
M  V30 1804 N 169.604 -6.01091 -3.62814 0
M  V30 1805 H 174.444 -2.95961 -0.348035 0
M  V30 1806 H 171.981 -1.46226 -0.160106 0
M  V30 1807 H 173.939 -3.06945 -2.82561 0
M  V30 1808 H 172.569 -1.95801 -2.56636 0
M  V30 1809 H 171.621 -3.69939 -0.885947 0
M  V30 1810 H 172.933 -4.79504 -1.37394 0
M  V30 1811 H 172.087 -4.78522 -3.72963 0
M  V30 1812 H 170.826 -3.59803 -3.29231 0
M  V30 1813 H 169.831 -5.23751 -1.67228 0
M  V30 1814 H 171.056 -6.44613 -2.13659 0
M  V30 1815 H 169.002 -5.19817 -4.00158 0
M  V30 1816 H 168.919 -6.79066 -3.32273 0
M  V30 1817 H 170.187 -6.40227 -4.44668 0
M  V30 1818 N 174.416 0.165178 -1.56732 0
M  V30 1819 C 175.665 0.879143 -1.81532 0
M  V30 1820 C 175.978 1.83144 -0.686842 0
M  V30 1821 O 177.184 2.58823 -0.819944 0
M  V30 1822 C 175.64 1.61388 -3.21686 0
M  V30 1823 C 175.248 0.704904 -4.4242 0
M  V30 1824 C 176.992 2.3157 -3.55774 0
M  V30 1825 C 174.899 1.44022 -5.73595 0
M  V30 1826 H 173.829 0.332033 -0.676957 0
M  V30 1827 H 176.48 0.132008 -1.83025 0
M  V30 1828 H 174.862 2.40599 -3.14529 0
M  V30 1829 H 176.036 -0.0506815 -4.60772 0
M  V30 1830 H 174.351 0.112419 -4.16248 0
M  V30 1831 H 176.948 2.8719 -4.51028 0
M  V30 1832 H 177.291 3.07201 -2.8095 0
M  V30 1833 H 177.824 1.59297 -3.64513 0
M  V30 1834 H 174.563 0.72612 -6.51466 0
M  V30 1835 H 174.083 2.16898 -5.5921 0
M  V30 1836 H 175.762 1.98606 -6.15764 0
M  V30 1837 N 175.894 1.51508 0.433938 0
M  V30 1838 C 177.142 1.6402 1.18075 0
M  V30 1839 C 177.463 0.360328 1.91642 0
M  V30 1840 O 176.733 -0.623945 1.85698 0
M  V30 1841 H 175.313 0.6045 0.43885 0
M  V30 1842 H 177.975 1.88452 0.497178 0
M  V30 1843 H 177.071 2.46949 1.90847 0
M  V30 1844 N 177.372 -0.689602 1.41712 0
M  V30 1845 C 178.62 -1.4468 1.4111 0
M  V30 1846 C 178.941 -1.94986 0.0232196 0
M  V30 1847 O 178.211 -1.72097 -0.935913 0
M  V30 1848 H 176.791 -0.536847 0.519427 0
M  V30 1849 H 179.453 -0.815825 1.77004 0
M  V30 1850 H 178.549 -2.30706 2.10193 0
M  V30 1851 N 178.85 -1.27639 -0.924453 0
M  V30 1852 C 180.078 -1.16989 -1.70649 0
M  V30 1853 C 180.493 0.272869 -1.86818 0
M  V30 1854 O 179.85 1.18549 -1.38753 0
M  V30 1855 C 179.901 -1.85229 -3.10439 0
M  V30 1856 O 179.622 -3.23868 -2.95028 0
M  V30 1857 C 181.123 -1.80746 -4.04779 0
M  V30 1858 H 178.343 -0.406595 -0.53378 0
M  V30 1859 H 180.887 -1.68569 -1.15778 0
M  V30 1860 H 179.042 -1.37545 -3.6216 0
M  V30 1861 H 179.456 -3.57889 -3.83426 0
M  V30 1862 H 180.93 -2.33101 -5.00368 0
M  V30 1863 H 181.407 -0.777499 -4.32263 0
M  V30 1864 H 182.013 -2.28059 -3.58984 0
M  V30 1865 N 180.328 1.1314 -1.09713 0
M  V30 1866 C 181.291 2.16831 -0.742751 0
M  V30 1867 C 182.291 1.59159 0.229129 0
M  V30 1868 O 183.481 1.74199 0.00693237 0
M  V30 1869 C 180.613 3.40756 -0.0989168 0
M  V30 1870 H 181.806 2.49695 -1.66109 0
M  V30 1871 H 179.359 1.2802 -0.896699 0
M  V30 1872 H 180.094 3.13485 0.830514 0
M  V30 1873 H 179.879 3.83888 -0.798265 0
M  V30 1874 H 181.369 4.17386 0.133524 0
M  V30 1875 N 181.806 0.884767 1.30421 0
M  V30 1876 C 183.054 0.502112 1.95763 0
M  V30 1877 C 183.375 -0.951815 1.70192 0
M  V30 1878 O 182.645 -1.6692 1.0254 0
M  V30 1879 H 181.225 0.182694 0.724315 0
M  V30 1880 H 183.887 1.1278 1.58955 0
M  V30 1881 H 182.983 0.672188 3.04775 0
M  V30 1882 N 183.284 -1.43765 0.645699 0
M  V30 1883 C 184.7 -1.56509 0.312591 0
M  V30 1884 C 184.9 -1.6307 -1.18365 0
M  V30 1885 O 183.956 -1.58167 -1.96824 0
M  V30 1886 C 185.269 -2.82968 1.01733 0
M  V30 1887 C 186.817 -2.96701 0.996865 0
M  V30 1888 C 187.292 -4.25982 1.68236 0
M  V30 1889 N 188.783 -4.32829 1.64964 0
M  V30 1890 C 189.518 -5.31613 2.14885 0
M  V30 1891 N 189.014 -6.36718 2.73061 0
M  V30 1892 N 190.807 -5.23217 2.05428 0
M  V30 1893 H 182.958 -1.3775 1.61675 0
M  V30 1894 H 185.221 -0.661067 0.679481 0
M  V30 1895 H 184.927 -2.84156 2.0724 0
M  V30 1896 H 184.801 -3.72957 0.564177 0
M  V30 1897 H 187.188 -2.95058 -0.0497719 0
M  V30 1898 H 187.269 -2.08022 1.48865 0
M  V30 1899 H 186.913 -4.28386 2.72852 0
M  V30 1900 H 186.843 -5.13545 1.16529 0
M  V30 1901 H 189.334 -3.57493 1.22503 0
M  V30 1902 H 189.647 -7.08401 3.08848 0
M  V30 1903 H 187.992 -6.37362 2.77118 0
M  V30 1904 H 191.183 -4.40019 1.59689 0
M  V30 1905 H 191.356 -6.00045 2.44643 0
M  V30 1906 N 184.763 -0.387143 -1.52771 0
M  V30 1907 C 186.011 0.195349 -2.01154 0
M  V30 1908 C 186.332 1.475 -1.27549 0
M  V30 1909 O 185.602 1.91878 -0.394924 0
M  V30 1910 H 184.182 0.075178 -0.743207 0
M  V30 1911 H 186.844 -0.518337 -1.87881 0
M  V30 1912 H 185.94 0.407096 -3.09434 0
M  V30 1913 N 186.241 1.57166 -0.116904 0
M  V30 1914 C 187.487 1.96206 0.536166 0
M  V30 1915 C 187.842 0.99915 1.64422 0
M  V30 1916 O 187.135 0.0288195 1.91578 0
M  V30 1917 C 187.329 3.39508 1.11664 0
M  V30 1918 C 187.158 4.49651 0.0663474 0
M  V30 1919 C 185.928 5.03982 -0.36474 0
M  V30 1920 C 188.126 5.09322 -0.713829 0
M  V30 1921 N 186.108 5.97699 -1.40102 0
M  V30 1922 C 187.479 5.98963 -1.60136 0
M  V30 1923 C 189.534 4.91989 -0.764948 0
M  V30 1924 C 188.237 6.73128 -2.53556 0
M  V30 1925 C 190.263 5.66833 -1.68685 0
M  V30 1926 C 189.625 6.56158 -2.56196 0
M  V30 1927 H 185.724 0.764203 0.165886 0
M  V30 1928 H 188.308 1.93623 -0.204535 0
M  V30 1929 H 186.479 3.42743 1.82707 0
M  V30 1930 H 188.211 3.65677 1.73386 0
M  V30 1931 H 184.966 4.73592 0.027252 0
M  V30 1932 H 185.39 6.49262 -1.91802 0
M  V30 1933 H 190.032 4.22676 -0.102501 0
M  V30 1934 H 187.75 7.41689 -3.20816 0
M  V30 1935 H 191.336 5.55427 -1.73181 0
M  V30 1936 H 190.216 7.13057 -3.26372 0
M  V30 1937 N 187.719 -0.156864 1.56817 0
M  V30 1938 C 188.947 -0.886316 1.86955 0
M  V30 1939 C 189.362 -1.75185 0.703975 0
M  V30 1940 O 188.719 -1.79555 -0.326552 0
M  V30 1941 C 188.77 -1.75117 3.16253 0
M  V30 1942 O 188.491 -0.920537 4.2832 0
M  V30 1943 C 189.992 -2.58905 3.59837 0
M  V30 1944 H 187.212 -0.25678 0.619923 0
M  V30 1945 H 189.756 -0.152615 2.0393 0
M  V30 1946 H 187.911 -2.43805 3.01062 0
M  V30 1947 H 188.325 -1.51337 5.02192 0
M  V30 1948 H 189.799 -3.1518 4.53172 0
M  V30 1949 H 190.276 -3.34472 2.84649 0
M  V30 1950 H 190.882 -1.95526 3.7769 0
M  V30 1951 N 189.197 -1.51736 -0.425897 0
M  V30 1952 C 190.16 -1.73271 -1.50032 0
M  V30 1953 C 191.16 -0.602639 -1.4908 0
M  V30 1954 O 192.35 -0.87033 -1.509 0
M  V30 1955 C 189.482 -1.79969 -2.89523 0
M  V30 1956 H 190.675 -2.69172 -1.32237 0
M  V30 1957 H 188.228 -1.41899 -0.65532 0
M  V30 1958 H 188.963 -0.859241 -3.1271 0
M  V30 1959 H 188.748 -2.62109 -2.91619 0
M  V30 1960 H 190.238 -1.9843 -3.67444 0
M  V30 1961 N 190.675 0.682077 -1.42076 0
M  V30 1962 C 191.905 1.46844 -1.45329 0
M  V30 1963 C 192.313 1.89102 -0.0609328 0
M  V30 1964 O 191.656 1.58238 0.933082 0
M  V30 1965 C 191.718 2.75375 -2.31104 0
M  V30 1966 C 191.382 2.55238 -3.79081 0
M  V30 1967 C 192.379 2.20309 -4.70914 0
M  V30 1968 C 190.064 2.70459 -4.2327 0
M  V30 1969 C 192.058 2.00859 -6.04925 0
M  V30 1970 C 189.745 2.50624 -5.57343 0
M  V30 1971 C 190.743 2.15876 -6.47986 0
M  V30 1972 O 190.431 1.96227 -7.79583 0
M  V30 1973 H 190.163 0.4586 -0.496651 0
M  V30 1974 H 192.717 0.846131 -1.87162 0
M  V30 1975 H 190.947 3.40061 -1.84107 0
M  V30 1976 H 192.636 3.37231 -2.25898 0
M  V30 1977 H 193.402 2.08153 -4.38061 0
M  V30 1978 H 189.281 2.96485 -3.53012 0
M  V30 1979 H 192.825 1.7366 -6.75639 0
M  V30 1980 H 188.722 2.62375 -5.89771 0
M  V30 1981 H 189.49 2.10883 -7.90867 0
M  V30 1982 N 192.153 1.28127 0.917671 0
M  V30 1983 C 193.101 1.11569 2.04096 0
M  V30 1984 C 194.095 0.0360242 1.69362 0
M  V30 1985 O 195.301 0.194501 1.78946 0
M  V30 1986 H 191.676 0.344097 0.668656 0
M  V30 1987 H 193.647 2.06711 2.15205 0
M  V30 1988 C 192.396 0.790197 3.38602 0
M  V30 1989 H 191.719 1.61293 3.6582 0
M  V30 1990 H 193.159 0.714271 4.1794 0
M  V30 1991 C 191.618 -0.505897 3.3308 0
M  V30 1992 O 192.148 -1.53736 3.71117 0
M  V30 1993 N 190.354 -0.505193 2.86175 0
M  V30 1994 H 189.901 0.334621 2.55417 0
M  V30 1995 H 189.859 -1.37243 2.82863 0
M  V30 1996 N 193.631 -1.12557 1.10312 0
M  V30 1997 C 195.042 -1.65574 0.862678 0
M  V30 1998 C 195.393 -1.86566 -0.607256 0
M  V30 1999 O 194.518 -1.59121 -1.46662 0
M  V30 2000 C 195.113 -3.00776 1.55947 0
M  V30 2001 C 193.672 -3.50748 1.36576 0
M  V30 2002 C 192.819 -2.25797 1.60968 0
M  V30 2003 H 195.77 -0.963552 1.26101 0
M  V30 2004 H 195.791 -3.67185 0.997753 0
M  V30 2005 H 195.303 -2.85465 2.62928 0
M  V30 2006 H 193.404 -3.71245 0.317531 0
M  V30 2007 H 193.517 -4.30289 2.10686 0
M  V30 2008 H 191.881 -2.32841 1.03234 0
M  V30 2009 H 192.664 -2.13043 2.69198 0
M  V30 2010 N 195.109 -0.891671 -1.2995 0
M  V30 2011 C 196.357 -0.512486 -1.95494 0
M  V30 2012 C 196.678 0.942776 -1.70695 0
M  V30 2013 O 195.948 1.66374 -1.03424 0
M  V30 2014 H 194.528 -0.186533 -0.723336 0
M  V30 2015 H 197.19 -1.13621 -1.58355 0
M  V30 2016 H 196.286 -0.688342 -3.04415 0
M  V30 2017 N 196.587 1.43421 -0.653314 0
M  V30 2018 C 197.815 2.06163 -0.174491 0
M  V30 2019 C 198.23 1.48969 1.1599 0
M  V30 2020 O 197.587 0.621042 1.71608 0
M  V30 2021 C 197.638 3.61417 -0.0774865 0
M  V30 2022 O 197.359 4.16485 -1.35912 0
M  V30 2023 C 198.86 4.41235 0.427402 0
M  V30 2024 H 196.08 0.664946 -0.0899353 0
M  V30 2025 H 198.624 1.83924 -0.893988 0
M  V30 2026 H 196.779 3.82841 0.59257 0
M  V30 2027 H 197.193 5.10153 -1.21839 0
M  V30 2028 H 198.667 5.5021 0.44423 0
M  V30 2029 H 199.144 4.14268 1.45873 0
M  V30 2030 H 199.75 4.2478 -0.210167 0
M  V30 2031 N 198.065 0.39524 1.52563 0
M  V30 2032 C 199.342 -0.242908 1.94086 0
M  V30 2033 C 199.722 -1.63841 1.33114 0
M  V30 2034 O 199.07 -2.22928 0.501529 0
M  V30 2035 C 199.28 -0.26327 3.48006 0
M  V30 2036 C 200.628 -0.489354 4.21771 0
M  V30 2037 O 201.652 -0.343226 3.54543 0
M  V30 2038 O 200.511 -0.776169 5.4096 0
M  V30 2039 H 197.605 -0.152536 0.812811 0
M  V30 2040 H 200.151 0.450178 1.6362 0
M  V30 2041 H 198.923 0.713985 3.84731 0
M  V30 2042 H 198.546 -1.00103 3.84792 0
M  V30 2043 N 199.544 -1.57102 0.125237 0
M  V30 2044 C 200.454 -2.19191 -0.8362 0
M  V30 2045 C 201.47 -1.16985 -1.28805 0
M  V30 2046 O 202.646 -1.49479 -1.34974 0
M  V30 2047 C 199.711 -2.78407 -2.06617 0
M  V30 2048 C 198.772 -3.9567 -1.66565 0
M  V30 2049 C 198.005 -4.52052 -2.83698 0
M  V30 2050 O 198.228 -4.07326 -3.99302 0
M  V30 2051 O 197.162 -5.42645 -2.60423 0
M  V30 2052 H 200.988 -3.01816 -0.337776 0
M  V30 2053 H 198.573 -1.4906 -0.100695 0
M  V30 2054 H 200.455 -3.16129 -2.7864 0
M  V30 2055 H 199.13 -1.9881 -2.55453 0
M  V30 2056 H 198.037 -3.62705 -0.916296 0
M  V30 2057 H 199.37 -4.76722 -1.22464 0
M  V30 2058 N 201.022 0.148545 -1.56898 0
M  V30 2059 C 202.247 0.880385 -1.87787 0
M  V30 2060 C 202.672 1.74018 -0.714093 0
M  V30 2061 O 202.03 1.78153 0.336343 0
M  V30 2062 C 202.078 1.71422 -3.17249 0
M  V30 2063 O 201.182 2.8183 -3.01074 0
M  V30 2064 H 200.523 0.245301 -0.617028 0
M  V30 2065 H 203.053 0.139826 -2.04122 0
M  V30 2066 H 203.063 2.10954 -3.49231 0
M  V30 2067 H 201.738 1.08284 -4.01556 0
M  V30 2068 H 200.315 2.45715 -2.80497 0
M  V30 2069 N 202.5 1.5196 0.417844 0
M  V30 2070 C 203.748 1.65263 1.16329 0
M  V30 2071 C 204.069 0.380634 1.91249 0
M  V30 2072 O 203.339 -0.604214 1.86349 0
M  V30 2073 H 201.919 0.60912 0.432414 0
M  V30 2074 H 204.581 1.88969 0.477162 0
M  V30 2075 H 203.677 2.4896 1.88217 0
M  V30 2076 N 203.978 -0.674533 1.42435 0
M  V30 2077 C 205.226 -1.43175 1.42637 0
M  V30 2078 C 205.547 -1.94951 0.0438992 0
M  V30 2079 O 204.817 -1.7308 -0.917607 0
M  V30 2080 H 203.397 -0.531307 0.525092 0
M  V30 2081 H 206.059 -0.797006 1.77859 0
M  V30 2082 H 205.155 -2.28463 2.12629 0
M  V30 2083 N 205.456 -1.28612 -0.910864 0
M  V30 2084 C 206.389 -1.07109 -2.01502 0
M  V30 2085 C 207.367 0.013706 -1.62594 0
M  V30 2086 O 208.551 -0.134796 -1.88017 0
M  V30 2087 C 205.678 -0.628255 -3.32822 0
M  V30 2088 C 204.724 -1.71012 -3.90714 0
M  V30 2089 S 205.557 -3.30676 -4.21205 0
M  V30 2090 C 206.713 -2.88234 -5.55583 0
M  V30 2091 H 206.946 -2.00591 -2.19432 0
M  V30 2092 H 204.479 -1.12633 -1.05609 0
M  V30 2093 H 206.437 -0.37946 -4.08742 0
M  V30 2094 H 205.098 0.28678 -3.12788 0
M  V30 2095 H 204.291 -1.35195 -4.85529 0
M  V30 2096 H 203.893 -1.91186 -3.21441 0
M  V30 2097 H 206.185 -2.34584 -6.35591 0
M  V30 2098 H 207.128 -3.81857 -5.96314 0
M  V30 2099 H 207.536 -2.26862 -5.16908 0
M  V30 2100 N 206.934 1.1197 -1.10907 0
M  V30 2101 C 208.18 1.8386 -0.855773 0
M  V30 2102 C 208.513 1.84134 0.617103 0
M  V30 2103 O 207.788 1.29041 1.45529 0
M  V30 2104 C 208.071 3.31305 -1.411 0
M  V30 2105 C 207.924 3.39456 -2.9511 0
M  V30 2106 C 209.243 4.2721 -1.05736 0
M  V30 2107 H 206.362 0.667545 -0.312334 0
M  V30 2108 H 209.004 1.31331 -1.37303 0
M  V30 2109 H 207.154 3.76169 -0.97105 0
M  V30 2110 H 208.826 3.03191 -3.47668 0
M  V30 2111 H 207.069 2.79849 -3.31462 0
M  V30 2112 H 207.74 4.43209 -3.29044 0
M  V30 2113 H 210.216 3.90497 -1.43706 0
M  V30 2114 H 209.092 5.28775 -1.47269 0
M  V30 2115 H 209.353 4.42088 0.0325958 0
M  V30 2116 N 208.412 0.89855 1.29475 0
M  V30 2117 C 209.659 0.523882 1.95606 0
M  V30 2118 C 209.987 -0.929608 1.70847 0
M  V30 2119 O 209.242 -1.67401 1.01367 0
M  V30 2120 C 209.541 0.761398 3.49195 0
M  V30 2121 C 209.207 2.19207 3.94029 0
M  V30 2122 C 207.869 2.58326 4.05982 0
M  V30 2123 C 210.221 3.12379 4.17216 0
M  V30 2124 C 207.549 3.898 4.38489 0
M  V30 2125 C 209.901 4.43401 4.51197 0
M  V30 2126 C 208.565 4.82394 4.61359 0
M  V30 2127 H 207.835 0.191702 0.715773 0
M  V30 2128 H 210.482 1.13699 1.54094 0
M  V30 2129 H 208.787 0.0653622 3.91745 0
M  V30 2130 H 210.484 0.450904 3.98457 0
M  V30 2131 H 207.074 1.87846 3.85242 0
M  V30 2132 H 211.258 2.83371 4.07449 0
M  V30 2133 H 206.514 4.19734 4.44559 0
M  V30 2134 H 210.688 5.15623 4.68087 0
M  V30 2135 H 208.315 5.84306 4.86303 0
M  V30 2136 N 209.89 -1.43072 0.660911 0
M  V30 2137 C 210.8 -2.34585 -0.0264163 0
M  V30 2138 C 211.816 -1.54316 -0.803898 0
M  V30 2139 O 212.992 -1.86939 -0.749391 0
M  V30 2140 C 210.057 -3.32689 -0.975639 0
M  V30 2141 C 209.118 -4.2886 -0.194236 0
M  V30 2142 C 208.351 -5.22278 -1.09825 0
M  V30 2143 O 208.574 -5.20299 -2.33763 0
M  V30 2144 O 207.508 -5.99228 -0.566513 0
M  V30 2145 H 211.334 -2.94869 0.727034 0
M  V30 2146 H 208.919 -1.43342 0.42111 0
M  V30 2147 H 210.801 -3.92995 -1.52094 0
M  V30 2148 H 209.476 -2.74898 -1.70918 0
M  V30 2149 H 208.383 -3.72011 0.394835 0
M  V30 2150 H 209.716 -4.89655 0.499899 0
M  V30 2151 N 211.368 -0.403325 -1.52352 0
M  V30 2152 C 212.298 0.416205 -2.29761 0
M  V30 2153 C 213.279 1.05123 -1.33728 0
M  V30 2154 O 214.464 1.06134 -1.62632 0
M  V30 2155 C 211.594 1.53624 -3.11475 0
M  V30 2156 C 210.548 1.02653 -4.15507 0
M  V30 2157 C 209.874 2.23971 -4.85532 0
M  V30 2158 C 211.174 0.08463 -5.22231 0
M  V30 2159 H 212.868 -0.229701 -2.98518 0
M  V30 2160 H 210.414 -0.111913 -1.43564 0
M  V30 2161 H 212.367 2.1165 -3.64393 0
M  V30 2162 H 211.091 2.20994 -2.40477 0
M  V30 2163 H 209.75 0.46871 -3.63591 0
M  V30 2164 H 209.398 2.89883 -4.11068 0
M  V30 2165 H 209.098 1.90521 -5.55856 0
M  V30 2166 H 210.622 2.82614 -5.41259 0
M  V30 2167 H 212.036 0.573509 -5.70424 0
M  V30 2168 H 210.433 -0.160783 -5.99885 0
M  V30 2169 H 211.503 -0.86237 -4.7717 0
M  V30 2170 N 212.846 1.57033 -0.133567 0
M  V30 2171 C 214.094 1.953 0.519848 0
M  V30 2172 C 214.415 1.01866 1.66278 0
M  V30 2173 O 213.685 0.0776513 1.95746 0
M  V30 2174 H 212.265 0.721091 0.195032 0
M  V30 2175 H 214.927 1.93809 -0.205921 0
M  V30 2176 H 214.023 2.98695 0.904854 0
M  V30 2177 N 214.325 -0.140222 1.56975 0
M  V30 2178 C 215.553 -0.866437 1.87884 0
M  V30 2179 C 215.968 -1.74428 0.722517 0
M  V30 2180 O 215.325 -1.79891 -0.30749 0
M  V30 2181 C 215.376 -1.71753 3.18093 0
M  V30 2182 O 215.097 -0.875056 4.29272 0
M  V30 2183 C 216.598 -2.55074 3.62563 0
M  V30 2184 H 213.818 -0.25019 0.622612 0
M  V30 2185 H 216.362 -0.130977 2.0408 0
M  V30 2186 H 214.517 -2.40598 3.03631 0
M  V30 2187 H 214.931 -1.46002 5.03769 0
M  V30 2188 H 216.405 -3.10356 4.5649 0
M  V30 2189 H 216.882 -3.31434 2.88181 0
M  V30 2190 H 217.488 -1.91509 3.79743 0
M  V30 2191 N 215.803 -1.52179 -0.40978 0
M  V30 2192 C 217.08 -1.56769 -1.16974 0
M  V30 2193 C 217.46 -0.348322 -2.08206 0
M  V30 2194 O 216.808 0.664862 -2.18613 0
M  V30 2195 C 217.018 -2.89603 -1.9476 0
M  V30 2196 C 218.366 -3.42579 -2.50849 0
M  V30 2197 O 219.39 -2.91338 -2.04941 0
M  V30 2198 O 218.249 -4.32054 -3.34652 0
M  V30 2199 H 215.343 -0.631439 -0.534054 0
M  V30 2200 H 217.889 -1.64507 -0.416613 0
M  V30 2201 H 216.661 -3.698 -1.27921 0
M  V30 2202 H 216.284 -2.85155 -2.77079 0
M  V30 2203 N 217.281 0.66697 -1.42791 0
M  V30 2204 C 218.527 1.42754 -1.44889 0
M  V30 2205 C 218.882 1.92283 -0.0669755 0
M  V30 2206 O 218.175 1.68494 0.912154 0
M  V30 2207 C 218.369 2.6349 -2.4147 0
M  V30 2208 C 218.198 2.25776 -3.88915 0
M  V30 2209 C 216.968 2.1476 -4.57391 0
M  V30 2210 C 219.166 1.86927 -4.79127 0
M  V30 2211 N 217.148 1.70232 -5.89826 0
M  V30 2212 C 218.519 1.53378 -6.00729 0
M  V30 2213 C 220.574 1.73989 -4.66511 0
M  V30 2214 C 219.277 1.08187 -7.11117 0
M  V30 2215 C 221.303 1.30203 -5.76889 0
M  V30 2216 C 220.665 0.975818 -6.97608 0
M  V30 2217 H 216.764 0.518559 -0.585338 0
M  V30 2218 H 219.348 0.768906 -1.78874 0
M  V30 2219 H 217.519 3.27033 -2.09533 0
M  V30 2220 H 219.251 3.30123 -2.34096 0
M  V30 2221 H 216.006 2.3408 -4.11708 0
M  V30 2222 H 216.43 1.50369 -6.6009 0
M  V30 2223 H 221.072 1.97853 -3.7365 0
M  V30 2224 H 218.79 0.830701 -8.03819 0
M  V30 2225 H 222.376 1.20701 -5.69142 0
M  V30 2226 H 221.256 0.642157 -7.81566 0
M  V30 2227 N 218.759 1.29093 0.90403 0
M  V30 2228 C 219.691 1.09658 2.01266 0
M  V30 2229 C 220.704 0.0453729 1.62737 0
M  V30 2230 O 221.893 0.289446 1.76138 0
M  V30 2231 C 218.993 0.646278 3.32681 0
M  V30 2232 C 218.166 1.77505 3.99763 0
M  V30 2233 C 217.225 1.31649 5.09465 0
M  V30 2234 O 216.251 2.02045 5.32134 0
M  V30 2235 N 217.453 0.184997 5.80205 0
M  V30 2236 H 220.218 2.05135 2.18494 0
M  V30 2237 H 217.779 1.20975 1.07594 0
M  V30 2238 H 219.771 0.322906 4.0341 0
M  V30 2239 H 218.341 -0.215916 3.11853 0
M  V30 2240 H 217.561 2.26752 3.22455 0
M  V30 2241 H 218.849 2.53198 4.41325 0
M  V30 2242 H 218.247 -0.402021 5.6427 0
M  V30 2243 H 216.804 -0.0790358 6.51752 0
M  V30 2244 N 220.237 -1.11381 1.11499 0
M  V30 2245 C 221.184 -2.17439 0.773887 0
M  V30 2246 C 222.154 -1.64132 -0.254899 0
M  V30 2247 O 223.339 -1.90345 -0.13168 0
M  V30 2248 C 220.479 -3.44373 0.223917 0
M  V30 2249 C 219.592 -4.1168 1.30934 0
M  V30 2250 C 218.727 -5.263 0.71984 0
M  V30 2251 C 217.766 -5.85493 1.78507 0
M  V30 2252 N 216.903 -6.91507 1.21502 0
M  V30 2253 H 221.743 -2.45962 1.68246 0
M  V30 2254 H 219.28 -1.20744 0.840191 0
M  V30 2255 H 221.238 -4.17047 -0.112921 0
M  V30 2256 H 219.868 -3.16232 -0.647851 0
M  V30 2257 H 218.92 -3.37073 1.76312 0
M  V30 2258 H 220.232 -4.51729 2.11524 0
M  V30 2259 H 219.386 -6.05785 0.333094 0
M  V30 2260 H 218.125 -4.87559 -0.117377 0
M  V30 2261 H 217.13 -5.04686 2.18111 0
M  V30 2262 H 218.355 -6.26301 2.62533 0
M  V30 2263 H 216.301 -6.54783 0.399455 0
M  V30 2264 H 216.218 -7.30214 1.95763 0
M  V30 2265 H 217.486 -7.74795 0.855181 0
M  V30 2266 N 221.715 -0.905404 -1.28997 0
M  V30 2267 C 222.945 -0.549049 -1.99171 0
M  V30 2268 C 223.353 0.87203 -1.67906 0
M  V30 2269 O 222.696 1.58796 -0.923561 0
M  V30 2270 C 222.758 -0.668306 -3.53234 0
M  V30 2271 C 222.422 -2.0574 -4.08069 0
M  V30 2272 C 223.419 -3.0292 -4.22534 0
M  V30 2273 C 221.104 -2.36833 -4.42962 0
M  V30 2274 C 223.098 -4.29314 -4.71135 0
M  V30 2275 C 220.785 -3.63467 -4.91258 0
M  V30 2276 C 221.783 -4.59522 -5.053 0
M  V30 2277 O 221.471 -5.83907 -5.52546 0
M  V30 2278 H 221.203 -0.208784 -0.64295 0
M  V30 2279 H 223.757 -1.21836 -1.65363 0
M  V30 2280 H 221.987 0.0580547 -3.86656 0
M  V30 2281 H 223.676 -0.320273 -4.04634 0
M  V30 2282 H 224.442 -2.80216 -3.95859 0
M  V30 2283 H 220.321 -1.62824 -4.31288 0
M  V30 2284 H 223.865 -5.04293 -4.8201 0
M  V30 2285 H 219.762 -3.86 -5.17372 0
M  V30 2286 H 220.53 -5.86578 -5.70849 0
M  V30 2287 N 223.193 1.4272 -0.668489 0
M  V30 2288 C 224.103 2.34596 0.0139753 0
M  V30 2289 C 225.119 1.5474 0.795703 0
M  V30 2290 O 226.295 1.87334 0.739466 0
M  V30 2291 C 223.36 3.33202 0.957982 0
M  V30 2292 C 222.421 4.28957 0.17149 0
M  V30 2293 C 221.654 5.22853 1.07053 0
M  V30 2294 O 221.877 5.21531 2.31001 0
M  V30 2295 O 220.811 5.9952 0.534727 0
M  V30 2296 H 224.637 2.9448 -0.742661 0
M  V30 2297 H 222.222 1.43117 -0.428705 0
M  V30 2298 H 224.104 3.93796 1.50008 0
M  V30 2299 H 222.779 2.758 1.69458 0
M  V30 2300 H 221.686 3.71796 -0.414558 0
M  V30 2301 H 223.019 4.89383 -0.52586 0
M  V30 2302 N 224.671 0.411399 1.52136 0
M  V30 2303 C 225.918 -0.163645 2.01838 0
M  V30 2304 C 226.246 -1.4495 1.29691 0
M  V30 2305 O 225.501 -1.91725 0.392431 0
M  V30 2306 C 225.8 -0.455872 3.54481 0
M  V30 2307 C 225.466 0.741055 4.44769 0
M  V30 2308 C 224.128 1.06936 4.69167 0
M  V30 2309 C 226.48 1.54075 4.97906 0
M  V30 2310 C 223.808 2.19851 5.43951 0
M  V30 2311 C 226.16 2.66067 5.73926 0
M  V30 2312 C 224.824 2.99381 5.96596 0
M  V30 2313 H 224.094 -0.0598821 0.738576 0
M  V30 2314 H 226.741 0.553283 1.83333 0
M  V30 2315 H 225.046 -1.2544 3.71177 0
M  V30 2316 H 226.743 -0.913802 3.90449 0
M  V30 2317 H 223.333 0.475192 4.25958 0
M  V30 2318 H 227.517 1.30033 4.78963 0
M  V30 2319 H 222.773 2.46006 5.59724 0
M  V30 2320 H 226.947 3.28419 6.14096 0
M  V30 2321 H 224.574 3.86992 6.54325 0
M  V30 2322 N 226.149 -1.5696 0.141893 0
M  V30 2323 C 227.059 -2.20066 -0.812905 0
M  V30 2324 C 228.075 -1.18344 -1.27557 0
M  V30 2325 O 229.251 -1.50902 -1.33381 0
M  V30 2326 C 226.316 -2.80583 -2.03652 0
M  V30 2327 C 225.377 -3.97414 -1.62359 0
M  V30 2328 C 224.61 -4.55036 -2.78887 0
M  V30 2329 O 224.833 -4.11538 -3.94959 0
M  V30 2330 O 223.767 -5.45376 -2.54653 0
M  V30 2331 H 227.593 -3.02157 -0.305746 0
M  V30 2332 H 225.178 -1.49159 -0.0848799 0
M  V30 2333 H 227.06 -3.19067 -2.75272 0
M  V30 2334 H 225.735 -2.01508 -2.5333 0
M  V30 2335 H 224.642 -3.63656 -0.877775 0
M  V30 2336 H 225.975 -4.77994 -1.17401 0
M  V30 2337 N 227.627 0.131896 -1.57047 0
M  V30 2338 C 228.874 0.841932 -1.84168 0
M  V30 2339 C 229.202 1.8048 -0.725066 0
M  V30 2340 O 228.457 1.93618 0.284692 0
M  V30 2341 C 228.756 1.63703 -3.17704 0
M  V30 2342 C 228.422 0.81961 -4.43388 0
M  V30 2343 C 227.084 0.594148 -4.77518 0
M  V30 2344 C 229.436 0.248977 -5.20605 0
M  V30 2345 C 226.764 -0.212409 -5.86315 0
M  V30 2346 C 229.116 -0.544701 -6.30251 0
M  V30 2347 C 227.78 -0.780599 -6.6292 0
M  V30 2348 H 227.05 0.308085 -0.673917 0
M  V30 2349 H 229.697 0.104867 -1.91213 0
M  V30 2350 H 228.002 2.44464 -3.06177 0
M  V30 2351 H 229.699 2.19015 -3.35907 0
M  V30 2352 H 226.289 1.00542 -4.16641 0
M  V30 2353 H 230.473 0.410408 -4.946 0
M  V30 2354 H 225.729 -0.404524 -6.1006 0
M  V30 2355 H 229.903 -0.993922 -6.89271 0
M  V30 2356 H 227.53 -1.40742 -7.47058 0
M  V30 2357 N 229.106 1.52395 0.401703 0
M  V30 2358 C 230.352 1.67065 1.14966 0
M  V30 2359 C 230.685 0.403052 1.89971 0
M  V30 2360 O 229.96 -0.598774 1.85054 0
M  V30 2361 C 230.243 2.8975 2.13815 0
M  V30 2362 C 230.096 4.26578 1.42658 0
M  V30 2363 C 231.415 3.07965 3.14397 0
M  V30 2364 H 228.534 0.607968 0.416587 0
M  V30 2365 H 231.176 1.84965 0.434511 0
M  V30 2366 H 229.326 2.74619 2.74803 0
M  V30 2367 H 230.998 4.53451 0.847329 0
M  V30 2368 H 229.241 4.27639 0.72849 0
M  V30 2369 H 229.912 5.08483 2.14823 0
M  V30 2370 H 232.388 3.22043 2.63491 0
M  V30 2371 H 231.264 3.95308 3.80819 0
M  V30 2372 H 231.525 2.21611 3.82545 0
M  V30 2373 N 230.584 -0.659388 1.43143 0
M  V30 2374 C 231.517 -1.78425 1.42267 0
M  V30 2375 C 232.495 -1.60085 0.284894 0
M  V30 2376 O 233.679 -1.82351 0.477527 0
M  V30 2377 C 230.806 -3.15642 1.22833 0
M  V30 2378 C 229.852 -3.52698 2.39806 0
M  V30 2379 S 230.685 -3.53372 4.02353 0
M  V30 2380 C 231.841 -4.93256 3.85291 0
M  V30 2381 H 232.074 -1.78897 2.37452 0
M  V30 2382 H 229.607 -0.831469 1.301 0
M  V30 2383 H 231.565 -3.94838 1.12308 0
M  V30 2384 H 230.226 -3.12739 0.29207 0
M  V30 2385 H 229.419 -4.52475 2.21996 0
M  V30 2386 H 229.021 -2.80899 2.46925 0
M  V30 2387 H 231.313 -5.81751 3.47235 0
M  V30 2388 H 232.256 -5.16115 4.84799 0
M  V30 2389 H 232.664 -4.665 3.17865 0
M  V30 2390 N 232.062 -1.29571 -0.897171 0
M  V30 2391 C 233.478 -1.07637 -1.17841 0
M  V30 2392 C 233.678 0.170713 -2.00776 0
M  V30 2393 O 232.734 0.867768 -2.3712 0
M  V30 2394 C 234.047 -2.3332 -1.8969 0
M  V30 2395 C 235.595 -2.38664 -2.02505 0
M  V30 2396 C 236.07 -3.64157 -2.77765 0
M  V30 2397 N 237.561 -3.64894 -2.85318 0
M  V30 2398 C 238.296 -4.58679 -3.44094 0
M  V30 2399 N 237.792 -5.62799 -4.04017 0
M  V30 2400 N 239.585 -4.46245 -3.41793 0
M  V30 2401 H 231.736 -2.09598 -0.343883 0
M  V30 2402 H 233.999 -0.923333 -0.214848 0
M  V30 2403 H 233.705 -3.24262 -1.36187 0
M  V30 2404 H 233.579 -2.41025 -2.9015 0
M  V30 2405 H 235.966 -1.48208 -2.55183 0
M  V30 2406 H 236.047 -2.34943 -1.01171 0
M  V30 2407 H 235.691 -4.54965 -2.25763 0
M  V30 2408 H 235.621 -3.65137 -3.7945 0
M  V30 2409 H 238.112 -2.89613 -2.42761 0
M  V30 2410 H 238.425 -6.3048 -4.46895 0
M  V30 2411 H 236.77 -5.66605 -4.02472 0
M  V30 2412 H 239.961 -3.64094 -2.94199 0
M  V30 2413 H 240.134 -5.19518 -3.87304 0
M  V30 2414 N 233.54 1.10788 -1.12088 0
M  V30 2415 C 234.472 2.16816 -0.743213 0
M  V30 2416 C 235.485 1.6119 0.228412 0
M  V30 2417 O 236.674 1.78497 0.0102931 0
M  V30 2418 C 233.774 3.38809 -0.0787313 0
M  V30 2419 C 232.947 4.23885 -1.0789 0
M  V30 2420 C 232.006 5.24334 -0.442713 0
M  V30 2421 O 231.032 5.58497 -1.09864 0
M  V30 2422 N 232.234 5.75079 0.791457 0
M  V30 2423 H 234.999 2.49825 -1.65552 0
M  V30 2424 H 232.56 1.26373 -1.012 0
M  V30 2425 H 234.552 4.03107 0.358766 0
M  V30 2426 H 233.122 3.03805 0.736275 0
M  V30 2427 H 232.342 3.55939 -1.69414 0
M  V30 2428 H 233.63 4.77562 -1.75533 0
M  V30 2429 H 233.028 5.49517 1.3434 0
M  V30 2430 H 231.585 6.4118 1.17183 0
M  V30 2431 N 235.018 0.912232 1.28515 0
M  V30 2432 C 235.928 0.404506 2.31086 0
M  V30 2433 C 236.944 -0.50707 1.66448 0
M  V30 2434 O 238.12 -0.393624 1.97516 0
M  V30 2435 C 235.185 -0.348572 3.44943 0
M  V30 2436 C 234.246 0.59604 4.25142 0
M  V30 2437 C 233.479 -0.121194 5.33562 0
M  V30 2438 O 233.702 -1.34317 5.5436 0
M  V30 2439 O 232.636 0.542716 5.99448 0
M  V30 2440 H 236.462 1.25579 2.76521 0
M  V30 2441 H 234.047 0.676998 1.33181 0
M  V30 2442 H 235.929 -0.77395 4.14232 0
M  V30 2443 H 234.604 -1.17571 3.01594 0
M  V30 2444 H 233.511 1.07079 3.58448 0
M  V30 2445 H 234.844 1.38995 4.72167 0
M  V30 2446 N 236.496 -1.42363 0.676048 0
M  V30 2447 C 237.724 -2.05859 0.207268 0
M  V30 2448 C 238.139 -1.50796 -1.13605 0
M  V30 2449 O 237.496 -0.648265 -1.70598 0
M  V30 2450 C 237.547 -3.61248 0.134975 0
M  V30 2451 O 237.268 -4.1427 1.42521 0
M  V30 2452 C 238.769 -4.41859 -0.357151 0
M  V30 2453 H 235.989 -0.663431 0.100503 0
M  V30 2454 H 238.533 -1.82479 0.923136 0
M  V30 2455 H 236.688 -3.83735 -0.531588 0
M  V30 2456 H 237.102 -5.0815 1.29939 0
M  V30 2457 H 238.576 -5.50847 -0.356641 0
M  V30 2458 H 239.053 -4.16536 -1.39264 0
M  V30 2459 H 239.659 -4.24392 0.27772 0
M  V30 2460 N 237.974 -0.419461 -1.51915 0
M  V30 2461 C 239.251 0.211999 -1.94448 0
M  V30 2462 C 239.631 1.61703 -1.35703 0
M  V30 2463 O 238.979 2.22102 -0.536931 0
M  V30 2464 C 239.189 0.207872 -3.4838 0
M  V30 2465 C 240.537 0.422192 -4.22496 0
M  V30 2466 O 241.561 0.286778 -3.55044 0
M  V30 2467 O 240.42 0.690009 -5.42126 0
M  V30 2468 H 237.514 0.139586 -0.815135 0
M  V30 2469 H 240.06 -0.476151 -1.62883 0
M  V30 2470 H 238.832 -0.775102 -3.83546 0
M  V30 2471 H 238.455 0.939688 -3.86336 0
M  V30 2472 N 239.452 1.56882 -0.150215 0
M  V30 2473 C 240.362 2.20494 0.801222 0
M  V30 2474 C 241.378 1.19019 1.26927 0
M  V30 2475 O 242.554 1.51607 1.32579 0
M  V30 2476 C 239.619 2.81659 2.02161 0
M  V30 2477 C 238.68 3.9827 1.60249 0
M  V30 2478 C 237.913 4.56508 2.7647 0
M  V30 2479 O 238.136 4.13627 3.92771 0
M  V30 2480 O 237.07 5.46719 2.51757 0
M  V30 2481 H 240.896 3.02315 0.289717 0
M  V30 2482 H 238.481 1.49202 0.0769684 0
M  V30 2483 H 240.363 3.20522 2.73576 0
M  V30 2484 H 239.038 2.02849 2.52258 0
M  V30 2485 H 237.945 3.64117 0.858477 0
M  V30 2486 H 239.278 4.78609 1.14864 0
M  V30 2487 N 240.93 -0.123565 1.57115 0
M  V30 2488 C 241.878 -1.17082 2.00984 0
M  V30 2489 C 242.872 -1.43136 0.906009 0
M  V30 2490 O 244.078 -1.43152 1.09121 0
M  V30 2491 H 240.453 -0.394653 0.64012 0
M  V30 2492 H 242.424 -0.774292 2.88179 0
M  V30 2493 C 241.173 -2.49057 2.42623 0
M  V30 2494 H 240.496 -2.29846 3.27125 0
M  V30 2495 H 241.936 -3.20906 2.7712 0
M  V30 2496 C 240.395 -3.11305 1.28805 0
M  V30 2497 O 240.925 -3.97171 0.60153 0
M  V30 2498 N 239.131 -2.71111 1.04628 0
M  V30 2499 H 238.678 -2.01382 1.60634 0
M  V30 2500 H 238.636 -3.1309 0.286685 0
M  V30 2501 N 242.408 -1.52605 -0.393616 0
M  V30 2502 C 243.371 -1.76415 -1.46323 0
M  V30 2503 C 244.371 -0.634126 -1.47768 0
M  V30 2504 O 245.561 -0.902142 -1.4902 0
M  V30 2505 C 242.693 -1.8607 -2.85641 0
M  V30 2506 H 243.886 -2.71916 -1.26498 0
M  V30 2507 H 241.439 -1.43257 -0.625073 0
M  V30 2508 H 242.174 -0.925378 -3.10817 0
M  V30 2509 H 241.959 -2.68235 -2.85993 0
M  V30 2510 H 243.449 -2.06179 -3.63153 0
M  V30 2511 N 243.887 0.651787 -1.4349 0
M  V30 2512 C 245.303 0.96762 -1.26922 0
M  V30 2513 C 245.503 2.00602 -0.189982 0
M  V30 2514 O 244.559 2.48793 0.431107 0
M  V30 2515 C 245.872 1.45052 -2.63401 0
M  V30 2516 C 247.42 1.5671 -2.70945 0
M  V30 2517 C 247.895 2.0839 -4.07845 0
M  V30 2518 N 249.386 2.1569 -4.09917 0
M  V30 2519 C 250.121 2.56804 -5.12679 0
M  V30 2520 N 249.617 2.97203 -6.25813 0
M  V30 2521 N 251.41 2.56756 -5.00033 0
M  V30 2522 H 243.561 -0.0353158 -2.12371 0
M  V30 2523 H 245.824 0.0467858 -0.946845 0
M  V30 2524 H 245.53 0.761926 -3.43348 0
M  V30 2525 H 245.404 2.42529 -2.88894 0
M  V30 2526 H 247.791 2.2467 -1.9133 0
M  V30 2527 H 247.872 0.57662 -2.49216 0
M  V30 2528 H 247.516 1.41031 -4.87927 0
M  V30 2529 H 247.446 3.08271 -4.26938 0
M  V30 2530 H 249.937 1.87237 -3.28254 0
M  V30 2531 H 250.25 3.27328 -7.00055 0
M  V30 2532 H 248.595 2.95004 -6.29283 0
M  V30 2533 H 251.786 2.24572 -4.10713 0
M  V30 2534 H 251.959 2.88475 -5.80247 0
M  V30 2535 N 245.365 1.30045 0.890287 0
M  V30 2536 C 246.612 1.18561 1.64163 0
M  V30 2537 C 246.94 -0.260852 1.92743 0
M  V30 2538 O 246.195 -1.20376 1.54299 0
M  V30 2539 C 246.494 1.95409 2.99249 0
M  V30 2540 C 246.16 3.45066 2.90242 0
M  V30 2541 C 244.822 3.85878 2.87492 0
M  V30 2542 C 247.174 4.4039 2.78758 0
M  V30 2543 C 244.502 5.20314 2.7109 0
M  V30 2544 C 246.854 5.74928 2.63894 0
M  V30 2545 C 245.518 6.14986 2.59516 0
M  V30 2546 H 244.788 0.433846 0.600715 0
M  V30 2547 H 247.435 1.61088 1.03552 0
M  V30 2548 H 245.74 1.45501 3.63781 0
M  V30 2549 H 247.437 1.8392 3.56334 0
M  V30 2550 H 244.027 3.12631 2.93189 0
M  V30 2551 H 248.211 4.09806 2.79952 0
M  V30 2552 H 243.467 5.50449 2.66112 0
M  V30 2553 H 247.641 6.48434 2.53981 0
M  V30 2554 H 245.268 7.19104 2.46565 0
M  V30 2555 N 246.843 -1.10192 1.12674 0
M  V30 2556 C 247.753 -2.20172 0.810026 0
M  V30 2557 C 248.769 -1.72821 -0.202188 0
M  V30 2558 O 249.945 -2.01369 -0.0351691 0
M  V30 2559 C 247.01 -3.45631 0.272007 0
M  V30 2560 C 246.071 -4.07704 1.34447 0
M  V30 2561 C 245.304 -5.27175 0.832029 0
M  V30 2562 O 245.527 -5.69425 -0.333284 0
M  V30 2563 O 244.461 -5.80168 1.60277 0
M  V30 2564 H 248.287 -2.49701 1.72867 0
M  V30 2565 H 245.872 -1.18977 0.903597 0
M  V30 2566 H 247.754 -4.21394 -0.0230219 0
M  V30 2567 H 246.429 -3.17723 -0.619164 0
M  V30 2568 H 245.336 -3.33614 1.6927 0
M  V30 2569 H 246.669 -4.3982 2.2095 0
M  V30 2570 N 248.321 -0.919034 -1.28029 0
M  V30 2571 C 249.568 -0.554934 -1.94748 0
M  V30 2572 C 249.896 0.90231 -1.72304 0
M  V30 2573 O 249.151 1.65767 -1.04018 0
M  V30 2574 C 249.45 -0.816855 -3.4794 0
M  V30 2575 C 249.116 -2.25448 -3.90492 0
M  V30 2576 C 247.778 -2.64752 -4.01821 0
M  V30 2577 C 250.13 -3.18977 -4.12193 0
M  V30 2578 C 247.458 -3.96727 -4.32232 0
M  V30 2579 C 249.81 -4.50523 -4.44086 0
M  V30 2580 C 248.474 -4.89673 -4.53626 0
M  V30 2581 H 247.744 -0.203065 -0.712633 0
M  V30 2582 H 250.391 -1.16136 -1.52265 0
M  V30 2583 H 248.696 -0.127677 -3.91592 0
M  V30 2584 H 250.393 -0.514238 -3.97689 0
M  V30 2585 H 246.983 -1.93952 -3.82205 0
M  V30 2586 H 251.167 -2.89817 -4.02889 0
M  V30 2587 H 246.423 -4.26754 -4.37825 0
M  V30 2588 H 250.597 -5.23005 -4.59825 0
M  V30 2589 H 248.224 -5.91969 -4.76946 0
M  V30 2590 N 249.799 1.42003 -0.683588 0
M  V30 2591 C 250.731 2.29183 0.0283068 0
M  V30 2592 C 251.744 1.4415 0.756611 0
M  V30 2593 O 252.933 1.67779 0.609306 0
M  V30 2594 C 250.033 3.21765 1.06398 0
M  V30 2595 C 249.206 4.35496 0.407723 0
M  V30 2596 C 248.265 5.08737 1.34437 0
M  V30 2597 O 247.291 5.62948 0.841318 0
M  V30 2598 N 248.493 5.15075 2.67728 0
M  V30 2599 H 251.258 2.9092 -0.720105 0
M  V30 2600 H 248.819 1.53025 -0.528682 0
M  V30 2601 H 250.811 3.6763 1.69204 0
M  V30 2602 H 249.381 2.61418 1.71404 0
M  V30 2603 H 248.601 3.92165 -0.400012 0
M  V30 2604 H 249.889 5.08776 -0.0490956 0
M  V30 2605 H 249.287 4.72457 3.11129 0
M  V30 2606 H 247.844 5.64556 3.2576 0
M  V30 2607 N 251.277 0.427512 1.51691 0
M  V30 2608 C 252.207 -0.3796 2.30394 0
M  V30 2609 C 253.188 -1.02982 1.35384 0
M  V30 2610 O 254.373 -1.03534 1.643 0
M  V30 2611 C 251.503 -1.48649 3.1388 0
M  V30 2612 C 250.457 -0.960294 4.17088 0
M  V30 2613 C 249.783 -2.16219 4.89033 0
M  V30 2614 C 251.083 -0.00153679 5.223 0
M  V30 2615 H 252.777 0.277164 2.98114 0
M  V30 2616 H 250.323 0.134739 1.43368 0
M  V30 2617 H 252.276 -2.05826 3.67714 0
M  V30 2618 H 251 -2.1714 2.43962 0
M  V30 2619 H 249.659 -0.410806 3.64291 0
M  V30 2620 H 249.307 -2.83307 4.15628 0
M  V30 2621 H 249.007 -1.81654 5.58816 0
M  V30 2622 H 250.531 -2.73968 5.45687 0
M  V30 2623 H 251.945 -0.482687 5.71264 0
M  V30 2624 H 250.342 0.256199 5.99553 0
M  V30 2625 H 251.412 0.938174 4.75738 0
M  V30 2626 N 252.755 -1.56801 0.158532 0
M  V30 2627 C 254.003 -1.96102 -0.488712 0
M  V30 2628 C 254.324 -1.04498 -1.64636 0
M  V30 2629 O 253.594 -0.108783 -1.95598 0
M  V30 2630 H 252.174 -0.724102 -0.183535 0
M  V30 2631 H 254.836 -1.93457 0.236728 0
M  V30 2632 H 253.932 -3.00097 -0.857219 0
M  V30 2633 N 254.233 0.115231 -1.57178 0
M  V30 2634 C 255.649 0.468877 -1.52557 0
M  V30 2635 C 255.849 1.81649 -0.872125 0
M  V30 2636 O 254.905 2.48347 -0.45606 0
M  V30 2637 C 256.218 0.4499 -2.97315 0
M  V30 2638 C 257.766 0.533185 -3.08425 0
M  V30 2639 C 258.241 0.54456 -4.54751 0
M  V30 2640 N 259.732 0.605892 -4.5922 0
M  V30 2641 C 260.467 0.636203 -5.6986 0
M  V30 2642 N 259.963 0.623931 -6.89985 0
M  V30 2643 N 261.756 0.679496 -5.57978 0
M  V30 2644 H 253.907 -0.767712 -1.9804 0
M  V30 2645 H 256.17 -0.283609 -0.904583 0
M  V30 2646 H 255.876 -0.472721 -3.48509 0
M  V30 2647 H 255.75 1.27632 -3.5495 0
M  V30 2648 H 258.137 1.44623 -2.57232 0
M  V30 2649 H 258.218 -0.320995 -2.53778 0
M  V30 2650 H 257.862 -0.364452 -5.06591 0
M  V30 2651 H 257.792 1.41568 -5.07214 0
M  V30 2652 H 260.283 0.621386 -3.72756 0
M  V30 2653 H 260.596 0.649787 -7.70063 0
M  V30 2654 H 258.941 0.591296 -6.9248 0
M  V30 2655 H 262.132 0.686472 -4.63039 0
M  V30 2656 H 262.305 0.69965 -6.44212 0
M  V30 2657 N 255.711 1.52812 0.385517 0
M  V30 2658 C 256.941 1.71658 1.14966 0
M  V30 2659 C 257.349 0.436253 1.84102 0
M  V30 2660 O 256.692 -0.599313 1.73649 0
M  V30 2661 C 256.754 2.81309 2.23843 0
M  V30 2662 C 256.418 4.22313 1.74644 0
M  V30 2663 C 257.415 5.05352 1.22129 0
M  V30 2664 C 255.1 4.68648 1.80761 0
M  V30 2665 C 257.094 6.32807 0.763838 0
M  V30 2666 C 254.781 5.96086 1.34627 0
M  V30 2667 C 255.779 6.77996 0.825264 0
M  V30 2668 O 255.467 8.03045 0.370669 0
M  V30 2669 H 255.199 0.578022 0.350523 0
M  V30 2670 H 257.753 2.00263 0.456509 0
M  V30 2671 H 255.983 2.48133 2.96592 0
M  V30 2672 H 257.672 2.88524 2.85497 0
M  V30 2673 H 258.438 4.70736 1.16758 0
M  V30 2674 H 254.317 4.04979 2.20256 0
M  V30 2675 H 257.861 6.96689 0.356494 0
M  V30 2676 H 253.758 6.30205 1.39686 0
M  V30 2677 H 254.526 8.17021 0.491829 0
M  V30 2678 N 257.189 -0.644168 1.43834 0
M  V30 2679 C 258.417 -1.43147 1.49387 0
M  V30 2680 C 258.832 -1.88452 0.114583 0
M  V30 2681 O 258.189 -1.60047 -0.876989 0
M  V30 2682 C 258.24 -2.66046 2.44748 0
M  V30 2683 O 257.961 -2.22633 3.77314 0
M  V30 2684 C 259.462 -3.59311 2.59635 0
M  V30 2685 H 256.682 -0.439447 0.507077 0
M  V30 2686 H 259.226 -0.78895 1.88669 0
M  V30 2687 H 257.381 -3.26418 2.08638 0
M  V30 2688 H 257.795 -3.02216 4.28679 0
M  V30 2689 H 259.269 -4.42187 3.30416 0
M  V30 2690 H 259.746 -4.07259 1.64427 0
M  V30 2691 H 260.352 -3.04816 2.96593 0
M  V30 2692 N 258.668 -1.30515 -0.883378 0
M  V30 2693 C 259.916 -1.19194 -1.63209 0
M  V30 2694 C 260.237 0.253205 -1.93349 0
M  V30 2695 O 259.507 1.17025 -1.57105 0
M  V30 2696 H 258.087 -0.438148 -0.605009 0
M  V30 2697 H 260.749 -1.63663 -1.05832 0
M  V30 2698 H 259.845 -1.75396 -2.58153 0
M  V30 2699 N 260.146 1.09593 -1.13257 0
M  V30 2700 C 261.374 1.855 -0.916378 0
M  V30 2701 C 261.789 1.81069 0.534738 0
M  V30 2702 O 261.146 1.20562 1.37007 0
M  V30 2703 C 261.197 3.33546 -1.39388 0
M  V30 2704 O 260.918 3.37927 -2.78813 0
M  V30 2705 C 262.419 4.26299 -1.21588 0
M  V30 2706 H 259.639 0.585991 -0.326887 0
M  V30 2707 H 262.183 1.38488 -1.5047 0
M  V30 2708 H 260.338 3.77992 -0.848597 0
M  V30 2709 H 260.752 4.30254 -2.9997 0
M  V30 2710 H 262.226 5.28341 -1.59876 0
M  V30 2711 H 262.703 4.38918 -0.157376 0
M  V30 2712 H 263.309 3.87668 -1.7491 0
M  V30 2713 N 261.624 0.925811 1.2754 0
M  V30 2714 C 262.87 0.566092 1.94739 0
M  V30 2715 C 263.203 -0.890057 1.72603 0
M  V30 2716 O 262.478 -1.63467 1.05399 0
M  V30 2717 C 262.761 0.89054 3.48915 0
M  V30 2718 C 262.614 2.4003 3.80402 0
M  V30 2719 C 263.933 0.395101 4.38323 0
M  V30 2720 H 261.052 0.20714 0.707292 0
M  V30 2721 H 263.694 1.15725 1.50691 0
M  V30 2722 H 261.844 0.387452 3.86563 0
M  V30 2723 H 263.516 2.97494 3.52555 0
M  V30 2724 H 261.759 2.85028 3.2702 0
M  V30 2725 H 262.43 2.57785 4.8811 0
M  V30 2726 H 264.906 0.826241 4.07814 0
M  V30 2727 H 263.782 0.651086 5.45025 0
M  V30 2728 H 264.043 -0.704798 4.36446 0
M  V30 2729 N 263.102 -1.41638 0.69111 0
M  V30 2730 C 264.348 -2.02104 0.229258 0
M  V30 2731 C 264.703 -1.53741 -1.15678 0
M  V30 2732 O 263.996 -0.736849 -1.76865 0
M  V30 2733 C 264.19 -3.56714 0.221277 0
M  V30 2734 C 264.019 -4.20083 1.605 0
M  V30 2735 C 262.789 -4.54566 2.20676 0
M  V30 2736 C 264.987 -4.46587 2.55078 0
M  V30 2737 N 262.969 -5.03199 3.5166 0
M  V30 2738 C 264.34 -4.96946 3.70735 0
M  V30 2739 C 266.395 -4.28593 2.53401 0
M  V30 2740 C 265.098 -5.31203 4.8499 0
M  V30 2741 C 267.124 -4.63936 3.66765 0
M  V30 2742 C 266.486 -5.14463 4.81152 0
M  V30 2743 H 262.585 -0.771256 0.12918 0
M  V30 2744 H 265.169 -1.72251 0.907626 0
M  V30 2745 H 263.34 -3.86051 -0.426562 0
M  V30 2746 H 265.072 -4.03896 -0.254983 0
M  V30 2747 H 261.827 -4.4087 1.73005 0
M  V30 2748 H 262.251 -5.31926 4.18789 0
M  V30 2749 H 266.893 -3.88771 1.66184 0
M  V30 2750 H 264.611 -5.69951 5.72871 0
M  V30 2751 H 268.197 -4.51677 3.66714 0
M  V30 2752 H 267.077 -5.41299 5.67419 0
M  V30 2753 N 264.58 -0.43555 -1.51462 0
M  V30 2754 C 265.829 0.133007 -2.01261 0
M  V30 2755 C 266.142 1.43942 -1.32439 0
M  V30 2756 O 267.348 2.09081 -1.73198 0
M  V30 2757 C 265.804 0.287581 -3.58749 0
M  V30 2758 C 265.412 -1.00829 -4.36506 0
M  V30 2759 C 267.156 0.810004 -4.167 0
M  V30 2760 C 265.063 -0.819454 -5.85695 0
M  V30 2761 H 263.993 0.0534822 -0.752101 0
M  V30 2762 H 266.644 -0.565038 -1.74584 0
M  V30 2763 H 265.026 1.04859 -3.81865 0
M  V30 2764 H 266.2 -1.77749 -4.25138 0
M  V30 2765 H 264.515 -1.45911 -3.89999 0
M  V30 2766 H 267.112 0.967743 -5.2587 0
M  V30 2767 H 267.455 1.79196 -3.75758 0
M  V30 2768 H 267.988 0.107357 -3.97655 0
M  V30 2769 H 264.727 -1.77374 -6.31046 0
M  V30 2770 H 264.247 -0.0900208 -5.99732 0
M  V30 2771 H 265.926 -0.471949 -6.45276 0
M  V30 2772 N 266.058 1.56714 -0.166846 0
M  V30 2773 C 267.335 1.88412 0.525373 0
M  V30 2774 C 267.715 1.07602 1.81618 0
M  V30 2775 O 267.063 0.168621 2.27877 0
M  V30 2776 C 267.273 3.40363 0.771613 0
M  V30 2777 C 268.621 4.10007 1.1036 0
M  V30 2778 O 269.645 3.45655 0.860304 0
M  V30 2779 O 268.504 5.2369 1.56239 0
M  V30 2780 H 265.598 0.781587 0.270278 0
M  V30 2781 H 268.144 1.68458 -0.204946 0
M  V30 2782 H 266.916 3.91046 -0.141093 0
M  V30 2783 H 266.539 3.65914 1.55541 0
M  V30 2784 N 267.536 -0.106894 1.57237 0
M  V30 2785 C 268.813 -0.843526 1.76477 0
M  V30 2786 C 269.193 -1.97499 0.745464 0
M  V30 2787 O 268.541 -2.27357 -0.228306 0
M  V30 2788 C 268.751 -1.34903 3.21873 0
M  V30 2789 C 270.099 -1.79654 3.8472 0
M  V30 2790 O 271.123 -1.44554 3.2555 0
M  V30 2791 O 269.982 -2.44515 4.88748 0
M  V30 2792 H 267.076 -0.401468 0.723016 0
M  V30 2793 H 269.622 -0.0896927 1.69463 0
M  V30 2794 H 268.394 -0.53781 3.87586 0
M  V30 2795 H 268.017 -2.16522 3.33473 0
M  V30 2796 N 269.014 -1.53014 -0.377408 0
M  V30 2797 C 270.26 -1.68872 -1.12294 0
M  V30 2798 C 270.593 -0.433224 -1.89306 0
M  V30 2799 O 269.868 0.569258 -1.85983 0
M  V30 2800 C 270.151 -2.93115 -2.09179 0
M  V30 2801 C 270.004 -4.28794 -1.35853 0
M  V30 2802 C 271.323 -3.12928 -3.09458 0
M  V30 2803 H 268.442 -0.614518 -0.406862 0
M  V30 2804 H 271.084 -1.85633 -0.40503 0
M  V30 2805 H 269.234 -2.78956 -2.70399 0
M  V30 2806 H 270.906 -4.54742 -0.775082 0
M  V30 2807 H 269.149 -4.28744 -0.660364 0
M  V30 2808 H 269.82 -5.11837 -2.06706 0
M  V30 2809 H 272.296 -3.26194 -2.58334 0
M  V30 2810 H 271.172 -4.01316 -3.74482 0
M  V30 2811 H 271.433 -2.27669 -3.78971 0
M  V30 2812 N 270.492 0.636531 -1.44174 0
M  V30 2813 C 271.738 1.39826 -1.4689 0
M  V30 2814 C 272.071 1.93947 -0.0990585 0
M  V30 2815 O 271.346 1.73325 0.882544 0
M  V30 2816 C 271.629 2.56751 -2.5249 0
M  V30 2817 C 271.482 2.08014 -3.98811 0
M  V30 2818 C 272.801 3.58946 -2.54649 0
M  V30 2819 H 269.92 0.507075 -0.53483 0
M  V30 2820 H 272.562 0.720188 -1.75822 0
M  V30 2821 H 270.712 3.14597 -2.2795 0
M  V30 2822 H 272.384 1.5504 -4.34466 0
M  V30 2823 H 270.627 1.39242 -4.10846 0
M  V30 2824 H 271.298 2.92169 -4.68339 0
M  V30 2825 H 273.774 3.1089 -2.76563 0
M  V30 2826 H 272.65 4.38286 -3.3045 0
M  V30 2827 H 272.911 4.12655 -1.58646 0
M  V30 2828 N 271.97 1.30982 0.876444 0
M  V30 2829 C 272.903 1.12414 1.98591 0
M  V30 2830 C 273.881 0.0294078 1.62573 0
M  V30 2831 O 275.065 0.184598 1.87594 0
M  V30 2832 C 272.192 0.716276 3.3104 0
M  V30 2833 C 271.238 1.81311 3.86042 0
M  V30 2834 S 272.071 3.41727 4.1229 0
M  V30 2835 C 273.227 3.02863 5.47745 0
M  V30 2836 H 273.46 2.06338 2.14037 0
M  V30 2837 H 270.993 1.15393 1.02586 0
M  V30 2838 H 272.951 0.487697 4.07593 0
M  V30 2839 H 271.612 -0.203749 3.13438 0
M  V30 2840 H 270.805 1.48021 4.81774 0
M  V30 2841 H 270.407 1.99641 3.16259 0
M  V30 2842 H 272.699 2.51353 6.29148 0
M  V30 2843 H 273.642 3.97533 5.8598 0
M  V30 2844 H 274.05 2.40487 5.10711 0
M  V30 2845 N 273.449 -1.08991 1.13837 0
M  V30 2846 C 274.359 -2.19301 0.833333 0
M  V30 2847 C 275.375 -1.73026 -0.183847 0
M  V30 2848 O 276.551 -2.01395 -0.0138092 0
M  V30 2849 C 273.616 -3.45323 0.308651 0
M  V30 2850 C 272.677 -4.06255 1.38764 0
M  V30 2851 C 271.91 -5.26262 0.887896 0
M  V30 2852 O 272.133 -5.69747 -0.27287 0
M  V30 2853 O 271.067 -5.78435 1.66421 0
M  V30 2854 H 274.893 -2.47854 1.75506 0
M  V30 2855 H 272.478 -1.18012 0.916166 0
M  V30 2856 H 274.36 -4.21394 0.0216739 0
M  V30 2857 H 273.035 -3.18362 -0.585431 0
M  V30 2858 H 271.942 -3.318 1.72799 0
M  V30 2859 H 273.275 -4.37452 2.25602 0
M  V30 2860 N 274.927 -0.932562 -1.27047 0
M  V30 2861 C 276.204 -0.49377 -1.89265 0
M  V30 2862 C 276.584 1.02833 -1.8436 0
M  V30 2863 O 275.932 1.88461 -1.29209 0
M  V30 2864 C 276.142 -1.04536 -3.32976 0
M  V30 2865 C 277.49 -1.10879 -4.09867 0
M  V30 2866 O 278.514 -0.995327 -3.42011 0
M  V30 2867 O 277.373 -1.28417 -5.31198 0
M  V30 2868 H 274.467 -0.159596 -0.811454 0
M  V30 2869 H 277.013 -1.02457 -1.3528 0
M  V30 2870 H 275.785 -2.08913 -3.30864 0
M  V30 2871 H 275.408 -0.496494 -3.94488 0
M  V30 2872 N 276.405 1.4127 -0.698611 0
M  V30 2873 C 277.654 2.00408 -0.227949 0
M  V30 2874 C 277.967 1.55981 1.18023 0
M  V30 2875 O 279.173 2.07699 1.74852 0
M  V30 2876 C 277.629 3.58129 -0.356636 0
M  V30 2877 C 277.237 4.11536 -1.77037 0
M  V30 2878 C 278.981 4.24466 0.0540969 0
M  V30 2879 C 276.888 5.61701 -1.85055 0
M  V30 2880 H 275.818 0.749586 -0.0814657 0
M  V30 2881 H 278.469 1.61713 -0.867249 0
M  V30 2882 H 276.851 3.94442 0.350965 0
M  V30 2883 H 278.025 3.86636 -2.50698 0
M  V30 2884 H 276.34 3.57736 -2.13105 0
M  V30 2885 H 278.937 5.34698 0.0146723 0
M  V30 2886 H 279.28 4.01687 1.09332 0
M  V30 2887 H 279.813 3.93198 -0.603337 0
M  V30 2888 H 276.552 5.89312 -2.8704 0
M  V30 2889 H 276.072 5.88519 -1.15783 0
M  V30 2890 H 277.751 6.26524 -1.61484 0
M  V30 2891 N 277.883 0.443576 1.51229 0
M  V30 2892 C 279.131 -0.120557 2.0174 0
M  V30 2893 C 279.452 -1.42665 1.32935 0
M  V30 2894 O 278.722 -1.9028 0.465866 0
M  V30 2895 H 277.302 -0.0475426 0.745486 0
M  V30 2896 H 279.964 0.587711 1.85828 0
M  V30 2897 H 279.06 -0.291972 3.10731 0
M  V30 2898 N 279.361 -1.56624 0.175154 0
M  V30 2899 C 280.607 -1.9729 -0.469506 0
M  V30 2900 C 280.94 -1.06128 -1.62636 0
M  V30 2901 O 280.215 -0.109183 -1.94193 0
M  V30 2902 C 280.498 -3.47375 -0.948804 0
M  V30 2903 C 280.351 -4.49317 0.208491 0
M  V30 2904 C 281.67 -4.00652 -1.82116 0
M  V30 2905 H 278.789 -0.717317 -0.16919 0
M  V30 2906 H 281.431 -1.88184 0.262062 0
M  V30 2907 H 279.581 -3.55267 -1.57219 0
M  V30 2908 H 281.253 -4.53482 0.845682 0
M  V30 2909 H 279.496 -4.25121 0.863395 0
M  V30 2910 H 280.167 -5.51741 -0.169059 0
M  V30 2911 H 282.643 -3.95416 -1.2956 0
M  V30 2912 H 281.519 -5.06075 -2.12554 0
M  V30 2913 H 281.78 -3.44699 -2.7683 0
M  V30 2914 N 280.839 0.0985539 -1.57292 0
M  V30 2915 C 281.769 1.12064 -2.04851 0
M  V30 2916 C 282.75 1.41981 -0.936767 0
M  V30 2917 O 283.935 1.52071 -1.20781 0
M  V30 2918 C 281.065 2.44144 -2.47004 0
M  V30 2919 C 280.019 2.28643 -3.6181 0
M  V30 2920 C 279.345 3.65869 -3.89929 0
M  V30 2921 C 280.645 1.72986 -4.92822 0
M  V30 2922 H 282.339 0.724979 -2.9049 0
M  V30 2923 H 279.885 0.34729 -1.39749 0
M  V30 2924 H 281.838 3.15914 -2.78884 0
M  V30 2925 H 280.562 2.85639 -1.5836 0
M  V30 2926 H 279.221 1.59318 -3.30172 0
M  V30 2927 H 278.869 4.04885 -2.98458 0
M  V30 2928 H 278.569 3.56344 -4.67218 0
M  V30 2929 H 280.093 4.39112 -4.2428 0
M  V30 2930 H 281.507 2.34593 -5.23105 0
M  V30 2931 H 279.904 1.74229 -5.74251 0
M  V30 2932 H 280.974 0.689007 -4.7998 0
M  V30 2933 N 282.317 1.53212 0.369288 0
M  V30 2934 C 283.227 1.82342 1.47609 0
M  V30 2935 C 284.243 0.711532 1.58787 0
M  V30 2936 O 285.419 1.0012 1.74751 0
M  V30 2937 C 282.484 2.00393 2.8292 0
M  V30 2938 C 281.545 3.24297 2.81301 0
M  V30 2939 C 280.778 3.41478 4.10157 0
M  V30 2940 O 281.001 2.63033 5.06132 0
M  V30 2941 O 279.935 4.34817 4.16194 0
M  V30 2942 H 283.761 2.76366 1.25918 0
M  V30 2943 H 281.346 1.38547 0.559034 0
M  V30 2944 H 283.228 2.13859 3.63101 0
M  V30 2945 H 281.903 1.09559 3.04596 0
M  V30 2946 H 280.81 3.16257 1.99831 0
M  V30 2947 H 282.143 4.15041 2.64578 0
M  V30 2948 N 283.795 -0.628877 1.44509 0
M  V30 2949 C 285.041 -1.39045 1.47629 0
M  V30 2950 C 285.374 -1.93892 0.109343 0
M  V30 2951 O 284.649 -1.7379 -0.87334 0
M  V30 2952 C 284.932 -2.55408 2.53848 0
M  V30 2953 C 284.785 -2.05896 3.99909 0
M  V30 2954 C 286.104 -3.5759 2.56549 0
M  V30 2955 H 283.223 -0.504232 0.537512 0
M  V30 2956 H 285.865 -0.710854 1.76201 0
M  V30 2957 H 284.015 -3.13384 2.29615 0
M  V30 2958 H 285.687 -1.52734 4.35282 0
M  V30 2959 H 283.93 -1.37061 4.11578 0
M  V30 2960 H 284.601 -2.89681 4.69882 0
M  V30 2961 H 287.077 -3.09419 2.78207 0
M  V30 2962 H 285.953 -4.36527 3.32769 0
M  V30 2963 H 286.214 -4.11808 1.60832 0
M  V30 2964 N 285.273 -1.31445 -0.869486 0
M  V30 2965 C 286.498 -1.24256 -1.66058 0
M  V30 2966 C 286.923 0.188928 -1.87149 0
M  V30 2967 O 286.281 1.13522 -1.4136 0
M  V30 2968 C 286.329 -1.9924 -3.00559 0
M  V30 2969 O 285.433 -1.33007 -3.90362 0
M  V30 2970 H 284.774 -0.428973 -0.506831 0
M  V30 2971 H 287.304 -1.73521 -1.08404 0
M  V30 2972 H 287.314 -2.08854 -3.50491 0
M  V30 2973 H 285.989 -3.03342 -2.84528 0
M  V30 2974 H 284.566 -1.31848 -3.48813 0
M  V30 2975 N 286.751 1.08385 -1.14413 0
M  V30 2976 C 287.999 1.80419 -0.910679 0
M  V30 2977 C 288.32 1.86658 0.564243 0
M  V30 2978 O 287.59 1.35985 1.41014 0
M  V30 2979 H 286.17 0.668204 -0.333934 0
M  V30 2980 H 288.832 1.31037 -1.44275 0
M  V30 2981 H 287.928 2.83238 -1.31082 0
M  V30 2982 N 288.23 0.939286 1.26551 0
M  V30 2983 C 289.14 0.453432 2.30176 0
M  V30 2984 C 290.156 -0.471649 1.67486 0
M  V30 2985 O 291.332 -0.35164 1.98306 0
M  V30 2986 C 288.397 -0.275326 3.45605 0
M  V30 2987 C 287.458 0.686084 4.23782 0
M  V30 2988 C 286.691 -0.00798994 5.33699 0
M  V30 2989 O 286.914 -1.22528 5.57085 0
M  V30 2990 O 285.848 0.669746 5.98162 0
M  V30 2991 H 289.674 1.31416 2.73795 0
M  V30 2992 H 287.259 0.705095 1.31715 0
M  V30 2993 H 289.141 -0.685911 4.1578 0
M  V30 2994 H 287.816 -1.11147 3.0402 0
M  V30 2995 H 286.723 1.14658 3.56096 0
M  V30 2996 H 288.056 1.48979 4.69112 0
M  V30 2997 N 289.708 -1.40897 0.706093 0
M  V30 2998 C 290.618 -2.3455 0.0482286 0
M  V30 2999 C 291.634 -1.56796 -0.754396 0
M  V30 3000 O 292.81 -1.89228 -0.689538 0
M  V30 3001 C 289.875 -3.35625 -0.869303 0
M  V30 3002 C 288.936 -4.29261 -0.0576994 0
M  V30 3003 C 288.169 -5.25508 -0.931531 0
M  V30 3004 O 288.392 -5.27472 -2.17092 0
M  V30 3005 O 287.326 -6.00727 -0.375587 0
M  V30 3006 H 291.152 -2.92407 0.820476 0
M  V30 3007 H 288.737 -1.4193 0.4665 0
M  V30 3008 H 290.619 -3.97635 -1.39514 0
M  V30 3009 H 289.294 -2.80196 -1.62086 0
M  V30 3010 H 288.201 -3.70566 0.512988 0
M  V30 3011 H 289.534 -4.87817 0.655426 0
M  V30 3012 N 291.186 -0.45159 -1.50991 0
M  V30 3013 C 292.134 0.366864 -2.29689 0
M  V30 3014 C 293.128 1.00809 -1.36139 0
M  V30 3015 O 294.334 0.941427 -1.53418 0
M  V30 3016 H 290.709 0.137133 -0.739391 0
M  V30 3017 H 292.68 -0.317538 -2.96706 0
M  V30 3018 C 291.429 1.44751 -3.16137 0
M  V30 3019 H 290.752 0.963473 -3.88017 0
M  V30 3020 H 292.192 1.99315 -3.74232 0
M  V30 3021 C 290.651 2.43869 -2.32442 0
M  V30 3022 O 291.181 3.4872 -1.99392 0
M  V30 3023 N 289.387 2.15105 -1.95392 0
M  V30 3024 H 288.934 1.29866 -2.22469 0
M  V30 3025 H 288.892 2.81661 -1.39693 0
M  V30 3026 N 292.664 1.56529 -0.183458 0
M  V30 3027 C 293.574 2.22144 0.754272 0
M  V30 3028 C 294.59 1.21684 1.24374 0
M  V30 3029 O 295.766 1.54385 1.29333 0
M  V30 3030 C 292.831 2.85884 1.96141 0
M  V30 3031 C 291.892 4.01579 1.51765 0
M  V30 3032 C 291.125 4.6227 2.66725 0
M  V30 3033 O 291.348 4.21865 3.83909 0
M  V30 3034 O 290.282 5.51936 2.40104 0
M  V30 3035 H 294.108 3.02861 0.225527 0
M  V30 3036 H 291.693 1.49331 0.0453032 0
M  V30 3037 H 293.575 3.26253 2.66715 0
M  V30 3038 H 292.25 2.08154 2.47899 0
M  V30 3039 H 291.157 3.65856 0.781049 0
M  V30 3040 H 292.49 4.80938 1.04686 0
M  V30 3041 N 294.142 -0.090211 1.57342 0
M  V30 3042 C 295.391 -0.791531 1.8552 0
M  V30 3043 C 295.704 -1.79659 0.773441 0
M  V30 3044 O 296.91 -2.54616 0.942497 0
M  V30 3045 C 295.366 -1.45856 3.2902 0
M  V30 3046 C 294.974 -0.493017 4.45279 0
M  V30 3047 C 296.718 -2.14332 3.66418 0
M  V30 3048 C 294.625 -1.16491 5.79814 0
M  V30 3049 H 293.555 -0.299356 0.692027 0
M  V30 3050 H 296.206 -0.0445343 1.83446 0
M  V30 3051 H 294.588 -2.25318 3.2565 0
M  V30 3052 H 295.762 0.270464 4.60006 0
M  V30 3053 H 294.077 0.0863061 4.16311 0
M  V30 3054 H 296.674 -2.65344 4.64216 0
M  V30 3055 H 297.017 -2.93447 2.95287 0
M  V30 3056 H 297.55 -1.41724 3.71698 0
M  V30 3057 H 294.289 -0.41447 6.54188 0
M  V30 3058 H 293.809 -1.8997 5.68921 0
M  V30 3059 H 295.488 -1.69001 6.24538 0
M  V30 3060 N 295.62 -1.53406 -0.361157 0
M  V30 3061 C 296.85 -1.73465 -1.1222 0
M  V30 3062 C 297.258 -0.465486 -1.83384 0
M  V30 3063 O 296.601 0.571611 -1.7458 0
M  V30 3064 C 296.663 -2.84834 -2.19339 0
M  V30 3065 C 296.327 -4.25038 -1.67903 0
M  V30 3066 C 297.324 -5.07231 -1.14074 0
M  V30 3067 C 295.009 -4.71464 -1.73282 0
M  V30 3068 C 297.003 -6.33942 -0.663068 0
M  V30 3069 C 294.69 -5.98153 -1.25127 0
M  V30 3070 C 295.688 -6.79223 -0.717296 0
M  V30 3071 O 295.376 -8.03533 -0.242865 0
M  V30 3072 H 295.108 -0.583526 -0.341283 0
M  V30 3073 H 297.662 -2.00964 -0.424591 0
M  V30 3074 H 295.892 -2.5282 -2.92607 0
M  V30 3075 H 297.581 -2.9303 -2.80871 0
M  V30 3076 H 298.347 -4.72534 -1.09254 0
M  V30 3077 H 294.226 -4.08432 -2.13786 0
M  V30 3078 H 297.77 -6.97167 -0.245612 0
M  V30 3079 H 293.667 -6.32347 -1.29642 0
M  V30 3080 H 294.435 -8.177 -0.361786 0
M  V30 3081 N 297.098 0.621204 -1.44841 0
M  V30 3082 C 298.326 1.40752 -1.51646 0
M  V30 3083 C 298.741 1.88246 -0.144549 0
M  V30 3084 O 298.098 1.61422 0.851416 0
M  V30 3085 C 298.149 2.62119 -2.4895 0
M  V30 3086 O 297.87 2.16602 -3.80808 0
M  V30 3087 C 299.371 3.55135 -2.65319 0
M  V30 3088 H 296.591 0.431325 -0.514004 0
M  V30 3089 H 299.135 0.758835 -1.899 0
M  V30 3090 H 297.29 3.23058 -2.13805 0
M  V30 3091 H 297.704 2.95358 -4.33433 0
M  V30 3092 H 299.178 4.36874 -3.37409 0
M  V30 3093 H 299.655 4.04592 -1.70886 0
M  V30 3094 H 300.261 3.00058 -3.01405 0
M  V30 3095 N 298.576 1.31904 0.862503 0
M  V30 3096 C 299.486 1.22161 2.00285 0
M  V30 3097 C 300.502 0.136785 1.73462 0
M  V30 3098 O 301.678 0.355994 1.98229 0
M  V30 3099 C 298.743 0.937093 3.33796 0
M  V30 3100 C 297.804 2.10957 3.73893 0
M  V30 3101 C 297.037 1.83853 5.01033 0
M  V30 3102 O 297.26 0.777274 5.65079 0
M  V30 3103 O 296.194 2.69741 5.38074 0
M  V30 3104 H 300.02 2.18008 2.11439 0
M  V30 3105 H 297.605 1.11716 0.991957 0
M  V30 3106 H 299.487 0.794583 4.13841 0
M  V30 3107 H 298.162 0.00871894 3.23699 0
M  V30 3108 H 297.069 2.30752 2.94456 0
M  V30 3109 H 298.402 3.02046 3.88625 0
M  V30 3110 N 300.054 -1.07777 1.14986 0
M  V30 3111 C 300.964 -2.18404 0.856546 0
M  V30 3112 C 301.98 -1.73211 -0.165485 0
M  V30 3113 O 303.156 -2.01399 0.00755219 0
M  V30 3114 C 300.221 -3.44977 0.34526 0
M  V30 3115 C 299.282 -4.0476 1.43065 0
M  V30 3116 C 298.515 -5.25291 0.943663 0
M  V30 3117 O 298.738 -5.70004 -0.212426 0
M  V30 3118 O 297.672 -5.76638 1.72547 0
M  V30 3119 H 301.498 -2.45978 1.78125 0
M  V30 3120 H 299.083 -1.17033 0.928631 0
M  V30 3121 H 300.965 -4.21348 0.0663671 0
M  V30 3122 H 299.64 -3.18965 -0.551631 0
M  V30 3123 H 298.547 -3.29949 1.76309 0
M  V30 3124 H 299.88 -4.35035 2.30229 0
M  V30 3125 N 301.532 -0.945985 -1.26051 0
M  V30 3126 C 302.809 -0.513816 -1.88731 0
M  V30 3127 C 303.189 1.00872 -1.8544 0
M  V30 3128 O 302.537 1.8708 -1.312 0
M  V30 3129 C 302.747 -1.08062 -3.31849 0
M  V30 3130 C 304.095 -1.1522 -4.08668 0
M  V30 3131 O 305.119 -1.03155 -3.40936 0
M  V30 3132 O 303.978 -1.34044 -5.29806 0
M  V30 3133 H 301.072 -0.168193 -0.809716 0
M  V30 3134 H 303.618 -1.03886 -1.34186 0
M  V30 3135 H 302.39 -2.1241 -3.2863 0
M  V30 3136 H 302.013 -0.538307 -3.93939 0
M  V30 3137 N 303.011 1.40521 -0.713556 0
M  V30 3138 C 303.921 2.34522 -0.0606667 0
M  V30 3139 C 304.937 1.57193 0.74607 0
M  V30 3140 O 306.113 1.89591 0.679493 0
M  V30 3141 C 303.178 3.36081 0.851491 0
M  V30 3142 C 302.239 4.29286 0.0349339 0
M  V30 3143 C 301.472 5.25994 0.903649 0
M  V30 3144 O 301.695 5.28616 2.14292 0
M  V30 3145 O 300.629 6.00918 0.343723 0
M  V30 3146 H 304.455 2.91968 -0.835972 0
M  V30 3147 H 302.04 1.41681 -0.47402 0
M  V30 3148 H 303.922 3.98369 1.37404 0
M  V30 3149 H 302.597 2.81052 1.60598 0
M  V30 3150 H 301.504 3.70289 -0.532633 0
M  V30 3151 H 302.837 4.87462 -0.681287 0
M  V30 3152 N 304.489 0.459591 1.5075 0
M  V30 3153 C 305.766 -0.160371 1.94941 0
M  V30 3154 C 306.146 -1.58048 1.39943 0
M  V30 3155 O 305.494 -2.206 0.595629 0
M  V30 3156 C 305.704 -0.115432 3.48809 0
M  V30 3157 C 307.052 -0.310026 4.23467 0
M  V30 3158 O 308.076 -0.192543 3.55679 0
M  V30 3159 O 306.935 -0.546031 5.43765 0
M  V30 3160 H 304.029 -0.117925 0.818549 0
M  V30 3161 H 306.575 0.519169 1.61563 0
M  V30 3162 H 305.347 0.87652 3.81357 0
M  V30 3163 H 304.97 -0.836928 3.88692 0
M  V30 3164 N 305.967 -1.56429 0.191757 0
M  V30 3165 C 306.914 -2.18936 -0.730454 0
M  V30 3166 C 307.884 -1.13557 -1.21219 0
M  V30 3167 O 309.069 -1.41794 -1.27668 0
M  V30 3168 C 306.209 -2.85013 -1.9458 0
M  V30 3169 C 305.322 -4.04909 -1.50574 0
M  V30 3170 C 304.457 -4.58853 -2.67634 0
M  V30 3171 C 303.496 -5.71114 -2.20217 0
M  V30 3172 N 302.633 -6.19478 -3.30442 0
M  V30 3173 H 307.473 -2.97389 -0.190664 0
M  V30 3174 H 305.01 -1.46869 -0.0823694 0
M  V30 3175 H 306.968 -3.21492 -2.65893 0
M  V30 3176 H 305.598 -2.09129 -2.45896 0
M  V30 3177 H 304.65 -3.74115 -0.688605 0
M  V30 3178 H 305.962 -4.86113 -1.11784 0
M  V30 3179 H 305.116 -4.97619 -3.47074 0
M  V30 3180 H 303.855 -3.76749 -3.09696 0
M  V30 3181 H 302.86 -5.31879 -1.3923 0
M  V30 3182 H 304.085 -6.55033 -1.79189 0
M  V30 3183 H 302.031 -5.40297 -3.72041 0
M  V30 3184 H 301.948 -6.95725 -2.9581 0
M  V30 3185 H 303.216 -6.62898 -4.10106 0
M  V30 3186 N 307.445 0.0818655 -1.57387 0
M  V30 3187 C 308.691 0.784074 -1.8703 0
M  V30 3188 C 309.024 1.77729 -0.782689 0
M  V30 3189 O 308.299 1.93384 0.208051 0
M  V30 3190 C 308.582 1.50105 -3.27323 0
M  V30 3191 C 308.435 0.524925 -4.46727 0
M  V30 3192 C 309.754 2.44843 -3.65705 0
M  V30 3193 H 306.873 0.283582 -0.680257 0
M  V30 3194 H 309.515 0.0474352 -1.89941 0
M  V30 3195 H 307.665 2.12897 -3.24972 0
M  V30 3196 H 309.337 -0.0970111 -4.61198 0
M  V30 3197 H 307.58 -0.160606 -4.33503 0
M  V30 3198 H 308.251 1.064 -5.41648 0
M  V30 3199 H 310.727 1.92135 -3.69085 0
M  V30 3200 H 309.603 2.92018 -4.64776 0
M  V30 3201 H 309.864 3.29197 -2.95096 0
M  V30 3202 N 308.923 1.53595 0.353017 0
M  V30 3203 C 309.833 1.83897 1.45667 0
M  V30 3204 C 310.849 0.728334 1.58023 0
M  V30 3205 O 312.025 1.01968 1.73679 0
M  V30 3206 C 309.09 2.03383 2.80778 0
M  V30 3207 C 308.151 3.27262 2.77845 0
M  V30 3208 C 307.384 3.45809 4.06512 0
M  V30 3209 O 307.607 2.68387 5.03314 0
M  V30 3210 O 306.541 4.39207 4.11559 0
M  V30 3211 H 310.367 2.77686 1.2298 0
M  V30 3212 H 307.952 1.39132 0.544308 0
M  V30 3213 H 309.834 2.17698 3.60812 0
M  V30 3214 H 308.509 1.12783 3.03417 0
M  V30 3215 H 307.416 3.18359 1.96465 0
M  V30 3216 H 308.749 4.17824 2.60161 0
M  V30 3217 N 310.401 -0.613514 1.45168 0
M  V30 3218 C 311.678 -1.37263 1.39349 0
M  V30 3219 C 312.058 -2.11012 0.0610848 0
M  V30 3220 O 311.406 -2.07502 -0.956825 0
M  V30 3221 C 311.616 -2.3244 2.60332 0
M  V30 3222 C 312.964 -2.9523 3.05163 0
M  V30 3223 O 313.988 -2.42762 2.60663 0
M  V30 3224 O 312.847 -3.90454 3.82372 0
M  V30 3225 H 309.941 -0.615188 0.552696 0
M  V30 3226 H 312.487 -0.637097 1.57287 0
M  V30 3227 H 311.259 -1.77164 3.48896 0
M  V30 3228 H 310.882 -3.13383 2.44698 0
M  V30 3229 N 311.879 -1.3236 -0.855495 0
M  V30 3230 C 313.125 -1.24064 -1.61182 0
M  V30 3231 C 313.48 0.195914 -1.914 0
M  V30 3232 O 312.773 1.13345 -1.54478 0
M  V30 3233 C 312.967 -2.03275 -2.93963 0
M  V30 3234 C 312.796 -3.54486 -2.76712 0
M  V30 3235 C 311.566 -4.23824 -2.75139 0
M  V30 3236 C 313.764 -4.49154 -2.50531 0
M  V30 3237 N 311.746 -5.61095 -2.4909 0
M  V30 3238 C 313.117 -5.74195 -2.3388 0
M  V30 3239 C 315.172 -4.3842 -2.35992 0
M  V30 3240 C 313.875 -6.89716 -2.04168 0
M  V30 3241 C 315.901 -5.53739 -2.0767 0
M  V30 3242 C 315.263 -6.77779 -1.9182 0
M  V30 3243 H 311.362 -0.509139 -0.59355 0
M  V30 3244 H 313.946 -1.66715 -1.00569 0
M  V30 3245 H 312.117 -1.6297 -3.52555 0
M  V30 3246 H 313.849 -1.86881 -3.58967 0
M  V30 3247 H 310.604 -3.75934 -2.88047 0
M  V30 3248 H 311.028 -6.33411 -2.38996 0
M  V30 3249 H 315.67 -3.43172 -2.46967 0
M  V30 3250 H 313.388 -7.84977 -1.9193 0
M  V30 3251 H 316.974 -5.4736 -1.97201 0
M  V30 3252 H 315.854 -7.65504 -1.70217 0
M  V30 3253 N 313.357 1.07166 -1.15556 0
M  V30 3254 C 314.289 2.14341 -0.811815 0
M  V30 3255 C 315.302 1.61835 0.177015 0
M  V30 3256 O 316.491 1.78439 -0.0464996 0
M  V30 3257 C 313.591 3.38387 -0.186481 0
M  V30 3258 C 312.764 4.20238 -1.21321 0
M  V30 3259 C 311.823 5.2266 -0.609302 0
M  V30 3260 O 310.849 5.54719 -1.27576 0
M  V30 3261 N 312.051 5.77306 0.608099 0
M  V30 3262 H 314.816 2.44431 -1.73417 0
M  V30 3263 H 312.377 1.23089 -1.0517 0
M  V30 3264 H 314.369 4.04044 0.230339 0
M  V30 3265 H 312.939 3.05994 0.639249 0
M  V30 3266 H 312.159 3.50369 -1.80652 0
M  V30 3267 H 313.447 4.71736 -1.90638 0
M  V30 3268 H 312.845 5.53513 1.1679 0
M  V30 3269 H 311.402 6.44583 0.96725 0
M  V30 3270 N 314.835 0.952656 1.25548 0
M  V30 3271 C 315.765 0.489287 2.28316 0
M  V30 3272 C 316.746 -0.463359 1.63667 0
M  V30 3273 O 317.931 -0.36274 1.90782 0
M  V30 3274 C 315.061 -0.235603 3.465 0
M  V30 3275 C 314.015 0.631593 4.23314 0
M  V30 3276 C 313.341 -0.223923 5.34231 0
M  V30 3277 C 314.641 1.90871 4.86174 0
M  V30 3278 H 316.335 1.34822 2.67326 0
M  V30 3279 H 313.881 0.649728 1.28509 0
M  V30 3280 H 315.834 -0.570882 4.17515 0
M  V30 3281 H 314.558 -1.12877 3.06474 0
M  V30 3282 H 313.217 0.949929 3.54079 0
M  V30 3283 H 312.865 -1.11678 4.90446 0
M  V30 3284 H 312.565 0.35299 5.86539 0
M  V30 3285 H 314.089 -0.554214 6.0808 0
M  V30 3286 H 315.503 1.63997 5.49343 0
M  V30 3287 H 313.9 2.43112 5.4865 0
M  V30 3288 H 314.97 2.61304 4.08471 0
M  V30 3289 N 316.313 -1.40141 0.720998 0
M  V30 3290 C 317.559 -2.01084 0.263231 0
M  V30 3291 C 317.892 -1.57052 -1.14229 0
M  V30 3292 O 317.167 -0.793027 -1.77599 0
M  V30 3293 C 317.45 -3.58401 0.349344 0
M  V30 3294 C 317.303 -4.12491 1.79363 0
M  V30 3295 C 318.622 -4.39231 -0.276351 0
M  V30 3296 H 315.741 -0.730572 0.0971228 0
M  V30 3297 H 318.383 -1.66543 0.914518 0
M  V30 3298 H 316.533 -3.87958 -0.205165 0
M  V30 3299 H 318.205 -3.93711 2.40394 0
M  V30 3300 H 316.448 -3.66576 2.31958 0
M  V30 3301 H 317.119 -5.21646 1.80524 0
M  V30 3302 H 319.595 -4.15637 0.196184 0
M  V30 3303 H 318.471 -5.48586 -0.185681 0
M  V30 3304 H 318.732 -4.20643 -1.36059 0
M  V30 3305 N 317.792 -0.46758 -1.50504 0
M  V30 3306 C 319.038 0.0808869 -2.03239 0
M  V30 3307 C 319.393 1.37721 -1.34353 0
M  V30 3308 O 318.686 1.86016 -0.459194 0
M  V30 3309 C 318.88 0.323995 -3.55928 0
M  V30 3310 C 318.709 -0.947215 -4.39611 0
M  V30 3311 C 317.479 -1.48951 -4.82848 0
M  V30 3312 C 319.677 -1.84166 -4.80195 0
M  V30 3313 N 317.659 -2.71011 -5.50842 0
M  V30 3314 C 319.03 -2.90815 -5.47564 0
M  V30 3315 C 321.085 -1.85246 -4.62156 0
M  V30 3316 C 319.788 -3.98529 -5.98805 0
M  V30 3317 C 321.814 -2.91914 -5.14335 0
M  V30 3318 C 321.176 -3.97282 -5.81676 0
M  V30 3319 H 317.275 -0.0103394 -0.781932 0
M  V30 3320 H 319.859 -0.635003 -1.84054 0
M  V30 3321 H 318.03 1.00892 -3.75067 0
M  V30 3322 H 319.762 0.866492 -3.95315 0
M  V30 3323 H 316.517 -1.03918 -4.62058 0
M  V30 3324 H 316.941 -3.32988 -5.89447 0
M  V30 3325 H 321.583 -1.05103 -4.09528 0
M  V30 3326 H 319.301 -4.79491 -6.50472 0
M  V30 3327 H 322.887 -2.93729 -5.0221 0
M  V30 3328 H 321.767 -4.78462 -6.21324 0
M  V30 3329 N 319.27 1.56325 -0.20005 0
M  V30 3330 C 320.495 2.02548 0.44597 0
M  V30 3331 C 320.92 1.07922 1.5406 0
M  V30 3332 O 320.278 0.0635775 1.81188 0
M  V30 3333 C 320.326 3.47175 0.974761 0
M  V30 3334 O 319.43 3.55671 2.08739 0
M  V30 3335 H 318.771 0.655862 0.103638 0
M  V30 3336 H 321.301 2.02201 -0.312381 0
M  V30 3337 H 321.311 3.87067 1.2901 0
M  V30 3338 H 319.986 4.15538 0.17347 0
M  V30 3339 H 318.563 3.27657 1.78032 0
M  V30 3340 N 320.748 -0.0735177 1.57428 0
M  V30 3341 C 321.68 -1.11423 2.00294 0
M  V30 3342 C 322.693 -1.35084 0.908637 0
M  V30 3343 O 323.882 -1.33355 1.18654 0
M  V30 3344 C 320.982 -2.46548 2.32523 0
M  V30 3345 C 320.155 -2.42867 3.63778 0
M  V30 3346 C 319.214 -3.60087 3.83697 0
M  V30 3347 O 318.24 -3.41595 4.55304 0
M  V30 3348 N 319.442 -4.80372 3.25919 0
M  V30 3349 H 322.207 -0.749206 2.90184 0
M  V30 3350 H 319.768 -0.262195 1.59763 0
M  V30 3351 H 321.76 -3.23607 2.43024 0
M  V30 3352 H 320.33 -2.75059 1.48531 0
M  V30 3353 H 319.55 -1.51206 3.64047 0
M  V30 3354 H 320.838 -2.37506 4.49965 0
M  V30 3355 H 320.236 -4.983 2.67795 0
M  V30 3356 H 318.793 -5.54948 3.41871 0
M  V30 3357 N 322.226 -1.5378 -0.344866 0
M  V30 3358 C 323.136 -1.84667 -1.4469 0
M  V30 3359 C 324.152 -0.736704 -1.57635 0
M  V30 3360 O 325.328 -1.02888 -1.73136 0
M  V30 3361 C 322.393 -2.04869 -2.79696 0
M  V30 3362 C 321.454 -3.28731 -2.76106 0
M  V30 3363 C 320.687 -3.4796 -4.04673 0
M  V30 3364 O 320.91 -2.71052 -5.01883 0
M  V30 3365 O 319.844 -4.41383 -4.09224 0
M  V30 3366 H 323.67 -2.78334 -1.21506 0
M  V30 3367 H 321.255 -1.39418 -0.536921 0
M  V30 3368 H 323.137 -2.19609 -3.59652 0
M  V30 3369 H 321.812 -1.14391 -3.02814 0
M  V30 3370 H 320.719 -3.19396 -1.94774 0
M  V30 3371 H 322.052 -4.19198 -2.57941 0
M  V30 3372 N 323.704 0.605807 -1.45491 0
M  V30 3373 C 324.951 1.36476 -1.49601 0
M  V30 3374 C 325.279 1.94007 -0.138452 0
M  V30 3375 O 324.534 1.75638 0.863114 0
M  V30 3376 C 324.833 2.53012 -2.52428 0
M  V30 3377 C 324.499 2.13617 -3.97087 0
M  V30 3378 C 323.161 2.02587 -4.36477 0
M  V30 3379 C 325.513 1.82899 -4.88055 0
M  V30 3380 C 322.841 1.59064 -5.64726 0
M  V30 3381 C 325.193 1.40861 -6.16718 0
M  V30 3382 C 323.857 1.28391 -6.55036 0
M  V30 3383 H 323.127 0.499402 -0.547429 0
M  V30 3384 H 325.774 0.684546 -1.78847 0
M  V30 3385 H 324.079 3.26379 -2.16758 0
M  V30 3386 H 325.776 3.1124 -2.52845 0
M  V30 3387 H 322.366 2.23129 -3.65939 0
M  V30 3388 H 326.55 1.90317 -4.58359 0
M  V30 3389 H 321.806 1.48034 -5.93208 0
M  V30 3390 H 325.98 1.16138 -6.86648 0
M  V30 3391 H 323.607 0.944403 -7.54311 0
M  V30 3392 N 325.182 1.32811 0.848464 0
M  V30 3393 C 326.459 1.14334 1.58704 0
M  V30 3394 C 326.839 -0.293948 2.09043 0
M  V30 3395 O 326.187 -1.29153 1.88499 0
M  V30 3396 C 326.397 2.17626 2.72837 0
M  V30 3397 C 327.745 2.51282 3.42261 0
M  V30 3398 O 328.769 2.16219 2.83068 0
M  V30 3399 O 327.628 3.11413 4.49093 0
M  V30 3400 H 324.722 0.441601 0.699226 0
M  V30 3401 H 327.268 1.44362 0.892053 0
M  V30 3402 H 326.04 3.14211 2.3321 0
M  V30 3403 H 325.663 1.88628 3.50008 0
M  V30 3404 N 326.66 -1.06551 1.16123 0
M  V30 3405 C 327.937 -1.76097 0.85142 0
M  V30 3406 C 328.317 -2.00802 -0.6513 0
M  V30 3407 O 327.665 -1.63302 -1.59827 0
M  V30 3408 C 327.875 -3.06384 1.67122 0
M  V30 3409 C 329.223 -3.80585 1.88255 0
M  V30 3410 O 330.247 -3.16218 1.63966 0
M  V30 3411 O 329.106 -4.96212 2.2899 0
M  V30 3412 H 326.2 -0.765102 0.313923 0
M  V30 3413 H 328.746 -1.12844 1.26745 0
M  V30 3414 H 327.518 -2.84071 2.69108 0
M  V30 3415 H 327.141 -3.77371 1.25206 0
M  V30 3416 N 328.138 -0.959301 -1.25041 0
M  V30 3417 C 329.386 -0.615393 -1.92503 0
M  V30 3418 C 329.707 0.850969 -1.75452 0
M  V30 3419 O 328.977 1.60658 -1.12098 0
M  V30 3420 H 327.557 -0.224613 -0.712431 0
M  V30 3421 H 330.219 -1.21855 -1.5211 0
M  V30 3422 H 329.315 -0.848738 -3.00338 0
M  V30 3423 N 329.616 1.39756 -0.72842 0
M  V30 3424 C 330.862 2.00942 -0.273892 0
M  V30 3425 C 331.195 1.57656 1.13394 0
M  V30 3426 O 330.47 0.802434 1.77176 0
M  V30 3427 C 330.753 3.58211 -0.368346 0
M  V30 3428 C 330.606 4.11534 -1.81548 0
M  V30 3429 C 331.925 4.39372 0.253054 0
M  V30 3430 H 329.044 0.730047 -0.100996 0
M  V30 3431 H 331.686 1.66056 -0.923337 0
M  V30 3432 H 329.836 3.88061 0.184588 0
M  V30 3433 H 331.508 3.92431 -2.42478 0
M  V30 3434 H 329.751 3.65341 -2.33898 0
M  V30 3435 H 330.422 5.20682 -1.83288 0
M  V30 3436 H 332.898 4.15527 -0.218224 0
M  V30 3437 H 331.774 5.48677 0.156585 0
M  V30 3438 H 332.035 4.21358 1.33826 0
M  V30 3439 N 331.094 0.475555 1.50254 0
M  V30 3440 C 332.343 -0.0795996 2.01543 0
M  V30 3441 C 332.656 -1.4038 1.36209 0
M  V30 3442 O 333.862 -2.04415 1.7868 0
M  V30 3443 C 332.318 -0.192363 3.59386 0
M  V30 3444 C 331.926 1.12367 4.33679 0
M  V30 3445 C 333.67 -0.699238 4.18701 0
M  V30 3446 C 331.577 0.974453 5.83317 0
M  V30 3447 H 330.507 -0.0335228 0.753254 0
M  V30 3448 H 333.158 0.611128 1.73025 0
M  V30 3449 H 331.54 -0.946974 3.84511 0
M  V30 3450 H 332.714 1.88958 4.20276 0
M  V30 3451 H 331.029 1.562 3.85993 0
M  V30 3452 H 333.626 -0.827978 5.28251 0
M  V30 3453 H 333.969 -1.69171 3.80377 0
M  V30 3454 H 334.502 -0.00188807 3.978 0
M  V30 3455 H 331.241 1.94042 6.26121 0
M  V30 3456 H 330.761 0.248998 5.99283 0
M  V30 3457 H 332.44 0.642867 6.43798 0
M  V30 3458 N 332.573 -1.56217 0.208337 0
M  V30 3459 C 333.85 -1.89739 -0.475234 0
M  V30 3460 C 334.23 -1.1238 -1.78701 0
M  V30 3461 O 333.578 -0.228979 -2.2735 0
M  V30 3462 C 333.788 -3.42289 -0.681101 0
M  V30 3463 C 335.136 -4.12789 -0.994507 0
M  V30 3464 O 336.16 -3.47814 -0.768357 0
M  V30 3465 O 335.019 -5.27649 -1.42299 0
M  V30 3466 H 332.113 -0.788478 -0.249461 0
M  V30 3467 H 334.659 -1.67855 0.249538 0
M  V30 3468 H 333.431 -3.90534 0.244722 0
M  V30 3469 H 333.054 -3.69909 -1.45785 0
M  V30 3470 N 334.051 0.0651679 -1.57465 0
M  V30 3471 C 335.462 0.616213 -1.76238 0
M  V30 3472 C 335.813 1.7756 -0.834689 0
M  V30 3473 O 334.938 2.1639 -0.0204156 0
M  V30 3474 C 335.533 1.12462 -3.1959 0
M  V30 3475 C 334.092 1.62147 -3.39684 0
M  V30 3476 C 333.239 0.543739 -2.71917 0
M  V30 3477 H 336.19 -0.161022 -1.57881 0
M  V30 3478 H 336.211 1.99324 -3.24114 0
M  V30 3479 H 335.723 0.280592 -3.87084 0
M  V30 3480 H 333.824 2.48854 -2.77313 0
M  V30 3481 H 333.937 1.69385 -4.48158 0
M  V30 3482 H 332.301 0.990352 -2.34657 0
M  V30 3483 H 333.084 -0.290216 -3.42071 0
M  V30 3484 N 335.529 1.53961 0.336706 0
M  V30 3485 C 336.477 1.83136 1.43401 0
M  V30 3486 C 337.471 0.702313 1.54156 0
M  V30 3487 O 338.677 0.885765 1.56698 0
M  V30 3488 H 335.052 0.580309 0.478273 0
M  V30 3489 H 337.023 2.74925 1.16012 0
M  V30 3490 C 335.772 2.06385 2.79822 0
M  V30 3491 H 335.095 2.92718 2.72316 0
M  V30 3492 H 336.535 2.30761 3.55704 0
M  V30 3493 C 334.994 0.851414 3.25964 0
M  V30 3494 O 335.524 0.0541904 4.01663 0
M  V30 3495 N 333.73 0.66672 2.82848 0
M  V30 3496 H 333.277 1.31665 2.21409 0
M  V30 3497 H 333.235 -0.143032 3.14074 0
M  V30 3498 N 337.007 -0.598083 1.45811 0
M  V30 3499 C 338.256 -1.35295 1.49594 0
M  V30 3500 C 338.569 -1.95057 0.145679 0
M  V30 3501 O 339.775 -2.71431 0.0612099 0
M  V30 3502 C 338.231 -2.45124 2.63519 0
M  V30 3503 C 337.839 -1.91732 4.04899 0
M  V30 3504 C 339.583 -3.2205 2.76558 0
M  V30 3505 C 337.49 -2.991 5.1019 0
M  V30 3506 H 336.42 -0.508552 0.556679 0
M  V30 3507 H 339.071 -0.639977 1.71978 0
M  V30 3508 H 337.453 -3.19149 2.34435 0
M  V30 3509 H 338.627 -1.24352 4.43704 0
M  V30 3510 H 336.942 -1.27522 3.96393 0
M  V30 3511 H 339.539 -4.0215 3.52391 0
M  V30 3512 H 339.882 -3.73663 1.83526 0
M  V30 3513 H 340.415 -2.55127 3.05213 0
M  V30 3514 H 337.154 -2.52393 6.04961 0
M  V30 3515 H 336.674 -3.65017 4.75944 0
M  V30 3516 H 338.353 -3.63318 5.35359 0
M  V30 3517 N 338.485 -1.33259 -0.841409 0
M  V30 3518 C 339.731 -1.25766 -1.59857 0
M  V30 3519 C 340.086 0.175602 -1.91597 0
M  V30 3520 O 339.379 1.117 -1.55672 0
M  V30 3521 C 339.573 -2.06381 -2.9179 0
M  V30 3522 C 339.402 -3.57401 -2.72937 0
M  V30 3523 C 338.172 -4.26718 -2.70628 0
M  V30 3524 C 340.37 -4.51786 -2.45753 0
M  V30 3525 N 338.352 -5.63705 -2.43125 0
M  V30 3526 C 339.723 -5.76643 -2.27777 0
M  V30 3527 C 341.778 -4.40898 -2.31329 0
M  V30 3528 C 340.481 -6.91842 -1.96841 0
M  V30 3529 C 342.507 -5.55911 -2.01786 0
M  V30 3530 C 341.869 -6.79776 -1.8462 0
M  V30 3531 H 337.968 -0.515406 -0.588117 0
M  V30 3532 H 340.552 -1.67772 -0.987955 0
M  V30 3533 H 338.723 -1.667 -3.50807 0
M  V30 3534 H 340.455 -1.90678 -3.56965 0
M  V30 3535 H 337.21 -3.78968 -2.84043 0
M  V30 3536 H 337.634 -6.35911 -2.32265 0
M  V30 3537 H 342.276 -3.45772 -2.43314 0
M  V30 3538 H 339.994 -7.86968 -1.83594 0
M  V30 3539 H 343.58 -5.49421 -1.91384 0
M  V30 3540 H 342.46 -7.67266 -1.62088 0
M  V30 3541 N 339.963 1.05934 -1.16686 0
M  V30 3542 C 340.911 2.15603 -0.872817 0
M  V30 3543 C 341.905 1.68647 0.159576 0
M  V30 3544 O 343.111 1.79995 0.0132125 0
M  V30 3545 H 339.486 0.703885 -0.264671 0
M  V30 3546 H 341.457 2.37613 -1.80507 0
M  V30 3547 C 340.206 3.45457 -0.394344 0
M  V30 3548 H 339.529 3.81984 -1.18019 0
M  V30 3549 H 340.969 4.2339 -0.227408 0
M  V30 3550 C 339.428 3.25021 0.88673 0
M  V30 3551 O 339.958 3.50906 1.95519 0
M  V30 3552 N 338.164 2.78437 0.831925 0
M  V30 3553 H 337.711 2.57572 -0.0377619 0
M  V30 3554 H 337.669 2.65144 1.68956 0
M  V30 3555 N 341.441 0.965919 1.2453 0
M  V30 3556 C 342.688 0.626831 1.92554 0
M  V30 3557 C 343.016 -0.837739 1.75534 0
M  V30 3558 O 342.271 -1.61793 1.10098 0
M  V30 3559 C 342.57 0.945428 3.44669 0
M  V30 3560 C 342.236 2.39785 3.81856 0
M  V30 3561 C 340.898 2.79483 3.91718 0
M  V30 3562 C 343.25 3.34055 4.00071 0
M  V30 3563 C 340.578 4.12496 4.1721 0
M  V30 3564 C 342.93 4.66694 4.27059 0
M  V30 3565 C 341.594 5.06172 4.3514 0
M  V30 3566 H 340.864 0.229374 0.704605 0
M  V30 3567 H 343.511 1.21707 1.4785 0
M  V30 3568 H 341.816 0.272926 3.90848 0
M  V30 3569 H 343.513 0.661484 3.95507 0
M  V30 3570 H 340.103 2.08003 3.74743 0
M  V30 3571 H 344.287 3.04571 3.91855 0
M  V30 3572 H 339.543 4.42709 4.21685 0
M  V30 3573 H 343.717 5.3971 4.40097 0
M  V30 3574 H 341.344 6.09262 4.54646 0
M  V30 3575 N 342.919 -1.39368 0.735821 0
M  V30 3576 C 343.829 -2.34395 0.0979693 0
M  V30 3577 C 344.845 -1.58361 -0.720968 0
M  V30 3578 O 346.021 -1.90648 -0.649245 0
M  V30 3579 C 343.086 -3.37393 -0.797916 0
M  V30 3580 C 342.147 -4.29287 0.0333662 0
M  V30 3581 C 341.38 -5.27365 -0.819854 0
M  V30 3582 O 341.603 -5.31959 -2.05855 0
M  V30 3583 O 340.537 -6.01389 -0.248079 0
M  V30 3584 H 344.363 -2.90601 0.882315 0
M  V30 3585 H 341.948 -1.40909 0.4965 0
M  V30 3586 H 343.83 -4.00505 -1.31048 0
M  V30 3587 H 342.505 -2.83571 -1.56106 0
M  V30 3588 H 341.412 -3.69395 0.591475 0
M  V30 3589 H 342.745 -4.86317 0.758752 0
M  V30 3590 N 344.397 -0.483516 -1.5 0
M  V30 3591 C 345.646 0.0689102 -2.01582 0
M  V30 3592 C 345.959 1.39655 -1.36952 0
M  V30 3593 O 347.165 2.03465 -1.79762 0
M  V30 3594 C 345.621 0.173302 -3.59483 0
M  V30 3595 C 345.229 -1.14665 -4.33077 0
M  V30 3596 C 346.973 0.677024 -4.19066 0
M  V30 3597 C 344.88 -1.00537 -5.82792 0
M  V30 3598 H 343.81 0.0295277 -0.753422 0
M  V30 3599 H 346.461 -0.620295 -1.72698 0
M  V30 3600 H 344.843 0.926569 -3.85007 0
M  V30 3601 H 346.017 -1.91184 -4.19268 0
M  V30 3602 H 344.332 -1.58244 -3.85159 0
M  V30 3603 H 346.929 0.799952 -5.28682 0
M  V30 3604 H 347.272 1.67151 -3.81269 0
M  V30 3605 H 347.805 -0.0192083 -3.97795 0
M  V30 3606 H 344.544 -1.9736 -6.25083 0
M  V30 3607 H 344.064 -0.280776 -5.99142 0
M  V30 3608 H 345.743 -0.677 -6.43448 0
M  V30 3609 N 345.875 1.56104 -0.216619 0
M  V30 3610 C 347.123 1.97781 0.415593 0
M  V30 3611 C 347.444 1.10536 1.60645 0
M  V30 3612 O 346.714 0.181303 1.95059 0
M  V30 3613 H 345.294 0.730415 0.156534 0
M  V30 3614 H 347.956 1.92445 -0.308366 0
M  V30 3615 H 347.052 3.03072 0.74525 0
M  V30 3616 N 347.353 -0.0568162 1.57498 0
M  V30 3617 C 348.301 -1.08452 2.05769 0
M  V30 3618 C 349.295 -1.39164 0.965903 0
M  V30 3619 O 350.501 -1.38395 1.15095 0
M  V30 3620 H 346.876 -0.367148 0.656282 0
M  V30 3621 H 348.847 -0.651368 2.91204 0
M  V30 3622 C 347.596 -2.38543 2.52968 0
M  V30 3623 H 346.919 -2.15765 3.36579 0
M  V30 3624 H 348.359 -3.08863 2.90481 0
M  V30 3625 C 346.818 -3.05562 1.41893 0
M  V30 3626 O 347.348 -3.94262 0.769442 0
M  V30 3627 N 345.554 -2.6643 1.16032 0
M  V30 3628 H 345.101 -1.94387 1.6903 0
M  V30 3629 H 345.059 -3.11593 0.419219 0
M  V30 3630 N 348.832 -1.54138 -0.328536 0
M  V30 3631 C 350.08 -1.71765 -1.06496 0
M  V30 3632 C 350.401 -0.49149 -1.88704 0
M  V30 3633 O 349.671 0.494539 -1.89555 0
M  V30 3634 H 348.251 -0.633295 -0.396164 0
M  V30 3635 H 350.913 -1.91429 -0.366176 0
M  V30 3636 H 350.009 -2.5951 -1.73381 0
M  V30 3637 N 350.31 0.590341 -1.46126 0
M  V30 3638 C 351.26 1.69466 -1.5253 0
M  V30 3639 C 352.244 1.56179 -0.386917 0
M  V30 3640 O 353.436 1.65223 -0.634858 0
M  V30 3641 C 350.565 3.08245 -1.5113 0
M  V30 3642 C 349.651 3.26856 -2.70233 0
M  V30 3643 N 350.042 3.15657 -3.95214 0
M  V30 3644 C 348.34 3.57775 -2.66296 0
M  V30 3645 C 349.041 3.36066 -4.74799 0
M  V30 3646 N 348.017 3.60865 -4.06543 0
M  V30 3647 H 351.819 1.59326 -2.46966 0
M  V30 3648 H 349.333 0.79414 -1.41659 0
M  V30 3649 H 351.33 3.87492 -1.53804 0
M  V30 3650 H 349.99 3.19521 -0.577636 0
M  V30 3651 H 351.001 2.93686 -4.26578 0
M  V30 3652 H 347.678 3.75782 -1.81918 0
M  V30 3653 H 349.068 3.32655 -5.83772 0
M  V30 3654 N 351.788 1.33704 0.83433 0
M  V30 3655 C 352.751 1.24244 1.92603 0
M  V30 3656 C 353.751 0.160383 1.59998 0
M  V30 3657 O 354.941 0.412228 1.69252 0
M  V30 3658 C 352.073 0.91555 3.28376 0
M  V30 3659 H 353.266 2.21287 2.02416 0
M  V30 3660 H 350.819 1.17827 1.02696 0
M  V30 3661 H 351.554 -0.0521886 3.24258 0
M  V30 3662 H 351.339 1.69811 3.53422 0
M  V30 3663 H 352.829 0.874231 4.08347 0
M  V30 3664 N 353.266 -1.05314 1.17247 0
M  V30 3665 C 354.213 -2.13031 0.888058 0
M  V30 3666 C 355.183 -1.65253 -0.167537 0
M  V30 3667 O 356.368 -1.90775 -0.0305974 0
M  V30 3668 C 353.508 -3.42702 0.406147 0
M  V30 3669 C 352.621 -4.04161 1.52572 0
M  V30 3670 C 351.756 -5.21744 0.997808 0
M  V30 3671 C 350.795 -5.75207 2.09291 0
M  V30 3672 N 349.932 -6.84094 1.57986 0
M  V30 3673 H 354.772 -2.36698 1.81048 0
M  V30 3674 H 352.309 -1.16121 0.903013 0
M  V30 3675 H 354.267 -4.17059 0.108305 0
M  V30 3676 H 352.897 -3.19222 -0.479313 0
M  V30 3677 H 351.949 -3.27253 1.93931 0
M  V30 3678 H 353.261 -4.39881 2.35172 0
M  V30 3679 H 352.415 -6.03168 0.653739 0
M  V30 3680 H 351.154 -4.87495 0.141232 0
M  V30 3681 H 350.159 -4.92414 2.44557 0
M  V30 3682 H 351.384 -6.11505 2.95362 0
M  V30 3683 H 349.33 -6.51745 0.74598 0
M  V30 3684 H 349.247 -7.18811 2.34195 0
M  V30 3685 H 350.515 -7.69172 1.26468 0
M  V30 3686 N 354.744 -0.972509 -1.24016 0
M  V30 3687 C 355.992 -0.635776 -1.91839 0
M  V30 3688 C 356.313 0.832312 -1.76345 0
M  V30 3689 O 355.583 1.5946 -1.13795 0
M  V30 3690 H 354.163 -0.232157 -0.710009 0
M  V30 3691 H 356.825 -1.23462 -1.50809 0
M  V30 3692 H 355.921 -0.880545 -2.99421 0
M  V30 3693 N 356.222 1.38976 -0.743202 0
M  V30 3694 C 357.471 1.99581 -0.291592 0
M  V30 3695 C 357.784 1.59656 1.13001 0
M  V30 3696 O 358.99 2.13157 1.68156 0
M  V30 3697 C 357.446 3.56813 -0.470391 0
M  V30 3698 C 357.054 4.05695 -1.90041 0
M  V30 3699 C 358.798 4.24423 -0.0809709 0
M  V30 3700 C 356.705 5.5553 -2.02832 0
M  V30 3701 H 355.635 0.746615 -0.105272 0
M  V30 3702 H 358.286 1.58872 -0.918258 0
M  V30 3703 H 356.668 3.95359 0.225299 0
M  V30 3704 H 357.842 3.78464 -2.62872 0
M  V30 3705 H 356.157 3.50775 -2.24379 0
M  V30 3706 H 358.754 5.34474 -0.155445 0
M  V30 3707 H 359.097 4.04962 0.96497 0
M  V30 3708 H 359.63 3.9108 -0.728124 0
M  V30 3709 H 356.369 5.79881 -3.05643 0
M  V30 3710 H 355.889 5.84537 -1.34448 0
M  V30 3711 H 357.568 6.21069 -1.81335 0
M  V30 3712 N 357.7 0.491464 1.49741 0
M  V30 3713 C 359.111 0.0413169 1.86654 0
M  V30 3714 C 359.462 -1.36985 1.40462 0
M  V30 3715 O 358.587 -2.01917 0.778354 0
M  V30 3716 C 359.182 0.0682023 3.38731 0
M  V30 3717 C 357.741 -0.32656 3.74981 0
M  V30 3718 C 356.888 0.444888 2.73708 0
M  V30 3719 H 359.839 0.704733 1.42194 0
M  V30 3720 H 359.86 -0.729322 3.73445 0
M  V30 3721 H 359.372 1.09539 3.72321 0
M  V30 3722 H 357.473 -1.35734 3.46997 0
M  V30 3723 H 357.586 -0.013741 4.79098 0
M  V30 3724 H 355.95 -0.104062 2.54487 0
M  V30 3725 H 356.733 1.47197 3.10142 0
M  V30 3726 N 359.178 -1.55987 0.224894 0
M  V30 3727 C 360.426 -1.97998 -0.405099 0
M  V30 3728 C 360.747 -1.11387 -1.60056 0
M  V30 3729 O 360.017 -0.191645 -1.9496 0
M  V30 3730 H 358.597 -0.731235 -0.152658 0
M  V30 3731 H 361.259 -1.92279 0.318567 0
M  V30 3732 H 360.355 -3.03463 -0.729167 0
M  V30 3733 N 360.656 0.0484629 -1.57525 0
M  V30 3734 C 361.902 0.738854 -1.89506 0
M  V30 3735 C 362.257 1.73989 -0.821319 0
M  V30 3736 O 361.55 1.90825 0.172129 0
M  V30 3737 C 361.744 1.46632 -3.25935 0
M  V30 3738 C 361.573 0.537254 -4.46479 0
M  V30 3739 C 360.343 0.165484 -5.05029 0
M  V30 3740 C 362.541 -0.176085 -5.13998 0
M  V30 3741 N 360.523 -0.766868 -6.09091 0
M  V30 3742 C 361.894 -0.96478 -6.12448 0
M  V30 3743 C 363.949 -0.24509 -4.97296 0
M  V30 3744 C 362.652 -1.8161 -6.95996 0
M  V30 3745 C 364.678 -1.08347 -5.81391 0
M  V30 3746 C 364.04 -1.86014 -6.79395 0
M  V30 3747 H 360.139 0.245067 -0.742608 0
M  V30 3748 H 362.723 -0.000476161 -1.947 0
M  V30 3749 H 360.894 2.17623 -3.21706 0
M  V30 3750 H 362.626 2.10757 -3.45491 0
M  V30 3751 H 359.381 0.523466 -4.70698 0
M  V30 3752 H 359.805 -1.22698 -6.65788 0
M  V30 3753 H 364.447 0.341063 -4.21422 0
M  V30 3754 H 362.165 -2.41313 -7.71229 0
M  V30 3755 H 365.751 -1.14014 -5.70519 0
M  V30 3756 H 364.631 -2.4984 -7.43337 0
M  V30 3757 N 362.134 1.5431 0.320358 0
M  V30 3758 C 363.382 1.72327 1.05583 0
M  V30 3759 C 363.703 0.50149 1.88441 0
M  V30 3760 O 362.973 -0.48448 1.89815 0
M  V30 3761 H 361.553 0.635387 0.3928 0
M  V30 3762 H 364.215 1.91621 0.356019 0
M  V30 3763 H 363.311 2.60426 1.72003 0
M  V30 3764 N 363.613 -0.582584 1.46437 0
M  V30 3765 C 364.561 -1.71272 1.5738 0
M  V30 3766 C 365.555 -1.63524 0.44229 0
M  V30 3767 O 366.761 -1.69016 0.619166 0
M  V30 3768 H 363.136 -0.566273 0.494813 0
M  V30 3769 H 365.107 -1.59174 2.52401 0
M  V30 3770 C 363.856 -3.09658 1.58136 0
M  V30 3771 H 363.179 -3.16291 2.44541 0
M  V30 3772 H 364.619 -3.88494 1.69847 0
M  V30 3773 C 363.078 -3.3547 0.310026 0
M  V30 3774 O 363.608 -3.97199 -0.599683 0
M  V30 3775 N 361.814 -2.89925 0.197901 0
M  V30 3776 H 361.361 -2.39873 0.93909 0
M  V30 3777 H 361.319 -3.07568 -0.65185 0
M  V30 3778 N 365.091 -1.34144 -0.827227 0
M  V30 3779 C 366.339 -1.26009 -1.58007 0
M  V30 3780 C 366.66 0.170971 -1.94249 0
M  V30 3781 O 365.93 1.10256 -1.61927 0
M  V30 3782 H 364.51 -0.463414 -0.585881 0
M  V30 3783 H 367.172 -1.68005 -0.987951 0
M  V30 3784 H 366.268 -1.86187 -2.50481 0
M  V30 3785 N 366.569 1.04691 -1.17803 0
M  V30 3786 C 367.479 2.16057 -0.914151 0
M  V30 3787 C 368.495 1.73589 0.119503 0
M  V30 3788 O 369.671 2.01308 -0.0609468 0
M  V30 3789 C 366.736 3.4394 -0.436603 0
M  V30 3790 C 365.797 4.00825 -1.53746 0
M  V30 3791 C 365.03 5.22604 -1.0826 0
M  V30 3792 O 365.253 5.70367 0.0612244 0
M  V30 3793 O 364.187 5.7186 -1.87775 0
M  V30 3794 H 368.013 2.41169 -1.84584 0
M  V30 3795 H 365.598 1.1453 -0.959334 0
M  V30 3796 H 367.48 4.21024 -0.178057 0
M  V30 3797 H 366.155 3.20316 0.466869 0
M  V30 3798 H 365.062 3.25158 -1.84995 0
M  V30 3799 H 366.395 4.28778 -2.41683 0
M  V30 3800 N 368.047 0.979072 1.23499 0
M  V30 3801 C 368.977 0.537606 2.27227 0
M  V30 3802 C 369.958 -0.428539 1.64613 0
M  V30 3803 O 371.143 -0.322191 1.91509 0
M  V30 3804 C 368.273 -0.162052 3.46922 0
M  V30 3805 C 367.227 0.721242 4.21879 0
M  V30 3806 C 366.553 -0.110555 5.34586 0
M  V30 3807 C 367.853 2.01141 4.82016 0
M  V30 3808 H 369.547 1.40462 2.64406 0
M  V30 3809 H 367.093 0.67684 1.27102 0
M  V30 3810 H 369.046 -0.482192 4.18632 0
M  V30 3811 H 367.77 -1.06351 3.08799 0
M  V30 3812 H 366.429 1.02482 3.51984 0
M  V30 3813 H 366.077 -1.0125 4.92704 0
M  V30 3814 H 365.777 0.477325 5.85658 0
M  V30 3815 H 367.301 -0.425107 6.09118 0
M  V30 3816 H 368.715 1.75612 5.45741 0
M  V30 3817 H 367.112 2.54695 5.43369 0
M  V30 3818 H 368.182 2.69909 4.02836 0
M  V30 3819 N 369.525 -1.3858 0.750561 0
M  V30 3820 C 370.435 -2.34278 0.122825 0
M  V30 3821 C 371.451 -1.59116 -0.704131 0
M  V30 3822 O 372.627 -1.91326 -0.628987 0
M  V30 3823 C 369.692 -3.38221 -0.762086 0
M  V30 3824 C 368.753 -4.29227 0.078896 0
M  V30 3825 C 367.986 -5.28205 -0.763874 0
M  V30 3826 O 368.209 -5.34112 -2.00201 0
M  V30 3827 O 367.143 -6.01618 -0.18428 0
M  V30 3828 H 370.969 -2.89649 0.913088 0
M  V30 3829 H 368.554 -1.40374 0.511417 0
M  V30 3830 H 370.436 -4.01872 -1.26793 0
M  V30 3831 H 369.111 -2.85211 -1.5309 0
M  V30 3832 H 368.018 -3.68747 0.630621 0
M  V30 3833 H 369.351 -4.85484 0.810289 0
M  V30 3834 N 371.003 -0.499398 -1.49478 0
M  V30 3835 C 372.233 0.0424839 -2.06556 0
M  V30 3836 C 372.641 1.31514 -1.36018 0
M  V30 3837 O 371.984 1.78555 -0.431718 0
M  V30 3838 C 372.046 0.368074 -3.57611 0
M  V30 3839 C 371.71 -0.806631 -4.49825 0
M  V30 3840 C 372.707 -1.69667 -4.91436 0
M  V30 3841 C 370.392 -1.00498 -4.92144 0
M  V30 3842 C 372.386 -2.76923 -5.74101 0
M  V30 3843 C 370.073 -2.08072 -5.74586 0
M  V30 3844 C 371.071 -2.96119 -6.15469 0
M  V30 3845 O 370.759 -4.01836 -6.96264 0
M  V30 3846 H 370.491 -0.0165165 -0.675798 0
M  V30 3847 H 373.045 -0.695497 -1.93267 0
M  V30 3848 H 371.275 1.15963 -3.68903 0
M  V30 3849 H 372.964 0.848381 -3.96935 0
M  V30 3850 H 373.73 -1.55524 -4.59388 0
M  V30 3851 H 369.609 -0.329036 -4.59824 0
M  V30 3852 H 373.153 -3.45676 -6.05932 0
M  V30 3853 H 369.05 -2.22211 -6.06047 0
M  V30 3854 H 369.818 -3.9917 -7.14567 0
M  V30 3855 N 372.481 1.55866 -0.233164 0
M  V30 3856 C 373.711 2.02704 0.399325 0
M  V30 3857 C 374.119 1.11204 1.53069 0
M  V30 3858 O 373.462 0.116182 1.83332 0
M  V30 3859 C 373.524 3.45844 0.981429 0
M  V30 3860 C 373.188 4.56997 -0.0159561 0
M  V30 3861 C 374.185 5.13384 -0.820552 0
M  V30 3862 C 371.87 5.0211 -0.138072 0
M  V30 3863 C 373.864 6.13365 -1.73386 0
M  V30 3864 C 371.551 6.01926 -1.0549 0
M  V30 3865 C 372.549 6.57431 -1.85132 0
M  V30 3866 O 372.237 7.55302 -2.75272 0
M  V30 3867 H 371.969 0.668459 0.100692 0
M  V30 3868 H 374.523 2.02387 -0.35052 0
M  V30 3869 H 372.753 3.43267 1.78058 0
M  V30 3870 H 374.442 3.76262 1.52255 0
M  V30 3871 H 375.208 4.79372 -0.736721 0
M  V30 3872 H 371.087 4.5858 0.471737 0
M  V30 3873 H 374.631 6.56614 -2.35592 0
M  V30 3874 H 370.528 6.35359 -1.1397 0
M  V30 3875 H 371.296 7.72867 -2.69477 0
M  V30 3876 N 373.959 -0.0401083 1.57549 0
M  V30 3877 C 375.187 -0.745196 1.93014 0
M  V30 3878 C 375.602 -1.6948 0.831984 0
M  V30 3879 O 374.959 -1.81482 -0.192463 0
M  V30 3880 C 375.01 -1.51176 3.28372 0
M  V30 3881 O 374.731 -0.600284 4.33968 0
M  V30 3882 C 376.232 -2.315 3.78051 0
M  V30 3883 H 373.452 -0.210088 0.637263 0
M  V30 3884 H 375.996 -0.000924689 2.045 0
M  V30 3885 H 374.151 -2.20801 3.18317 0
M  V30 3886 H 374.565 -1.13669 5.12035 0
M  V30 3887 H 376.039 -2.80697 4.75303 0
M  V30 3888 H 376.516 -3.12436 3.08675 0
M  V30 3889 H 377.122 -1.66971 3.91153 0
M  V30 3890 N 375.437 -1.54477 -0.31217 0
M  V30 3891 C 376.714 -1.63891 -1.06767 0
M  V30 3892 C 377.094 -0.480028 -2.0557 0
M  V30 3893 O 376.442 0.524487 -2.22399 0
M  V30 3894 C 376.652 -3.01402 -1.75948 0
M  V30 3895 C 378 -3.57838 -2.28554 0
M  V30 3896 O 379.024 -3.03782 -1.85998 0
M  V30 3897 O 377.883 -4.52462 -3.06497 0
M  V30 3898 H 374.977 -0.664125 -0.492816 0
M  V30 3899 H 377.523 -1.66823 -0.311149 0
M  V30 3900 H 376.295 -3.77187 -1.04144 0
M  V30 3901 H 375.918 -3.02199 -2.58383 0
M  V30 3902 N 376.915 0.57481 -1.46744 0
M  V30 3903 C 377.825 1.711 -1.60505 0
M  V30 3904 C 378.841 1.67008 -0.488307 0
M  V30 3905 O 380.017 1.86774 -0.753495 0
M  V30 3906 C 377.082 3.07608 -1.59932 0
M  V30 3907 C 376.143 3.22904 -2.82898 0
M  V30 3908 C 375.376 4.529 -2.82343 0
M  V30 3909 O 375.599 5.37278 -1.91542 0
M  V30 3910 O 374.533 4.71611 -3.73987 0
M  V30 3911 H 378.359 1.62436 -2.56609 0
M  V30 3912 H 375.944 0.742779 -1.29627 0
M  V30 3913 H 377.826 3.88877 -1.62336 0
M  V30 3914 H 376.501 3.16692 -0.669898 0
M  V30 3915 H 375.408 2.41099 -2.86046 0
M  V30 3916 H 376.741 3.18715 -3.75076 0
M  V30 3917 N 378.394 1.34581 0.820102 0
M  V30 3918 C 379.342 1.26401 1.95258 0
M  V30 3919 C 380.336 0.161553 1.68628 0
M  V30 3920 O 381.542 0.326703 1.7701 0
M  V30 3921 H 377.917 0.392749 0.64129 0
M  V30 3922 H 379.888 2.22105 1.99279 0
M  V30 3923 C 378.637 1.03919 3.31807 0
M  V30 3924 H 377.96 1.87984 3.52848 0
M  V30 3925 H 379.4 1.02232 4.11491 0
M  V30 3926 C 377.859 -0.257433 3.35915 0
M  V30 3927 O 378.389 -1.25784 3.81499 0
M  V30 3928 N 376.595 -0.291524 2.89134 0
M  V30 3929 H 376.142 0.523161 2.52232 0
M  V30 3930 H 376.1 -1.15883 2.92264 0
M  V30 3931 N 379.872 -1.04064 1.18357 0
M  V30 3932 C 380.835 -2.10243 0.912707 0
M  V30 3933 C 381.835 -1.60477 -0.101928 0
M  V30 3934 O 383.025 -1.73703 0.131517 0
M  V30 3935 C 380.157 -3.38893 0.369387 0
M  V30 3936 H 381.35 -2.35706 1.85426 0
M  V30 3937 H 378.903 -1.20489 0.995594 0
M  V30 3938 H 379.638 -3.19094 -0.578776 0
M  V30 3939 H 379.423 -3.76331 1.1008 0
M  V30 3940 H 380.913 -4.17128 0.198575 0
M  V30 3941 N 381.35 -0.985608 -1.22978 0
M  V30 3942 C 382.597 -0.657386 -1.91532 0
M  V30 3943 C 382.925 0.809707 -1.76845 0
M  V30 3944 O 382.18 1.60021 -1.12658 0
M  V30 3945 C 382.479 -1.00014 -3.43121 0
M  V30 3946 C 382.145 -2.4583 -3.77993 0
M  V30 3947 C 380.807 -2.85679 -3.87222 0
M  V30 3948 C 383.159 -3.40378 -3.94705 0
M  V30 3949 C 380.487 -4.19081 -4.10595 0
M  V30 3950 C 382.839 -4.73429 -4.1958 0
M  V30 3951 C 381.503 -5.1303 -4.27032 0
M  V30 3952 H 380.773 -0.240555 -0.700867 0
M  V30 3953 H 383.42 -1.24044 -1.45895 0
M  V30 3954 H 381.725 -0.335072 -3.90365 0
M  V30 3955 H 383.422 -0.724322 -3.94404 0
M  V30 3956 H 380.012 -2.13939 -3.71387 0
M  V30 3957 H 384.196 -3.10766 -3.8696 0
M  V30 3958 H 379.452 -4.49362 -4.14589 0
M  V30 3959 H 383.626 -5.46644 -4.31455 0
M  V30 3960 H 381.253 -6.16418 -4.44896 0
M  V30 3961 N 382.828 1.3818 -0.7579 0
M  V30 3962 C 384.074 2.00316 -0.316453 0
M  V30 3963 C 384.407 1.60026 1.10025 0
M  V30 3964 O 383.682 0.839835 1.75434 0
M  V30 3965 C 383.965 3.57349 -0.444245 0
M  V30 3966 C 383.818 4.07591 -1.90236 0
M  V30 3967 C 385.137 4.3981 0.1598 0
M  V30 3968 H 382.256 0.727741 -0.116459 0
M  V30 3969 H 384.898 1.6406 -0.958352 0
M  V30 3970 H 383.048 3.88365 0.102233 0
M  V30 3971 H 384.72 3.87199 -2.50748 0
M  V30 3972 H 382.963 3.60297 -2.41595 0
M  V30 3973 H 383.634 5.16677 -1.94291 0
M  V30 3974 H 386.11 4.14971 -0.306314 0
M  V30 3975 H 384.986 5.48885 0.0401675 0
M  V30 3976 H 385.247 4.24102 1.24859 0
M  V30 3977 N 384.306 0.507319 1.49211 0
M  V30 3978 C 385.216 -0.272136 2.33016 0
M  V30 3979 C 386.232 -0.961206 1.45041 0
M  V30 3980 O 387.408 -0.941191 1.78055 0
M  V30 3981 C 384.473 -1.31895 3.20631 0
M  V30 3982 C 383.534 -0.642648 4.24463 0
M  V30 3983 C 382.767 -1.63959 5.07891 0
M  V30 3984 O 382.99 -2.87007 4.92933 0
M  V30 3985 O 381.924 -1.19143 5.8999 0
M  V30 3986 H 385.75 0.413982 3.00865 0
M  V30 3987 H 383.335 0.268556 1.46966 0
M  V30 3988 H 385.217 -1.92446 3.7489 0
M  V30 3989 H 383.892 -1.98788 2.5547 0
M  V30 3990 H 382.799 0.00276252 3.741 0
M  V30 3991 H 384.132 -0.0160534 4.92197 0
M  V30 3992 N 385.784 -1.5574 0.241426 0
M  V30 3993 C 386.732 -2.22538 -0.676718 0
M  V30 3994 C 387.726 -1.21117 -1.18436 0
M  V30 3995 O 388.932 -1.39144 -1.14188 0
M  V30 3996 H 385.307 -0.713776 -0.236701 0
M  V30 3997 H 387.278 -2.98264 -0.0901187 0
M  V30 3998 C 386.027 -2.93439 -1.86518 0
M  V30 3999 H 385.35 -3.7125 -1.4837 0
M  V30 4000 H 386.79 -3.43549 -2.48495 0
M  V30 4001 C 385.249 -1.97008 -2.73294 0
M  V30 4002 O 385.779 -1.49965 -3.72657 0
M  V30 4003 N 383.985 -1.64227 -2.39745 0
M  V30 4004 H 383.532 -2.02677 -1.58996 0
M  V30 4005 H 383.49 -0.999708 -2.98083 0
M  V30 4006 N 387.262 0.0317525 -1.57568 0
M  V30 4007 C 388.51 0.721676 -1.88776 0
M  V30 4008 C 388.831 1.76039 -0.838772 0
M  V30 4009 O 388.101 1.95482 0.127935 0
M  V30 4010 H 386.681 0.269534 -0.696678 0
M  V30 4011 H 389.343 -0.00165879 -1.949 0
M  V30 4012 H 388.439 1.21293 -2.87566 0
M  V30 4013 N 388.74 1.54641 0.303973 0
M  V30 4014 C 389.98 1.75516 1.04755 0
M  V30 4015 C 390.344 0.528211 1.84591 0
M  V30 4016 O 391.545 0.614645 2.61678 0
M  V30 4017 C 389.816 3.00685 1.93193 0
M  V30 4018 S 391.375 3.42549 2.74237 0
M  V30 4019 H 388.193 0.616987 0.353339 0
M  V30 4020 H 390.795 1.92842 0.321292 0
M  V30 4021 H 389.499 3.8811 1.33411 0
M  V30 4022 H 389.03 2.85937 2.70191 0
M  V30 4023 H 391.045 2.99386 3.95705 0
M  V30 4024 N 390.218 -0.567019 1.47046 0
M  V30 4025 C 391.148 -1.68482 1.61667 0
M  V30 4026 C 392.129 -1.6358 0.466418 0
M  V30 4027 O 393.314 -1.81354 0.694574 0
M  V30 4028 C 390.444 -3.07124 1.62148 0
M  V30 4029 C 389.398 -3.26867 2.76301 0
M  V30 4030 C 388.724 -4.66196 2.61849 0
M  V30 4031 C 390.024 -3.13186 4.17986 0
M  V30 4032 H 391.718 -1.56502 2.5524 0
M  V30 4033 H 389.264 -0.751486 1.22836 0
M  V30 4034 H 391.217 -3.8516 1.70968 0
M  V30 4035 H 389.941 -3.2004 0.651287 0
M  V30 4036 H 388.6 -2.51237 2.66975 0
M  V30 4037 H 388.248 -4.75898 1.62879 0
M  V30 4038 H 387.948 -4.80356 3.38425 0
M  V30 4039 H 389.472 -5.46379 2.72584 0
M  V30 4040 H 390.886 -3.81049 4.2834 0
M  V30 4041 H 389.283 -3.3886 4.95272 0
M  V30 4042 H 390.353 -2.10057 4.3704 0
M  V30 4043 N 391.696 -1.35014 -0.812953 0
M  V30 4044 C 392.942 -1.2812 -1.57204 0
M  V30 4045 C 393.275 0.145869 -1.93651 0
M  V30 4046 O 392.55 1.0937 -1.60836 0
M  V30 4047 C 392.833 -2.18162 -2.86492 0
M  V30 4048 C 392.686 -3.69454 -2.56561 0
M  V30 4049 C 394.005 -2.07439 -3.88145 0
M  V30 4050 H 391.124 -0.466746 -0.570366 0
M  V30 4051 H 393.766 -1.65357 -0.935783 0
M  V30 4052 H 391.916 -1.86535 -3.40789 0
M  V30 4053 H 393.588 -4.11493 -2.08497 0
M  V30 4054 H 391.831 -3.9005 -1.89851 0
M  V30 4055 H 392.502 -4.27835 -3.48799 0
M  V30 4056 H 394.978 -2.35228 -3.4323 0
M  V30 4057 H 393.854 -2.7265 -4.76396 0
M  V30 4058 H 394.115 -1.05439 -4.29343 0
M  V30 4059 N 393.175 1.03435 -1.18907 0
M  V30 4060 C 394.424 1.76143 -0.982669 0
M  V30 4061 C 394.737 1.89416 0.487953 0
M  V30 4062 O 395.943 2.59041 0.813036 0
M  V30 4063 C 394.399 3.16722 -1.70924 0
M  V30 4064 C 394.007 3.11522 -3.21959 0
M  V30 4065 C 395.751 3.93764 -1.58588 0
M  V30 4066 C 393.658 4.46999 -3.87228 0
M  V30 4067 H 392.588 0.660292 -0.364047 0
M  V30 4068 H 395.239 1.158 -1.42347 0
M  V30 4069 H 393.621 3.775 -1.19623 0
M  V30 4070 H 394.795 2.60158 -3.80335 0
M  V30 4071 H 393.11 2.47978 -3.34508 0
M  V30 4072 H 395.707 4.93963 -2.04707 0
M  V30 4073 H 396.05 4.12794 -0.539142 0
M  V30 4074 H 396.583 3.39576 -2.07203 0
M  V30 4075 H 393.322 4.33174 -4.91976 0
M  V30 4076 H 392.842 4.98441 -3.33642 0
M  V30 4077 H 394.521 5.15898 -3.90459 0
M  V30 4078 N 394.653 0.992116 1.22453 0
M  V30 4079 C 395.563 0.55065 2.28046 0
M  V30 4080 C 396.579 -0.400189 1.69335 0
M  V30 4081 O 397.755 -0.267215 1.99619 0
M  V30 4082 C 394.82 -0.128496 3.46462 0
M  V30 4083 C 393.881 0.865208 4.20491 0
M  V30 4084 C 393.114 0.218377 5.33253 0
M  V30 4085 O 393.337 -0.987894 5.6178 0
M  V30 4086 O 392.271 0.922845 5.94783 0
M  V30 4087 H 396.097 1.4291 2.67975 0
M  V30 4088 H 393.682 0.760326 1.28606 0
M  V30 4089 H 395.564 -0.508947 4.18315 0
M  V30 4090 H 394.239 -0.981526 3.0846 0
M  V30 4091 H 393.146 1.29658 3.50913 0
M  V30 4092 H 394.479 1.68741 4.62371 0
M  V30 4093 N 396.131 -1.37776 0.765217 0
M  V30 4094 C 397.094 -2.28686 0.153416 0
M  V30 4095 C 398.094 -1.47727 -0.635081 0
M  V30 4096 O 399.284 -1.68027 -0.459632 0
M  V30 4097 C 396.416 -3.31608 -0.790495 0
M  V30 4098 H 397.609 -2.84297 0.954723 0
M  V30 4099 H 395.162 -1.46932 0.53299 0
M  V30 4100 H 395.897 -2.81109 -1.61705 0
M  V30 4101 H 395.682 -3.9144 -0.227348 0
M  V30 4102 H 397.172 -3.99559 -1.21419 0
M  V30 4103 N 397.609 -0.515225 -1.4894 0
M  V30 4104 C 399.025 -0.172099 -1.58669 0
M  V30 4105 C 399.225 1.32405 -1.51892 0
M  V30 4106 O 398.281 2.10116 -1.40027 0
M  V30 4107 C 399.594 -0.761533 -2.90897 0
M  V30 4108 C 401.142 -0.728926 -3.04394 0
M  V30 4109 C 401.617 -1.29667 -4.39261 0
M  V30 4110 N 403.108 -1.25799 -4.4579 0
M  V30 4111 C 403.843 -1.66733 -5.48623 0
M  V30 4112 N 403.339 -2.15327 -6.58488 0
M  V30 4113 N 405.132 -1.58061 -5.39419 0
M  V30 4114 H 397.283 -1.48778 -1.51588 0
M  V30 4115 H 399.546 -0.617968 -0.718901 0
M  V30 4116 H 399.252 -1.81136 -3.01468 0
M  V30 4117 H 399.126 -0.230106 -3.76497 0
M  V30 4118 H 401.513 0.312098 -2.93445 0
M  V30 4119 H 401.594 -1.29766 -2.20442 0
M  V30 4120 H 401.238 -2.33655 -4.50963 0
M  V30 4121 H 401.168 -0.703752 -5.21876 0
M  V30 4122 H 403.659 -0.902102 -3.66975 0
M  V30 4123 H 403.972 -2.44594 -7.33071 0
M  V30 4124 H 402.317 -2.19311 -6.59491 0
M  V30 4125 H 405.508 -1.19906 -4.52482 0
M  V30 4126 H 405.681 -1.90284 -6.19432 0
M  V30 4127 N 399.087 1.5561 -0.249682 0
M  V30 4128 C 400.034 2.21496 0.648694 0
M  V30 4129 C 401.004 1.17977 1.16921 0
M  V30 4130 O 402.189 1.46434 1.22318 0
M  V30 4131 C 399.329 2.92039 1.83868 0
M  V30 4132 C 398.442 4.10219 1.35442 0
M  V30 4133 C 397.577 4.6847 2.50419 0
M  V30 4134 C 396.616 5.78893 1.98869 0
M  V30 4135 N 395.753 6.31315 3.07223 0
M  V30 4136 H 400.593 2.97892 0.0801582 0
M  V30 4137 H 398.13 1.47074 0.0278031 0
M  V30 4138 H 400.088 3.31138 2.53778 0
M  V30 4139 H 398.718 2.18111 2.37965 0
M  V30 4140 H 397.77 3.76413 0.54928 0
M  V30 4141 H 399.082 4.89927 0.936649 0
M  V30 4142 H 398.236 5.10158 3.28366 0
M  V30 4143 H 396.975 3.87984 2.95499 0
M  V30 4144 H 395.98 5.3668 1.19393 0
M  V30 4145 H 397.205 6.61232 1.54755 0
M  V30 4146 H 395.151 5.53733 3.51732 0
M  V30 4147 H 395.068 7.06224 2.69784 0
M  V30 4148 H 396.336 6.77662 3.8522 0
M  V30 4149 N 400.565 -0.0233959 1.57583 0
M  V30 4150 C 401.475 -1.03907 2.10334 0
M  V30 4151 C 402.491 -1.39257 1.04323 0
M  V30 4152 O 403.667 -1.48462 1.36091 0
M  V30 4153 C 400.732 -2.31938 2.57693 0
M  V30 4154 C 399.793 -2.03117 3.78209 0
M  V30 4155 C 399.026 -3.25043 4.233 0
M  V30 4156 O 399.249 -4.35916 3.67876 0
M  V30 4157 O 398.183 -3.10411 5.15683 0
M  V30 4158 H 402.009 -0.620748 2.97288 0
M  V30 4159 H 399.594 -0.240743 1.47448 0
M  V30 4160 H 401.476 -3.07196 2.88458 0
M  V30 4161 H 400.151 -2.73055 1.73847 0
M  V30 4162 H 399.058 -1.25408 3.52454 0
M  V30 4163 H 400.391 -1.66852 4.63056 0
M  V30 4164 N 402.043 -1.548 -0.295768 0
M  V30 4165 C 402.975 -1.82492 -1.3867 0
M  V30 4166 C 403.988 -0.708134 -1.46592 0
M  V30 4167 O 405.177 -0.985686 -1.48817 0
M  V30 4168 C 402.277 -1.95256 -2.76999 0
M  V30 4169 C 401.45 -3.25709 -2.91946 0
M  V30 4170 C 400.509 -3.28824 -4.10806 0
M  V30 4171 O 399.535 -4.02328 -4.02643 0
M  V30 4172 N 400.737 -2.5459 -5.21694 0
M  V30 4173 H 403.502 -2.76646 -1.15269 0
M  V30 4174 H 401.063 -1.54438 -0.485849 0
M  V30 4175 H 403.055 -1.94736 -3.54768 0
M  V30 4176 H 401.625 -1.08072 -2.93324 0
M  V30 4177 H 400.845 -3.38959 -2.01247 0
M  V30 4178 H 402.133 -4.11786 -2.98847 0
M  V30 4179 H 401.531 -1.94512 -5.31208 0
M  V30 4180 H 400.088 -2.59818 -5.97778 0
M  V30 4181 N 403.521 0.559213 -1.47345 0
M  V30 4182 C 404.767 1.31843 -1.54095 0
M  V30 4183 C 405.1 1.93149 -0.201726 0
M  V30 4184 O 404.375 1.77759 0.789428 0
M  V30 4185 C 404.658 2.43006 -2.65744 0
M  V30 4186 C 404.511 1.86581 -4.09277 0
M  V30 4187 C 405.83 3.44943 -2.73318 0
M  V30 4188 H 402.949 0.478012 -0.560957 0
M  V30 4189 H 405.591 0.625977 -1.79392 0
M  V30 4190 H 403.741 3.02072 -2.44305 0
M  V30 4191 H 405.413 1.31792 -4.42073 0
M  V30 4192 H 403.656 1.17268 -4.17649 0
M  V30 4193 H 404.327 2.66933 -4.83168 0
M  V30 4194 H 406.803 2.95793 -2.92653 0
M  V30 4195 H 405.679 4.20153 -3.53218 0
M  V30 4196 H 405.94 4.03665 -1.80296 0
M  V30 4197 N 404.999 1.35443 0.805782 0
M  V30 4198 C 406.224 1.32037 1.59941 0
M  V30 4199 C 406.649 -0.0994215 1.87837 0
M  V30 4200 O 406.007 -1.06648 1.46615 0
M  V30 4201 C 406.055 2.13354 2.90711 0
M  V30 4202 O 405.159 1.5148 3.83572 0
M  V30 4203 H 404.5 0.452666 0.485787 0
M  V30 4204 H 407.03 1.78496 1.00002 0
M  V30 4205 H 407.04 2.25338 3.40128 0
M  V30 4206 H 405.715 3.16572 2.69732 0
M  V30 4207 H 404.292 1.4834 3.42125 0
M  V30 4208 N 406.477 -1.02803 1.19454 0
M  V30 4209 C 407.754 -1.73299 0.907013 0
M  V30 4210 C 408.134 -2.02772 -0.587086 0
M  V30 4211 O 407.482 -1.68304 -1.54551 0
M  V30 4212 C 407.692 -3.00912 1.76785 0
M  V30 4213 C 409.04 -3.74403 2.00268 0
M  V30 4214 O 410.064 -3.10841 1.73943 0
M  V30 4215 O 408.923 -4.88675 2.4466 0
M  V30 4216 H 406.017 -0.754727 0.338106 0
M  V30 4217 H 408.563 -1.08754 1.30271 0
M  V30 4218 H 407.335 -2.75366 2.7801 0
M  V30 4219 H 406.958 -3.73197 1.37149 0
M  V30 4220 N 407.956 -0.998596 -1.21925 0
M  V30 4221 C 408.866 -0.562736 -2.27751 0
M  V30 4222 C 409.882 0.391203 -1.69545 0
M  V30 4223 O 411.058 0.256625 -1.99758 0
M  V30 4224 C 408.123 0.11012 -3.46525 0
M  V30 4225 C 407.184 -0.887495 -4.20026 0
M  V30 4226 C 406.417 -0.246654 -5.3313 0
M  V30 4227 O 406.64 0.958088 -5.62296 0
M  V30 4228 O 405.574 -0.954374 -5.94286 0
M  V30 4229 H 409.4 -1.44329 -2.67213 0
M  V30 4230 H 406.985 -0.767135 -1.28201 0
M  V30 4231 H 408.867 0.486756 -4.18579 0
M  V30 4232 H 407.542 0.965154 -3.08976 0
M  V30 4233 H 406.449 -1.31517 -3.5022 0
M  V30 4234 H 407.782 -1.71191 -4.6147 0
M  V30 4235 N 409.434 1.37368 -0.772513 0
M  V30 4236 C 410.664 2.03647 -0.348082 0
M  V30 4237 C 411.072 1.58392 1.03482 0
M  V30 4238 O 410.415 0.760921 1.672 0
M  V30 4239 C 410.477 3.58131 -0.313404 0
M  V30 4240 C 410.141 4.2652 -1.64102 0
M  V30 4241 C 411.138 4.50587 -2.5936 0
M  V30 4242 C 408.823 4.64335 -1.91567 0
M  V30 4243 C 410.817 5.11526 -3.80289 0
M  V30 4244 C 408.504 5.24996 -3.12766 0
M  V30 4245 C 409.502 5.48529 -4.06946 0
M  V30 4246 O 409.19 6.07921 -5.26011 0
M  V30 4247 H 408.922 0.660538 -0.143753 0
M  V30 4248 H 411.476 1.76669 -1.04772 0
M  V30 4249 H 409.706 3.84159 0.442617 0
M  V30 4250 H 411.395 4.05813 0.0840613 0
M  V30 4251 H 412.161 4.21784 -2.39423 0
M  V30 4252 H 408.04 4.45353 -1.19088 0
M  V30 4253 H 411.584 5.29811 -4.53813 0
M  V30 4254 H 407.481 5.53223 -3.32588 0
M  V30 4255 H 408.249 6.26398 -5.26847 0
M  V30 4256 N 410.912 0.523116 1.48665 0
M  V30 4257 C 412.16 -0.0134497 2.02096 0
M  V30 4258 C 412.481 -1.35418 1.40311 0
M  V30 4259 O 411.751 -1.87543 0.566074 0
M  V30 4260 H 410.331 -0.00795915 0.746958 0
M  V30 4261 H 412.993 0.685388 1.82451 0
M  V30 4262 H 412.089 -0.126849 3.11842 0
M  V30 4263 N 412.39 -1.55475 0.257931 0
M  V30 4264 C 413.618 -2.03609 -0.367559 0
M  V30 4265 C 414.033 -1.13687 -1.50734 0
M  V30 4266 O 413.39 -0.153479 -1.81853 0
M  V30 4267 C 413.441 -3.51001 -0.864908 0
M  V30 4268 O 413.162 -4.37499 0.229465 0
M  V30 4269 C 414.663 -4.14946 -1.55997 0
M  V30 4270 H 411.883 -0.665459 -0.0860521 0
M  V30 4271 H 414.427 -2.00843 0.385014 0
M  V30 4272 H 412.582 -3.54266 -1.56762 0
M  V30 4273 H 412.996 -5.24286 -0.14998 0
M  V30 4274 H 414.47 -5.19735 -1.85956 0
M  V30 4275 H 414.947 -3.6209 -2.4857 0
M  V30 4276 H 415.553 -4.15635 -0.901543 0
M  V30 4277 N 413.868 0.0150385 -1.57593 0
M  V30 4278 C 415.098 0.713359 -1.93894 0
M  V30 4279 C 415.506 1.68663 -0.857289 0
M  V30 4280 O 414.849 1.82876 0.173788 0
M  V30 4281 C 414.911 1.51348 -3.26089 0
M  V30 4282 C 414.575 0.703451 -4.51554 0
M  V30 4283 C 415.572 -0.00237924 -5.199 0
M  V30 4284 C 413.257 0.653854 -4.98026 0
M  V30 4285 C 415.251 -0.746955 -6.33008 0
M  V30 4286 C 412.938 -0.0944578 -6.11027 0
M  V30 4287 C 413.936 -0.793609 -6.78374 0
M  V30 4288 O 413.624 -1.52974 -7.89211 0
M  V30 4289 H 413.356 0.204637 -0.644282 0
M  V30 4290 H 415.91 -0.0276411 -2.05381 0
M  V30 4291 H 414.14 2.29862 -3.10967 0
M  V30 4292 H 415.829 2.09572 -3.47612 0
M  V30 4293 H 416.595 0.0268803 -4.84993 0
M  V30 4294 H 412.474 1.18756 -4.45441 0
M  V30 4295 H 416.018 -1.2932 -6.85509 0
M  V30 4296 H 411.915 -0.125591 -6.45378 0
M  V30 4297 H 412.683 -1.44488 -8.05646 0
M  V30 4298 N 415.346 1.54954 0.287554 0
M  V30 4299 C 416.623 1.65569 1.04146 0
M  V30 4300 C 417.003 0.512672 2.0478 0
M  V30 4301 O 416.351 -0.489038 2.23205 0
M  V30 4302 C 416.561 3.04163 1.71131 0
M  V30 4303 C 417.909 3.61429 2.22832 0
M  V30 4304 O 418.933 3.06702 1.81141 0
M  V30 4305 O 417.792 4.57281 2.9926 0
M  V30 4306 H 414.886 0.671881 0.482188 0
M  V30 4307 H 417.432 1.67297 0.28457 0
M  V30 4308 H 416.204 3.78796 0.981303 0
M  V30 4309 H 415.827 3.06271 2.53543 0
M  V30 4310 N 416.824 -0.551391 1.4764 0
M  V30 4311 C 418.054 -1.33163 1.57959 0
M  V30 4312 C 418.462 -1.87785 0.23094 0
M  V30 4313 O 417.805 -1.65996 -0.786825 0
M  V30 4314 C 417.867 -2.53449 2.54958 0
M  V30 4315 C 417.531 -2.20071 4.00522 0
M  V30 4316 C 418.528 -1.77017 4.88836 0
M  V30 4317 C 416.213 -2.31252 4.45901 0
M  V30 4318 C 418.207 -1.4558 6.20552 0
M  V30 4319 C 415.894 -1.99427 5.77644 0
M  V30 4320 C 416.892 -1.56659 6.64791 0
M  V30 4321 O 416.58 -1.25242 7.94084 0
M  V30 4322 H 416.312 -0.412022 0.535923 0
M  V30 4323 H 418.866 -0.674186 1.9402 0
M  V30 4324 H 417.096 -3.22104 2.13976 0
M  V30 4325 H 418.785 -3.15523 2.55343 0
M  V30 4326 H 419.551 -1.67867 4.55023 0
M  V30 4327 H 415.43 -2.63498 3.78272 0
M  V30 4328 H 418.974 -1.12125 6.8853 0
M  V30 4329 H 414.871 -2.08211 6.10998 0
M  V30 4330 H 415.639 -1.38822 8.06642 0
M  V30 4331 N 418.302 -1.35869 -0.798587 0
M  V30 4332 C 419.53 -1.32722 -1.58722 0
M  V30 4333 C 419.945 0.0935631 -1.88568 0
M  V30 4334 O 419.302 1.04784 -1.49421 0
M  V30 4335 C 419.353 -2.13974 -2.91371 0
M  V30 4336 O 419.074 -3.50514 -2.62815 0
M  V30 4337 C 420.575 -2.18504 -3.85708 0
M  V30 4338 H 417.795 -0.45562 -0.492596 0
M  V30 4339 H 420.339 -1.78837 -0.991843 0
M  V30 4340 H 418.494 -1.71438 -3.47402 0
M  V30 4341 H 418.908 -3.92806 -3.47568 0
M  V30 4342 H 420.382 -2.79732 -4.75872 0
M  V30 4343 H 420.859 -1.18597 -4.22885 0
M  V30 4344 H 421.465 -2.61236 -3.35612 0
M  V30 4345 N 419.78 1.02168 -1.19998 0
M  V30 4346 C 421.005 1.79833 -1.03319 0
M  V30 4347 C 421.43 1.83504 0.413281 0
M  V30 4348 O 420.788 1.26635 1.29743 0
M  V30 4349 C 420.836 3.22396 -1.61533 0
M  V30 4350 O 419.94 4.03555 -0.849519 0
M  V30 4351 H 419.281 0.554872 -0.364709 0
M  V30 4352 H 421.811 1.28542 -1.59179 0
M  V30 4353 H 421.821 3.73124 -1.65054 0
M  V30 4354 H 420.496 3.19039 -2.66809 0
M  V30 4355 H 419.073 3.62169 -0.888129 0
M  V30 4356 N 421.258 1.00505 1.21394 0
M  V30 4357 C 422.221 0.570459 2.21987 0
M  V30 4358 C 423.221 -0.353211 1.56873 0
M  V30 4359 O 424.411 -0.14349 1.73608 0
M  V30 4360 C 421.543 -0.168555 3.40483 0
M  V30 4361 H 422.736 1.46021 2.6195 0
M  V30 4362 H 420.289 0.793565 1.34656 0
M  V30 4363 H 421.024 -1.07374 3.06009 0
M  V30 4364 H 420.809 0.494823 3.88965 0
M  V30 4365 H 422.299 -0.460362 4.15055 0
M  V30 4366 N 422.737 -1.36956 0.779787 0
M  V30 4367 C 424.153 -1.52817 0.460342 0
M  V30 4368 C 424.353 -1.7361 -1.02283 0
M  V30 4369 O 423.409 -1.76207 -1.80852 0
M  V30 4370 C 424.722 -2.71983 1.28241 0
M  V30 4371 C 426.27 -2.85849 1.27512 0
M  V30 4372 C 426.745 -4.08008 2.08072 0
M  V30 4373 N 428.236 -4.15135 2.05467 0
M  V30 4374 C 428.971 -5.08711 2.64577 0
M  V30 4375 N 428.467 -6.07792 3.32506 0
M  V30 4376 N 430.26 -5.01254 2.54363 0
M  V30 4377 H 422.411 -1.21713 1.74068 0
M  V30 4378 H 424.674 -0.593294 0.739396 0
M  V30 4379 H 424.38 -2.63109 2.33381 0
M  V30 4380 H 424.254 -3.65882 0.917088 0
M  V30 4381 H 426.641 -2.94189 0.231686 0
M  V30 4382 H 426.722 -1.92886 1.68014 0
M  V30 4383 H 426.366 -4.00429 3.12441 0
M  V30 4384 H 426.296 -5.001 1.64947 0
M  V30 4385 H 428.787 -3.44189 1.5602 0
M  V30 4386 H 429.1 -6.75739 3.74963 0
M  V30 4387 H 427.445 -6.08047 3.36606 0
M  V30 4388 H 430.636 -4.22795 2.00902 0
M  V30 4389 H 430.809 -5.73995 3.00722 0
M  V30 4390 N 424.215 -0.530993 -1.48385 0
M  V30 4391 C 425.148 0.278511 -2.26494 0
M  V30 4392 C 426.126 0.943905 -1.32398 0
M  V30 4393 O 427.31 0.968098 -1.61741 0
M  V30 4394 C 424.437 1.39453 -3.08659 0
M  V30 4395 C 423.483 0.840434 -4.18137 0
M  V30 4396 S 424.316 -0.292496 -5.34701 0
M  V30 4397 C 425.472 0.825973 -6.20426 0
M  V30 4398 H 425.705 -0.384365 -2.94805 0
M  V30 4399 H 423.238 -0.316799 -1.51115 0
M  V30 4400 H 425.196 2.03382 -3.56575 0
M  V30 4401 H 423.857 2.02913 -2.3976 0
M  V30 4402 H 423.05 1.67769 -4.75257 0
M  V30 4403 H 422.652 0.277819 -3.72967 0
M  V30 4404 H 424.944 1.72438 -6.55188 0
M  V30 4405 H 425.887 0.292728 -7.07495 0
M  V30 4406 H 426.295 1.10683 -5.53543 0
M  V30 4407 N 425.693 1.55336 -0.266172 0
M  V30 4408 C 426.921 2.03801 0.356756 0
M  V30 4409 C 427.336 1.14485 1.50129 0
M  V30 4410 O 426.693 0.163121 1.8177 0
M  V30 4411 C 426.744 3.51455 0.846281 0
M  V30 4412 O 426.465 4.37371 -0.252663 0
M  V30 4413 C 427.966 4.15767 1.53794 0
M  V30 4414 H 425.186 0.665906 0.0825218 0
M  V30 4415 H 427.73 2.00636 -0.39566 0
M  V30 4416 H 425.885 3.55092 1.54881 0
M  V30 4417 H 426.299 5.24358 0.122173 0
M  V30 4418 H 427.773 5.20714 1.83198 0
M  V30 4419 H 428.25 3.63404 2.46646 0
M  V30 4420 H 428.856 4.16107 0.879488 0
M  V30 4421 N 427.171 -0.0066808 1.57599 0
M  V30 4422 C 428.399 -0.704087 1.94551 0
M  V30 4423 C 428.814 -1.67677 0.867746 0
M  V30 4424 O 428.171 -1.8185 -0.153925 0
M  V30 4425 C 428.222 -1.44177 3.31505 0
M  V30 4426 O 427.943 -0.508097 4.35144 0
M  V30 4427 C 429.444 -2.23429 3.82876 0
M  V30 4428 H 426.664 -0.196523 0.641576 0
M  V30 4429 H 429.208 0.042453 2.04456 0
M  V30 4430 H 427.363 -2.13999 3.22929 0
M  V30 4431 H 427.777 -1.02782 5.14331 0
M  V30 4432 H 429.251 -2.70552 4.8115 0
M  V30 4433 H 429.728 -3.05818 3.15233 0
M  V30 4434 H 430.334 -1.58636 3.94607 0
M  V30 4435 N 428.649 -1.55105 -0.279332 0
M  V30 4436 C 429.559 -1.90638 -1.36727 0
M  V30 4437 C 430.575 -0.802899 -1.54368 0
M  V30 4438 O 431.751 -1.10138 -1.68616 0
M  V30 4439 C 428.816 -2.16547 -2.70755 0
M  V30 4440 C 427.877 -3.40146 -2.61915 0
M  V30 4441 C 427.11 -3.6481 -3.8955 0
M  V30 4442 O 427.333 -2.92095 -4.89935 0
M  V30 4443 O 426.267 -4.58343 -3.90135 0
M  V30 4444 H 430.093 -2.83237 -1.09591 0
M  V30 4445 H 427.678 -1.4157 -0.477306 0
M  V30 4446 H 429.56 -2.34665 -3.50014 0
M  V30 4447 H 428.235 -1.27131 -2.9769 0
M  V30 4448 H 427.142 -3.2737 -1.81052 0
M  V30 4449 H 428.475 -4.29761 -2.3993 0
M  V30 4450 N 430.127 0.543554 -1.4793 0
M  V30 4451 C 431.375 1.29752 -1.54948 0
M  V30 4452 C 431.696 1.93764 -0.219242 0
M  V30 4453 O 430.966 1.80639 0.75805 0
M  V30 4454 H 429.546 0.481874 -0.570795 0
M  V30 4455 H 432.208 0.633636 -1.84312 0
M  V30 4456 H 431.304 2.08392 -2.32334 0
M  V30 4457 N 431.605 1.3629 0.791371 0
M  V30 4458 C 432.552 1.30458 1.90393 0
M  V30 4459 C 433.522 0.173632 1.6519 0
M  V30 4460 O 434.707 0.35983 1.87376 0
M  V30 4461 C 431.847 1.09777 3.27174 0
M  V30 4462 C 430.96 2.31929 3.64462 0
M  V30 4463 C 430.095 2.04276 4.90352 0
M  V30 4464 C 429.134 3.224 5.20312 0
M  V30 4465 N 428.271 2.94424 6.37385 0
M  V30 4466 H 433.111 2.25589 1.94714 0
M  V30 4467 H 430.648 1.12122 0.952216 0
M  V30 4468 H 432.606 0.958133 4.06049 0
M  V30 4469 H 431.236 0.183014 3.22281 0
M  V30 4470 H 430.288 2.56703 2.80727 0
M  V30 4471 H 431.6 3.20085 3.82553 0
M  V30 4472 H 430.754 1.87231 5.77087 0
M  V30 4473 H 429.493 1.13428 4.74326 0
M  V30 4474 H 428.498 3.40005 4.32061 0
M  V30 4475 H 429.723 4.14071 5.38258 0
M  V30 4476 H 427.669 2.06185 6.22755 0
M  V30 4477 H 427.586 3.76118 6.55798 0
M  V30 4478 H 428.854 2.80953 7.27108 0
M  V30 4479 N 433.083 -1.0153 1.20538 0
M  V30 4480 C 434.33 -1.75149 1.01633 0
M  V30 4481 C 434.658 -1.89189 -0.451399 0
M  V30 4482 O 433.913 -1.41551 -1.35136 0
M  V30 4483 C 434.212 -3.17213 1.64654 0
M  V30 4484 C 433.878 -3.23146 3.14464 0
M  V30 4485 C 432.54 -3.24472 3.55347 0
M  V30 4486 C 434.892 -3.21207 4.10458 0
M  V30 4487 C 432.22 -3.21532 4.90748 0
M  V30 4488 C 434.572 -3.19808 5.45807 0
M  V30 4489 C 433.236 -3.19439 5.86102 0
M  V30 4490 H 432.506 -0.640914 0.3719 0
M  V30 4491 H 435.153 -1.19071 1.49981 0
M  V30 4492 H 433.458 -3.76457 1.08571 0
M  V30 4493 H 435.155 -3.72871 1.4754 0
M  V30 4494 H 431.745 -3.2285 2.81897 0
M  V30 4495 H 435.929 -3.19351 3.79906 0
M  V30 4496 H 431.185 -3.19578 5.21229 0
M  V30 4497 H 435.359 -3.1726 6.19935 0
M  V30 4498 H 432.986 -3.16915 6.90991 0
M  V30 4499 N 434.561 -1.01147 -1.20859 0
M  V30 4500 C 435.471 -0.58686 -2.27141 0
M  V30 4501 C 436.487 0.373198 -1.69951 0
M  V30 4502 O 437.663 0.235423 -2.00019 0
M  V30 4503 C 434.728 0.0733602 -3.46622 0
M  V30 4504 C 433.789 -0.931995 -4.19061 0
M  V30 4505 C 433.022 -0.303186 -5.32838 0
M  V30 4506 O 433.245 0.898395 -5.63281 0
M  V30 4507 O 432.179 -1.01735 -5.9324 0
M  V30 4508 H 436.005 -1.47155 -2.65667 0
M  V30 4509 H 433.59 -0.780689 -1.2738 0
M  V30 4510 H 435.472 0.442333 -4.19072 0
M  V30 4511 H 434.147 0.932329 -3.09983 0
M  V30 4512 H 433.054 -1.35224 -3.48805 0
M  V30 4513 H 434.387 -1.76076 -4.59628 0
M  V30 4514 N 436.039 1.36541 -0.78704 0
M  V30 4515 C 437.288 1.98552 -0.35494 0
M  V30 4516 C 437.601 1.63171 1.07864 0
M  V30 4517 O 438.807 2.18399 1.61289 0
M  V30 4518 C 437.263 3.55136 -0.583671 0
M  V30 4519 C 436.871 3.99444 -2.02851 0
M  V30 4520 C 438.615 4.2395 -0.215957 0
M  V30 4521 C 436.522 5.48796 -2.20403 0
M  V30 4522 H 435.452 0.742888 -0.128972 0
M  V30 4523 H 438.103 1.5587 -0.968337 0
M  V30 4524 H 436.485 3.95875 0.0994046 0
M  V30 4525 H 437.659 3.6991 -2.74779 0
M  V30 4526 H 435.974 3.43459 -2.35425 0
M  V30 4527 H 438.571 5.33709 -0.325405 0
M  V30 4528 H 438.914 4.07827 0.835646 0
M  V30 4529 H 439.447 3.88565 -0.852175 0
M  V30 4530 H 436.186 5.69864 -3.23937 0
M  V30 4531 H 435.706 5.79964 -1.52977 0
M  V30 4532 H 437.385 6.14986 -2.01002 0
M  V30 4533 N 437.518 0.538854 1.48102 0
M  V30 4534 C 438.465 -0.219042 2.29758 0
M  V30 4535 C 439.435 -0.925562 1.37922 0
M  V30 4536 O 440.62 -0.924855 1.66886 0
M  V30 4537 C 437.76 -1.25452 3.2149 0
M  V30 4538 C 436.873 -0.555943 4.28408 0
M  V30 4539 C 436.008 -1.57512 5.0731 0
M  V30 4540 C 435.047 -0.860498 6.06021 0
M  V30 4541 N 434.184 -1.82564 6.77949 0
M  V30 4542 H 439.024 0.483449 2.94052 0
M  V30 4543 H 436.561 0.250247 1.44956 0
M  V30 4544 H 438.519 -1.86727 3.7308 0
M  V30 4545 H 437.149 -1.92528 2.591 0
M  V30 4546 H 436.201 0.170938 3.80016 0
M  V30 4547 H 437.513 0.00474616 4.988 0
M  V30 4548 H 436.667 -2.26191 5.62959 0
M  V30 4549 H 435.406 -2.16972 4.36778 0
M  V30 4550 H 434.411 -0.159686 5.49568 0
M  V30 4551 H 435.636 -0.271897 6.78555 0
M  V30 4552 H 433.582 -2.40915 6.10161 0
M  V30 4553 H 433.499 -1.31662 7.44447 0
M  V30 4554 H 434.767 -2.50414 7.38182 0
M  V30 4555 N 438.996 -1.55193 0.274407 0
M  V30 4556 C 440.226 -2.03692 -0.345442 0
M  V30 4557 C 440.634 -1.15224 -1.50067 0
M  V30 4558 O 439.977 -0.164749 -1.8296 0
M  V30 4559 C 440.039 -3.48325 -0.88939 0
M  V30 4560 C 439.703 -4.56794 0.137115 0
M  V30 4561 C 440.7 -5.11028 0.956378 0
M  V30 4562 C 438.385 -5.01568 0.27115 0
M  V30 4563 C 440.379 -6.08552 1.89587 0
M  V30 4564 C 438.066 -5.98918 1.21412 0
M  V30 4565 C 439.064 -6.52291 2.02498 0
M  V30 4566 O 438.752 -7.47738 2.952 0
M  V30 4567 H 438.484 -0.670893 -0.0829332 0
M  V30 4568 H 441.038 -2.01387 0.404056 0
M  V30 4569 H 439.268 -3.47867 -1.68895 0
M  V30 4570 H 440.957 -3.80167 -1.42225 0
M  V30 4571 H 441.723 -4.7725 0.863559 0
M  V30 4572 H 437.602 -4.5967 -0.349987 0
M  V30 4573 H 441.146 -6.50137 2.52918 0
M  V30 4574 H 437.043 -6.32114 1.30776 0
M  V30 4575 H 437.811 -7.65451 2.89874 0
M  V30 4576 N 440.474 -0.00167713 -1.576 0
M  V30 4577 C 441.722 0.681471 -1.90264 0
M  V30 4578 C 442.043 1.7422 -0.875924 0
M  V30 4579 O 441.313 1.95709 0.0864412 0
M  V30 4580 H 439.893 0.254696 -0.702239 0
M  V30 4581 H 442.555 -0.0429996 -1.94853 0
M  V30 4582 H 441.651 1.15166 -2.90075 0
M  V30 4583 N 441.952 1.55251 0.271103 0
M  V30 4584 C 442.899 1.88261 1.33516 0
M  V30 4585 C 443.869 0.734296 1.48988 0
M  V30 4586 O 445.054 0.985741 1.63364 0
M  V30 4587 C 442.194 2.16168 2.69008 0
M  V30 4588 C 441.307 3.43678 2.61743 0
M  V30 4589 C 440.442 3.61276 3.89427 0
M  V30 4590 C 439.481 4.82472 3.7668 0
M  V30 4591 N 438.618 4.96717 4.96202 0
M  V30 4592 H 443.458 2.79015 1.04665 0
M  V30 4593 H 440.995 1.38137 0.505618 0
M  V30 4594 H 442.953 2.30349 3.47844 0
M  V30 4595 H 441.583 1.28646 2.96057 0
M  V30 4596 H 440.635 3.37959 1.74607 0
M  V30 4597 H 441.947 4.3265 2.48224 0
M  V30 4598 H 441.101 3.75284 4.76704 0
M  V30 4599 H 439.84 2.70492 4.05814 0
M  V30 4600 H 438.845 4.68465 2.87786 0
M  V30 4601 H 440.07 5.74692 3.61809 0
M  V30 4602 H 438.016 4.08865 5.12997 0
M  V30 4603 H 437.933 5.79738 4.85222 0
M  V30 4604 H 439.201 5.15113 5.85046 0
M  V30 4605 N 443.43 -0.535701 1.48216 0
M  V30 4606 C 444.679 -1.28828 1.55197 0
M  V30 4607 C 444.992 -1.94263 0.228278 0
M  V30 4608 O 446.198 -2.70927 0.176278 0
M  V30 4609 C 444.654 -2.33727 2.73678 0
M  V30 4610 C 444.262 -1.74386 4.12666 0
M  V30 4611 C 446.006 -3.1003 2.89968 0
M  V30 4612 C 443.913 -2.77192 5.22416 0
M  V30 4613 H 442.843 -0.484484 0.577747 0
M  V30 4614 H 445.494 -0.56646 1.74538 0
M  V30 4615 H 443.876 -3.08919 2.4776 0
M  V30 4616 H 445.05 -1.05421 4.48579 0
M  V30 4617 H 443.365 -1.10595 4.01445 0
M  V30 4618 H 445.962 -3.86842 3.6913 0
M  V30 4619 H 446.305 -3.65542 1.9921 0
M  V30 4620 H 446.838 -2.41952 3.15759 0
M  V30 4621 H 443.577 -2.26507 6.15122 0
M  V30 4622 H 443.097 -3.44502 4.90998 0
M  V30 4623 H 444.776 -3.40285 5.50286 0
M  V30 4624 N 444.908 -1.36708 -0.784132 0
M  V30 4625 C 445.818 -1.3363 -1.92822 0
M  V30 4626 C 446.834 -0.237686 -1.72369 0
M  V30 4627 O 448.01 -0.470962 -1.95816 0
M  V30 4628 C 445.075 -1.13011 -3.27764 0
M  V30 4629 C 444.136 -2.32397 -3.60957 0
M  V30 4630 C 443.369 -2.12752 -4.89461 0
M  V30 4631 O 443.592 -1.10541 -5.59586 0
M  V30 4632 O 442.526 -3.00653 -5.21432 0
M  V30 4633 H 446.352 -2.29964 -1.98369 0
M  V30 4634 H 443.937 -1.1731 -0.925136 0
M  V30 4635 H 445.819 -1.03451 -4.08504 0
M  V30 4636 H 444.494 -0.19743 -3.23097 0
M  V30 4637 H 443.401 -2.47527 -2.80502 0
M  V30 4638 H 444.734 -3.2419 -3.70354 0
M  V30 4639 N 446.386 1.0089 -1.21074 0
M  V30 4640 C 447.635 1.74019 -1.01981 0
M  V30 4641 C 447.948 1.90408 0.447665 0
M  V30 4642 O 449.154 2.60707 0.757906 0
M  V30 4643 C 447.61 3.13026 -1.77603 0
M  V30 4644 C 447.218 3.04623 -3.28495 0
M  V30 4645 C 448.962 3.90312 -1.66904 0
M  V30 4646 C 446.869 4.38685 -3.96623 0
M  V30 4647 H 445.799 0.652422 -0.377971 0
M  V30 4648 H 448.45 1.12755 -1.44771 0
M  V30 4649 H 446.832 3.74878 -1.27604 0
M  V30 4650 H 448.006 2.52032 -3.85767 0
M  V30 4651 H 446.321 2.40827 -3.39693 0
M  V30 4652 H 448.918 4.8951 -2.15138 0
M  V30 4653 H 449.261 4.11558 -0.62658 0
M  V30 4654 H 449.794 3.35104 -2.14359 0
M  V30 4655 H 446.533 4.22641 -5.01054 0
M  V30 4656 H 446.053 4.91252 -3.4414 0
M  V30 4657 H 447.732 5.075 -4.01314 0
M  V30 4658 N 447.864 1.01787 1.20321 0
M  V30 4659 C 449.28 0.732951 1.41774 0
M  V30 4660 C 449.48 -0.686883 1.89431 0
M  V30 4661 O 448.536 -1.45446 2.06402 0
M  V30 4662 C 449.849 1.75973 2.43832 0
M  V30 4663 C 451.397 1.77802 2.57596 0
M  V30 4664 C 451.872 2.7941 3.62897 0
M  V30 4665 N 453.363 2.78157 3.70382 0
M  V30 4666 C 454.098 3.53434 4.51521 0
M  V30 4667 N 453.594 4.38392 5.36455 0
M  V30 4668 N 455.387 3.42026 4.46066 0
M  V30 4669 H 447.538 1.93447 0.877035 0
M  V30 4670 H 449.801 0.835712 0.447536 0
M  V30 4671 H 449.507 2.77699 2.15815 0
M  V30 4672 H 449.381 1.57292 3.4284 0
M  V30 4673 H 451.768 0.767602 2.84942 0
M  V30 4674 H 451.849 2.00557 1.58779 0
M  V30 4675 H 451.493 3.80616 3.36295 0
M  V30 4676 H 451.423 2.53916 4.61339 0
M  V30 4677 H 453.914 2.16531 3.09714 0
M  V30 4678 H 454.227 4.92596 5.95457 0
M  V30 4679 H 452.572 4.4247 5.35953 0
M  V30 4680 H 455.763 2.75075 3.78749 0
M  V30 4681 H 455.936 4.00946 5.09064 0
M  V30 4682 N 449.342 -1.36122 0.79427 0
M  V30 4683 C 450.305 -2.28309 0.201889 0
M  V30 4684 C 451.305 -1.49041 -0.603603 0
M  V30 4685 O 452.495 -1.68964 -0.423888 0
M  V30 4686 C 449.627 -3.3321 -0.719978 0
M  V30 4687 H 450.82 -2.82208 1.01481 0
M  V30 4688 H 448.373 -1.45768 0.564037 0
M  V30 4689 H 449.108 -2.84475 -1.55706 0
M  V30 4690 H 448.893 -3.91835 -0.144266 0
M  V30 4691 H 450.383 -4.02044 -1.12916 0
M  V30 4692 N 450.82 -0.546701 -1.47814 0
M  V30 4693 C 451.767 0.206854 -2.29871 0
M  V30 4694 C 452.737 0.918235 -1.38411 0
M  V30 4695 O 453.922 0.915991 -1.67375 0
M  V30 4696 C 451.062 1.23746 -3.22151 0
M  V30 4697 C 450.175 0.533216 -4.28697 0
M  V30 4698 C 449.31 1.5482 -5.08138 0
M  V30 4699 C 448.349 0.828347 -6.06469 0
M  V30 4700 N 447.486 1.78966 -6.78908 0
M  V30 4701 H 452.326 -0.499037 -2.93792 0
M  V30 4702 H 449.863 -0.25793 -1.44821 0
M  V30 4703 H 451.821 1.84746 -3.74065 0
M  V30 4704 H 450.451 1.91151 -2.60117 0
M  V30 4705 H 449.503 -0.191089 -3.7992 0
M  V30 4706 H 450.815 -0.0311987 -4.9879 0
M  V30 4707 H 449.969 2.23202 -5.6415 0
M  V30 4708 H 448.708 2.14652 -4.37922 0
M  V30 4709 H 447.713 0.130539 -5.49645 0
M  V30 4710 H 448.938 0.235907 -6.7869 0
M  V30 4711 H 446.884 2.37675 -6.1143 0
M  V30 4712 H 446.801 1.27712 -7.45135 0
M  V30 4713 H 448.069 2.46496 -7.395 0
M  V30 4714 N 452.299 1.55045 -0.282633 0
M  V30 4715 C 453.229 2.2579 0.595066 0
M  V30 4716 C 454.21 1.25074 1.15284 0
M  V30 4717 O 455.395 1.5381 1.18559 0
M  V30 4718 C 452.525 2.98472 1.77572 0
M  V30 4719 C 451.479 4.0618 1.34914 0
M  V30 4720 C 450.805 4.66477 2.6135 0
M  V30 4721 C 452.105 5.1996 0.493821 0
M  V30 4722 H 453.799 2.994 0.00505653 0
M  V30 4723 H 451.345 1.44 0.000992001 0
M  V30 4724 H 453.298 3.46677 2.39568 0
M  V30 4725 H 452.022 2.2241 2.39168 0
M  V30 4726 H 450.681 3.58797 0.752338 0
M  V30 4727 H 450.329 3.87074 3.2122 0
M  V30 4728 H 450.029 5.39207 2.33516 0
M  V30 4729 H 451.553 5.17435 3.24181 0
M  V30 4730 H 452.967 5.64172 1.01898 0
M  V30 4731 H 451.364 5.99299 0.310047 0
M  V30 4732 H 452.434 4.82462 -0.485593 0
M  V30 4733 N 453.777 0.010035 1.57597 0
M  V30 4734 C 455.188 -0.531426 1.78977 0
M  V30 4735 C 455.539 -1.73375 0.918454 0
M  V30 4736 O 454.664 -2.16047 0.123635 0
M  V30 4737 C 455.259 -0.97086 3.24592 0
M  V30 4738 C 453.818 -1.45756 3.47033 0
M  V30 4739 C 452.965 -0.413384 2.74201 0
M  V30 4740 H 455.916 0.236166 1.56933 0
M  V30 4741 H 455.937 -1.83633 3.33255 0
M  V30 4742 H 455.449 -0.0955893 3.87982 0
M  V30 4743 H 453.55 -2.35339 2.88871 0
M  V30 4744 H 453.663 -1.4781 4.55729 0
M  V30 4745 H 452.027 -0.877266 2.39115 0
M  V30 4746 H 452.81 0.453092 3.40297 0
M  V30 4747 N 455.255 -1.55392 -0.262866 0
M  V30 4748 C 456.202 -1.88966 -1.32516 0
M  V30 4749 C 457.172 -0.742187 -1.48596 0
M  V30 4750 O 458.357 -0.99439 -1.62839 0
M  V30 4751 C 455.497 -2.17592 -2.67858 0
M  V30 4752 C 454.61 -3.45061 -2.59917 0
M  V30 4753 C 453.745 -3.63336 -3.87505 0
M  V30 4754 C 452.784 -4.84462 -3.74116 0
M  V30 4755 N 451.921 -4.99342 -4.93561 0
M  V30 4756 H 456.761 -2.79566 -1.03184 0
M  V30 4757 H 454.298 -1.38404 -0.498285 0
M  V30 4758 H 456.256 -2.3219 -3.46617 0
M  V30 4759 H 454.886 -1.30215 -2.95371 0
M  V30 4760 H 453.938 -3.38881 -1.72812 0
M  V30 4761 H 455.25 -4.3396 -2.45926 0
M  V30 4762 H 454.404 -3.77807 -4.74707 0
M  V30 4763 H 453.143 -2.72641 -4.04374 0
M  V30 4764 H 452.148 -4.69985 -2.85297 0
M  V30 4765 H 453.373 -5.76603 -3.58757 0
M  V30 4766 H 451.319 -4.1158 -5.10821 0
M  V30 4767 H 451.236 -5.82303 -4.82141 0
M  V30 4768 H 452.504 -5.18208 -5.82306 0
M  V30 4769 N 456.733 0.527833 -1.48498 0
M  V30 4770 C 457.981 1.28101 -1.56316 0
M  V30 4771 C 458.302 1.9352 -0.239781 0
M  V30 4772 O 457.572 1.81433 0.738849 0
M  V30 4773 H 456.152 0.475793 -0.575873 0
M  V30 4774 H 458.814 0.614052 -1.84974 0
M  V30 4775 H 457.91 2.05916 -2.34532 0
M  V30 4776 N 458.211 1.37122 0.776871 0
M  V30 4777 C 459.158 1.3247 1.88998 0
M  V30 4778 C 460.128 0.191143 1.64997 0
M  V30 4779 O 461.313 0.379683 1.86984 0
M  V30 4780 C 458.453 1.13241 3.25992 0
M  V30 4781 C 457.566 2.35782 3.61982 0
M  V30 4782 C 456.701 2.09465 4.88158 0
M  V30 4783 C 455.74 3.279 5.16864 0
M  V30 4784 N 454.877 3.01167 6.34226 0
M  V30 4785 H 459.717 2.27642 1.9231 0
M  V30 4786 H 457.254 1.13125 0.94027 0
M  V30 4787 H 459.212 1.00115 4.0501 0
M  V30 4788 H 457.842 0.217186 3.22069 0
M  V30 4789 H 456.894 2.59666 2.77989 0
M  V30 4790 H 458.206 3.24125 3.79137 0
M  V30 4791 H 457.36 1.93341 5.75069 0
M  V30 4792 H 456.099 1.18452 4.73097 0
M  V30 4793 H 455.104 3.44569 4.2843 0
M  V30 4794 H 456.329 4.19757 5.33836 0
M  V30 4795 H 454.275 2.12779 6.20533 0
M  V30 4796 H 454.192 3.83052 6.51772 0
M  V30 4797 H 455.46 2.88649 7.24087 0
M  V30 4798 N 459.689 -1.00246 1.21608 0
M  V30 4799 C 460.937 -1.73717 1.0328 0
M  V30 4800 C 461.258 -1.90102 -0.434318 0
M  V30 4801 O 460.528 -1.45376 -1.31311 0
M  V30 4802 H 459.108 -0.643613 0.379172 0
M  V30 4803 H 461.77 -1.20787 1.52959 0
M  V30 4804 H 460.866 -2.73535 1.50283 0
M  V30 4805 N 461.167 -1.02423 -1.1978 0
M  V30 4806 C 462.416 -0.713265 -1.88667 0
M  V30 4807 C 462.729 0.7609 -1.80193 0
M  V30 4808 O 463.935 1.18473 -2.44288 0
M  V30 4809 C 462.391 -1.22545 -3.38394 0
M  V30 4810 C 461.999 -2.72706 -3.55437 0
M  V30 4811 C 463.743 -0.990257 -4.12788 0
M  V30 4812 C 461.65 -3.17367 -4.99031 0
M  V30 4813 H 460.58 -0.263105 -0.706606 0
M  V30 4814 H 463.231 -1.23792 -1.35454 0
M  V30 4815 H 461.613 -0.628732 -3.90977 0
M  V30 4816 H 462.787 -3.37993 -3.13205 0
M  V30 4817 H 461.102 -2.94453 -2.94425 0
M  V30 4818 H 463.699 -1.29926 -5.18675 0
M  V30 4819 H 464.042 0.0730761 -4.16236 0
M  V30 4820 H 464.575 -1.55074 -3.66329 0
M  V30 4821 H 461.314 -4.23009 -5.00743 0
M  V30 4822 H 460.834 -2.56805 -5.42044 0
M  V30 4823 H 462.513 -3.10441 -5.67658 0
M  V30 4824 N 462.645 1.35699 -0.801477 0
M  V30 4825 C 463.891 1.99643 -0.389135 0
M  V30 4826 C 464.246 1.62447 1.03095 0
M  V30 4827 O 463.539 0.875064 1.7045 0
M  V30 4828 C 463.733 3.53828 -0.504041 0
M  V30 4829 C 463.562 4.06 -1.93375 0
M  V30 4830 C 462.332 4.35592 -2.561 0
M  V30 4831 C 464.53 4.24905 -2.89759 0
M  V30 4832 N 462.512 4.73663 -3.90534 0
M  V30 4833 C 463.883 4.65914 -4.09052 0
M  V30 4834 C 465.938 4.07101 -2.86658 0
M  V30 4835 C 464.641 4.90984 -5.25669 0
M  V30 4836 C 466.667 4.33324 -4.02472 0
M  V30 4837 C 466.029 4.74601 -5.20512 0
M  V30 4838 H 462.128 0.758552 -0.19006 0
M  V30 4839 H 464.712 1.64493 -1.04164 0
M  V30 4840 H 462.883 3.88219 0.118437 0
M  V30 4841 H 464.615 4.04645 -0.0667794 0
M  V30 4842 H 461.37 4.25728 -2.07492 0
M  V30 4843 H 461.794 4.96965 -4.59734 0
M  V30 4844 H 466.436 3.74335 -1.96552 0
M  V30 4845 H 464.154 5.22626 -6.1635 0
M  V30 4846 H 467.74 4.21107 -4.01447 0
M  V30 4847 H 466.62 4.94497 -6.08639 0
M  V30 4848 N 464.123 0.554532 1.47522 0
M  V30 4849 C 465.534 0.120446 1.86311 0
M  V30 4850 C 465.885 -1.30904 1.46145 0
M  V30 4851 O 465.01 -1.98434 0.863294 0
M  V30 4852 C 465.605 0.211808 3.38137 0
M  V30 4853 C 464.164 -0.167224 3.76028 0
M  V30 4854 C 463.311 0.560576 2.71575 0
M  V30 4855 H 466.262 0.764408 1.39077 0
M  V30 4856 H 466.283 -0.570275 3.76202 0
M  V30 4857 H 465.795 1.25232 3.6734 0
M  V30 4858 H 463.896 -1.20894 3.52442 0
M  V30 4859 H 464.009 0.189473 4.78725 0
M  V30 4860 H 462.373 0.00396836 2.547 0
M  V30 4861 H 463.156 1.60219 3.0362 0
M  V30 4862 N 465.601 -1.54893 0.290851 0
M  V30 4863 C 466.564 -2.21824 -0.576784 0
M  V30 4864 C 467.564 -1.20104 -1.06919 0
M  V30 4865 O 468.754 -1.44906 -0.966843 0
M  V30 4866 C 465.886 -2.89662 -1.79747 0
M  V30 4867 H 467.079 -2.99899 0.00784051 0
M  V30 4868 H 464.632 -1.56245 0.0415934 0
M  V30 4869 H 465.367 -2.15639 -2.42219 0
M  V30 4870 H 465.152 -3.64219 -1.45214 0
M  V30 4871 H 466.642 -3.4075 -2.4141 0
M  V30 4872 N 467.08 -0.0183926 -1.57589 0
M  V30 4873 C 468.01 0.965596 -2.12599 0
M  V30 4874 C 468.991 1.34641 -1.0395 0
M  V30 4875 O 470.176 1.42693 -1.31729 0
M  V30 4876 C 467.306 2.25149 -2.64434 0
M  V30 4877 C 466.26 2.01175 -3.77773 0
M  V30 4878 C 465.586 3.35937 -4.15994 0
M  V30 4879 C 466.886 1.35953 -5.04296 0
M  V30 4880 H 468.58 0.507504 -2.95067 0
M  V30 4881 H 466.126 0.242671 -1.41941 0
M  V30 4882 H 468.079 2.94357 -3.01549 0
M  V30 4883 H 466.803 2.73105 -1.79112 0
M  V30 4884 H 465.462 1.34388 -3.4108 0
M  V30 4885 H 465.11 3.81631 -3.27669 0
M  V30 4886 H 464.81 3.20705 -4.92364 0
M  V30 4887 H 466.334 4.0643 -4.55683 0
M  V30 4888 H 467.748 1.95144 -5.39065 0
M  V30 4889 H 466.145 1.31152 -5.85593 0
M  V30 4890 H 467.215 0.331071 -4.83768 0
M  V30 4891 N 468.558 1.5553 0.254621 0
M  V30 4892 C 469.804 1.7818 0.980989 0
M  V30 4893 C 470.159 0.586059 1.83257 0
M  V30 4894 O 469.452 -0.420889 1.8692 0
M  V30 4895 C 469.646 3.03891 1.88109 0
M  V30 4896 C 469.475 4.35578 1.11812 0
M  V30 4897 C 468.245 4.98497 0.826343 0
M  V30 4898 C 470.443 5.11869 0.499486 0
M  V30 4899 N 468.425 6.13888 0.0385095 0
M  V30 4900 C 469.796 6.1981 -0.153292 0
M  V30 4901 C 471.851 4.96216 0.409175 0
M  V30 4902 C 470.554 7.13801 -0.8877 0
M  V30 4903 C 472.58 5.90578 -0.311683 0
M  V30 4904 C 471.942 6.97922 -0.953129 0
M  V30 4905 H 468.041 0.704057 0.340335 0
M  V30 4906 H 470.625 1.93025 0.254855 0
M  V30 4907 H 468.796 2.90389 2.57932 0
M  V30 4908 H 470.528 3.14869 2.54244 0
M  V30 4909 H 467.283 4.59769 1.13621 0
M  V30 4910 H 467.707 6.76129 -0.343275 0
M  V30 4911 H 472.349 4.1331 0.890765 0
M  V30 4912 H 470.067 7.96214 -1.38092 0
M  V30 4913 H 473.653 5.80544 -0.382125 0
M  V30 4914 H 472.533 7.69681 -1.50203 0
M  V30 4915 N 470.036 -0.519951 1.48776 0
M  V30 4916 C 470.969 -1.64053 1.58625 0
M  V30 4917 C 471.947 -1.5664 0.43618 0
M  V30 4918 O 473.131 -1.76969 0.649159 0
M  V30 4919 C 470.258 -3.02497 1.52359 0
M  V30 4920 C 469.304 -3.28235 2.72331 0
M  V30 4921 S 470.137 -3.13414 4.34203 0
M  V30 4922 C 471.293 -4.54287 4.30551 0
M  V30 4923 H 471.526 -1.5545 2.53422 0
M  V30 4924 H 469.059 -0.703681 1.37433 0
M  V30 4925 H 471.017 -3.82336 1.4943 0
M  V30 4926 H 469.678 -3.08531 0.588824 0
M  V30 4927 H 468.871 -4.29256 2.64113 0
M  V30 4928 H 468.473 -2.56085 2.72574 0
M  V30 4929 H 470.765 -5.46006 4.01103 0
M  V30 4930 H 471.708 -4.67558 5.31785 0
M  V30 4931 H 472.116 -4.34079 3.60881 0
M  V30 4932 N 471.514 -1.37532 -0.769588 0
M  V30 4933 C 472.444 -1.36172 -1.89682 0
M  V30 4934 C 473.425 -0.23001 -1.68538 0
M  V30 4935 O 474.61 -0.43069 -1.89364 0
M  V30 4936 C 471.74 -1.1701 -3.26995 0
M  V30 4937 C 470.694 -2.27216 -3.62708 0
M  V30 4938 C 470.02 -1.93174 -4.98586 0
M  V30 4939 C 471.32 -3.6941 -3.69234 0
M  V30 4940 H 473.014 -2.30499 -1.91078 0
M  V30 4941 H 470.56 -1.10953 -0.917902 0
M  V30 4942 H 472.513 -1.14688 -4.05493 0
M  V30 4943 H 471.237 -0.191395 -3.26039 0
M  V30 4944 H 469.896 -2.28697 -2.86519 0
M  V30 4945 H 469.544 -0.938281 -4.94171 0
M  V30 4946 H 469.244 -2.66973 -5.23449 0
M  V30 4947 H 470.768 -1.92443 -5.79481 0
M  V30 4948 H 472.182 -3.70047 -4.37879 0
M  V30 4949 H 470.579 -4.4228 -4.05597 0
M  V30 4950 H 471.649 -4.0288 -2.69844 0
M  V30 4951 N 472.992 0.995999 -1.22138 0
M  V30 4952 C 474.24 1.73167 -1.042 0
M  V30 4953 C 474.561 1.90329 0.42423 0
M  V30 4954 O 473.831 1.4607 1.30539 0
M  V30 4955 H 472.411 0.641593 -0.38258 0
M  V30 4956 H 475.073 1.19974 -1.53598 0
M  V30 4957 H 474.169 2.72734 -1.51731 0
M  V30 4958 N 474.47 1.03057 1.19235 0
M  V30 4959 C 475.418 0.606391 2.24557 0
M  V30 4960 C 476.412 -0.361826 1.65491 0
M  V30 4961 O 477.618 -0.23022 1.78522 0
M  V30 4962 H 473.993 0.177838 0.730669 0
M  V30 4963 H 475.964 1.50529 2.5765 0
M  V30 4964 C 474.713 -0.0252127 3.47691 0
M  V30 4965 H 474.036 0.710838 3.9343 0
M  V30 4966 H 475.476 -0.284931 4.23042 0
M  V30 4967 C 473.935 -1.27229 3.11953 0
M  V30 4968 O 474.465 -2.36416 3.24762 0
M  V30 4969 N 472.671 -1.16169 2.6637 0
M  V30 4970 H 472.218 -0.273189 2.56147 0
M  V30 4971 H 472.176 -1.99703 2.42829 0
M  V30 4972 N 475.948 -1.35272 0.808662 0
M  V30 4973 C 476.896 -2.31663 0.208606 0
M  V30 4974 C 477.89 -1.56731 -0.642778 0
M  V30 4975 O 479.096 -1.71843 -0.53571 0
M  V30 4976 H 475.471 -0.750421 0.0486993 0
M  V30 4977 H 477.442 -2.79814 1.03666 0
M  V30 4978 C 476.191 -3.42008 -0.626573 0
M  V30 4979 H 475.514 -3.99795 0.0192103 0
M  V30 4980 H 476.954 -4.11727 -1.01278 0
M  V30 4981 C 475.413 -2.85226 -1.79298 0
M  V30 4982 O 475.943 -2.78945 -2.89055 0
M  V30 4983 N 474.149 -2.42245 -1.60516 0
M  V30 4984 H 473.696 -2.47554 -0.712375 0
M  V30 4985 H 473.654 -2.04603 -2.38715 0
M  V30 4986 N 477.426 -0.562348 -1.47226 0
M  V30 4987 C 478.675 -0.038041 -2.01664 0
M  V30 4988 C 478.988 1.32199 -1.44162 0
M  V30 4989 O 480.194 1.9365 -1.90294 0
M  V30 4990 C 478.65 -0.0174958 -3.59896 0
M  V30 4991 C 478.258 -1.3746 -4.2639 0
M  V30 4992 C 480.002 0.453934 -4.22066 0
M  V30 4993 C 477.909 -1.31289 -5.76643 0
M  V30 4994 H 476.839 -0.0104511 -0.753928 0
M  V30 4995 H 479.49 -0.710966 -1.69167 0
M  V30 4996 H 477.872 0.721182 -3.89378 0
M  V30 4997 H 479.046 -2.1314 -4.08544 0
M  V30 4998 H 477.361 -1.78438 -3.7623 0
M  V30 4999 H 479.958 0.518584 -5.32179 0
M  V30 5000 H 480.301 1.46706 -3.89594 0
M  V30 5001 H 480.834 -0.230044 -3.97134 0
M  V30 5002 H 477.573 -2.30217 -6.13743 0
M  V30 5003 H 477.093 -0.597973 -5.96812 0
M  V30 5004 H 478.772 -1.01713 -6.38955 0
M  V30 5005 N 478.904 1.54736 -0.299062 0
M  V30 5006 C 480.152 1.99706 0.31017 0
M  V30 5007 C 480.473 1.18896 1.54559 0
M  V30 5008 O 479.743 0.284445 1.93824 0
M  V30 5009 H 478.323 0.737686 0.117596 0
M  V30 5010 H 480.985 1.9054 -0.409943 0
M  V30 5011 H 480.081 3.06596 0.58355 0
M  V30 5012 N 480.382 0.0267497 1.57577 0
M  V30 5013 C 481.292 -0.971633 2.13533 0
M  V30 5014 C 482.308 -1.35868 1.08701 0
M  V30 5015 O 483.484 -1.44058 1.40746 0
M  V30 5016 C 480.549 -2.23622 2.64941 0
M  V30 5017 C 479.61 -1.90982 3.8448 0
M  V30 5018 C 478.843 -3.11411 4.33427 0
M  V30 5019 O 479.066 -4.23992 3.81558 0
M  V30 5020 O 478 -2.93848 5.25297 0
M  V30 5021 H 481.826 -0.525853 2.99113 0
M  V30 5022 H 479.411 -0.193712 1.48139 0
M  V30 5023 H 481.293 -2.97864 2.98086 0
M  V30 5024 H 479.968 -2.67386 1.82446 0
M  V30 5025 H 478.875 -1.14132 3.56265 0
M  V30 5026 H 480.208 -1.52036 4.6813 0
M  V30 5027 N 481.861 -1.55662 -0.24637 0
M  V30 5028 C 483.107 -1.77782 -0.975779 0
M  V30 5029 C 483.44 -0.592103 -1.84953 0
M  V30 5030 O 482.715 0.409588 -1.90138 0
M  V30 5031 C 482.998 -3.09788 -1.83584 0
M  V30 5032 C 482.851 -4.38764 -0.990241 0
M  V30 5033 C 484.17 -3.38029 -2.81823 0
M  V30 5034 H 481.289 -0.646789 -0.353317 0
M  V30 5035 H 483.931 -1.88398 -0.246248 0
M  V30 5036 H 482.081 -3.00869 -2.45784 0
M  V30 5037 H 483.753 -4.59675 -0.386897 0
M  V30 5038 H 481.996 -4.32798 -0.294626 0
M  V30 5039 H 482.667 -5.27514 -1.62584 0
M  V30 5040 H 485.143 -3.46915 -2.2976 0
M  V30 5041 H 484.019 -4.3161 -3.39122 0
M  V30 5042 H 484.28 -2.58968 -3.58313 0
M  V30 5043 N 483.339 0.512053 -1.4905 0
M  V30 5044 C 484.587 1.26436 -1.57665 0
M  V30 5045 C 484.908 1.93255 -0.260293 0
M  V30 5046 O 484.178 1.82206 0.719564 0
M  V30 5047 H 482.758 0.469658 -0.580888 0
M  V30 5048 H 485.42 0.594398 -1.85615 0
M  V30 5049 H 484.516 2.03417 -2.36702 0
M  V30 5050 N 484.817 1.37938 0.762283 0
M  V30 5051 C 486.063 1.34873 1.52253 0
M  V30 5052 C 486.418 -0.0635972 1.92295 0
M  V30 5053 O 485.711 -1.02434 1.61919 0
M  V30 5054 C 485.905 2.23042 2.79261 0
M  V30 5055 C 485.734 3.72706 2.51635 0
M  V30 5056 C 484.504 4.41771 2.45289 0
M  V30 5057 C 486.702 4.65345 2.18994 0
M  V30 5058 N 484.684 5.76921 2.09846 0
M  V30 5059 C 486.055 5.88943 1.9377 0
M  V30 5060 C 488.11 4.53636 2.0523 0
M  V30 5061 C 486.813 7.02142 1.5617 0
M  V30 5062 C 488.839 5.6673 1.69031 0
M  V30 5063 C 488.201 6.89383 1.44673 0
M  V30 5064 H 484.3 0.548818 0.557067 0
M  V30 5065 H 486.884 1.73247 0.888458 0
M  V30 5066 H 485.055 1.8687 3.40491 0
M  V30 5067 H 486.787 2.11165 3.45241 0
M  V30 5068 H 483.542 3.94883 2.61465 0
M  V30 5069 H 483.966 6.4837 1.94794 0
M  V30 5070 H 488.608 3.5937 2.2274 0
M  V30 5071 H 486.326 7.96334 1.37399 0
M  V30 5072 H 489.912 5.59645 1.59026 0
M  V30 5073 H 488.792 7.75411 1.17079 0
M  V30 5074 N 486.295 -0.989507 1.22664 0
M  V30 5075 C 487.706 -1.54406 1.04955 0
M  V30 5076 C 488.057 -1.92366 -0.385951 0
M  V30 5077 O 487.182 -1.75111 -1.27142 0
M  V30 5078 C 487.777 -2.80578 1.89899 0
M  V30 5079 C 486.336 -3.32464 1.76478 0
M  V30 5080 C 485.483 -2.05524 1.86159 0
M  V30 5081 H 488.434 -0.810211 1.3646 0
M  V30 5082 H 488.455 -3.53075 1.4184 0
M  V30 5083 H 487.967 -2.52918 2.94371 0
M  V30 5084 H 486.068 -3.65024 0.747528 0
M  V30 5085 H 486.181 -4.02838 2.59342 0
M  V30 5086 H 484.545 -2.19241 1.29636 0
M  V30 5087 H 485.328 -1.80258 2.92168 0
M  V30 5088 N 487.773 -1.03688 -1.18687 0
M  V30 5089 C 489.001 -0.757918 -1.92518 0
M  V30 5090 C 489.416 0.684398 -1.75959 0
M  V30 5091 O 488.773 1.46617 -1.08673 0
M  V30 5092 C 488.824 -1.10985 -3.44042 0
M  V30 5093 O 488.545 -2.49554 -3.60076 0
M  V30 5094 C 490.046 -0.854844 -4.3498 0
M  V30 5095 H 487.266 -0.276699 -0.611293 0
M  V30 5096 H 489.81 -1.38352 -1.50595 0
M  V30 5097 H 487.965 -0.529279 -3.83767 0
M  V30 5098 H 488.379 -2.6291 -4.53849 0
M  V30 5099 H 489.853 -1.15098 -5.39867 0
M  V30 5100 H 490.33 0.210507 -4.38695 0
M  V30 5101 H 490.936 -1.41853 -4.00946 0
M  V30 5102 N 489.251 1.34841 -0.815825 0
M  V30 5103 C 490.491 2.00321 -0.406297 0
M  V30 5104 C 490.855 1.63293 1.00992 0
M  V30 5105 O 492.056 2.21563 1.52195 0
M  V30 5106 C 490.327 3.52421 -0.594469 0
M  V30 5107 S 491.886 4.37926 -0.276735 0
M  V30 5108 H 488.704 0.694155 -0.153848 0
M  V30 5109 H 491.306 1.64263 -1.06009 0
M  V30 5110 H 490.01 3.76858 -1.625 0
M  V30 5111 H 489.541 3.9333 0.0743157 0
M  V30 5112 H 491.556 4.87743 0.912215 0
M  V30 5113 N 490.729 0.570148 1.46925 0
M  V30 5114 C 491.977 0.0508523 2.02036 0
M  V30 5115 C 492.298 -1.30885 1.44548 0
M  V30 5116 O 491.568 -1.85647 0.625453 0
M  V30 5117 H 490.148 0.0158088 0.746833 0
M  V30 5118 H 492.81 0.743086 1.80178 0
M  V30 5119 H 491.906 -0.027575 3.12088 0
M  V30 5120 N 492.207 -1.54576 0.307264 0
M  V30 5121 C 493.117 -2.27435 -0.57536 0
M  V30 5122 C 494.133 -1.31183 -1.14311 0
M  V30 5123 O 495.309 -1.64175 -1.16656 0
M  V30 5124 C 492.374 -3.00566 -1.72803 0
M  V30 5125 C 491.435 -4.12369 -1.19373 0
M  V30 5126 C 490.668 -4.82003 -2.29147 0
M  V30 5127 O 490.891 -4.51038 -3.49171 0
M  V30 5128 O 489.825 -5.69271 -1.95485 0
M  V30 5129 H 493.651 -3.03696 0.0158558 0
M  V30 5130 H 491.236 -1.49219 0.0735064 0
M  V30 5131 H 493.118 -3.46416 -2.39946 0
M  V30 5132 H 491.793 -2.27195 -2.30574 0
M  V30 5133 H 490.7 -3.70905 -0.487851 0
M  V30 5134 H 492.033 -4.87736 -0.661376 0
M  V30 5135 N 493.685 -0.035106 -1.57561 0
M  V30 5136 C 494.934 0.641604 -1.91223 0
M  V30 5137 C 495.247 1.72944 -0.913761 0
M  V30 5138 O 496.453 2.46321 -1.14185 0
M  V30 5139 C 494.909 1.19249 -3.3957 0
M  V30 5140 C 494.517 0.137616 -4.47789 0
M  V30 5141 C 496.261 1.84537 -3.82291 0
M  V30 5142 C 494.168 0.700478 -5.87237 0
M  V30 5143 H 493.098 0.243417 -0.713627 0
M  V30 5144 H 495.749 -0.101382 -1.8322 0
M  V30 5145 H 494.131 1.98728 -3.42525 0
M  V30 5146 H 495.305 -0.635153 -4.56402 0
M  V30 5147 H 493.62 -0.416855 -4.14308 0
M  V30 5148 H 496.217 2.27616 -4.83834 0
M  V30 5149 H 496.56 2.69054 -3.17672 0
M  V30 5150 H 497.093 1.11739 -3.81784 0
M  V30 5151 H 493.832 -0.106693 -6.55413 0
M  V30 5152 H 493.352 1.4416 -5.82218 0
M  V30 5153 H 495.031 1.18837 -6.35993 0
M  V30 5154 N 495.163 1.55791 0.238111 0
M  V30 5155 C 496.44 1.68798 0.98826 0
M  V30 5156 C 496.82 0.577562 2.03045 0
M  V30 5157 O 496.168 -0.41778 2.24648 0
M  V30 5158 C 496.378 3.09454 1.61367 0
M  V30 5159 C 497.726 3.68335 2.11221 0
M  V30 5160 O 498.75 3.1231 1.71292 0
M  V30 5161 O 497.609 4.6657 2.84561 0
M  V30 5162 H 494.703 0.686881 0.460568 0
M  V30 5163 H 497.249 1.68118 0.231202 0
M  V30 5164 H 496.021 3.81726 0.860295 0
M  V30 5165 H 495.644 3.14182 2.4367 0
M  V30 5166 N 496.642 -0.504142 1.49319 0
M  V30 5167 C 497.891 -1.25507 1.57895 0
M  V30 5168 C 498.204 -1.93735 0.269433 0
M  V30 5169 O 499.41 -2.70492 0.233706 0
M  V30 5170 C 497.866 -2.27869 2.78574 0
M  V30 5171 C 497.474 -1.65594 4.16272 0
M  V30 5172 C 499.218 -3.0381 2.96479 0
M  V30 5173 C 497.125 -2.66048 5.28178 0
M  V30 5174 H 496.055 -0.47212 0.587894 0
M  V30 5175 H 498.706 -0.52931 1.757 0
M  V30 5176 H 497.088 -3.03594 2.54257 0
M  V30 5177 H 498.262 -0.958826 4.50714 0
M  V30 5178 H 496.577 -1.02055 4.037 0
M  V30 5179 H 499.174 -3.78925 3.77253 0
M  V30 5180 H 499.517 -3.61235 2.06918 0
M  V30 5181 H 500.05 -2.352 3.20821 0
M  V30 5182 H 496.789 -2.13408 6.19788 0
M  V30 5183 H 496.309 -3.34009 4.98195 0
M  V30 5184 H 497.988 -3.28536 5.57381 0
M  V30 5185 N 498.12 -1.38341 -0.754957 0
M  V30 5186 C 499.053 -1.29837 -1.87663 0
M  V30 5187 C 500.031 -0.175659 -1.61648 0
M  V30 5188 O 501.215 -0.352745 -1.8517 0
M  V30 5189 C 498.342 -1.01141 -3.23246 0
M  V30 5190 C 497.388 -2.15331 -3.6815 0
M  V30 5191 S 498.221 -3.77459 -3.79849 0
M  V30 5192 C 499.377 -3.50948 -5.18253 0
M  V30 5193 H 499.61 -2.24771 -1.9459 0
M  V30 5194 H 497.143 -1.24161 -0.917796 0
M  V30 5195 H 499.101 -0.852687 -4.01546 0
M  V30 5196 H 497.762 -0.0792784 -3.14 0
M  V30 5197 H 496.955 -1.90795 -4.6649 0
M  V30 5198 H 496.557 -2.27304 -2.97 0
M  V30 5199 H 498.849 -3.06977 -6.03963 0
M  V30 5200 H 499.792 -4.48677 -5.47809 0
M  V30 5201 H 500.2 -2.85492 -4.86985 0
M  V30 5202 N 499.598 0.982988 -1.23187 0
M  V30 5203 C 500.508 2.10907 -1.02739 0
M  V30 5204 C 501.524 1.73979 0.0273188 0
M  V30 5205 O 502.7 2.00702 -0.16757 0
M  V30 5206 C 499.765 3.41142 -0.618304 0
M  V30 5207 C 498.826 3.92112 -1.74777 0
M  V30 5208 C 498.059 5.16131 -1.3581 0
M  V30 5209 O 498.282 5.6989 -0.241201 0
M  V30 5210 O 497.216 5.61103 -2.17824 0
M  V30 5211 H 501.042 2.31046 -1.97108 0
M  V30 5212 H 498.627 1.09284 -1.01869 0
M  V30 5213 H 500.509 4.19488 -0.400982 0
M  V30 5214 H 499.184 3.2234 0.296421 0
M  V30 5215 H 498.091 3.14895 -2.0197 0
M  V30 5216 H 499.424 4.15364 -2.64071 0
M  V30 5217 N 501.076 1.04316 1.18135 0
M  V30 5218 C 502.009 0.580823 2.20685 0
M  V30 5219 C 502.987 -0.385943 1.57953 0
M  V30 5220 O 504.171 -0.299654 1.86103 0
M  V30 5221 C 501.298 -0.151162 3.38363 0
M  V30 5222 C 500.344 0.769247 4.19505 0
M  V30 5223 S 501.177 2.25352 4.85774 0
M  V30 5224 C 502.333 1.53246 6.0685 0
M  V30 5225 H 502.566 1.44968 2.5956 0
M  V30 5226 H 500.099 0.85434 1.28609 0
M  V30 5227 H 502.057 -0.567315 4.06561 0
M  V30 5228 H 500.718 -0.995936 2.97892 0
M  V30 5229 H 499.911 0.203335 5.0359 0
M  V30 5230 H 499.513 1.12436 3.56699 0
M  V30 5231 H 501.805 0.82689 6.72435 0
M  V30 5232 H 502.748 2.35044 6.67952 0
M  V30 5233 H 503.156 1.0237 5.5514 0
M  V30 5234 N 502.554 -1.34406 0.822964 0
M  V30 5235 C 503.484 -2.32052 0.259608 0
M  V30 5236 C 504.465 -1.58243 -0.623961 0
M  V30 5237 O 505.65 -1.86224 -0.55083 0
M  V30 5238 C 502.78 -3.42434 -0.579314 0
M  V30 5239 C 501.734 -4.27499 0.20712 0
M  V30 5240 C 501.06 -5.29349 -0.754547 0
M  V30 5241 C 502.36 -5.02758 1.41533 0
M  V30 5242 H 504.054 -2.79418 1.07545 0
M  V30 5243 H 501.6 -1.34338 0.518593 0
M  V30 5244 H 503.553 -4.0976 -0.983612 0
M  V30 5245 H 502.277 -2.93717 -1.4282 0
M  V30 5246 H 500.936 -3.61776 0.592787 0
M  V30 5247 H 500.584 -4.76895 -1.59939 0
M  V30 5248 H 500.284 -5.8714 -0.232561 0
M  V30 5249 H 501.808 -5.99544 -1.1567 0
M  V30 5250 H 503.222 -5.62938 1.08504 0
M  V30 5251 H 501.619 -5.70123 1.87296 0
M  V30 5252 H 502.689 -4.32451 2.1935 0
M  V30 5253 N 504.032 -0.577932 -1.46621 0
M  V30 5254 C 505.28 -0.061566 -2.02006 0
M  V30 5255 C 505.601 1.30117 -1.4524 0
M  V30 5256 O 504.871 1.85313 -0.63529 0
M  V30 5257 H 503.451 -0.0197692 -0.746738 0
M  V30 5258 H 506.113 -0.752631 -1.79782 0
M  V30 5259 H 505.209 0.0110238 -3.12098 0
M  V30 5260 N 505.51 1.54411 -0.315457 0
M  V30 5261 C 506.46 2.20772 0.569549 0
M  V30 5262 C 507.444 1.18551 1.08787 0
M  V30 5263 O 508.636 1.44213 1.02624 0
M  V30 5264 C 505.765 2.96293 1.73394 0
M  V30 5265 C 504.851 4.05844 1.2309 0
M  V30 5266 N 505.242 5.03822 0.446927 0
M  V30 5267 C 503.54 4.19648 1.51035 0
M  V30 5268 C 504.241 5.8143 0.17725 0
M  V30 5269 N 503.217 5.38245 0.761118 0
M  V30 5270 H 507.019 2.93877 -0.0368076 0
M  V30 5271 H 504.533 1.61949 -0.120915 0
M  V30 5272 H 506.53 3.42313 2.37965 0
M  V30 5273 H 505.19 2.24708 2.34386 0
M  V30 5274 H 506.201 5.17821 0.0905027 0
M  V30 5275 H 502.878 3.59274 2.1267 0
M  V30 5276 H 504.268 6.70369 -0.45335 0
M  V30 5277 N 506.988 0.0434614 1.5754 0
M  V30 5278 C 508.265 -0.671479 1.83713 0
M  V30 5279 C 508.645 -1.89495 0.930315 0
M  V30 5280 O 507.993 -2.28498 -0.0105639 0
M  V30 5281 C 508.203 -1.0361 3.33266 0
M  V30 5282 C 509.551 -1.42167 4.00092 0
M  V30 5283 O 510.575 -1.12866 3.37846 0
M  V30 5284 O 509.434 -1.96817 5.09829 0
M  V30 5285 H 506.528 -0.330726 0.75799 0
M  V30 5286 H 509.074 0.0722373 1.69546 0
M  V30 5287 H 507.846 -0.165938 3.90948 0
M  V30 5288 H 507.469 -1.83751 3.52592 0
M  V30 5289 N 508.466 -1.55915 -0.229846 0
M  V30 5290 C 509.694 -1.82617 -0.972562 0
M  V30 5291 C 510.109 -0.621488 -1.78278 0
M  V30 5292 O 509.466 0.409956 -1.77836 0
M  V30 5293 C 509.517 -3.0774 -1.89679 0
M  V30 5294 O 509.238 -4.23559 -1.11934 0
M  V30 5295 C 510.739 -3.47368 -2.75409 0
M  V30 5296 H 507.959 -0.60727 -0.285419 0
M  V30 5297 H 510.503 -2.02996 -0.247579 0
M  V30 5298 H 508.658 -2.89361 -2.57583 0
M  V30 5299 H 509.072 -4.94586 -1.74599 0
M  V30 5300 H 510.546 -4.37977 -3.35977 0
M  V30 5301 H 511.023 -2.68737 -3.47386 0
M  V30 5302 H 511.629 -3.68158 -2.12931 0
M  V30 5303 N 509.944 0.496216 -1.49584 0
M  V30 5304 C 511.36 0.827814 -1.36453 0
M  V30 5305 C 511.56 1.97464 -0.401285 0
M  V30 5306 O 510.616 2.51958 0.165296 0
M  V30 5307 C 511.929 1.16352 -2.77277 0
M  V30 5308 C 513.477 1.27145 -2.86013 0
M  V30 5309 C 513.952 1.64042 -4.27615 0
M  V30 5310 N 515.443 1.71082 -4.30448 0
M  V30 5311 C 516.178 2.01085 -5.36984 0
M  V30 5312 N 515.674 2.2928 -6.5376 0
M  V30 5313 N 517.467 2.02376 -5.24405 0
M  V30 5314 H 509.618 -0.259947 -2.10803 0
M  V30 5315 H 511.881 -0.0537163 -0.946477 0
M  V30 5316 H 511.587 0.394153 -3.49484 0
M  V30 5317 H 511.461 2.10582 -3.12946 0
M  V30 5318 H 513.848 2.03152 -2.1404 0
M  V30 5319 H 513.929 0.309542 -2.5392 0
M  V30 5320 H 513.573 0.88583 -5.00115 0
M  V30 5321 H 513.503 2.6134 -4.57175 0
M  V30 5322 H 515.994 1.51434 -3.46232 0
M  V30 5323 H 516.307 2.51376 -7.30774 0
M  V30 5324 H 514.652 2.26726 -6.56978 0
M  V30 5325 H 517.843 1.79829 -4.32179 0
M  V30 5326 H 518.016 2.25425 -6.07526 0
M  V30 5327 N 511.423 1.38739 0.74761 0
M  V30 5328 C 512.651 1.38521 1.53686 0
M  V30 5329 C 513.066 -0.0235129 1.88785 0
M  V30 5330 O 512.423 -0.991662 1.53207 0
M  V30 5331 C 512.474 2.24641 2.83229 0
M  V30 5332 O 512.195 3.60026 2.49625 0
M  V30 5333 C 513.696 2.32669 3.77333 0
M  V30 5334 H 510.916 0.473589 0.475347 0
M  V30 5335 H 513.46 1.82395 0.924786 0
M  V30 5336 H 511.615 1.84213 3.40799 0
M  V30 5337 H 512.029 4.05435 3.3275 0
M  V30 5338 H 513.503 2.97201 4.65162 0
M  V30 5339 H 513.98 1.3421 4.18192 0
M  V30 5340 H 514.586 2.73512 3.25685 0
M  V30 5341 N 512.901 -0.976442 1.23707 0
M  V30 5342 C 514.147 -1.72081 1.07312 0
M  V30 5343 C 514.48 -1.90275 -0.388476 0
M  V30 5344 O 513.755 -1.4579 -1.28746 0
M  V30 5345 C 514.038 -3.11675 1.80363 0
M  V30 5346 C 513.891 -3.01027 3.3422 0
M  V30 5347 C 515.21 -4.1117 1.5693 0
M  V30 5348 H 512.329 -0.624583 0.391236 0
M  V30 5349 H 514.971 -1.13649 1.52263 0
M  V30 5350 H 513.121 -3.61559 1.42153 0
M  V30 5351 H 514.793 -2.58637 3.81975 0
M  V30 5352 H 513.036 -2.3744 3.63049 0
M  V30 5353 H 513.707 -3.9988 3.80525 0
M  V30 5354 H 516.183 -3.7011 1.90151 0
M  V30 5355 H 515.059 -5.06928 2.10513 0
M  V30 5356 H 515.32 -4.392 0.505548 0
M  V30 5357 N 514.379 -1.04941 -1.1758 0
M  V30 5358 C 515.609 -0.777166 -1.91425 0
M  V30 5359 C 516.017 0.670647 -1.76915 0
M  V30 5360 O 515.36 1.46965 -1.10213 0
M  V30 5361 C 515.422 -1.07495 -3.43052 0
M  V30 5362 C 515.086 -2.51844 -3.81345 0
M  V30 5363 C 516.083 -3.50047 -3.844 0
M  V30 5364 C 513.768 -2.86787 -4.12382 0
M  V30 5365 C 515.762 -4.81239 -4.17957 0
M  V30 5366 C 513.449 -4.18182 -4.45608 0
M  V30 5367 C 514.447 -5.15219 -4.48373 0
M  V30 5368 O 514.135 -6.44258 -4.80819 0
M  V30 5369 H 513.867 -0.282209 -0.614275 0
M  V30 5370 H 516.421 -1.40258 -1.50056 0
M  V30 5371 H 514.651 -0.392437 -3.84704 0
M  V30 5372 H 516.34 -0.78912 -3.98155 0
M  V30 5373 H 517.106 -3.24391 -3.60548 0
M  V30 5374 H 512.985 -2.11922 -4.09402 0
M  V30 5375 H 516.529 -5.56974 -4.2003 0
M  V30 5376 H 512.426 -4.43602 -4.68922 0
M  V30 5377 H 513.194 -6.49041 -4.98686 0
M  V30 5378 N 515.857 1.33968 -0.830081 0
M  V30 5379 C 517.105 1.97672 -0.420734 0
M  V30 5380 C 517.426 1.66111 1.02138 0
M  V30 5381 O 516.696 0.955503 1.71017 0
M  V30 5382 H 515.276 0.73125 -0.152587 0
M  V30 5383 H 517.938 1.63483 -1.0611 0
M  V30 5384 H 517.034 3.07294 -0.545588 0
M  V30 5385 N 517.335 0.585699 1.46312 0
M  V30 5386 C 518.563 0.0781299 2.06752 0
M  V30 5387 C 518.978 -1.22812 1.43396 0
M  V30 5388 O 518.335 -1.74318 0.540314 0
M  V30 5389 C 518.386 -0.0911927 3.61385 0
M  V30 5390 O 518.107 1.16336 4.22371 0
M  V30 5391 C 519.608 -0.632765 4.38761 0
M  V30 5392 H 516.828 0.0588188 0.668417 0
M  V30 5393 H 519.372 0.807218 1.87894 0
M  V30 5394 H 517.527 -0.770514 3.7966 0
M  V30 5395 H 517.941 0.979082 5.15281 0
M  V30 5396 H 519.415 -0.70041 5.47538 0
M  V30 5397 H 519.892 -1.65039 4.07012 0
M  V30 5398 H 520.498 0.0117856 4.25298 0
M  V30 5399 N 518.813 -1.54241 0.323641 0
M  V30 5400 C 519.776 -2.22997 -0.529602 0
M  V30 5401 C 520.776 -1.22345 -1.04347 0
M  V30 5402 O 521.966 -1.46924 -0.935889 0
M  V30 5403 C 519.098 -2.93409 -1.73562 0
M  V30 5404 H 520.291 -2.99815 0.0714518 0
M  V30 5405 H 517.844 -1.56121 0.0747258 0
M  V30 5406 H 518.579 -2.20729 -2.37591 0
M  V30 5407 H 518.364 -3.67217 -1.37456 0
M  V30 5408 H 519.854 -3.45794 -2.34128 0
M  V30 5409 N 520.291 -0.0518155 -1.57515 0
M  V30 5410 C 521.241 0.932017 -2.0808 0
M  V30 5411 C 522.225 1.27141 -0.986098 0
M  V30 5412 O 523.417 1.25373 -1.24943 0
M  V30 5413 C 520.546 2.20665 -2.62986 0
M  V30 5414 C 519.632 1.89462 -3.79427 0
M  V30 5415 N 520.023 1.28621 -4.89173 0
M  V30 5416 C 518.321 2.19327 -3.88345 0
M  V30 5417 C 519.022 1.15062 -5.70207 0
M  V30 5418 N 517.998 1.65372 -5.17835 0
M  V30 5419 H 521.8 0.456964 -2.90326 0
M  V30 5420 H 519.314 0.152619 -1.61681 0
M  V30 5421 H 521.311 2.92044 -2.97516 0
M  V30 5422 H 519.971 2.68776 -1.8218 0
M  V30 5423 H 520.982 0.958341 -5.08956 0
M  V30 5424 H 517.659 2.69955 -3.18482 0
M  V30 5425 H 519.049 0.678243 -6.68468 0
M  V30 5426 N 521.769 1.56035 0.221574 0
M  V30 5427 C 523.017 1.78693 0.944102 0
M  V30 5428 C 523.338 0.620317 1.8487 0
M  V30 5429 O 522.608 -0.362784 1.92512 0
M  V30 5430 H 521.188 0.659082 0.351597 0
M  V30 5431 H 523.85 1.93497 0.233435 0
M  V30 5432 H 522.946 2.70837 1.55093 0
M  V30 5433 N 523.247 -0.488276 1.49845 0
M  V30 5434 C 524.658 -1.06955 1.53028 0
M  V30 5435 C 525.009 -1.9351 0.323797 0
M  V30 5436 O 524.134 -2.08891 -0.565116 0
M  V30 5437 C 524.729 -1.94643 2.77307 0
M  V30 5438 C 523.288 -2.4791 2.83227 0
M  V30 5439 C 522.435 -1.25833 2.47106 0
M  V30 5440 H 525.386 -0.271626 1.56358 0
M  V30 5441 H 525.407 -2.79496 2.5819 0
M  V30 5442 H 524.919 -1.31621 3.65099 0
M  V30 5443 H 523.02 -3.14535 1.99745 0
M  V30 5444 H 523.133 -2.84193 3.85709 0
M  V30 5445 H 521.497 -1.58764 1.99163 0
M  V30 5446 H 522.28 -0.644993 3.37186 0
M  V30 5447 N 524.725 -1.39134 -0.740242 0
M  V30 5448 C 525.973 -1.35803 -1.49673 0
M  V30 5449 C 526.294 0.0470897 -1.94943 0
M  V30 5450 O 525.564 0.997347 -1.68611 0
M  V30 5451 H 524.144 -0.499736 -0.555224 0
M  V30 5452 H 526.806 -1.73947 -0.879107 0
M  V30 5453 H 525.902 -2.0174 -2.38133 0
M  V30 5454 N 526.204 0.969867 -1.24223 0
M  V30 5455 C 527.434 1.74502 -1.106 0
M  V30 5456 C 527.842 1.86038 0.344483 0
M  V30 5457 O 527.185 1.3465 1.24961 0
M  V30 5458 C 527.247 3.18391 -1.66935 0
M  V30 5459 C 526.911 3.30334 -3.15798 0
M  V30 5460 C 527.908 3.15832 -4.12973 0
M  V30 5461 C 525.593 3.54644 -3.55715 0
M  V30 5462 C 527.587 3.25461 -5.48045 0
M  V30 5463 C 525.274 3.63912 -4.90929 0
M  V30 5464 C 526.272 3.49332 -5.86904 0
M  V30 5465 O 525.96 3.58251 -7.1966 0
M  V30 5466 H 525.692 0.554119 -0.387206 0
M  V30 5467 H 528.246 1.22646 -1.64764 0
M  V30 5468 H 526.476 3.71543 -1.07203 0
M  V30 5469 H 528.165 3.77707 -1.48634 0
M  V30 5470 H 528.931 2.96937 -3.83476 0
M  V30 5471 H 524.81 3.65059 -2.81519 0
M  V30 5472 H 528.354 3.13998 -6.22937 0
M  V30 5473 H 524.251 3.82319 -5.20098 0
M  V30 5474 H 525.019 3.7498 -7.27552 0
M  V30 5475 N 527.682 1.05563 1.17022 0
M  V30 5476 C 528.907 0.788437 1.91829 0
M  V30 5477 C 529.332 -0.650356 1.76499 0
M  V30 5478 O 528.69 -1.45229 1.08527 0
M  V30 5479 C 528.738 1.1786 3.40795 0
M  V30 5480 O 527.842 0.312965 4.11211 0
M  V30 5481 H 527.183 0.288794 0.597908 0
M  V30 5482 H 529.713 1.40948 1.48307 0
M  V30 5483 H 529.723 1.14697 3.91546 0
M  V30 5484 H 528.398 2.22666 3.51273 0
M  V30 5485 H 526.975 0.405515 3.70689 0
M  V30 5486 N 529.16 -1.33526 0.837174 0
M  V30 5487 C 530.408 -1.97446 0.431211 0
M  V30 5488 C 530.729 -1.6665 -1.01255 0
M  V30 5489 O 529.999 -0.964559 -1.70508 0
M  V30 5490 H 528.579 -0.73043 0.156463 0
M  V30 5491 H 531.241 -1.62918 1.06976 0
M  V30 5492 H 530.337 -3.07001 0.561877 0
M  V30 5493 N 530.638 -0.59345 -1.46 0
M  V30 5494 C 531.886 -0.082988 -2.0193 0
M  V30 5495 C 532.207 1.28569 -1.46612 0
M  V30 5496 O 531.477 1.84629 -0.654909 0
M  V30 5497 H 530.057 -0.0276882 -0.746487 0
M  V30 5498 H 532.719 -0.771657 -1.78973 0
M  V30 5499 H 531.815 -0.022079 -3.12092 0
M  V30 5500 N 532.116 1.54067 -0.331816 0
M  V30 5501 C 533.079 2.23275 0.517768 0
M  V30 5502 C 534.079 1.22897 1.03697 0
M  V30 5503 O 535.269 1.47419 0.928084 0
M  V30 5504 C 532.401 2.94326 1.72004 0
M  V30 5505 H 533.594 2.99773 -0.0873507 0
M  V30 5506 H 531.147 1.56079 -0.0830042 0
M  V30 5507 H 531.882 2.21986 2.36417 0
M  V30 5508 H 531.667 3.67941 1.35507 0
M  V30 5509 H 533.157 3.47031 2.32291 0
M  V30 5510 N 533.594 0.0601682 1.57485 0
M  V30 5511 C 534.819 -0.624416 1.97777 0
M  V30 5512 C 535.244 -1.63051 0.937867 0
M  V30 5513 O 534.602 -1.81036 -0.0978845 0
M  V30 5514 C 534.65 -1.27979 3.37126 0
M  V30 5515 O 533.754 -2.39556 3.35688 0
M  V30 5516 H 533.095 -0.161581 0.64404 0
M  V30 5517 H 535.625 0.131237 2.04179 0
M  V30 5518 H 535.635 -1.62937 3.74053 0
M  V30 5519 H 534.31 -0.542501 4.12347 0
M  V30 5520 H 532.887 -2.06478 3.10517 0
M  V30 5521 N 535.072 -1.5615 -0.213296 0
M  V30 5522 C 536.321 -1.78743 -0.93455 0
M  V30 5523 C 536.634 -0.630199 -1.8517 0
M  V30 5524 O 537.84 -0.739966 -2.61222 0
M  V30 5525 C 536.296 -3.16571 -1.71203 0
M  V30 5526 C 535.904 -4.40043 -0.840617 0
M  V30 5527 C 537.648 -3.48485 -2.42401 0
M  V30 5528 C 535.555 -5.68895 -1.61592 0
M  V30 5529 H 534.485 -0.666426 -0.352692 0
M  V30 5530 H 537.136 -1.82532 -0.188227 0
M  V30 5531 H 535.518 -3.06981 -2.50157 0
M  V30 5532 H 536.692 -4.6071 -0.0910326 0
M  V30 5533 H 535.007 -4.15706 -0.240365 0
M  V30 5534 H 537.604 -4.41983 -3.00924 0
M  V30 5535 H 537.947 -2.71371 -3.15695 0
M  V30 5536 H 538.48 -3.59442 -1.7043 0
M  V30 5537 H 535.219 -6.48925 -0.926106 0
M  V30 5538 H 534.739 -5.52275 -2.33991 0
M  V30 5539 H 536.418 -6.09365 -2.17447 0
M  V30 5540 N 536.55 0.480323 -1.50102 0
M  V30 5541 C 537.798 1.23063 -1.60312 0
M  V30 5542 C 538.119 1.92659 -0.301226 0
M  V30 5543 O 537.389 1.83691 0.680753 0
M  V30 5544 H 535.969 0.457231 -0.590719 0
M  V30 5545 H 538.631 0.554893 -1.86834 0
M  V30 5546 H 537.727 1.9835 -2.40964 0
M  V30 5547 N 538.028 1.39524 0.732853 0
M  V30 5548 C 539.274 1.37068 1.49467 0
M  V30 5549 C 539.607 -0.0327166 1.94172 0
M  V30 5550 O 538.882 -0.998071 1.66939 0
M  V30 5551 C 539.165 2.34494 2.73285 0
M  V30 5552 C 539.018 3.83784 2.34585 0
M  V30 5553 C 540.337 2.29717 3.75391 0
M  V30 5554 H 537.456 0.499206 0.542183 0
M  V30 5555 H 540.098 1.70532 0.837783 0
M  V30 5556 H 538.248 2.06087 3.29333 0
M  V30 5557 H 539.92 4.22949 1.84151 0
M  V30 5558 H 538.163 4.00455 1.66787 0
M  V30 5559 H 538.834 4.47444 3.23262 0
M  V30 5560 H 541.31 2.54839 3.28932 0
M  V30 5561 H 540.186 2.99962 4.59689 0
M  V30 5562 H 540.447 1.30291 4.22465 0
M  V30 5563 N 539.506 -0.963266 1.24736 0
M  V30 5564 C 540.469 -2.04013 1.04457 0
M  V30 5565 C 541.469 -1.608 0.000335555 0
M  V30 5566 O 542.659 -1.72515 0.241719 0
M  V30 5567 C 539.791 -3.35858 0.584162 0
M  V30 5568 H 540.984 -2.23436 2.00041 0
M  V30 5569 H 538.537 -1.13914 1.07021 0
M  V30 5570 H 539.272 -3.22128 -0.374673 0
M  V30 5571 H 539.057 -3.68568 1.3379 0
M  V30 5572 H 540.547 -4.1502 0.463451 0
M  V30 5573 N 540.985 -1.06182 -1.16461 0
M  V30 5574 C 542.215 -0.797425 -1.9059 0
M  V30 5575 C 542.623 0.651845 -1.77616 0
M  V30 5576 O 541.966 1.45788 -1.11766 0
M  V30 5577 C 542.028 -1.11128 -3.41893 0
M  V30 5578 C 541.692 -2.55874 -3.78652 0
M  V30 5579 C 542.689 -3.54104 -3.80665 0
M  V30 5580 C 540.374 -2.91144 -4.09317 0
M  V30 5581 C 542.368 -4.85645 -4.12829 0
M  V30 5582 C 540.055 -4.22885 -4.41148 0
M  V30 5583 C 541.053 -5.19945 -4.42883 0
M  V30 5584 O 540.741 -6.49322 -4.73959 0
M  V30 5585 H 540.473 -0.288709 -0.611247 0
M  V30 5586 H 543.027 -1.41841 -1.4856 0
M  V30 5587 H 541.257 -0.433217 -3.84266 0
M  V30 5588 H 542.946 -0.831306 -3.97296 0
M  V30 5589 H 543.712 -3.28197 -3.57088 0
M  V30 5590 H 539.591 -2.16252 -4.07131 0
M  V30 5591 H 543.135 -5.61398 -4.14099 0
M  V30 5592 H 539.032 -4.48551 -4.6419 0
M  V30 5593 H 539.8 -6.54294 -4.91774 0
M  V30 5594 N 542.463 1.3308 -0.844243 0
M  V30 5595 C 543.413 2.26589 -0.253289 0
M  V30 5596 C 544.397 1.49501 0.594836 0
M  V30 5597 O 545.589 1.71291 0.445924 0
M  V30 5598 C 542.718 3.38599 0.566176 0
M  V30 5599 C 541.804 4.23081 -0.293756 0
M  V30 5600 N 542.195 4.86751 -1.37505 0
M  V30 5601 C 540.493 4.45925 -0.0817086 0
M  V30 5602 C 541.194 5.49684 -1.90323 0
M  V30 5603 N 540.17 5.30101 -1.20391 0
M  V30 5604 H 543.972 2.73334 -1.08009 0
M  V30 5605 H 541.486 1.47048 -0.689258 0
M  V30 5606 H 543.483 4.04584 1.00587 0
M  V30 5607 H 542.143 2.93401 1.39089 0
M  V30 5608 H 543.154 4.87151 -1.75796 0
M  V30 5609 H 539.831 4.11434 0.709129 0
M  V30 5610 H 541.221 6.10363 -2.80902 0
M  V30 5611 N 543.941 0.601185 1.45683 0
M  V30 5612 C 544.871 -0.108824 2.33246 0
M  V30 5613 C 545.852 -0.865223 1.46451 0
M  V30 5614 O 547.037 -0.83704 1.75235 0
M  V30 5615 C 544.167 -1.11101 3.2905 0
M  V30 5616 C 543.121 -0.468244 4.25431 0
M  V30 5617 C 542.447 -1.57822 5.10878 0
M  V30 5618 C 543.747 0.606469 5.18767 0
M  V30 5619 H 545.441 0.622306 2.92861 0
M  V30 5620 H 542.987 0.300714 1.40825 0
M  V30 5621 H 544.94 -1.61622 3.89174 0
M  V30 5622 H 543.664 -1.87265 2.67581 0
M  V30 5623 H 542.323 0.0160484 3.66596 0
M  V30 5624 H 541.971 -2.32998 4.45781 0
M  V30 5625 H 541.671 -1.15369 5.76163 0
M  V30 5626 H 543.195 -2.08583 5.73869 0
M  V30 5627 H 544.609 0.185589 5.73 0
M  V30 5628 H 543.006 0.952381 5.92494 0
M  V30 5629 H 544.076 1.48559 4.61582 0
M  V30 5630 N 545.419 -1.53889 0.339982 0
M  V30 5631 C 546.83 -1.86139 -0.144671 0
M  V30 5632 C 547.181 -1.2613 -1.50285 0
M  V30 5633 O 546.306 -0.573515 -2.08662 0
M  V30 5634 C 546.901 -3.37728 -0.269285 0
M  V30 5635 C 545.46 -3.69868 -0.698168 0
M  V30 5636 C 544.607 -2.76777 0.170249 0
M  V30 5637 H 547.558 -1.48503 0.559704 0
M  V30 5638 H 547.579 -3.64331 -1.0974 0
M  V30 5639 H 547.091 -3.81375 0.719366 0
M  V30 5640 H 545.192 -3.31764 -1.69597 0
M  V30 5641 H 545.305 -4.76582 -0.490533 0
M  V30 5642 H 543.669 -2.52188 -0.356844 0
M  V30 5643 H 544.452 -3.23253 1.15597 0
M  V30 5644 N 546.897 -0.0685191 -1.57451 0
M  V30 5645 C 547.807 0.914677 -2.16034 0
M  V30 5646 C 548.823 1.32938 -1.12265 0
M  V30 5647 O 549.999 1.40275 -1.44516 0
M  V30 5648 C 547.064 2.16519 -2.70777 0
M  V30 5649 C 546.125 1.80721 -3.89408 0
M  V30 5650 C 545.358 2.9981 -4.41531 0
M  V30 5651 O 545.581 4.13727 -3.92666 0
M  V30 5652 O 544.515 2.79817 -5.32903 0
M  V30 5653 H 548.341 0.446364 -3.00402 0
M  V30 5654 H 545.926 0.154367 -1.486 0
M  V30 5655 H 547.808 2.89856 -3.05878 0
M  V30 5656 H 546.483 2.62454 -1.89471 0
M  V30 5657 H 545.39 1.04646 -3.59166 0
M  V30 5658 H 546.723 1.39571 -4.71997 0
M  V30 5659 N 548.375 1.56261 0.205012 0
M  V30 5660 C 549.623 1.79684 0.925096 0
M  V30 5661 C 549.944 0.63989 1.84202 0
M  V30 5662 O 549.214 -0.342345 1.92885 0
M  V30 5663 H 547.794 0.662774 0.344587 0
M  V30 5664 H 550.456 1.93734 0.212899 0
M  V30 5665 H 549.552 2.72467 1.52211 0
M  V30 5666 N 549.853 -0.472356 1.50355 0
M  V30 5667 C 551.099 -1.22634 1.6152 0
M  V30 5668 C 551.432 -1.91645 0.313995 0
M  V30 5669 O 550.707 -1.82059 -0.684446 0
M  V30 5670 C 550.99 -2.27099 2.7946 0
M  V30 5671 C 550.843 -1.62402 4.19459 0
M  V30 5672 C 552.162 -3.28421 2.92964 0
M  V30 5673 H 549.281 -0.444494 0.587873 0
M  V30 5674 H 551.923 -0.520321 1.82737 0
M  V30 5675 H 550.073 -2.87314 2.61501 0
M  V30 5676 H 551.745 -1.05793 4.49005 0
M  V30 5677 H 549.988 -0.927184 4.23776 0
M  V30 5678 H 550.659 -2.38309 4.97909 0
M  V30 5679 H 553.135 -2.78227 3.09401 0
M  V30 5680 H 552.011 -3.98845 3.77113 0
M  V30 5681 H 552.272 -3.92467 2.03525 0
M  V30 5682 N 551.331 -1.39911 -0.725443 0
M  V30 5683 C 552.742 -1.33599 -1.30415 0
M  V30 5684 C 553.093 -0.00481792 -1.96199 0
M  V30 5685 O 552.218 0.897275 -1.96921 0
M  V30 5686 C 552.813 -2.41965 -2.37146 0
M  V30 5687 C 551.372 -2.39144 -2.90667 0
M  V30 5688 C 550.519 -2.23355 -1.64341 0
M  V30 5689 H 553.47 -1.4986 -0.522267 0
M  V30 5690 H 553.491 -2.09304 -3.17761 0
M  V30 5691 H 553.003 -3.38837 -1.89238 0
M  V30 5692 H 551.104 -1.4594 -3.4283 0
M  V30 5693 H 551.217 -3.34362 -3.43131 0
M  V30 5694 H 549.581 -1.70696 -1.89037 0
M  V30 5695 H 550.364 -3.2221 -1.18471 0
M  V30 5696 N 552.809 0.956637 -1.25245 0
M  V30 5697 C 554.086 1.67716 -1.00651 0
M  V30 5698 C 554.466 2.0585 0.467866 0
M  V30 5699 O 553.814 1.77029 1.44475 0
M  V30 5700 C 554.024 2.90093 -1.94028 0
M  V30 5701 C 555.372 3.6209 -2.21756 0
M  V30 5702 O 556.396 3.00171 -1.9177 0
M  V30 5703 O 555.255 4.7358 -2.72735 0
M  V30 5704 H 552.349 0.733731 -0.381533 0
M  V30 5705 H 554.895 1.00974 -1.3639 0
M  V30 5706 H 553.667 2.58689 -2.93591 0
M  V30 5707 H 553.29 3.64566 -1.58674 0
M  V30 5708 N 554.287 1.06798 1.15896 0
M  V30 5709 C 555.534 0.787767 1.86549 0
M  V30 5710 C 555.862 -0.685959 1.82002 0
M  V30 5711 O 555.117 -1.5188 1.23414 0
M  V30 5712 C 555.416 1.23414 3.35416 0
M  V30 5713 C 555.082 2.71285 3.6016 0
M  V30 5714 C 553.744 3.11676 3.66622 0
M  V30 5715 C 556.096 3.6676 3.7032 0
M  V30 5716 C 553.424 4.4637 3.8075 0
M  V30 5717 C 555.776 5.01209 3.8597 0
M  V30 5718 C 554.44 5.41229 3.90676 0
M  V30 5719 H 553.71 0.288264 0.682631 0
M  V30 5720 H 556.357 1.338 1.37003 0
M  V30 5721 H 554.662 0.60319 3.87129 0
M  V30 5722 H 556.359 0.994298 3.88477 0
M  V30 5723 H 552.949 2.39015 3.55767 0
M  V30 5724 H 557.133 3.36685 3.64633 0
M  V30 5725 H 552.389 4.76855 3.82648 0
M  V30 5726 H 556.563 5.75067 3.92773 0
M  V30 5727 H 554.19 6.45602 4.01375 0
M  V30 5728 N 555.766 -1.3263 0.851289 0
M  V30 5729 C 556.991 -2.02097 0.466006 0
M  V30 5730 C 557.416 -1.63574 -0.928709 0
M  V30 5731 O 556.774 -0.834665 -1.60944 0
M  V30 5732 C 556.822 -3.55425 0.608737 0
M  V30 5733 O 555.926 -4.10827 -0.359878 0
M  V30 5734 H 555.267 -0.636911 0.187724 0
M  V30 5735 H 557.797 -1.69253 1.14955 0
M  V30 5736 H 557.807 -4.04986 0.495006 0
M  V30 5737 H 556.482 -3.82806 1.62581 0
M  V30 5738 H 555.059 -3.72349 -0.202666 0
M  V30 5739 N 557.244 -0.608902 -1.45362 0
M  V30 5740 C 558.154 0.110969 -2.34337 0
M  V30 5741 C 559.17 0.859007 -1.51318 0
M  V30 5742 O 560.346 0.816296 -1.84116 0
M  V30 5743 C 557.411 1.09494 -3.28956 0
M  V30 5744 C 556.472 0.348718 -4.27881 0
M  V30 5745 C 555.705 1.28582 -5.17979 0
M  V30 5746 O 555.928 2.52369 -5.11533 0
M  V30 5747 O 554.862 0.782172 -5.96796 0
M  V30 5748 H 558.688 -0.620258 -2.97299 0
M  V30 5749 H 556.273 -0.36916 -1.44767 0
M  V30 5750 H 558.155 1.66163 -3.87257 0
M  V30 5751 H 556.83 1.80717 -2.68557 0
M  V30 5752 H 555.737 -0.260465 -3.73192 0
M  V30 5753 H 557.07 -0.323049 -4.91139 0
M  V30 5754 N 558.722 1.53707 -0.348139 0
M  V30 5755 C 559.999 1.93247 0.302475 0
M  V30 5756 C 560.379 1.28012 1.67857 0
M  V30 5757 O 559.727 0.43274 2.24365 0
M  V30 5758 C 559.937 3.47031 0.370159 0
M  V30 5759 C 561.285 4.20066 0.61882 0
M  V30 5760 O 562.309 3.53319 0.452087 0
M  V30 5761 O 561.168 5.38318 0.94215 0
M  V30 5762 H 558.262 0.807736 0.177458 0
M  V30 5763 H 560.808 1.64927 -0.399651 0
M  V30 5764 H 559.58 3.86745 -0.59534 0
M  V30 5765 H 559.203 3.81532 1.11888 0
M  V30 5766 N 560.2 0.0768682 1.57412 0
M  V30 5767 C 561.447 -0.591085 1.93681 0
M  V30 5768 C 561.775 -1.69311 0.957286 0
M  V30 5769 O 561.03 -1.95682 -0.0262428 0
M  V30 5770 C 561.329 -1.20268 3.36557 0
M  V30 5771 C 560.995 -0.226286 4.50332 0
M  V30 5772 C 559.657 0.0423142 4.81181 0
M  V30 5773 C 562.009 0.441415 5.19327 0
M  V30 5774 C 559.337 0.985616 5.78362 0
M  V30 5775 C 561.689 1.37307 6.17519 0
M  V30 5776 C 560.353 1.65009 6.46783 0
M  V30 5777 H 559.623 -0.216293 0.70873 0
M  V30 5778 H 562.27 0.148824 1.90921 0
M  V30 5779 H 560.575 -2.01844 3.35807 0
M  V30 5780 H 562.272 -1.72688 3.61911 0
M  V30 5781 H 558.862 -0.445821 4.26275 0
M  V30 5782 H 563.046 0.247023 4.95685 0
M  V30 5783 H 558.302 1.20743 5.99359 0
M  V30 5784 H 562.476 1.89637 6.70083 0
M  V30 5785 H 560.103 2.38263 7.21897 0
M  V30 5786 N 561.678 -1.56367 -0.196722 0
M  V30 5787 C 562.628 -1.9082 -1.24787 0
M  V30 5788 C 563.612 -0.773719 -1.41076 0
M  V30 5789 O 564.804 -1.03655 -1.43474 0
M  V30 5790 C 561.933 -2.24982 -2.59303 0
M  V30 5791 C 561.019 -3.44882 -2.46814 0
M  V30 5792 N 561.41 -4.62835 -2.04003 0
M  V30 5793 C 559.708 -3.48988 -2.77711 0
M  V30 5794 C 560.409 -5.44993 -2.03366 0
M  V30 5795 N 559.385 -4.85356 -2.44807 0
M  V30 5796 H 563.187 -2.79516 -0.908175 0
M  V30 5797 H 560.701 -1.57265 -0.405166 0
M  V30 5798 H 562.698 -2.47848 -3.35227 0
M  V30 5799 H 561.358 -1.37611 -2.94098 0
M  V30 5800 H 562.369 -4.87532 -1.74738 0
M  V30 5801 H 559.046 -2.72029 -3.16712 0
M  V30 5802 H 560.436 -6.49464 -1.72181 0
M  V30 5803 N 563.156 0.464375 -1.50603 0
M  V30 5804 C 564.405 1.21277 -1.61167 0
M  V30 5805 C 564.718 1.92953 -0.320704 0
M  V30 5806 O 565.924 2.69778 -0.30534 0
M  V30 5807 C 564.38 2.20403 -2.84518 0
M  V30 5808 C 563.988 1.54499 -4.20516 0
M  V30 5809 C 565.732 2.95843 -3.0443 0
M  V30 5810 C 563.639 2.51951 -5.35047 0
M  V30 5811 H 562.569 0.456367 -0.600204 0
M  V30 5812 H 565.22 0.48254 -1.77042 0
M  V30 5813 H 563.602 2.96746 -2.62217 0
M  V30 5814 H 564.776 0.83899 -4.53098 0
M  V30 5815 H 563.091 0.913152 -4.06264 0
M  V30 5816 H 565.688 3.6879 -3.87167 0
M  V30 5817 H 566.031 3.55622 -2.16423 0
M  V30 5818 H 566.564 2.26611 -3.26944 0
M  V30 5819 H 563.303 1.96901 -6.25228 0
M  V30 5820 H 562.823 3.20683 -5.06875 0
M  V30 5821 H 564.502 3.13643 -5.65895 0
M  V30 5822 N 564.634 1.40294 0.718013 0
M  V30 5823 C 565.881 1.3844 1.47786 0
M  V30 5824 C 566.209 -0.0140838 1.94495 0
M  V30 5825 O 565.464 -0.998165 1.68331 0
M  V30 5826 C 565.763 2.31814 2.72024 0
M  V30 5827 C 565.429 3.79117 2.44093 0
M  V30 5828 C 564.091 4.19249 2.36185 0
M  V30 5829 C 566.443 4.72212 2.20602 0
M  V30 5830 C 563.771 5.50516 2.02851 0
M  V30 5831 C 566.123 6.03775 1.88781 0
M  V30 5832 C 564.787 6.42953 1.79354 0
M  V30 5833 H 564.057 0.506588 0.540786 0
M  V30 5834 H 566.704 1.72929 0.822663 0
M  V30 5835 H 565.009 1.90501 3.42369 0
M  V30 5836 H 566.706 2.27664 3.30106 0
M  V30 5837 H 563.296 3.47318 2.51133 0
M  V30 5838 H 567.48 4.42026 2.25669 0
M  V30 5839 H 562.736 5.79776 1.94088 0
M  V30 5840 H 566.91 6.75428 1.69617 0
M  V30 5841 H 564.537 7.44584 1.53291 0
M  V30 5842 N 566.112 -0.949982 1.2575 0
M  V30 5843 C 567.337 -1.73503 1.13628 0
M  V30 5844 C 567.762 -1.85601 -0.30559 0
M  V30 5845 O 567.12 -1.33984 -1.22139 0
M  V30 5846 C 567.168 -3.1243 1.80055 0
M  V30 5847 O 566.272 -3.97916 1.08336 0
M  V30 5848 H 565.613 -0.532665 0.396439 0
M  V30 5849 H 568.143 -1.19043 1.66403 0
M  V30 5850 H 568.153 -3.62866 1.86527 0
M  V30 5851 H 566.828 -3.02941 2.84956 0
M  V30 5852 H 565.405 -3.56375 1.09777 0
M  V30 5853 N 567.59 -1.07411 -1.15328 0
M  V30 5854 C 568.839 -0.792643 -1.85473 0
M  V30 5855 C 569.152 0.683789 -1.83259 0
M  V30 5856 O 570.358 1.08005 -2.49093 0
M  V30 5857 C 568.814 -1.36787 -3.32892 0
M  V30 5858 C 568.422 -2.87536 -3.43551 0
M  V30 5859 C 570.166 -1.16444 -4.08217 0
M  V30 5860 C 568.073 -3.38247 -4.85122 0
M  V30 5861 H 567.003 -0.292838 -0.694811 0
M  V30 5862 H 569.654 -1.29426 -1.30082 0
M  V30 5863 H 568.036 -0.793993 -3.87958 0
M  V30 5864 H 569.21 -3.50973 -2.98588 0
M  V30 5865 H 567.525 -3.06676 -2.81672 0
M  V30 5866 H 570.122 -1.51808 -5.12697 0
M  V30 5867 H 570.465 -0.10353 -4.16171 0
M  V30 5868 H 570.998 -1.70472 -3.59422 0
M  V30 5869 H 567.737 -4.43866 -4.82351 0
M  V30 5870 H 567.257 -2.79564 -5.30664 0
M  V30 5871 H 568.936 -3.34238 -5.5398 0
M  V30 5872 N 569.068 1.32177 -0.85831 0
M  V30 5873 C 569.978 2.32561 -0.308606 0
M  V30 5874 C 570.994 1.64209 0.575462 0
M  V30 5875 O 572.17 1.95719 0.474961 0
M  V30 5876 C 569.235 3.43207 0.490909 0
M  V30 5877 C 568.296 4.27243 -0.419733 0
M  V30 5878 C 567.529 5.32605 0.341719 0
M  V30 5879 O 567.752 5.48332 1.57125 0
M  V30 5880 O 566.686 6.0118 -0.294379 0
M  V30 5881 H 570.512 2.81477 -1.14037 0
M  V30 5882 H 568.097 1.35866 -0.621349 0
M  V30 5883 H 569.979 4.10677 0.944574 0
M  V30 5884 H 568.654 2.96474 1.29941 0
M  V30 5885 H 567.561 3.62569 -0.921652 0
M  V30 5886 H 568.894 4.7751 -1.19352 0
M  V30 5887 N 570.547 0.616602 1.45037 0
M  V30 5888 C 571.793 0.123965 2.03022 0
M  V30 5889 C 572.148 -1.23508 1.47525 0
M  V30 5890 O 571.441 -1.80453 0.643981 0
M  V30 5891 C 571.635 0.0356829 3.57382 0
M  V30 5892 C 571.464 1.38462 4.27853 0
M  V30 5893 C 570.234 1.96766 4.65415 0
M  V30 5894 C 572.432 2.31536 4.59234 0
M  V30 5895 N 570.414 3.25046 5.20786 0
M  V30 5896 C 571.785 3.4442 5.15533 0
M  V30 5897 C 573.84 2.30796 4.41178 0
M  V30 5898 C 572.543 4.56742 5.55679 0
M  V30 5899 C 574.569 3.42171 4.82362 0
M  V30 5900 C 573.931 4.53778 5.38762 0
M  V30 5901 H 570.03 0.0889428 0.776925 0
M  V30 5902 H 572.614 0.816925 1.76733 0
M  V30 5903 H 570.785 -0.62652 3.83314 0
M  V30 5904 H 572.517 -0.464443 4.02026 0
M  V30 5905 H 569.272 1.4987 4.49261 0
M  V30 5906 H 569.696 3.90592 5.52962 0
M  V30 5907 H 574.338 1.45765 3.96878 0
M  V30 5908 H 572.056 5.42491 5.9894 0
M  V30 5909 H 575.642 3.42757 4.70116 0
M  V30 5910 H 574.522 5.38536 5.70043 0
M  V30 5911 N 572.025 -1.5352 0.356285 0
M  V30 5912 C 573.302 -1.93405 -0.292223 0
M  V30 5913 C 573.682 -1.28901 -1.67176 0
M  V30 5914 O 573.03 -0.444632 -2.24132 0
M  V30 5915 C 573.24 -3.47223 -0.35175 0
M  V30 5916 C 574.588 -4.20389 -0.596534 0
M  V30 5917 O 575.612 -3.53554 -0.433344 0
M  V30 5918 O 574.471 -5.3881 -0.913589 0
M  V30 5919 H 571.565 -0.808666 -0.173172 0
M  V30 5920 H 574.111 -1.64713 0.408391 0
M  V30 5921 H 572.883 -3.86423 0.615841 0
M  V30 5922 H 572.506 -3.8212 -1.09864 0
M  V30 5923 N 573.503 -0.0852151 -1.57369 0
M  V30 5924 C 574.413 0.891712 -2.16992 0
M  V30 5925 C 575.429 1.3174 -1.13669 0
M  V30 5926 O 576.605 1.38735 -1.45995 0
M  V30 5927 C 573.67 2.13635 -2.73059 0
M  V30 5928 C 572.731 1.7658 -3.91303 0
M  V30 5929 C 571.964 2.95111 -4.44686 0
M  V30 5930 O 572.187 4.09539 -3.97032 0
M  V30 5931 O 571.121 2.74149 -5.35841 0
M  V30 5932 H 574.947 0.414477 -3.00858 0
M  V30 5933 H 572.532 0.138598 -1.48756 0
M  V30 5934 H 574.414 2.86595 -3.08935 0
M  V30 5935 H 573.089 2.6043 -1.92244 0
M  V30 5936 H 571.996 1.00831 -3.60255 0
M  V30 5937 H 573.329 1.34557 -4.7345 0
M  V30 5938 N 574.981 1.5647 0.188427 0
M  V30 5939 C 576.258 1.71857 0.934058 0
M  V30 5940 C 576.638 0.641867 2.01105 0
M  V30 5941 O 575.986 -0.346098 2.25864 0
M  V30 5942 C 576.196 3.14431 1.5144 0
M  V30 5943 C 577.544 3.74869 1.99396 0
M  V30 5944 O 578.568 3.17601 1.61269 0
M  V30 5945 O 577.427 4.75387 2.69573 0
M  V30 5946 H 574.521 0.701186 0.438483 0
M  V30 5947 H 577.067 1.68768 0.177599 0
M  V30 5948 H 575.839 3.8427 0.738416 0
M  V30 5949 H 575.462 3.21775 2.33552 0
M  V30 5950 N 576.459 -0.456382 1.50847 0
M  V30 5951 C 577.369 -1.57805 1.73594 0
M  V30 5952 C 578.385 -1.62599 0.619476 0
M  V30 5953 O 579.561 -1.80195 0.899532 0
M  V30 5954 C 576.626 -2.93926 1.8387 0
M  V30 5955 C 575.687 -2.99402 3.07663 0
M  V30 5956 C 574.92 -4.29031 3.1744 0
M  V30 5957 O 575.143 -5.20358 2.33631 0
M  V30 5958 O 574.077 -4.40401 4.10281 0
M  V30 5959 H 577.903 -1.41531 2.68705 0
M  V30 5960 H 575.488 -0.637422 1.3512 0
M  V30 5961 H 577.37 -3.74747 1.92725 0
M  V30 5962 H 576.045 -3.10368 0.91944 0
M  V30 5963 H 574.952 -2.17606 3.043 0
M  V30 5964 H 576.285 -2.87901 3.99216 0
M  V30 5965 N 577.937 -1.40673 -0.710563 0
M  V30 5966 C 579.183 -1.39428 -1.47267 0
M  V30 5967 C 579.516 0.00182129 -1.942 0
M  V30 5968 O 578.791 0.971387 -1.68506 0
M  V30 5969 C 579.074 -2.38812 -2.6952 0
M  V30 5970 C 578.927 -3.87467 -2.28449 0
M  V30 5971 C 580.246 -2.3566 -3.71689 0
M  V30 5972 H 577.365 -0.507768 -0.534173 0
M  V30 5973 H 580.007 -1.71843 -0.810547 0
M  V30 5974 H 578.157 -2.113 -3.26013 0
M  V30 5975 H 579.829 -4.25825 -1.77399 0
M  V30 5976 H 578.072 -4.03058 -1.60395 0
M  V30 5977 H 578.743 -4.5253 -3.16103 0
M  V30 5978 H 581.219 -2.6004 -3.24836 0
M  V30 5979 H 580.095 -3.07237 -4.54859 0
M  V30 5980 H 580.356 -1.36996 -4.20339 0
M  V30 5981 N 579.415 0.9433 -1.26252 0
M  V30 5982 C 580.325 2.07532 -1.09397 0
M  V30 5983 C 581.341 1.73977 -0.0280449 0
M  V30 5984 O 582.517 2.00067 -0.231337 0
M  V30 5985 C 579.582 3.39002 -0.726523 0
M  V30 5986 C 578.643 3.86353 -1.87163 0
M  V30 5987 C 577.876 5.11549 -1.52162 0
M  V30 5988 O 578.099 5.68834 -0.422385 0
M  V30 5989 O 577.033 5.53889 -2.35565 0
M  V30 5990 H 580.859 2.24658 -2.04359 0
M  V30 5991 H 578.444 1.05988 -1.05295 0
M  V30 5992 H 580.326 4.18 -0.534236 0
M  V30 5993 H 579.001 3.2312 0.193721 0
M  V30 5994 H 577.908 3.0831 -2.11886 0
M  V30 5995 H 579.241 4.06752 -2.77152 0
M  V30 5996 N 580.893 1.08022 1.14757 0
M  V30 5997 C 582.139 0.818552 1.86202 0
M  V30 5998 C 582.494 -0.648563 1.81139 0
M  V30 5999 O 581.787 -1.4704 1.22841 0
M  V30 6000 C 581.981 1.26964 3.34088 0
M  V30 6001 C 581.81 2.77907 3.5355 0
M  V30 6002 C 580.58 3.45604 3.68627 0
M  V30 6003 C 582.778 3.7609 3.50801 0
M  V30 6004 N 580.76 4.85119 3.76209 0
M  V30 6005 C 582.131 5.0148 3.64579 0
M  V30 6006 C 584.186 3.6915 3.34115 0
M  V30 6007 C 582.889 6.20755 3.63395 0
M  V30 6008 C 584.915 4.87896 3.34233 0
M  V30 6009 C 584.277 6.12123 3.48547 0
M  V30 6010 H 580.376 0.352186 0.698204 0
M  V30 6011 H 582.96 1.37781 1.37567 0
M  V30 6012 H 581.131 0.738008 3.81324 0
M  V30 6013 H 582.863 0.954806 3.93275 0
M  V30 6014 H 579.618 2.96016 3.69691 0
M  V30 6015 H 580.042 5.57748 3.83726 0
M  V30 6016 H 584.684 2.74045 3.21961 0
M  V30 6017 H 582.402 7.16175 3.74326 0
M  V30 6018 H 585.988 4.8421 3.2254 0
M  V30 6019 H 584.868 7.02468 3.48581 0
M  V30 6020 N 582.371 -1.3172 0.865308 0
M  V30 6021 C 583.601 -2.00765 0.487543 0
M  V30 6022 C 584.009 -1.65145 -0.92325 0
M  V30 6023 O 583.352 -0.874294 -1.61561 0
M  V30 6024 C 583.414 -3.55122 0.559369 0
M  V30 6025 C 583.078 -4.14202 1.93095 0
M  V30 6026 C 584.075 -4.3165 2.89784 0
M  V30 6027 C 581.76 -4.50036 2.23099 0
M  V30 6028 C 583.754 -4.84114 4.14623 0
M  V30 6029 C 581.441 -5.02203 3.48189 0
M  V30 6030 C 582.439 -5.19192 4.43767 0
M  V30 6031 O 582.127 -5.70241 5.6664 0
M  V30 6032 H 581.859 -0.649066 0.188915 0
M  V30 6033 H 584.413 -1.69032 1.16694 0
M  V30 6034 H 582.643 -3.86295 -0.176926 0
M  V30 6035 H 584.332 -4.05428 0.195694 0
M  V30 6036 H 585.098 -4.04288 2.6791 0
M  V30 6037 H 580.977 -4.36091 1.49485 0
M  V30 6038 H 584.521 -4.9729 4.89233 0
M  V30 6039 H 580.418 -5.28997 3.69908 0
M  V30 6040 H 581.186 -5.88617 5.68746 0
M  V30 6041 N 583.85 -0.624285 -1.44708 0
M  V30 6042 C 585.096 -0.126237 -2.02407 0
M  V30 6043 C 585.428 1.24618 -1.48943 0
M  V30 6044 O 584.704 1.82569 -0.670742 0
M  V30 6045 C 584.986 -0.105449 -3.59946 0
M  V30 6046 C 584.84 -1.50972 -4.23707 0
M  V30 6047 C 586.159 0.573629 -4.36346 0
M  V30 6048 H 583.278 -0.0473472 -0.735478 0
M  V30 6049 H 585.92 -0.799452 -1.72362 0
M  V30 6050 H 584.07 0.46783 -3.85673 0
M  V30 6051 H 585.742 -2.13136 -4.0911 0
M  V30 6052 H 583.985 -2.0656 -3.81465 0
M  V30 6053 H 584.656 -1.44727 -5.32689 0
M  V30 6054 H 587.132 0.0861787 -4.16011 0
M  V30 6055 H 586.008 0.557338 -5.46063 0
M  V30 6056 H 586.269 1.64276 -4.10446 0
M  V30 6057 N 585.328 1.53329 -0.364422 0
M  V30 6058 C 586.605 1.93557 0.281962 0
M  V30 6059 C 586.985 1.29786 1.6649 0
M  V30 6060 O 586.333 0.456512 2.23893 0
M  V30 6061 C 586.543 3.47405 0.333331 0
M  V30 6062 C 587.891 4.20699 0.574231 0
M  V30 6063 O 588.915 3.53779 0.414588 0
M  V30 6064 O 587.774 5.39287 0.885002 0
M  V30 6065 H 584.868 0.809573 0.168881 0
M  V30 6066 H 587.414 1.64494 -0.417121 0
M  V30 6067 H 586.186 3.86091 -0.636326 0
M  V30 6068 H 585.809 3.82697 1.07836 0
M  V30 6069 N 586.806 0.0935595 1.57322 0
M  V30 6070 C 588.054 -0.569383 1.93913 0
M  V30 6071 C 588.375 -1.68817 0.976009 0
M  V30 6072 O 587.645 -1.9588 0.0278099 0
M  V30 6073 H 586.225 -0.21332 0.715894 0
M  V30 6074 H 588.887 0.156531 1.9427 0
M  V30 6075 H 587.983 -0.980577 2.96296 0
M  V30 6076 N 588.284 -1.56567 -0.180126 0
M  V30 6077 C 589.216 -1.92275 -1.24751 0
M  V30 6078 C 590.229 -0.814922 -1.40936 0
M  V30 6079 O 591.418 -1.09336 -1.41095 0
M  V30 6080 C 588.518 -2.15265 -2.61752 0
M  V30 6081 C 587.691 -3.46467 -2.66981 0
M  V30 6082 C 586.75 -3.58391 -3.85283 0
M  V30 6083 O 585.776 -4.31086 -3.7169 0
M  V30 6084 N 586.978 -2.92587 -5.01371 0
M  V30 6085 H 589.743 -2.84435 -0.944302 0
M  V30 6086 H 587.304 -1.57617 -0.369952 0
M  V30 6087 H 589.296 -2.20515 -3.39345 0
M  V30 6088 H 587.866 -1.29533 -2.845 0
M  V30 6089 H 587.086 -3.52953 -1.75549 0
M  V30 6090 H 588.374 -4.32819 -2.67479 0
M  V30 6091 H 587.772 -2.3338 -5.15316 0
M  V30 6092 H 586.329 -3.03444 -5.76858 0
M  V30 6093 N 589.762 0.448376 -1.51087 0
M  V30 6094 C 590.692 1.55102 -1.74544 0
M  V30 6095 C 591.673 1.59357 -0.594932 0
M  V30 6096 O 592.858 1.75261 -0.836491 0
M  V30 6097 C 589.988 2.93268 -1.86041 0
M  V30 6098 C 588.942 3.03877 -3.01402 0
M  V30 6099 C 588.268 4.43914 -2.98068 0
M  V30 6100 C 589.568 2.7898 -4.41551 0
M  V30 6101 H 591.262 1.35724 -2.66869 0
M  V30 6102 H 588.808 0.651498 -1.28419 0
M  V30 6103 H 590.761 3.70356 -2.01034 0
M  V30 6104 H 589.485 3.13853 -0.903548 0
M  V30 6105 H 588.144 2.29227 -2.86096 0
M  V30 6106 H 587.792 4.6145 -2.00182 0
M  V30 6107 H 587.492 4.51944 -3.75527 0
M  V30 6108 H 589.016 5.22991 -3.1514 0
M  V30 6109 H 590.43 3.45805 -4.57265 0
M  V30 6110 H 588.827 2.98431 -5.20633 0
M  V30 6111 H 589.897 1.74663 -4.5235 0
M  V30 6112 N 591.24 1.41047 0.703093 0
M  V30 6113 C 592.47 1.43133 1.48985 0
M  V30 6114 C 592.878 0.0328537 1.89171 0
M  V30 6115 O 592.221 -0.956469 1.56835 0
M  V30 6116 C 592.283 2.26991 2.78775 0
M  V30 6117 C 591.947 3.7525 2.60837 0
M  V30 6118 C 592.944 4.67591 2.27276 0
M  V30 6119 C 590.629 4.19208 2.76712 0
M  V30 6120 C 592.623 6.01877 2.09817 0
M  V30 6121 C 590.31 5.53561 2.5887 0
M  V30 6122 C 591.308 6.4471 2.25472 0
M  V30 6123 O 590.996 7.76584 2.07778 0
M  V30 6124 H 590.728 0.489788 0.465922 0
M  V30 6125 H 593.282 1.85886 0.873822 0
M  V30 6126 H 591.512 1.79038 3.42757 0
M  V30 6127 H 593.201 2.20867 3.40547 0
M  V30 6128 H 593.967 4.34923 2.14633 0
M  V30 6129 H 589.846 3.48572 3.01693 0
M  V30 6130 H 593.39 6.72986 1.83671 0
M  V30 6131 H 589.287 5.85811 2.71102 0
M  V30 6132 H 590.055 7.87649 2.22601 0
M  V30 6133 N 592.718 -0.936591 1.26751 0
M  V30 6134 C 593.668 -2.0219 1.05371 0
M  V30 6135 C 594.652 -1.60893 -0.0154112 0
M  V30 6136 O 595.844 -1.75843 0.202085 0
M  V30 6137 C 592.973 -3.36222 0.693541 0
M  V30 6138 C 592.059 -3.8399 1.80035 0
M  V30 6139 N 592.45 -4.0436 3.03852 0
M  V30 6140 C 590.748 -4.12945 1.685 0
M  V30 6141 C 591.449 -4.44 3.75818 0
M  V30 6142 N 590.425 -4.50966 3.03531 0
M  V30 6143 H 594.227 -2.15958 1.99347 0
M  V30 6144 H 591.741 -1.12277 1.17335 0
M  V30 6145 H 593.738 -4.13625 0.521513 0
M  V30 6146 H 592.398 -3.23821 -0.238693 0
M  V30 6147 H 593.409 -3.9092 3.39709 0
M  V30 6148 H 590.086 -4.09308 0.822986 0
M  V30 6149 H 591.476 -4.67914 4.82189 0
M  V30 6150 N 594.196 -1.08629 -1.14182 0
M  V30 6151 C 595.442 -0.818556 -1.85546 0
M  V30 6152 C 595.775 0.654076 -1.82854 0
M  V30 6153 O 595.05 1.48099 -1.26083 0
M  V30 6154 C 595.333 -1.34397 -3.3408 0
M  V30 6155 C 595.186 -2.8821 -3.45333 0
M  V30 6156 C 596.505 -0.971069 -4.29253 0
M  V30 6157 H 593.624 -0.298821 -0.673702 0
M  V30 6158 H 596.266 -1.34629 -1.34071 0
M  V30 6159 H 594.416 -0.895064 -3.78049 0
M  V30 6160 H 596.088 -3.41488 -3.10134 0
M  V30 6161 H 594.331 -3.25756 -2.86471 0
M  V30 6162 H 595.002 -3.20047 -4.49749 0
M  V30 6163 H 597.478 -1.35809 -3.93313 0
M  V30 6164 H 596.354 -1.36586 -5.31635 0
M  V30 6165 H 596.615 0.121659 -4.41933 0
M  V30 6166 N 595.674 1.31259 -0.872281 0
M  V30 6167 C 596.604 2.30929 -0.345554 0
M  V30 6168 C 597.585 1.60449 0.5648 0
M  V30 6169 O 598.77 1.8814 0.481335 0
M  V30 6170 C 595.9 3.44348 0.451823 0
M  V30 6171 C 594.854 4.26435 -0.365641 0
M  V30 6172 C 594.18 5.31785 0.557562 0
M  V30 6173 C 595.48 4.97159 -1.60095 0
M  V30 6174 H 597.174 2.75234 -1.17841 0
M  V30 6175 H 594.72 1.3232 -0.568094 0
M  V30 6176 H 596.673 4.13128 0.830854 0
M  V30 6177 H 595.397 2.98816 1.31821 0
M  V30 6178 H 594.056 3.59326 -0.726649 0
M  V30 6179 H 593.704 4.82502 1.4213 0
M  V30 6180 H 593.404 5.87598 0.0144878 0
M  V30 6181 H 594.928 6.03424 0.933387 0
M  V30 6182 H 596.342 5.58523 -1.29323 0
M  V30 6183 H 594.739 5.62779 -2.08327 0
M  V30 6184 H 595.809 4.24012 -2.35249 0
M  V30 6185 N 597.152 0.631951 1.44375 0
M  V30 6186 C 598.377 0.142146 2.06912 0
M  V30 6187 C 598.802 -1.17456 1.4692 0
M  V30 6188 O 598.16 -1.72074 0.570975 0
M  V30 6189 C 598.208 0.0417952 3.60576 0
M  V30 6190 O 597.312 -1.00194 4.00044 0
M  V30 6191 H 596.653 0.0851491 0.658518 0
M  V30 6192 H 599.183 0.868863 1.85235 0
M  V30 6193 H 599.193 -0.148517 4.0773 0
M  V30 6194 H 597.868 1.0031 4.03622 0
M  V30 6195 H 596.445 -0.786131 3.64519 0
M  V30 6196 N 598.631 -1.53133 0.372548 0
M  V30 6197 C 599.578 -2.25951 -0.470631 0
M  V30 6198 C 600.548 -1.26895 -1.07176 0
M  V30 6199 O 601.733 -1.55691 -1.10294 0
M  V30 6200 C 598.873 -3.05726 -1.6008 0
M  V30 6201 C 597.986 -4.19684 -1.02416 0
M  V30 6202 C 597.121 -4.86888 -2.124 0
M  V30 6203 C 596.16 -5.92866 -1.52238 0
M  V30 6204 N 595.297 -6.53732 -2.56084 0
M  V30 6205 H 600.137 -2.97587 0.156816 0
M  V30 6206 H 597.674 -1.4683 0.0891571 0
M  V30 6207 H 599.632 -3.50258 -2.26661 0
M  V30 6208 H 598.262 -2.36331 -2.1988 0
M  V30 6209 H 597.314 -3.79588 -0.248426 0
M  V30 6210 H 598.626 -4.95821 -0.544366 0
M  V30 6211 H 597.78 -5.34638 -2.86787 0
M  V30 6212 H 596.519 -4.10239 -2.63734 0
M  V30 6213 H 595.524 -5.4447 -0.763685 0
M  V30 6214 H 596.749 -6.71439 -1.0172 0
M  V30 6215 H 594.695 -5.79932 -3.06618 0
M  V30 6216 H 594.612 -7.25429 -2.12811 0
M  V30 6217 H 595.88 -7.0613 -3.30152 0
M  V30 6218 N 600.109 -0.101901 -1.5727 0
M  V30 6219 C 601.386 0.602832 -1.86079 0
M  V30 6220 C 601.766 1.85912 -1 0
M  V30 6221 O 601.114 2.28379 -0.0742488 0
M  V30 6222 C 601.324 0.911694 -3.36881 0
M  V30 6223 C 602.672 1.2722 -4.05093 0
M  V30 6224 O 603.696 1.0025 -3.41802 0
M  V30 6225 O 602.555 1.7776 -5.16782 0
M  V30 6226 H 599.649 0.302366 -0.769743 0
M  V30 6227 H 602.195 -0.135113 -1.69161 0
M  V30 6228 H 600.967 0.0207256 -3.91295 0
M  V30 6229 H 600.59 1.70538 -3.59169 0
M  V30 6230 N 601.587 1.56661 0.17182 0
M  V30 6231 C 602.497 1.99604 1.2327 0
M  V30 6232 C 603.513 0.907333 1.4847 0
M  V30 6233 O 604.689 1.21492 1.60629 0
M  V30 6234 C 601.754 2.34685 2.55194 0
M  V30 6235 C 600.815 3.57381 2.3786 0
M  V30 6236 C 600.048 3.90779 3.63494 0
M  V30 6237 O 600.271 3.25152 4.6865 0
M  V30 6238 O 599.205 4.84129 3.57634 0
M  V30 6239 H 603.031 2.90114 0.898192 0
M  V30 6240 H 600.616 1.44522 0.378647 0
M  V30 6241 H 602.498 2.5822 3.33017 0
M  V30 6242 H 601.173 1.47336 2.88225 0
M  V30 6243 H 600.08 3.39064 1.5807 0
M  V30 6244 H 601.413 4.45268 2.09754 0
M  V30 6245 N 603.065 -0.440357 1.51323 0
M  V30 6246 C 603.995 -1.54174 1.75364 0
M  V30 6247 C 604.976 -1.59039 0.603375 0
M  V30 6248 O 606.161 -1.74815 0.845774 0
M  V30 6249 C 603.291 -2.92277 1.87593 0
M  V30 6250 C 602.245 -3.02274 3.03009 0
M  V30 6251 C 601.571 -4.42327 3.00418 0
M  V30 6252 C 602.871 -2.76634 4.43024 0
M  V30 6253 H 604.565 -1.34307 2.67585 0
M  V30 6254 H 602.111 -0.644678 1.28763 0
M  V30 6255 H 604.064 -3.69284 2.02995 0
M  V30 6256 H 602.788 -3.13369 0.920179 0
M  V30 6257 H 601.447 -2.27706 2.87307 0
M  V30 6258 H 601.095 -4.60382 2.02626 0
M  V30 6259 H 600.795 -4.49946 3.77918 0
M  V30 6260 H 602.319 -5.21312 3.17909 0
M  V30 6261 H 603.733 -3.43376 4.59093 0
M  V30 6262 H 602.13 -2.95666 5.22208 0
M  V30 6263 H 603.2 -1.72262 4.5327 0
M  V30 6264 N 604.543 -1.41418 -0.695603 0
M  V30 6265 C 605.506 -1.42988 -1.79129 0
M  V30 6266 C 606.506 -0.320514 -1.57573 0
M  V30 6267 O 607.696 -0.58039 -1.64247 0
M  V30 6268 C 604.828 -1.24122 -3.175 0
M  V30 6269 H 606.021 -2.40526 -1.7913 0
M  V30 6270 H 603.574 -1.2756 -0.903225 0
M  V30 6271 H 604.309 -0.274253 -3.23138 0
M  V30 6272 H 604.094 -2.045 -3.34547 0
M  V30 6273 H 605.584 -1.28056 -3.97481 0
M  V30 6274 N 606.021 0.929856 -1.27246 0
M  V30 6275 C 606.931 2.0636 -1.11592 0
M  V30 6276 C 607.947 1.73938 -0.046496 0
M  V30 6277 O 609.123 1.9981 -0.252544 0
M  V30 6278 C 606.188 3.38213 -0.762437 0
M  V30 6279 C 605.249 3.84346 -1.9125 0
M  V30 6280 C 604.482 5.09906 -1.57579 0
M  V30 6281 O 604.705 5.68354 -0.482694 0
M  V30 6282 O 603.639 5.51359 -2.41426 0
M  V30 6283 H 607.465 2.22478 -2.0673 0
M  V30 6284 H 605.05 1.04865 -1.06413 0
M  V30 6285 H 606.932 4.1741 -0.57854 0
M  V30 6286 H 605.607 3.23307 0.159439 0
M  V30 6287 H 604.514 3.06045 -2.15144 0
M  V30 6288 H 605.847 4.0379 -2.81451 0
M  V30 6289 N 607.499 1.09233 1.13605 0
M  V30 6290 C 608.429 0.751738 2.21068 0
M  V30 6291 C 609.41 -0.269688 1.67948 0
M  V30 6292 O 610.595 -0.13819 1.93708 0
M  V30 6293 C 607.725 0.16935 3.46887 0
M  V30 6294 C 606.679 1.12007 4.13084 0
M  V30 6295 C 606.005 0.399483 5.33206 0
M  V30 6296 C 607.305 2.46168 4.6065 0
M  V30 6297 H 608.999 1.65024 2.49815 0
M  V30 6298 H 606.545 0.794905 1.20072 0
M  V30 6299 H 608.498 -0.0809824 4.21322 0
M  V30 6300 H 607.222 -0.764335 3.1753 0
M  V30 6301 H 605.881 1.35564 3.40614 0
M  V30 6302 H 605.529 -0.538277 5.00112 0
M  V30 6303 H 605.229 1.03337 5.78442 0
M  V30 6304 H 606.753 0.157403 6.10397 0
M  V30 6305 H 608.167 2.26829 5.26518 0
M  V30 6306 H 606.564 3.05326 5.1662 0
M  V30 6307 H 607.634 3.07076 3.75276 0
M  V30 6308 N 608.977 -1.30795 0.87923 0
M  V30 6309 C 610.225 -1.95974 0.493809 0
M  V30 6310 C 610.546 -1.69787 -0.959021 0
M  V30 6311 O 609.816 -1.01832 -1.67353 0
M  V30 6312 H 608.396 -0.725083 0.179622 0
M  V30 6313 H 611.058 -1.59432 1.12105 0
M  V30 6314 H 610.154 -3.05058 0.659263 0
M  V30 6315 N 610.455 -0.639598 -1.44038 0
M  V30 6316 C 611.385 0.0469443 -2.33453 0
M  V30 6317 C 612.366 0.82609 -1.48694 0
M  V30 6318 O 613.551 0.790285 -1.77393 0
M  V30 6319 C 610.681 1.02338 -3.3188 0
M  V30 6320 C 609.635 0.355284 -4.26523 0
M  V30 6321 C 608.961 1.44221 -5.14883 0
M  V30 6322 C 610.261 -0.743798 -5.16977 0
M  V30 6323 H 611.955 -0.699735 -2.91108 0
M  V30 6324 H 609.501 -0.337946 -1.39978 0
M  V30 6325 H 611.454 1.51247 -3.93322 0
M  V30 6326 H 610.178 1.80105 -2.72451 0
M  V30 6327 H 608.837 -0.113239 -3.66425 0
M  V30 6328 H 608.485 2.21097 -4.51802 0
M  V30 6329 H 608.185 1.00052 -5.79019 0
M  V30 6330 H 609.709 1.93295 -5.79197 0
M  V30 6331 H 611.123 -0.337444 -5.72306 0
M  V30 6332 H 609.52 -1.10914 -5.89761 0
M  V30 6333 H 610.59 -1.60745 -4.57481 0
M  V30 6334 N 611.933 1.52934 -0.380664 0
M  V30 6335 C 612.843 2.29921 0.466192 0
M  V30 6336 C 613.859 1.36488 1.07922 0
M  V30 6337 O 615.035 1.69553 1.0869 0
M  V30 6338 C 612.1 3.08468 1.58266 0
M  V30 6339 C 611.161 4.17595 0.995627 0
M  V30 6340 C 610.394 4.92387 2.05889 0
M  V30 6341 O 610.617 4.67184 3.27254 0
M  V30 6342 O 609.551 5.77949 1.68102 0
M  V30 6343 H 613.377 3.03274 -0.160735 0
M  V30 6344 H 610.962 1.48698 -0.144617 0
M  V30 6345 H 612.844 3.57469 2.23145 0
M  V30 6346 H 611.519 2.37937 2.19471 0
M  V30 6347 H 610.426 3.72811 0.310332 0
M  V30 6348 H 611.759 4.90336 0.427918 0
M  V30 6349 N 613.412 0.11024 1.57214 0
M  V30 6350 C 614.658 -0.544479 1.95977 0
M  V30 6351 C 615.013 -1.64845 0.992171 0
M  V30 6352 O 614.306 -1.91589 0.0206981 0
M  V30 6353 C 614.5 -1.13102 3.39032 0
M  V30 6354 C 614.329 -0.0854079 4.49619 0
M  V30 6355 C 613.099 0.343373 5.04132 0
M  V30 6356 C 615.297 0.692232 5.0962 0
M  V30 6357 N 613.279 1.37567 5.98288 0
M  V30 6358 C 614.65 1.57596 5.99636 0
M  V30 6359 C 616.705 0.744085 4.92309 0
M  V30 6360 C 615.408 2.50701 6.74197 0
M  V30 6361 C 617.434 1.6628 5.67543 0
M  V30 6362 C 616.796 2.53412 6.57238 0
M  V30 6363 H 612.895 -0.169124 0.763493 0
M  V30 6364 H 615.479 0.196326 1.93708 0
M  V30 6365 H 613.65 -1.84158 3.41965 0
M  V30 6366 H 615.382 -1.74934 3.64939 0
M  V30 6367 H 612.137 -0.0473277 4.73576 0
M  V30 6368 H 612.561 1.89048 6.50069 0
M  V30 6369 H 617.203 0.0845825 4.22715 0
M  V30 6370 H 614.921 3.17669 7.43043 0
M  V30 6371 H 618.507 1.70825 5.56156 0
M  V30 6372 H 617.387 3.23347 7.14434 0
M  V30 6373 N 614.89 -1.56749 -0.16351 0
M  V30 6374 C 616.136 -1.82704 -0.880168 0
M  V30 6375 C 616.469 -0.689311 -1.81555 0
M  V30 6376 O 615.744 0.308224 -1.92042 0
M  V30 6377 C 616.027 -3.19084 -1.66905 0
M  V30 6378 C 615.88 -4.43397 -0.756269 0
M  V30 6379 C 617.199 -3.52493 -2.63509 0
M  V30 6380 H 614.318 -0.664608 -0.318535 0
M  V30 6381 H 616.96 -1.89438 -0.146036 0
M  V30 6382 H 615.11 -3.13475 -2.2949 0
M  V30 6383 H 616.782 -4.61079 -0.14269 0
M  V30 6384 H 615.025 -4.33752 -0.0647944 0
M  V30 6385 H 615.696 -5.3539 -1.34393 0
M  V30 6386 H 618.172 -3.58606 -2.11047 0
M  V30 6387 H 617.048 -4.48979 -3.15767 0
M  V30 6388 H 617.309 -2.77597 -3.44082 0
M  V30 6389 N 616.368 0.432326 -1.51554 0
M  V30 6390 C 617.615 1.18134 -1.64471 0
M  V30 6391 C 617.943 1.91076 -0.363349 0
M  V30 6392 O 617.198 1.84492 0.65279 0
M  V30 6393 C 617.497 2.21907 -2.80164 0
M  V30 6394 C 617.163 1.65941 -4.19255 0
M  V30 6395 C 615.825 1.50401 -4.57092 0
M  V30 6396 C 618.177 1.24843 -5.06027 0
M  V30 6397 C 615.505 0.922443 -5.79403 0
M  V30 6398 C 617.857 0.68113 -6.28922 0
M  V30 6399 C 616.521 0.512673 -6.65528 0
M  V30 6400 H 615.791 0.432283 -0.601841 0
M  V30 6401 H 618.438 0.471701 -1.856 0
M  V30 6402 H 616.743 2.98928 -2.53277 0
M  V30 6403 H 618.44 2.79691 -2.87357 0
M  V30 6404 H 615.03 1.79014 -3.89425 0
M  V30 6405 H 619.214 1.35667 -4.77397 0
M  V30 6406 H 614.47 0.779733 -6.06408 0
M  V30 6407 H 618.644 0.35418 -6.95499 0
M  V30 6408 H 616.271 0.0599084 -7.60176 0
M  V30 6409 N 617.846 1.41785 0.688094 0
M  V30 6410 C 619.123 1.32031 1.44316 0
M  V30 6411 C 619.503 -0.0486079 2.11044 0
M  V30 6412 O 618.851 -1.06332 2.02252 0
M  V30 6413 C 619.061 2.47906 2.45649 0
M  V30 6414 C 620.409 2.89415 3.10683 0
M  V30 6415 O 621.433 2.477 2.55975 0
M  V30 6416 O 620.292 3.61573 4.09789 0
M  V30 6417 H 617.386 0.519994 0.643067 0
M  V30 6418 H 619.932 1.53765 0.71794 0
M  V30 6419 H 618.704 3.39222 1.95048 0
M  V30 6420 H 618.327 2.28089 3.25671 0
M  V30 6421 N 619.324 -0.923095 1.27737 0
M  V30 6422 C 620.274 -2.01061 1.0751 0
M  V30 6423 C 621.258 -1.609 0.00165451 0
M  V30 6424 O 622.45 -1.75618 0.220724 0
M  V30 6425 C 619.579 -3.35467 0.729162 0
M  V30 6426 C 618.665 -3.82059 1.84098 0
M  V30 6427 N 619.056 -4.01115 3.08124 0
M  V30 6428 C 617.354 -4.11135 1.7287 0
M  V30 6429 C 618.055 -4.39989 3.80506 0
M  V30 6430 N 617.031 -4.47721 3.08297 0
M  V30 6431 H 620.833 -2.13832 2.01626 0
M  V30 6432 H 618.347 -1.11027 1.18519 0
M  V30 6433 H 620.344 -4.13049 0.565355 0
M  V30 6434 H 619.004 -3.24056 -0.204334 0
M  V30 6435 H 620.015 -3.87294 3.43836 0
M  V30 6436 H 616.692 -4.08412 0.866352 0
M  V30 6437 H 618.082 -4.62773 4.87125 0
M  V30 6438 N 620.802 -1.09834 -1.13024 0
M  V30 6439 C 622.213 -0.855651 -1.65938 0
M  V30 6440 C 622.564 0.615159 -1.86307 0
M  V30 6441 O 621.689 1.47335 -1.58497 0
M  V30 6442 C 622.284 -1.5467 -3.01434 0
M  V30 6443 C 620.843 -1.35088 -3.51323 0
M  V30 6444 C 619.99 -1.6001 -2.26478 0
M  V30 6445 H 622.941 -1.25691 -0.968889 0
M  V30 6446 H 622.962 -0.982179 -3.67605 0
M  V30 6447 H 622.474 -2.61715 -2.86578 0
M  V30 6448 H 620.575 -0.30179 -3.71376 0
M  V30 6449 H 620.688 -2.0886 -4.31178 0
M  V30 6450 H 619.052 -1.02246 -2.33276 0
M  V30 6451 H 619.835 -2.68293 -2.14182 0
M  V30 6452 N 622.28 1.30327 -0.886154 0
M  V30 6453 C 623.527 1.96097 -0.505192 0
M  V30 6454 C 623.855 1.69952 0.945868 0
M  V30 6455 O 623.11 0.997653 1.68361 0
M  V30 6456 C 623.409 3.49906 -0.728042 0
M  V30 6457 C 623.075 3.96103 -2.15437 0
M  V30 6458 C 621.737 4.08428 -2.5444 0
M  V30 6459 C 624.089 4.20177 -3.08384 0
M  V30 6460 C 621.417 4.42189 -3.85598 0
M  V30 6461 C 623.769 4.55407 -4.39075 0
M  V30 6462 C 622.433 4.65941 -4.7797 0
M  V30 6463 H 621.703 0.71757 -0.184863 0
M  V30 6464 H 624.35 1.55171 -1.12223 0
M  V30 6465 H 622.655 3.9179 -0.027978 0
M  V30 6466 H 624.352 3.98869 -0.412862 0
M  V30 6467 H 620.942 3.87017 -1.84162 0
M  V30 6468 H 625.126 4.10134 -2.7947 0
M  V30 6469 H 620.382 4.48544 -4.15473 0
M  V30 6470 H 624.556 4.72986 -5.11133 0
M  V30 6471 H 622.183 4.91856 -5.79639 0
M  V30 6472 N 623.758 0.647228 1.43697 0
M  V30 6473 C 625.005 0.158188 2.01881 0
M  V30 6474 C 625.333 -1.22573 1.51017 0
M  V30 6475 O 624.588 -1.83086 0.69122 0
M  V30 6476 C 624.887 0.111481 3.57226 0
M  V30 6477 C 624.553 1.43633 4.27411 0
M  V30 6478 C 623.215 1.79915 4.463 0
M  V30 6479 C 625.567 2.31011 4.67208 0
M  V30 6480 C 622.895 3.03251 5.02251 0
M  V30 6481 C 625.247 3.53633 5.24525 0
M  V30 6482 C 623.911 3.90118 5.41631 0
M  V30 6483 H 623.181 0.0578851 0.738736 0
M  V30 6484 H 625.828 0.836746 1.72252 0
M  V30 6485 H 624.133 -0.650507 3.86362 0
M  V30 6486 H 625.83 -0.283682 3.99995 0
M  V30 6487 H 622.42 1.14403 4.1305 0
M  V30 6488 H 626.604 2.04272 4.52313 0
M  V30 6489 H 621.86 3.31575 5.13681 0
M  V30 6490 H 626.034 4.21561 5.5431 0
M  V30 6491 H 623.661 4.85768 5.84751 0
M  V30 6492 N 625.236 -1.5273 0.388769 0
M  V30 6493 C 626.166 -2.29353 -0.438111 0
M  V30 6494 C 627.147 -1.32719 -1.06394 0
M  V30 6495 O 628.332 -1.61612 -1.07681 0
M  V30 6496 C 625.462 -3.09995 -1.56589 0
M  V30 6497 C 624.416 -4.14509 -1.06613 0
M  V30 6498 C 623.742 -4.83372 -2.28594 0
M  V30 6499 C 625.042 -5.22127 -0.134459 0
M  V30 6500 H 626.736 -2.98723 0.201206 0
M  V30 6501 H 624.282 -1.43665 0.0982089 0
M  V30 6502 H 626.235 -3.62357 -2.15118 0
M  V30 6503 H 624.959 -2.38357 -2.23279 0
M  V30 6504 H 623.618 -3.63128 -0.503383 0
M  V30 6505 H 623.266 -4.08283 -2.93792 0
M  V30 6506 H 622.966 -5.54012 -1.95817 0
M  V30 6507 H 624.49 -5.38538 -2.87766 0
M  V30 6508 H 625.904 -5.69851 -0.627914 0
M  V30 6509 H 624.301 -6.00011 0.103534 0
M  V30 6510 H 625.371 -4.77971 0.816798 0
M  V30 6511 N 626.714 -0.118576 -1.57153 0
M  V30 6512 C 627.963 0.539339 -1.94355 0
M  V30 6513 C 628.276 1.67858 -1.00415 0
M  V30 6514 O 629.482 2.39922 -1.27081 0
M  V30 6515 C 627.938 1.01082 -3.45414 0
M  V30 6516 C 627.546 -0.0999402 -4.47889 0
M  V30 6517 C 629.29 1.64013 -3.91535 0
M  V30 6518 C 627.197 0.388212 -5.90124 0
M  V30 6519 H 626.127 0.205247 -0.725527 0
M  V30 6520 H 628.778 -0.19836 -1.82425 0
M  V30 6521 H 627.16 1.80292 -3.52577 0
M  V30 6522 H 628.334 -0.876189 -4.52393 0
M  V30 6523 H 626.649 -0.635885 -4.11516 0
M  V30 6524 H 629.246 2.01649 -4.95219 0
M  V30 6525 H 629.589 2.51836 -3.31488 0
M  V30 6526 H 630.122 0.913439 -3.87171 0
M  V30 6527 H 626.861 -0.453963 -6.53926 0
M  V30 6528 H 626.381 1.13095 -5.89041 0
M  V30 6529 H 628.06 0.849574 -6.41398 0
M  V30 6530 N 628.193 1.56834 0.155195 0
M  V30 6531 C 629.123 2.00678 1.19376 0
M  V30 6532 C 630.104 0.884973 1.45266 0
M  V30 6533 O 631.289 1.1522 1.56326 0
M  V30 6534 C 628.419 2.38042 2.5289 0
M  V30 6535 C 627.373 3.53332 2.41538 0
M  V30 6536 C 626.699 3.76485 3.79688 0
M  V30 6537 C 627.999 4.86265 1.9064 0
M  V30 6538 H 629.693 2.87688 0.829232 0
M  V30 6539 H 627.239 1.38407 0.397445 0
M  V30 6540 H 629.192 2.67314 3.25763 0
M  V30 6541 H 627.916 1.4796 2.91162 0
M  V30 6542 H 626.575 3.24213 1.71117 0
M  V30 6543 H 626.223 2.83667 4.15382 0
M  V30 6544 H 625.923 4.54068 3.72956 0
M  V30 6545 H 627.447 4.08174 4.54122 0
M  V30 6546 H 628.861 5.14308 2.53299 0
M  V30 6547 H 627.258 5.67597 1.94818 0
M  V30 6548 H 628.328 4.77184 0.861596 0
M  V30 6549 N 629.671 -0.424282 1.51781 0
M  V30 6550 C 630.619 -1.53649 1.74628 0
M  V30 6551 C 631.613 -1.57923 0.612922 0
M  V30 6552 O 632.819 -1.61511 0.794618 0
M  V30 6553 H 629.194 -0.510706 0.551981 0
M  V30 6554 H 631.165 -1.31558 2.67834 0
M  V30 6555 C 629.914 -2.91177 1.9003 0
M  V30 6556 H 629.237 -2.88625 2.76651 0
M  V30 6557 H 630.677 -3.6833 2.10021 0
M  V30 6558 C 629.136 -3.30303 0.663435 0
M  V30 6559 O 629.666 -4.01315 -0.175812 0
M  V30 6560 N 627.872 -2.86201 0.503723 0
M  V30 6561 H 627.419 -2.28583 1.18776 0
M  V30 6562 H 627.377 -3.12741 -0.322575 0
M  V30 6563 N 631.149 -1.42148 -0.680565 0
M  V30 6564 C 632.395 -1.42521 -1.44277 0
M  V30 6565 C 632.728 -0.0393718 -1.9416 0
M  V30 6566 O 632.003 0.935425 -1.70529 0
M  V30 6567 C 632.286 -2.44475 -2.64394 0
M  V30 6568 C 632.139 -3.92226 -2.20179 0
M  V30 6569 C 633.458 -2.43491 -3.66606 0
M  V30 6570 H 630.577 -0.518985 -0.523282 0
M  V30 6571 H 633.219 -1.73524 -0.773914 0
M  V30 6572 H 631.369 -2.18168 -3.21458 0
M  V30 6573 H 633.041 -4.29493 -1.68327 0
M  V30 6574 H 631.284 -4.0637 -1.5181 0
M  V30 6575 H 631.955 -4.59133 -3.06433 0
M  V30 6576 H 634.431 -2.66872 -3.19247 0
M  V30 6577 H 633.307 -3.16816 -4.4824 0
M  V30 6578 H 633.568 -1.45881 -4.17338 0
M  V30 6579 N 632.627 0.916307 -1.28225 0
M  V30 6580 C 633.59 1.99996 -1.11957 0
M  V30 6581 C 634.59 1.60688 -0.0600152 0
M  V30 6582 O 635.78 1.71499 -0.30558 0
M  V30 6583 C 632.912 3.33458 -0.708411 0
M  V30 6584 H 634.105 2.15858 -2.08196 0
M  V30 6585 H 631.658 1.09863 -1.11175 0
M  V30 6586 H 632.393 3.23297 0.254859 0
M  V30 6587 H 632.178 3.63349 -1.47377 0
M  V30 6588 H 633.668 4.13014 -0.617164 0
M  V30 6589 N 634.105 1.10431 1.1244 0
M  V30 6590 C 635.351 0.847972 1.84221 0
M  V30 6591 C 635.684 -0.624903 1.83871 0
M  V30 6592 O 634.959 -1.46074 1.28423 0
M  V30 6593 C 635.242 1.39695 3.319 0
M  V30 6594 C 635.095 2.93668 3.40704 0
M  V30 6595 C 636.414 1.03924 4.27654 0
M  V30 6596 H 633.533 0.309502 0.668863 0
M  V30 6597 H 636.175 1.36745 1.31912 0
M  V30 6598 H 634.325 0.955095 3.76577 0
M  V30 6599 H 635.997 3.46379 3.04662 0
M  V30 6600 H 634.24 3.30272 2.81252 0
M  V30 6601 H 634.911 3.27162 4.446 0
M  V30 6602 H 637.387 1.42049 3.91102 0
M  V30 6603 H 636.263 1.45027 5.29394 0
M  V30 6604 H 636.524 -0.051336 4.4207 0
M  V30 6605 N 635.583 -1.29855 0.893053 0
M  V30 6606 C 636.831 -1.9544 0.514566 0
M  V30 6607 C 637.152 -1.70795 -0.940959 0
M  V30 6608 O 636.422 -1.03601 -1.66264 0
M  V30 6609 H 635.002 -0.723137 0.187302 0
M  V30 6610 H 637.664 -1.58234 1.13789 0
M  V30 6611 H 636.76 -3.04341 0.691581 0
M  V30 6612 N 637.061 -0.65484 -1.43351 0
M  V30 6613 C 638.309 -0.168559 -2.01396 0
M  V30 6614 C 638.63 1.22235 -1.51933 0
M  V30 6615 O 637.9 1.81685 -0.732627 0
M  V30 6616 H 636.48 -0.0593244 -0.744641 0
M  V30 6617 H 639.142 -0.846871 -1.75539 0
M  V30 6618 H 638.238 -0.154428 -3.11718 0
M  V30 6619 N 638.539 1.52521 -0.396863 0
M  V30 6620 C 639.769 2.05792 0.182485 0
M  V30 6621 C 640.177 1.26784 1.40436 0
M  V30 6622 O 639.52 0.309617 1.81072 0
M  V30 6623 C 639.582 3.54291 0.609781 0
M  V30 6624 C 639.246 4.5426 -0.499674 0
M  V30 6625 C 640.243 5.01812 -1.35944 0
M  V30 6626 C 637.928 4.97827 -0.668864 0
M  V30 6627 C 639.922 5.91562 -2.37346 0
M  V30 6628 C 637.609 5.87376 -1.68621 0
M  V30 6629 C 638.607 6.34137 -2.53692 0
M  V30 6630 O 638.295 7.21915 -3.53686 0
M  V30 6631 H 638.027 0.675362 0.0293583 0
M  V30 6632 H 640.581 1.97539 -0.56281 0
M  V30 6633 H 638.811 3.60188 1.40717 0
M  V30 6634 H 640.5 3.90267 1.11565 0
M  V30 6635 H 641.266 4.68879 -1.24008 0
M  V30 6636 H 637.145 4.60997 -0.0163971 0
M  V30 6637 H 640.689 6.27983 -3.03782 0
M  V30 6638 H 636.586 6.19723 -1.80593 0
M  V30 6639 H 637.354 7.39996 -3.49784 0
M  V30 6640 N 640.017 0.126909 1.57088 0
M  V30 6641 C 641.263 -0.523662 1.96543 0
M  V30 6642 C 641.618 -1.63783 1.0096 0
M  V30 6643 O 640.911 -1.91556 0.0410175 0
M  V30 6644 C 641.105 -1.095 3.40212 0
M  V30 6645 C 640.934 -0.037715 4.49684 0
M  V30 6646 C 639.704 0.396823 5.03739 0
M  V30 6647 C 641.902 0.746245 5.08857 0
M  V30 6648 N 639.884 1.43905 5.96795 0
M  V30 6649 C 641.255 1.63947 5.97931 0
M  V30 6650 C 643.31 0.796259 4.91492 0
M  V30 6651 C 642.013 2.57837 6.715 0
M  V30 6652 C 644.039 1.7229 5.65747 0
M  V30 6653 C 643.401 2.60369 6.54513 0
M  V30 6654 H 639.5 -0.161016 0.765244 0
M  V30 6655 H 642.084 0.21686 1.93489 0
M  V30 6656 H 640.255 -1.80521 3.43899 0
M  V30 6657 H 641.987 -1.71054 3.66773 0
M  V30 6658 H 638.742 0.00290406 4.736 0
M  V30 6659 H 639.166 1.95932 6.48027 0
M  V30 6660 H 643.808 0.129412 4.22602 0
M  V30 6661 H 641.526 3.25532 7.39631 0
M  V30 6662 H 645.112 1.76715 5.54313 0
M  V30 6663 H 643.992 3.30906 7.10965 0
M  V30 6664 N 641.495 -1.56914 -0.146875 0
M  V30 6665 C 642.906 -1.72799 -0.706928 0
M  V30 6666 C 643.257 -0.741329 -1.81656 0
M  V30 6667 O 642.382 0.0920162 -2.16204 0
M  V30 6668 C 642.977 -3.13317 -1.28911 0
M  V30 6669 C 641.536 -3.30803 -1.79573 0
M  V30 6670 C 640.683 -2.68725 -0.684252 0
M  V30 6671 H 643.634 -1.58504 0.0787931 0
M  V30 6672 H 643.655 -3.13323 -2.15891 0
M  V30 6673 H 643.167 -3.85104 -0.481284 0
M  V30 6674 H 641.268 -2.64012 -2.62923 0
M  V30 6675 H 641.381 -4.38754 -1.92436 0
M  V30 6676 H 639.745 -2.29196 -1.11091 0
M  V30 6677 H 640.528 -3.43117 0.112134 0
M  V30 6678 N 642.974 0.416227 -1.52004 0
M  V30 6679 C 644.222 1.16153 -1.65387 0
M  V30 6680 C 644.543 1.91208 -0.382669 0
M  V30 6681 O 643.813 1.86413 0.602231 0
M  V30 6682 H 642.393 0.431765 -0.60958 0
M  V30 6683 H 645.055 0.475151 -1.89019 0
M  V30 6684 H 644.151 1.87952 -2.4916 0
M  V30 6685 N 644.452 1.42507 0.673017 0
M  V30 6686 C 645.682 1.46261 1.45916 0
M  V30 6687 C 646.09 0.0729724 1.89059 0
M  V30 6688 O 645.433 -0.922987 1.58829 0
M  V30 6689 C 645.495 2.32853 2.73898 0
M  V30 6690 C 645.159 3.80699 2.52819 0
M  V30 6691 C 646.156 4.72307 2.17306 0
M  V30 6692 C 643.841 4.24983 2.67758 0
M  V30 6693 C 645.835 6.06192 1.97003 0
M  V30 6694 C 643.522 5.58927 2.4707 0
M  V30 6695 C 644.52 6.49348 2.11746 0
M  V30 6696 O 644.208 7.80817 1.91259 0
M  V30 6697 H 643.94 0.499561 0.455428 0
M  V30 6698 H 646.494 1.87697 0.834196 0
M  V30 6699 H 644.724 1.86268 3.38882 0
M  V30 6700 H 646.413 2.28041 3.35786 0
M  V30 6701 H 647.179 4.39378 2.05359 0
M  V30 6702 H 643.058 3.54893 2.94231 0
M  V30 6703 H 646.602 6.76731 1.69355 0
M  V30 6704 H 642.499 5.91429 2.58615 0
M  V30 6705 H 643.267 7.92194 2.05843 0
M  V30 6706 N 645.93 -0.909495 1.28709 0
M  V30 6707 C 647.341 -1.47419 1.14563 0
M  V30 6708 C 647.692 -1.94432 -0.262832 0
M  V30 6709 O 646.817 -1.82842 -1.15748 0
M  V30 6710 C 647.412 -2.67933 2.07358 0
M  V30 6711 C 645.971 -3.20568 1.97264 0
M  V30 6712 C 645.118 -1.93269 1.98852 0
M  V30 6713 H 648.069 -0.721787 1.41336 0
M  V30 6714 H 648.09 -3.43339 1.64007 0
M  V30 6715 H 647.602 -2.33685 3.09859 0
M  V30 6716 H 645.703 -3.59531 0.978157 0
M  V30 6717 H 645.816 -3.85529 2.84436 0
M  V30 6718 H 644.18 -2.10553 1.43317 0
M  V30 6719 H 644.963 -1.61312 3.0304 0
M  V30 6720 N 647.408 -1.11026 -1.11852 0
M  V30 6721 C 648.685 -0.768347 -1.79877 0
M  V30 6722 C 649.065 0.744261 -1.97545 0
M  V30 6723 O 648.413 1.67271 -1.55669 0
M  V30 6724 C 648.623 -1.52648 -3.13846 0
M  V30 6725 C 649.971 -1.70297 -3.88953 0
M  V30 6726 O 650.995 -1.49037 -3.23522 0
M  V30 6727 O 649.854 -2.05593 -5.06353 0
M  V30 6728 H 646.948 -0.277891 -0.778913 0
M  V30 6729 H 649.494 -1.21343 -1.18633 0
M  V30 6730 H 648.266 -2.55564 -2.96315 0
M  V30 6731 H 647.889 -1.07466 -3.82801 0
M  V30 6732 N 648.886 1.2938 -0.899927 0
M  V30 6733 C 649.796 2.31462 -0.382437 0
M  V30 6734 C 650.812 1.65956 0.522929 0
M  V30 6735 O 651.988 1.97131 0.412454 0
M  V30 6736 C 649.053 3.44595 0.381472 0
M  V30 6737 C 648.114 4.25692 -0.555444 0
M  V30 6738 C 647.347 5.33422 0.172102 0
M  V30 6739 O 647.57 5.53053 1.396 0
M  V30 6740 O 646.504 5.99939 -0.485491 0
M  V30 6741 H 650.33 2.77706 -1.22934 0
M  V30 6742 H 647.915 1.33821 -0.664259 0
M  V30 6743 H 649.797 4.13474 0.813442 0
M  V30 6744 H 648.472 3.00458 1.20443 0
M  V30 6745 H 647.379 3.59453 -1.03653 0
M  V30 6746 H 648.712 4.73471 -1.34483 0
M  V30 6747 N 650.364 0.662433 1.43002 0
M  V30 6748 C 651.592 0.187615 2.06048 0
M  V30 6749 C 652.007 -1.15039 1.49705 0
M  V30 6750 O 651.364 -1.71209 0.631956 0
M  V30 6751 C 651.415 0.100498 3.6136 0
M  V30 6752 O 651.136 1.38562 4.15611 0
M  V30 6753 C 652.637 -0.399298 4.41498 0
M  V30 6754 H 649.857 0.0941675 0.664359 0
M  V30 6755 H 652.401 0.905681 1.83351 0
M  V30 6756 H 650.556 -0.568181 3.83211 0
M  V30 6757 H 650.97 1.25084 5.09366 0
M  V30 6758 H 652.444 -0.409187 5.50481 0
M  V30 6759 H 652.921 -1.43232 4.15188 0
M  V30 6760 H 653.527 0.23721 4.24638 0
M  V30 6761 N 651.842 -1.52309 0.404946 0
M  V30 6762 C 653.07 -2.06185 -0.171818 0
M  V30 6763 C 653.485 -1.27536 -1.39212 0
M  V30 6764 O 652.842 -0.326112 -1.79563 0
M  V30 6765 C 652.893 -3.57647 -0.526417 0
M  V30 6766 O 652.614 -4.3332 0.645417 0
M  V30 6767 C 654.115 -4.27925 -1.15736 0
M  V30 6768 H 651.335 -0.670632 -0.0222328 0
M  V30 6769 H 653.879 -1.96259 0.574692 0
M  V30 6770 H 652.034 -3.67595 -1.22282 0
M  V30 6771 H 652.448 -5.23328 0.35042 0
M  V30 6772 H 653.922 -5.35093 -1.35572 0
M  V30 6773 H 654.399 -3.84134 -2.12926 0
M  V30 6774 H 655.005 -4.22335 -0.501281 0
M  V30 6775 N 653.32 -0.135238 -1.57019 0
M  V30 6776 C 654.252 0.839675 -2.13265 0
M  V30 6777 C 655.265 1.21887 -1.07923 0
M  V30 6778 O 656.454 1.16499 -1.35241 0
M  V30 6779 C 653.554 2.13647 -2.63075 0
M  V30 6780 C 652.727 1.92646 -3.92691 0
M  V30 6781 C 651.786 3.06205 -4.27931 0
M  V30 6782 O 650.812 2.78409 -4.96465 0
M  V30 6783 N 652.014 4.33072 -3.86561 0
M  V30 6784 H 654.779 0.359026 -2.97542 0
M  V30 6785 H 652.34 0.0486979 -1.61827 0
M  V30 6786 H 654.332 2.88641 -2.8367 0
M  V30 6787 H 652.902 2.5301 -1.83588 0
M  V30 6788 H 652.122 1.01754 -3.80841 0
M  V30 6789 H 653.41 1.75939 -4.77413 0
M  V30 6790 H 652.808 4.58526 -3.31316 0
M  V30 6791 H 651.365 5.04885 -4.12231 0
M  V30 6792 N 654.798 1.5699 0.138552 0
M  V30 6793 C 656.045 1.83809 0.849732 0
M  V30 6794 C 656.373 0.717409 1.80786 0
M  V30 6795 O 655.628 -0.292897 1.93496 0
M  V30 6796 C 655.927 3.17007 1.65049 0
M  V30 6797 C 655.593 4.43037 0.838398 0
M  V30 6798 C 654.255 4.77262 0.614385 0
M  V30 6799 C 656.607 5.20495 0.271044 0
M  V30 6800 C 653.935 5.864 -0.187552 0
M  V30 6801 C 656.287 6.30476 -0.517979 0
M  V30 6802 C 654.951 6.63245 -0.75249 0
M  V30 6803 H 654.221 0.672605 0.310939 0
M  V30 6804 H 656.868 1.91166 0.112971 0
M  V30 6805 H 655.173 3.05138 2.4576 0
M  V30 6806 H 656.87 3.34975 2.20437 0
M  V30 6807 H 653.46 4.16211 1.02307 0
M  V30 6808 H 657.644 4.94422 0.431371 0
M  V30 6809 H 652.9 6.10226 -0.378659 0
M  V30 6810 H 657.074 6.89686 -0.964694 0
M  V30 6811 H 654.701 7.47648 -1.37573 0
M  V30 6812 N 656.276 -0.40816 1.52223 0
M  V30 6813 C 657.687 -0.986929 1.58482 0
M  V30 6814 C 658.038 -1.91521 0.425917 0
M  V30 6815 O 657.163 -2.11593 -0.453593 0
M  V30 6816 C 657.758 -1.7967 2.87235 0
M  V30 6817 C 656.317 -2.32549 2.9597 0
M  V30 6818 C 655.464 -1.12558 2.53428 0
M  V30 6819 H 658.415 -0.188362 1.57578 0
M  V30 6820 H 658.436 -2.65417 2.72642 0
M  V30 6821 H 657.948 -1.12082 3.71563 0
M  V30 6822 H 656.049 -3.03505 2.16137 0
M  V30 6823 H 656.162 -2.63348 4.00231 0
M  V30 6824 H 654.526 -1.47984 2.07299 0
M  V30 6825 H 655.309 -0.465351 3.40131 0
M  V30 6826 N 657.755 -1.42862 -0.66545 0
M  V30 6827 C 658.687 -1.43026 -1.79098 0
M  V30 6828 C 659.7 -0.32803 -1.59461 0
M  V30 6829 O 660.889 -0.591709 -1.68407 0
M  V30 6830 C 657.989 -1.21566 -3.16346 0
M  V30 6831 C 657.162 -2.44399 -3.62751 0
M  V30 6832 C 656.221 -2.18344 -4.78761 0
M  V30 6833 O 655.247 -2.91611 -4.88827 0
M  V30 6834 N 656.449 -1.1924 -5.68122 0
M  V30 6835 H 659.214 -2.40045 -1.79439 0
M  V30 6836 H 656.775 -1.37861 -0.848872 0
M  V30 6837 H 658.767 -1.02037 -3.91625 0
M  V30 6838 H 657.337 -0.330368 -3.10849 0
M  V30 6839 H 656.557 -2.79433 -2.78048 0
M  V30 6840 H 657.845 -3.26173 -3.90498 0
M  V30 6841 H 657.243 -0.586603 -5.6265 0
M  V30 6842 H 655.8 -1.05698 -6.43173 0
M  V30 6843 N 659.233 0.902656 -1.29189 0
M  V30 6844 C 660.649 1.18296 -1.07137 0
M  V30 6845 C 660.849 2.00701 0.179223 0
M  V30 6846 O 659.905 2.3675 0.877812 0
M  V30 6847 C 661.218 1.90677 -2.32514 0
M  V30 6848 C 662.766 2.03515 -2.37804 0
M  V30 6849 C 663.241 2.79307 -3.62976 0
M  V30 6850 N 664.732 2.86862 -3.63681 0
M  V30 6851 C 665.467 3.46035 -4.57217 0
M  V30 6852 N 664.963 4.06399 -5.61081 0
M  V30 6853 N 666.756 3.43681 -4.44792 0
M  V30 6854 H 658.907 0.352765 -2.0945 0
M  V30 6855 H 661.17 0.21876 -0.922414 0
M  V30 6856 H 660.876 1.3756 -3.23682 0
M  V30 6857 H 660.75 2.91169 -2.39793 0
M  V30 6858 H 663.137 2.55809 -1.47125 0
M  V30 6859 H 663.218 1.02166 -2.34512 0
M  V30 6860 H 662.862 2.2769 -4.54004 0
M  V30 6861 H 662.792 3.80995 -3.63525 0
M  V30 6862 H 665.283 2.43987 -2.88581 0
M  V30 6863 H 665.596 4.49564 -6.2858 0
M  V30 6864 H 663.941 4.0487 -5.64894 0
M  V30 6865 H 667.132 2.9574 -3.62843 0
M  V30 6866 H 667.305 3.89503 -5.17872 0
M  V30 6867 N 660.711 1.11618 1.11262 0
M  V30 6868 C 661.644 0.719995 2.16544 0
M  V30 6869 C 662.622 -0.28471 1.60088 0
M  V30 6870 O 663.806 -0.180693 1.87632 0
M  V30 6871 C 660.933 0.0643302 3.38639 0
M  V30 6872 C 659.979 1.03448 4.13764 0
M  V30 6873 S 660.812 2.55789 4.70459 0
M  V30 6874 C 661.968 1.91529 5.95875 0
M  V30 6875 H 662.201 1.61181 2.49816 0
M  V30 6876 H 659.734 0.934401 1.22916 0
M  V30 6877 H 661.692 -0.307609 4.09346 0
M  V30 6878 H 660.353 -0.804471 3.03623 0
M  V30 6879 H 659.546 0.523188 5.01277 0
M  V30 6880 H 659.148 1.34893 3.48826 0
M  V30 6881 H 661.44 1.25286 6.65815 0
M  V30 6882 H 662.383 2.77047 6.51652 0
M  V30 6883 H 662.791 1.37468 5.47506 0
M  V30 6884 N 662.189 -1.289 0.906776 0
M  V30 6885 C 663.419 -1.99112 0.551168 0
M  V30 6886 C 663.827 -1.67998 -0.870243 0
M  V30 6887 O 663.17 -0.92525 -1.58697 0
M  V30 6888 C 663.232 -3.53162 0.672065 0
M  V30 6889 C 662.896 -4.07849 2.06174 0
M  V30 6890 C 663.893 -4.22212 3.0337 0
M  V30 6891 C 661.578 -4.4271 2.37304 0
M  V30 6892 C 663.572 -4.70678 4.29815 0
M  V30 6893 C 661.259 -4.90871 3.6399 0
M  V30 6894 C 662.257 -5.04811 4.6006 0
M  V30 6895 O 661.945 -5.51925 5.84495 0
M  V30 6896 H 661.677 -0.642728 0.209469 0
M  V30 6897 H 664.231 -1.65234 1.22012 0
M  V30 6898 H 662.461 -3.86662 -0.05394 0
M  V30 6899 H 664.15 -4.046 0.324579 0
M  V30 6900 H 664.916 -3.9556 2.80637 0
M  V30 6901 H 660.795 -4.31114 1.63283 0
M  V30 6902 H 664.339 -4.81474 5.04806 0
M  V30 6903 H 660.236 -5.16961 3.86551 0
M  V30 6904 H 661.004 -5.70225 5.87185 0
M  V30 6905 N 663.667 -0.670007 -1.42649 0
M  V30 6906 C 664.916 -0.187526 -2.00826 0
M  V30 6907 C 665.229 1.21142 -1.53571 0
M  V30 6908 O 666.435 1.79001 -2.04134 0
M  V30 6909 C 664.891 -0.284409 -3.58774 0
M  V30 6910 C 664.499 -1.6871 -4.15019 0
M  V30 6911 C 666.243 0.139605 -4.2427 0
M  V30 6912 C 664.15 -1.73701 -5.65316 0
M  V30 6913 H 663.08 -0.0663468 -0.751075 0
M  V30 6914 H 665.731 -0.834492 -1.63427 0
M  V30 6915 H 664.113 0.430364 -3.93655 0
M  V30 6916 H 665.287 -2.42857 -3.91608 0
M  V30 6917 H 663.602 -2.05855 -3.61957 0
M  V30 6918 H 666.199 0.122398 -5.3456 0
M  V30 6919 H 666.542 1.17403 -3.99402 0
M  V30 6920 H 667.075 -0.523995 -3.94334 0
M  V30 6921 H 663.814 -2.75109 -5.94975 0
M  V30 6922 H 663.334 -1.03903 -5.90732 0
M  V30 6923 H 665.013 -1.48829 -6.2965 0
M  V30 6924 N 665.145 1.52092 -0.413018 0
M  V30 6925 C 666.422 1.94356 0.22024 0
M  V30 6926 C 666.802 1.35017 1.62277 0
M  V30 6927 O 666.15 0.527511 2.22328 0
M  V30 6928 C 666.36 3.48289 0.222638 0
M  V30 6929 C 667.708 4.22313 0.440098 0
M  V30 6930 O 668.732 3.54919 0.301826 0
M  V30 6931 O 667.591 5.41829 0.712984 0
M  V30 6932 H 664.685 0.814536 0.14304 0
M  V30 6933 H 667.231 1.63083 -0.469242 0
M  V30 6934 H 666.003 3.83872 -0.758836 0
M  V30 6935 H 665.626 3.85934 0.956057 0
M  V30 6936 N 666.623 0.143563 1.56945 0
M  V30 6937 C 667.853 -0.514699 2.00086 0
M  V30 6938 C 668.261 -1.59184 1.0226 0
M  V30 6939 O 667.604 -1.83697 0.0110514 0
M  V30 6940 C 667.666 -1.17778 3.39659 0
M  V30 6941 C 667.33 -0.245657 4.56339 0
M  V30 6942 C 668.327 0.525343 5.17239 0
M  V30 6943 C 666.012 -0.149564 5.02077 0
M  V30 6944 C 668.006 1.37992 6.22284 0
M  V30 6945 C 665.693 0.708621 6.06978 0
M  V30 6946 C 666.691 1.47197 6.6695 0
M  V30 6947 O 666.379 2.31586 7.6982 0
M  V30 6948 H 666.111 -0.138789 0.661599 0
M  V30 6949 H 668.665 0.234098 2.04062 0
M  V30 6950 H 666.895 -1.97415 3.32512 0
M  V30 6951 H 668.584 -1.73542 3.6693 0
M  V30 6952 H 669.35 0.461118 4.82803 0
M  V30 6953 H 665.229 -0.733457 4.55128 0
M  V30 6954 H 668.773 1.97621 6.69023 0
M  V30 6955 H 664.67 0.77415 6.40841 0
M  V30 6956 H 665.438 2.24796 7.87025 0
M  V30 6957 N 668.101 -1.57061 -0.130224 0
M  V30 6958 C 669.35 -1.83446 -0.838488 0
M  V30 6959 C 669.663 -0.727468 -1.81569 0
M  V30 6960 O 670.869 -0.877394 -2.56932 0
M  V30 6961 C 669.325 -3.25201 -1.54182 0
M  V30 6962 C 668.933 -4.4388 -0.606178 0
M  V30 6963 C 670.677 -3.60844 -2.23588 0
M  V30 6964 C 668.584 -5.76661 -1.31209 0
M  V30 6965 H 667.514 -0.684185 -0.316871 0
M  V30 6966 H 670.165 -1.83273 -0.0912059 0
M  V30 6967 H 668.547 -3.1981 -2.33533 0
M  V30 6968 H 669.721 -4.60545 0.153308 0
M  V30 6969 H 668.036 -4.16395 -0.0196705 0
M  V30 6970 H 670.633 -4.57313 -2.77072 0
M  V30 6971 H 670.976 -2.87724 -3.00867 0
M  V30 6972 H 671.509 -3.67971 -1.51137 0
M  V30 6973 H 668.248 -6.52922 -0.580823 0
M  V30 6974 H 667.768 -5.63902 -2.04387 0
M  V30 6975 H 669.447 -6.20035 -1.8484 0
M  V30 6976 N 669.579 0.400081 -1.52437 0
M  V30 6977 C 670.995 0.739359 -1.41441 0
M  V30 6978 C 671.195 1.94512 -0.526053 0
M  V30 6979 O 670.251 2.525 0.00472502 0
M  V30 6980 C 671.564 0.984824 -2.84116 0
M  V30 6981 C 673.112 1.08698 -2.93519 0
M  V30 6982 C 673.587 1.36515 -4.37181 0
M  V30 6983 N 675.078 1.43361 -4.40457 0
M  V30 6984 C 675.813 1.66528 -5.48686 0
M  V30 6985 N 675.309 1.87239 -6.67018 0
M  V30 6986 N 677.102 1.68617 -5.36213 0
M  V30 6987 H 669.253 -0.393484 -2.08723 0
M  V30 6988 H 671.516 -0.1138 -0.941145 0
M  V30 6989 H 671.222 0.171096 -3.51284 0
M  V30 6990 H 671.096 1.90253 -3.25705 0
M  V30 6991 H 673.483 1.89129 -2.26526 0
M  V30 6992 H 673.564 0.147432 -2.55375 0
M  V30 6993 H 673.208 0.565982 -5.04737 0
M  V30 6994 H 673.138 2.31737 -4.7287 0
M  V30 6995 H 675.629 1.29108 -3.55161 0
M  V30 6996 H 675.942 2.04392 -7.45281 0
M  V30 6997 H 674.287 1.84486 -6.70067 0
M  V30 6998 H 677.478 1.5198 -4.42741 0
M  V30 6999 H 677.651 1.86332 -6.20632 0
M  V30 7000 N 671.057 1.43213 0.657864 0
M  V30 7001 C 672.303 1.44798 1.41991 0
M  V30 7002 C 672.636 0.070256 1.94073 0
M  V30 7003 O 671.911 -0.908177 1.71995 0
M  V30 7004 C 672.194 2.4865 2.60471 0
M  V30 7005 C 672.047 3.95679 2.13911 0
M  V30 7006 C 673.366 2.49292 3.62686 0
M  V30 7007 H 670.485 0.527244 0.514959 0
M  V30 7008 H 673.127 1.74733 0.74621 0
M  V30 7009 H 671.277 2.23254 3.17946 0
M  V30 7010 H 672.949 4.32116 1.61472 0
M  V30 7011 H 671.192 4.08733 1.45325 0
M  V30 7012 H 671.863 4.6395 2.99089 0
M  V30 7013 H 674.339 2.71917 3.14961 0
M  V30 7014 H 673.215 3.23907 4.43143 0
M  V30 7015 H 673.476 1.52502 4.14964 0
M  V30 7016 N 672.536 -0.895792 1.29666 0
M  V30 7017 C 673.766 -1.67757 1.20586 0
M  V30 7018 C 674.174 -1.87729 -0.235432 0
M  V30 7019 O 673.517 -1.41706 -1.16898 0
M  V30 7020 C 673.579 -3.08117 1.85215 0
M  V30 7021 C 673.243 -3.1136 3.3452 0
M  V30 7022 C 674.24 -2.91217 4.30684 0
M  V30 7023 C 671.925 -3.33302 3.75786 0
M  V30 7024 C 673.919 -2.92955 5.66089 0
M  V30 7025 C 671.606 -3.3467 5.11311 0
M  V30 7026 C 672.604 -3.14519 6.06273 0
M  V30 7027 O 672.292 -3.15684 7.39323 0
M  V30 7028 H 672.024 -0.530601 0.418854 0
M  V30 7029 H 674.578 -1.12831 1.71634 0
M  V30 7030 H 672.808 -3.64661 1.28683 0
M  V30 7031 H 674.497 -3.68399 1.70403 0
M  V30 7032 H 675.263 -2.74074 4.00136 0
M  V30 7033 H 671.142 -3.48025 3.02324 0
M  V30 7034 H 674.686 -2.77145 6.40185 0
M  V30 7035 H 670.583 -3.51346 5.41504 0
M  V30 7036 H 671.351 -3.31924 7.48177 0
M  V30 7037 N 674.014 -1.12206 -1.10668 0
M  V30 7038 C 674.961 -0.787716 -2.16942 0
M  V30 7039 C 675.931 0.244442 -1.64291 0
M  V30 7040 O 677.116 0.119558 -1.90425 0
M  V30 7041 C 674.256 -0.24584 -3.44223 0
M  V30 7042 C 673.369 -1.33552 -4.10838 0
M  V30 7043 C 672.504 -0.753337 -5.25831 0
M  V30 7044 C 671.543 -1.82231 -5.84344 0
M  V30 7045 N 670.68 -1.25902 -6.90719 0
M  V30 7046 H 675.52 -1.69809 -2.44885 0
M  V30 7047 H 673.057 -0.847862 -1.20207 0
M  V30 7048 H 675.015 0.0863639 -4.17111 0
M  V30 7049 H 673.645 0.627702 -3.16638 0
M  V30 7050 H 672.697 -1.78454 -3.35944 0
M  V30 7051 H 674.009 -2.14396 -4.50373 0
M  V30 7052 H 673.163 -0.37166 -6.05561 0
M  V30 7053 H 671.902 0.0863297 -4.87624 0
M  V30 7054 H 670.907 -2.2132 -5.03287 0
M  V30 7055 H 672.132 -2.66515 -6.24617 0
M  V30 7056 H 670.078 -0.44114 -6.54515 0
M  V30 7057 H 669.995 -2.00408 -7.28953 0
M  V30 7058 H 671.263 -0.904498 -7.74235 0
M  V30 7059 N 675.492 1.28418 -0.913599 0
M  V30 7060 C 676.769 1.89977 -0.465619 0
M  V30 7061 C 677.149 1.82813 1.05559 0
M  V30 7062 O 676.497 1.26397 1.90358 0
M  V30 7063 C 676.707 3.34492 -0.995813 0
M  V30 7064 C 678.055 4.11468 -1.04782 0
M  V30 7065 O 679.079 3.43451 -0.944445 0
M  V30 7066 O 677.938 5.33046 -1.20518 0
M  V30 7067 H 675.032 0.813734 -0.147532 0
M  V30 7068 H 677.578 1.36786 -1.00437 0
M  V30 7069 H 676.35 3.33929 -2.03978 0
M  V30 7070 H 675.973 3.95181 -0.437878 0
M  V30 7071 N 676.97 0.677563 1.42291 0
M  V30 7072 C 677.903 -0.0492638 2.28147 0
M  V30 7073 C 678.881 -0.805936 1.41221 0
M  V30 7074 O 680.065 -0.80049 1.70659 0
M  V30 7075 C 677.192 -1.07697 3.21122 0
M  V30 7076 C 676.238 -0.41556 4.24471 0
M  V30 7077 S 677.071 0.828876 5.29046 0
M  V30 7078 C 678.227 -0.197687 6.25588 0
M  V30 7079 H 678.46 0.678965 2.89443 0
M  V30 7080 H 675.993 0.467201 1.47162 0
M  V30 7081 H 677.951 -1.66482 3.75225 0
M  V30 7082 H 676.612 -1.77766 2.58956 0
M  V30 7083 H 675.805 -1.19112 4.89723 0
M  V30 7084 H 675.407 0.0987632 3.7387 0
M  V30 7085 H 677.699 -1.05656 6.69211 0
M  V30 7086 H 678.642 0.420437 7.06851 0
M  V30 7087 H 679.05 -0.544401 5.61869 0
M  V30 7088 N 678.448 -1.51871 0.421078 0
M  V30 7089 C 679.396 -2.28903 -0.413066 0
M  V30 7090 C 680.39 -1.3408 -1.03532 0
M  V30 7091 O 681.596 -1.5149 -0.972146 0
M  V30 7092 H 677.971 -0.736478 -0.152003 0
M  V30 7093 H 679.942 -2.97285 0.257695 0
M  V30 7094 C 678.691 -3.13156 -1.51091 0
M  V30 7095 H 678.014 -3.85997 -1.04145 0
M  V30 7096 H 679.454 -3.7014 -2.06814 0
M  V30 7097 C 677.913 -2.27482 -2.48503 0
M  V30 7098 O 678.443 -1.92325 -3.52667 0
M  V30 7099 N 676.649 -1.91019 -2.18998 0
M  V30 7100 H 676.196 -2.19808 -1.34322 0
M  V30 7101 H 676.154 -1.3399 -2.84419 0
M  V30 7102 N 679.926 -0.151884 -1.56866 0
M  V30 7103 C 681.337 0.368128 -1.83035 0
M  V30 7104 C 681.688 1.64402 -1.07082 0
M  V30 7105 O 680.813 2.14056 -0.317647 0
M  V30 7106 C 681.408 0.674676 -3.32014 0
M  V30 7107 C 679.967 1.13919 -3.58747 0
M  V30 7108 C 679.114 0.164833 -2.7681 0
M  V30 7109 H 682.065 -0.376499 -1.54169 0
M  V30 7110 H 682.086 1.52883 -3.48435 0
M  V30 7111 H 681.598 -0.254113 -3.87267 0
M  V30 7112 H 679.699 2.08375 -3.08886 0
M  V30 7113 H 679.812 1.06179 -4.67186 0
M  V30 7114 H 678.176 0.658419 -2.46043 0
M  V30 7115 H 678.959 -0.757633 -3.34836 0
M  V30 7116 N 681.404 1.57128 0.121893 0
M  V30 7117 C 682.314 2.03425 1.16857 0
M  V30 7118 C 683.33 0.954108 1.45509 0
M  V30 7119 O 684.506 1.26541 1.56682 0
M  V30 7120 C 681.571 2.42685 2.47599 0
M  V30 7121 C 680.632 3.64767 2.2637 0
M  V30 7122 C 679.865 4.02145 3.50878 0
M  V30 7123 O 680.088 3.39897 4.58068 0
M  V30 7124 O 679.022 4.95262 3.42051 0
M  V30 7125 H 682.848 2.92825 0.80544 0
M  V30 7126 H 680.433 1.45654 0.332477 0
M  V30 7127 H 682.315 2.68684 3.24634 0
M  V30 7128 H 680.99 1.56432 2.83392 0
M  V30 7129 H 679.897 3.43922 1.47203 0
M  V30 7130 H 681.23 4.51716 1.95482 0
M  V30 7131 N 682.882 -0.391992 1.52647 0
M  V30 7132 C 684.11 -1.1586 1.71418 0
M  V30 7133 C 684.525 -1.8381 0.431216 0
M  V30 7134 O 683.882 -1.7256 -0.594085 0
M  V30 7135 C 683.933 -2.20888 2.86165 0
M  V30 7136 O 683.654 -1.5571 4.09495 0
M  V30 7137 C 685.155 -3.103 3.1659 0
M  V30 7138 H 682.375 -0.347494 0.574011 0
M  V30 7139 H 684.919 -0.458972 1.99283 0
M  V30 7140 H 683.074 -2.86492 2.6077 0
M  V30 7141 H 683.488 -2.25474 4.73563 0
M  V30 7142 H 684.962 -3.8003 4.00351 0
M  V30 7143 H 685.439 -3.73639 2.30848 0
M  V30 7144 H 686.045 -2.50345 3.43813 0
M  V30 7145 N 684.36 -1.4356 -0.65026 0
M  V30 7146 C 685.609 -1.44619 -1.406 0
M  V30 7147 C 685.922 -0.0752645 -1.95455 0
M  V30 7148 O 687.128 0.0366832 -2.71475 0
M  V30 7149 C 685.584 -2.54511 -2.54465 0
M  V30 7150 C 685.192 -3.97723 -2.06204 0
M  V30 7151 C 686.936 -2.64768 -3.31811 0
M  V30 7152 C 684.843 -4.99075 -3.17298 0
M  V30 7153 H 683.773 -0.537983 -0.52829 0
M  V30 7154 H 686.424 -1.69559 -0.701561 0
M  V30 7155 H 684.806 -2.22777 -3.27393 0
M  V30 7156 H 685.98 -4.38932 -1.40267 0
M  V30 7157 H 684.295 -3.91538 -1.41729 0
M  V30 7158 H 686.892 -3.37664 -4.14593 0
M  V30 7159 H 687.235 -1.69936 -3.80036 0
M  V30 7160 H 687.768 -2.95817 -2.65964 0
M  V30 7161 H 684.507 -5.95469 -2.74038 0
M  V30 7162 H 684.027 -4.62476 -3.81937 0
M  V30 7163 H 685.706 -5.21913 -3.82382 0
M  V30 7164 N 685.838 0.888903 -1.30139 0
M  V30 7165 C 687.066 1.67358 -1.21651 0
M  V30 7166 C 687.481 1.87499 0.221246 0
M  V30 7167 O 686.838 1.41969 1.14677 0
M  V30 7168 C 686.889 3.05213 -1.93719 0
M  V30 7169 O 686.61 2.85984 -3.31881 0
M  V30 7170 C 688.111 3.9964 -1.9184 0
M  V30 7171 H 685.331 0.522365 -0.42116 0
M  V30 7172 H 687.875 1.11086 -1.71698 0
M  V30 7173 H 686.03 3.5823 -1.4748 0
M  V30 7174 H 686.444 3.73411 -3.68327 0
M  V30 7175 H 687.918 4.93749 -2.46811 0
M  V30 7176 H 688.395 4.29955 -0.896409 0
M  V30 7177 H 689.001 3.52558 -2.37872 0
M  V30 7178 N 687.317 1.12792 1.10072 0
M  V30 7179 C 688.565 0.883796 1.81751 0
M  V30 7180 C 688.886 -0.591891 1.858 0
M  V30 7181 O 688.156 -1.43017 1.33876 0
M  V30 7182 H 686.736 0.323978 0.673088 0
M  V30 7183 H 689.398 1.42314 1.33164 0
M  V30 7184 H 688.494 1.26863 2.85153 0
M  V30 7185 N 688.795 -1.27931 0.920396 0
M  V30 7186 C 689.705 -2.30824 0.419212 0
M  V30 7187 C 690.721 -1.66767 -0.496461 0
M  V30 7188 O 691.897 -1.97763 -0.38104 0
M  V30 7189 C 688.962 -3.45158 -0.326601 0
M  V30 7190 C 688.023 -4.24754 0.623098 0
M  V30 7191 C 687.256 -5.33629 -0.0872172 0
M  V30 7192 O 687.479 -5.55204 -1.30784 0
M  V30 7193 O 686.413 -5.99091 0.580875 0
M  V30 7194 H 690.239 -2.75716 1.27337 0
M  V30 7195 H 687.824 -1.32747 0.685465 0
M  V30 7196 H 689.706 -4.14716 -0.747559 0
M  V30 7197 H 688.381 -3.02336 -1.15648 0
M  V30 7198 H 687.288 -3.57759 1.09359 0
M  V30 7199 H 688.621 -4.71272 1.41998 0
M  V30 7200 N 690.273 -0.685099 -1.4193 0
M  V30 7201 C 691.519 -0.211971 -2.01689 0
M  V30 7202 C 691.852 1.18189 -1.54094 0
M  V30 7203 O 691.127 1.79559 -0.747572 0
M  V30 7204 C 691.41 -0.258019 -3.59174 0
M  V30 7205 C 691.263 -1.68807 -4.16922 0
M  V30 7206 C 692.582 0.388044 -4.38386 0
M  V30 7207 H 689.701 -0.0784987 -0.732808 0
M  V30 7208 H 692.343 -0.871837 -1.68816 0
M  V30 7209 H 690.493 0.303832 -3.8731 0
M  V30 7210 H 692.165 -2.30296 -3.99702 0
M  V30 7211 H 690.408 -2.22553 -3.72361 0
M  V30 7212 H 691.079 -1.6719 -5.26072 0
M  V30 7213 H 693.555 -0.0903432 -4.16002 0
M  V30 7214 H 692.431 0.325232 -5.47936 0
M  V30 7215 H 692.692 1.4672 -4.17044 0
M  V30 7216 N 691.751 1.51645 -0.429126 0
M  V30 7217 C 693.028 1.94579 0.199614 0
M  V30 7218 C 693.408 1.3673 1.60836 0
M  V30 7219 O 692.756 0.551062 2.21756 0
M  V30 7220 C 692.966 3.48506 0.185685 0
M  V30 7221 C 694.314 4.22756 0.395282 0
M  V30 7222 O 695.338 3.55219 0.264165 0
M  V30 7223 O 694.197 5.42555 0.655475 0
M  V30 7224 H 691.291 0.816007 0.134393 0
M  V30 7225 H 693.837 1.62577 -0.486513 0
M  V30 7226 H 692.609 3.83045 -0.799508 0
M  V30 7227 H 692.232 3.86927 0.91507 0
M  V30 7228 N 693.229 0.160201 1.56784 0
M  V30 7229 C 694.506 -0.533355 1.88188 0
M  V30 7230 C 694.886 -1.82072 1.06831 0
M  V30 7231 O 694.234 -2.27946 0.158959 0
M  V30 7232 C 694.444 -0.786034 3.40033 0
M  V30 7233 C 695.792 -1.12097 4.09536 0
M  V30 7234 O 696.816 -0.874949 3.45287 0
M  V30 7235 O 695.675 -1.58457 5.23023 0
M  V30 7236 H 692.769 -0.273589 0.780434 0
M  V30 7237 H 695.315 0.197803 1.68543 0
M  V30 7238 H 694.087 0.124515 3.91102 0
M  V30 7239 H 693.71 -1.57091 3.65251 0
M  V30 7240 N 694.707 -1.5719 -0.113559 0
M  V30 7241 C 695.947 -1.86958 -0.82621 0
M  V30 7242 C 696.311 -0.748884 -1.76793 0
M  V30 7243 O 697.512 -0.92847 -2.52256 0
M  V30 7244 C 695.783 -3.21957 -1.55173 0
M  V30 7245 S 697.342 -3.73371 -2.3052 0
M  V30 7246 H 694.16 -0.655394 -0.275643 0
M  V30 7247 H 696.762 -1.95318 -0.0842684 0
M  V30 7248 H 695.466 -4.01459 -0.851977 0
M  V30 7249 H 694.997 -3.16688 -2.33393 0
M  V30 7250 H 697.012 -3.45308 -3.56338 0
M  V30 7251 N 696.185 0.383891 -1.52853 0
M  V30 7252 C 697.095 1.49343 -1.80925 0
M  V30 7253 C 698.111 1.59458 -0.696348 0
M  V30 7254 O 699.287 1.75698 -0.984481 0
M  V30 7255 C 696.352 2.84819 -1.97684 0
M  V30 7256 C 695.413 2.84382 -3.21598 0
M  V30 7257 C 694.646 4.13397 -3.37548 0
M  V30 7258 O 694.869 5.08619 -2.58192 0
M  V30 7259 O 693.803 4.20325 -4.30826 0
M  V30 7260 H 697.629 1.2855 -2.75152 0
M  V30 7261 H 695.214 0.572229 -1.38007 0
M  V30 7262 H 697.096 3.65125 -2.10385 0
M  V30 7263 H 695.771 3.05627 -1.06647 0
M  V30 7264 H 694.678 2.0284 -3.14336 0
M  V30 7265 H 696.011 2.68526 -4.12498 0
M  V30 7266 N 697.663 1.43903 0.642637 0
M  V30 7267 C 698.893 1.49323 1.4278 0
M  V30 7268 C 699.301 0.113058 1.88862 0
M  V30 7269 O 698.644 -0.889089 1.60751 0
M  V30 7270 C 698.706 2.3861 2.68897 0
M  V30 7271 C 698.37 3.85976 2.44687 0
M  V30 7272 C 699.367 4.7681 2.07239 0
M  V30 7273 C 697.052 4.30567 2.58683 0
M  V30 7274 C 699.046 6.10234 1.841 0
M  V30 7275 C 696.733 5.64042 2.35159 0
M  V30 7276 C 697.731 6.53693 1.97925 0
M  V30 7277 O 697.419 7.84698 1.74654 0
M  V30 7278 H 697.151 0.509109 0.444729 0
M  V30 7279 H 699.705 1.89425 0.794195 0
M  V30 7280 H 697.935 1.93415 3.34855 0
M  V30 7281 H 699.624 2.35112 3.30873 0
M  V30 7282 H 700.39 4.43635 1.95993 0
M  V30 7283 H 696.269 3.61054 2.86637 0
M  V30 7284 H 699.813 6.80171 1.54962 0
M  V30 7285 H 695.71 5.96782 2.46011 0
M  V30 7286 H 696.478 7.96382 1.88993 0
M  V30 7287 N 699.141 -0.881989 1.30609 0
M  V30 7288 C 700.051 -2.02076 1.19174 0
M  V30 7289 C 701.067 -1.73645 0.11102 0
M  V30 7290 O 702.243 -1.98735 0.326528 0
M  V30 7291 C 699.308 -3.3515 0.887438 0
M  V30 7292 C 698.369 -3.76983 2.05383 0
M  V30 7293 C 697.602 -5.03707 1.76395 0
M  V30 7294 O 697.825 -5.66171 0.693302 0
M  V30 7295 O 696.759 -5.42019 2.61723 0
M  V30 7296 H 700.585 -2.14652 2.14845 0
M  V30 7297 H 698.17 -1.00843 1.10232 0
M  V30 7298 H 700.052 -4.14975 0.73306 0
M  V30 7299 H 698.727 -3.23676 -0.0393354 0
M  V30 7300 H 697.634 -2.97849 2.26355 0
M  V30 7301 H 698.967 -3.93066 2.96243 0
M  V30 7302 N 700.619 -1.13374 -1.09472 0
M  V30 7303 C 701.551 -0.768466 -2.15933 0
M  V30 7304 C 702.564 0.209585 -1.61445 0
M  V30 7305 O 703.753 -0.010539 -1.78497 0
M  V30 7306 C 700.853 -0.118266 -3.38694 0
M  V30 7307 C 700.026 -1.12829 -4.22597 0
M  V30 7308 C 699.085 -0.503875 -5.23782 0
M  V30 7309 O 698.111 -1.16374 -5.57177 0
M  V30 7310 N 699.313 0.724288 -5.75964 0
M  V30 7311 H 702.078 -1.68457 -2.47876 0
M  V30 7312 H 699.639 -1.02668 -1.25183 0
M  V30 7313 H 701.631 0.311698 -4.03498 0
M  V30 7314 H 700.201 0.700769 -3.04644 0
M  V30 7315 H 699.421 -1.73556 -3.53938 0
M  V30 7316 H 700.709 -1.81095 -4.75481 0
M  V30 7317 H 700.107 1.27918 -5.51048 0
M  V30 7318 H 698.664 1.09692 -6.42504 0
M  V30 7319 N 702.098 1.27442 -0.927168 0
M  V30 7320 C 703.061 2.2512 -0.430525 0
M  V30 7321 C 704.061 1.54357 0.450619 0
M  V30 7322 O 705.251 1.72371 0.251774 0
M  V30 7323 C 702.383 3.38763 0.381144 0
M  V30 7324 H 703.576 2.70569 -1.29354 0
M  V30 7325 H 701.129 1.39355 -0.707806 0
M  V30 7326 H 701.864 2.98695 1.263 0
M  V30 7327 H 701.649 3.91298 -0.250618 0
M  V30 7328 H 703.139 4.11364 0.719012 0
M  V30 7329 N 703.576 0.692616 1.41565 0
M  V30 7330 C 704.508 -0.0137132 2.29196 0
M  V30 7331 C 705.521 -0.747417 1.44629 0
M  V30 7332 O 706.71 -0.598611 1.68163 0
M  V30 7333 C 703.81 -1.04347 3.22436 0
M  V30 7334 C 702.983 -0.379985 4.35746 0
M  V30 7335 C 702.042 -1.31195 5.09583 0
M  V30 7336 O 701.068 -0.805455 5.63472 0
M  V30 7337 N 702.27 -2.64443 5.16769 0
M  V30 7338 H 705.035 0.738614 2.90456 0
M  V30 7339 H 702.596 0.538415 1.52685 0
M  V30 7340 H 704.588 -1.6686 3.687 0
M  V30 7341 H 703.158 -1.69736 2.62504 0
M  V30 7342 H 702.378 0.424975 3.91903 0
M  V30 7343 H 703.666 0.0814904 5.08735 0
M  V30 7344 H 703.064 -3.08114 4.74428 0
M  V30 7345 H 701.621 -3.22159 5.66619 0
M  V30 7346 N 705.054 -1.51416 0.437162 0
M  V30 7347 C 705.986 -2.255 -0.410171 0
M  V30 7348 C 706.999 -1.29511 -0.986444 0
M  V30 7349 O 708.188 -1.55266 -0.880614 0
M  V30 7350 C 705.288 -2.99511 -1.58575 0
M  V30 7351 C 704.461 -4.22595 -1.12839 0
M  V30 7352 C 703.52 -4.79187 -2.17407 0
M  V30 7353 O 702.546 -5.4103 -1.76849 0
M  V30 7354 N 703.748 -4.63204 -3.49889 0
M  V30 7355 H 706.513 -2.98856 0.224783 0
M  V30 7356 H 704.074 -1.59699 0.266041 0
M  V30 7357 H 706.066 -3.34258 -2.28152 0
M  V30 7358 H 704.636 -2.29167 -2.12606 0
M  V30 7359 H 703.856 -3.93344 -0.259695 0
M  V30 7360 H 705.144 -5.02468 -0.800196 0
M  V30 7361 H 704.542 -4.13945 -3.85573 0
M  V30 7362 H 703.099 -5.02313 -4.15361 0
M  V30 7363 N 706.532 -0.168513 -1.56696 0
M  V30 7364 C 707.464 0.794249 -2.14998 0
M  V30 7365 C 708.477 1.1957 -1.10485 0
M  V30 7366 O 709.666 1.13604 -1.37682 0
M  V30 7367 C 706.766 2.08018 -2.67547 0
M  V30 7368 C 705.939 1.84274 -3.96689 0
M  V30 7369 C 704.998 2.97059 -4.3433 0
M  V30 7370 O 704.024 2.67815 -5.02259 0
M  V30 7371 N 705.226 4.24775 -3.9566 0
M  V30 7372 H 707.991 0.295832 -2.98236 0
M  V30 7373 H 705.552 0.0143611 -1.61894 0
M  V30 7374 H 707.544 2.82559 -2.89729 0
M  V30 7375 H 706.114 2.49059 -1.88914 0
M  V30 7376 H 705.334 0.936528 -3.82914 0
M  V30 7377 H 706.622 1.65773 -4.81037 0
M  V30 7378 H 706.02 4.51395 -3.40968 0
M  V30 7379 H 704.577 4.96027 -4.22848 0
M  V30 7380 N 708.01 1.57248 0.105221 0
M  V30 7381 C 708.973 2.00388 1.11252 0
M  V30 7382 C 709.973 0.89594 1.33527 0
M  V30 7383 O 711.163 1.16166 1.29811 0
M  V30 7384 C 708.295 2.35589 2.46395 0
M  V30 7385 H 709.488 2.90591 0.741424 0
M  V30 7386 H 707.041 1.52332 0.349956 0
M  V30 7387 H 707.776 1.4831 2.884 0
M  V30 7388 H 707.561 3.16408 2.31578 0
M  V30 7389 H 709.051 2.69658 3.18864 0
M  V30 7390 N 709.488 -0.375779 1.53054 0
M  V30 7391 C 710.736 -1.11727 1.68409 0
M  V30 7392 C 711.057 -1.90127 0.43323 0
M  V30 7393 O 710.327 -1.87945 -0.552595 0
M  V30 7394 H 708.907 -0.415451 0.620813 0
M  V30 7395 H 711.569 -0.424869 1.90213 0
M  V30 7396 H 710.665 -1.8128 2.54055 0
M  V30 7397 N 710.966 -1.44241 -0.634997 0
M  V30 7398 C 712.377 -1.41622 -1.21655 0
M  V30 7399 C 712.728 -0.129584 -1.95772 0
M  V30 7400 O 711.853 0.770225 -2.02229 0
M  V30 7401 C 712.448 -2.56557 -2.21278 0
M  V30 7402 C 711.007 -2.57145 -2.7487 0
M  V30 7403 C 710.154 -2.33354 -1.49804 0
M  V30 7404 H 713.105 -1.52878 -0.425905 0
M  V30 7405 H 713.126 -2.29089 -3.03807 0
M  V30 7406 H 712.638 -3.50186 -1.67306 0
M  V30 7407 H 710.739 -1.67447 -3.32855 0
M  V30 7408 H 710.852 -3.55507 -3.21172 0
M  V30 7409 H 709.216 -1.82372 -1.77799 0
M  V30 7410 H 709.999 -3.29092 -0.977402 0
M  V30 7411 N 712.444 0.87505 -1.31075 0
M  V30 7412 C 713.354 2.01441 -1.20244 0
M  V30 7413 C 714.37 1.73584 -0.120227 0
M  V30 7414 O 715.546 1.98559 -0.337063 0
M  V30 7415 C 712.611 3.34675 -0.905199 0
M  V30 7416 C 711.672 3.75889 -2.0738 0
M  V30 7417 C 710.905 5.02764 -1.79064 0
M  V30 7418 O 711.128 5.65795 -0.723318 0
M  V30 7419 O 710.062 5.40623 -2.64594 0
M  V30 7420 H 713.888 2.13509 -2.1598 0
M  V30 7421 H 711.473 1.00257 -1.10765 0
M  V30 7422 H 713.355 4.1458 -0.755057 0
M  V30 7423 H 712.03 3.23692 0.0221695 0
M  V30 7424 H 710.937 2.96645 -2.27931 0
M  V30 7425 H 712.27 3.91489 -2.98324 0
M  V30 7426 N 713.922 1.13953 1.08869 0
M  V30 7427 C 715.168 0.906151 1.8143 0
M  V30 7428 C 715.501 -0.566089 1.85766 0
M  V30 7429 O 714.776 -1.41915 1.33006 0
M  V30 7430 C 715.059 1.50183 3.27287 0
M  V30 7431 C 714.912 3.04359 3.31189 0
M  V30 7432 C 716.231 1.17477 4.24131 0
M  V30 7433 H 713.35 0.330624 0.658678 0
M  V30 7434 H 715.992 1.40873 1.27495 0
M  V30 7435 H 714.142 1.07442 3.73348 0
M  V30 7436 H 715.814 3.55896 2.93488 0
M  V30 7437 H 714.057 3.39053 2.70602 0
M  V30 7438 H 714.728 3.41141 4.33966 0
M  V30 7439 H 717.204 1.5442 3.86385 0
M  V30 7440 H 716.08 1.61795 5.24513 0
M  V30 7441 H 716.341 0.0893312 4.4201 0
M  V30 7442 N 715.4 -1.26948 0.933913 0
M  V30 7443 C 716.628 -1.98186 0.59414 0
M  V30 7444 C 717.043 -1.69614 -0.829257 0
M  V30 7445 O 716.4 -0.960213 -1.55197 0
M  V30 7446 C 716.451 -3.52123 0.818026 0
M  V30 7447 O 716.172 -3.79698 2.18543 0
M  V30 7448 C 717.673 -4.40608 0.48781 0
M  V30 7449 H 714.893 -0.632305 0.224569 0
M  V30 7450 H 717.437 -1.61646 1.25263 0
M  V30 7451 H 715.592 -3.86851 0.206246 0
M  V30 7452 H 716.006 -4.7426 2.24005 0
M  V30 7453 H 717.48 -5.47606 0.695126 0
M  V30 7454 H 717.957 -4.35394 -0.576913 0
M  V30 7455 H 718.563 -4.11411 1.078 0
M  V30 7456 N 716.879 -0.700114 -1.41195 0
M  V30 7457 C 718.109 -0.241828 -2.0518 0
M  V30 7458 C 718.517 1.1157 -1.52803 0
M  V30 7459 O 717.86 1.70926 -0.673042 0
M  V30 7460 C 717.922 -0.12695 -3.59276 0
M  V30 7461 C 717.586 -1.41725 -4.34469 0
M  V30 7462 C 718.583 -2.35604 -4.63451 0
M  V30 7463 C 716.268 -1.67189 -4.73659 0
M  V30 7464 C 718.262 -3.53204 -5.3059 0
M  V30 7465 C 715.949 -2.85073 -5.40534 0
M  V30 7466 C 716.947 -3.77904 -5.68927 0
M  V30 7467 O 716.635 -4.93723 -6.34424 0
M  V30 7468 H 716.367 -0.109247 -0.667114 0
M  V30 7469 H 718.921 -0.954538 -1.81873 0
M  V30 7470 H 717.151 0.641571 -3.81341 0
M  V30 7471 H 718.84 0.294748 -4.04828 0
M  V30 7472 H 719.606 -2.1719 -4.33651 0
M  V30 7473 H 715.485 -0.957935 -4.50937 0
M  V30 7474 H 719.029 -4.25679 -5.52669 0
M  V30 7475 H 714.926 -3.03402 -5.69752 0
M  V30 7476 H 715.694 -4.93597 -6.5292 0
M  V30 7477 N 718.357 1.51182 -0.445186 0
M  V30 7478 C 719.267 2.31692 0.368255 0
M  V30 7479 C 720.283 1.40942 1.02036 0
M  V30 7480 O 721.459 1.74011 1.01401 0
M  V30 7481 C 718.524 3.14903 1.45041 0
M  V30 7482 C 717.585 4.21442 0.817615 0
M  V30 7483 C 716.818 5.00677 1.8482 0
M  V30 7484 O 717.041 4.80644 3.07145 0
M  V30 7485 O 715.975 5.84559 1.43438 0
M  V30 7486 H 719.801 3.0232 -0.289219 0
M  V30 7487 H 717.386 1.47951 -0.207555 0
M  V30 7488 H 719.268 3.66612 2.07783 0
M  V30 7489 H 717.943 2.47031 2.09182 0
M  V30 7490 H 716.85 3.73791 0.151931 0
M  V30 7491 H 718.183 4.9171 0.219564 0
M  V30 7492 N 719.835 0.176821 1.56605 0
M  V30 7493 C 720.767 -0.782836 2.15417 0
M  V30 7494 C 721.78 -1.18982 1.11117 0
M  V30 7495 O 722.969 -1.12872 1.38283 0
M  V30 7496 C 720.069 -2.06596 2.68647 0
M  V30 7497 C 719.242 -1.82167 3.9766 0
M  V30 7498 C 718.301 -2.94751 4.35899 0
M  V30 7499 O 717.327 -2.65148 5.03672 0
M  V30 7500 N 718.529 -4.2267 3.97907 0
M  V30 7501 H 721.294 -0.280012 2.98389 0
M  V30 7502 H 718.855 -0.00577529 1.61899 0
M  V30 7503 H 720.847 -2.81018 2.91223 0
M  V30 7504 H 719.417 -2.48054 1.90232 0
M  V30 7505 H 718.637 -0.916208 3.83405 0
M  V30 7506 H 719.925 -1.6322 4.81909 0
M  V30 7507 H 719.323 -4.4958 3.43357 0
M  V30 7508 H 717.88 -4.93778 4.25472 0
M  V30 7509 N 721.313 -1.57302 -0.09688 0
M  V30 7510 C 722.562 -1.85183 -0.799388 0
M  V30 7511 C 722.875 -0.765818 -1.79985 0
M  V30 7512 O 724.081 -0.931696 -2.55013 0
M  V30 7513 C 722.537 -3.28399 -1.47249 0
M  V30 7514 C 722.145 -4.45066 -0.511888 0
M  V30 7515 C 723.889 -3.65506 -2.15883 0
M  V30 7516 C 721.796 -5.79315 -1.18948 0
M  V30 7517 H 720.726 -0.690752 -0.302287 0
M  V30 7518 H 723.377 -1.83425 -0.0523104 0
M  V30 7519 H 721.759 -3.24692 -2.26697 0
M  V30 7520 H 722.933 -4.60116 0.250962 0
M  V30 7521 H 721.248 -4.16343 0.0686576 0
M  V30 7522 H 723.845 -4.63087 -2.67309 0
M  V30 7523 H 724.188 -2.94041 -2.94696 0
M  V30 7524 H 724.721 -3.71094 -1.43298 0
M  V30 7525 H 721.46 -6.54007 -0.442198 0
M  V30 7526 H 720.98 -5.68111 -1.9238 0
M  V30 7527 H 722.659 -6.23816 -1.71646 0
M  V30 7528 N 722.791 0.367657 -1.53252 0
M  V30 7529 C 723.739 1.47061 -1.8021 0
M  V30 7530 C 724.733 1.55539 -0.671112 0
M  V30 7531 O 725.939 1.58451 -0.854014 0
M  V30 7532 H 722.314 0.489868 -0.570555 0
M  V30 7533 H 724.285 1.21527 -2.72532 0
M  V30 7534 C 723.034 2.83924 -2.00706 0
M  V30 7535 H 722.357 2.78158 -2.87172 0
M  V30 7536 H 723.797 3.60281 -2.23547 0
M  V30 7537 C 722.256 3.27613 -0.785568 0
M  V30 7538 O 722.786 4.01691 0.0267459 0
M  V30 7539 N 720.992 2.84134 -0.609597 0
M  V30 7540 H 720.539 2.24017 -1.27178 0
M  V30 7541 H 720.497 3.13723 0.206281 0
M  V30 7542 N 724.269 1.44576 0.627338 0
M  V30 7543 C 725.217 1.52039 1.76031 0
M  V30 7544 C 726.211 0.391796 1.64807 0
M  V30 7545 O 727.417 0.5669 1.7084 0
M  V30 7546 H 723.792 0.477165 0.581221 0
M  V30 7547 H 725.763 2.47387 1.6686 0
M  V30 7548 C 724.512 1.48539 3.14375 0
M  V30 7549 H 723.835 2.34699 3.23661 0
M  V30 7550 H 725.275 1.57821 3.93534 0
M  V30 7551 C 723.734 0.20672 3.36265 0
M  V30 7552 O 724.264 -0.72154 3.95167 0
M  V30 7553 N 722.47 0.108654 2.90397 0
M  V30 7554 H 722.017 0.864884 2.42647 0
M  V30 7555 H 721.975 -0.746121 3.05418 0
M  V30 7556 N 725.747 -0.868086 1.31537 0
M  V30 7557 C 726.995 -1.61807 1.21091 0
M  V30 7558 C 727.316 -1.93631 -0.230623 0
M  V30 7559 O 726.586 -1.5846 -1.15183 0
M  V30 7560 H 725.166 -0.599854 0.445178 0
M  V30 7561 H 727.828 -1.03915 1.64887 0
M  V30 7562 H 726.924 -2.56088 1.78396 0
M  V30 7563 N 727.225 -1.14528 -1.08264 0
M  V30 7564 C 728.453 -0.937964 -1.84418 0
M  V30 7565 C 728.868 0.51357 -1.81681 0
M  V30 7566 O 728.225 1.35591 -1.22153 0
M  V30 7567 C 728.276 -1.43272 -3.31897 0
M  V30 7568 O 727.997 -2.82738 -3.34651 0
M  V30 7569 C 729.498 -1.26555 -4.24851 0
M  V30 7570 H 726.718 -0.333704 -0.582136 0
M  V30 7571 H 729.262 -1.52076 -1.36723 0
M  V30 7572 H 727.417 -0.892653 -3.76975 0
M  V30 7573 H 727.831 -3.04971 -4.26724 0
M  V30 7574 H 729.305 -1.66031 -5.26439 0
M  V30 7575 H 729.782 -0.208589 -4.38704 0
M  V30 7576 H 730.388 -1.79423 -3.856 0
M  V30 7577 N 728.703 1.26451 -0.940633 0
M  V30 7578 C 729.95 1.93778 -0.587909 0
M  V30 7579 C 730.278 1.73811 0.872935 0
M  V30 7580 O 729.533 1.06816 1.63978 0
M  V30 7581 C 729.832 3.46503 -0.875794 0
M  V30 7582 C 729.498 3.86609 -2.32043 0
M  V30 7583 C 728.16 3.97269 -2.71534 0
M  V30 7584 C 730.512 4.0672 -3.25927 0
M  V30 7585 C 727.84 4.25436 -4.04006 0
M  V30 7586 C 730.192 4.36375 -4.57995 0
M  V30 7587 C 728.856 4.45249 -4.97302 0
M  V30 7588 H 728.126 0.709084 -0.215131 0
M  V30 7589 H 730.773 1.50272 -1.18704 0
M  V30 7590 H 729.078 3.91319 -0.194124 0
M  V30 7591 H 730.775 3.96759 -0.581665 0
M  V30 7592 H 727.365 3.78858 -2.00411 0
M  V30 7593 H 731.549 3.97912 -2.96614 0
M  V30 7594 H 726.805 4.30519 -4.34124 0
M  V30 7595 H 730.979 4.50882 -5.30734 0
M  V30 7596 H 728.606 4.66829 -5.99979 0
M  V30 7597 N 730.181 0.707592 1.40822 0
M  V30 7598 C 731.458 0.171172 1.9485 0
M  V30 7599 C 731.838 -1.32143 1.64625 0
M  V30 7600 O 731.186 -2.07372 0.959647 0
M  V30 7601 C 731.396 0.475334 3.45748 0
M  V30 7602 C 732.744 0.409625 4.22619 0
M  V30 7603 O 733.768 0.410934 3.53822 0
M  V30 7604 O 732.627 0.380185 5.45176 0
M  V30 7605 H 729.721 0.022015 0.826707 0
M  V30 7606 H 732.267 0.784577 1.50474 0
M  V30 7607 H 731.039 1.50801 3.61075 0
M  V30 7608 H 730.662 -0.168439 3.97243 0
M  V30 7609 N 731.66 -1.50943 0.453197 0
M  V30 7610 C 732.57 -2.31884 -0.355963 0
M  V30 7611 C 733.586 -1.41481 -1.01287 0
M  V30 7612 O 734.762 -1.74546 -1.00477 0
M  V30 7613 C 731.827 -3.15668 -1.43369 0
M  V30 7614 C 730.888 -4.2187 -0.795253 0
M  V30 7615 C 730.121 -5.0165 -1.82162 0
M  V30 7616 O 730.344 -4.82266 -3.04592 0
M  V30 7617 O 729.278 -5.85311 -1.40336 0
M  V30 7618 H 733.104 -3.02162 0.305248 0
M  V30 7619 H 730.689 -1.47839 0.215398 0
M  V30 7620 H 732.571 -3.67709 -2.05836 0
M  V30 7621 H 731.246 -2.48137 -2.07869 0
M  V30 7622 H 730.153 -3.73867 -0.132106 0
M  V30 7623 H 731.486 -4.9182 -0.193484 0
M  V30 7624 N 733.138 -0.185124 -1.56509 0
M  V30 7625 C 734.549 0.329221 -1.83774 0
M  V30 7626 C 734.9 1.62093 -1.10545 0
M  V30 7627 O 734.025 2.13334 -0.36298 0
M  V30 7628 C 734.62 0.604099 -3.33371 0
M  V30 7629 C 733.179 1.06284 -3.61083 0
M  V30 7630 C 732.326 0.10608 -2.77097 0
M  V30 7631 H 735.277 -0.409116 -1.53336 0
M  V30 7632 H 735.298 1.45458 -3.51599 0
M  V30 7633 H 734.81 -0.336201 -3.86641 0
M  V30 7634 H 732.911 2.01777 -3.13236 0
M  V30 7635 H 733.024 0.962453 -4.69333 0
M  V30 7636 H 731.388 0.606082 -2.47384 0
M  V30 7637 H 732.171 -0.828486 -3.33153 0
M  V30 7638 N 734.616 1.57351 0.0885366 0
M  V30 7639 C 735.865 1.85604 0.789556 0
M  V30 7640 C 736.178 0.775352 1.79576 0
M  V30 7641 O 737.384 0.945206 2.54515 0
M  V30 7642 C 735.84 3.29175 1.45506 0
M  V30 7643 C 735.448 4.45331 0.488278 0
M  V30 7644 C 737.192 3.66646 2.13942 0
M  V30 7645 C 735.099 5.79937 1.15874 0
M  V30 7646 H 734.029 0.692346 0.298619 0
M  V30 7647 H 736.68 1.83451 0.0425821 0
M  V30 7648 H 735.062 3.25889 2.24972 0
M  V30 7649 H 736.236 4.59977 -0.275359 0
M  V30 7650 H 734.551 4.16301 -0.0907363 0
M  V30 7651 H 737.148 4.64498 2.6485 0
M  V30 7652 H 737.491 2.956 2.93132 0
M  V30 7653 H 738.024 3.71848 1.41328 0
M  V30 7654 H 734.763 6.54232 0.407508 0
M  V30 7655 H 734.283 5.69123 1.89364 0
M  V30 7656 H 735.962 6.24718 1.68336 0
M  V30 7657 N 736.094 -0.359525 1.53444 0
M  V30 7658 C 737.34 -1.10315 1.70172 0
M  V30 7659 C 737.673 -1.88788 0.455287 0
M  V30 7660 O 736.948 -1.86635 -0.547514 0
M  V30 7661 C 737.231 -2.05744 2.95536 0
M  V30 7662 C 737.084 -1.3084 4.3035 0
M  V30 7663 C 738.403 -3.05784 3.16518 0
M  V30 7664 H 735.522 -0.399662 0.619225 0
M  V30 7665 H 738.164 -0.383338 1.86093 0
M  V30 7666 H 736.314 -2.67125 2.82093 0
M  V30 7667 H 737.986 -0.721959 4.55615 0
M  V30 7668 H 736.229 -0.610283 4.29486 0
M  V30 7669 H 736.9 -2.00718 5.14214 0
M  V30 7670 H 739.376 -2.5451 3.29187 0
M  V30 7671 H 738.252 -3.69772 4.05659 0
M  V30 7672 H 738.513 -3.76289 2.32076 0
M  V30 7673 N 737.572 -1.44907 -0.619662 0
M  V30 7674 C 738.52 -1.52971 -1.75222 0
M  V30 7675 C 739.514 -0.400531 -1.64597 0
M  V30 7676 O 740.72 -0.575952 -1.70537 0
M  V30 7677 H 737.095 -0.480241 -0.578682 0
M  V30 7678 H 739.066 -2.48269 -1.65545 0
M  V30 7679 C 737.815 -1.50204 -3.13583 0
M  V30 7680 H 737.138 -2.36412 -3.22412 0
M  V30 7681 H 738.578 -1.59905 -3.92691 0
M  V30 7682 C 737.037 -0.22455 -3.36151 0
M  V30 7683 O 737.567 0.700574 -3.95544 0
M  V30 7684 N 735.773 -0.124052 -2.90335 0
M  V30 7685 H 735.32 -0.87774 -2.42185 0
M  V30 7686 H 735.278 0.729914 -3.0581 0
M  V30 7687 N 739.05 0.861098 -1.31996 0
M  V30 7688 C 740.327 1.59788 -1.12814 0
M  V30 7689 C 740.707 2.08753 0.313882 0
M  V30 7690 O 740.055 1.87258 1.30946 0
M  V30 7691 C 740.265 2.74901 -2.15012 0
M  V30 7692 C 741.613 3.44643 -2.48004 0
M  V30 7693 O 742.637 2.85119 -2.13508 0
M  V30 7694 O 741.496 4.52044 -3.07113 0
M  V30 7695 H 738.59 0.703408 -0.434909 0
M  V30 7696 H 741.136 0.905788 -1.43505 0
M  V30 7697 H 739.908 2.36198 -3.11971 0
M  V30 7698 H 739.531 3.51792 -1.85279 0
M  V30 7699 N 740.528 1.15101 1.07655 0
M  V30 7700 C 741.46 0.802722 2.14684 0
M  V30 7701 C 742.473 -0.183874 1.61758 0
M  V30 7702 O 743.662 0.0389349 1.78458 0
M  V30 7703 C 740.762 0.172135 3.38463 0
M  V30 7704 C 739.935 1.19538 4.20749 0
M  V30 7705 C 738.994 0.58714 5.22914 0
M  V30 7706 O 738.02 1.25224 5.55255 0
M  V30 7707 N 739.222 -0.632566 5.77043 0
M  V30 7708 H 741.987 1.72379 2.45164 0
M  V30 7709 H 739.548 1.04647 1.23534 0
M  V30 7710 H 741.54 -0.247465 4.03943 0
M  V30 7711 H 740.11 -0.652214 3.0572 0
M  V30 7712 H 739.33 1.79165 3.51132 0
M  V30 7713 H 740.618 1.88636 4.7254 0
M  V30 7714 H 740.016 -1.19135 5.53013 0
M  V30 7715 H 738.573 -0.994566 6.44167 0
M  V30 7716 N 742.006 -1.2595 0.947325 0
M  V30 7717 C 742.969 -2.24407 0.466285 0
M  V30 7718 C 743.969 -1.55054 -0.426005 0
M  V30 7719 O 745.159 -1.7275 -0.224319 0
M  V30 7720 C 742.291 -3.39326 -0.327201 0
M  V30 7721 H 743.484 -2.68477 1.33642 0
M  V30 7722 H 741.037 -1.38211 0.729887 0
M  V30 7723 H 741.772 -3.00667 -1.21532 0
M  V30 7724 H 741.557 -3.9085 0.312839 0
M  V30 7725 H 743.047 -4.12455 -0.653477 0
M  V30 7726 N 743.484 -0.715051 -1.40445 0
M  V30 7727 C 744.432 -0.0509974 -2.32544 0
M  V30 7728 C 745.426 0.747602 -1.52011 0
M  V30 7729 O 746.632 0.651031 -1.67814 0
M  V30 7730 H 743.007 0.00231113 -0.751996 0
M  V30 7731 H 744.978 -0.84449 -2.86201 0
M  V30 7732 C 743.727 0.857101 -3.3697 0
M  V30 7733 H 743.05 0.252 -3.99005 0
M  V30 7734 H 744.49 1.28971 -4.03909 0
M  V30 7735 C 742.949 1.98231 -2.72408 0
M  V30 7736 O 743.479 3.07309 -2.58697 0
M  V30 7737 N 741.685 1.76577 -2.308 0
M  V30 7738 H 741.232 0.878641 -2.42152 0
M  V30 7739 H 741.19 2.52043 -1.87941 0
M  V30 7740 N 744.962 1.50701 -0.461195 0
M  V30 7741 C 745.91 2.29918 0.352231 0
M  V30 7742 C 746.904 1.36778 0.999403 0
M  V30 7743 O 748.11 1.54015 0.931639 0
M  V30 7744 H 744.485 0.740249 0.132423 0
M  V30 7745 H 746.456 2.96497 -0.336424 0
M  V30 7746 C 745.205 3.17052 1.42736 0
M  V30 7747 H 744.528 3.88623 0.938747 0
M  V30 7748 H 745.968 3.75493 1.96928 0
M  V30 7749 C 744.427 2.3399 2.42384 0
M  V30 7750 O 744.957 2.01608 3.47444 0
M  V30 7751 N 743.163 1.96758 2.13857 0
M  V30 7752 H 742.71 2.23292 1.28447 0
M  V30 7753 H 742.668 1.41484 2.80766 0
M  V30 7754 N 746.441 0.193421 1.56409 0
M  V30 7755 C 747.852 -0.319471 1.83946 0
M  V30 7756 C 748.203 -1.61505 1.11403 0
M  V30 7757 O 747.328 -2.13139 0.374289 0
M  V30 7758 C 747.923 -0.586411 3.33686 0
M  V30 7759 C 746.482 -1.04368 3.61641 0
M  V30 7760 C 745.629 -0.0913834 2.77149 0
M  V30 7761 H 748.58 0.417242 1.53117 0
M  V30 7762 H 748.601 -1.43591 3.52366 0
M  V30 7763 H 748.113 0.356701 3.86457 0
M  V30 7764 H 746.214 -2.00113 3.14302 0
M  V30 7765 H 746.327 -0.937549 4.69837 0
M  V30 7766 H 744.691 -0.592954 2.47702 0
M  V30 7767 H 745.474 0.846142 3.32709 0
M  V30 7768 N 747.919 -1.57396 -0.0801906 0
M  V30 7769 C 749.196 -1.77883 -0.813451 0
M  V30 7770 C 749.576 -0.778879 -1.96206 0
M  V30 7771 O 748.924 0.189683 -2.27711 0
M  V30 7772 C 749.134 -3.24116 -1.2942 0
M  V30 7773 C 750.482 -3.87714 -1.73098 0
M  V30 7774 O 751.506 -3.27956 -1.39007 0
M  V30 7775 O 750.365 -4.92828 -2.36184 0
M  V30 7776 H 747.459 -0.729727 -0.389138 0
M  V30 7777 H 750.005 -1.69591 -0.0609166 0
M  V30 7778 H 748.777 -3.88443 -0.471947 0
M  V30 7779 H 748.4 -3.371 -2.1083 0
M  V30 7780 N 749.397 0.351382 -1.53633 0
M  V30 7781 C 750.307 1.45471 -1.84052 0
M  V30 7782 C 751.323 1.57945 -0.730015 0
M  V30 7783 O 752.499 1.73571 -1.02153 0
M  V30 7784 C 749.564 2.80562 -2.03681 0
M  V30 7785 C 748.625 2.77497 -3.27558 0
M  V30 7786 C 747.858 4.06144 -3.46241 0
M  V30 7787 O 748.081 5.03028 -2.68922 0
M  V30 7788 O 747.015 4.11092 -4.39645 0
M  V30 7789 H 750.841 1.22684 -2.77817 0
M  V30 7790 H 748.426 0.542827 -1.3919 0
M  V30 7791 H 750.308 3.6058 -2.18082 0
M  V30 7792 H 748.983 3.03296 -1.13106 0
M  V30 7793 H 747.89 1.96126 -3.18568 0
M  V30 7794 H 749.223 2.59716 -4.18101 0
M  V30 7795 N 750.875 1.45233 0.611969 0
M  V30 7796 C 752.121 1.50233 1.37119 0
M  V30 7797 C 752.476 0.140336 1.91888 0
M  V30 7798 O 751.769 -0.847161 1.71854 0
M  V30 7799 C 751.963 2.51353 2.54079 0
M  V30 7800 C 751.792 3.97251 2.10764 0
M  V30 7801 C 750.562 4.65256 1.97141 0
M  V30 7802 C 752.76 4.85914 1.68499 0
M  V30 7803 N 750.742 5.95895 1.4759 0
M  V30 7804 C 752.113 6.06147 1.30331 0
M  V30 7805 C 754.168 4.72813 1.56051 0
M  V30 7806 C 752.871 7.14729 0.809591 0
M  V30 7807 C 754.897 5.8144 1.08083 0
M  V30 7808 C 754.259 7.00825 0.708775 0
M  V30 7809 H 750.358 0.604708 0.495835 0
M  V30 7810 H 752.942 1.81679 0.700055 0
M  V30 7811 H 751.113 2.21866 3.18795 0
M  V30 7812 H 752.845 2.46528 3.20945 0
M  V30 7813 H 749.6 4.20345 2.18191 0
M  V30 7814 H 750.024 6.65349 1.25059 0
M  V30 7815 H 754.666 3.80931 1.83443 0
M  V30 7816 H 752.384 8.06404 0.523215 0
M  V30 7817 H 755.97 5.73335 0.988842 0
M  V30 7818 H 754.85 7.83448 0.343305 0
M  V30 7819 N 752.353 -0.854086 1.3245 0
M  V30 7820 C 753.6 -1.60831 1.23043 0
M  V30 7821 C 753.928 -1.93389 -0.2076 0
M  V30 7822 O 753.183 -1.5756 -1.16075 0
M  V30 7823 C 753.482 -2.93746 2.03587 0
M  V30 7824 C 753.148 -2.80615 3.52939 0
M  V30 7825 C 751.81 -2.76742 3.93659 0
M  V30 7826 C 754.162 -2.66507 4.4791 0
M  V30 7827 C 751.49 -2.56638 5.27592 0
M  V30 7828 C 753.842 -2.47939 5.81987 0
M  V30 7829 C 752.506 -2.42458 6.21909 0
M  V30 7830 H 751.776 -0.588523 0.450247 0
M  V30 7831 H 754.423 -0.990699 1.63882 0
M  V30 7832 H 752.728 -3.5963 1.55478 0
M  V30 7833 H 754.425 -3.51127 1.93677 0
M  V30 7834 H 751.015 -2.84456 3.20598 0
M  V30 7835 H 755.199 -2.68544 4.1737 0
M  V30 7836 H 750.455 -2.50831 5.57579 0
M  V30 7837 H 754.629 -2.36002 6.55192 0
M  V30 7838 H 752.256 -2.2664 7.2563 0
M  V30 7839 N 753.831 -1.1567 -1.07043 0
M  V30 7840 C 755.08 -0.928039 -1.79082 0
M  V30 7841 C 755.393 0.545968 -1.87826 0
M  V30 7842 O 756.599 0.892308 -2.56418 0
M  V30 7843 C 755.055 -1.61103 -3.21829 0
M  V30 7844 C 754.663 -3.12228 -3.21275 0
M  V30 7845 C 756.407 -1.46404 -3.98455 0
M  V30 7846 C 754.314 -3.733 -4.58695 0
M  V30 7847 H 753.244 -0.34357 -0.671175 0
M  V30 7848 H 755.895 -1.38718 -1.20123 0
M  V30 7849 H 754.277 -1.07958 -3.81 0
M  V30 7850 H 755.451 -3.72155 -2.71731 0
M  V30 7851 H 753.766 -3.26725 -2.58147 0
M  V30 7852 H 756.363 -1.8942 -5.00024 0
M  V30 7853 H 756.706 -0.41195 -4.14257 0
M  V30 7854 H 757.239 -1.96663 -3.45787 0
M  V30 7855 H 753.978 -4.78423 -4.48098 0
M  V30 7856 H 753.498 -3.18157 -5.08465 0
M  V30 7857 H 755.177 -3.7441 -5.27661 0
M  V30 7858 N 755.309 1.25446 -0.953992 0
M  V30 7859 C 756.555 1.93756 -0.618888 0
M  V30 7860 C 756.91 1.73344 0.83484 0
M  V30 7861 O 756.203 1.06753 1.59105 0
M  V30 7862 C 756.397 3.45555 -0.912496 0
M  V30 7863 C 756.226 3.8073 -2.39321 0
M  V30 7864 C 754.996 4.02819 -3.05065 0
M  V30 7865 C 757.194 3.88286 -3.37251 0
M  V30 7866 N 755.176 4.24981 -4.43017 0
M  V30 7867 C 756.547 4.1513 -4.60507 0
M  V30 7868 C 758.602 3.70965 -3.32099 0
M  V30 7869 C 757.305 4.26454 -5.79249 0
M  V30 7870 C 759.331 3.83528 -4.50178 0
M  V30 7871 C 758.693 4.10783 -5.72221 0
M  V30 7872 H 754.792 0.731271 -0.277069 0
M  V30 7873 H 757.376 1.5125 -1.22604 0
M  V30 7874 H 755.547 3.86959 -0.334284 0
M  V30 7875 H 757.279 4.01117 -0.537362 0
M  V30 7876 H 754.034 3.9868 -2.55639 0
M  V30 7877 H 754.458 4.4007 -5.14459 0
M  V30 7878 H 759.1 3.4891 -2.38791 0
M  V30 7879 H 756.818 4.47325 -6.72998 0
M  V30 7880 H 760.404 3.71513 -4.47738 0
M  V30 7881 H 759.284 4.20285 -6.62065 0
M  V30 7882 N 756.787 0.722489 1.40064 0
M  V30 7883 C 757.719 0.0349057 2.29173 0
M  V30 7884 C 758.732 -0.716571 1.46182 0
M  V30 7885 O 759.921 -0.562806 1.69395 0
M  V30 7886 C 757.021 -0.974839 3.24577 0
M  V30 7887 C 756.194 -0.287471 4.36454 0
M  V30 7888 C 755.253 -1.20356 5.12251 0
M  V30 7889 O 754.279 -0.685753 5.65054 0
M  V30 7890 N 755.481 -2.53422 5.22262 0
M  V30 7891 H 758.246 0.800058 2.88824 0
M  V30 7892 H 755.807 0.57068 1.51509 0
M  V30 7893 H 757.799 -1.59002 3.72157 0
M  V30 7894 H 756.369 -1.6413 2.66046 0
M  V30 7895 H 755.589 0.508008 3.90913 0
M  V30 7896 H 756.877 0.189382 5.08447 0
M  V30 7897 H 756.275 -2.97981 4.80857 0
M  V30 7898 H 754.832 -3.10067 5.73325 0
M  V30 7899 N 758.265 -1.50454 0.469181 0
M  V30 7900 C 759.228 -2.2703 -0.314643 0
M  V30 7901 C 760.228 -1.31734 -0.922111 0
M  V30 7902 O 761.418 -1.55176 -0.791588 0
M  V30 7903 C 758.55 -3.08616 -1.44806 0
M  V30 7904 H 759.743 -2.97769 0.356892 0
M  V30 7905 H 757.296 -1.54698 0.223191 0
M  V30 7906 H 758.031 -2.42369 -2.1547 0
M  V30 7907 H 757.816 -3.78647 -1.01829 0
M  V30 7908 H 759.306 -3.66536 -2.00103 0
M  V30 7909 N 759.743 -0.201713 -1.56304 0
M  V30 7910 C 760.991 0.434447 -1.97375 0
M  V30 7911 C 761.312 1.61692 -1.08998 0
M  V30 7912 O 760.582 1.95223 -0.162682 0
M  V30 7913 H 759.162 0.163497 -0.728888 0
M  V30 7914 H 761.824 -0.289988 -1.92731 0
M  V30 7915 H 760.92 0.774136 -3.02347 0
M  V30 7916 N 761.222 1.57436 0.0718424 0
M  V30 7917 C 762.499 1.78312 0.804006 0
M  V30 7918 C 762.879 0.789273 1.9579 0
M  V30 7919 O 762.227 -0.177605 2.27809 0
M  V30 7920 C 762.437 3.24798 1.277 0
M  V30 7921 C 763.785 3.88627 1.71039 0
M  V30 7922 O 764.809 3.28689 1.37266 0
M  V30 7923 O 763.668 4.94073 2.33567 0
M  V30 7924 H 760.762 0.73178 0.385262 0
M  V30 7925 H 763.308 1.69621 0.0519219 0
M  V30 7926 H 762.08 3.88688 0.45134 0
M  V30 7927 H 761.703 3.38213 2.0904 0
M  V30 7928 N 762.7 -0.34323 1.53817 0
M  V30 7929 C 763.93 -1.10188 1.74763 0
M  V30 7930 C 764.338 -1.82829 0.486856 0
M  V30 7931 O 763.681 -1.75236 -0.551198 0
M  V30 7932 C 763.743 -2.16 2.87375 0
M  V30 7933 C 763.407 -1.62931 4.26969 0
M  V30 7934 C 764.404 -1.08147 5.08528 0
M  V30 7935 C 762.089 -1.67769 4.73454 0
M  V30 7936 C 764.083 -0.589039 6.34672 0
M  V30 7937 C 761.77 -1.18138 5.99572 0
M  V30 7938 C 762.768 -0.637979 6.80014 0
M  V30 7939 O 762.456 -0.149073 8.03762 0
M  V30 7940 H 762.188 -0.33445 0.587469 0
M  V30 7941 H 764.742 -0.401109 2.01445 0
M  V30 7942 H 762.972 -2.89637 2.56218 0
M  V30 7943 H 764.661 -2.77432 2.96287 0
M  V30 7944 H 765.427 -1.03732 4.73777 0
M  V30 7945 H 761.306 -2.09004 4.10899 0
M  V30 7946 H 764.85 -0.164233 6.97407 0
M  V30 7947 H 760.747 -1.22254 6.33817 0
M  V30 7948 H 761.515 -0.266332 8.18067 0
M  V30 7949 N 764.178 -1.45556 -0.604258 0
M  V30 7950 C 765.426 -1.4945 -1.36048 0
M  V30 7951 C 765.747 -0.138933 -1.94504 0
M  V30 7952 O 765.017 0.832097 -1.7735 0
M  V30 7953 H 763.597 -0.550381 -0.505064 0
M  V30 7954 H 766.259 -1.81535 -0.709308 0
M  V30 7955 H 765.355 -2.23519 -2.17821 0
M  V30 7956 N 765.656 0.84705 -1.32902 0
M  V30 7957 C 766.905 1.59667 -1.23245 0
M  V30 7958 C 767.218 1.94551 0.202349 0
M  V30 7959 O 768.424 2.68218 0.420847 0
M  V30 7960 C 766.88 2.8795 -2.15901 0
M  V30 7961 C 766.488 2.60461 -3.64505 0
M  V30 7962 C 768.232 3.65968 -2.15098 0
M  V30 7963 C 766.139 3.84791 -4.49099 0
M  V30 7964 H 765.069 0.599167 -0.457728 0
M  V30 7965 H 767.72 0.934662 -1.57912 0
M  V30 7966 H 766.102 3.55648 -1.74157 0
M  V30 7967 H 767.276 2.01026 -4.14639 0
M  V30 7968 H 765.591 1.9576 -3.67515 0
M  V30 7969 H 768.188 4.58241 -2.75534 0
M  V30 7970 H 768.531 4.00275 -1.14392 0
M  V30 7971 H 769.064 3.05184 -2.55162 0
M  V30 7972 H 765.803 3.55621 -5.50649 0
M  V30 7973 H 765.323 4.43594 -4.03713 0
M  V30 7974 H 767.002 4.52454 -4.62487 0
M  V30 7975 N 767.134 1.16236 1.06428 0
M  V30 7976 C 768.359 0.967688 1.83441 0
M  V30 7977 C 768.784 -0.479167 1.81894 0
M  V30 7978 O 768.142 -1.34224 1.21875 0
M  V30 7979 C 768.19 1.49806 3.2801 0
M  V30 7980 O 767.294 0.703481 4.06356 0
M  V30 7981 H 766.635 0.344468 0.56766 0
M  V30 7982 H 769.165 1.54442 1.34197 0
M  V30 7983 H 769.175 1.51495 3.78831 0
M  V30 7984 H 767.85 2.55133 3.2845 0
M  V30 7985 H 766.427 0.756986 3.65136 0
M  V30 7986 N 768.612 -1.24939 0.960631 0
M  V30 7987 C 769.86 -1.92437 0.617441 0
M  V30 7988 C 770.181 -1.75543 -0.849101 0
M  V30 7989 O 769.451 -1.12269 -1.60538 0
M  V30 7990 H 768.031 -0.712192 0.225371 0
M  V30 7991 H 770.693 -1.5198 1.22017 0
M  V30 7992 H 769.789 -3.00247 0.851933 0
M  V30 7993 N 770.09 -0.729906 -1.39679 0
M  V30 7994 C 771.053 -0.0951668 -2.29002 0
M  V30 7995 C 772.053 0.672471 -1.46063 0
M  V30 7996 O 773.243 0.502245 -1.66803 0
M  V30 7997 C 770.375 0.874631 -3.29489 0
M  V30 7998 H 771.568 -0.882062 -2.86635 0
M  V30 7999 H 769.121 -0.495424 -1.4824 0
M  V30 8000 H 769.856 1.68807 -2.76902 0
M  V30 8001 H 769.641 0.326893 -3.90735 0
M  V30 8002 H 771.131 1.31548 -3.96339 0
M  V30 8003 N 771.568 1.50203 -0.477153 0
M  V30 8004 C 772.984 1.59056 -0.131663 0
M  V30 8005 C 773.184 1.48473 1.36227 0
M  V30 8006 O 772.24 1.34635 2.13611 0
M  V30 8007 C 773.553 2.92741 -0.687254 0
M  V30 8008 C 775.101 3.0615 -0.651223 0
M  V30 8009 C 775.576 4.42419 -1.18446 0
M  V30 8010 N 777.067 4.48847 -1.14413 0
M  V30 8011 C 777.802 5.52689 -1.52717 0
M  V30 8012 N 777.298 6.63754 -1.98499 0
M  V30 8013 N 779.091 5.43267 -1.44282 0
M  V30 8014 H 771.242 1.55325 -1.44872 0
M  V30 8015 H 773.505 0.734395 -0.599473 0
M  V30 8016 H 773.211 3.0598 -1.73405 0
M  V30 8017 H 773.085 3.76961 -0.134215 0
M  V30 8018 H 775.472 2.92556 0.386677 0
M  V30 8019 H 775.553 2.23673 -1.24114 0
M  V30 8020 H 775.197 4.56763 -2.22103 0
M  V30 8021 H 775.127 5.23498 -0.570709 0
M  V30 8022 H 777.618 3.69152 -0.808416 0
M  V30 8023 H 777.931 7.39059 -2.25859 0
M  V30 8024 H 776.276 6.64858 -2.02456 0
M  V30 8025 H 779.467 4.55387 -1.08352 0
M  V30 8026 H 779.64 6.24074 -1.74459 0
M  V30 8027 N 773.046 0.209999 1.56195 0
M  V30 8028 C 774.292 -0.425442 1.98287 0
M  V30 8029 C 774.625 -1.60232 1.09724 0
M  V30 8030 O 773.9 -1.93902 0.152414 0
M  V30 8031 C 774.183 -0.871189 3.49403 0
M  V30 8032 C 774.036 0.308527 4.48741 0
M  V30 8033 C 775.355 -1.73146 4.04609 0
M  V30 8034 H 772.474 -0.153169 0.720908 0
M  V30 8035 H 775.116 0.303916 1.87554 0
M  V30 8036 H 773.266 -1.49266 3.58681 0
M  V30 8037 H 774.938 0.946487 4.51486 0
M  V30 8038 H 773.181 0.957878 4.23092 0
M  V30 8039 H 773.852 -0.0461143 5.51981 0
M  V30 8040 H 776.328 -1.2072 3.98203 0
M  V30 8041 H 775.204 -2.01228 5.10684 0
M  V30 8042 H 775.465 -2.69083 3.5078 0
M  V30 8043 N 774.524 -1.57472 -0.0634922 0
M  V30 8044 C 775.749 -1.92273 -0.77756 0
M  V30 8045 C 776.174 -0.807141 -1.69902 0
M  V30 8046 O 775.532 0.239523 -1.79711 0
M  V30 8047 C 775.58 -3.26054 -1.54017 0
M  V30 8048 O 774.684 -3.15873 -2.65138 0
M  V30 8049 H 774.025 -0.629389 -0.211579 0
M  V30 8050 H 776.555 -2.04579 -0.0292523 0
M  V30 8051 H 776.565 -3.60127 -1.91763 0
M  V30 8052 H 775.24 -4.06824 -0.864128 0
M  V30 8053 H 773.817 -2.93373 -2.30189 0
M  V30 8054 N 776.003 0.335068 -1.53997 0
M  V30 8055 C 777.28 1.09188 -1.62288 0
M  V30 8056 C 777.66 2.0626 -0.449458 0
M  V30 8057 O 777.008 2.21596 0.557444 0
M  V30 8058 C 777.218 1.80403 -2.98757 0
M  V30 8059 C 778.566 2.33841 -3.54406 0
M  V30 8060 O 779.59 1.90487 -3.00987 0
M  V30 8061 O 778.449 3.1318 -4.47862 0
M  V30 8062 H 775.543 0.502621 -0.656736 0
M  V30 8063 H 778.089 0.33588 -1.66343 0
M  V30 8064 H 776.861 1.09732 -3.75599 0
M  V30 8065 H 776.484 2.62841 -2.9833 0
M  V30 8066 N 777.481 1.45874 0.596531 0
M  V30 8067 C 778.711 1.5379 1.37958 0
M  V30 8068 C 779.119 0.173086 1.88407 0
M  V30 8069 O 778.462 -0.837498 1.63498 0
M  V30 8070 C 778.524 2.47044 2.61169 0
M  V30 8071 C 778.188 3.93565 2.32283 0
M  V30 8072 C 779.185 4.83162 1.91965 0
M  V30 8073 C 776.87 4.38579 2.44854 0
M  V30 8074 C 778.864 6.15782 1.64593 0
M  V30 8075 C 776.551 5.71238 2.17095 0
M  V30 8076 C 777.549 6.59659 1.77028 0
M  V30 8077 O 777.237 7.89857 1.49601 0
M  V30 8078 H 776.969 0.523 0.428307 0
M  V30 8079 H 779.523 1.91855 0.733529 0
M  V30 8080 H 777.753 2.0397 3.28532 0
M  V30 8081 H 779.442 2.4552 3.23226 0
M  V30 8082 H 780.208 4.49646 1.8178 0
M  V30 8083 H 776.087 3.6999 2.75006 0
M  V30 8084 H 779.631 6.84757 1.33245 0
M  V30 8085 H 775.528 6.04306 2.26901 0
M  V30 8086 H 776.296 8.01991 1.63561 0
M  V30 8087 N 778.959 -0.83999 1.33349 0
M  V30 8088 C 780.207 -1.59202 1.24496 0
M  V30 8089 C 780.528 -1.94077 -0.189499 0
M  V30 8090 O 779.798 -1.60868 -1.11796 0
M  V30 8091 H 778.378 -0.590276 0.457802 0
M  V30 8092 H 781.04 -1.00394 1.67054 0
M  V30 8093 H 780.136 -2.52247 1.83788 0
M  V30 8094 N 780.437 -1.16799 -1.0581 0
M  V30 8095 C 781.683 -0.953935 -1.78963 0
M  V30 8096 C 782.016 0.516638 -1.87202 0
M  V30 8097 O 781.291 1.38338 -1.36721 0
M  V30 8098 C 781.574 -1.58808 -3.23191 0
M  V30 8099 C 781.427 -3.13032 -3.23003 0
M  V30 8100 C 782.746 -1.2868 -4.20867 0
M  V30 8101 H 779.865 -0.347972 -0.64968 0
M  V30 8102 H 782.507 -1.44204 -1.23715 0
M  V30 8103 H 780.657 -1.17303 -3.70368 0
M  V30 8104 H 782.329 -3.63553 -2.83949 0
M  V30 8105 H 780.572 -3.46108 -2.61518 0
M  V30 8106 H 781.243 -3.52527 -4.24769 0
M  V30 8107 H 783.719 -1.6461 -3.82155 0
M  V30 8108 H 782.595 -1.75645 -5.20038 0
M  V30 8109 H 782.856 -0.206491 -4.41618 0
M  V30 8110 N 781.915 1.24427 -0.967243 0
M  V30 8111 C 783.331 1.44684 -0.6737 0
M  V30 8112 C 783.531 1.86429 0.764625 0
M  V30 8113 O 782.587 2.00211 1.53857 0
M  V30 8114 C 783.9 2.509 -1.6574 0
M  V30 8115 C 785.448 2.64728 -1.66998 0
M  V30 8116 C 785.923 3.7414 -2.64165 0
M  V30 8117 N 787.414 3.81567 -2.62604 0
M  V30 8118 C 788.149 4.6575 -3.34462 0
M  V30 8119 N 787.645 5.54124 -4.15835 0
M  V30 8120 N 789.438 4.59827 -3.23288 0
M  V30 8121 H 781.589 0.956276 -1.89655 0
M  V30 8122 H 783.852 0.48171 -0.816492 0
M  V30 8123 H 783.558 2.27113 -2.68538 0
M  V30 8124 H 783.432 3.4905 -1.42981 0
M  V30 8125 H 785.819 2.87872 -0.649121 0
M  V30 8126 H 785.9 1.66936 -1.93819 0
M  V30 8127 H 785.544 3.51745 -3.66384 0
M  V30 8128 H 785.474 4.71444 -2.34623 0
M  V30 8129 H 787.965 3.18403 -2.03539 0
M  V30 8130 H 788.278 6.15316 -4.67553 0
M  V30 8131 H 786.623 5.53791 -4.19929 0
M  V30 8132 H 789.814 3.898 -2.59179 0
M  V30 8133 H 789.987 5.25208 -3.79553 0
M  V30 8134 N 783.393 0.737304 1.3929 0
M  V30 8135 C 784.67 0.212464 1.94443 0
M  V30 8136 C 785.05 -1.28621 1.67391 0
M  V30 8137 O 784.398 -2.0529 1.00342 0
M  V30 8138 C 784.608 0.548565 3.44662 0
M  V30 8139 C 785.956 0.499177 4.21656 0
M  V30 8140 O 786.98 0.485892 3.5287 0
M  V30 8141 O 785.839 0.495739 5.44247 0
M  V30 8142 H 782.933 0.0395457 0.826054 0
M  V30 8143 H 785.479 0.816319 1.48776 0
M  V30 8144 H 784.251 1.58426 3.57795 0
M  V30 8145 H 783.874 -0.0841399 3.97511 0
M  V30 8146 N 784.871 -1.49948 0.485112 0
M  V30 8147 C 786.119 -2.01996 -0.0648775 0
M  V30 8148 C 786.44 -1.36819 -1.38945 0
M  V30 8149 O 785.71 -0.518163 -1.88923 0
M  V30 8150 H 784.29 -0.746513 -0.0269662 0
M  V30 8151 H 786.952 -1.84136 0.638733 0
M  V30 8152 H 786.048 -3.11418 -0.20617 0
M  V30 8153 N 786.349 -0.21828 -1.56081 0
M  V30 8154 C 787.579 0.41865 -2.02314 0
M  V30 8155 C 787.987 1.54124 -1.09739 0
M  V30 8156 O 787.33 1.83435 -0.0986829 0
M  V30 8157 C 787.392 1.01439 -3.44892 0
M  V30 8158 C 787.056 0.0276523 -4.56992 0
M  V30 8159 C 788.053 -0.771526 -5.14143 0
M  V30 8160 C 785.738 -0.0901537 -5.02219 0
M  V30 8161 C 787.732 -1.67525 -6.14991 0
M  V30 8162 C 785.419 -0.997411 -6.02905 0
M  V30 8163 C 786.417 -1.78851 -6.59167 0
M  V30 8164 O 786.105 -2.68052 -7.57894 0
M  V30 8165 H 785.837 0.107066 -0.667468 0
M  V30 8166 H 788.391 -0.331191 -2.02712 0
M  V30 8167 H 786.621 1.81326 -3.41552 0
M  V30 8168 H 788.31 1.55838 -3.74792 0
M  V30 8169 H 789.076 -0.690945 -4.80053 0
M  V30 8170 H 784.955 0.515474 -4.58109 0
M  V30 8171 H 788.499 -2.29316 -6.58832 0
M  V30 8172 H 784.396 -1.07902 -6.36418 0
M  V30 8173 H 785.164 -2.6209 -7.75404 0
M  V30 8174 N 787.827 1.57504 0.0551401 0
M  V30 8175 C 788.79 2.03826 1.04821 0
M  V30 8176 C 789.79 0.937968 1.30609 0
M  V30 8177 O 790.98 1.20237 1.2605 0
M  V30 8178 C 788.112 2.43309 2.38775 0
M  V30 8179 H 789.305 2.92802 0.6486 0
M  V30 8180 H 786.858 1.53368 0.301315 0
M  V30 8181 H 787.593 1.5741 2.83536 0
M  V30 8182 H 787.378 3.23615 2.21395 0
M  V30 8183 H 788.868 2.79666 3.10124 0
M  V30 8184 N 789.305 -0.326896 1.54172 0
M  V30 8185 C 790.535 -1.08328 1.75922 0
M  V30 8186 C 790.943 -1.82302 0.50622 0
M  V30 8187 O 790.286 -1.7581 -0.532581 0
M  V30 8188 C 790.348 -2.1294 2.8965 0
M  V30 8189 C 790.012 -1.58394 4.28673 0
M  V30 8190 C 791.009 -1.02747 5.09646 0
M  V30 8191 C 788.694 -1.62737 4.75207 0
M  V30 8192 C 790.688 -0.52169 6.35261 0
M  V30 8193 C 788.375 -1.11772 6.00791 0
M  V30 8194 C 789.373 -0.565819 6.80652 0
M  V30 8195 O 789.061 -0.0638146 8.03875 0
M  V30 8196 H 788.793 -0.3282 0.590983 0
M  V30 8197 H 791.347 -0.37972 2.0186 0
M  V30 8198 H 789.577 -2.86903 2.59275 0
M  V30 8199 H 791.266 -2.74274 2.99213 0
M  V30 8200 H 792.032 -0.987007 4.74851 0
M  V30 8201 H 787.911 -2.04635 4.13093 0
M  V30 8202 H 791.455 -0.0902544 6.97542 0
M  V30 8203 H 787.352 -1.15524 6.35078 0
M  V30 8204 H 788.12 -0.17955 8.18303 0
M  V30 8205 N 790.784 -1.46188 -0.588786 0
M  V30 8206 C 792.033 -1.50452 -1.34339 0
M  V30 8207 C 792.346 -0.158096 -1.9496 0
M  V30 8208 O 793.552 -0.0784918 -2.71387 0
M  V30 8209 C 792.008 -2.65074 -2.43441 0
M  V30 8210 C 791.616 -4.06111 -1.8915 0
M  V30 8211 C 793.36 -2.78603 -3.20282 0
M  V30 8212 C 791.267 -5.12084 -2.95845 0
M  V30 8213 H 790.197 -0.559905 -0.504997 0
M  V30 8214 H 792.848 -1.72382 -0.629014 0
M  V30 8215 H 791.23 -2.36462 -3.1765 0
M  V30 8216 H 792.404 -4.44487 -1.21524 0
M  V30 8217 H 790.719 -3.97197 -1.24995 0
M  V30 8218 H 793.316 -3.54944 -3.99898 0
M  V30 8219 H 793.659 -1.85902 -3.72486 0
M  V30 8220 H 794.192 -3.06832 -2.53178 0
M  V30 8221 H 790.931 -6.06556 -2.48535 0
M  V30 8222 H 790.451 -4.78259 -3.61979 0
M  V30 8223 H 792.13 -5.37661 -3.59902 0
M  V30 8224 N 792.262 0.832906 -1.33792 0
M  V30 8225 C 793.49 1.62048 -1.28639 0
M  V30 8226 C 793.905 1.88269 0.141522 0
M  V30 8227 O 793.262 1.46706 1.08553 0
M  V30 8228 C 793.313 2.96722 -2.0649 0
M  V30 8229 O 793.034 2.7165 -3.43712 0
M  V30 8230 C 794.535 3.91144 -2.08617 0
M  V30 8231 H 791.755 0.504032 -0.442937 0
M  V30 8232 H 794.299 1.03704 -1.76255 0
M  V30 8233 H 792.454 3.51652 -1.62541 0
M  V30 8234 H 792.868 3.57453 -3.83833 0
M  V30 8235 H 794.342 4.82837 -2.67531 0
M  V30 8236 H 794.819 4.25766 -1.07796 0
M  V30 8237 H 795.425 3.42152 -2.52611 0
M  V30 8238 N 793.74 1.17359 1.05189 0
M  V30 8239 C 794.989 0.956412 1.77583 0
M  V30 8240 C 795.302 -0.516018 1.88671 0
M  V30 8241 O 796.508 -0.851401 2.57805 0
M  V30 8242 C 794.964 1.66203 3.19225 0
M  V30 8243 C 794.572 3.17299 3.16267 0
M  V30 8244 C 796.316 1.52725 3.96075 0
M  V30 8245 C 794.223 3.8055 4.52698 0
M  V30 8246 H 793.153 0.354204 0.665624 0
M  V30 8247 H 795.804 1.40612 1.17901 0
M  V30 8248 H 794.186 1.14006 3.79234 0
M  V30 8249 H 795.36 3.76431 2.65776 0
M  V30 8250 H 793.675 3.3079 2.52917 0
M  V30 8251 H 796.272 1.97351 4.96947 0
M  V30 8252 H 796.615 0.477803 4.13549 0
M  V30 8253 H 797.148 2.02139 3.42614 0
M  V30 8254 H 793.887 4.85492 4.4043 0
M  V30 8255 H 793.407 3.26206 5.03339 0
M  V30 8256 H 795.086 3.82757 5.21638 0
M  V30 8257 N 795.218 -1.23913 0.973828 0
M  V30 8258 C 796.181 -2.23367 0.51378 0
M  V30 8259 C 797.181 -1.55923 -0.39302 0
M  V30 8260 O 798.371 -1.73187 -0.187626 0
M  V30 8261 C 795.503 -3.39944 -0.255152 0
M  V30 8262 H 796.696 -2.65581 1.39307 0
M  V30 8263 H 794.249 -1.36632 0.759039 0
M  V30 8264 H 794.984 -3.03177 -1.15127 0
M  V30 8265 H 794.769 -3.90098 0.395673 0
M  V30 8266 H 796.259 -4.13749 -0.565842 0
M  V30 8267 N 796.696 -0.74468 -1.38897 0
M  V30 8268 C 797.973 -0.222773 -1.94327 0
M  V30 8269 C 798.353 1.27731 -1.68071 0
M  V30 8270 O 797.701 2.04754 -1.01429 0
M  V30 8271 C 797.911 -0.566836 -3.44366 0
M  V30 8272 C 799.259 -0.521531 -4.21385 0
M  V30 8273 O 800.283 -0.504599 -3.52608 0
M  V30 8274 O 799.142 -0.524595 -5.43976 0
M  V30 8275 H 796.236 -0.0439259 -0.825833 0
M  V30 8276 H 798.782 -0.824197 -1.48341 0
M  V30 8277 H 797.554 -1.60321 -3.56949 0
M  V30 8278 H 797.177 0.0630577 -3.9755 0
M  V30 8279 N 798.174 1.49689 -0.493057 0
M  V30 8280 C 799.585 1.8665 -0.0433032 0
M  V30 8281 C 799.936 1.40607 1.36836 0
M  V30 8282 O 799.061 0.780503 2.01834 0
M  V30 8283 C 799.656 3.38724 -0.0718069 0
M  V30 8284 C 798.215 3.75015 0.32257 0
M  V30 8285 C 797.362 2.7366 -0.4478 0
M  V30 8286 H 800.313 1.42119 -0.706246 0
M  V30 8287 H 800.334 3.73522 0.725347 0
M  V30 8288 H 799.846 3.72204 -1.09935 0
M  V30 8289 H 797.947 3.47142 1.35364 0
M  V30 8290 H 798.06 4.79099 0.00864259 0
M  V30 8291 H 796.424 2.54498 0.101354 0
M  V30 8292 H 797.207 3.09985 -1.47527 0
M  V30 8293 N 799.652 0.226554 1.55963 0
M  V30 8294 C 800.9 -0.402991 1.98041 0
M  V30 8295 C 801.221 -1.59938 1.11557 0
M  V30 8296 O 800.491 -1.9494 0.193719 0
M  V30 8297 H 799.071 -0.15188 0.731397 0
M  V30 8298 H 801.733 0.320613 1.92245 0
M  V30 8299 H 800.829 -0.725937 3.0354 0
M  V30 8300 N 801.13 -1.57531 -0.0467866 0
M  V30 8301 C 802.358 -1.92696 -0.753371 0
M  V30 8302 C 802.773 -0.824792 -1.69831 0
M  V30 8303 O 802.13 0.200155 -1.81399 0
M  V30 8304 C 802.181 -3.27728 -1.52566 0
M  V30 8305 O 801.902 -4.3371 -0.618674 0
M  V30 8306 C 803.403 -3.77066 -2.33101 0
M  V30 8307 H 800.623 -0.636367 -0.212788 0
M  V30 8308 H 803.167 -2.04498 -0.00959361 0
M  V30 8309 H 801.322 -3.17378 -2.22148 0
M  V30 8310 H 801.736 -5.11548 -1.15839 0
M  V30 8311 H 803.21 -4.74109 -2.82709 0
M  V30 8312 H 803.687 -3.07348 -3.13741 0
M  V30 8313 H 804.293 -3.90442 -1.68628 0
M  V30 8314 N 802.608 0.318715 -1.54344 0
M  V30 8315 C 803.885 1.07461 -1.63437 0
M  V30 8316 C 804.265 2.05771 -0.47131 0
M  V30 8317 O 803.613 2.22175 0.53391 0
M  V30 8318 C 803.823 1.77224 -3.00654 0
M  V30 8319 C 805.171 2.30069 -3.56866 0
M  V30 8320 O 806.195 1.87284 -3.0299 0
M  V30 8321 O 805.054 3.08412 -4.51159 0
M  V30 8322 H 802.148 0.495627 -0.66203 0
M  V30 8323 H 804.694 0.318218 -1.6669 0
M  V30 8324 H 803.466 1.05742 -3.76742 0
M  V30 8325 H 803.089 2.59662 -3.01101 0
M  V30 8326 N 804.086 1.46499 0.581025 0
M  V30 8327 C 805.314 1.5547 1.36517 0
M  V30 8328 C 805.729 0.196407 1.87776 0
M  V30 8329 O 805.086 -0.806577 1.63709 0
M  V30 8330 C 805.137 2.56084 2.55154 0
M  V30 8331 O 804.858 3.86637 2.06018 0
M  V30 8332 C 806.359 2.75011 3.47683 0
M  V30 8333 H 803.579 0.525703 0.416986 0
M  V30 8334 H 806.123 1.9192 0.706177 0
M  V30 8335 H 804.278 2.22633 3.17039 0
M  V30 8336 H 804.692 4.41413 2.83292 0
M  V30 8337 H 806.166 3.49329 4.27403 0
M  V30 8338 H 806.643 1.81978 3.99726 0
M  V30 8339 H 807.249 3.09565 2.91632 0
M  V30 8340 N 805.565 -0.825799 1.34232 0
M  V30 8341 C 806.811 -1.58379 1.27623 0
M  V30 8342 C 807.166 -1.91789 -0.15323 0
M  V30 8343 O 806.459 -1.56965 -1.09875 0
M  V30 8344 C 806.653 -2.89362 2.09772 0
M  V30 8345 C 806.482 -2.68747 3.60562 0
M  V30 8346 C 805.252 -2.6563 4.29848 0
M  V30 8347 C 807.45 -2.40463 4.54623 0
M  V30 8348 N 805.432 -2.3653 5.66504 0
M  V30 8349 C 806.803 -2.21032 5.79262 0
M  V30 8350 C 808.858 -2.26168 4.43568 0
M  V30 8351 C 807.561 -1.88754 6.94093 0
M  V30 8352 C 809.587 -1.95284 5.58228 0
M  V30 8353 C 808.949 -1.76674 6.81884 0
M  V30 8354 H 805.048 -0.582062 0.522234 0
M  V30 8355 H 807.632 -0.968308 1.68914 0
M  V30 8356 H 805.803 -3.48838 1.70783 0
M  V30 8357 H 807.535 -3.54716 1.94831 0
M  V30 8358 H 804.29 -2.79601 3.82257 0
M  V30 8359 H 804.714 -2.24827 6.38578 0
M  V30 8360 H 809.356 -2.39262 3.48588 0
M  V30 8361 H 807.074 -1.74397 7.89057 0
M  V30 8362 H 810.66 -1.84959 5.51617 0
M  V30 8363 H 809.54 -1.53123 7.69105 0
M  V30 8364 N 807.043 -1.17915 -1.04565 0
M  V30 8365 C 807.993 -0.869634 -2.10764 0
M  V30 8366 C 808.977 0.158502 -1.60117 0
M  V30 8367 O 810.169 -0.04483 -1.76943 0
M  V30 8368 C 807.298 -0.391642 -3.41059 0
M  V30 8369 C 806.384 -1.45156 -3.98485 0
M  V30 8370 N 806.775 -2.6667 -4.29792 0
M  V30 8371 C 805.073 -1.3109 -4.263 0
M  V30 8372 C 805.774 -3.34823 -4.75677 0
M  V30 8373 N 804.75 -2.62203 -4.76183 0
M  V30 8374 H 808.552 -1.79342 -2.32838 0
M  V30 8375 H 806.066 -1.0688 -1.22272 0
M  V30 8376 H 808.063 -0.151428 -4.16625 0
M  V30 8377 H 806.723 0.525862 -3.20413 0
M  V30 8378 H 807.734 -3.0358 -4.19594 0
M  V30 8379 H 804.411 -0.455545 -4.15007 0
M  V30 8380 H 805.801 -4.38645 -5.0896 0
M  V30 8381 N 808.521 1.23394 -0.980386 0
M  V30 8382 C 809.77 1.91116 -0.644785 0
M  V30 8383 C 810.083 1.77333 0.825367 0
M  V30 8384 O 811.289 2.39858 1.27203 0
M  V30 8385 C 809.745 3.42592 -1.10266 0
M  V30 8386 C 809.353 3.65037 -2.59715 0
M  V30 8387 C 811.097 4.1609 -0.8408 0
M  V30 8388 C 809.004 5.10148 -2.9917 0
M  V30 8389 H 807.934 0.715632 -0.23746 0
M  V30 8390 H 810.585 1.39829 -1.18828 0
M  V30 8391 H 808.967 3.92989 -0.487372 0
M  V30 8392 H 810.141 3.25186 -3.26482 0
M  V30 8393 H 808.456 3.04849 -2.83647 0
M  V30 8394 H 811.053 5.23021 -1.11143 0
M  V30 8395 H 811.396 4.15702 0.223085 0
M  V30 8396 H 811.929 3.71681 -1.41767 0
M  V30 8397 H 808.668 5.15668 -4.04682 0
M  V30 8398 H 808.188 5.50949 -2.37097 0
M  V30 8399 H 809.867 5.7848 -2.89775 0
M  V30 8400 N 809.999 0.752036 1.385 0
M  V30 8401 C 810.931 0.0835089 2.29048 0
M  V30 8402 C 811.944 -0.685402 1.47669 0
M  V30 8403 O 813.133 -0.526748 1.70551 0
M  V30 8404 C 810.233 -0.905772 3.26572 0
M  V30 8405 C 809.406 -0.194828 4.36966 0
M  V30 8406 C 808.465 -1.09464 5.14688 0
M  V30 8407 O 807.491 -0.565743 5.66381 0
M  V30 8408 N 808.693 -2.42287 5.2752 0
M  V30 8409 H 811.458 0.861142 2.87062 0
M  V30 8410 H 809.019 0.602689 1.50264 0
M  V30 8411 H 811.011 -1.51072 3.75446 0
M  V30 8412 H 809.581 -1.58449 2.69467 0
M  V30 8413 H 808.801 0.590812 3.89747 0
M  V30 8414 H 810.089 0.297189 5.07931 0
M  V30 8415 H 809.487 -2.87715 4.8707 0
M  V30 8416 H 808.044 -2.97836 5.79773 0
M  V30 8417 N 811.477 -1.49425 0.500989 0
M  V30 8418 C 812.724 -2.02453 -0.0435355 0
M  V30 8419 C 813.052 -1.38067 -1.36995 0
M  V30 8420 O 812.307 -0.505557 -1.89057 0
M  V30 8421 C 812.606 -3.56562 -0.24463 0
M  V30 8422 C 812.272 -4.39585 1.00379 0
M  V30 8423 C 810.934 -4.61992 1.346 0
M  V30 8424 C 813.286 -4.87881 1.83361 0
M  V30 8425 C 810.614 -5.2994 2.51755 0
M  V30 8426 C 812.966 -5.57119 2.99669 0
M  V30 8427 C 811.63 -5.77771 3.3427 0
M  V30 8428 H 810.9 -0.740829 -0.0159308 0
M  V30 8429 H 813.547 -1.79725 0.661143 0
M  V30 8430 H 811.852 -3.77969 -1.03183 0
M  V30 8431 H 813.549 -3.95185 -0.6804 0
M  V30 8432 H 810.139 -4.22385 0.727225 0
M  V30 8433 H 814.323 -4.70398 1.58237 0
M  V30 8434 H 809.579 -5.44133 2.788 0
M  V30 8435 H 813.753 -5.93516 3.64296 0
M  V30 8436 H 811.38 -6.30197 4.25154 0
M  V30 8437 N 812.955 -0.234822 -1.55841 0
M  V30 8438 C 813.903 0.686145 -2.22249 0
M  V30 8439 C 814.897 1.18948 -1.20614 0
M  V30 8440 O 816.103 1.14777 -1.38659 0
M  V30 8441 H 812.478 0.239724 -0.712767 0
M  V30 8442 H 814.449 0.102762 -2.98223 0
M  V30 8443 C 813.198 1.8776 -2.92646 0
M  V30 8444 H 812.521 1.49943 -3.70617 0
M  V30 8445 H 813.961 2.4995 -3.42493 0
M  V30 8446 C 812.42 2.74127 -1.95847 0
M  V30 8447 O 812.95 3.7329 -1.48384 0
M  V30 8448 N 811.156 2.4044 -1.63209 0
M  V30 8449 H 810.703 1.59854 -2.02001 0
M  V30 8450 H 810.661 2.98504 -0.987063 0
M  V30 8451 N 814.433 1.57553 0.0384317 0
M  V30 8452 C 815.365 2.02726 1.06934 0
M  V30 8453 C 816.378 0.938502 1.33026 0
M  V30 8454 O 817.567 1.21595 1.30678 0
M  V30 8455 C 814.667 2.37958 2.41308 0
M  V30 8456 C 813.84 3.69098 2.34703 0
M  V30 8457 C 812.899 3.91623 3.51451 0
M  V30 8458 O 811.925 4.628 3.31368 0
M  V30 8459 N 813.127 3.36538 4.72993 0
M  V30 8460 H 815.892 2.91781 0.684381 0
M  V30 8461 H 813.453 1.60307 0.226542 0
M  V30 8462 H 815.445 2.50172 3.18113 0
M  V30 8463 H 814.015 1.54621 2.71682 0
M  V30 8464 H 813.235 3.67325 1.43059 0
M  V30 8465 H 814.523 4.55144 2.27424 0
M  V30 8466 H 813.921 2.78828 4.92211 0
M  V30 8467 H 812.478 3.54148 5.47195 0
M  V30 8468 N 815.911 -0.310526 1.54511 0
M  V30 8469 C 817.157 -1.04459 1.74528 0
M  V30 8470 C 817.512 -1.85251 0.519613 0
M  V30 8471 O 816.805 -1.85281 -0.488001 0
M  V30 8472 C 816.999 -1.98942 2.96912 0
M  V30 8473 C 816.828 -1.27442 4.31264 0
M  V30 8474 C 815.598 -1.00552 4.95194 0
M  V30 8475 C 817.796 -0.683695 5.09735 0
M  V30 8476 N 815.778 -0.259797 6.1335 0
M  V30 8477 C 817.149 -0.0702549 6.1996 0
M  V30 8478 C 819.204 -0.587799 4.94418 0
M  V30 8479 C 817.907 0.629791 7.16538 0
M  V30 8480 C 819.933 0.0985719 5.91318 0
M  V30 8481 C 819.295 0.700902 7.00904 0
M  V30 8482 H 815.394 -0.365496 0.69133 0
M  V30 8483 H 817.978 -0.324277 1.91981 0
M  V30 8484 H 816.149 -2.68233 2.80902 0
M  V30 8485 H 817.881 -2.6543 3.05498 0
M  V30 8486 H 814.636 -1.30123 4.55374 0
M  V30 8487 H 815.06 0.099301 6.76927 0
M  V30 8488 H 819.702 -1.03919 4.0983 0
M  V30 8489 H 817.42 1.09298 8.00674 0
M  V30 8490 H 821.006 0.172585 5.81544 0
M  V30 8491 H 819.886 1.22357 7.74596 0
M  V30 8492 N 817.389 -1.46805 -0.573248 0
M  V30 8493 C 818.638 -1.51868 -1.32736 0
M  V30 8494 C 818.951 -0.178765 -1.94781 0
M  V30 8495 O 820.157 -0.107272 -2.71288 0
M  V30 8496 C 818.613 -2.67641 -2.40616 0
M  V30 8497 C 818.221 -4.08094 -1.84832 0
M  V30 8498 C 819.965 -2.81984 -3.17309 0
M  V30 8499 C 817.872 -5.15193 -2.90397 0
M  V30 8500 H 816.802 -0.56523 -0.49903 0
M  V30 8501 H 819.453 -1.7304 -0.610695 0
M  V30 8502 H 817.835 -2.39818 -3.15124 0
M  V30 8503 H 819.009 -4.45751 -1.16803 0
M  V30 8504 H 817.324 -3.985 -1.20775 0
M  V30 8505 H 819.921 -3.59166 -3.96111 0
M  V30 8506 H 820.264 -1.89842 -3.70494 0
M  V30 8507 H 820.797 -3.095 -2.4991 0
M  V30 8508 H 817.536 -6.09158 -2.42088 0
M  V30 8509 H 817.056 -4.82071 -3.56886 0
M  V30 8510 H 818.735 -5.41448 -3.54179 0
M  V30 8511 N 818.867 0.818669 -1.34668 0
M  V30 8512 C 820.115 1.57201 -1.27013 0
M  V30 8513 C 820.436 1.94354 0.158599 0
M  V30 8514 O 819.706 1.62626 1.09223 0
M  V30 8515 H 818.286 0.582919 -0.467135 0
M  V30 8516 H 820.948 0.977234 -1.6863 0
M  V30 8517 H 820.044 2.49291 -1.87778 0
M  V30 8518 N 820.346 1.18468 1.03938 0
M  V30 8519 C 821.276 0.936389 2.13902 0
M  V30 8520 C 822.257 -0.126381 1.6963 0
M  V30 8521 O 823.442 0.0264757 1.94182 0
M  V30 8522 C 820.572 0.462729 3.44204 0
M  V30 8523 C 819.526 1.46613 4.02105 0
M  V30 8524 C 818.852 0.84994 5.27902 0
M  V30 8525 C 820.152 2.84323 4.3813 0
M  V30 8526 H 821.846 1.85602 2.3493 0
M  V30 8527 H 819.392 0.893806 1.12903 0
M  V30 8528 H 821.345 0.276382 4.20493 0
M  V30 8529 H 820.069 -0.492477 3.22866 0
M  V30 8530 H 818.728 1.63944 3.27899 0
M  V30 8531 H 818.376 -0.112493 5.02874 0
M  V30 8532 H 818.076 1.51988 5.67603 0
M  V30 8533 H 819.6 0.674152 6.06867 0
M  V30 8534 H 821.014 2.70636 5.054 0
M  V30 8535 H 819.411 3.48012 4.88884 0
M  V30 8536 H 820.481 3.37776 3.47901 0
M  V30 8537 N 821.824 -1.22873 0.986916 0
M  V30 8538 C 823.054 -1.95204 0.67668 0
M  V30 8539 C 823.462 -1.73193 -0.761641 0
M  V30 8540 O 822.805 -1.0243 -1.52492 0
M  V30 8541 C 822.867 -3.48173 0.895302 0
M  V30 8542 C 822.531 -3.93912 2.31695 0
M  V30 8543 C 823.528 -4.02064 3.29607 0
M  V30 8544 C 821.213 -4.26722 2.64978 0
M  V30 8545 C 823.207 -4.42391 4.58878 0
M  V30 8546 C 820.894 -4.66729 3.94471 0
M  V30 8547 C 821.892 -4.74531 4.91232 0
M  V30 8548 O 821.58 -5.13636 6.18412 0
M  V30 8549 H 821.312 -0.628105 0.24992 0
M  V30 8550 H 823.866 -1.5714 1.32274 0
M  V30 8551 H 822.096 -3.86223 0.192072 0
M  V30 8552 H 823.785 -4.01717 0.581233 0
M  V30 8553 H 824.551 -3.76912 3.05225 0
M  V30 8554 H 820.43 -4.19858 1.9037 0
M  V30 8555 H 823.974 -4.48395 5.34404 0
M  V30 8556 H 819.871 -4.91332 4.18645 0
M  V30 8557 H 820.639 -5.31728 6.2226 0
M  V30 8558 N 823.302 -0.75937 -1.38099 0
M  V30 8559 C 824.718 -0.437606 -1.53483 0
M  V30 8560 C 824.918 1.04849 -1.72072 0
M  V30 8561 O 823.974 1.83448 -1.73502 0
M  V30 8562 C 825.287 -1.24189 -2.73857 0
M  V30 8563 C 826.835 -1.23255 -2.8771 0
M  V30 8564 C 827.31 -2.01992 -4.11051 0
M  V30 8565 N 828.801 -1.99282 -4.1814 0
M  V30 8566 C 829.536 -2.56996 -5.12583 0
M  V30 8567 N 829.032 -3.23446 -6.12662 0
M  V30 8568 N 830.825 -2.46894 -5.04975 0
M  V30 8569 H 822.976 -1.72242 -1.24283 0
M  V30 8570 H 825.239 -0.730507 -0.604205 0
M  V30 8571 H 824.945 -2.29449 -2.66545 0
M  V30 8572 H 824.819 -0.862672 -3.67203 0
M  V30 8573 H 827.206 -0.187988 -2.94501 0
M  V30 8574 H 827.287 -1.65132 -1.95359 0
M  V30 8575 H 826.931 -3.06462 -4.05023 0
M  V30 8576 H 826.861 -1.57505 -5.02494 0
M  V30 8577 H 829.352 -1.50893 -3.46467 0
M  V30 8578 H 829.665 -3.6489 -6.81231 0
M  V30 8579 H 828.01 -3.27543 -6.12977 0
M  V30 8580 H 831.201 -1.94604 -4.25731 0
M  V30 8581 H 831.374 -2.92168 -5.78396 0
M  V30 8582 N 824.78 1.49157 -0.508906 0
M  V30 8583 C 826.028 2.02073 0.0327335 0
M  V30 8584 C 826.349 1.39012 1.3675 0
M  V30 8585 O 825.619 0.548153 1.88075 0
M  V30 8586 H 824.199 0.746848 0.0150864 0
M  V30 8587 H 826.861 1.83097 -0.667946 0
M  V30 8588 H 825.957 3.11707 0.1566 0
M  V30 8589 N 826.258 0.243083 1.55714 0
M  V30 8590 C 827.205 -0.658078 2.21219 0
M  V30 8591 C 828.175 -1.1742 1.17481 0
M  V30 8592 O 829.36 -1.22937 1.45915 0
M  V30 8593 C 826.5 -1.85104 2.91257 0
M  V30 8594 C 825.613 -1.3718 4.09641 0
M  V30 8595 C 824.748 -2.52403 4.67404 0
M  V30 8596 C 823.787 -2.01321 5.78045 0
M  V30 8597 N 822.924 -3.09896 6.30007 0
M  V30 8598 H 827.764 -0.0927854 2.97856 0
M  V30 8599 H 825.301 -0.0340375 1.47061 0
M  V30 8600 H 827.259 -2.55179 3.3006 0
M  V30 8601 H 825.889 -2.38887 2.17101 0
M  V30 8602 H 824.941 -0.565232 3.76177 0
M  V30 8603 H 826.253 -0.957409 4.89525 0
M  V30 8604 H 825.407 -3.30525 5.08761 0
M  V30 8605 H 824.146 -2.97142 3.86728 0
M  V30 8606 H 823.151 -1.21667 5.36169 0
M  V30 8607 H 824.376 -1.57556 6.6057 0
M  V30 8608 H 822.322 -3.54077 5.52237 0
M  V30 8609 H 822.239 -2.72776 7.05074 0
M  V30 8610 H 823.507 -3.8809 6.76023 0
M  V30 8611 N 827.736 -1.57571 -0.0300757 0
M  V30 8612 C 828.964 -1.93485 -0.732891 0
M  V30 8613 C 829.379 -0.842758 -1.68947 0
M  V30 8614 O 828.736 0.180904 -1.81601 0
M  V30 8615 C 828.787 -3.29328 -1.49082 0
M  V30 8616 O 828.508 -4.34341 -0.572639 0
M  V30 8617 C 830.009 -3.79517 -2.29088 0
M  V30 8618 H 827.229 -0.638588 -0.206026 0
M  V30 8619 H 829.773 -2.04496 0.0120966 0
M  V30 8620 H 827.928 -3.19716 -2.1877 0
M  V30 8621 H 828.342 -5.12748 -1.10406 0
M  V30 8622 H 829.816 -4.77081 -2.77665 0
M  V30 8623 H 830.293 -3.10659 -3.10464 0
M  V30 8624 H 830.899 -3.92208 -1.64477 0
M  V30 8625 N 829.214 0.302327 -1.54673 0
M  V30 8626 C 830.444 1.05516 -1.77623 0
M  V30 8627 C 830.852 1.81474 -0.535159 0
M  V30 8628 O 830.195 1.76635 0.504543 0
M  V30 8629 C 830.257 2.08305 -2.93001 0
M  V30 8630 C 829.921 1.51554 -4.31139 0
M  V30 8631 C 830.918 0.946261 -5.11216 0
M  V30 8632 C 828.603 1.55157 -4.77736 0
M  V30 8633 C 830.597 0.420559 -6.36011 0
M  V30 8634 C 828.284 1.022 -6.02494 0
M  V30 8635 C 829.282 0.457461 -6.81466 0
M  V30 8636 O 828.97 -0.064083 -8.03874 0
M  V30 8637 H 828.702 0.318756 -0.59613 0
M  V30 8638 H 831.256 0.347558 -2.02438 0
M  V30 8639 H 829.486 2.82742 -2.63807 0
M  V30 8640 H 831.175 2.69479 -3.03539 0
M  V30 8641 H 831.941 0.911338 -4.76361 0
M  V30 8642 H 827.82 1.98037 -4.16296 0
M  V30 8643 H 831.364 -0.0207298 -6.97597 0
M  V30 8644 H 827.261 1.05406 -6.36836 0
M  V30 8645 H 828.029 0.0493422 -8.18485 0
M  V30 8646 N 830.692 1.47107 0.565454 0
M  V30 8647 C 831.92 1.56909 1.3486 0
M  V30 8648 C 832.335 0.216312 1.87557 0
M  V30 8649 O 831.692 -0.789168 1.64555 0
M  V30 8650 C 831.743 2.58776 2.52423 0
M  V30 8651 O 831.464 3.888 2.01906 0
M  V30 8652 C 832.965 2.78683 3.44747 0
M  V30 8653 H 830.185 0.530096 0.411387 0
M  V30 8654 H 832.729 1.92658 0.685782 0
M  V30 8655 H 830.884 2.25983 3.1466 0
M  V30 8656 H 831.298 4.44393 2.78595 0
M  V30 8657 H 832.772 3.53842 4.23674 0
M  V30 8658 H 833.249 1.86208 3.97773 0
M  V30 8659 H 833.855 3.12641 2.88333 0
M  V30 8660 N 832.17 -0.811516 1.35101 0
M  V30 8661 C 833.419 -1.56343 1.27435 0
M  V30 8662 C 833.732 -1.95019 -0.150696 0
M  V30 8663 O 834.938 -2.6924 -0.349586 0
M  V30 8664 C 833.394 -2.82124 2.23459 0
M  V30 8665 C 833.002 -2.50706 3.71283 0
M  V30 8666 C 834.746 -3.60137 2.24726 0
M  V30 8667 C 832.653 -3.72748 4.59143 0
M  V30 8668 H 831.583 -0.58682 0.473453 0
M  V30 8669 H 834.234 -0.892465 1.60335 0
M  V30 8670 H 832.616 -3.50905 1.83525 0
M  V30 8671 H 833.79 -1.89962 4.19823 0
M  V30 8672 H 832.105 -1.85947 3.72576 0
M  V30 8673 H 834.702 -4.50775 2.87587 0
M  V30 8674 H 835.045 -3.97101 1.24965 0
M  V30 8675 H 835.578 -2.98311 2.63164 0
M  V30 8676 H 832.317 -3.40896 5.59884 0
M  V30 8677 H 831.837 -4.32735 4.15332 0
M  V30 8678 H 833.516 -4.40033 4.74321 0
M  V30 8679 N 833.648 -1.19017 -1.03309 0
M  V30 8680 C 834.873 -1.01598 -1.80811 0
M  V30 8681 C 835.298 0.430773 -1.83101 0
M  V30 8682 O 834.656 1.30946 -1.25391 0
M  V30 8683 C 834.704 -1.5845 -3.23923 0
M  V30 8684 O 833.808 -0.810972 -4.04348 0
M  V30 8685 H 833.149 -0.359398 -0.558327 0
M  V30 8686 H 835.679 -1.57945 -1.30055 0
M  V30 8687 H 835.689 -1.61486 -3.74682 0
M  V30 8688 H 834.364 -2.63752 -3.21571 0
M  V30 8689 H 832.941 -0.85353 -3.63 0
M  V30 8690 N 835.127 1.22348 -0.993418 0
M  V30 8691 C 836.374 1.9111 -0.669568 0
M  V30 8692 C 836.702 1.77357 0.79843 0
M  V30 8693 O 835.957 1.13675 1.593 0
M  V30 8694 C 836.256 3.42477 -1.02197 0
M  V30 8695 C 835.922 3.7642 -2.48232 0
M  V30 8696 C 834.584 3.85395 -2.88139 0
M  V30 8697 C 836.936 3.9253 -3.42884 0
M  V30 8698 C 834.264 4.07918 -4.21687 0
M  V30 8699 C 836.616 4.16557 -4.76091 0
M  V30 8700 C 835.28 4.23757 -5.15739 0
M  V30 8701 H 834.55 0.699321 -0.245012 0
M  V30 8702 H 837.197 1.45102 -1.2497 0
M  V30 8703 H 835.502 3.90143 -0.359921 0
M  V30 8704 H 837.199 3.93935 -0.74942 0
M  V30 8705 H 833.789 3.70017 -2.16299 0
M  V30 8706 H 837.973 3.84974 -3.13224 0
M  V30 8707 H 833.229 4.11719 -4.51993 0
M  V30 8708 H 837.403 4.27966 -5.4938 0
M  V30 8709 H 835.03 4.40962 -6.19239 0
M  V30 8710 N 836.605 0.766683 1.37694 0
M  V30 8711 C 837.552 0.147725 2.30327 0
M  V30 8712 C 838.522 -0.695366 1.50844 0
M  V30 8713 O 839.707 -0.64878 1.79431 0
M  V30 8714 C 836.847 -0.72935 3.37305 0
M  V30 8715 C 835.96 0.129795 4.31805 0
M  V30 8716 C 835.095 -0.751511 5.25857 0
M  V30 8717 C 834.134 0.110475 6.12 0
M  V30 8718 N 833.271 -0.728522 6.9831 0
M  V30 8719 H 838.111 0.943204 2.82679 0
M  V30 8720 H 835.648 0.476736 1.3916 0
M  V30 8721 H 837.606 -1.25263 3.97951 0
M  V30 8722 H 836.236 -1.49048 2.86329 0
M  V30 8723 H 835.288 0.770829 3.72508 0
M  V30 8724 H 836.6 0.794923 4.92425 0
M  V30 8725 H 835.754 -1.34146 5.91684 0
M  V30 8726 H 834.493 -1.45034 4.65636 0
M  V30 8727 H 833.498 0.712999 5.45157 0
M  V30 8728 H 834.723 0.806557 6.74293 0
M  V30 8729 H 832.669 -1.41206 6.40622 0
M  V30 8730 H 832.586 -0.12058 7.55904 0
M  V30 8731 H 833.854 -1.30303 7.68532 0
M  V30 8732 N 838.083 -1.48885 0.516809 0
M  V30 8733 C 839.046 -2.27916 -0.242256 0
M  V30 8734 C 840.046 -1.34601 -0.879735 0
M  V30 8735 O 841.236 -1.57616 -0.74182 0
M  V30 8736 C 838.368 -3.13067 -1.34914 0
M  V30 8737 H 839.561 -2.96483 0.451444 0
M  V30 8738 H 837.114 -1.5391 0.272294 0
M  V30 8739 H 837.849 -2.49102 -2.07651 0
M  V30 8740 H 837.634 -3.81695 -0.897313 0
M  V30 8741 H 839.124 -3.72716 -1.88341 0
M  V30 8742 N 839.561 -0.251338 -1.55583 0
M  V30 8743 C 840.508 0.646337 -2.21565 0
M  V30 8744 C 841.478 1.16796 -1.18102 0
M  V30 8745 O 842.663 1.22162 -1.46564 0
M  V30 8746 C 839.803 1.83557 -2.92234 0
M  V30 8747 C 838.916 1.35006 -4.10363 0
M  V30 8748 C 838.051 2.4992 -4.68736 0
M  V30 8749 C 837.09 1.98253 -5.79105 0
M  V30 8750 N 836.227 3.06551 -6.31642 0
M  V30 8751 H 841.067 0.0769881 -2.97901 0
M  V30 8752 H 838.604 0.026238 -1.47077 0
M  V30 8753 H 840.562 2.53425 -3.31408 0
M  V30 8754 H 839.192 2.37733 -2.18364 0
M  V30 8755 H 838.244 0.545274 -3.76472 0
M  V30 8756 H 839.556 0.931435 -4.90026 0
M  V30 8757 H 838.71 3.27823 -5.10507 0
M  V30 8758 H 837.449 2.95086 -3.88298 0
M  V30 8759 H 836.454 1.18822 -5.36807 0
M  V30 8760 H 837.679 1.54051 -6.61396 0
M  V30 8761 H 835.625 3.51143 -5.54107 0
M  V30 8762 H 835.542 2.69033 -7.06511 0
M  V30 8763 H 836.81 3.84499 -6.78071 0
M  V30 8764 N 841.039 1.57585 0.0217189 0
M  V30 8765 C 842.002 2.06004 1.00474 0
M  V30 8766 C 843.002 0.965461 1.2859 0
M  V30 8767 O 844.192 1.22884 1.23471 0
M  V30 8768 C 841.324 2.48319 2.33561 0
M  V30 8769 H 842.517 2.94112 0.586346 0
M  V30 8770 H 840.07 1.53973 0.268716 0
M  V30 8771 H 840.805 1.63389 2.80133 0
M  V30 8772 H 840.59 3.28239 2.1448 0
M  V30 8773 H 842.08 2.86181 3.04122 0
M  V30 8774 N 842.517 -0.29412 1.54831 0
M  V30 8775 C 843.794 -1.04847 1.65126 0
M  V30 8776 C 844.174 -2.04996 0.503986 0
M  V30 8777 O 843.522 -2.22996 -0.498496 0
M  V30 8778 C 843.732 -1.72418 3.03435 0
M  V30 8779 C 845.08 -2.24362 3.60481 0
M  V30 8780 O 846.104 -1.8244 3.05932 0
M  V30 8781 O 844.963 -3.01196 4.56008 0
M  V30 8782 H 842.057 -0.485032 0.669831 0
M  V30 8783 H 844.603 -0.291659 1.67175 0
M  V30 8784 H 843.375 -0.997351 3.78376 0
M  V30 8785 H 842.998 -2.54839 3.05193 0
M  V30 8786 N 843.995 -1.47404 -0.557645 0
M  V30 8787 C 845.223 -1.57622 -1.34026 0
M  V30 8788 C 845.638 -0.226256 -1.87439 0
M  V30 8789 O 844.995 0.78043 -1.64971 0
M  V30 8790 C 845.046 -2.60111 -2.51047 0
M  V30 8791 O 844.767 -3.89866 -1.99841 0
M  V30 8792 C 846.268 -2.80508 -3.43264 0
M  V30 8793 H 843.488 -0.532271 -0.40857 0
M  V30 8794 H 846.032 -1.93019 -0.675555 0
M  V30 8795 H 844.187 -2.27648 -3.13457 0
M  V30 8796 H 844.601 -4.45864 -2.76234 0
M  V30 8797 H 846.075 -3.56084 -4.21792 0
M  V30 8798 H 846.552 -1.88314 -3.9678 0
M  V30 8799 H 847.158 -3.14166 -2.86671 0
M  V30 8800 N 845.473 0.80434 -1.35529 0
M  V30 8801 C 846.884 1.37849 -1.25915 0
M  V30 8802 C 847.235 1.95905 0.107495 0
M  V30 8803 O 846.36 1.91462 1.00852 0
M  V30 8804 C 846.955 2.50608 -2.27994 0
M  V30 8805 C 845.514 3.03879 -2.22114 0
M  V30 8806 C 844.661 1.76856 -2.13582 0
M  V30 8807 H 847.612 0.607192 -1.46625 0
M  V30 8808 H 847.633 3.29221 -1.90772 0
M  V30 8809 H 847.145 2.08323 -3.27449 0
M  V30 8810 H 845.246 3.50622 -1.26077 0
M  V30 8811 H 845.359 3.61707 -3.14173 0
M  V30 8812 H 843.723 1.98498 -1.59595 0
M  V30 8813 H 844.506 1.36721 -3.14901 0
M  V30 8814 N 846.951 1.19563 1.02676 0
M  V30 8815 C 848.367 0.948304 1.28372 0
M  V30 8816 C 848.567 -0.378096 1.97921 0
M  V30 8817 O 847.623 -1.1091 2.26838 0
M  V30 8818 C 848.936 2.12381 2.12873 0
M  V30 8819 C 850.484 2.16366 2.26174 0
M  V30 8820 C 850.959 3.33374 3.14048 0
M  V30 8821 N 852.45 3.33323 3.21636 0
M  V30 8822 C 853.185 4.20504 3.89825 0
M  V30 8823 N 852.681 5.17845 4.60227 0
M  V30 8824 N 854.474 4.08375 3.86246 0
M  V30 8825 H 846.625 2.04899 0.559485 0
M  V30 8826 H 848.888 0.89606 0.309484 0
M  V30 8827 H 848.594 3.08383 1.69094 0
M  V30 8828 H 848.468 2.09621 3.1359 0
M  V30 8829 H 850.855 1.20933 2.69182 0
M  V30 8830 H 850.936 2.23179 1.25 0
M  V30 8831 H 850.58 4.29087 2.71747 0
M  V30 8832 H 850.51 3.23798 4.15286 0
M  V30 8833 H 853.001 2.62863 2.71498 0
M  V30 8834 H 853.314 5.80712 5.09896 0
M  V30 8835 H 851.659 5.21791 4.59085 0
M  V30 8836 H 854.85 3.31606 3.30386 0
M  V30 8837 H 855.023 4.76532 4.39114 0
M  V30 8838 N 848.429 -1.21819 0.999893 0
M  V30 8839 C 849.84 -1.72517 0.713775 0
M  V30 8840 C 850.191 -1.80505 -0.768922 0
M  V30 8841 O 849.316 -1.45611 -1.60083 0
M  V30 8842 C 849.911 -3.13321 1.28901 0
M  V30 8843 C 848.47 -3.61396 1.05212 0
M  V30 8844 C 847.617 -2.39074 1.40494 0
M  V30 8845 H 850.568 -1.07068 1.17141 0
M  V30 8846 H 850.589 -3.74535 0.671084 0
M  V30 8847 H 850.101 -3.07475 2.36814 0
M  V30 8848 H 848.202 -3.72599 -0.0100732 0
M  V30 8849 H 848.315 -4.47145 1.72042 0
M  V30 8850 H 846.679 -2.41015 0.823642 0
M  V30 8851 H 847.462 -2.35884 2.49427 0
M  V30 8852 N 849.908 -0.773975 -1.37286 0
M  V30 8853 C 851.157 -0.335977 -1.98882 0
M  V30 8854 C 851.47 1.09416 -1.62134 0
M  V30 8855 O 852.676 1.63366 -2.1685 0
M  V30 8856 C 851.132 -0.549756 -3.55676 0
M  V30 8857 C 850.74 -1.9903 -4.01361 0
M  V30 8858 C 852.484 -0.175493 -4.24137 0
M  V30 8859 C 850.391 -2.15156 -5.50874 0
M  V30 8860 H 849.321 -0.121877 -0.744085 0
M  V30 8861 H 851.972 -0.953419 -1.56787 0
M  V30 8862 H 850.354 0.137175 -3.95762 0
M  V30 8863 H 851.528 -2.71237 -3.72515 0
M  V30 8864 H 849.843 -2.32137 -3.4569 0
M  V30 8865 H 852.44 -0.274463 -5.33995 0
M  V30 8866 H 852.783 0.874524 -4.07011 0
M  V30 8867 H 853.316 -0.815058 -3.89361 0
M  V30 8868 H 850.055 -3.18485 -5.72929 0
M  V30 8869 H 849.575 -1.47435 -5.81397 0
M  V30 8870 H 851.254 -1.95124 -6.16876 0
M  V30 8871 N 851.386 1.48609 -0.524698 0
M  V30 8872 C 852.334 2.31205 0.254398 0
M  V30 8873 C 853.328 1.40894 0.940491 0
M  V30 8874 O 854.534 1.57827 0.865478 0
M  V30 8875 H 850.909 0.745199 0.100907 0
M  V30 8876 H 852.88 2.94804 -0.461876 0
M  V30 8877 C 851.629 3.2282 1.2916 0
M  V30 8878 H 850.952 3.92255 0.773074 0
M  V30 8879 H 852.392 3.83508 1.80825 0
M  V30 8880 C 850.851 2.4406 2.32242 0
M  V30 8881 O 851.381 2.16163 3.3858 0
M  V30 8882 N 849.587 2.05651 2.05319 0
M  V30 8883 H 849.134 2.28539 1.18861 0
M  V30 8884 H 849.092 1.53265 2.74513 0
M  V30 8885 N 852.864 0.259585 1.55447 0
M  V30 8886 C 854.11 -0.362143 1.9954 0
M  V30 8887 C 854.443 -1.5666 1.14767 0
M  V30 8888 O 853.718 -1.93319 0.214025 0
M  V30 8889 C 854.001 -0.759588 3.51998 0
M  V30 8890 C 853.854 0.451134 4.47532 0
M  V30 8891 C 855.173 -1.60186 4.09913 0
M  V30 8892 H 852.292 -0.130157 0.725416 0
M  V30 8893 H 854.934 0.363431 1.86492 0
M  V30 8894 H 853.084 -1.3778 3.63248 0
M  V30 8895 H 854.756 1.08965 4.48246 0
M  V30 8896 H 852.999 1.092 4.19831 0
M  V30 8897 H 853.67 0.129518 5.51848 0
M  V30 8898 H 856.146 -1.0799 4.01842 0
M  V30 8899 H 855.022 -1.84879 5.16828 0
M  V30 8900 H 855.283 -2.57787 3.59163 0
M  V30 8901 N 854.342 -1.57594 -0.0133615 0
M  V30 8902 C 855.289 -2.07574 -1.00905 0
M  V30 8903 C 856.259 -0.968231 -1.34961 0
M  V30 8904 O 857.444 -1.23981 -1.45028 0
M  V30 8905 C 854.584 -2.5728 -2.30002 0
M  V30 8906 C 853.697 -3.81881 -2.01967 0
M  V30 8907 C 852.832 -4.20139 -3.25049 0
M  V30 8908 C 851.871 -5.37614 -2.92639 0
M  V30 8909 N 851.008 -5.71229 -4.08218 0
M  V30 8910 H 855.848 -2.92382 -0.575899 0
M  V30 8911 H 853.385 -1.4455 -0.272722 0
M  V30 8912 H 855.343 -2.84171 -3.05454 0
M  V30 8913 H 853.973 -1.75365 -2.71011 0
M  V30 8914 H 853.025 -3.61979 -1.16942 0
M  V30 8915 H 854.337 -4.67441 -1.74069 0
M  V30 8916 H 853.491 -4.48242 -4.08857 0
M  V30 8917 H 852.23 -3.33262 -3.56073 0
M  V30 8918 H 851.235 -5.09248 -2.07235 0
M  V30 8919 H 852.46 -6.26157 -2.62876 0
M  V30 8920 H 850.406 -4.8731 -4.39164 0
M  V30 8921 H 850.323 -6.51333 -3.83799 0
M  V30 8922 H 851.591 -6.03917 -4.92854 0
M  V30 8923 N 855.82 0.285905 -1.54985 0
M  V30 8924 C 857.069 1.01691 -1.74189 0
M  V30 8925 C 857.382 1.87908 -0.543135 0
M  V30 8926 O 858.588 2.64389 -0.617305 0
M  V30 8927 C 857.044 1.85785 -3.0824 0
M  V30 8928 C 856.652 1.04497 -4.35642 0
M  V30 8929 C 858.396 2.58393 -3.36798 0
M  V30 8930 C 856.303 1.87955 -5.60738 0
M  V30 8931 H 855.233 0.383396 -0.649248 0
M  V30 8932 H 857.884 0.27317 -1.81455 0
M  V30 8933 H 856.266 2.64205 -2.94978 0
M  V30 8934 H 857.44 0.305847 -4.59784 0
M  V30 8935 H 855.755 0.434023 -4.14132 0
M  V30 8936 H 858.352 3.21214 -4.27464 0
M  V30 8937 H 858.695 3.28011 -2.56349 0
M  V30 8938 H 859.228 1.87012 -3.511 0
M  V30 8939 H 855.967 1.22781 -6.43898 0
M  V30 8940 H 855.487 2.59499 -5.40759 0
M  V30 8941 H 857.166 2.45636 -5.98558 0
M  V30 8942 N 857.298 1.47698 0.54982 0
M  V30 8943 C 858.228 1.63622 1.66583 0
M  V30 8944 C 859.209 0.485477 1.63025 0
M  V30 8945 O 860.394 0.715692 1.80531 0
M  V30 8946 C 857.524 1.65721 3.05211 0
M  V30 8947 C 856.478 2.80097 3.2362 0
M  V30 8948 C 855.804 2.67272 4.63109 0
M  V30 8949 C 857.104 4.21612 3.08286 0
M  V30 8950 H 858.798 2.57049 1.53512 0
M  V30 8951 H 856.344 1.23705 0.737099 0
M  V30 8952 H 858.297 1.75451 3.83138 0
M  V30 8953 H 857.021 0.688593 3.19258 0
M  V30 8954 H 855.68 2.69889 2.48104 0
M  V30 8955 H 855.328 1.68422 4.73965 0
M  V30 8956 H 855.028 3.44008 4.76374 0
M  V30 8957 H 856.552 2.78942 5.43161 0
M  V30 8958 H 857.966 4.32758 3.76024 0
M  V30 8959 H 856.363 4.99193 3.33057 0
M  V30 8960 H 857.433 4.39462 2.04942 0
M  V30 8961 N 858.776 -0.797141 1.35954 0
M  V30 8962 C 859.708 -1.91782 1.25509 0
M  V30 8963 C 860.721 -1.61843 0.176271 0
M  V30 8964 O 861.91 -1.73235 0.430343 0
M  V30 8965 C 859.01 -3.26396 0.912073 0
M  V30 8966 C 858.183 -3.84171 2.0912 0
M  V30 8967 C 857.242 -4.9721 1.72246 0
M  V30 8968 O 856.268 -5.14136 2.44239 0
M  V30 8969 N 857.47 -5.76831 0.651611 0
M  V30 8970 H 860.235 -2.01266 2.22063 0
M  V30 8971 H 857.796 -0.975033 1.29247 0
M  V30 8972 H 859.788 -3.99499 0.646707 0
M  V30 8973 H 858.358 -3.12579 0.0359079 0
M  V30 8974 H 857.578 -3.03148 2.51982 0
M  V30 8975 H 858.866 -4.19503 2.87914 0
M  V30 8976 H 858.264 -5.65675 0.0536678 0
M  V30 8977 H 856.821 -6.50272 0.44605 0
M  V30 8978 N 860.254 -1.20106 -1.0204 0
M  V30 8979 C 861.202 -0.943231 -2.12617 0
M  V30 8980 C 862.196 0.104042 -1.6908 0
M  V30 8981 O 863.402 -0.0459732 -1.79941 0
M  V30 8982 H 859.777 -0.28767 -0.694802 0
M  V30 8983 H 861.748 -1.88221 -2.3155 0
M  V30 8984 C 860.497 -0.50771 -3.43973 0
M  V30 8985 H 859.82 -1.30514 -3.77897 0
M  V30 8986 H 861.26 -0.366486 -4.22413 0
M  V30 8987 C 859.719 0.77939 -3.27761 0
M  V30 8988 O 860.249 1.83876 -3.57145 0
M  V30 8989 N 858.455 0.739931 -2.81022 0
M  V30 8990 H 858.002 -0.122426 -2.57309 0
M  V30 8991 H 857.96 1.60147 -2.70556 0
M  V30 8992 N 861.732 1.21287 -1.00634 0
M  V30 8993 C 862.682 2.21541 -0.53886 0
M  V30 8994 C 863.666 1.55842 0.400256 0
M  V30 8995 O 864.858 1.75566 0.224889 0
M  V30 8996 C 861.987 3.43047 0.131796 0
M  V30 8997 C 861.073 4.1593 -0.828419 0
M  V30 8998 N 861.464 4.65359 -1.98178 0
M  V30 8999 C 859.762 4.41281 -0.647083 0
M  V30 9000 C 860.463 5.21079 -2.58557 0
M  V30 9001 N 859.439 5.10531 -1.86705 0
M  V30 9002 H 863.241 2.57413 -1.41831 0
M  V30 9003 H 860.755 1.37109 -0.870338 0
M  V30 9004 H 862.752 4.14079 0.484178 0
M  V30 9005 H 861.412 3.08683 1.00721 0
M  V30 9006 H 862.423 4.60896 -2.3621 0
M  V30 9007 H 859.1 4.17107 0.181139 0
M  V30 9008 H 860.49 5.6977 -3.56107 0
M  V30 9009 N 863.21 0.781244 1.36873 0
M  V30 9010 C 864.487 0.274217 1.93668 0
M  V30 9011 C 864.867 -1.2323 1.71399 0
M  V30 9012 O 864.215 -2.01993 1.06822 0
M  V30 9013 C 864.425 0.657939 3.42742 0
M  V30 9014 C 865.773 0.63307 4.19854 0
M  V30 9015 O 866.797 0.597909 3.51146 0
M  V30 9016 O 865.656 0.668636 5.42394 0
M  V30 9017 H 862.75 0.0658059 0.824378 0
M  V30 9018 H 865.296 0.863238 1.46104 0
M  V30 9019 H 864.068 1.69728 3.52573 0
M  V30 9020 H 863.691 0.0423678 3.97577 0
M  V30 9021 N 864.689 -1.48329 0.532571 0
M  V30 9022 C 866.1 -1.86469 0.0927749 0
M  V30 9023 C 866.451 -1.44186 -1.3306 0
M  V30 9024 O 865.576 -0.833741 -1.99694 0
M  V30 9025 C 866.171 -3.38414 0.161588 0
M  V30 9026 C 864.73 -3.75739 -0.223028 0
M  V30 9027 C 863.877 -2.72377 0.520199 0
M  V30 9028 H 866.828 -1.40197 0.743678 0
M  V30 9029 H 866.849 -3.75314 -0.626059 0
M  V30 9030 H 866.361 -3.69159 1.19765 0
M  V30 9031 H 864.462 -3.50608 -1.26113 0
M  V30 9032 H 864.575 -4.78954 0.118385 0
M  V30 9033 H 862.939 -2.54678 -0.0338425 0
M  V30 9034 H 863.722 -3.05965 1.55694 0
M  V30 9035 N 866.167 -0.267825 -1.55308 0
M  V30 9036 C 867.413 0.34458 -2.0046 0
M  V30 9037 C 867.768 1.54028 -1.15296 0
M  V30 9038 O 867.061 1.90409 -0.213316 0
M  V30 9039 C 867.255 0.784247 -3.48689 0
M  V30 9040 C 867.084 -0.367304 -4.48197 0
M  V30 9041 C 865.854 -0.848746 -4.98121 0
M  V30 9042 C 868.052 -1.20136 -5.00072 0
M  V30 9043 N 866.034 -1.97052 -5.81415 0
M  V30 9044 C 867.405 -2.17115 -5.80742 0
M  V30 9045 C 869.46 -1.23553 -4.82327 0
M  V30 9046 C 868.163 -3.17248 -6.45559 0
M  V30 9047 C 870.189 -2.22527 -5.47938 0
M  V30 9048 C 869.551 -3.1824 -6.28413 0
M  V30 9049 H 865.65 0.091465 -0.776633 0
M  V30 9050 H 868.234 -0.390184 -1.9075 0
M  V30 9051 H 866.405 1.48825 -3.58756 0
M  V30 9052 H 868.137 1.37337 -3.80684 0
M  V30 9053 H 864.892 -0.429291 -4.7165 0
M  V30 9054 H 865.316 -2.53481 -6.27755 0
M  V30 9055 H 869.958 -0.50937 -4.1972 0
M  V30 9056 H 867.676 -3.90801 -7.07319 0
M  V30 9057 H 871.262 -2.25904 -5.36152 0
M  V30 9058 H 870.142 -3.93573 -6.78285 0
M  V30 9059 N 867.645 1.57599 0.00500368 0
M  V30 9060 C 868.873 1.94626 0.702016 0
M  V30 9061 C 869.288 0.86953 1.67585 0
M  V30 9062 O 868.645 -0.15199 1.81866 0
M  V30 9063 C 868.696 3.31658 1.43824 0
M  V30 9064 O 868.417 4.35197 0.503467 0
M  V30 9065 C 869.918 3.83114 2.23021 0
M  V30 9066 H 867.138 0.641785 0.195841 0
M  V30 9067 H 869.682 2.04451 -0.0446287 0
M  V30 9068 H 867.837 3.23156 2.13655 0
M  V30 9069 H 868.251 5.1444 1.02235 0
M  V30 9070 H 869.725 4.81438 2.7004 0
M  V30 9071 H 870.202 3.15559 3.05482 0
M  V30 9072 H 870.808 3.94775 1.58216 0
M  V30 9073 N 869.123 -0.277682 1.55134 0
M  V30 9074 C 870.071 -1.36305 1.88478 0
M  V30 9075 C 871.065 -1.51362 0.760654 0
M  V30 9076 O 872.271 -1.53202 0.944943 0
M  V30 9077 H 868.646 -0.45577 0.598146 0
M  V30 9078 H 870.617 -1.05431 2.79154 0
M  V30 9079 C 869.366 -2.71739 2.16918 0
M  V30 9080 H 868.689 -2.60942 3.02901 0
M  V30 9081 H 870.129 -3.46635 2.44172 0
M  V30 9082 C 868.588 -3.22476 0.975239 0
M  V30 9083 O 869.118 -4.01164 0.207497 0
M  V30 9084 N 867.324 -2.80097 0.774219 0
M  V30 9085 H 866.871 -2.16221 1.40022 0
M  V30 9086 H 866.829 -3.14392 -0.023021 0
M  V30 9087 N 870.601 -1.47988 -0.541979 0
M  V30 9088 C 871.831 -1.58804 -1.32155 0
M  V30 9089 C 872.239 -0.242893 -1.87634 0
M  V30 9090 O 871.582 0.776239 -1.66494 0
M  V30 9091 C 871.644 -2.56567 -2.51821 0
M  V30 9092 C 871.308 -4.01915 -2.17517 0
M  V30 9093 C 872.305 -4.89954 -1.73901 0
M  V30 9094 C 869.99 -4.47365 -2.28408 0
M  V30 9095 C 871.984 -6.21467 -1.41625 0
M  V30 9096 C 869.671 -5.78902 -1.95745 0
M  V30 9097 C 870.669 -6.65775 -1.52423 0
M  V30 9098 O 870.357 -7.94866 -1.20183 0
M  V30 9099 H 870.089 -0.538536 -0.408601 0
M  V30 9100 H 872.643 -1.94446 -0.661818 0
M  V30 9101 H 870.873 -2.16023 -3.20735 0
M  V30 9102 H 872.562 -2.57347 -3.13891 0
M  V30 9103 H 873.328 -4.56082 -1.64966 0
M  V30 9104 H 869.207 -3.79942 -2.61084 0
M  V30 9105 H 872.751 -6.8923 -1.07738 0
M  V30 9106 H 868.648 -6.12311 -2.04316 0
M  V30 9107 H 869.416 -8.07509 -1.33683 0
M  V30 9108 N 872.079 0.78992 -1.36375 0
M  V30 9109 C 873.326 1.54777 -1.30576 0
M  V30 9110 C 873.654 1.94159 0.115095 0
M  V30 9111 O 872.909 1.62918 1.08426 0
M  V30 9112 C 873.208 2.83698 -2.17371 0
M  V30 9113 C 872.874 2.63457 -3.65925 0
M  V30 9114 C 871.536 2.57645 -4.06415 0
M  V30 9115 C 873.888 2.44833 -4.60115 0
M  V30 9116 C 871.216 2.31174 -5.39236 0
M  V30 9117 C 873.568 2.19889 -5.93154 0
M  V30 9118 C 872.232 2.1251 -6.32768 0
M  V30 9119 H 871.502 0.566371 -0.477813 0
M  V30 9120 H 874.149 0.91138 -1.68422 0
M  V30 9121 H 872.454 3.51802 -1.72459 0
M  V30 9122 H 874.151 3.41487 -2.10209 0
M  V30 9123 H 870.741 2.68836 -3.33804 0
M  V30 9124 H 874.925 2.48325 -4.29707 0
M  V30 9125 H 870.181 2.23942 -5.68911 0
M  V30 9126 H 874.355 2.04473 -6.65705 0
M  V30 9127 H 871.982 1.91761 -7.35616 0
M  V30 9128 N 873.557 1.20646 1.01402 0
M  V30 9129 C 874.52 0.959314 2.08158 0
M  V30 9130 C 875.52 -0.0661558 1.60664 0
M  V30 9131 O 876.71 0.170177 1.73367 0
M  V30 9132 C 873.842 0.444785 3.37986 0
M  V30 9133 H 875.035 1.90631 2.31517 0
M  V30 9134 H 872.588 1.02219 1.18241 0
M  V30 9135 H 873.323 -0.507553 3.20304 0
M  V30 9136 H 873.108 1.18435 3.73785 0
M  V30 9137 H 874.598 0.291443 4.16582 0
M  V30 9138 N 875.035 -1.20752 1.01276 0
M  V30 9139 C 875.967 -2.22798 0.537917 0
M  V30 9140 C 876.98 -1.5836 -0.377638 0
M  V30 9141 O 878.169 -1.77624 -0.176599 0
M  V30 9142 C 875.269 -3.38068 -0.237364 0
M  V30 9143 C 874.442 -4.32095 0.679161 0
M  V30 9144 C 873.501 -5.26178 -0.0478676 0
M  V30 9145 O 872.527 -5.66305 0.573366 0
M  V30 9146 N 873.729 -5.65201 -1.32396 0
M  V30 9147 H 876.494 -2.64166 1.4155 0
M  V30 9148 H 874.055 -1.35254 0.889826 0
M  V30 9149 H 876.047 -3.98009 -0.73288 0
M  V30 9150 H 874.617 -2.95622 -1.0162 0
M  V30 9151 H 873.837 -3.70179 1.35505 0
M  V30 9152 H 875.125 -4.91842 1.30263 0
M  V30 9153 H 874.523 -5.34606 -1.84968 0
M  V30 9154 H 873.08 -6.27468 -1.76428 0
M  V30 9155 N 876.513 -0.788492 -1.36457 0
M  V30 9156 C 877.741 -0.372365 -2.03522 0
M  V30 9157 C 878.156 1.01093 -1.59454 0
M  V30 9158 O 877.513 1.64824 -0.783535 0
M  V30 9159 C 877.564 -0.425435 -3.58988 0
M  V30 9160 O 877.285 -1.75418 -4.01448 0
M  V30 9161 C 878.786 0.000180167 -4.433 0
M  V30 9162 H 876.006 -0.1536 -0.653183 0
M  V30 9163 H 878.55 -1.06708 -1.74452 0
M  V30 9164 H 876.705 0.220856 -3.8677 0
M  V30 9165 H 877.119 -1.70437 -4.96036 0
M  V30 9166 H 878.593 -0.0880919 -5.5193 0
M  V30 9167 H 879.07 1.05269 -4.26398 0
M  V30 9168 H 879.676 -0.618563 -4.20778 0
M  V30 9169 N 877.991 1.48044 -0.54043 0
M  V30 9170 C 879.237 2.02797 -0.0101718 0
M  V30 9171 C 879.57 1.41565 1.32939 0
M  V30 9172 O 878.845 0.565139 1.86109 0
M  V30 9173 C 879.128 3.59959 0.100758 0
M  V30 9174 C 878.981 4.31654 -1.26471 0
M  V30 9175 C 880.3 4.32347 0.822455 0
M  V30 9176 H 877.419 0.736982 -0.00517052 0
M  V30 9177 H 880.061 1.76656 -0.69948 0
M  V30 9178 H 878.211 3.82363 0.687824 0
M  V30 9179 H 879.883 4.20639 -1.89369 0
M  V30 9180 H 878.126 3.92663 -1.84386 0
M  V30 9181 H 878.797 5.401 -1.13998 0
M  V30 9182 H 881.273 4.14835 0.324164 0
M  V30 9183 H 880.149 5.41978 0.868993 0
M  V30 9184 H 880.41 4.00369 1.87501 0
M  V30 9185 N 879.47 0.276058 1.55163 0
M  V30 9186 C 880.418 -0.626978 2.2399 0
M  V30 9187 C 881.412 -1.15708 1.23725 0
M  V30 9188 O 882.618 -1.1106 1.41653 0
M  V30 9189 H 878.993 -0.220742 0.718872 0
M  V30 9190 H 880.964 -0.0236569 2.98391 0
M  V30 9191 C 879.713 -1.79935 2.97521 0
M  V30 9192 H 879.036 -1.40064 3.74463 0
M  V30 9193 H 880.476 -2.40781 3.48999 0
M  V30 9194 C 878.935 -2.68838 2.03046 0
M  V30 9195 O 879.465 -3.69224 1.58229 0
M  V30 9196 N 877.671 -2.36028 1.69527 0
M  V30 9197 H 877.218 -1.54442 2.06169 0
M  V30 9198 H 877.176 -2.95782 1.06586 0
M  V30 9199 N 880.948 -1.576 0.00335426 0
M  V30 9200 C 881.878 -2.11668 -0.985839 0
M  V30 9201 C 882.859 -1.02661 -1.35627 0
M  V30 9202 O 884.044 -1.30361 -1.43943 0
M  V30 9203 C 881.174 -2.62273 -2.27662 0
M  V30 9204 C 880.128 -3.75837 -2.0477 0
M  V30 9205 C 879.454 -4.12769 -3.39891 0
M  V30 9206 C 880.754 -5.02975 -1.40759 0
M  V30 9207 H 882.448 -2.9457 -0.535637 0
M  V30 9208 H 879.994 -1.41702 -0.256204 0
M  V30 9209 H 881.947 -2.98727 -2.97221 0
M  V30 9210 H 880.671 -1.76498 -2.74802 0
M  V30 9211 H 879.33 -3.39782 -1.37636 0
M  V30 9212 H 878.978 -3.24013 -3.8474 0
M  V30 9213 H 878.678 -4.89281 -3.25389 0
M  V30 9214 H 880.202 -4.51784 -4.1076 0
M  V30 9215 H 881.616 -5.37179 -2.00279 0
M  V30 9216 H 880.013 -5.84315 -1.36734 0
M  V30 9217 H 881.083 -4.83431 -0.377218 0
M  V30 9218 N 882.426 0.269451 -1.5528 0
M  V30 9219 C 883.654 1.01872 -1.80082 0
M  V30 9220 C 884.069 1.79802 -0.575917 0
M  V30 9221 O 883.426 1.76735 0.455081 0
M  V30 9222 C 883.477 1.9745 -3.02813 0
M  V30 9223 O 883.198 1.22677 -4.20573 0
M  V30 9224 C 884.699 2.8416 -3.40247 0
M  V30 9225 H 881.919 0.300781 -0.59981 0
M  V30 9226 H 884.463 0.29916 -2.023 0
M  V30 9227 H 882.618 2.64864 -2.82712 0
M  V30 9228 H 883.032 1.87129 -4.89982 0
M  V30 9229 H 884.506 3.47014 -4.29284 0
M  V30 9230 H 884.983 3.54113 -2.59809 0
M  V30 9231 H 885.589 2.22232 -3.6262 0
M  V30 9232 N 883.904 1.48273 0.534124 0
M  V30 9233 C 884.867 1.6201 1.62127 0
M  V30 9234 C 885.867 0.493653 1.53035 0
M  V30 9235 O 887.057 0.759337 1.56779 0
M  V30 9236 C 884.189 1.5864 3.01739 0
M  V30 9237 H 885.382 2.58944 1.51288 0
M  V30 9238 H 882.935 1.36808 0.755861 0
M  V30 9239 H 883.67 0.631685 3.18088 0
M  V30 9240 H 883.455 2.40415 3.09747 0
M  V30 9241 H 884.945 1.71438 3.80787 0
M  V30 9242 N 885.382 -0.782676 1.36792 0
M  V30 9243 C 886.659 -1.52939 1.21939 0
M  V30 9244 C 887.039 -2.10228 -0.191639 0
M  V30 9245 O 886.387 -1.94574 -1.19805 0
M  V30 9246 C 886.597 -2.61898 2.30674 0
M  V30 9247 C 887.945 -3.29598 2.67676 0
M  V30 9248 O 888.969 -2.72186 2.29768 0
M  V30 9249 O 887.828 -4.3337 3.32946 0
M  V30 9250 H 884.922 -0.676856 0.47518 0
M  V30 9251 H 887.468 -0.82058 1.48542 0
M  V30 9252 H 886.24 -2.17607 3.25212 0
M  V30 9253 H 885.863 -3.40391 2.05475 0
M  V30 9254 N 886.86 -1.21182 -1.00761 0
M  V30 9255 C 888.106 -1.03903 -1.74859 0
M  V30 9256 C 888.461 0.423347 -1.87685 0
M  V30 9257 O 887.754 1.31001 -1.39819 0
M  V30 9258 C 887.948 -1.6667 -3.16158 0
M  V30 9259 C 887.777 -3.1886 -3.1711 0
M  V30 9260 C 886.547 -3.87888 -3.23838 0
M  V30 9261 C 888.745 -4.15978 -3.02434 0
M  V30 9262 N 886.727 -5.27289 -3.14388 0
M  V30 9263 C 888.098 -5.42114 -3.00854 0
M  V30 9264 C 890.153 -4.0706 -2.86717 0
M  V30 9265 C 888.856 -6.60358 -2.85166 0
M  V30 9266 C 890.882 -5.24938 -2.72386 0
M  V30 9267 C 890.244 -6.49983 -2.71479 0
M  V30 9268 H 886.343 -0.434522 -0.650165 0
M  V30 9269 H 888.927 -1.53495 -1.1978 0
M  V30 9270 H 887.098 -1.19649 -3.69511 0
M  V30 9271 H 888.83 -1.42622 -3.78736 0
M  V30 9272 H 885.585 -3.38798 -3.30927 0
M  V30 9273 H 886.009 -6.00293 -3.13013 0
M  V30 9274 H 890.651 -3.11183 -2.86226 0
M  V30 9275 H 888.369 -7.56399 -2.84405 0
M  V30 9276 H 891.955 -5.19857 -2.61228 0
M  V30 9277 H 890.835 -7.39662 -2.6052 0
M  V30 9278 N 888.338 1.20213 -1.01915 0
M  V30 9279 C 889.27 2.2251 -0.549725 0
M  V30 9280 C 890.283 1.58558 0.369235 0
M  V30 9281 O 891.472 1.77715 0.167176 0
M  V30 9282 C 888.572 3.38189 0.219432 0
M  V30 9283 C 887.745 4.31729 -0.702066 0
M  V30 9284 C 886.804 5.26196 0.0199624 0
M  V30 9285 O 885.83 5.65993 -0.60339 0
M  V30 9286 N 887.032 5.65895 1.29397 0
M  V30 9287 H 889.797 2.63412 -1.42948 0
M  V30 9288 H 887.358 1.3478 -0.896987 0
M  V30 9289 H 889.35 3.98392 0.711763 0
M  V30 9290 H 887.92 2.96156 1.00051 0
M  V30 9291 H 887.14 3.69455 -1.37466 0
M  V30 9292 H 888.428 4.91145 -1.3287 0
M  V30 9293 H 887.826 5.35579 1.8213 0
M  V30 9294 H 886.383 6.28395 1.73098 0
M  V30 9295 N 889.816 0.795718 1.36037 0
M  V30 9296 C 891.044 0.383153 2.03321 0
M  V30 9297 C 891.459 -1.00246 1.59988 0
M  V30 9298 O 890.816 -1.64406 0.792265 0
M  V30 9299 C 890.867 0.444467 3.58757 0
M  V30 9300 O 890.588 1.77544 4.00512 0
M  V30 9301 C 892.089 0.0233291 4.43294 0
M  V30 9302 H 889.309 0.157061 0.652359 0
M  V30 9303 H 891.853 1.07632 1.73884 0
M  V30 9304 H 890.008 -0.200341 3.86882 0
M  V30 9305 H 890.422 1.73065 4.95125 0
M  V30 9306 H 891.896 0.117361 5.51875 0
M  V30 9307 H 892.373 -1.03007 4.2695 0
M  V30 9308 H 892.979 0.64087 4.20444 0
M  V30 9309 N 891.294 -1.47756 0.548274 0
M  V30 9310 C 892.541 -2.02489 0.0208955 0
M  V30 9311 C 892.869 -1.42356 -1.32533 0
M  V30 9312 O 892.124 -0.565448 -1.87353 0
M  V30 9313 C 892.423 -3.5716 -0.131069 0
M  V30 9314 C 892.089 -4.36169 1.14313 0
M  V30 9315 C 890.751 -4.57476 1.4923 0
M  V30 9316 C 893.103 -4.81801 1.9879 0
M  V30 9317 C 890.431 -5.21662 2.68487 0
M  V30 9318 C 892.783 -5.47303 3.17242 0
M  V30 9319 C 891.447 -5.66844 3.52483 0
M  V30 9320 H 890.717 -0.740961 0.00764621 0
M  V30 9321 H 893.364 -1.77531 0.717987 0
M  V30 9322 H 891.669 -3.8106 -0.911063 0
M  V30 9323 H 893.366 -3.9715 -0.55433 0
M  V30 9324 H 889.956 -4.19858 0.861235 0
M  V30 9325 H 894.14 -4.65126 1.73123 0
M  V30 9326 H 889.396 -5.34987 2.95971 0
M  V30 9327 H 893.57 -5.81626 3.82994 0
M  V30 9328 H 891.197 -6.16352 4.44988 0
M  V30 9329 N 892.772 -0.284283 -1.55015 0
M  V30 9330 C 894 0.332948 -2.04203 0
M  V30 9331 C 894.415 1.48783 -1.16229 0
M  V30 9332 O 893.772 1.81567 -0.184323 0
M  V30 9333 C 893.823 0.805207 -3.52418 0
M  V30 9334 O 893.544 -0.303689 -4.37046 0
M  V30 9335 C 895.045 1.48931 -4.17534 0
M  V30 9336 H 892.265 0.0747447 -0.666824 0
M  V30 9337 H 894.809 -0.419048 -2.00161 0
M  V30 9338 H 892.964 1.50727 -3.56876 0
M  V30 9339 H 893.378 0.0609703 -5.24465 0
M  V30 9340 H 894.852 1.77108 -5.22816 0
M  V30 9341 H 895.329 2.42389 -3.66257 0
M  V30 9342 H 895.935 0.830867 -4.17105 0
M  V30 9343 N 894.251 1.57596 -0.0117121 0
M  V30 9344 C 895.498 1.91071 0.670667 0
M  V30 9345 C 895.826 0.886457 1.73125 0
M  V30 9346 O 895.081 -0.107135 1.95407 0
M  V30 9347 C 895.38 3.31296 1.34082 0
M  V30 9348 C 895.046 4.49011 0.412305 0
M  V30 9349 C 893.708 4.80945 0.156691 0
M  V30 9350 C 896.06 5.20709 -0.226294 0
M  V30 9351 C 893.388 5.81943 -0.745619 0
M  V30 9352 C 895.74 6.22668 -1.11655 0
M  V30 9353 C 894.404 6.53053 -1.38123 0
M  V30 9354 H 893.674 0.69918 0.245415 0
M  V30 9355 H 896.321 1.91373 -0.0697511 0
M  V30 9356 H 894.626 3.27174 2.15557 0
M  V30 9357 H 896.323 3.54461 1.87506 0
M  V30 9358 H 892.913 4.24067 0.621705 0
M  V30 9359 H 897.097 4.96282 -0.0418456 0
M  V30 9360 H 892.353 6.03839 -0.958566 0
M  V30 9361 H 896.527 6.77351 -1.61767 0
M  V30 9362 H 894.154 7.31132 -2.08208 0
M  V30 9363 N 895.729 -0.261212 1.5542 0
M  V30 9364 C 896.957 -1.00916 1.8062 0
M  V30 9365 C 897.372 -1.79494 0.585444 0
M  V30 9366 O 896.729 -1.76974 -0.445702 0
M  V30 9367 C 896.78 -1.95841 3.03856 0
M  V30 9368 O 896.501 -1.20445 4.21218 0
M  V30 9369 C 898.002 -2.82352 3.41749 0
M  V30 9370 H 895.222 -0.297596 0.601397 0
M  V30 9371 H 897.766 -0.288427 2.02456 0
M  V30 9372 H 895.921 -2.63361 2.84112 0
M  V30 9373 H 896.335 -1.84528 4.90968 0
M  V30 9374 H 897.809 -3.44733 4.31118 0
M  V30 9375 H 898.286 -3.5273 2.61683 0
M  V30 9376 H 898.892 -2.20306 3.63793 0
M  V30 9377 N 897.207 -1.48554 -0.526253 0
M  V30 9378 C 898.437 -1.60197 -1.30463 0
M  V30 9379 C 898.845 -0.26278 -1.87366 0
M  V30 9380 O 898.188 0.758537 -1.67308 0
M  V30 9381 C 898.25 -2.59223 -2.49085 0
M  V30 9382 C 897.914 -4.04199 -2.13241 0
M  V30 9383 C 898.911 -4.91771 -1.68694 0
M  V30 9384 C 896.596 -4.49762 -2.2365 0
M  V30 9385 C 898.59 -6.22934 -1.35026 0
M  V30 9386 C 896.277 -5.80945 -1.89594 0
M  V30 9387 C 897.275 -6.67354 -1.45353 0
M  V30 9388 O 896.963 -7.96096 -1.11745 0
M  V30 9389 H 896.695 -0.54284 -0.402866 0
M  V30 9390 H 899.249 -1.95137 -0.641157 0
M  V30 9391 H 897.479 -2.19412 -3.18426 0
M  V30 9392 H 899.168 -2.60661 -3.11144 0
M  V30 9393 H 899.934 -4.57806 -1.6012 0
M  V30 9394 H 895.813 -3.8269 -2.5704 0
M  V30 9395 H 899.357 -6.90334 -1.00422 0
M  V30 9396 H 895.254 -6.14444 -1.9781 0
M  V30 9397 H 896.022 -8.08882 -1.25111 0
M  V30 9398 N 898.685 0.775411 -1.37205 0
M  V30 9399 C 899.913 1.56446 -1.35397 0
M  V30 9400 C 900.328 1.887 0.0615437 0
M  V30 9401 O 899.685 1.51178 1.02233 0
M  V30 9402 C 899.736 2.87697 -2.18889 0
M  V30 9403 O 899.457 2.56828 -3.54924 0
M  V30 9404 C 900.958 3.81944 -2.25019 0
M  V30 9405 H 898.178 0.484792 -0.463916 0
M  V30 9406 H 900.722 0.961346 -1.80495 0
M  V30 9407 H 898.877 3.44442 -1.7731 0
M  V30 9408 H 899.291 3.40851 -3.98649 0
M  V30 9409 H 900.765 4.71055 -2.87769 0
M  V30 9410 H 901.242 4.20811 -1.25757 0
M  V30 9411 H 901.848 3.3113 -2.66895 0
M  V30 9412 N 900.163 1.21714 1.00117 0
M  V30 9413 C 901.113 0.947259 2.07391 0
M  V30 9414 C 902.097 -0.0989662 1.60595 0
M  V30 9415 O 903.289 0.11047 1.76655 0
M  V30 9416 C 900.418 0.517954 3.3937 0
M  V30 9417 C 899.504 1.59846 3.92823 0
M  V30 9418 N 899.895 2.82438 4.19598 0
M  V30 9419 C 898.193 1.46822 4.2114 0
M  V30 9420 C 898.894 3.52247 4.62922 0
M  V30 9421 N 897.87 2.79696 4.66124 0
M  V30 9422 H 901.672 1.8786 2.26022 0
M  V30 9423 H 899.186 1.11344 1.18221 0
M  V30 9424 H 901.183 0.305951 4.15776 0
M  V30 9425 H 899.843 -0.40658 3.22144 0
M  V30 9426 H 900.854 3.18944 4.08038 0
M  V30 9427 H 897.531 0.609259 4.13031 0
M  V30 9428 H 898.921 4.57232 4.9233 0
M  V30 9429 N 901.641 -1.19671 1.02551 0
M  V30 9430 C 903.052 -1.70964 0.750208 0
M  V30 9431 C 903.403 -1.82095 -0.730461 0
M  V30 9432 O 902.528 -1.48974 -1.56958 0
M  V30 9433 C 903.123 -3.10516 1.35518 0
M  V30 9434 C 901.682 -3.59083 1.12854 0
M  V30 9435 C 900.829 -2.36041 1.45534 0
M  V30 9436 H 903.78 -1.04559 1.19386 0
M  V30 9437 H 903.801 -3.73028 0.750378 0
M  V30 9438 H 903.313 -3.02383 2.43282 0
M  V30 9439 H 901.414 -3.72536 0.0689627 0
M  V30 9440 H 901.527 -4.43395 1.81488 0
M  V30 9441 H 899.891 -2.39214 0.87458 0
M  V30 9442 H 900.674 -2.3054 2.54374 0
M  V30 9443 N 903.119 -0.802921 -1.35613 0
M  V30 9444 C 904.396 -0.304993 -1.93208 0
M  V30 9445 C 904.776 1.20488 -1.73337 0
M  V30 9446 O 904.124 2.00268 -1.10022 0
M  V30 9447 C 904.334 -0.712383 -3.41652 0
M  V30 9448 C 905.682 -0.699785 -4.18794 0
M  V30 9449 O 906.706 -0.653698 -3.5015 0
M  V30 9450 O 905.565 -0.754842 -5.41262 0
M  V30 9451 H 902.659 -0.0789127 -0.823226 0
M  V30 9452 H 905.205 -0.886372 -1.44712 0
M  V30 9453 H 903.977 -1.75316 -3.49829 0
M  V30 9454 H 903.6 -0.105614 -3.9746 0
M  V30 9455 N 904.597 1.47463 -0.556102 0
M  V30 9456 C 905.874 1.9557 0.0339892 0
M  V30 9457 C 906.254 1.49869 1.48669 0
M  V30 9458 O 905.602 0.737019 2.16288 0
M  V30 9459 C 905.812 3.48826 -0.110343 0
M  V30 9460 C 907.16 4.24585 0.0355716 0
M  V30 9461 O 908.184 3.5618 -0.0378356 0
M  V30 9462 O 907.043 5.46158 0.193299 0
M  V30 9463 H 904.137 0.824461 0.0647521 0
M  V30 9464 H 906.683 1.57868 -0.622547 0
M  V30 9465 H 905.455 3.74891 -1.12126 0
M  V30 9466 H 905.078 3.9329 0.583855 0
M  V30 9467 N 906.075 0.2925 1.54862 0
M  V30 9468 C 907.038 -0.574423 2.21885 0
M  V30 9469 C 908.038 -1.06791 1.20218 0
M  V30 9470 O 909.228 -0.9653 1.45009 0
M  V30 9471 C 906.36 -1.79438 2.89853 0
M  V30 9472 H 907.553 0.0110319 2.99898 0
M  V30 9473 H 905.106 0.043256 1.5624 0
M  V30 9474 H 905.841 -2.4199 2.15897 0
M  V30 9475 H 905.626 -1.44827 3.64373 0
M  V30 9476 H 907.116 -2.41048 3.41007 0
M  V30 9477 N 907.553 -1.57587 0.0200696 0
M  V30 9478 C 908.83 -1.82696 -0.698677 0
M  V30 9479 C 909.21 -0.902082 -1.90855 0
M  V30 9480 O 908.558 0.0444834 -2.28457 0
M  V30 9481 C 908.768 -3.31691 -1.08546 0
M  V30 9482 C 910.116 -3.97938 -1.4809 0
M  V30 9483 O 911.14 -3.36133 -1.17869 0
M  V30 9484 O 909.999 -5.06851 -2.04364 0
M  V30 9485 H 907.093 -0.752997 -0.341942 0
M  V30 9486 H 909.639 -1.69635 0.04706 0
M  V30 9487 H 908.411 -3.90659 -0.223956 0
M  V30 9488 H 908.034 -3.49825 -1.88965 0
M  V30 9489 N 909.032 0.252966 -1.55557 0
M  V30 9490 C 909.942 1.33472 -1.92931 0
M  V30 9491 C 910.958 1.52983 -0.828985 0
M  V30 9492 O 912.134 1.66723 -1.12984 0
M  V30 9493 C 909.199 2.6704 -2.21112 0
M  V30 9494 C 908.26 2.56103 -3.44542 0
M  V30 9495 C 907.493 3.83302 -3.71369 0
M  V30 9496 O 907.716 4.84907 -3.00368 0
M  V30 9497 O 906.65 3.823 -4.64898 0
M  V30 9498 H 910.476 1.04768 -2.85057 0
M  V30 9499 H 908.061 0.453208 -1.4236 0
M  V30 9500 H 909.943 3.45981 -2.40572 0
M  V30 9501 H 908.618 2.95489 -1.32166 0
M  V30 9502 H 907.525 1.7547 -3.30396 0
M  V30 9503 H 908.858 2.32601 -4.33772 0
M  V30 9504 N 910.51 1.48831 0.518367 0
M  V30 9505 C 911.756 1.57672 1.27543 0
M  V30 9506 C 912.089 0.254915 1.9252 0
M  V30 9507 O 911.364 -0.740107 1.79868 0
M  V30 9508 C 911.647 2.72345 2.35585 0
M  V30 9509 C 911.5 4.14267 1.75224 0
M  V30 9510 C 912.819 2.82726 3.37274 0
M  V30 9511 H 909.938 0.573926 0.462361 0
M  V30 9512 H 912.58 1.8105 0.576267 0
M  V30 9513 H 910.73 2.52543 2.95219 0
M  V30 9514 H 912.402 4.45539 1.19551 0
M  V30 9515 H 910.645 4.20724 1.05706 0
M  V30 9516 H 911.316 4.90345 2.53507 0
M  V30 9517 H 913.792 3.00699 2.8761 0
M  V30 9518 H 912.668 3.6467 4.10252 0
M  V30 9519 H 912.929 1.9136 3.9854 0
M  V30 9520 N 911.988 -0.768124 1.37614 0
M  V30 9521 C 913.234 -1.52907 1.33219 0
M  V30 9522 C 913.567 -1.94026 -0.0821218 0
M  V30 9523 O 912.842 -1.64345 -1.04023 0
M  V30 9524 C 913.125 -2.79164 2.27463 0
M  V30 9525 C 912.978 -2.44276 3.7769 0
M  V30 9526 C 914.297 -3.81115 2.20089 0
M  V30 9527 H 911.416 -0.554712 0.485246 0
M  V30 9528 H 914.058 -0.880911 1.68345 0
M  V30 9529 H 912.208 -3.34472 1.97639 0
M  V30 9530 H 913.88 -1.94855 4.18126 0
M  V30 9531 H 912.123 -1.76925 3.96081 0
M  V30 9532 H 912.794 -3.34544 4.39072 0
M  V30 9533 H 915.27 -3.35311 2.46386 0
M  V30 9534 H 914.146 -4.67174 2.88166 0
M  V30 9535 H 914.407 -4.25644 1.19498 0
M  V30 9536 N 913.466 -1.22244 -0.994698 0
M  V30 9537 C 914.398 -0.948706 -2.08644 0
M  V30 9538 C 915.411 0.0720049 -1.62641 0
M  V30 9539 O 916.6 -0.161778 -1.77765 0
M  V30 9540 C 913.7 -0.404885 -3.36473 0
M  V30 9541 C 912.873 -1.48239 -4.11514 0
M  V30 9542 C 911.932 -0.94597 -5.17627 0
M  V30 9543 O 910.958 -1.63177 -5.45309 0
M  V30 9544 N 912.16 0.23355 -5.8003 0
M  V30 9545 H 914.925 -1.88858 -2.32707 0
M  V30 9546 H 912.486 -1.12908 -1.16032 0
M  V30 9547 H 914.478 -0.0313903 -4.04688 0
M  V30 9548 H 913.048 0.440061 -3.09487 0
M  V30 9549 H 912.268 -2.02928 -3.37955 0
M  V30 9550 H 913.556 -2.20741 -4.58422 0
M  V30 9551 H 912.954 0.80756 -5.59906 0
M  V30 9552 H 911.511 0.54845 -6.49488 0
M  V30 9553 N 914.944 1.19125 -1.03184 0
M  V30 9554 C 916.193 1.8821 -0.725264 0
M  V30 9555 C 916.506 1.80674 0.749411 0
M  V30 9556 O 917.712 2.45037 1.16915 0
M  V30 9557 C 916.168 3.37607 -1.24697 0
M  V30 9558 C 915.776 3.53693 -2.74964 0
M  V30 9559 C 917.52 4.12149 -1.01652 0
M  V30 9560 C 915.427 4.97001 -3.20538 0
M  V30 9561 H 914.357 0.704916 -0.267599 0
M  V30 9562 H 917.008 1.34663 -1.24652 0
M  V30 9563 H 915.39 3.90569 -0.653614 0
M  V30 9564 H 916.564 3.11046 -3.39981 0
M  V30 9565 H 914.879 2.92544 -2.96322 0
M  V30 9566 H 917.476 5.17837 -1.33226 0
M  V30 9567 H 917.819 4.16274 0.0465712 0
M  V30 9568 H 918.352 3.65334 -1.57403 0
M  V30 9569 H 915.091 4.9804 -4.26189 0
M  V30 9570 H 914.611 5.40398 -2.60251 0
M  V30 9571 H 916.29 5.65669 -3.14049 0
M  V30 9572 N 916.422 0.810101 1.35185 0
M  V30 9573 C 917.647 0.40364 2.03434 0
M  V30 9574 C 918.072 -0.97857 1.60641 0
M  V30 9575 O 917.43 -1.63435 0.784779 0
M  V30 9576 C 917.478 0.499154 3.57129 0
M  V30 9577 O 916.582 -0.486039 4.09526 0
M  V30 9578 H 915.923 0.168049 0.642383 0
M  V30 9579 H 918.453 1.09696 1.72708 0
M  V30 9580 H 918.463 0.370236 4.06317 0
M  V30 9581 H 917.138 1.50733 3.87624 0
M  V30 9582 H 915.715 -0.31707 3.7155 0
M  V30 9583 N 917.9 -1.47166 0.563914 0
M  V30 9584 C 919.147 -2.02456 0.042371 0
M  V30 9585 C 919.475 -1.43753 -1.31016 0
M  V30 9586 O 918.73 -0.585287 -1.86743 0
M  V30 9587 C 919.029 -3.57279 -0.0931797 0
M  V30 9588 C 918.695 -4.34932 1.18933 0
M  V30 9589 C 917.357 -4.55867 1.54073 0
M  V30 9590 C 919.709 -4.79665 2.03889 0
M  V30 9591 C 917.037 -5.18785 2.74005 0
M  V30 9592 C 919.389 -5.43907 3.23029 0
M  V30 9593 C 918.053 -5.63074 3.58475 0
M  V30 9594 H 917.323 -0.740838 0.0155047 0
M  V30 9595 H 919.97 -1.76759 0.736776 0
M  V30 9596 H 918.275 -3.82005 -0.870596 0
M  V30 9597 H 919.972 -3.97716 -0.512176 0
M  V30 9598 H 916.562 -4.18921 0.905718 0
M  V30 9599 H 920.746 -4.63264 1.78046 0
M  V30 9600 H 916.002 -5.31818 3.01628 0
M  V30 9601 H 920.176 -5.77531 3.89141 0
M  V30 9602 H 917.803 -6.11598 4.515 0
M  V30 9603 N 919.378 -0.300708 -1.54705 0
M  V30 9604 C 920.288 0.584996 -2.27189 0
M  V30 9605 C 921.304 1.14866 -1.30697 0
M  V30 9606 O 922.48 1.17351 -1.63679 0
M  V30 9607 C 919.545 1.74076 -2.99831 0
M  V30 9608 C 918.606 1.2112 -4.1186 0
M  V30 9609 C 917.839 2.31188 -4.81028 0
M  V30 9610 O 918.062 3.5108 -4.49554 0
M  V30 9611 O 916.996 1.97897 -5.68437 0
M  V30 9612 H 920.822 -0.00298177 -3.037 0
M  V30 9613 H 918.407 -0.0671802 -1.49249 0
M  V30 9614 H 920.289 2.41413 -3.45395 0
M  V30 9615 H 918.964 2.31535 -2.26215 0
M  V30 9616 H 917.871 0.50357 -3.70695 0
M  V30 9617 H 919.204 0.682046 -4.87452 0
M  V30 9618 N 920.856 1.57574 -0.0284266 0
M  V30 9619 C 921.786 2.1321 0.952039 0
M  V30 9620 C 922.767 1.04806 1.33977 0
M  V30 9621 O 923.952 1.32635 1.41851 0
M  V30 9622 C 921.082 2.65862 2.23461 0
M  V30 9623 C 920.036 3.79047 1.98765 0
M  V30 9624 C 919.362 4.18124 3.33281 0
M  V30 9625 C 920.662 5.05151 1.32739 0
M  V30 9626 H 922.356 2.95385 0.488705 0
M  V30 9627 H 919.902 1.42092 0.233628 0
M  V30 9628 H 921.855 3.03417 2.92431 0
M  V30 9629 H 920.579 1.80848 2.71959 0
M  V30 9630 H 919.238 3.41929 1.32213 0
M  V30 9631 H 918.886 3.30092 3.79537 0
M  V30 9632 H 918.586 4.94396 3.17563 0
M  V30 9633 H 920.11 4.58262 4.0352 0
M  V30 9634 H 921.524 5.40297 1.91708 0
M  V30 9635 H 919.921 5.86416 1.27421 0
M  V30 9636 H 920.991 4.83969 0.300261 0
M  V30 9637 N 922.334 -0.244713 1.55689 0
M  V30 9638 C 923.582 -0.970525 1.77272 0
M  V30 9639 C 923.903 -1.85771 0.592804 0
M  V30 9640 O 923.173 -1.91952 -0.391323 0
M  V30 9641 H 921.753 -0.361342 0.653789 0
M  V30 9642 H 924.415 -0.262134 1.93129 0
M  V30 9643 H 923.511 -1.59096 2.68505 0
M  V30 9644 N 923.813 -1.49104 -0.510467 0
M  V30 9645 C 924.723 -1.67792 -1.6396 0
M  V30 9646 C 925.739 -0.560454 -1.64727 0
M  V30 9647 O 926.915 -0.833985 -1.83321 0
M  V30 9648 C 923.98 -1.73154 -3.00364 0
M  V30 9649 C 923.041 -2.9667 -3.10299 0
M  V30 9650 C 922.274 -3.01767 -4.40196 0
M  V30 9651 O 922.497 -2.1472 -5.28443 0
M  V30 9652 O 921.431 -3.94137 -4.54906 0
M  V30 9653 H 925.257 -2.63428 -1.51126 0
M  V30 9654 H 922.842 -1.32734 -0.685719 0
M  V30 9655 H 924.724 -1.79089 -3.81451 0
M  V30 9656 H 923.399 -0.806952 -3.1348 0
M  V30 9657 H 922.306 -2.96257 -2.28435 0
M  V30 9658 H 923.639 -3.88578 -3.02106 0
M  V30 9659 N 925.291 0.760815 -1.38019 0
M  V30 9660 C 926.539 1.51673 -1.33566 0
M  V30 9661 C 926.86 1.94852 0.076024 0
M  V30 9662 O 926.13 1.67112 1.02227 0
M  V30 9663 H 924.71 0.562581 -0.491438 0
M  V30 9664 H 927.372 0.904832 -1.72623 0
M  V30 9665 H 926.468 2.41102 -1.98182 0
M  V30 9666 N 926.769 1.22769 0.988202 0
M  V30 9667 C 927.997 1.08155 1.76381 0
M  V30 9668 C 928.412 -0.367573 1.85187 0
M  V30 9669 O 927.769 -1.25455 1.32541 0
M  V30 9670 C 927.82 1.69193 3.19462 0
M  V30 9671 O 927.541 3.08437 3.11125 0
M  V30 9672 C 929.042 1.59915 4.13451 0
M  V30 9673 H 926.262 0.378908 0.553778 0
M  V30 9674 H 928.806 1.6246 1.24206 0
M  V30 9675 H 926.961 1.18939 3.6869 0
M  V30 9676 H 927.375 3.37916 4.0114 0
M  V30 9677 H 928.849 2.07339 5.1158 0
M  V30 9678 H 929.326 0.556546 4.3566 0
M  V30 9679 H 929.932 2.09497 3.70123 0
M  V30 9680 N 928.247 -1.18576 1.03814 0
M  V30 9681 C 929.21 -2.2033 0.63146 0
M  V30 9682 C 930.21 -1.57787 -0.309816 0
M  V30 9683 O 931.4 -1.73938 -0.0955598 0
M  V30 9684 C 928.532 -3.40818 -0.0745963 0
M  V30 9685 H 929.725 -2.57824 1.53189 0
M  V30 9686 H 927.278 -1.32416 0.830398 0
M  V30 9687 H 928.013 -3.08853 -0.988947 0
M  V30 9688 H 927.798 -3.87453 0.6019 0
M  V30 9689 H 929.288 -4.16166 -0.345727 0
M  V30 9690 N 929.725 -0.817259 -1.34754 0
M  V30 9691 C 930.953 -0.415451 -2.02686 0
M  V30 9692 C 931.368 0.97688 -1.61563 0
M  V30 9693 O 930.725 1.63125 -0.818321 0
M  V30 9694 C 930.776 -0.501486 -3.58005 0
M  V30 9695 O 930.497 -1.83893 -3.97637 0
M  V30 9696 C 931.998 -0.0938504 -4.43201 0
M  V30 9697 H 929.218 -0.16742 -0.649778 0
M  V30 9698 H 931.762 -1.10384 -1.7215 0
M  V30 9699 H 929.917 0.138766 -3.87151 0
M  V30 9700 H 930.331 -1.8092 -4.92309 0
M  V30 9701 H 931.805 -0.205145 -5.51619 0
M  V30 9702 H 932.282 0.962011 -4.28535 0
M  V30 9703 H 932.888 -0.707677 -4.19371 0
M  V30 9704 N 931.203 1.46865 -0.571711 0
M  V30 9705 C 932.431 2.06818 -0.0583975 0
M  V30 9706 C 932.846 1.42218 1.24175 0
M  V30 9707 O 932.203 0.523655 1.74826 0
M  V30 9708 C 932.254 3.61281 0.125673 0
M  V30 9709 O 931.975 4.23462 -1.123 0
M  V30 9710 C 933.476 4.38137 0.674604 0
M  V30 9711 H 930.696 0.668948 -0.052438 0
M  V30 9712 H 933.24 1.88656 -0.789251 0
M  V30 9713 H 931.395 3.78908 0.806707 0
M  V30 9714 H 931.809 5.16192 -0.929869 0
M  V30 9715 H 933.283 5.46845 0.752626 0
M  V30 9716 H 933.76 4.05419 1.68915 0
M  V30 9717 H 934.366 4.2529 0.0287979 0
M  V30 9718 N 932.681 0.308908 1.54543 0
M  V30 9719 C 933.93 -0.298854 1.99474 0
M  V30 9720 C 934.243 -1.54393 1.20093 0
M  V30 9721 O 935.449 -2.22677 1.55329 0
M  V30 9722 C 933.905 -0.58303 3.55146 0
M  V30 9723 C 933.513 0.644157 4.43345 0
M  V30 9724 C 935.257 -1.15155 4.08582 0
M  V30 9725 C 933.164 0.332694 5.90463 0
M  V30 9726 H 932.094 -0.115445 0.74511 0
M  V30 9727 H 934.745 0.418848 1.78656 0
M  V30 9728 H 933.127 -1.36053 3.71894 0
M  V30 9729 H 934.301 1.42012 4.38371 0
M  V30 9730 H 932.616 1.13186 4.00722 0
M  V30 9731 H 935.213 -1.39896 5.16075 0
M  V30 9732 H 935.556 -2.09632 3.59667 0
M  V30 9733 H 936.089 -0.435571 3.95408 0
M  V30 9734 H 932.828 1.24624 6.43544 0
M  V30 9735 H 932.348 -0.405844 5.98425 0
M  V30 9736 H 934.027 -0.0628545 6.46969 0
M  V30 9737 N 934.159 -1.57557 0.0367827 0
M  V30 9738 C 935.389 -1.96134 -0.649225 0
M  V30 9739 C 935.797 -0.912279 -1.65753 0
M  V30 9740 O 935.14 0.113569 -1.83349 0
M  V30 9741 C 935.202 -3.30889 -1.40545 0
M  V30 9742 C 934.866 -4.53622 -0.554609 0
M  V30 9743 C 935.863 -5.19611 0.17331 0
M  V30 9744 C 933.548 -4.99907 -0.48976 0
M  V30 9745 C 935.542 -6.3021 0.95467 0
M  V30 9746 C 933.229 -6.10386 0.295299 0
M  V30 9747 C 934.227 -6.75398 1.01621 0
M  V30 9748 O 933.915 -7.83755 1.78839 0
M  V30 9749 H 933.647 -0.650662 -0.183344 0
M  V30 9750 H 936.201 -2.05179 0.0951512 0
M  V30 9751 H 934.431 -3.18356 -2.19513 0
M  V30 9752 H 936.12 -3.54315 -1.9803 0
M  V30 9753 H 936.886 -4.84819 0.132589 0
M  V30 9754 H 932.765 -4.49105 -1.04046 0
M  V30 9755 H 936.309 -6.80886 1.51789 0
M  V30 9756 H 932.206 -6.44616 0.33771 0
M  V30 9757 H 932.974 -8.0046 1.70898 0
M  V30 9758 N 935.637 0.236453 -1.55816 0
M  V30 9759 C 936.884 0.963012 -1.78136 0
M  V30 9760 C 937.212 1.84918 -0.602952 0
M  V30 9761 O 936.467 1.91285 0.413325 0
M  V30 9762 C 936.766 1.84549 -3.06066 0
M  V30 9763 C 936.432 1.11381 -4.36927 0
M  V30 9764 C 935.094 0.911635 -4.72486 0
M  V30 9765 C 937.446 0.596 -5.17781 0
M  V30 9766 C 934.774 0.179515 -5.86425 0
M  V30 9767 C 937.126 -0.122702 -6.32481 0
M  V30 9768 C 935.79 -0.336263 -6.66652 0
M  V30 9769 H 935.06 0.352391 -0.651845 0
M  V30 9770 H 937.707 0.232295 -1.90086 0
M  V30 9771 H 936.012 2.6436 -2.89173 0
M  V30 9772 H 937.709 2.40953 -3.20535 0
M  V30 9773 H 934.299 1.28134 -4.08998 0
M  V30 9774 H 938.483 0.73971 -4.90757 0
M  V30 9775 H 933.739 0.00368224 -6.114 0
M  V30 9776 H 937.913 -0.531516 -6.94369 0
M  V30 9777 H 935.54 -0.905507 -7.54788 0
M  V30 9778 N 937.115 1.49373 0.502552 0
M  V30 9779 C 938.392 1.49282 1.26389 0
M  V30 9780 C 938.772 0.219674 2.09954 0
M  V30 9781 O 938.12 -0.797991 2.14113 0
M  V30 9782 C 938.33 2.77083 2.12194 0
M  V30 9783 C 939.678 3.26511 2.71433 0
M  V30 9784 O 940.702 2.78189 2.22462 0
M  V30 9785 O 939.561 4.10665 3.60578 0
M  V30 9786 H 936.655 0.597415 0.57186 0
M  V30 9787 H 939.201 1.61634 0.516951 0
M  V30 9788 H 937.973 3.61237 1.50411 0
M  V30 9789 H 937.596 2.67583 2.94084 0
M  V30 9790 N 938.594 -0.753485 1.38421 0
M  V30 9791 C 939.871 -1.50318 1.25155 0
M  V30 9792 C 940.251 -2.10588 -0.147003 0
M  V30 9793 O 939.599 -1.97071 -1.15651 0
M  V30 9794 C 939.809 -2.56946 2.36177 0
M  V30 9795 C 941.157 -3.23846 2.74607 0
M  V30 9796 O 942.181 -2.67251 2.3549 0
M  V30 9797 O 941.04 -4.2621 3.42064 0
M  V30 9798 H 938.134 -0.666624 0.48943 0
M  V30 9799 H 940.68 -0.788887 1.50249 0
M  V30 9800 H 939.452 -2.1066 3.29754 0
M  V30 9801 H 939.075 -3.35956 2.12648 0
M  V30 9802 N 940.072 -1.23292 -0.981677 0
M  V30 9803 C 941.318 -1.06582 -1.72535 0
M  V30 9804 C 941.651 0.396538 -1.90108 0
M  V30 9805 O 940.926 1.29363 -1.45243 0
M  V30 9806 C 941.209 -1.7904 -3.12437 0
M  V30 9807 C 941.062 -3.32941 -3.02441 0
M  V30 9808 C 942.381 -1.55185 -4.11832 0
M  V30 9809 H 939.5 -0.388585 -0.626236 0
M  V30 9810 H 942.142 -1.51779 -1.14293 0
M  V30 9811 H 940.292 -1.40619 -3.62158 0
M  V30 9812 H 941.964 -3.80875 -2.60254 0
M  V30 9813 H 940.207 -3.62039 -2.38977 0
M  V30 9814 H 940.878 -3.78827 -4.0149 0
M  V30 9815 H 943.354 -1.88581 -3.70913 0
M  V30 9816 H 942.23 -2.08362 -5.07815 0
M  V30 9817 H 942.491 -0.486925 -4.3941 0
M  V30 9818 N 941.55 1.18024 -1.04442 0
M  V30 9819 C 942.778 1.92032 -0.770161 0
M  V30 9820 C 943.193 1.76391 0.673181 0
M  V30 9821 O 942.55 1.09604 1.45922 0
M  V30 9822 C 942.601 3.43328 -1.13173 0
M  V30 9823 O 942.322 3.5848 -2.51841 0
M  V30 9824 C 943.823 4.34427 -0.882523 0
M  V30 9825 H 941.043 0.609518 -0.280586 0
M  V30 9826 H 943.587 1.49711 -1.39308 0
M  V30 9827 H 941.742 3.83423 -0.553704 0
M  V30 9828 H 942.156 4.52166 -2.65794 0
M  V30 9829 H 943.63 5.39123 -1.18533 0
M  V30 9830 H 944.107 4.3882 0.18257 0
M  V30 9831 H 944.713 4.00035 -1.44403 0
M  V30 9832 N 943.028 0.824394 1.34319 0
M  V30 9833 C 944.274 0.413779 1.98534 0
M  V30 9834 C 944.607 -1.02089 1.65201 0
M  V30 9835 O 943.882 -1.71129 0.924402 0
M  V30 9836 C 944.165 0.61801 3.54757 0
M  V30 9837 C 944.018 2.0989 3.97827 0
M  V30 9838 C 945.337 0.0549041 4.40066 0
M  V30 9839 H 942.456 0.151815 0.721194 0
M  V30 9840 H 945.098 1.03723 1.5919 0
M  V30 9841 H 943.248 0.0873107 3.88402 0
M  V30 9842 H 944.92 2.69335 3.74508 0
M  V30 9843 H 943.163 2.58881 3.48085 0
M  V30 9844 H 943.834 2.1926 5.06586 0
M  V30 9845 H 946.31 0.508348 4.12983 0
M  V30 9846 H 945.186 0.227595 5.48428 0
M  V30 9847 H 945.447 -1.04025 4.29687 0
M  V30 9848 N 944.506 -1.46559 0.579492 0
M  V30 9849 C 945.731 -2.0729 0.0674595 0
M  V30 9850 C 946.156 -1.4259 -1.22677 0
M  V30 9851 O 945.514 -0.50857 -1.74021 0
M  V30 9852 C 945.562 -3.60492 -0.0882227 0
M  V30 9853 O 944.666 -3.96172 -1.14551 0
M  V30 9854 H 944.007 -0.661159 0.0613536 0
M  V30 9855 H 946.537 -1.88247 0.801519 0
M  V30 9856 H 946.547 -4.06929 -0.295411 0
M  V30 9857 H 945.222 -4.06976 0.856943 0
M  V30 9858 H 943.799 -3.61448 -0.917033 0
M  V30 9859 N 945.984 -0.3171 -1.54377 0
M  V30 9860 C 947.395 0.172287 -1.85903 0
M  V30 9861 C 947.746 1.52141 -1.23885 0
M  V30 9862 O 946.871 2.0949 -0.542476 0
M  V30 9863 C 947.466 0.319392 -3.37291 0
M  V30 9864 C 946.025 0.752998 -3.68791 0
M  V30 9865 C 945.172 -0.129143 -2.76999 0
M  V30 9866 H 948.123 -0.537597 -1.49317 0
M  V30 9867 H 948.144 1.15137 -3.62662 0
M  V30 9868 H 947.656 -0.662671 -3.82401 0
M  V30 9869 H 945.757 1.74504 -3.2921 0
M  V30 9870 H 945.87 0.561228 -4.75801 0
M  V30 9871 H 944.234 0.394242 -2.5163 0
M  V30 9872 H 945.017 -1.10785 -3.24933 0
M  V30 9873 N 947.462 1.57535 -0.0451378 0
M  V30 9874 C 948.394 2.08109 0.960372 0
M  V30 9875 C 949.407 1.0077 1.27864 0
M  V30 9876 O 950.596 1.28351 1.24049 0
M  V30 9877 C 947.696 2.50414 2.28355 0
M  V30 9878 C 946.869 3.8102 2.14808 0
M  V30 9879 C 945.928 4.09702 3.30198 0
M  V30 9880 O 944.954 4.79715 3.0637 0
M  V30 9881 N 946.156 3.61138 4.54489 0
M  V30 9882 H 948.921 2.94999 0.528752 0
M  V30 9883 H 946.482 1.61283 0.141248 0
M  V30 9884 H 948.474 2.66683 3.04405 0
M  V30 9885 H 947.044 1.68805 2.63104 0
M  V30 9886 H 946.264 3.74392 1.23387 0
M  V30 9887 H 947.552 4.66559 2.02978 0
M  V30 9888 H 946.95 3.04527 4.76739 0
M  V30 9889 H 945.507 3.82656 5.27653 0
M  V30 9890 O 948.979 -0.0961309 1.61214 0
M  V30 9891 H 949.67 -0.72487 1.79625 0
M  V30 END ATOM
M  V30 BEGIN BOND
M  V30 END BOND
M  V30 END CTAB
M  END
$$$$
