drugbank_target|Q9WYA5 5-methyltetrahydrofolate S-homocysteine methyltransferase (DB04422)
 OpenBabel12092120293D

  0  0  0     0  0            999 V3000
M  V30 BEGIN CTAB
M  V30 COUNTS 12258 12358 0 0 0
M  V30 BEGIN ATOM
M  V30 1 H -0.908 1.98254 -0.117106 0
M  V30 2 N 0 1.576 0 0
M  V30 3 C 0.933 2.03868 1.02534 0
M  V30 4 C 1.911 0.928543 1.3348 0
M  V30 5 O 3.095 1.19667 1.45644 0
M  V30 6 C 0.222 2.43627 2.35294 0
M  V30 7 C -0.732 3.65373 2.2001 0
M  V30 8 S 0.101 5.13292 1.52614 0
M  V30 9 C 1.257 5.56322 2.86805 0
M  V30 10 H 1.49 2.90518 0.631377 0
M  V30 11 H -0.977 1.52953 0.210867 0
M  V30 12 H 0.981 2.67203 3.11629 0
M  V30 13 H -0.358 1.57376 2.7183 0
M  V30 14 H -1.165 3.90944 3.18086 0
M  V30 15 H -1.563 3.418 1.51819 0
M  V30 16 H 0.729 5.58782 3.83104 0
M  V30 17 H 1.672 6.56266 2.65933 0
M  V30 18 H 2.08 4.83886 2.90714 0
M  V30 19 N 1.4781 -0.272755 1.55222 0
M  V30 20 C 2.8941 -0.619959 1.47067 0
M  V30 21 C 3.0941 -1.895 0.684978 0
M  V30 22 O 2.1501 -2.51675 0.203931 0
M  V30 23 C 3.4631 -0.746693 2.91282 0
M  V30 24 C 5.0111 -0.840731 3.01497 0
M  V30 25 C 5.4861 -0.99924 4.46967 0
M  V30 26 N 6.9771 -1.06476 4.50796 0
M  V30 27 C 7.7121 -1.20621 5.6057 0
M  V30 28 N 7.2081 -1.31483 6.80209 0
M  V30 29 N 9.0011 -1.23733 5.48312 0
M  V30 30 H 1.1521 0.564606 2.04758 0
M  V30 31 H 3.4151 0.191177 0.928523 0
M  V30 32 H 3.1211 0.119753 3.51496 0
M  V30 33 H 2.9951 -1.6269 3.40311 0
M  V30 34 H 5.3821 -1.69764 2.41379 0
M  V30 35 H 5.4631 0.0640874 2.5572 0
M  V30 36 H 5.1071 -0.146984 5.07687 0
M  V30 37 H 5.0371 -1.91871 4.90401 0
M  V30 38 H 7.5281 -0.993196 3.64615 0
M  V30 39 H 7.8411 -1.42111 7.59621 0
M  V30 40 H 6.1861 -1.28487 6.8302 0
M  V30 41 H 9.3771 -1.14877 4.53785 0
M  V30 42 H 9.5501 -1.34412 6.33906 0
M  V30 43 N 2.9562 -1.48159 -0.537278 0
M  V30 44 C 3.9042 -1.62573 -1.66352 0
M  V30 45 C 4.8982 -0.492366 -1.62087 0
M  V30 46 O 6.1042 -0.670847 -1.67032 0
M  V30 47 H 2.4792 -0.511992 -0.550789 0
M  V30 48 H 4.4502 -2.57176 -1.51337 0
M  V30 49 C 3.1992 -1.67583 -3.04649 0
M  V30 50 H 2.5222 -2.54151 -3.08622 0
M  V30 51 H 3.9622 -1.81713 -3.83088 0
M  V30 52 C 2.4212 -0.413039 -3.34358 0
M  V30 53 O 2.9512 0.477259 -3.98855 0
M  V30 54 N 1.1572 -0.286961 -2.8918 0
M  V30 55 H 0.7042 -1.01241 -2.36871 0
M  V30 56 H 0.6622 0.556963 -3.09427 0
M  V30 57 N 4.4343 0.785586 -1.36625 0
M  V30 58 C 5.8503 1.08419 -1.17122 0
M  V30 59 C 6.0503 2.015 0.00208491 0
M  V30 60 O 5.1063 2.43551 0.666278 0
M  V30 61 C 6.4193 1.69498 -2.48377 0
M  V30 62 C 7.9673 1.81821 -2.54775 0
M  V30 63 C 8.4423 2.46315 -3.86126 0
M  V30 64 N 9.9333 2.53779 -3.87492 0
M  V30 65 C 10.6683 3.045 -4.85868 0
M  V30 66 N 10.1643 3.55499 -5.94637 0
M  V30 67 N 11.9573 3.03247 -4.73284 0
M  V30 68 H 4.1083 0.167264 -2.1174 0
M  V30 69 H 6.3713 0.13682 -0.938075 0
M  V30 70 H 6.0773 1.08571 -3.34522 0
M  V30 71 H 5.9513 2.6896 -2.64462 0
M  V30 72 H 8.3383 2.41884 -1.69045 0
M  V30 73 H 8.4193 0.811532 -2.42586 0
M  V30 74 H 8.0633 1.86895 -4.72263 0
M  V30 75 H 7.9933 3.47561 -3.95612 0
M  V30 76 H 10.4843 2.17672 -3.08913 0
M  V30 77 H 10.7973 3.92562 -6.65669 0
M  V30 78 H 9.1423 3.5364 -5.98301 0
M  V30 79 H 12.3333 2.62696 -3.87438 0
M  V30 80 H 12.5063 3.42467 -5.50109 0
M  V30 81 N 5.9124 1.20967 1.01018 0
M  V30 82 C 7.3284 0.965905 1.27053 0
M  V30 83 C 7.5284 -0.350785 1.98423 0
M  V30 84 O 6.5844 -1.07773 2.28344 0
M  V30 85 C 7.8974 2.15294 2.09926 0
M  V30 86 C 9.4454 2.19463 2.23171 0
M  V30 87 C 9.9204 3.3767 3.09424 0
M  V30 88 N 11.4114 3.37724 3.17012 0
M  V30 89 C 12.1464 4.25837 3.83993 0
M  V30 90 N 11.6424 5.24138 4.53047 0
M  V30 91 N 13.4354 4.1366 3.80581 0
M  V30 92 H 5.5864 2.0565 0.531194 0
M  V30 93 H 7.8494 0.90024 0.297106 0
M  V30 94 H 7.5554 3.10684 1.64828 0
M  V30 95 H 7.4294 2.13923 3.10672 0
M  V30 96 H 9.8164 1.24632 2.6749 0
M  V30 97 H 9.8974 2.2488 1.21912 0
M  V30 98 H 9.5414 4.32791 2.65808 0
M  V30 99 H 9.4714 3.29491 4.10784 0
M  V30 100 H 11.9624 2.6658 2.6785 0
M  V30 101 H 12.2754 5.87684 5.01844 0
M  V30 102 H 10.6204 5.28068 4.5185 0
M  V30 103 H 13.8114 3.36127 3.25785 0
M  V30 104 H 13.9844 4.82538 4.32505 0
M  V30 105 N 7.3905 -1.2043 1.01659 0
M  V30 106 C 8.3005 -2.2689 0.596484 0
M  V30 107 C 9.3165 -1.70107 -0.36599 0
M  V30 108 O 10.4925 -2.00117 -0.226942 0
M  V30 109 C 7.5575 -3.4665 -0.0586659 0
M  V30 110 C 6.6185 -4.18662 0.949751 0
M  V30 111 C 5.8515 -5.32705 0.32577 0
M  V30 112 O 6.0745 -5.63656 -0.874509 0
M  V30 113 O 5.0085 -5.92803 1.04249 0
M  V30 114 H 8.8345 -2.65041 1.4828 0
M  V30 115 H 6.4195 -1.27048 0.786082 0
M  V30 116 H 8.3015 -4.19256 -0.424564 0
M  V30 117 H 6.9765 -3.10375 -0.91918 0
M  V30 118 H 5.8835 -3.48229 1.36702 0
M  V30 119 H 7.2165 -4.58878 1.78023 0
M  V30 120 N 8.8686 -0.792821 -1.36206 0
M  V30 121 C 10.1146 -0.36733 -1.99446 0
M  V30 122 C 10.4476 1.05917 -1.62774 0
M  V30 123 O 9.7226 1.7324 -0.88421 0
M  V30 124 C 10.0056 -0.535044 -3.56103 0
M  V30 125 C 9.8586 -2.00548 -4.02617 0
M  V30 126 C 11.1776 0.0478191 -4.40074 0
M  V30 127 H 8.2966 -0.134941 -0.724541 0
M  V30 128 H 10.9386 -0.999794 -1.61568 0
M  V30 129 H 9.0886 0.00336329 -3.885 0
M  V30 130 H 10.7606 -2.60521 -3.80692 0
M  V30 131 H 9.0036 -2.50686 -3.54032 0
M  V30 132 H 9.6746 -2.07377 -5.11565 0
M  V30 133 H 12.1506 -0.411822 -4.14057 0
M  V30 134 H 11.0266 -0.0995336 -5.4881 0
M  V30 135 H 11.2876 1.14025 -4.27142 0
M  V30 136 N 10.3467 1.47872 -0.545128 0
M  V30 137 C 11.5717 2.07391 -0.0190611 0
M  V30 138 C 11.9967 1.39688 1.25971 0
M  V30 139 O 11.3547 0.467816 1.7516 0
M  V30 140 C 11.4027 3.60188 0.172335 0
M  V30 141 O 10.5067 3.9339 1.23766 0
M  V30 142 H 9.8477 0.662411 -0.0459059 0
M  V30 143 H 12.3777 1.90066 -0.757365 0
M  V30 144 H 12.3877 4.06129 0.390305 0
M  V30 145 H 11.0627 4.08865 -0.761725 0
M  V30 146 H 9.6397 3.5921 1.00114 0
M  V30 147 N 11.8248 0.280983 1.55075 0
M  V30 148 C 12.7718 -0.603937 2.22758 0
M  V30 149 C 13.7418 -1.1452 1.20309 0
M  V30 150 O 14.9268 -1.19343 1.48869 0
M  V30 151 C 12.0668 -1.77947 2.95684 0
M  V30 152 C 11.1798 -1.2715 4.12864 0
M  V30 153 C 10.3148 -2.4093 4.7342 0
M  V30 154 C 9.3538 -1.87165 5.82783 0
M  V30 155 N 8.4908 -2.94441 6.37377 0
M  V30 156 H 13.3308 -0.020124 2.97993 0
M  V30 157 H 10.8678 0.00183425 1.471 0
M  V30 158 H 12.8258 -2.47055 3.36184 0
M  V30 159 H 11.4558 -2.33522 2.22861 0
M  V30 160 H 10.5078 -0.473331 3.77444 0
M  V30 161 H 11.8198 -0.837751 4.91715 0
M  V30 162 H 10.9738 -3.18021 5.1667 0
M  V30 163 H 9.7128 -2.87623 3.93859 0
M  V30 164 H 8.7178 -1.08556 5.38976 0
M  V30 165 H 9.9428 -1.41401 6.64216 0
M  V30 166 H 7.8888 -3.40505 5.60707 0
M  V30 167 H 7.8058 -2.55501 7.11516 0
M  V30 168 H 9.0738 -3.71489 6.85285 0
M  V30 169 N 13.3029 -1.57598 0.00835791 0
M  V30 170 C 14.2329 -2.1198 -0.979113 0
M  V30 171 C 15.2139 -1.03091 -1.35301 0
M  V30 172 O 16.3989 -1.30818 -1.43528 0
M  V30 173 C 13.5289 -2.62995 -2.26828 0
M  V30 174 C 12.4829 -3.76485 -2.03576 0
M  V30 175 C 11.8089 -4.13846 -3.38579 0
M  V30 176 C 13.1089 -5.0342 -1.39161 0
M  V30 177 H 14.8029 -2.94738 -0.526281 0
M  V30 178 H 12.3489 -1.41783 -0.251704 0
M  V30 179 H 14.3019 -2.99669 -2.96271 0
M  V30 180 H 13.0259 -1.7737 -2.7424 0
M  V30 181 H 11.6849 -3.40217 -1.36557 0
M  V30 182 H 11.3329 -3.25232 -3.83709 0
M  V30 183 H 11.0329 -4.90312 -3.23834 0
M  V30 184 H 12.5569 -4.53086 -4.09323 0
M  V30 185 H 13.9709 -5.37812 -1.98573 0
M  V30 186 H 12.3679 -5.84746 -1.34878 0
M  V30 187 H 13.4379 -4.83548 -0.361868 0
M  V30 188 N 14.781 0.264519 -1.55364 0
M  V30 189 C 15.711 1.33121 -1.91836 0
M  V30 190 C 16.692 1.51101 -0.781192 0
M  V30 191 O 17.877 1.64003 -1.04003 0
M  V30 192 C 15.007 2.68921 -2.19769 0
M  V30 193 C 13.961 2.65661 -3.35571 0
M  V30 194 C 13.287 4.05093 -3.49004 0
M  V30 195 C 14.587 2.24187 -4.71739 0
M  V30 196 H 16.281 1.02844 -2.81182 0
M  V30 197 H 13.827 0.493286 -1.35287 0
M  V30 198 H 15.78 3.43663 -2.43872 0
M  V30 199 H 14.504 3.00799 -1.27231 0
M  V30 200 H 13.163 1.93377 -3.1145 0
M  V30 201 H 12.811 4.34206 -2.53917 0
M  V30 202 H 12.511 4.03804 -4.26868 0
M  V30 203 H 14.035 4.81561 -3.75408 0
M  V30 204 H 15.449 2.88654 -4.9533 0
M  V30 205 H 13.846 2.34044 -5.52579 0
M  V30 206 H 14.916 1.19327 -4.69988 0
M  V30 207 N 16.2591 1.48442 0.529413 0
M  V30 208 C 17.4841 1.60406 1.31471 0
M  V30 209 C 17.9091 0.264738 1.86228 0
M  V30 210 O 17.2671 -0.763668 1.64432 0
M  V30 211 C 17.3151 2.65419 2.44101 0
M  V30 212 O 16.4191 2.22618 3.47153 0
M  V30 213 H 15.7601 0.537863 0.389357 0
M  V30 214 H 18.2901 1.94432 0.636965 0
M  V30 215 H 18.3001 2.86709 2.90279 0
M  V30 216 H 16.9751 3.62652 2.03608 0
M  V30 217 H 15.5521 2.11543 3.0709 0
M  V30 218 N 17.7372 -0.778329 1.37039 0
M  V30 219 C 18.6472 -1.92253 1.34446 0
M  V30 220 C 19.6632 -1.72267 0.244991 0
M  V30 221 O 20.8392 -1.95615 0.479258 0
M  V30 222 C 17.9042 -3.27282 1.144 0
M  V30 223 C 16.9652 -3.59969 2.33925 0
M  V30 224 C 16.1982 -4.88555 2.14825 0
M  V30 225 O 16.4212 -5.59113 1.12912 0
M  V30 226 O 15.3552 -5.20153 3.02861 0
M  V30 227 H 19.1812 -1.97392 2.30803 0
M  V30 228 H 16.7662 -0.920154 1.17701 0
M  V30 229 H 18.6482 -4.08062 1.05182 0
M  V30 230 H 17.3232 -3.23011 0.211124 0
M  V30 231 H 16.2302 -2.7945 2.48714 0
M  V30 232 H 17.5632 -3.68976 3.25757 0
M  V30 233 N 19.2153 -1.21501 -1.00376 0
M  V30 234 C 20.6313 -0.972629 -1.26539 0
M  V30 235 C 20.8313 0.340257 -1.98606 0
M  V30 236 O 19.8873 1.06561 -2.28913 0
M  V30 237 C 21.2003 -2.16404 -2.08781 0
M  V30 238 C 22.7483 -2.20643 -2.22004 0
M  V30 239 C 23.2233 -3.39306 -3.07629 0
M  V30 240 N 24.7143 -3.39401 -3.15217 0
M  V30 241 C 25.4493 -4.27867 -3.81729 0
M  V30 242 N 24.9453 -5.26533 -4.5026 0
M  V30 243 N 26.7383 -4.15672 -3.78382 0
M  V30 244 H 18.8893 -2.05929 -0.520281 0
M  V30 245 H 21.1523 -0.901803 -0.292328 0
M  V30 246 H 20.8583 -3.11554 -1.63178 0
M  V30 247 H 20.7323 -2.15567 -3.09533 0
M  V30 248 H 23.1193 -1.26048 -2.66825 0
M  V30 249 H 23.2003 -2.25523 -1.20718 0
M  V30 250 H 22.8443 -4.34195 -2.63509 0
M  V30 251 H 22.7743 -3.31665 -4.09031 0
M  V30 252 H 25.2653 -2.67997 -2.66432 0
M  V30 253 H 25.5783 -5.90337 -4.98721 0
M  V30 254 H 23.9233 -5.30457 -4.49044 0
M  V30 255 H 27.1143 -3.3785 -3.23998 0
M  V30 256 H 27.2873 -4.84825 -4.2994 0
M  V30 257 N 20.6934 1.19889 -1.02296 0
M  V30 258 C 21.9394 1.89701 -0.717033 0
M  V30 259 C 22.2724 1.7905 0.751989 0
M  V30 260 O 21.5474 1.17891 1.547 0
M  V30 261 C 21.8304 3.40858 -1.16136 0
M  V30 262 C 21.6834 3.60411 -2.69117 0
M  V30 263 C 23.0024 4.33876 -0.737549 0
M  V30 264 H 20.1214 0.688874 -0.261957 0
M  V30 265 H 22.7634 1.41154 -1.27183 0
M  V30 266 H 20.9134 3.82335 -0.689342 0
M  V30 267 H 22.5854 3.28145 -3.2422 0
M  V30 268 H 20.8284 3.03665 -3.0979 0
M  V30 269 H 21.4994 4.66396 -2.95261 0
M  V30 270 H 23.9754 4.00081 -1.14344 0
M  V30 271 H 22.8514 5.38242 -1.0764 0
M  V30 272 H 23.1124 4.40628 0.360436 0
M  V30 273 N 22.1715 0.800033 1.35784 0
M  V30 274 C 23.1015 0.220184 2.3246 0
M  V30 275 C 24.0825 -0.65073 1.57161 0
M  V30 276 O 25.2675 -0.582359 1.85263 0
M  V30 277 C 22.3975 -0.637353 3.41402 0
M  V30 278 C 21.3515 0.134531 4.27789 0
M  V30 279 C 20.6775 -0.844285 5.27992 0
M  V30 280 C 21.9775 1.32979 5.05088 0
M  V30 281 H 23.6715 1.02787 2.81203 0
M  V30 282 H 21.2175 0.495717 1.35199 0
M  V30 283 H 23.1705 -1.05302 4.08031 0
M  V30 284 H 21.8945 -1.47785 2.91251 0
M  V30 285 H 20.5535 0.531296 3.6273 0
M  V30 286 H 20.2015 -1.68011 4.74111 0
M  V30 287 H 19.9015 -0.332184 5.8666 0
M  V30 288 H 21.4255 -1.2583 5.97494 0
M  V30 289 H 22.8395 0.98934 5.64699 0
M  V30 290 H 21.2365 1.77593 5.7322 0
M  V30 291 H 22.3065 2.11978 4.36111 0
M  V30 292 N 23.6496 -1.47581 0.552962 0
M  V30 293 C 24.5796 -2.32762 -0.185451 0
M  V30 294 C 25.5606 -1.43527 -0.912905 0
M  V30 295 O 26.7456 -1.72388 -0.894201 0
M  V30 296 C 23.8756 -3.25219 -1.21859 0
M  V30 297 C 22.8296 -4.23661 -0.607864 0
M  V30 298 C 22.1556 -5.05413 -1.74533 0
M  V30 299 C 23.4556 -5.20481 0.435582 0
M  V30 300 H 25.1496 -2.94749 0.525684 0
M  V30 301 H 22.6956 -1.41738 0.254251 0
M  V30 302 H 24.6486 -3.8365 -1.7433 0
M  V30 303 H 23.3726 -2.61279 -1.95961 0
M  V30 304 H 22.0316 -3.66451 -0.104489 0
M  V30 305 H 21.6796 -4.3788 -2.47529 0
M  V30 306 H 21.3796 -5.72059 -1.34249 0
M  V30 307 H 22.9036 -5.66701 -2.27338 0
M  V30 308 H 24.3176 -5.733 -0.00290157 0
M  V30 309 H 22.7146 -5.95305 0.757067 0
M  V30 310 H 23.7846 -4.66217 1.33303 0
M  V30 311 N 25.1277 -0.289203 -1.54924 0
M  V30 312 C 26.0577 0.58549 -2.2604 0
M  V30 313 C 27.0387 1.14753 -1.25562 0
M  V30 314 O 28.2237 1.17906 -1.54311 0
M  V30 315 C 25.3537 1.76305 -2.99222 0
M  V30 316 C 24.3077 1.33191 -4.06748 0
M  V30 317 C 23.6337 2.5937 -4.6758 0
M  V30 318 C 24.9337 0.471775 -5.20165 0
M  V30 319 H 26.6277 -0.00763532 -2.99399 0
M  V30 320 H 24.1737 -0.00511229 -1.43999 0
M  V30 321 H 26.1267 2.38097 -3.47689 0
M  V30 322 H 24.8507 2.38223 -2.23422 0
M  V30 323 H 23.5097 0.737121 -3.59113 0
M  V30 324 H 23.1577 3.19576 -3.88433 0
M  V30 325 H 22.8577 2.31228 -5.40192 0
M  V30 326 H 24.3817 3.21985 -5.18804 0
M  V30 327 H 25.7957 0.995056 -5.64599 0
M  V30 328 H 24.1927 0.284639 -5.99425 0
M  V30 329 H 25.2627 -0.506041 -4.82252 0
M  V30 330 N 26.6058 1.57591 -0.0167156 0
M  V30 331 C 27.8828 1.82547 0.702564 0
M  V30 332 C 28.2628 0.898018 1.91047 0
M  V30 333 O 27.6108 -0.0493456 2.28447 0
M  V30 334 C 27.8208 3.31459 1.09251 0
M  V30 335 C 29.1688 3.97622 1.48937 0
M  V30 336 O 30.1928 3.35881 1.18584 0
M  V30 337 O 29.0518 5.06415 2.05442 0
M  V30 338 H 26.1458 0.752268 0.343544 0
M  V30 339 H 28.6918 1.69644 -0.0434495 0
M  V30 340 H 27.4638 3.9061 0.23227 0
M  V30 341 H 27.0868 3.49422 1.89709 0
M  V30 342 N 28.0839 -0.256276 1.55502 0
M  V30 343 C 29.3319 -0.983672 1.76545 0
M  V30 344 C 29.6529 -1.86206 0.578982 0
M  V30 345 O 28.9229 -1.91656 -0.405577 0
M  V30 346 H 27.5029 -0.366191 0.651086 0
M  V30 347 H 30.1649 -0.276479 1.92929 0
M  V30 348 H 29.2609 -1.61087 2.67315 0
M  V30 349 N 29.562 -1.4872 -0.521534 0
M  V30 350 C 30.525 -1.63379 -1.60748 0
M  V30 351 C 31.525 -0.50661 -1.52611 0
M  V30 352 O 32.715 -0.772601 -1.5613 0
M  V30 353 C 29.847 -1.61192 -3.00383 0
M  V30 354 H 31.04 -2.60217 -1.49087 0
M  V30 355 H 28.593 -1.37444 -0.744235 0
M  V30 356 H 29.328 -0.65863 -3.17541 0
M  V30 357 H 29.113 -2.43032 -3.07698 0
M  V30 358 H 30.603 -1.7466 -3.7932 0
M  V30 359 N 31.0401 0.771051 -1.3745 0
M  V30 360 C 32.2701 1.55789 -1.35696 0
M  V30 361 C 32.6781 1.89107 0.0594523 0
M  V30 362 O 32.0211 1.51984 1.03183 0
M  V30 363 C 32.0831 2.89515 -2.13123 0
M  V30 364 C 31.7471 2.78829 -3.62082 0
M  V30 365 C 32.7441 2.49812 -4.5595 0
M  V30 366 C 30.4291 2.9683 -4.05213 0
M  V30 367 C 32.4231 2.38923 -5.90927 0
M  V30 368 C 30.1101 2.85562 -5.40276 0
M  V30 369 C 31.1081 2.56649 -6.32946 0
M  V30 370 O 30.7961 2.45408 -7.65526 0
M  V30 371 H 30.5281 0.489257 -0.466481 0
M  V30 372 H 33.0821 0.963446 -1.81403 0
M  V30 373 H 31.3121 3.51081 -1.62107 0
M  V30 374 H 33.0011 3.50915 -2.03994 0
M  V30 375 H 33.7671 2.3559 -4.23937 0
M  V30 376 H 29.6461 3.18335 -3.33442 0
M  V30 377 H 33.1901 2.16277 -6.63227 0
M  V30 378 H 29.0871 2.99351 -5.71891 0
M  V30 379 H 29.8551 2.60753 -7.75855 0
M  V30 380 N 32.5182 1.22032 0.997298 0
M  V30 381 C 33.7662 1.04016 1.73278 0
M  V30 382 C 34.0872 -0.426255 1.90284 0
M  V30 383 O 33.3572 -1.30694 1.45931 0
M  V30 384 H 31.9372 0.381897 0.642 0
M  V30 385 H 34.5992 1.5347 1.20137 0
M  V30 386 H 33.6952 1.51441 2.72896 0
M  V30 387 N 33.9963 -1.19345 1.0293 0
M  V30 388 C 35.2243 -1.92997 0.745644 0
M  V30 389 C 35.6393 -1.75519 -0.695589 0
M  V30 390 O 34.9963 -1.07737 -1.47306 0
M  V30 391 C 35.0473 -3.44741 1.08792 0
M  V30 392 O 34.7683 -3.61658 2.47256 0
M  V30 393 C 36.2693 -4.35515 0.827129 0
M  V30 394 H 33.4893 -0.613042 0.272801 0
M  V30 395 H 36.0333 -1.51473 1.3739 0
M  V30 396 H 34.1883 -3.84097 0.504832 0
M  V30 397 H 34.6023 -4.55514 2.60015 0
M  V30 398 H 36.0763 -5.40589 1.11658 0
M  V30 399 H 36.5533 -4.38552 -0.238436 0
M  V30 400 H 37.1593 -4.01841 1.39297 0
M  V30 401 N 35.4744 -0.807222 -1.35358 0
M  V30 402 C 36.3844 -0.219594 -2.3357 0
M  V30 403 C 37.4004 0.637734 -1.61892 0
M  V30 404 O 38.5764 0.549336 -1.93763 0
M  V30 405 C 35.6414 0.62158 -3.41083 0
M  V30 406 C 34.7024 -0.256315 -4.28534 0
M  V30 407 C 33.9354 0.544807 -5.30912 0
M  V30 408 O 34.1584 1.77944 -5.41934 0
M  V30 409 O 33.0924 -0.0646478 -6.01865 0
M  V30 410 H 36.9184 -1.03208 -2.85625 0
M  V30 411 H 34.5034 -0.569025 -1.38139 0
M  V30 412 H 36.3854 1.10067 -4.06772 0
M  V30 413 H 35.0604 1.41165 -2.91297 0
M  V30 414 H 33.9674 -0.782559 -3.65823 0
M  V30 415 H 35.3004 -1.01034 -4.81719 0
M  V30 416 N 36.9525 1.47285 -0.560781 0
M  V30 417 C 38.1995 2.02464 -0.038062 0
M  V30 418 C 38.5275 1.43474 1.31322 0
M  V30 419 O 37.7825 0.581311 1.86867 0
M  V30 420 C 38.0815 3.57258 0.100784 0
M  V30 421 C 37.7475 4.35184 -1.18007 0
M  V30 422 C 36.4095 4.56194 -1.53103 0
M  V30 423 C 38.7615 4.80098 -2.02867 0
M  V30 424 C 36.0895 5.19367 -2.729 0
M  V30 425 C 38.4415 5.44593 -3.21871 0
M  V30 426 C 37.1055 5.63835 -3.57276 0
M  V30 427 H 36.3755 0.740869 -0.0139279 0
M  V30 428 H 39.0225 1.76916 -0.733012 0
M  V30 429 H 37.3275 3.81819 0.878724 0
M  V30 430 H 39.0245 3.97606 0.520639 0
M  V30 431 H 35.6145 4.19113 -0.8968 0
M  V30 432 H 39.7985 4.63642 -1.7706 0
M  V30 433 H 35.0545 5.32459 -3.00496 0
M  V30 434 H 39.2285 5.78358 -3.87911 0
M  V30 435 H 36.8555 6.12557 -4.50197 0
M  V30 436 N 38.4306 0.297415 1.54768 0
M  V30 437 C 39.3636 -0.622188 2.19554 0
M  V30 438 C 40.3416 -1.13558 1.16376 0
M  V30 439 O 41.5256 -1.20444 1.45002 0
M  V30 440 C 38.6526 -1.8509 2.83653 0
M  V30 441 C 37.6986 -1.47106 4.00328 0
M  V30 442 S 38.5316 -0.53006 5.3287 0
M  V30 443 C 39.6876 -1.76665 6.0045 0
M  V30 444 H 39.9206 -0.0717806 2.97213 0
M  V30 445 H 37.4536 0.0815678 1.54184 0
M  V30 446 H 39.4116 -2.55605 3.21211 0
M  V30 447 H 38.0726 -2.37247 2.05846 0
M  V30 448 H 37.2656 -2.38594 4.43947 0
M  V30 449 H 36.8676 -0.845885 3.64309 0
M  V30 450 H 39.1596 -2.7077 6.21039 0
M  V30 451 H 40.1026 -1.37308 6.9466 0
M  V30 452 H 40.5106 -1.94174 5.30054 0
M  V30 453 N 39.9087 -1.5758 0.0250728 0
M  V30 454 C 40.8557 -2.09973 -0.958129 0
M  V30 455 C 41.8257 -1.00085 -1.3256 0
M  V30 456 O 43.0107 -1.27481 -1.41962 0
M  V30 457 C 40.1507 -2.62812 -2.2366 0
M  V30 458 C 39.2637 -3.86693 -1.92594 0
M  V30 459 C 38.3987 -4.27941 -3.14707 0
M  V30 460 C 37.4377 -5.44591 -2.79442 0
M  V30 461 N 36.5747 -5.81014 -3.94167 0
M  V30 462 H 41.4147 -2.937 -0.504428 0
M  V30 463 H 38.9517 -1.45172 -0.237392 0
M  V30 464 H 40.9097 -2.91536 -2.98434 0
M  V30 465 H 39.5397 -1.81922 -2.66654 0
M  V30 466 H 38.5917 -3.64723 -1.0808 0
M  V30 467 H 39.9037 -4.71547 -1.62619 0
M  V30 468 H 39.0577 -4.58079 -3.97804 0
M  V30 469 H 37.7967 -3.41845 -3.4784 0
M  V30 470 H 36.8017 -5.1415 -1.94755 0
M  V30 471 H 38.0267 -6.32382 -2.47528 0
M  V30 472 H 35.9727 -4.97874 -4.2715 0
M  V30 473 H 35.8897 -6.60498 -3.67801 0
M  V30 474 H 37.1577 -6.15756 -4.7798 0
M  V30 475 N 41.3868 0.248026 -1.55636 0
M  V30 476 C 42.6168 0.992367 -1.81206 0
M  V30 477 C 43.0248 1.7949 -0.598324 0
M  V30 478 O 42.3678 1.78292 0.442434 0
M  V30 479 C 42.4298 1.97926 -3.00109 0
M  V30 480 C 42.0938 1.36377 -4.36177 0
M  V30 481 C 43.0908 0.76682 -5.14214 0
M  V30 482 C 40.7758 1.38347 -4.82872 0
M  V30 483 C 42.7698 0.197778 -6.37093 0
M  V30 484 C 40.4568 0.810574 -6.057 0
M  V30 485 C 41.4548 0.218754 -6.8265 0
M  V30 486 O 41.1428 -0.345298 -8.03158 0
M  V30 487 H 40.8748 0.297704 -0.606917 0
M  V30 488 H 43.4288 0.276517 -2.0353 0
M  V30 489 H 41.6588 2.73339 -2.73538 0
M  V30 490 H 43.3478 2.58694 -3.12781 0
M  V30 491 H 44.1138 0.744114 -4.79258 0
M  V30 492 H 39.9928 1.8335 -4.2297 0
M  V30 493 H 43.5368 -0.264788 -6.97097 0
M  V30 494 H 39.4338 0.830604 -6.40134 0
M  V30 495 H 40.2018 -0.237055 -8.18157 0
M  V30 496 N 42.8649 1.48995 0.513639 0
M  V30 497 C 44.1129 1.57531 1.26604 0
M  V30 498 C 44.4339 0.258236 1.93283 0
M  V30 499 O 43.7039 -0.721502 1.8213 0
M  V30 500 H 42.2839 0.580387 0.470276 0
M  V30 501 H 44.9459 1.85552 0.596373 0
M  V30 502 H 44.0419 2.36486 2.03669 0
M  V30 503 N 44.343 -0.763751 1.37857 0
M  V30 504 C 45.573 -1.55067 1.3652 0
M  V30 505 C 45.981 -1.89135 -0.0494227 0
M  V30 506 O 45.324 -1.52529 -1.02375 0
M  V30 507 C 45.386 -2.8838 2.14656 0
M  V30 508 C 45.05 -2.76905 3.63555 0
M  V30 509 C 46.047 -2.4739 4.57268 0
M  V30 510 C 43.732 -2.94676 4.06781 0
M  V30 511 C 45.726 -2.35786 5.92186 0
M  V30 512 C 43.413 -2.82692 5.41782 0
M  V30 513 C 44.411 -2.53289 6.34298 0
M  V30 514 O 44.099 -2.41345 7.66817 0
M  V30 515 H 43.831 -0.486776 0.469069 0
M  V30 516 H 46.385 -0.953812 1.81911 0
M  V30 517 H 44.615 -3.50217 1.63967 0
M  V30 518 H 46.304 -3.49828 2.05852 0
M  V30 519 H 47.07 -2.33339 4.2518 0
M  V30 520 H 42.949 -3.16563 3.35126 0
M  V30 521 H 46.493 -2.12757 6.64365 0
M  V30 522 H 42.39 -2.96314 5.7347 0
M  V30 523 H 43.158 -2.56634 7.77226 0
M  V30 524 N 45.8211 -1.22559 -0.990812 0
M  V30 525 C 47.0981 -0.959875 -1.70428 0
M  V30 526 C 47.4781 0.524455 -2.04481 0
M  V30 527 O 46.8261 1.49302 -1.72977 0
M  V30 528 C 47.0361 -1.85955 -2.95333 0
M  V30 529 C 48.3841 -2.11687 -3.68068 0
M  V30 530 O 49.4081 -1.8342 -3.05345 0
M  V30 531 O 48.2671 -2.59572 -4.80921 0
M  V30 532 H 45.3611 -0.361154 -0.743974 0
M  V30 533 H 47.9071 -1.33554 -1.04697 0
M  V30 534 H 46.6791 -2.86346 -2.66687 0
M  V30 535 H 46.3021 -1.4856 -3.68803 0
M  V30 536 N 47.2992 1.18797 -1.03562 0
M  V30 537 C 48.5762 1.84469 -0.650434 0
M  V30 538 C 48.9562 1.92319 0.870433 0
M  V30 539 O 48.3042 1.44528 1.76986 0
M  V30 540 C 48.5142 3.2306 -1.32036 0
M  V30 541 C 49.8622 3.9915 -1.44792 0
M  V30 542 O 50.8862 3.32481 -1.27806 0
M  V30 543 O 49.7452 5.18587 -1.72423 0
M  V30 544 H 46.8392 0.795251 -0.226946 0
M  V30 545 H 49.3852 1.26231 -1.13419 0
M  V30 546 H 48.1572 3.1222 -2.3587 0
M  V30 547 H 47.7802 3.88949 -0.8249 0
M  V30 548 N 48.7773 0.814389 1.34928 0
M  V30 549 C 49.7073 0.244827 2.32213 0
M  V30 550 C 50.6883 -0.634024 1.57842 0
M  V30 551 O 51.8733 -0.562676 1.8587 0
M  V30 552 C 49.0033 -0.601106 3.42058 0
M  V30 553 C 47.9573 0.179896 4.27622 0
M  V30 554 C 47.2833 -0.788237 5.28858 0
M  V30 555 C 48.5833 1.38329 5.03649 0
M  V30 556 H 50.2773 1.05763 2.80097 0
M  V30 557 H 47.8233 0.510029 1.34665 0
M  V30 558 H 49.7763 -1.00968 4.09125 0
M  V30 559 H 48.5003 -1.44688 2.92802 0
M  V30 560 H 47.1593 0.569739 3.62146 0
M  V30 561 H 46.8073 -1.62973 4.75866 0
M  V30 562 H 46.5073 -0.269942 5.8698 0
M  V30 563 H 48.0313 -1.19485 5.98795 0
M  V30 564 H 49.4453 1.04918 5.63618 0
M  V30 565 H 47.8423 1.83662 5.71304 0
M  V30 566 H 48.9123 2.16592 4.33839 0
M  V30 567 N 50.2554 -1.46986 0.568584 0
M  V30 568 C 51.6664 -1.86188 0.138219 0
M  V30 569 C 52.0174 -1.47388 -1.29504 0
M  V30 570 O 51.1424 -0.88219 -1.97602 0
M  V30 571 C 51.7374 -3.3792 0.244065 0
M  V30 572 C 50.2964 -3.76171 -0.131335 0
M  V30 573 C 49.4434 -2.71027 0.586465 0
M  V30 574 H 52.3944 -1.38342 0.777645 0
M  V30 575 H 52.4154 -3.76729 -0.534351 0
M  V30 576 H 51.9274 -3.66128 1.28731 0
M  V30 577 H 50.0284 -3.5358 -1.17526 0
M  V30 578 H 50.1414 -4.78523 0.235146 0
M  V30 579 H 48.5054 -2.54684 0.0282722 0
M  V30 580 H 49.2884 -3.02077 1.63109 0
M  V30 581 N 51.7335 -0.305618 -1.54608 0
M  V30 582 C 52.6435 0.57778 -2.27374 0
M  V30 583 C 53.6595 1.14451 -1.31061 0
M  V30 584 O 54.8355 1.16831 -1.6405 0
M  V30 585 C 51.9005 1.73123 -3.00382 0
M  V30 586 C 50.9615 1.19812 -4.12242 0
M  V30 587 C 50.1945 2.2966 -4.81759 0
M  V30 588 O 50.4175 3.49651 -4.50666 0
M  V30 589 O 49.3515 1.96091 -5.69062 0
M  V30 590 H 53.1775 -0.012624 -3.03697 0
M  V30 591 H 50.7625 -0.0719184 -1.49227 0
M  V30 592 H 52.6445 2.40315 -3.4616 0
M  V30 593 H 51.3195 2.30815 -2.26949 0
M  V30 594 H 50.2265 0.491798 -3.70853 0
M  V30 595 H 51.5595 0.666566 -4.87666 0
M  V30 596 N 53.2116 1.57565 -0.0334293 0
M  V30 597 C 54.1216 2.13943 0.962572 0
M  V30 598 C 55.1376 1.09276 1.35406 0
M  V30 599 O 56.3136 1.41355 1.4346 0
M  V30 600 C 53.3786 2.65887 2.22497 0
M  V30 601 C 52.4396 3.85286 1.8935 0
M  V30 602 C 51.6726 4.34743 3.09571 0
M  V30 603 O 51.8956 3.83352 4.22371 0
M  V30 604 O 50.8296 5.26538 2.91618 0
M  V30 605 H 54.6556 2.99333 0.513169 0
M  V30 606 H 52.2406 1.4822 0.18743 0
M  V30 607 H 54.1226 2.99346 2.96598 0
M  V30 608 H 52.7976 1.83578 2.6661 0
M  V30 609 H 51.7046 3.56746 1.1262 0
M  V30 610 H 53.0376 4.68771 1.5005 0
M  V30 611 N 54.6897 -0.239769 1.55765 0
M  V30 612 C 55.6197 -1.30052 1.9393 0
M  V30 613 C 56.6007 -1.49839 0.805132 0
M  V30 614 O 57.7857 -1.62328 1.06599 0
M  V30 615 C 54.9157 -2.65391 2.2402 0
M  V30 616 C 53.8697 -2.60289 3.39755 0
M  V30 617 C 53.1957 -3.99489 3.55405 0
M  V30 618 C 54.4957 -2.16654 4.75246 0
M  V30 619 H 56.1897 -0.983573 2.82783 0
M  V30 620 H 53.7357 -0.471701 1.36055 0
M  V30 621 H 55.6887 -3.3974 2.49308 0
M  V30 622 H 54.4127 -2.98736 1.32 0
M  V30 623 H 53.0717 -1.88398 3.14487 0
M  V30 624 H 52.7197 -4.30112 2.60793 0
M  V30 625 H 52.4197 -3.96962 4.33238 0
M  V30 626 H 53.9437 -4.75528 3.83022 0
M  V30 627 H 55.3577 -2.80737 4.99859 0
M  V30 628 H 53.7547 -2.25223 5.56232 0
M  V30 629 H 54.8247 -1.11835 4.71827 0
M  V30 630 N 56.1678 -1.49265 -0.50573 0
M  V30 631 C 57.1158 -1.66065 -1.62866 0
M  V30 632 C 58.1098 -0.526636 -1.61006 0
M  V30 633 O 59.3158 -0.706126 -1.65571 0
M  V30 634 H 55.6908 -0.52356 -0.539805 0
M  V30 635 H 57.6618 -2.60329 -1.45848 0
M  V30 636 C 56.4108 -1.74008 -3.01026 0
M  V30 637 H 55.7338 -2.6064 -3.03161 0
M  V30 638 H 57.1738 -1.89798 -3.79147 0
M  V30 639 C 55.6328 -0.483868 -3.33407 0
M  V30 640 O 56.1628 0.392548 -3.99777 0
M  V30 641 N 54.3688 -0.348236 -2.88506 0
M  V30 642 H 53.9158 -1.06242 -2.34671 0
M  V30 643 H 53.8738 0.491204 -3.10539 0
M  V30 644 N 57.6459 0.756429 -1.3826 0
M  V30 645 C 58.8949 1.51082 -1.3363 0
M  V30 646 C 59.2079 1.95467 0.0720068 0
M  V30 647 O 60.4139 2.7043 0.240834 0
M  V30 648 C 58.8699 2.72893 -2.34644 0
M  V30 649 C 58.4779 2.35544 -3.81081 0
M  V30 650 C 60.2219 3.50791 -2.39052 0
M  V30 651 C 58.1289 3.53948 -4.73787 0
M  V30 652 H 57.0589 0.56727 -0.49671 0
M  V30 653 H 59.7099 0.827147 -1.638 0
M  V30 654 H 58.0919 3.43227 -1.97513 0
M  V30 655 H 59.2659 1.72894 -4.27135 0
M  V30 656 H 57.5809 1.70786 -3.79764 0
M  V30 657 H 60.1779 4.38823 -3.05513 0
M  V30 658 H 60.5209 3.91745 -1.40861 0
M  V30 659 H 61.0539 2.87467 -2.74968 0
M  V30 660 H 57.7929 3.18064 -5.73163 0
M  V30 661 H 57.3129 4.15651 -4.32428 0
M  V30 662 H 58.9919 4.20566 -4.91663 0
M  V30 663 N 59.124 1.23083 0.984299 0
M  V30 664 C 60.071 1.00854 2.07598 0
M  V30 665 C 61.041 -0.0726709 1.65941 0
M  V30 666 O 62.226 0.0786535 1.90638 0
M  V30 667 C 59.366 0.601645 3.39815 0
M  V30 668 C 58.479 1.75456 3.94765 0
M  V30 669 C 57.614 1.29482 5.15177 0
M  V30 670 C 56.653 2.41873 5.62284 0
M  V30 671 N 55.79 1.96885 6.73929 0
M  V30 672 H 60.63 1.943 2.25946 0
M  V30 673 H 58.167 0.968001 1.10762 0
M  V30 674 H 60.125 0.346854 4.15756 0
M  V30 675 H 58.755 -0.295803 3.21442 0
M  V30 676 H 57.807 2.12346 3.15616 0
M  V30 677 H 59.119 2.59965 4.25699 0
M  V30 678 H 58.273 0.997923 5.98437 0
M  V30 679 H 57.012 0.420046 4.85888 0
M  V30 680 H 56.017 2.72342 4.77608 0
M  V30 681 H 57.242 3.29881 5.93595 0
M  V30 682 H 55.188 1.11782 6.46406 0
M  V30 683 H 55.105 2.74956 7.04227 0
M  V30 684 H 56.373 1.70289 7.60672 0
M  V30 685 N 60.6021 -1.18246 1.0419 0
M  V30 686 C 61.5651 -2.20128 0.638452 0
M  V30 687 C 62.5651 -1.57885 -0.304805 0
M  V30 688 O 63.7551 -1.73967 -0.0900369 0
M  V30 689 C 60.8871 -3.4084 -0.0637751 0
M  V30 690 H 62.0801 -2.57336 1.54007 0
M  V30 691 H 59.6331 -1.32152 0.834598 0
M  V30 692 H 60.3681 -3.09166 -0.979136 0
M  V30 693 H 60.1531 -3.8726 0.614198 0
M  V30 694 H 61.6431 -4.16274 -0.332512 0
M  V30 695 N 62.0802 -0.821533 -1.34494 0
M  V30 696 C 63.4912 -0.467956 -1.8074 0
M  V30 697 C 63.8422 1.01151 -1.68116 0
M  V30 698 O 62.9672 1.78707 -1.22036 0
M  V30 699 C 63.5622 -0.842627 -3.28154 0
M  V30 700 C 62.1212 -0.541439 -3.72485 0
M  V30 701 C 61.2682 -1.06028 -2.56229 0
M  V30 702 H 64.2192 -1.01183 -1.22261 0
M  V30 703 H 64.2402 -0.145876 -3.8022 0
M  V30 704 H 63.7522 -1.91945 -3.37311 0
M  V30 705 H 61.8532 0.526034 -3.68868 0
M  V30 706 H 61.9662 -1.08453 -4.66663 0
M  V30 707 H 60.3302 -0.481892 -2.501 0
M  V30 708 H 61.1132 -2.14352 -2.68157 0
M  V30 709 N 63.5583 1.46682 -0.576371 0
M  V30 710 C 64.8353 1.95599 0.00703437 0
M  V30 711 C 65.2153 1.51904 1.46589 0
M  V30 712 O 64.5633 0.766755 2.15251 0
M  V30 713 C 64.7733 3.4864 -0.158404 0
M  V30 714 C 66.1213 4.24594 -0.0229439 0
M  V30 715 O 67.1453 3.56094 -0.0869173 0
M  V30 716 O 66.0043 5.46373 0.118015 0
M  V30 717 H 63.0983 0.825275 0.053384 0
M  V30 718 H 65.6443 1.56996 -0.644244 0
M  V30 719 H 64.4163 3.7331 -1.17282 0
M  V30 720 H 64.0393 3.94057 0.5296 0
M  V30 721 N 65.0364 0.313813 1.54444 0
M  V30 722 C 66.2824 -0.292108 2.00685 0
M  V30 723 C 66.6154 -1.52548 1.20177 0
M  V30 724 O 65.8904 -1.92452 0.281531 0
M  V30 725 C 66.1734 -0.635968 3.5444 0
M  V30 726 C 66.0264 0.607437 4.4568 0
M  V30 727 C 67.3454 -1.45747 4.15266 0
M  V30 728 H 64.4644 -0.104697 0.729526 0
M  V30 729 H 67.1064 0.428457 1.85106 0
M  V30 730 H 65.2564 -1.24986 3.67846 0
M  V30 731 H 66.9284 1.24581 4.44159 0
M  V30 732 H 65.1714 1.23822 4.15753 0
M  V30 733 H 65.8424 0.322515 5.51057 0
M  V30 734 H 68.3184 -0.938645 4.05375 0
M  V30 735 H 67.1944 -1.66683 5.2298 0
M  V30 736 H 67.4554 -2.45063 3.67963 0
M  V30 737 N 66.5145 -1.57545 0.0417849 0
M  V30 738 C 67.7605 -1.92601 -0.635021 0
M  V30 739 C 68.0935 -0.919627 -1.71045 0
M  V30 740 O 67.3685 0.0557892 -1.9442 0
M  V30 741 C 67.6515 -3.38085 -1.23979 0
M  V30 742 C 67.5045 -4.49467 -0.173057 0
M  V30 743 C 68.8235 -3.83776 -2.15416 0
M  V30 744 H 65.9425 -0.700397 -0.229374 0
M  V30 745 H 68.5845 -1.89728 0.101633 0
M  V30 746 H 66.7345 -3.40664 -1.86762 0
M  V30 747 H 68.4065 -4.59018 0.458312 0
M  V30 748 H 66.6495 -4.30909 0.499996 0
M  V30 749 H 67.3205 -5.48323 -0.636054 0
M  V30 750 H 69.7965 -3.83013 -1.62605 0
M  V30 751 H 68.6725 -4.8624 -2.54679 0
M  V30 752 H 68.9335 -3.19998 -3.05047 0
M  V30 753 N 67.9926 0.231505 -1.5589 0
M  V30 754 C 68.9226 1.29022 -1.94617 0
M  V30 755 C 69.9036 1.4941 -0.813067 0
M  V30 756 O 71.0886 1.6176 -1.07459 0
M  V30 757 C 68.2186 2.64199 -2.25424 0
M  V30 758 C 67.1726 2.58484 -3.41131 0
M  V30 759 C 66.4986 3.97599 -3.57518 0
M  V30 760 C 67.7986 2.1413 -4.76388 0
M  V30 761 H 69.4926 0.968563 -2.83301 0
M  V30 762 H 67.0386 0.464479 -1.36303 0
M  V30 763 H 68.9916 3.38413 -2.51107 0
M  V30 764 H 67.7156 2.98032 -1.33583 0
M  V30 765 H 66.3746 1.86727 -3.15481 0
M  V30 766 H 66.0226 4.28723 -2.6307 0
M  V30 767 H 65.7226 3.94659 -4.35337 0
M  V30 768 H 67.2466 4.7349 -3.85538 0
M  V30 769 H 68.6606 2.78083 -5.01341 0
M  V30 770 H 67.0576 2.2227 -5.57419 0
M  V30 771 H 68.1276 1.09331 -4.72414 0
M  V30 772 N 69.4707 1.49531 0.497807 0
M  V30 773 C 70.4177 1.66436 1.59899 0
M  V30 774 C 71.3877 0.505793 1.58212 0
M  V30 775 O 72.5727 0.733202 1.7615 0
M  V30 776 C 69.7127 1.7399 2.98029 0
M  V30 777 C 68.8257 3.01172 3.09708 0
M  V30 778 C 67.9607 2.99686 4.38591 0
M  V30 779 C 66.9997 4.21434 4.43914 0
M  V30 780 N 66.1367 4.1784 5.64229 0
M  V30 781 H 70.9767 2.60459 1.44793 0
M  V30 782 H 68.5137 1.29137 0.704423 0
M  V30 783 H 70.4717 1.76352 3.78095 0
M  V30 784 H 69.1017 0.834301 3.11832 0
M  V30 785 H 68.1537 3.08408 2.22685 0
M  V30 786 H 69.4657 3.91165 3.09502 0
M  V30 787 H 68.6197 3.00628 5.2698 0
M  V30 788 H 67.3587 2.07477 4.41367 0
M  V30 789 H 66.3637 4.20733 3.53926 0
M  V30 790 H 67.5887 5.14839 4.42851 0
M  V30 791 H 65.5347 3.28469 5.67841 0
M  V30 792 H 65.4517 5.01571 5.65652 0
M  V30 793 H 66.7197 4.22889 6.54817 0
M  V30 794 N 70.9488 -0.749086 1.3866 0
M  V30 795 C 72.1948 -1.51056 1.35314 0
M  V30 796 C 72.5278 -1.94121 -0.0553751 0
M  V30 797 O 71.8028 -1.65763 -1.01749 0
M  V30 798 C 72.0858 -2.76003 2.31288 0
M  V30 799 C 71.9388 -2.39047 3.8102 0
M  V30 800 C 73.2578 -3.78046 2.2532 0
M  V30 801 H 70.3768 -0.547972 0.492844 0
M  V30 802 H 73.0188 -0.857628 1.69543 0
M  V30 803 H 71.1688 -3.31716 2.02229 0
M  V30 804 H 72.8408 -1.89074 4.20771 0
M  V30 805 H 71.0838 -1.71449 3.98482 0
M  V30 806 H 71.7548 -3.28462 4.4364 0
M  V30 807 H 74.2308 -3.31884 2.50983 0
M  V30 808 H 73.1068 -4.63159 2.94576 0
M  V30 809 H 73.3678 -4.23957 1.25352 0
M  V30 810 N 72.4269 -1.23603 -0.977757 0
M  V30 811 C 73.3769 -0.986664 -2.05545 0
M  V30 812 C 74.3609 0.0683009 -1.60755 0
M  V30 813 O 75.5529 -0.144162 -1.76412 0
M  V30 814 C 72.6819 -0.582623 -3.3832 0
M  V30 815 C 71.7679 -1.67313 -3.89701 0
M  V30 816 N 72.1589 -2.90394 -4.14132 0
M  V30 817 C 70.4569 -1.54832 -4.18262 0
M  V30 818 C 71.1579 -3.61017 -4.56116 0
M  V30 819 N 70.1339 -2.8854 -4.60701 0
M  V30 820 H 73.9359 -1.92139 -2.22396 0
M  V30 821 H 71.4499 -1.1358 -1.16074 0
M  V30 822 H 73.4469 -0.38524 -4.15116 0
M  V30 823 H 72.1069 0.34503 -3.22862 0
M  V30 824 H 73.1179 -3.26673 -4.01877 0
M  V30 825 H 69.7949 -0.687969 -4.11793 0
M  V30 826 H 71.1849 -4.66544 -4.83514 0
M  V30 827 N 73.905 1.17692 -1.04816 0
M  V30 828 C 75.321 1.39863 -0.768794 0
M  V30 829 C 75.521 1.91118 0.638451 0
M  V30 830 O 74.577 2.10036 1.40146 0
M  V30 831 C 75.89 2.39274 -1.82122 0
M  V30 832 C 77.438 2.52987 -1.843 0
M  V30 833 C 77.913 3.55669 -2.88555 0
M  V30 834 N 79.404 3.63183 -2.87493 0
M  V30 835 C 80.139 4.42381 -3.64811 0
M  V30 836 N 79.635 5.25125 -4.51903 0
M  V30 837 N 81.428 4.37217 -3.53267 0
M  V30 838 H 73.579 0.82752 -1.95617 0
M  V30 839 H 75.842 0.426123 -0.846831 0
M  V30 840 H 75.548 2.08678 -2.83102 0
M  V30 841 H 75.422 3.38725 -1.65967 0
M  V30 842 H 77.809 2.82896 -0.839869 0
M  V30 843 H 77.89 1.53623 -2.04532 0
M  V30 844 H 77.534 3.26499 -3.89051 0
M  V30 845 H 77.464 4.54728 -2.65575 0
M  V30 846 H 79.955 3.04103 -2.24343 0
M  V30 847 H 80.268 5.82728 -5.07591 0
M  V30 848 H 78.613 5.24519 -4.55966 0
M  V30 849 H 81.804 3.71626 -2.84625 0
M  V30 850 H 81.977 4.98696 -4.13771 0
M  V30 851 N 75.3831 0.828654 1.34056 0
M  V30 852 C 76.6081 0.431637 2.02859 0
M  V30 853 C 77.0331 -0.956339 1.61975 0
M  V30 854 O 76.3911 -1.62338 0.807228 0
M  V30 855 C 76.4391 0.548323 3.56407 0
M  V30 856 O 75.5431 -0.429556 4.10157 0
M  V30 857 H 74.8841 0.176886 0.640006 0
M  V30 858 H 77.4141 1.12066 1.71179 0
M  V30 859 H 77.4241 0.426196 4.05768 0
M  V30 860 H 76.0991 1.5606 3.8551 0
M  V30 861 H 74.6761 -0.265836 3.71951 0
M  V30 862 N 76.8612 -1.46375 0.584142 0
M  V30 863 C 78.0912 -2.06461 0.0758195 0
M  V30 864 C 78.4992 -1.43322 -1.23512 0
M  V30 865 O 77.8422 -0.533216 -1.75791 0
M  V30 866 C 77.9042 -3.59131 -0.162773 0
M  V30 867 C 77.5682 -4.4447 1.06279 0
M  V30 868 C 78.5652 -4.80918 1.97519 0
M  V30 869 C 76.2502 -4.85584 1.28504 0
M  V30 870 C 78.2442 -5.57309 3.09331 0
M  V30 871 C 75.9312 -5.61734 2.4062 0
M  V30 872 C 76.9292 -5.9751 3.30863 0
M  V30 873 O 76.6172 -6.72121 4.41032 0
M  V30 874 H 76.3492 -0.673745 0.0551725 0
M  V30 875 H 78.9032 -1.88969 0.804984 0
M  V30 876 H 77.1332 -3.74936 -0.946565 0
M  V30 877 H 78.8222 -4.0114 -0.619782 0
M  V30 878 H 79.5882 -4.49732 1.81565 0
M  V30 879 H 75.4672 -4.57187 0.591702 0
M  V30 880 H 79.0112 -5.85152 3.79793 0
M  V30 881 H 74.9082 -5.92334 2.56537 0
M  V30 882 H 75.6762 -6.90547 4.39417 0
M  V30 883 N 78.3393 -0.321999 -1.54275 0
M  V30 884 C 79.5883 0.281931 -1.9972 0
M  V30 885 C 79.9013 1.53369 -1.21397 0
M  V30 886 O 81.1073 2.21352 -1.57211 0
M  V30 887 C 79.5633 0.5529 -3.55628 0
M  V30 888 C 79.1713 -0.681721 -4.42783 0
M  V30 889 C 80.9153 1.11687 -4.09544 0
M  V30 890 C 78.8223 -0.382742 -5.9016 0
M  V30 891 H 77.7523 0.109124 -0.746062 0
M  V30 892 H 80.4033 -0.43398 -1.78294 0
M  V30 893 H 78.7853 1.32896 -3.73035 0
M  V30 894 H 79.9593 -1.45723 -4.37151 0
M  V30 895 H 78.2743 -1.1658 -3.99748 0
M  V30 896 H 80.8713 1.35515 -5.17242 0
M  V30 897 H 81.2143 2.06575 -3.61431 0
M  V30 898 H 81.7473 0.402032 -3.95763 0
M  V30 899 H 78.4863 -1.30076 -6.42464 0
M  V30 900 H 78.0063 0.355094 -5.98748 0
M  V30 901 H 79.6853 0.00800157 -6.47 0
M  V30 902 N 79.8174 1.5752 -0.0501392 0
M  V30 903 C 80.7274 2.14952 0.939827 0
M  V30 904 C 81.7434 1.10706 1.34239 0
M  V30 905 O 82.9194 1.42869 1.41952 0
M  V30 906 C 79.9844 2.68232 2.19665 0
M  V30 907 C 79.0454 3.87272 1.85253 0
M  V30 908 C 78.2784 4.38002 3.04943 0
M  V30 909 O 78.5014 3.87811 4.18281 0
M  V30 910 O 77.4354 5.29602 2.86017 0
M  V30 911 H 81.2614 2.9986 0.481392 0
M  V30 912 H 78.8464 1.4841 0.171699 0
M  V30 913 H 80.7284 3.02475 2.93406 0
M  V30 914 H 79.4034 1.86395 2.64648 0
M  V30 915 H 78.3104 3.5792 1.0883 0
M  V30 916 H 79.6434 4.70336 1.4507 0
M  V30 917 N 81.2955 -0.223234 1.56011 0
M  V30 918 C 82.5205 -0.968978 1.83373 0
M  V30 919 C 82.9455 -1.77227 0.630254 0
M  V30 920 O 82.3035 -1.76345 -0.420959 0
M  V30 921 C 82.3515 -1.86363 3.08709 0
M  V30 922 O 81.4555 -2.95873 2.87285 0
M  V30 923 H 80.7965 -0.274461 0.604622 0
M  V30 924 H 83.3265 -0.237056 2.03222 0
M  V30 925 H 83.3365 -2.27376 3.38768 0
M  V30 926 H 82.0115 -1.27319 3.95933 0
M  V30 927 H 80.5885 -2.58818 2.68454 0
M  V30 928 N 82.7736 -1.49793 -0.48987 0
M  V30 929 C 84.0216 -1.59525 -1.24081 0
M  V30 930 C 84.3426 -0.288953 -1.92847 0
M  V30 931 O 83.6126 0.692436 -1.83254 0
M  V30 932 H 82.1926 -0.587796 -0.460983 0
M  V30 933 H 84.8546 -1.86477 -0.566778 0
M  V30 934 H 83.9506 -2.39696 -1.99881 0
M  V30 935 N 84.2517 0.741722 -1.39055 0
M  V30 936 C 85.4767 1.53607 -1.39354 0
M  V30 937 C 85.9017 1.88096 0.0116905 0
M  V30 938 O 85.2597 1.5143 0.996924 0
M  V30 939 C 85.3077 2.80441 -2.26682 0
M  V30 940 O 84.4117 3.76088 -1.69208 0
M  V30 941 H 83.7527 0.464142 -0.474835 0
M  V30 942 H 86.2827 0.915665 -1.82967 0
M  V30 943 H 86.2927 3.29246 -2.40959 0
M  V30 944 H 84.9677 2.5467 -3.2881 0
M  V30 945 H 83.5447 3.34833 -1.64138 0
M  V30 946 N 85.7298 1.2412 0.971189 0
M  V30 947 C 87.0068 0.986867 1.6888 0
M  V30 948 C 87.3868 -0.491857 2.0529 0
M  V30 949 O 86.7348 -1.46531 1.75331 0
M  V30 950 C 86.9448 1.9063 2.92338 0
M  V30 951 C 88.2928 2.17515 3.64654 0
M  V30 952 O 89.3168 1.88254 3.02388 0
M  V30 953 O 88.1758 2.6719 4.7673 0
M  V30 954 H 85.2698 0.372944 0.738134 0
M  V30 955 H 87.8158 1.35203 1.02559 0
M  V30 956 H 86.5878 2.90552 2.62097 0
M  V30 957 H 86.2108 1.54408 3.66393 0
M  V30 958 N 87.2079 -1.17134 1.05439 0
M  V30 959 C 88.4539 -1.87733 0.767077 0
M  V30 960 C 88.7869 -1.8098 -0.704253 0
M  V30 961 O 88.0619 -1.21951 -1.5152 0
M  V30 962 C 88.3449 -3.37659 1.25133 0
M  V30 963 C 88.1979 -3.53149 2.78578 0
M  V30 964 C 89.5169 -4.31768 0.852324 0
M  V30 965 H 86.6359 -0.681687 0.280129 0
M  V30 966 H 89.2779 -1.37732 1.30881 0
M  V30 967 H 87.4279 -3.80373 0.790469 0
M  V30 968 H 89.0999 -3.19434 3.32806 0
M  V30 969 H 87.3429 -2.95345 3.17732 0
M  V30 970 H 88.0139 -4.58403 3.07523 0
M  V30 971 H 90.4899 -3.96909 1.24911 0
M  V30 972 H 89.3659 -5.35199 1.21873 0
M  V30 973 H 89.6269 -4.41429 -0.243485 0
M  V30 974 N 88.686 -0.835752 -1.33615 0
M  V30 975 C 89.935 -0.426289 -1.97144 0
M  V30 976 C 90.248 1.01912 -1.66953 0
M  V30 977 O 91.454 1.53311 -2.24072 0
M  V30 978 C 89.91 -0.711321 -3.52801 0
M  V30 979 C 89.518 -2.1712 -3.91871 0
M  V30 980 C 91.262 -0.368654 -4.22896 0
M  V30 981 C 89.169 -2.40044 -5.40493 0
M  V30 982 H 88.099 -0.15567 -0.737755 0
M  V30 983 H 90.75 -1.0239 -1.52278 0
M  V30 984 H 89.132 -0.0433766 -3.95976 0
M  V30 985 H 90.306 -2.87936 -3.59763 0
M  V30 986 H 88.621 -2.47654 -3.34749 0
M  V30 987 H 91.218 -0.517601 -5.32189 0
M  V30 988 H 91.561 0.688078 -4.10574 0
M  V30 989 H 92.094 -0.991702 -3.8524 0
M  V30 990 H 88.833 -3.44271 -5.57815 0
M  V30 991 H 88.353 -1.73785 -5.74072 0
M  V30 992 H 90.032 -2.23042 -6.0734 0
M  V30 993 N 90.1641 1.46063 -0.591896 0
M  V30 994 C 91.0941 2.33172 0.123673 0
M  V30 995 C 92.0751 1.45897 0.87453 0
M  V30 996 O 93.2601 1.74698 0.848181 0
M  V30 997 C 90.3901 3.28336 1.13194 0
M  V30 998 C 89.3441 4.25124 0.495324 0
M  V30 999 C 88.6701 5.09863 1.61071 0
M  V30 1000 C 89.9701 5.19143 -0.573425 0
M  V30 1001 H 91.6641 2.93252 -0.603646 0
M  V30 1002 H 89.2101 1.41014 -0.291741 0
M  V30 1003 H 91.1631 3.88137 1.64097 0
M  V30 1004 H 89.8871 2.66383 1.88965 0
M  V30 1005 H 88.5461 3.66599 0.00729452 0
M  V30 1006 H 88.1941 4.44288 2.35832 0
M  V30 1007 H 87.8941 5.75417 1.19035 0
M  V30 1008 H 89.4181 5.72529 2.12233 0
M  V30 1009 H 90.8321 5.73106 -0.1491 0
M  V30 1010 H 89.2291 5.93089 -0.914636 0
M  V30 1011 H 90.2991 4.62519 -1.45617 0
M  V30 1012 N 91.6422 0.330177 1.54103 0
M  V30 1013 C 92.8702 -0.272179 2.05102 0
M  V30 1014 C 93.2852 -1.45267 1.20595 0
M  V30 1015 O 92.6422 -1.8094 0.238144 0
M  V30 1016 C 92.6932 -0.70023 3.54653 0
M  V30 1017 O 92.4142 0.433301 4.35952 0
M  V30 1018 C 93.9152 -1.3647 4.21771 0
M  V30 1019 H 91.1352 -0.0549159 0.668749 0
M  V30 1020 H 93.6792 0.478285 1.98828 0
M  V30 1021 H 91.8342 -1.40066 3.61193 0
M  V30 1022 H 92.2482 0.0947539 5.24414 0
M  V30 1023 H 93.7222 -1.61509 5.27843 0
M  V30 1024 H 94.1992 -2.31409 3.73292 0
M  V30 1025 H 94.8052 -0.706675 4.19388 0
M  V30 1026 N 93.1203 -1.57491 0.0584922 0
M  V30 1027 C 94.0683 -2.13148 -0.931168 0
M  V30 1028 C 95.0623 -1.06507 -1.31729 0
M  V30 1029 O 96.2683 -1.24906 -1.29609 0
M  V30 1030 H 92.6433 -0.68137 -0.31818 0
M  V30 1031 H 94.6143 -2.95187 -0.436707 0
M  V30 1032 C 93.3633 -2.69732 -2.19408 0
M  V30 1033 H 92.6863 -3.51454 -1.90578 0
M  V30 1034 H 94.1263 -3.12287 -2.86798 0
M  V30 1035 C 92.5853 -1.63855 -2.94369 0
M  V30 1036 O 93.1153 -1.05565 -3.87581 0
M  V30 1037 N 91.3213 -1.35202 -2.57233 0
M  V30 1038 H 90.8683 -1.82791 -1.81508 0
M  V30 1039 H 90.8263 -0.645922 -3.07693 0
M  V30 1040 N 94.5984 0.214957 -1.56127 0
M  V30 1041 C 95.8264 0.955092 -1.83536 0
M  V30 1042 C 96.2414 1.77677 -0.638472 0
M  V30 1043 O 95.5984 1.78219 0.392968 0
M  V30 1044 C 95.6494 1.86734 -3.09536 0
M  V30 1045 O 95.3704 1.07887 -4.24608 0
M  V30 1046 C 96.8714 2.72082 -3.4998 0
M  V30 1047 H 94.0914 0.279611 -0.609966 0
M  V30 1048 H 96.6354 0.228197 -2.03223 0
M  V30 1049 H 94.7904 2.5481 -2.91806 0
M  V30 1050 H 95.2044 1.69872 -4.9623 0
M  V30 1051 H 96.6784 3.31782 -4.41163 0
M  V30 1052 H 97.1554 3.44806 -2.7204 0
M  V30 1053 H 97.7614 2.09409 -3.70173 0
M  V30 1054 N 96.0765 1.50051 0.48192 0
M  V30 1055 C 97.3235 1.60498 1.23477 0
M  V30 1056 C 97.6515 0.300331 1.92167 0
M  V30 1057 O 96.9065 -0.713094 1.82246 0
M  V30 1058 C 97.2055 2.72717 2.30998 0
M  V30 1059 C 96.8715 4.13572 1.79636 0
M  V30 1060 C 95.5335 4.519 1.65348 0
M  V30 1061 C 97.8855 5.01649 1.41412 0
M  V30 1062 C 95.2135 5.76057 1.11244 0
M  V30 1063 C 97.5655 6.26343 0.887538 0
M  V30 1064 C 96.2295 6.63483 0.731207 0
M  V30 1065 H 95.4995 0.587303 0.451836 0
M  V30 1066 H 98.1465 1.83948 0.532468 0
M  V30 1067 H 96.4515 2.43312 3.07094 0
M  V30 1068 H 98.1485 2.78006 2.88988 0
M  V30 1069 H 94.7385 3.83329 1.91721 0
M  V30 1070 H 98.9225 4.72679 1.51289 0
M  V30 1071 H 94.1785 6.03516 0.978686 0
M  V30 1072 H 98.3525 6.93958 0.582654 0
M  V30 1073 H 95.9795 7.59568 0.309806 0
M  V30 1074 N 97.5546 -0.734337 1.39446 0
M  V30 1075 C 98.8026 -1.49096 1.36436 0
M  V30 1076 C 99.1236 -1.94961 -0.0388255 0
M  V30 1077 O 98.3936 -1.69033 -0.990191 0
M  V30 1078 H 96.9736 -0.5531 0.502085 0
M  V30 1079 H 99.6356 -0.871725 1.74319 0
M  V30 1080 H 98.7316 -2.37276 2.02747 0
M  V30 1081 N 99.0327 -1.24633 -0.964593 0
M  V30 1082 C 99.9957 -1.0424 -2.04124 0
M  V30 1083 C 100.996 0.00137563 -1.608 0
M  V30 1084 O 102.186 -0.239883 -1.7254 0
M  V30 1085 C 99.3177 -0.580588 -3.3592 0
M  V30 1086 H 100.511 -1.99803 -2.23649 0
M  V30 1087 H 98.0637 -1.06899 -1.14027 0
M  V30 1088 H 98.7987 0.3781 -3.22088 0
M  V30 1089 H 98.5837 -1.33398 -3.6871 0
M  V30 1090 H 100.074 -0.459034 -4.15069 0
M  V30 1091 N 100.511 1.16574 -1.06058 0
M  V30 1092 C 101.739 1.90952 -0.796552 0
M  V30 1093 C 102.154 1.77302 0.648808 0
M  V30 1094 O 101.511 1.11605 1.44397 0
M  V30 1095 C 101.562 3.41736 -1.17894 0
M  V30 1096 O 101.283 3.54975 -2.56758 0
M  V30 1097 C 102.784 4.33169 -0.942308 0
M  V30 1098 H 100.004 0.605594 -0.288959 0
M  V30 1099 H 102.548 1.47777 -1.41358 0
M  V30 1100 H 100.703 3.82623 -0.606491 0
M  V30 1101 H 101.117 4.4846 -2.72 0
M  V30 1102 H 102.591 5.37439 -1.25952 0
M  V30 1103 H 103.068 4.3903 0.122078 0
M  V30 1104 H 103.674 3.98007 -1.49902 0
M  V30 1105 N 101.989 0.842826 1.3317 0
M  V30 1106 C 103.405 0.531128 1.50503 0
M  V30 1107 C 103.605 -0.940734 1.78192 0
M  V30 1108 O 102.661 -1.72436 1.84451 0
M  V30 1109 C 103.974 1.40789 2.65705 0
M  V30 1110 C 105.522 1.40708 2.79589 0
M  V30 1111 C 105.997 2.26878 3.97857 0
M  V30 1112 N 107.488 2.24609 4.05099 0
M  V30 1113 C 108.223 2.88019 4.95815 0
M  V30 1114 N 107.719 3.60496 5.9162 0
M  V30 1115 N 109.512 2.77469 4.88843 0
M  V30 1116 H 101.663 1.79557 1.1346 0
M  V30 1117 H 103.926 0.766267 0.558156 0
M  V30 1118 H 103.632 2.454 2.51936 0
M  V30 1119 H 103.506 1.08677 3.61205 0
M  V30 1120 H 105.893 0.368668 2.92788 0
M  V30 1121 H 105.974 1.76829 1.84838 0
M  V30 1122 H 105.618 3.3078 3.85418 0
M  V30 1123 H 105.548 1.88096 4.91861 0
M  V30 1124 H 108.039 1.71906 3.36536 0
M  V30 1125 H 108.352 4.06076 6.57512 0
M  V30 1126 H 106.697 3.64604 5.91683 0
M  V30 1127 H 109.888 2.20406 4.12963 0
M  V30 1128 H 110.061 3.2717 5.59342 0
M  V30 1129 N 103.467 -1.45747 0.599634 0
M  V30 1130 C 104.4 -2.27547 -0.172552 0
M  V30 1131 C 105.378 -1.36657 -0.881116 0
M  V30 1132 O 106.562 -1.66081 -0.891595 0
M  V30 1133 C 103.689 -3.14829 -1.24903 0
M  V30 1134 C 102.735 -4.21603 -0.644465 0
M  V30 1135 S 103.568 -5.32754 0.541606 0
M  V30 1136 C 104.724 -6.23604 -0.535656 0
M  V30 1137 H 104.957 -2.92691 0.521468 0
M  V30 1138 H 102.49 -1.49473 0.386947 0
M  V30 1139 H 104.448 -3.65675 -1.86527 0
M  V30 1140 H 103.109 -2.48965 -1.91508 0
M  V30 1141 H 102.302 -4.82566 -1.45417 0
M  V30 1142 H 101.904 -3.73857 -0.103534 0
M  V30 1143 H 104.196 -6.62519 -1.41686 0
M  V30 1144 H 105.139 -7.0809 0.0376246 0
M  V30 1145 H 105.547 -5.58103 -0.84741 0
M  V30 1146 N 104.945 -0.338344 -1.53925 0
M  V30 1147 C 105.892 0.520845 -2.24846 0
M  V30 1148 C 106.862 1.09976 -1.24477 0
M  V30 1149 O 108.047 1.13735 -1.53196 0
M  V30 1150 C 105.187 1.6685 -3.02084 0
M  V30 1151 C 104.3 1.11739 -4.17299 0
M  V30 1152 C 103.435 2.23193 -4.82036 0
M  V30 1153 C 102.474 1.65407 -5.89328 0
M  V30 1154 N 101.611 2.70582 -6.47866 0
M  V30 1155 H 106.451 -0.0904881 -2.97863 0
M  V30 1156 H 103.988 -0.0564282 -1.46992 0
M  V30 1157 H 105.946 2.34407 -3.45122 0
M  V30 1158 H 104.576 2.2509 -2.31375 0
M  V30 1159 H 103.628 0.332919 -3.7894 0
M  V30 1160 H 104.94 0.654677 -4.94485 0
M  V30 1161 H 104.094 2.98626 -5.28117 0
M  V30 1162 H 102.833 2.72807 -4.04262 0
M  V30 1163 H 101.838 0.884779 -5.42634 0
M  V30 1164 H 103.063 1.16652 -6.69006 0
M  V30 1165 H 101.009 3.1946 -5.72959 0
M  V30 1166 H 100.926 2.28917 -7.20509 0
M  V30 1167 H 102.194 3.45799 -6.98601 0
M  V30 1168 N 106.423 1.57458 -0.0668435 0
M  V30 1169 C 107.353 2.15468 0.899764 0
M  V30 1170 C 108.334 1.08042 1.31381 0
M  V30 1171 O 109.519 1.36054 1.38574 0
M  V30 1172 C 106.649 2.71232 2.16911 0
M  V30 1173 C 105.603 3.83781 1.89463 0
M  V30 1174 C 104.929 4.26127 3.22986 0
M  V30 1175 C 106.229 5.08238 1.20381 0
M  V30 1176 H 107.923 2.96488 0.416529 0
M  V30 1177 H 105.469 1.4262 0.198908 0
M  V30 1178 H 107.422 3.10458 2.84945 0
M  V30 1179 H 106.146 1.87426 2.67468 0
M  V30 1180 H 104.805 3.45051 1.23836 0
M  V30 1181 H 104.453 3.39249 3.71374 0
M  V30 1182 H 104.153 5.01993 3.05413 0
M  V30 1183 H 105.677 4.67966 3.92225 0
M  V30 1184 H 107.091 5.44811 1.78475 0
M  V30 1185 H 105.488 5.89349 1.13083 0
M  V30 1186 H 106.558 4.84558 0.182153 0
M  V30 1187 N 107.901 -0.206675 1.56239 0
M  V30 1188 C 109.317 -0.557025 1.49564 0
M  V30 1189 C 109.517 -1.86424 0.764735 0
M  V30 1190 O 108.573 -2.50584 0.310491 0
M  V30 1191 C 109.886 -0.622478 2.94186 0
M  V30 1192 C 111.434 -0.712099 3.04792 0
M  V30 1193 C 111.909 -0.808767 4.50803 0
M  V30 1194 N 113.4 -0.8726 4.54907 0
M  V30 1195 C 114.135 -0.967365 5.65181 0
M  V30 1196 N 113.631 -1.02515 6.85173 0
M  V30 1197 N 115.424 -1.00366 5.53067 0
M  V30 1198 H 107.575 0.650943 2.02179 0
M  V30 1199 H 109.838 0.230387 0.919579 0
M  V30 1200 H 109.544 0.268727 3.50672 0
M  V30 1201 H 109.418 -1.4811 3.46905 0
M  V30 1202 H 111.805 -1.59374 2.48363 0
M  V30 1203 H 111.886 0.172489 2.55218 0
M  V30 1204 H 111.53 0.0684754 5.07854 0
M  V30 1205 H 111.46 -1.70899 4.98098 0
M  V30 1206 H 113.951 -0.837657 3.68499 0
M  V30 1207 H 114.264 -1.09765 7.64965 0
M  V30 1208 H 112.609 -0.994026 6.87855 0
M  V30 1209 H 115.8 -0.95527 4.58249 0
M  V30 1210 H 115.973 -1.07405 6.39037 0
M  V30 1211 N 109.379 -1.50304 -0.473955 0
M  V30 1212 C 110.326 -1.68959 -1.57231 0
M  V30 1213 C 111.296 -0.530899 -1.57387 0
M  V30 1214 O 112.481 -0.761133 -1.74961 0
M  V30 1215 C 109.621 -1.7871 -2.95223 0
M  V30 1216 C 108.734 -3.06061 -3.04878 0
M  V30 1217 C 107.869 -3.06626 -4.33767 0
M  V30 1218 C 106.908 -4.28443 -4.37154 0
M  V30 1219 N 106.045 -4.26763 -5.5751 0
M  V30 1220 H 110.885 -2.6273 -1.40631 0
M  V30 1221 H 108.422 -1.30241 -0.683789 0
M  V30 1222 H 110.38 -1.82344 -3.75242 0
M  V30 1223 H 109.01 -0.883806 -3.10465 0
M  V30 1224 H 108.062 -3.11911 -2.17751 0
M  V30 1225 H 109.374 -3.96039 -3.0324 0
M  V30 1226 H 108.528 -3.08973 -5.22131 0
M  V30 1227 H 107.267 -2.14473 -4.3801 0
M  V30 1228 H 106.272 -4.2631 -3.47188 0
M  V30 1229 H 107.497 -5.2182 -4.34605 0
M  V30 1230 H 105.443 -3.37462 -5.62544 0
M  V30 1231 H 105.36 -5.10507 -5.57601 0
M  V30 1232 H 106.628 -4.33253 -6.48006 0
M  V30 1233 N 110.857 0.726932 -1.39834 0
M  V30 1234 C 111.807 1.83232 -1.35683 0
M  V30 1235 C 112.791 1.59155 -0.236295 0
M  V30 1236 O 113.983 1.70522 -0.474488 0
M  V30 1237 C 111.112 3.21246 -1.21062 0
M  V30 1238 C 110.198 3.51125 -2.37849 0
M  V30 1239 N 110.589 3.51889 -3.63329 0
M  V30 1240 C 108.887 3.81527 -2.30982 0
M  V30 1241 C 109.588 3.79791 -4.40606 0
M  V30 1242 N 108.564 3.97971 -3.70297 0
M  V30 1243 H 112.366 1.8214 -2.30656 0
M  V30 1244 H 109.88 0.925545 -1.33444 0
M  V30 1245 H 111.877 4.00387 -1.16171 0
M  V30 1246 H 110.537 3.23572 -0.270458 0
M  V30 1247 H 111.548 3.33008 -3.96643 0
M  V30 1248 H 108.225 3.91411 -1.45272 0
M  V30 1249 H 109.615 3.86783 -5.49408 0
M  V30 1250 N 112.336 1.25143 0.95797 0
M  V30 1251 C 113.584 1.09476 1.69881 0
M  V30 1252 C 113.905 -0.365502 1.91544 0
M  V30 1253 O 113.175 -1.25985 1.50015 0
M  V30 1254 H 111.755 0.402128 0.629525 0
M  V30 1255 H 114.417 1.57214 1.15194 0
M  V30 1256 H 113.513 1.60046 2.6794 0
M  V30 1257 N 113.814 -1.1601 1.06675 0
M  V30 1258 C 114.744 -2.22688 0.702307 0
M  V30 1259 C 115.725 -1.67306 -0.307032 0
M  V30 1260 O 116.91 -1.93352 -0.181305 0
M  V30 1261 C 114.04 -3.47178 0.092038 0
M  V30 1262 C 112.994 -4.15477 1.02777 0
M  V30 1263 C 112.32 -5.33963 0.28061 0
M  V30 1264 C 113.62 -4.66019 2.35846 0
M  V30 1265 H 115.314 -2.53429 1.59419 0
M  V30 1266 H 112.86 -1.21813 0.767961 0
M  V30 1267 H 114.813 -4.21037 -0.174814 0
M  V30 1268 H 113.537 -3.15749 -0.834877 0
M  V30 1269 H 112.196 -3.43549 1.27944 0
M  V30 1270 H 111.844 -4.98788 -0.649545 0
M  V30 1271 H 111.544 -5.806 0.904258 0
M  V30 1272 H 113.068 -6.10596 0.021396 0
M  V30 1273 H 114.482 -5.3144 2.15045 0
M  V30 1274 H 112.879 -5.23293 2.93743 0
M  V30 1275 H 113.949 -3.82023 2.98641 0
M  V30 1276 N 115.292 -0.849877 -1.32721 0
M  V30 1277 C 116.202 -0.293791 -2.32753 0
M  V30 1278 C 117.218 0.585906 -1.63839 0
M  V30 1279 O 118.394 0.487413 -1.95413 0
M  V30 1280 C 115.459 0.512752 -3.42887 0
M  V30 1281 C 114.52 -0.39252 -4.27502 0
M  V30 1282 C 113.753 0.375625 -5.32377 0
M  V30 1283 O 113.976 1.60613 -5.4732 0
M  V30 1284 O 112.91 -0.256094 -6.01355 0
M  V30 1285 H 116.736 -1.12242 -2.82197 0
M  V30 1286 H 114.321 -0.612685 -1.36259 0
M  V30 1287 H 116.203 0.970704 -4.10067 0
M  V30 1288 H 114.878 1.31826 -2.95641 0
M  V30 1289 H 113.785 -0.898547 -3.63149 0
M  V30 1290 H 115.118 -1.16309 -4.7826 0
M  V30 1291 N 116.77 1.45427 -0.607355 0
M  V30 1292 C 118.047 1.9557 -0.0344566 0
M  V30 1293 C 118.427 1.54979 1.43334 0
M  V30 1294 O 117.775 0.812241 2.13576 0
M  V30 1295 C 117.985 3.48226 -0.232321 0
M  V30 1296 C 119.333 4.2445 -0.113001 0
M  V30 1297 O 120.357 3.55829 -0.162431 0
M  V30 1298 O 119.216 5.465 0.00209442 0
M  V30 1299 H 116.31 0.826222 0.0358667 0
M  V30 1300 H 118.856 1.55594 -0.6774 0
M  V30 1301 H 117.628 3.70739 -1.25174 0
M  V30 1302 H 117.251 3.95092 0.445896 0
M  V30 1303 N 118.248 0.346503 1.53744 0
M  V30 1304 C 119.195 -0.508914 2.25119 0
M  V30 1305 C 120.165 -1.09315 1.25058 0
M  V30 1306 O 121.35 -1.12921 1.53797 0
M  V30 1307 C 118.49 -1.65246 3.02965 0
M  V30 1308 C 117.603 -1.09525 4.17886 0
M  V30 1309 C 116.738 -2.20634 4.83212 0
M  V30 1310 C 115.777 -1.62279 5.90196 0
M  V30 1311 N 114.914 -2.67143 6.49291 0
M  V30 1312 H 119.754 0.106283 2.9781 0
M  V30 1313 H 117.291 0.0642227 1.4696 0
M  V30 1314 H 119.249 -2.32574 3.4636 0
M  V30 1315 H 117.879 -2.2386 2.32565 0
M  V30 1316 H 116.931 -0.312818 3.79112 0
M  V30 1317 H 118.243 -0.628444 4.94825 0
M  V30 1318 H 117.397 -2.95821 5.29693 0
M  V30 1319 H 116.136 -2.70659 4.05703 0
M  V30 1320 H 115.141 -0.855989 5.43096 0
M  V30 1321 H 116.366 -1.13102 6.69615 0
M  V30 1322 H 114.312 -3.16417 5.74645 0
M  V30 1323 H 114.229 -2.25093 7.21713 0
M  V30 1324 H 115.497 -3.4209 7.00425 0
M  V30 1325 N 119.726 -1.57421 0.075193 0
M  V30 1326 C 120.656 -2.15942 -0.888324 0
M  V30 1327 C 121.637 -1.08737 -1.30806 0
M  V30 1328 O 122.822 -1.36787 -1.37851 0
M  V30 1329 C 119.952 -2.72379 -2.1547 0
M  V30 1330 C 118.906 -3.8478 -1.87425 0
M  V30 1331 C 118.232 -4.27834 -3.20721 0
M  V30 1332 C 119.532 -5.08869 -1.17684 0
M  V30 1333 H 121.226 -2.96705 -0.400799 0
M  V30 1334 H 118.772 -1.42723 -0.191342 0
M  V30 1335 H 120.725 -3.11965 -2.83295 0
M  V30 1336 H 119.449 -1.88841 -2.6647 0
M  V30 1337 H 118.108 -3.45703 -1.22004 0
M  V30 1338 H 117.756 -3.41214 -3.6957 0
M  V30 1339 H 117.456 -5.03605 -3.02746 0
M  V30 1340 H 118.98 -4.70039 -3.89738 0
M  V30 1341 H 120.394 -5.4575 -1.75584 0
M  V30 1342 H 118.791 -5.8994 -1.09956 0
M  V30 1343 H 119.861 -4.84648 -0.156453 0
M  V30 1344 N 121.204 0.198386 -1.56346 0
M  V30 1345 C 122.481 0.944982 -1.71258 0
M  V30 1346 C 122.861 2.0151 -0.629048 0
M  V30 1347 O 122.209 2.25639 0.360473 0
M  V30 1348 C 122.419 1.5344 -3.1346 0
M  V30 1349 C 123.767 2.01778 -3.73591 0
M  V30 1350 O 124.791 1.63288 -3.16568 0
M  V30 1351 O 123.65 2.72594 -4.73661 0
M  V30 1352 H 120.744 0.442939 -0.69838 0
M  V30 1353 H 123.29 0.188342 -1.68652 0
M  V30 1354 H 122.062 0.762869 -3.83792 0
M  V30 1355 H 121.685 2.35596 -3.20282 0
M  V30 1356 N 122.682 1.50554 0.465978 0
M  V30 1357 C 124.093 1.54599 1.04671 0
M  V30 1358 C 124.444 0.352488 1.93008 0
M  V30 1359 O 123.569 -0.534044 2.09707 0
M  V30 1360 C 124.164 2.80166 1.90505 0
M  V30 1361 C 122.723 2.86876 2.43678 0
M  V30 1362 C 121.87 2.48947 1.22151 0
M  V30 1363 H 124.821 1.56744 0.248384 0
M  V30 1364 H 124.842 2.62311 2.75633 0
M  V30 1365 H 124.354 3.67013 1.26186 0
M  V30 1366 H 122.455 2.04393 3.11536 0
M  V30 1367 H 122.568 3.89885 2.78436 0
M  V30 1368 H 120.932 2.01498 1.5579 0
M  V30 1369 H 121.715 3.38107 0.594866 0
M  V30 1370 N 124.16 -0.719506 1.40217 0
M  V30 1371 C 125.409 -1.47486 1.37589 0
M  V30 1372 C 125.722 -1.9559 -0.0201568 0
M  V30 1373 O 126.928 -2.70973 -0.169049 0
M  V30 1374 C 125.384 -2.66575 2.41796 0
M  V30 1375 C 124.992 -2.25358 3.87192 0
M  V30 1376 C 126.736 -3.4433 2.48269 0
M  V30 1377 C 124.643 -3.41262 4.83005 0
M  V30 1378 H 123.573 -0.553901 0.511576 0
M  V30 1379 H 126.224 -0.783427 1.65936 0
M  V30 1380 H 124.606 -3.3787 2.06543 0
M  V30 1381 H 125.78 -1.61509 4.31569 0
M  V30 1382 H 124.095 -1.60657 3.84159 0
M  V30 1383 H 126.692 -4.30569 3.17041 0
M  V30 1384 H 127.035 -3.87872 1.51198 0
M  V30 1385 H 127.568 -2.80076 2.82493 0
M  V30 1386 H 124.307 -3.02755 5.81394 0
M  V30 1387 H 123.827 -4.0404 4.43297 0
M  V30 1388 H 125.506 -4.07383 5.02641 0
M  V30 1389 N 125.638 -1.25649 -0.95132 0
M  V30 1390 C 126.884 -1.10757 -1.69884 0
M  V30 1391 C 127.217 0.350061 -1.91019 0
M  V30 1392 O 126.492 1.25783 -1.48354 0
M  V30 1393 C 126.775 -1.86606 -3.07978 0
M  V30 1394 C 126.628 -3.40217 -2.94232 0
M  V30 1395 C 127.947 -1.65182 -4.07925 0
M  V30 1396 H 125.066 -0.40374 -0.616574 0
M  V30 1397 H 127.708 -1.54521 -1.10558 0
M  V30 1398 H 125.858 -1.49409 -3.58621 0
M  V30 1399 H 127.53 -3.87108 -2.50889 0
M  V30 1400 H 125.773 -3.67759 -2.30078 0
M  V30 1401 H 126.444 -3.88505 -3.92133 0
M  V30 1402 H 128.92 -1.9757 -3.66204 0
M  V30 1403 H 127.796 -2.20683 -5.02583 0
M  V30 1404 H 128.057 -0.593933 -4.38092 0
M  V30 1405 N 127.117 1.15442 -1.07289 0
M  V30 1406 C 128.533 1.38201 -0.798288 0
M  V30 1407 C 128.733 1.92429 0.597769 0
M  V30 1408 O 127.789 2.12962 1.3566 0
M  V30 1409 C 129.102 2.35357 -1.87156 0
M  V30 1410 C 130.65 2.49021 -1.89624 0
M  V30 1411 C 131.125 3.49468 -2.96034 0
M  V30 1412 N 132.616 3.57003 -2.95132 0
M  V30 1413 C 133.351 4.34543 -3.74112 0
M  V30 1414 N 132.847 5.15421 -4.6294 0
M  V30 1415 N 134.64 4.29625 -3.62462 0
M  V30 1416 H 126.791 0.78584 -1.97328 0
M  V30 1417 H 129.054 0.408065 -0.855679 0
M  V30 1418 H 128.76 2.02626 -2.87464 0
M  V30 1419 H 128.634 3.35129 -1.73114 0
M  V30 1420 H 131.021 2.81051 -0.899687 0
M  V30 1421 H 131.102 1.4925 -2.07745 0
M  V30 1422 H 130.746 3.18173 -3.95889 0
M  V30 1423 H 130.676 4.48992 -2.75161 0
M  V30 1424 H 133.167 2.99276 -2.30743 0
M  V30 1425 H 133.48 5.7183 -5.19837 0
M  V30 1426 H 131.825 5.14729 -4.66989 0
M  V30 1427 H 135.016 3.65505 -2.92444 0
M  V30 1428 H 135.189 4.89807 -4.24256 0
M  V30 1429 N 128.595 0.856903 1.32268 0
M  V30 1430 C 129.543 0.291987 2.3076 0
M  V30 1431 C 130.537 -0.585857 1.58947 0
M  V30 1432 O 131.743 -0.47341 1.73663 0
M  V30 1433 H 128.118 0.075721 0.748178 0
M  V30 1434 H 130.089 1.13687 2.75895 0
M  V30 1435 C 128.838 -0.502869 3.44044 0
M  V30 1436 H 128.161 0.163328 3.99466 0
M  V30 1437 H 129.601 -0.863691 4.1511 0
M  V30 1438 C 128.06 -1.68898 2.91505 0
M  V30 1439 O 128.59 -2.78811 2.89184 0
M  V30 1440 N 126.796 -1.51679 2.47875 0
M  V30 1441 H 126.343 -0.622666 2.49961 0
M  V30 1442 H 126.301 -2.31184 2.13076 0
M  V30 1443 N 130.073 -1.45103 0.615059 0
M  V30 1444 C 131.036 -2.29025 -0.0895485 0
M  V30 1445 C 132.036 -1.40174 -0.787906 0
M  V30 1446 O 133.226 -1.62217 -0.634933 0
M  V30 1447 C 130.358 -3.21376 -1.13711 0
M  V30 1448 H 131.551 -2.92807 0.648382 0
M  V30 1449 H 129.104 -1.51749 0.374444 0
M  V30 1450 H 129.839 -2.6241 -1.90556 0
M  V30 1451 H 129.624 -3.86834 -0.640475 0
M  V30 1452 H 131.114 -3.84459 -1.63036 0
M  V30 1453 N 131.551 -0.354651 -1.53558 0
M  V30 1454 C 132.797 0.238797 -2.01389 0
M  V30 1455 C 133.13 1.49309 -1.2418 0
M  V30 1456 O 132.405 1.91638 -0.332457 0
M  V30 1457 C 132.688 0.541771 -3.56001 0
M  V30 1458 C 132.541 -0.725388 -4.43912 0
M  V30 1459 C 133.86 1.34685 -4.18984 0
M  V30 1460 H 130.979 0.0853177 -0.732045 0
M  V30 1461 H 133.621 -0.477384 -1.83905 0
M  V30 1462 H 131.771 1.15189 -3.71031 0
M  V30 1463 H 133.443 -1.36313 -4.407 0
M  V30 1464 H 131.686 -1.34801 -4.12324 0
M  V30 1465 H 132.357 -0.468505 -5.50008 0
M  V30 1466 H 134.833 0.830837 -4.07721 0
M  V30 1467 H 133.709 1.52759 -5.27215 0
M  V30 1468 H 133.97 2.35221 -3.74331 0
M  V30 1469 N 133.029 1.57378 -0.0835403 0
M  V30 1470 C 134.445 1.57246 0.273109 0
M  V30 1471 C 134.645 1.09385 1.69225 0
M  V30 1472 O 133.701 0.765051 2.40631 0
M  V30 1473 C 135.014 3.00614 0.0720628 0
M  V30 1474 C 136.562 3.12684 0.1407 0
M  V30 1475 C 137.037 4.57989 -0.0322094 0
M  V30 1476 N 138.528 4.63194 0.0230085 0
M  V30 1477 C 139.263 5.73335 -0.0861941 0
M  V30 1478 N 138.759 6.9235 -0.24958 0
M  V30 1479 N 140.552 5.62093 -0.0282886 0
M  V30 1480 H 132.703 1.86801 -1.0109 0
M  V30 1481 H 134.966 0.861687 -0.395222 0
M  V30 1482 H 134.672 3.39786 -0.907662 0
M  V30 1483 H 134.546 3.68193 0.81936 0
M  V30 1484 H 136.933 2.73391 1.11092 0
M  V30 1485 H 137.014 2.47719 -0.637896 0
M  V30 1486 H 136.658 4.97973 -0.999247 0
M  V30 1487 H 136.588 5.21 0.765937 0
M  V30 1488 H 139.079 3.77613 0.14722 0
M  V30 1489 H 139.392 7.72117 -0.324733 0
M  V30 1490 H 137.737 6.94415 -0.285097 0
M  V30 1491 H 140.928 4.67997 0.0981408 0
M  V30 1492 H 141.101 6.47895 -0.116845 0
M  V30 1493 N 134.507 -0.190092 1.56449 0
M  V30 1494 C 135.756 -0.907912 1.80111 0
M  V30 1495 C 136.069 -1.84214 0.657619 0
M  V30 1496 O 137.275 -2.60094 0.778663 0
M  V30 1497 C 135.731 -1.66485 3.19078 0
M  V30 1498 C 135.339 -0.7752 4.41242 0
M  V30 1499 C 137.083 -2.37201 3.52045 0
M  V30 1500 C 134.99 -1.53129 5.71231 0
M  V30 1501 H 133.92 -0.34276 0.671589 0
M  V30 1502 H 136.571 -0.161109 1.82791 0
M  V30 1503 H 134.953 -2.45572 3.10661 0
M  V30 1504 H 136.127 -0.0226298 4.60794 0
M  V30 1505 H 134.442 -0.178627 4.16017 0
M  V30 1506 H 137.039 -2.94329 4.46402 0
M  V30 1507 H 137.382 -3.11632 2.76028 0
M  V30 1508 H 137.915 -1.65075 3.61932 0
M  V30 1509 H 134.654 -0.82967 6.50228 0
M  V30 1510 H 134.174 -2.25767 5.55688 0
M  V30 1511 H 135.853 -2.08377 6.12526 0
M  V30 1512 N 135.985 -1.50799 -0.457987 0
M  V30 1513 C 136.948 -1.7005 -1.53674 0
M  V30 1514 C 137.948 -0.570881 -1.50325 0
M  V30 1515 O 139.138 -0.838126 -1.52712 0
M  V30 1516 C 136.27 -1.73788 -2.93276 0
M  V30 1517 H 137.463 -2.66306 -1.37917 0
M  V30 1518 H 135.016 -1.40477 -0.685271 0
M  V30 1519 H 135.751 -0.792717 -3.14462 0
M  V30 1520 H 135.536 -2.55864 -2.97113 0
M  V30 1521 H 137.026 -1.90591 -3.71571 0
M  V30 1522 N 137.463 0.71206 -1.40597 0
M  V30 1523 C 138.879 1.02058 -1.22704 0
M  V30 1524 C 139.079 2.01228 -0.104729 0
M  V30 1525 O 138.135 2.4674 0.53624 0
M  V30 1526 C 139.448 1.56094 -2.57012 0
M  V30 1527 C 140.996 1.6806 -2.64054 0
M  V30 1528 C 141.471 2.25501 -3.9864 0
M  V30 1529 N 142.962 2.32882 -4.004 0
M  V30 1530 C 143.697 2.78317 -5.01325 0
M  V30 1531 N 143.193 3.23478 -6.12645 0
M  V30 1532 N 144.986 2.77733 -4.88693 0
M  V30 1533 H 137.137 0.0547896 -2.12329 0
M  V30 1534 H 139.4 0.0869027 -0.944008 0
M  V30 1535 H 139.106 0.906865 -3.39807 0
M  V30 1536 H 138.98 2.54564 -2.78347 0
M  V30 1537 H 141.367 2.32583 -1.81629 0
M  V30 1538 H 141.448 0.681802 -2.46546 0
M  V30 1539 H 141.092 1.61598 -4.81506 0
M  V30 1540 H 141.022 3.26102 -4.13479 0
M  V30 1541 H 143.513 2.00991 -3.20017 0
M  V30 1542 H 143.826 3.56725 -6.85542 0
M  V30 1543 H 142.171 3.21429 -6.16205 0
M  V30 1544 H 145.362 2.4179 -4.00818 0
M  V30 1545 H 145.535 3.12826 -5.67489 0
M  V30 1546 N 138.941 1.26152 0.944643 0
M  V30 1547 C 140.357 1.03189 1.21754 0
M  V30 1548 C 140.557 -0.245112 2.00004 0
M  V30 1549 O 139.613 -0.955176 2.33736 0
M  V30 1550 C 140.926 2.26119 1.98219 0
M  V30 1551 C 142.474 2.30984 2.11224 0
M  V30 1552 C 142.949 3.53597 2.91089 0
M  V30 1553 N 144.44 3.54053 2.98664 0
M  V30 1554 C 145.175 4.45593 3.60881 0
M  V30 1555 N 144.671 5.47416 4.24626 0
M  V30 1556 N 146.464 4.33252 3.58119 0
M  V30 1557 H 138.615 2.08177 0.421437 0
M  V30 1558 H 140.878 0.914723 0.248969 0
M  V30 1559 H 140.584 3.18984 1.48128 0
M  V30 1560 H 140.458 2.3009 2.98895 0
M  V30 1561 H 142.845 1.38635 2.60508 0
M  V30 1562 H 142.926 2.31026 1.09821 0
M  V30 1563 H 142.57 4.46273 2.42493 0
M  V30 1564 H 142.5 3.50802 3.92741 0
M  V30 1565 H 144.991 2.80403 2.53343 0
M  V30 1566 H 145.304 6.13459 4.69987 0
M  V30 1567 H 143.649 5.51278 4.23223 0
M  V30 1568 H 146.84 3.52924 3.0751 0
M  V30 1569 H 147.013 5.04786 4.06319 0
M  V30 1570 N 140.419 -1.14872 1.07899 0
M  V30 1571 C 141.382 -2.17986 0.708161 0
M  V30 1572 C 142.382 -1.58775 -0.25442 0
M  V30 1573 O 143.572 -1.74166 -0.034645 0
M  V30 1574 C 140.704 -3.40871 0.0446929 0
M  V30 1575 H 141.897 -2.52306 1.62116 0
M  V30 1576 H 139.45 -1.2943 0.876218 0
M  V30 1577 H 140.185 -3.12124 -0.880281 0
M  V30 1578 H 139.97 -3.8511 0.737091 0
M  V30 1579 H 141.46 -4.17121 -0.19991 0
M  V30 1580 N 141.898 -0.863906 -1.31812 0
M  V30 1581 C 142.861 -0.320212 -2.26952 0
M  V30 1582 C 143.861 0.525369 -1.51975 0
M  V30 1583 O 145.051 0.335547 -1.70938 0
M  V30 1584 C 142.183 0.545919 -3.365 0
M  V30 1585 H 143.376 -1.16004 -2.76556 0
M  V30 1586 H 140.929 -0.638995 -1.42641 0
M  V30 1587 H 141.664 1.40718 -2.92179 0
M  V30 1588 H 141.449 -0.0594674 -3.92055 0
M  V30 1589 H 142.939 0.918796 -4.07367 0
M  V30 1590 N 143.376 1.44774 -0.622745 0
M  V30 1591 C 144.624 2.01721 -0.123655 0
M  V30 1592 C 144.945 1.49172 1.25589 0
M  V30 1593 O 144.215 0.691974 1.83272 0
M  V30 1594 H 142.795 0.745777 -0.0427225 0
M  V30 1595 H 145.457 1.77382 -0.807559 0
M  V30 1596 H 144.553 3.11984 -0.0849534 0
M  V30 1597 N 144.854 0.36279 1.53368 0
M  V30 1598 C 145.764 -0.492994 2.29362 0
M  V30 1599 C 146.78 -1.09507 1.35219 0
M  V30 1600 O 147.956 -1.10662 1.68273 0
M  V30 1601 C 145.021 -1.61855 3.066 0
M  V30 1602 C 144.082 -1.04429 4.16405 0
M  V30 1603 C 143.315 -2.11621 4.89951 0
M  V30 1604 O 143.538 -3.32684 4.63333 0
M  V30 1605 O 142.472 -1.74835 5.75948 0
M  V30 1606 H 146.298 0.125331 3.03441 0
M  V30 1607 H 143.883 0.127253 1.48857 0
M  V30 1608 H 145.765 -2.27302 3.54841 0
M  V30 1609 H 144.44 -2.22233 2.3536 0
M  V30 1610 H 143.347 -0.353819 3.72423 0
M  V30 1611 H 144.68 -0.485113 4.89804 0
M  V30 1612 N 146.332 -1.57332 0.0918853 0
M  V30 1613 C 147.279 -2.13847 -0.868211 0
M  V30 1614 C 148.249 -1.05618 -1.28196 0
M  V30 1615 O 149.434 -1.33387 -1.36427 0
M  V30 1616 C 146.574 -2.72062 -2.12312 0
M  V30 1617 C 145.687 -3.94514 -1.7602 0
M  V30 1618 C 144.822 -4.40903 -2.96273 0
M  V30 1619 C 143.861 -5.55953 -2.56092 0
M  V30 1620 N 142.998 -5.97209 -3.69169 0
M  V30 1621 H 147.838 -2.95575 -0.379406 0
M  V30 1622 H 145.375 -1.46048 -0.175606 0
M  V30 1623 H 147.333 -3.03931 -2.858 0
M  V30 1624 H 145.963 -1.93068 -2.58698 0
M  V30 1625 H 145.015 -3.68979 -0.925135 0
M  V30 1626 H 146.327 -4.7802 -1.42472 0
M  V30 1627 H 145.481 -4.74539 -3.78018 0
M  V30 1628 H 144.22 -3.56291 -3.33029 0
M  V30 1629 H 143.225 -5.21948 -1.72773 0
M  V30 1630 H 144.45 -6.42311 -2.20484 0
M  V30 1631 H 142.396 -5.15543 -4.05649 0
M  V30 1632 H 142.313 -6.75504 -3.39456 0
M  V30 1633 H 143.581 -6.35475 -4.51434 0
M  V30 1634 N 147.81 0.181792 -1.56548 0
M  V30 1635 C 148.74 1.22765 -1.98623 0
M  V30 1636 C 149.721 1.46747 -0.860189 0
M  V30 1637 O 150.906 1.58259 -1.12551 0
M  V30 1638 C 148.036 2.56894 -2.33715 0
M  V30 1639 C 146.99 2.475 -3.49182 0
M  V30 1640 C 146.316 3.86023 -3.69986 0
M  V30 1641 C 147.616 1.98866 -4.82959 0
M  V30 1642 H 149.31 0.877942 -2.86239 0
M  V30 1643 H 146.856 0.42088 -1.37712 0
M  V30 1644 H 148.809 3.30253 -2.61746 0
M  V30 1645 H 147.533 2.93632 -1.42997 0
M  V30 1646 H 146.192 1.76596 -3.21262 0
M  V30 1647 H 145.84 4.20136 -2.76576 0
M  V30 1648 H 145.54 3.80609 -4.47672 0
M  V30 1649 H 147.064 4.60984 -4.00407 0
M  V30 1650 H 148.478 2.61992 -5.09934 0
M  V30 1651 H 146.875 2.04424 -5.64208 0
M  V30 1652 H 147.945 0.942465 -4.75653 0
M  V30 1653 N 149.288 1.51039 0.449983 0
M  V30 1654 C 150.534 1.63322 1.20223 0
M  V30 1655 C 150.867 0.34241 1.91158 0
M  V30 1656 O 150.142 -0.657344 1.83055 0
M  V30 1657 C 150.425 2.82801 2.22925 0
M  V30 1658 C 150.278 4.21823 1.56157 0
M  V30 1659 C 151.597 2.97807 3.24035 0
M  V30 1660 H 148.716 0.594407 0.435718 0
M  V30 1661 H 151.358 1.83489 0.493136 0
M  V30 1662 H 149.508 2.65738 2.834 0
M  V30 1663 H 151.18 4.50526 0.991162 0
M  V30 1664 H 149.423 4.25105 0.864172 0
M  V30 1665 H 150.094 5.01391 2.30891 0
M  V30 1666 H 152.57 3.13497 2.73603 0
M  V30 1667 H 151.446 3.82992 3.93202 0
M  V30 1668 H 151.707 2.09328 3.89402 0
M  V30 1669 N 150.766 -0.704594 1.40972 0
M  V30 1670 C 152.013 -1.46458 1.39844 0
M  V30 1671 C 152.341 -1.94499 0.00447594 0
M  V30 1672 O 151.596 -1.69275 -0.982057 0
M  V30 1673 C 151.895 -2.698 2.34399 0
M  V30 1674 C 151.561 -2.40464 3.81429 0
M  V30 1675 C 150.223 -2.32174 4.21484 0
M  V30 1676 C 152.575 -2.16086 4.74296 0
M  V30 1677 C 149.903 -1.97589 5.52427 0
M  V30 1678 C 152.255 -1.83011 6.05549 0
M  V30 1679 C 150.919 -1.7321 6.44635 0
M  V30 1680 H 150.189 -0.535927 0.511725 0
M  V30 1681 H 152.836 -0.806124 1.73706 0
M  V30 1682 H 151.141 -3.40536 1.93759 0
M  V30 1683 H 152.838 -3.27919 2.30804 0
M  V30 1684 H 149.428 -2.47808 3.49699 0
M  V30 1685 H 153.612 -2.2144 4.4416 0
M  V30 1686 H 148.868 -1.88547 5.81601 0
M  V30 1687 H 153.042 -1.63164 6.77016 0
M  V30 1688 H 150.669 -1.46179 7.46013 0
M  V30 1689 N 152.244 -1.26651 -0.937939 0
M  V30 1690 C 153.492 -1.12165 -1.68118 0
M  V30 1691 C 153.813 0.334983 -1.92101 0
M  V30 1692 O 153.083 1.23583 -1.52 0
M  V30 1693 H 151.663 -0.412093 -0.623048 0
M  V30 1694 H 154.325 -1.59027 -1.12678 0
M  V30 1695 H 153.421 -1.64289 -2.6536 0
M  V30 1696 N 153.722 1.14298 -1.08507 0
M  V30 1697 C 154.999 1.81544 -0.728088 0
M  V30 1698 C 155.379 1.95838 0.78808 0
M  V30 1699 O 154.727 1.51904 1.70697 0
M  V30 1700 C 154.937 3.17169 -1.45619 0
M  V30 1701 C 156.285 3.9265 -1.61591 0
M  V30 1702 O 157.309 3.26762 -1.41793 0
M  V30 1703 O 156.168 5.10807 -1.94263 0
M  V30 1704 H 153.262 0.78491 -0.260471 0
M  V30 1705 H 155.808 1.21307 -1.18671 0
M  V30 1706 H 154.58 3.01934 -2.489 0
M  V30 1707 H 154.203 3.851 -0.989124 0
M  V30 1708 N 155.201 0.870884 1.31352 0
M  V30 1709 C 156.45 0.478408 1.95944 0
M  V30 1710 C 156.763 -0.974493 1.69597 0
M  V30 1711 O 157.969 -1.47316 2.28058 0
M  V30 1712 C 156.425 0.804609 3.50791 0
M  V30 1713 C 156.033 2.27433 3.85977 0
M  V30 1714 C 157.777 0.480648 4.2177 0
M  V30 1715 C 155.684 2.5429 5.33939 0
M  V30 1716 H 154.614 0.175175 0.733369 0
M  V30 1717 H 157.265 1.06391 1.4951 0
M  V30 1718 H 155.647 0.148347 3.95722 0
M  V30 1719 H 156.821 2.97373 3.52002 0
M  V30 1720 H 155.136 2.56442 3.28065 0
M  V30 1721 H 157.733 0.658519 5.30629 0
M  V30 1722 H 158.076 -0.578979 4.12254 0
M  V30 1723 H 158.609 1.09349 3.82476 0
M  V30 1724 H 155.348 3.58939 5.48491 0
M  V30 1725 H 154.868 1.88945 5.69263 0
M  V30 1726 H 156.547 2.39066 6.01212 0
M  V30 1727 N 156.679 -1.44442 0.630414 0
M  V30 1728 C 157.927 -2.01653 0.134351 0
M  V30 1729 C 158.248 -1.49836 -1.24796 0
M  V30 1730 O 157.518 -0.701684 -1.82902 0
M  V30 1731 H 156.098 -0.74554 0.0466769 0
M  V30 1732 H 158.76 -1.76952 0.816955 0
M  V30 1733 H 157.856 -3.11935 0.101498 0
M  V30 1734 N 158.157 -0.370918 -1.53173 0
M  V30 1735 C 159.568 0.107139 -1.86392 0
M  V30 1736 C 159.919 1.47714 -1.29132 0
M  V30 1737 O 159.044 2.07464 -0.615439 0
M  V30 1738 C 159.639 0.201187 -3.38202 0
M  V30 1739 C 158.198 0.623507 -3.712 0
M  V30 1740 C 157.345 -0.225978 -2.76378 0
M  V30 1741 H 160.296 -0.58951 -1.47345 0
M  V30 1742 H 160.317 1.02377 -3.66468 0
M  V30 1743 H 159.829 -0.796058 -3.79848 0
M  V30 1744 H 157.93 1.62879 -3.35114 0
M  V30 1745 H 158.043 0.394414 -4.77474 0
M  V30 1746 H 156.407 0.305962 -2.52856 0
M  V30 1747 H 157.19 -1.22086 -3.20858 0
M  V30 1748 N 159.635 1.57281 -0.100228 0
M  V30 1749 C 160.863 1.98879 0.570509 0
M  V30 1750 C 161.278 0.979476 1.61405 0
M  V30 1751 O 160.635 -0.0302288 1.82475 0
M  V30 1752 C 160.686 3.4052 1.2136 0
M  V30 1753 O 160.407 4.37588 0.211786 0
M  V30 1754 C 161.908 3.97149 1.96945 0
M  V30 1755 H 159.128 0.653428 0.152555 0
M  V30 1756 H 161.672 2.03697 -0.18103 0
M  V30 1757 H 159.827 3.367 1.91603 0
M  V30 1758 H 160.241 5.20118 0.676607 0
M  V30 1759 H 161.715 4.98393 2.37294 0
M  V30 1760 H 162.192 3.3525 2.83733 0
M  V30 1761 H 162.798 4.04458 1.31506 0
M  V30 1762 N 161.113 -0.173488 1.56642 0
M  V30 1763 C 162.361 -0.888706 1.81512 0
M  V30 1764 C 162.682 -1.82875 0.676872 0
M  V30 1765 O 161.952 -1.93536 -0.303414 0
M  V30 1766 H 160.532 -0.331164 0.669582 0
M  V30 1767 H 163.194 -0.173823 1.94123 0
M  V30 1768 H 162.29 -1.46691 2.75478 0
M  V30 1769 N 162.591 -1.51276 -0.441967 0
M  V30 1770 C 163.501 -1.75092 -1.56141 0
M  V30 1771 C 164.517 -0.634963 -1.62001 0
M  V30 1772 O 165.693 -0.916686 -1.79329 0
M  V30 1773 C 162.758 -1.86666 -2.92158 0
M  V30 1774 C 161.819 -3.10506 -2.96453 0
M  V30 1775 C 161.052 -3.21519 -4.25982 0
M  V30 1776 O 161.275 -2.38586 -5.18105 0
M  V30 1777 O 160.209 -4.14465 -4.36466 0
M  V30 1778 H 164.035 -2.70044 -1.38961 0
M  V30 1779 H 161.62 -1.35722 -0.624499 0
M  V30 1780 H 163.502 -1.96292 -3.72891 0
M  V30 1781 H 162.177 -0.949014 -3.09476 0
M  V30 1782 H 161.084 -3.06363 -2.14692 0
M  V30 1783 H 162.417 -4.01945 -2.84079 0
M  V30 1784 N 164.069 0.697108 -1.41344 0
M  V30 1785 C 164.999 1.82353 -1.45841 0
M  V30 1786 C 165.98 1.67115 -0.317247 0
M  V30 1787 O 167.165 1.86871 -0.528474 0
M  V30 1788 C 164.295 3.20476 -1.33838 0
M  V30 1789 C 163.249 3.50415 -2.4575 0
M  V30 1790 C 162.575 4.87878 -2.18813 0
M  V30 1791 C 163.875 3.49546 -3.88091 0
M  V30 1792 H 165.569 1.78846 -2.40113 0
M  V30 1793 H 163.115 0.859028 -1.15571 0
M  V30 1794 H 165.068 3.98988 -1.35596 0
M  V30 1795 H 163.792 3.24604 -0.360498 0
M  V30 1796 H 162.451 2.74253 -2.43271 0
M  V30 1797 H 162.099 4.8863 -1.19371 0
M  V30 1798 H 161.799 5.08875 -2.93803 0
M  V30 1799 H 163.323 5.68702 -2.22284 0
M  V30 1800 H 164.737 4.18066 -3.92293 0
M  V30 1801 H 163.134 3.82075 -4.62751 0
M  V30 1802 H 164.204 2.48552 -4.16353 0
M  V30 1803 N 165.547 1.27147 0.931209 0
M  V30 1804 C 166.958 1.12044 1.49342 0
M  V30 1805 C 167.309 -0.295795 1.93957 0
M  V30 1806 O 166.434 -1.18835 1.80852 0
M  V30 1807 C 167.029 2.02781 2.71414 0
M  V30 1808 C 165.588 1.91794 3.2387 0
M  V30 1809 C 164.735 1.95543 1.96617 0
M  V30 1810 H 167.686 1.40091 0.745672 0
M  V30 1811 H 167.707 1.58156 3.46074 0
M  V30 1812 H 167.219 3.05848 2.38911 0
M  V30 1813 H 165.32 0.916992 3.6114 0
M  V30 1814 H 165.433 2.77852 3.90302 0
M  V30 1815 H 163.797 1.39722 2.12955 0
M  V30 1816 H 164.58 3.00259 1.66432 0
M  V30 1817 N 167.025 -1.13721 1.09112 0
M  V30 1818 C 168.255 -1.88499 0.845671 0
M  V30 1819 C 168.663 -1.79218 -0.606432 0
M  V30 1820 O 168.006 -1.1544 -1.42896 0
M  V30 1821 C 168.068 -3.38954 1.19793 0
M  V30 1822 C 167.732 -3.72018 2.65428 0
M  V30 1823 C 168.729 -3.7153 3.63677 0
M  V30 1824 C 166.414 -4.01775 3.01467 0
M  V30 1825 C 168.408 -4.00336 4.95994 0
M  V30 1826 C 166.095 -4.30243 4.33975 0
M  V30 1827 C 167.093 -4.29508 5.31048 0
M  V30 1828 O 166.781 -4.5728 6.61173 0
M  V30 1829 H 166.513 -0.603702 0.304171 0
M  V30 1830 H 169.067 -1.44903 1.45576 0
M  V30 1831 H 167.297 -3.83039 0.530871 0
M  V30 1832 H 168.986 -3.95052 0.932146 0
M  V30 1833 H 169.752 -3.4862 3.37179 0
M  V30 1834 H 165.631 -4.01496 2.26544 0
M  V30 1835 H 169.175 -3.99678 5.71755 0
M  V30 1836 H 165.072 -4.52625 4.60219 0
M  V30 1837 H 165.84 -4.74964 6.66597 0
M  V30 1838 N 168.503 -0.877838 -1.30888 0
M  V30 1839 C 169.914 -0.544193 -1.78593 0
M  V30 1840 C 170.265 0.939301 -1.72254 0
M  V30 1841 O 169.39 1.7337 -1.29505 0
M  V30 1842 C 169.985 -0.98105 -3.24285 0
M  V30 1843 C 168.544 -0.698935 -3.69854 0
M  V30 1844 C 167.691 -1.168 -2.51502 0
M  V30 1845 H 170.642 -1.06278 -1.17859 0
M  V30 1846 H 170.663 -0.307009 -3.79259 0
M  V30 1847 H 170.175 -2.06079 -3.28866 0
M  V30 1848 H 168.276 0.369112 -3.70767 0
M  V30 1849 H 168.389 -1.28148 -4.61644 0
M  V30 1850 H 166.753 -0.587535 -2.47831 0
M  V30 1851 H 167.536 -2.25533 -2.58824 0
M  V30 1852 N 169.982 1.44106 -0.638065 0
M  V30 1853 C 170.912 2.33448 0.0494287 0
M  V30 1854 C 171.893 1.48606 0.827672 0
M  V30 1855 O 173.078 1.77308 0.792173 0
M  V30 1856 C 170.208 3.31771 1.02691 0
M  V30 1857 C 169.162 4.26485 0.359823 0
M  V30 1858 C 168.488 5.14729 1.44769 0
M  V30 1859 C 169.788 5.17056 -0.738296 0
M  V30 1860 H 171.482 2.91183 -0.696636 0
M  V30 1861 H 169.028 1.40014 -0.336456 0
M  V30 1862 H 170.981 3.93161 1.51666 0
M  V30 1863 H 169.705 2.7226 1.80395 0
M  V30 1864 H 168.364 3.66437 -0.10934 0
M  V30 1865 H 168.012 4.51566 2.21578 0
M  V30 1866 H 167.712 5.78913 1.00668 0
M  V30 1867 H 169.236 5.78991 1.93911 0
M  V30 1868 H 170.65 5.72342 -0.331354 0
M  V30 1869 H 169.047 5.89879 -1.10286 0
M  V30 1870 H 170.117 4.57652 -1.60258 0
M  V30 1871 N 171.46 0.379036 1.52974 0
M  V30 1872 C 172.708 -0.206014 2.01047 0
M  V30 1873 C 173.029 -1.48175 1.26765 0
M  V30 1874 O 172.299 -1.92085 0.384743 0
M  V30 1875 H 170.879 -0.0791184 0.742798 0
M  V30 1876 H 173.541 0.508366 1.88153 0
M  V30 1877 H 172.637 -0.423501 3.09213 0
M  V30 1878 N 172.938 -1.57226 0.108567 0
M  V30 1879 C 174.163 -1.99604 -0.563303 0
M  V30 1880 C 174.588 -0.987563 -1.6009 0
M  V30 1881 O 173.946 0.0421687 -1.81251 0
M  V30 1882 C 173.994 -3.40902 -1.17552 0
M  V30 1883 O 173.098 -3.42896 -2.2912 0
M  V30 1884 H 172.439 -0.648704 -0.1417 0
M  V30 1885 H 174.969 -2.03679 0.193961 0
M  V30 1886 H 174.979 -3.78886 -1.51357 0
M  V30 1887 H 173.654 -4.1382 -0.415445 0
M  V30 1888 H 172.231 -3.1672 -1.96832 0
M  V30 1889 N 174.416 0.165178 -1.56732 0
M  V30 1890 C 175.644 0.896218 -1.86482 0
M  V30 1891 C 176.059 1.75555 -0.694675 0
M  V30 1892 O 175.416 1.79379 0.33607 0
M  V30 1893 C 175.467 1.76792 -3.1532 0
M  V30 1894 O 175.188 0.943239 -4.27825 0
M  V30 1895 C 176.689 2.6081 -3.58459 0
M  V30 1896 H 173.909 0.260064 -0.618553 0
M  V30 1897 H 176.453 0.163428 -2.03846 0
M  V30 1898 H 174.608 2.45398 -2.99764 0
M  V30 1899 H 175.022 1.53998 -5.01383 0
M  V30 1900 H 176.496 3.17579 -4.51495 0
M  V30 1901 H 176.973 3.35977 -2.82872 0
M  V30 1902 H 177.579 1.97526 -3.76648 0
M  V30 1903 N 175.894 1.51508 0.433938 0
M  V30 1904 C 176.824 1.76016 1.53429 0
M  V30 1905 C 177.805 0.610112 1.58782 0
M  V30 1906 O 178.99 0.853177 1.74455 0
M  V30 1907 C 176.12 1.88831 2.9148 0
M  V30 1908 C 175.074 3.04288 3.00987 0
M  V30 1909 C 174.4 3.0229 4.4105 0
M  V30 1910 C 175.7 4.44193 2.74754 0
M  V30 1911 H 177.394 2.68152 1.33171 0
M  V30 1912 H 174.94 1.29035 0.639214 0
M  V30 1913 H 176.893 2.04559 3.6842 0
M  V30 1914 H 175.617 0.933455 3.12976 0
M  V30 1915 H 174.276 2.8827 2.26486 0
M  V30 1916 H 173.924 2.04576 4.59519 0
M  V30 1917 H 173.624 3.79822 4.4834 0
M  V30 1918 H 175.148 3.20116 5.1996 0
M  V30 1919 H 176.562 4.60544 3.41426 0
M  V30 1920 H 174.959 5.23457 2.9345 0
M  V30 1921 H 176.029 4.53996 1.70339 0
M  V30 1922 N 177.372 -0.689602 1.41712 0
M  V30 1923 C 178.619 -1.44966 1.4139 0
M  V30 1924 C 178.947 -1.94484 0.025105 0
M  V30 1925 O 178.202 -1.70307 -0.964048 0
M  V30 1926 C 178.501 -2.67298 2.37247 0
M  V30 1927 C 178.167 -2.36405 3.83958 0
M  V30 1928 C 176.829 -2.27691 4.23923 0
M  V30 1929 C 179.181 -2.11043 4.76561 0
M  V30 1930 C 176.509 -1.91719 5.54492 0
M  V30 1931 C 178.861 -1.76578 6.07456 0
M  V30 1932 C 177.525 -1.66363 6.46436 0
M  V30 1933 H 176.795 -0.53047 0.517381 0
M  V30 1934 H 179.442 -0.787655 1.74552 0
M  V30 1935 H 177.747 -3.38461 1.9736 0
M  V30 1936 H 179.444 -3.25452 2.34269 0
M  V30 1937 H 176.034 -2.44085 3.52308 0
M  V30 1938 H 180.218 -2.16717 4.46483 0
M  V30 1939 H 175.474 -1.82367 5.83568 0
M  V30 1940 H 179.648 -1.55974 6.78708 0
M  V30 1941 H 177.275 -1.38258 7.47522 0
M  V30 1942 N 178.85 -1.27639 -0.924453 0
M  V30 1943 C 179.76 -1.12466 -2.05885 0
M  V30 1944 C 180.776 -0.053869 -1.73917 0
M  V30 1945 O 181.952 -0.261012 -1.99702 0
M  V30 1946 C 179.017 -0.776768 -3.37886 0
M  V30 1947 C 178.078 -1.92878 -3.83532 0
M  V30 1948 C 177.311 -1.59739 -5.09234 0
M  V30 1949 O 177.534 -0.506782 -5.68144 0
M  V30 1950 O 176.468 -2.43761 -5.50331 0
M  V30 1951 H 180.294 -2.07671 -2.21599 0
M  V30 1952 H 177.879 -1.06857 -1.04413 0
M  V30 1953 H 179.761 -0.596229 -4.17161 0
M  V30 1954 H 178.436 0.145732 -3.23372 0
M  V30 1955 H 177.343 -2.1644 -3.0513 0
M  V30 1956 H 178.676 -2.8316 -4.02593 0
M  V30 1957 N 180.328 1.1314 -1.09713 0
M  V30 1958 C 181.238 2.22242 -0.751367 0
M  V30 1959 C 182.254 1.72224 0.247938 0
M  V30 1960 O 183.43 2.01205 0.0885463 0
M  V30 1961 C 180.495 3.46231 -0.180274 0
M  V30 1962 C 179.556 4.11125 -1.2359 0
M  V30 1963 C 178.789 5.29195 -0.691966 0
M  V30 1964 O 179.012 5.68342 0.48414 0
M  V30 1965 O 177.946 5.84214 -1.44838 0
M  V30 1966 H 181.772 2.54197 -1.66186 0
M  V30 1967 H 179.357 1.21331 -0.871735 0
M  V30 1968 H 181.239 4.21185 0.134739 0
M  V30 1969 H 179.914 3.1597 0.703185 0
M  V30 1970 H 178.821 3.37985 -1.60366 0
M  V30 1971 H 180.154 4.45524 -2.09211 0
M  V30 1972 N 181.806 0.884767 1.30421 0
M  V30 1973 C 183.053 0.503105 1.96151 0
M  V30 1974 C 183.381 -0.947676 1.69851 0
M  V30 1975 O 182.636 -1.68467 0.995861 0
M  V30 1976 C 182.935 0.724318 3.49983 0
M  V30 1977 C 182.601 2.15015 3.96332 0
M  V30 1978 C 181.263 2.54005 4.08699 0
M  V30 1979 C 183.615 3.07936 4.20505 0
M  V30 1980 C 180.943 3.85128 4.42599 0
M  V30 1981 C 183.295 4.3859 4.55874 0
M  V30 1982 C 181.959 4.77474 4.66449 0
M  V30 1983 H 181.229 0.184099 0.717766 0
M  V30 1984 H 183.876 1.12058 1.55291 0
M  V30 1985 H 182.181 0.0238086 3.91793 0
M  V30 1986 H 183.878 0.408617 3.98913 0
M  V30 1987 H 180.468 1.8375 3.87213 0
M  V30 1988 H 184.652 2.79033 4.10431 0
M  V30 1989 H 179.908 4.14996 4.48986 0
M  V30 1990 H 184.082 5.10629 4.7353 0
M  V30 1991 H 181.709 5.79115 4.92473 0
M  V30 1992 N 183.284 -1.43765 0.645699 0
M  V30 1993 C 184.514 -2.05953 0.163318 0
M  V30 1994 C 184.922 -1.48432 -1.17322 0
M  V30 1995 O 184.265 -0.607295 -1.73371 0
M  V30 1996 C 184.327 -3.59499 -0.0103065 0
M  V30 1997 C 183.991 -4.39563 1.25035 0
M  V30 1998 C 184.988 -4.72108 2.17739 0
M  V30 1999 C 182.673 -4.79697 1.48983 0
M  V30 2000 C 184.667 -5.43688 3.3269 0
M  V30 2001 C 182.354 -5.51023 2.64229 0
M  V30 2002 C 183.352 -5.8294 3.55908 0
M  V30 2003 O 183.04 -6.5281 4.69142 0
M  V30 2004 H 182.772 -0.670798 0.0836986 0
M  V30 2005 H 185.326 -1.85384 0.884407 0
M  V30 2006 H 183.556 -3.78613 -0.78669 0
M  V30 2007 H 185.245 -4.03408 -0.449087 0
M  V30 2008 H 186.011 -4.41627 2.00476 0
M  V30 2009 H 181.89 -4.54266 0.785078 0
M  V30 2010 H 185.434 -5.68517 4.04269 0
M  V30 2011 H 181.331 -5.8092 2.81429 0
M  V30 2012 H 182.099 -6.71288 4.6831 0
M  V30 2013 N 184.763 -0.387143 -1.52771 0
M  V30 2014 C 185.673 0.456442 -2.30117 0
M  V30 2015 C 186.689 1.07342 -1.36944 0
M  V30 2016 O 187.865 1.07971 -1.70013 0
M  V30 2017 C 184.93 1.56957 -3.09136 0
M  V30 2018 C 183.991 0.977916 -4.18014 0
M  V30 2019 C 183.224 2.038 -4.93256 0
M  V30 2020 O 183.447 3.25271 -4.68567 0
M  V30 2021 O 182.381 1.6565 -5.78657 0
M  V30 2022 H 186.207 -0.17359 -3.03203 0
M  V30 2023 H 183.792 -0.150919 -1.48636 0
M  V30 2024 H 185.674 2.21628 -3.58412 0
M  V30 2025 H 184.349 2.18461 -2.38865 0
M  V30 2026 H 183.256 0.294525 -3.72939 0
M  V30 2027 H 184.589 0.407128 -4.90513 0
M  V30 2028 N 186.241 1.57166 -0.116904 0
M  V30 2029 C 187.189 2.16457 0.851418 0
M  V30 2030 C 188.183 1.11323 1.27686 0
M  V30 2031 O 189.389 1.2963 1.24884 0
M  V30 2032 H 185.764 0.69271 0.292672 0
M  V30 2033 H 187.735 2.96605 0.32685 0
M  V30 2034 C 186.484 2.77689 2.09246 0
M  V30 2035 H 185.807 3.58285 1.77402 0
M  V30 2036 H 187.247 3.22716 2.7501 0
M  V30 2037 C 185.706 1.74667 2.88085 0
M  V30 2038 O 186.236 1.19877 3.83396 0
M  V30 2039 N 184.442 1.44656 2.52038 0
M  V30 2040 H 183.989 1.89402 1.74599 0
M  V30 2041 H 183.947 0.759675 3.05084 0
M  V30 2042 N 187.719 -0.156864 1.56817 0
M  V30 2043 C 188.966 -0.871125 1.82805 0
M  V30 2044 C 189.294 -1.81611 0.696262 0
M  V30 2045 O 188.549 -1.93141 -0.315459 0
M  V30 2046 C 188.848 -1.68737 3.1506 0
M  V30 2047 C 188.514 -0.890045 4.42028 0
M  V30 2048 C 187.176 -0.670042 4.76512 0
M  V30 2049 C 189.528 -0.331769 5.20143 0
M  V30 2050 C 186.856 0.119104 5.86579 0
M  V30 2051 C 189.208 0.444365 6.31037 0
M  V30 2052 C 187.872 0.675035 6.64078 0
M  V30 2053 H 187.142 -0.318767 0.668931 0
M  V30 2054 H 189.789 -0.135274 1.91022 0
M  V30 2055 H 188.094 -2.49304 3.0225 0
M  V30 2056 H 189.791 -2.24331 3.3238 0
M  V30 2057 H 186.381 -1.07157 4.14988 0
M  V30 2058 H 190.565 -0.489043 4.93885 0
M  V30 2059 H 185.821 0.307417 6.10627 0
M  V30 2060 H 189.995 0.884139 6.90765 0
M  V30 2061 H 187.622 1.28839 7.49203 0
M  V30 2062 N 189.197 -1.51736 -0.425897 0
M  V30 2063 C 190.613 -1.40166 -0.76326 0
M  V30 2064 C 190.813 -0.492962 -1.95377 0
M  V30 2065 O 189.869 0.0475815 -2.52455 0
M  V30 2066 C 191.182 -2.82403 -1.03291 0
M  V30 2067 C 192.73 -2.91632 -1.13665 0
M  V30 2068 C 193.205 -4.34801 -1.43916 0
M  V30 2069 N 194.696 -4.3796 -1.50816 0
M  V30 2070 C 195.431 -5.4578 -1.75817 0
M  V30 2071 N 194.927 -6.63744 -1.98534 0
M  V30 2072 N 196.72 -5.33274 -1.77694 0
M  V30 2073 H 188.871 -2.09361 0.358 0
M  V30 2074 H 191.134 -0.942941 0.0978094 0
M  V30 2075 H 190.84 -3.50943 -0.230696 0
M  V30 2076 H 190.714 -3.22428 -1.95754 0
M  V30 2077 H 193.101 -2.23284 -1.92947 0
M  V30 2078 H 193.182 -2.55088 -0.190756 0
M  V30 2079 H 192.826 -5.03703 -0.65157 0
M  V30 2080 H 192.756 -4.68868 -2.39729 0
M  V30 2081 H 195.247 -3.52919 -1.35118 0
M  V30 2082 H 195.56 -7.41704 -2.17013 0
M  V30 2083 H 193.905 -6.66839 -1.95832 0
M  V30 2084 H 197.096 -4.40098 -1.59473 0
M  V30 2085 H 197.269 -6.1738 -1.9684 0
M  V30 2086 N 190.675 0.682077 -1.42076 0
M  V30 2087 C 191.585 1.82535 -1.47371 0
M  V30 2088 C 192.601 1.7017 -0.363079 0
M  V30 2089 O 193.777 1.91848 -0.612875 0
M  V30 2090 C 190.842 3.18624 -1.36674 0
M  V30 2091 C 189.903 3.42999 -2.58167 0
M  V30 2092 C 189.136 4.72595 -2.4797 0
M  V30 2093 O 189.359 5.50006 -1.5116 0
M  V30 2094 O 188.293 4.98054 -3.37974 0
M  V30 2095 H 192.119 1.81023 -2.43853 0
M  V30 2096 H 189.704 0.836887 -1.2376 0
M  V30 2097 H 191.586 3.99847 -1.33043 0
M  V30 2098 H 190.261 3.20789 -0.433138 0
M  V30 2099 H 189.168 2.61653 -2.67373 0
M  V30 2100 H 190.501 3.45659 -3.50401 0
M  V30 2101 N 192.153 1.28127 0.917671 0
M  V30 2102 C 193.381 1.17892 1.70026 0
M  V30 2103 C 193.796 -0.262958 1.8696 0
M  V30 2104 O 193.153 -1.17811 1.3938 0
M  V30 2105 C 193.204 1.86872 3.09453 0
M  V30 2106 O 192.925 3.25428 2.93306 0
M  V30 2107 C 194.426 1.8289 4.03815 0
M  V30 2108 H 191.646 0.40942 0.531617 0
M  V30 2109 H 194.19 1.69181 1.14883 0
M  V30 2110 H 192.345 1.39464 3.61426 0
M  V30 2111 H 192.759 3.59918 3.81523 0
M  V30 2112 H 194.233 2.35751 4.99125 0
M  V30 2113 H 194.71 0.800412 4.31845 0
M  V30 2114 H 195.316 2.29959 3.57769 0
M  V30 2115 N 193.631 -1.12557 1.10312 0
M  V30 2116 C 194.877 -1.84311 0.846011 0
M  V30 2117 C 195.21 -1.83805 -0.626859 0
M  V30 2118 O 194.485 -1.28268 -1.46211 0
M  V30 2119 C 194.768 -3.32048 1.39341 0
M  V30 2120 C 194.621 -3.41016 2.93305 0
M  V30 2121 C 195.94 -4.27764 1.03468 0
M  V30 2122 H 193.059 -0.669192 0.30879 0
M  V30 2123 H 195.701 -1.32057 1.36605 0
M  V30 2124 H 193.851 -3.76678 0.951087 0
M  V30 2125 H 195.523 -3.05031 3.46055 0
M  V30 2126 H 193.766 -2.81603 3.29973 0
M  V30 2127 H 194.437 -4.44948 3.26689 0
M  V30 2128 H 196.913 -3.91253 1.41633 0
M  V30 2129 H 195.789 -5.29549 1.44463 0
M  V30 2130 H 196.05 -4.42064 -0.0560404 0
M  V30 2131 N 195.109 -0.891671 -1.2995 0
M  V30 2132 C 196.019 -0.367691 -2.31701 0
M  V30 2133 C 197.035 0.533486 -1.6562 0
M  V30 2134 O 198.211 0.424997 -1.96865 0
M  V30 2135 C 195.276 0.403406 -3.44345 0
M  V30 2136 C 194.337 -0.528328 -4.26037 0
M  V30 2137 C 193.57 0.206063 -5.33302 0
M  V30 2138 O 193.793 1.43119 -5.52153 0
M  V30 2139 O 192.727 -0.447281 -6.00236 0
M  V30 2140 H 196.553 -1.21163 -2.78484 0
M  V30 2141 H 194.138 -0.655725 -1.34241 0
M  V30 2142 H 196.02 0.839753 -4.12948 0
M  V30 2143 H 194.695 1.22354 -2.99685 0
M  V30 2144 H 193.602 -1.01362 -3.60106 0
M  V30 2145 H 194.935 -1.31465 -4.74318 0
M  V30 2146 N 196.587 1.43421 -0.653314 0
M  V30 2147 C 197.836 2.01032 -0.164076 0
M  V30 2148 C 198.149 1.52147 1.22926 0
M  V30 2149 O 199.355 2.02031 1.81371 0
M  V30 2150 C 197.811 3.59082 -0.24252 0
M  V30 2151 C 197.419 4.1696 -1.63855 0
M  V30 2152 C 199.163 4.24079 0.18911 0
M  V30 2153 C 197.07 5.67304 -1.67092 0
M  V30 2154 H 196 0.751798 -0.0575769 0
M  V30 2155 H 198.651 1.6439 -0.815362 0
M  V30 2156 H 197.033 3.93125 0.476276 0
M  V30 2157 H 198.207 3.94416 -2.38271 0
M  V30 2158 H 196.522 3.64335 -2.01616 0
M  V30 2159 H 199.119 5.34381 0.184775 0
M  V30 2160 H 199.462 3.98005 1.22056 0
M  V30 2161 H 199.995 3.94918 -0.477938 0
M  V30 2162 H 196.734 5.98145 -2.68146 0
M  V30 2163 H 196.254 5.91904 -0.970014 0
M  V30 2164 H 197.933 6.31344 -1.4147 0
M  V30 2165 N 198.065 0.39524 1.52563 0
M  V30 2166 C 198.998 -0.4813 2.23067 0
M  V30 2167 C 199.976 -1.05927 1.23362 0
M  V30 2168 O 201.16 -1.10979 1.52368 0
M  V30 2169 C 198.287 -1.66676 2.9485 0
M  V30 2170 C 197.333 -1.21348 4.08873 0
M  V30 2171 S 198.166 -0.190102 5.35162 0
M  V30 2172 C 199.322 -1.38121 6.1047 0
M  V30 2173 H 199.555 0.117381 2.97068 0
M  V30 2174 H 197.088 0.179458 1.53354 0
M  V30 2175 H 199.046 -2.3466 3.36816 0
M  V30 2176 H 197.707 -2.23676 2.20518 0
M  V30 2177 H 196.9 -2.09877 4.58222 0
M  V30 2178 H 196.502 -0.612486 3.68951 0
M  V30 2179 H 198.794 -2.30726 6.37002 0
M  V30 2180 H 199.737 -0.928521 7.01986 0
M  V30 2181 H 200.145 -1.60071 5.41329 0
M  V30 2182 N 199.544 -1.57102 0.125237 0
M  V30 2183 C 200.79 -1.95697 -0.532035 0
M  V30 2184 C 201.123 -1.009 -1.6593 0
M  V30 2185 O 200.398 -0.047347 -1.94442 0
M  V30 2186 C 200.681 -3.44181 -1.05884 0
M  V30 2187 C 200.534 -4.49752 0.0654392 0
M  V30 2188 C 201.853 -3.94655 -1.9477 0
M  V30 2189 H 198.972 -0.711571 -0.191925 0
M  V30 2190 H 201.614 -1.88923 0.20206 0
M  V30 2191 H 199.764 -3.50085 -1.68442 0
M  V30 2192 H 201.436 -4.55943 0.700982 0
M  V30 2193 H 199.679 -4.27653 0.727709 0
M  V30 2194 H 200.35 -5.50924 -0.344505 0
M  V30 2195 H 202.826 -3.91094 -1.42074 0
M  V30 2196 H 201.702 -4.99057 -2.28546 0
M  V30 2197 H 201.963 -3.35718 -2.87656 0
M  V30 2198 N 201.022 0.148545 -1.56898 0
M  V30 2199 C 201.932 1.20293 -2.01412 0
M  V30 2200 C 202.948 1.47107 -0.929273 0
M  V30 2201 O 204.124 1.58807 -1.23863 0
M  V30 2202 C 201.189 2.51682 -2.38447 0
M  V30 2203 C 200.25 2.32529 -3.60872 0
M  V30 2204 C 199.483 3.57653 -3.96132 0
M  V30 2205 O 199.706 4.63771 -3.32073 0
M  V30 2206 O 198.64 3.50408 -4.89385 0
M  V30 2207 H 202.466 0.855025 -2.91416 0
M  V30 2208 H 200.051 0.357151 -1.45068 0
M  V30 2209 H 201.933 3.29147 -2.63135 0
M  V30 2210 H 200.608 2.86006 -1.51599 0
M  V30 2211 H 199.515 1.53019 -3.41373 0
M  V30 2212 H 200.848 2.03121 -4.48333 0
M  V30 2213 N 202.5 1.5196 0.417844 0
M  V30 2214 C 203.41 1.77554 1.53336 0
M  V30 2215 C 204.426 0.660655 1.6097 0
M  V30 2216 O 205.602 0.945099 1.77848 0
M  V30 2217 C 202.667 1.91291 2.89152 0
M  V30 2218 C 201.728 3.15183 2.91475 0
M  V30 2219 C 200.961 3.28256 4.20813 0
M  V30 2220 O 201.184 2.46798 5.14244 0
M  V30 2221 O 200.118 4.21356 4.29817 0
M  V30 2222 H 203.944 2.7222 1.34647 0
M  V30 2223 H 201.529 1.36698 0.602828 0
M  V30 2224 H 203.411 2.02199 3.69721 0
M  V30 2225 H 202.086 0.998129 3.07927 0
M  V30 2226 H 200.993 3.09739 2.09791 0
M  V30 2227 H 202.326 4.06414 2.77648 0
M  V30 2228 N 203.978 -0.674533 1.42435 0
M  V30 2229 C 205.226 -1.43175 1.42637 0
M  V30 2230 C 205.547 -1.94951 0.0438992 0
M  V30 2231 O 204.817 -1.7308 -0.917607 0
M  V30 2232 H 203.397 -0.531307 0.525092 0
M  V30 2233 H 206.059 -0.797006 1.77859 0
M  V30 2234 H 205.155 -2.28463 2.12629 0
M  V30 2235 N 205.456 -1.28612 -0.910864 0
M  V30 2236 C 206.702 -1.16106 -1.66274 0
M  V30 2237 C 207.035 0.289113 -1.92036 0
M  V30 2238 O 206.31 1.21 -1.52281 0
M  V30 2239 C 206.593 -1.96309 -3.01885 0
M  V30 2240 C 206.446 -3.49405 -2.8326 0
M  V30 2241 C 207.765 -1.78076 -4.02463 0
M  V30 2242 H 204.884 -0.423152 -0.603417 0
M  V30 2243 H 207.526 -1.57961 -1.05586 0
M  V30 2244 H 205.676 -1.60742 -3.53687 0
M  V30 2245 H 207.348 -3.94894 -2.38446 0
M  V30 2246 H 205.591 -3.74893 -2.18261 0
M  V30 2247 H 206.262 -4.00784 -3.79574 0
M  V30 2248 H 208.738 -2.0912 -3.59733 0
M  V30 2249 H 207.614 -2.36561 -4.95308 0
M  V30 2250 H 207.875 -0.733008 -4.35981 0
M  V30 2251 N 206.934 1.1197 -1.10907 0
M  V30 2252 C 208.211 1.79959 -0.766432 0
M  V30 2253 C 208.591 1.97466 0.746363 0
M  V30 2254 O 207.939 1.55491 1.67436 0
M  V30 2255 C 208.149 3.14009 -1.52314 0
M  V30 2256 C 209.497 3.89134 -1.69883 0
M  V30 2257 O 210.521 3.2368 -1.48692 0
M  V30 2258 O 209.38 5.06572 -2.05054 0
M  V30 2259 H 206.474 0.779208 -0.277062 0
M  V30 2260 H 209.02 1.18762 -1.21217 0
M  V30 2261 H 207.792 2.96587 -2.55249 0
M  V30 2262 H 207.415 3.82915 -1.07059 0
M  V30 2263 N 208.412 0.89855 1.29475 0
M  V30 2264 C 209.66 0.522847 1.9522 0
M  V30 2265 C 209.981 -0.93371 1.71192 0
M  V30 2266 O 209.251 -1.65823 1.04305 0
M  V30 2267 H 207.831 0.190366 0.722336 0
M  V30 2268 H 210.493 1.14459 1.5775 0
M  V30 2269 H 209.589 0.704476 3.04045 0
M  V30 2270 N 209.89 -1.43072 0.660911 0
M  V30 2271 C 211.139 -2.00942 0.174735 0
M  V30 2272 C 211.452 -1.52797 -1.22117 0
M  V30 2273 O 212.658 -2.02991 -1.80297 0
M  V30 2274 C 211.114 -3.58948 0.261559 0
M  V30 2275 C 210.722 -4.16085 1.66064 0
M  V30 2276 C 212.466 -4.24173 -0.166617 0
M  V30 2277 C 210.373 -5.6641 1.70098 0
M  V30 2278 H 209.303 -0.751483 0.0615631 0
M  V30 2279 H 211.954 -1.63955 0.824069 0
M  V30 2280 H 210.336 -3.93372 -0.455421 0
M  V30 2281 H 211.51 -3.93147 2.40359 0
M  V30 2282 H 209.825 -3.6326 2.03546 0
M  V30 2283 H 212.422 -5.34471 -0.156433 0
M  V30 2284 H 212.765 -3.98647 -1.19943 0
M  V30 2285 H 213.298 -3.94659 0.498875 0
M  V30 2286 H 210.037 -5.96715 2.71315 0
M  V30 2287 H 209.557 -5.91382 1.00139 0
M  V30 2288 H 211.236 -6.30585 1.44816 0
M  V30 2289 N 211.368 -0.403325 -1.52352 0
M  V30 2290 C 212.617 0.175668 -2.00934 0
M  V30 2291 C 212.93 1.46718 -1.29356 0
M  V30 2292 O 214.136 2.12708 -1.68724 0
M  V30 2293 C 212.592 0.363612 -3.58058 0
M  V30 2294 C 212.2 -0.915472 -4.38547 0
M  V30 2295 C 213.944 0.89821 -4.14888 0
M  V30 2296 C 211.851 -0.695035 -5.87302 0
M  V30 2297 H 210.781 0.0694234 -0.750797 0
M  V30 2298 H 213.432 -0.527879 -1.75743 0
M  V30 2299 H 211.814 1.12935 -3.79555 0
M  V30 2300 H 212.988 -1.68691 -4.28812 0
M  V30 2301 H 211.303 -1.37606 -3.93006 0
M  V30 2302 H 213.9 1.07907 -5.23699 0
M  V30 2303 H 214.243 1.87126 -3.71873 0
M  V30 2304 H 214.776 0.191681 -3.97338 0
M  V30 2305 H 211.515 -1.63948 -6.34666 0
M  V30 2306 H 211.035 0.0372116 -5.99788 0
M  V30 2307 H 212.714 -0.33497 -6.46132 0
M  V30 2308 N 212.846 1.57033 -0.133567 0
M  V30 2309 C 214.093 1.95686 0.520877 0
M  V30 2310 C 214.421 1.0177 1.6575 0
M  V30 2311 O 213.676 0.0443195 1.9565 0
M  V30 2312 C 213.975 3.40674 1.08057 0
M  V30 2313 C 213.641 4.50855 0.0637899 0
M  V30 2314 C 212.303 4.80716 -0.215757 0
M  V30 2315 C 214.655 5.17398 -0.62835 0
M  V30 2316 C 211.983 5.74433 -1.19348 0
M  V30 2317 C 214.335 6.12167 -1.5948 0
M  V30 2318 C 212.999 6.40414 -1.88218 0
M  V30 2319 H 212.269 0.716067 0.190602 0
M  V30 2320 H 214.916 1.9026 -0.217556 0
M  V30 2321 H 213.221 3.42865 1.89606 0
M  V30 2322 H 214.918 3.67902 1.59529 0
M  V30 2323 H 211.508 4.27605 0.291855 0
M  V30 2324 H 215.692 4.94472 -0.425562 0
M  V30 2325 H 210.948 5.94616 -1.42272 0
M  V30 2326 H 215.122 6.6281 -2.13671 0
M  V30 2327 H 212.749 7.12838 -2.64133 0
M  V30 2328 N 214.325 -0.140222 1.56975 0
M  V30 2329 C 215.235 -1.19223 2.02047 0
M  V30 2330 C 216.251 -1.46612 0.937062 0
M  V30 2331 O 217.427 -1.58148 1.24704 0
M  V30 2332 C 214.492 -2.50414 2.39778 0
M  V30 2333 C 213.553 -2.30612 3.621 0
M  V30 2334 C 212.786 -3.55547 3.98023 0
M  V30 2335 O 213.009 -4.62004 3.34528 0
M  V30 2336 O 211.943 -3.47808 4.91237 0
M  V30 2337 H 215.769 -0.839559 2.91865 0
M  V30 2338 H 213.354 -0.349453 1.45256 0
M  V30 2339 H 215.236 -3.27747 2.64877 0
M  V30 2340 H 213.911 -2.85198 1.53114 0
M  V30 2341 H 212.818 -1.51207 3.4218 0
M  V30 2342 H 214.151 -2.00741 4.49404 0
M  V30 2343 N 215.803 -1.52179 -0.40978 0
M  V30 2344 C 217.031 -1.70054 -1.17853 0
M  V30 2345 C 217.446 -0.409735 -1.843 0
M  V30 2346 O 216.803 0.614183 -1.71855 0
M  V30 2347 C 216.854 -2.83568 -2.24213 0
M  V30 2348 O 216.575 -4.0765 -1.60478 0
M  V30 2349 C 218.076 -3.12947 -3.13973 0
M  V30 2350 H 215.296 -0.569917 -0.354169 0
M  V30 2351 H 217.84 -1.98734 -0.482198 0
M  V30 2352 H 215.995 -2.57409 -2.89516 0
M  V30 2353 H 216.409 -4.70899 -2.30986 0
M  V30 2354 H 217.883 -3.95889 -3.84677 0
M  V30 2355 H 218.36 -2.26472 -3.76307 0
M  V30 2356 H 218.966 -3.40868 -2.5434 0
M  V30 2357 N 217.281 0.66697 -1.42791 0
M  V30 2358 C 218.528 1.42699 -1.43678 0
M  V30 2359 C 218.856 1.94419 -0.0560425 0
M  V30 2360 O 218.111 1.7182 0.936831 0
M  V30 2361 C 218.41 2.6349 -2.4147 0
M  V30 2362 C 218.076 2.30267 -3.8767 0
M  V30 2363 C 216.738 2.20918 -4.27491 0
M  V30 2364 C 219.09 2.03435 -4.79858 0
M  V30 2365 C 216.418 1.82873 -5.57471 0
M  V30 2366 C 218.77 1.66892 -6.10188 0
M  V30 2367 C 217.434 1.56058 -6.49001 0
M  V30 2368 H 216.704 0.522171 -0.525755 0
M  V30 2369 H 219.351 0.759785 -1.75783 0
M  V30 2370 H 217.656 3.35279 -2.0272 0
M  V30 2371 H 219.353 3.21684 -2.39417 0
M  V30 2372 H 215.943 2.38449 -3.56146 0
M  V30 2373 H 220.127 2.09586 -4.49875 0
M  V30 2374 H 215.383 1.7306 -5.86396 0
M  V30 2375 H 219.557 1.45157 -6.81104 0
M  V30 2376 H 217.184 1.26348 -7.49627 0
M  V30 2377 N 218.759 1.29093 0.90403 0
M  V30 2378 C 219.984 1.19809 1.69294 0
M  V30 2379 C 220.409 -0.238481 1.86582 0
M  V30 2380 O 219.767 -1.1723 1.383 0
M  V30 2381 C 219.815 1.91202 3.05736 0
M  V30 2382 O 218.919 1.22611 3.93752 0
M  V30 2383 H 218.26 0.415385 0.518027 0
M  V30 2384 H 220.79 1.70586 1.12967 0
M  V30 2385 H 220.8 1.99487 3.55906 0
M  V30 2386 H 219.475 2.95692 2.92471 0
M  V30 2387 H 218.052 1.22554 3.52186 0
M  V30 2388 N 220.237 -1.11381 1.11499 0
M  V30 2389 C 221.514 -1.7955 0.775965 0
M  V30 2390 C 221.894 -1.97859 -0.73588 0
M  V30 2391 O 221.242 -1.56376 -1.66609 0
M  V30 2392 C 221.452 -3.13196 1.53977 0
M  V30 2393 C 222.8 -3.88227 1.71944 0
M  V30 2394 O 223.824 -3.22887 1.50407 0
M  V30 2395 O 222.683 -5.05477 2.07738 0
M  V30 2396 H 219.777 -0.777728 0.28119 0
M  V30 2397 H 222.323 -1.18118 1.21845 0
M  V30 2398 H 221.095 -2.95229 2.56818 0
M  V30 2399 H 220.718 -3.82342 1.09088 0
M  V30 2400 N 221.715 -0.905404 -1.28997 0
M  V30 2401 C 222.964 -0.530191 -1.94607 0
M  V30 2402 C 223.277 0.929185 -1.72121 0
M  V30 2403 O 224.483 1.41218 -2.31883 0
M  V30 2404 C 222.939 -0.897333 -3.48534 0
M  V30 2405 C 222.547 -2.37587 -3.79811 0
M  V30 2406 C 224.291 -0.592304 -4.20347 0
M  V30 2407 C 222.198 -2.68357 -5.27009 0
M  V30 2408 H 221.128 -0.194558 -0.728466 0
M  V30 2409 H 223.779 -1.10318 -1.46636 0
M  V30 2410 H 222.161 -0.253214 -3.9519 0
M  V30 2411 H 223.335 -3.06602 -3.43994 0
M  V30 2412 H 221.65 -2.6505 -3.2115 0
M  V30 2413 H 224.247 -0.798975 -5.28697 0
M  V30 2414 H 224.59 0.469474 -4.13644 0
M  V30 2415 H 225.123 -1.19452 -3.79442 0
M  V30 2416 H 221.862 -3.73355 -5.38782 0
M  V30 2417 H 221.382 -2.03971 -5.64053 0
M  V30 2418 H 223.061 -2.54922 -5.94663 0
M  V30 2419 N 223.193 1.4272 -0.668489 0
M  V30 2420 C 224.123 2.335 -0.000100175 0
M  V30 2421 C 225.104 1.50328 0.795964 0
M  V30 2422 O 226.289 1.78949 0.754385 0
M  V30 2423 C 223.419 3.33874 0.956302 0
M  V30 2424 C 222.373 4.27152 0.269278 0
M  V30 2425 C 221.699 5.17684 1.33818 0
M  V30 2426 C 222.999 5.15373 -0.847805 0
M  V30 2427 H 224.693 2.89639 -0.758244 0
M  V30 2428 H 222.239 1.39269 -0.366079 0
M  V30 2429 H 224.192 3.9629 1.43292 0
M  V30 2430 H 222.916 2.76025 1.74579 0
M  V30 2431 H 221.575 3.66123 -0.187042 0
M  V30 2432 H 221.223 4.56165 2.1195 0
M  V30 2433 H 220.923 5.80918 0.883659 0
M  V30 2434 H 222.447 5.82974 1.81586 0
M  V30 2435 H 223.861 5.7151 -0.452681 0
M  V30 2436 H 222.258 5.87407 -1.22773 0
M  V30 2437 H 223.328 4.5415 -1.69929 0
M  V30 2438 N 224.671 0.411399 1.52136 0
M  V30 2439 C 225.581 -0.419774 2.30814 0
M  V30 2440 C 226.597 -1.0515 1.38634 0
M  V30 2441 O 227.773 -1.05252 1.71709 0
M  V30 2442 C 224.838 -1.52019 3.11594 0
M  V30 2443 C 223.899 -0.91129 4.19516 0
M  V30 2444 C 223.132 -1.95927 4.96436 0
M  V30 2445 O 223.355 -3.17775 4.73683 0
M  V30 2446 O 222.289 -1.56423 5.81219 0
M  V30 2447 H 226.115 0.221805 3.02889 0
M  V30 2448 H 223.7 0.174547 1.48377 0
M  V30 2449 H 225.582 -2.15898 3.61892 0
M  V30 2450 H 224.257 -2.14633 2.42311 0
M  V30 2451 H 223.164 -0.235157 3.7336 0
M  V30 2452 H 224.497 -0.32904 4.91099 0
M  V30 2453 N 226.149 -1.5696 0.141893 0
M  V30 2454 C 227.079 -2.19516 -0.795936 0
M  V30 2455 C 228.06 -1.14187 -1.26077 0
M  V30 2456 O 229.245 -1.42511 -1.31925 0
M  V30 2457 C 226.375 -2.81272 -2.03723 0
M  V30 2458 C 225.329 -3.92384 -1.70936 0
M  V30 2459 C 224.655 -4.41052 -3.02287 0
M  V30 2460 C 225.955 -5.13403 -0.959954 0
M  V30 2461 H 227.649 -2.98138 -0.274596 0
M  V30 2462 H 225.195 -1.43406 -0.130636 0
M  V30 2463 H 227.148 -3.237 -2.69808 0
M  V30 2464 H 225.872 -1.99973 -2.58221 0
M  V30 2465 H 224.531 -3.50566 -1.07232 0
M  V30 2466 H 224.179 -3.56582 -3.54765 0
M  V30 2467 H 223.879 -5.15993 -2.81114 0
M  V30 2468 H 225.403 -4.86146 -3.69451 0
M  V30 2469 H 226.817 -5.52706 -1.52279 0
M  V30 2470 H 225.214 -5.94073 -0.848357 0
M  V30 2471 H 226.284 -4.84875 0.0492434 0
M  V30 2472 N 227.627 0.131896 -1.57047 0
M  V30 2473 C 228.574 1.16236 -1.99393 0
M  V30 2474 C 229.544 1.41863 -0.863943 0
M  V30 2475 O 230.729 1.53946 -1.12718 0
M  V30 2476 C 227.869 2.48708 -2.39245 0
M  V30 2477 C 226.982 2.30127 -3.65603 0
M  V30 2478 C 226.117 3.55738 -3.94492 0
M  V30 2479 C 225.156 3.32259 -5.14073 0
M  V30 2480 N 224.293 4.50039 -5.38896 0
M  V30 2481 H 229.133 0.794251 -2.87221 0
M  V30 2482 H 226.67 0.380707 -1.42088 0
M  V30 2483 H 228.628 3.25969 -2.60384 0
M  V30 2484 H 227.258 2.83437 -1.54478 0
M  V30 2485 H 226.31 1.43845 -3.52154 0
M  V30 2486 H 227.622 2.08746 -4.5302 0
M  V30 2487 H 226.776 4.41423 -4.1621 0
M  V30 2488 H 225.515 3.80138 -3.05526 0
M  V30 2489 H 224.52 2.44963 -4.92212 0
M  V30 2490 H 225.745 3.09242 -6.04604 0
M  V30 2491 H 223.691 4.74584 -4.52886 0
M  V30 2492 H 223.608 4.31716 -6.2061 0
M  V30 2493 H 224.876 5.36895 -5.65123 0
M  V30 2494 N 229.106 1.52395 0.401703 0
M  V30 2495 C 230.069 1.75636 1.47257 0
M  V30 2496 C 231.069 0.62628 1.48103 0
M  V30 2497 O 232.259 0.894227 1.49497 0
M  V30 2498 C 229.391 1.84553 2.86624 0
M  V30 2499 H 230.584 2.71241 1.27938 0
M  V30 2500 H 228.137 1.42923 0.632662 0
M  V30 2501 H 228.872 0.908882 3.11303 0
M  V30 2502 H 228.657 2.66715 2.87412 0
M  V30 2503 H 230.147 2.04251 3.64241 0
M  V30 2504 N 230.584 -0.659388 1.43143 0
M  V30 2505 C 231.547 -1.75432 1.47501 0
M  V30 2506 C 232.547 -1.56707 0.360512 0
M  V30 2507 O 233.737 -1.62717 0.622002 0
M  V30 2508 C 230.869 -3.14239 1.32162 0
M  V30 2509 H 232.062 -1.7295 2.45006 0
M  V30 2510 H 229.615 -0.870469 1.29817 0
M  V30 2511 H 230.35 -3.22336 0.356401 0
M  V30 2512 H 230.135 -3.29235 2.12948 0
M  V30 2513 H 231.625 -3.94094 1.3813 0
M  V30 2514 N 232.062 -1.29571 -0.897171 0
M  V30 2515 C 233.308 -1.17863 -1.65034 0
M  V30 2516 C 233.641 0.268729 -1.92332 0
M  V30 2517 O 232.916 1.19378 -1.53555 0
M  V30 2518 C 233.199 -1.995 -2.99786 0
M  V30 2519 C 233.052 -3.5239 -2.79538 0
M  V30 2520 C 234.371 -1.82335 -4.00552 0
M  V30 2521 H 231.49 -0.429528 -0.598895 0
M  V30 2522 H 234.132 -1.59072 -1.03905 0
M  V30 2523 H 232.282 -1.64485 -3.51962 0
M  V30 2524 H 233.954 -3.97401 -2.34244 0
M  V30 2525 H 232.197 -3.77187 -2.14273 0
M  V30 2526 H 232.868 -4.04787 -3.75302 0
M  V30 2527 H 235.344 -2.12924 -3.57495 0
M  V30 2528 H 234.22 -2.41801 -4.92771 0
M  V30 2529 H 234.481 -0.779209 -4.35179 0
M  V30 2530 N 233.54 1.10788 -1.12088 0
M  V30 2531 C 234.47 2.19083 -0.807755 0
M  V30 2532 C 235.451 1.6858 0.226859 0
M  V30 2533 O 236.636 1.93997 0.0888475 0
M  V30 2534 C 233.766 3.46344 -0.257576 0
M  V30 2535 C 232.72 4.101 -1.22483 0
M  V30 2536 C 232.046 5.32016 -0.535052 0
M  V30 2537 C 233.346 4.54236 -2.57811 0
M  V30 2538 H 235.04 2.45534 -1.71328 0
M  V30 2539 H 232.586 1.1801 -0.825205 0
M  V30 2540 H 234.539 4.21392 -0.0262679 0
M  V30 2541 H 233.263 3.19373 0.683278 0
M  V30 2542 H 231.922 3.37054 -1.44189 0
M  V30 2543 H 231.57 5.01319 0.410827 0
M  V30 2544 H 231.27 5.75625 -1.18024 0
M  V30 2545 H 232.794 6.09799 -0.312695 0
M  V30 2546 H 234.208 5.20575 -2.40155 0
M  V30 2547 H 232.605 5.08682 -3.18375 0
M  V30 2548 H 233.675 3.6734 -3.16528 0
M  V30 2549 N 235.018 0.912232 1.28515 0
M  V30 2550 C 235.981 0.404223 2.25607 0
M  V30 2551 C 236.981 -0.468602 1.53821 0
M  V30 2552 O 238.171 -0.271873 1.72065 0
M  V30 2553 C 235.303 -0.420653 3.38295 0
M  V30 2554 H 236.496 1.26188 2.7206 0
M  V30 2555 H 234.049 0.691495 1.40171 0
M  V30 2556 H 234.784 -1.29777 2.97201 0
M  V30 2557 H 234.569 0.204935 3.91564 0
M  V30 2558 H 236.059 -0.766971 4.10496 0
M  V30 2559 N 236.496 -1.42363 0.676048 0
M  V30 2560 C 237.459 -2.29199 0.00766941 0
M  V30 2561 C 238.459 -1.43389 -0.727745 0
M  V30 2562 O 239.649 -1.64764 -0.56556 0
M  V30 2563 C 236.781 -3.2591 -0.999785 0
M  V30 2564 H 237.974 -2.89794 0.771988 0
M  V30 2565 H 235.527 -1.50024 0.438468 0
M  V30 2566 H 236.262 -2.70256 -1.79255 0
M  V30 2567 H 236.047 -3.89202 -0.475829 0
M  V30 2568 H 237.537 -3.91028 -1.46583 0
M  V30 2569 N 237.974 -0.419461 -1.51915 0
M  V30 2570 C 239.39 -0.0708431 -1.59443 0
M  V30 2571 C 239.59 1.41796 -1.43164 0
M  V30 2572 O 238.646 2.18596 -1.26381 0
M  V30 2573 C 239.959 -0.574991 -2.95151 0
M  V30 2574 C 241.507 -0.533867 -3.08413 0
M  V30 2575 C 241.982 -1.01469 -4.46618 0
M  V30 2576 N 243.473 -0.971939 -4.52888 0
M  V30 2577 C 244.208 -1.31505 -5.58116 0
M  V30 2578 N 243.704 -1.73014 -6.70849 0
M  V30 2579 N 245.497 -1.23436 -5.48379 0
M  V30 2580 H 237.648 -1.38836 -1.60743 0
M  V30 2581 H 239.911 -0.570998 -0.756747 0
M  V30 2582 H 239.617 -1.61597 -3.12377 0
M  V30 2583 H 239.491 0.00979777 -3.77199 0
M  V30 2584 H 241.878 0.498086 -2.90866 0
M  V30 2585 H 241.959 -1.15484 -2.28248 0
M  V30 2586 H 241.603 -2.04502 -4.6491 0
M  V30 2587 H 241.533 -0.370433 -5.25295 0
M  V30 2588 H 244.024 -0.666893 -3.71969 0
M  V30 2589 H 244.337 -1.97479 -7.47143 0
M  V30 2590 H 242.682 -1.76926 -6.72103 0
M  V30 2591 H 245.873 -0.908869 -4.59192 0
M  V30 2592 H 246.046 -1.50506 -6.30279 0
M  V30 2593 N 239.452 1.56882 -0.150215 0
M  V30 2594 C 240.362 2.20494 0.801222 0
M  V30 2595 C 241.378 1.19019 1.26927 0
M  V30 2596 O 242.554 1.51607 1.32579 0
M  V30 2597 C 239.619 2.81659 2.02161 0
M  V30 2598 C 238.68 3.9827 1.60249 0
M  V30 2599 C 237.913 4.56508 2.7647 0
M  V30 2600 O 238.136 4.13627 3.92771 0
M  V30 2601 O 237.07 5.46719 2.51757 0
M  V30 2602 H 240.896 3.02315 0.289717 0
M  V30 2603 H 238.481 1.49202 0.0769684 0
M  V30 2604 H 240.363 3.20522 2.73576 0
M  V30 2605 H 239.038 2.02849 2.52258 0
M  V30 2606 H 237.945 3.64117 0.858477 0
M  V30 2607 H 239.278 4.78609 1.14864 0
M  V30 2608 N 240.93 -0.123565 1.57115 0
M  V30 2609 C 242.176 -0.833386 1.84885 0
M  V30 2610 C 242.509 -1.79742 0.735292 0
M  V30 2611 O 241.784 -1.92764 -0.25925 0
M  V30 2612 C 242.067 -1.5873 3.23228 0
M  V30 2613 C 241.92 -0.643183 4.45178 0
M  V30 2614 C 243.239 -2.54453 3.59085 0
M  V30 2615 H 240.358 -0.301518 0.6725 0
M  V30 2616 H 243 -0.097778 1.89748 0
M  V30 2617 H 241.15 -2.21438 3.19214 0
M  V30 2618 H 242.822 -0.0253015 4.61293 0
M  V30 2619 H 241.065 0.0456139 4.33776 0
M  V30 2620 H 241.736 -1.20724 5.38637 0
M  V30 2621 H 244.212 -2.01853 3.63861 0
M  V30 2622 H 243.088 -3.04238 4.5687 0
M  V30 2623 H 243.349 -3.36906 2.86264 0
M  V30 2624 N 242.408 -1.52605 -0.393616 0
M  V30 2625 C 243.633 -1.71592 -1.16495 0
M  V30 2626 C 244.058 -0.43133 -1.83088 0
M  V30 2627 O 243.416 0.612523 -1.7064 0
M  V30 2628 C 243.464 -2.86318 -2.19213 0
M  V30 2629 O 242.568 -2.52969 -3.257 0
M  V30 2630 H 241.909 -0.570734 -0.33935 0
M  V30 2631 H 244.439 -1.99377 -0.459324 0
M  V30 2632 H 244.449 -3.1168 -2.63286 0
M  V30 2633 H 243.124 -3.79511 -1.7013 0
M  V30 2634 H 241.701 -2.38332 -2.86797 0
M  V30 2635 N 243.887 0.651787 -1.4349 0
M  V30 2636 C 245.303 0.96762 -1.26922 0
M  V30 2637 C 245.503 2.00602 -0.189982 0
M  V30 2638 O 244.559 2.48793 0.431107 0
M  V30 2639 C 245.872 1.45052 -2.63401 0
M  V30 2640 C 247.42 1.5671 -2.70945 0
M  V30 2641 C 247.895 2.0839 -4.07845 0
M  V30 2642 N 249.386 2.1569 -4.09917 0
M  V30 2643 C 250.121 2.56804 -5.12679 0
M  V30 2644 N 249.617 2.97203 -6.25813 0
M  V30 2645 N 251.41 2.56756 -5.00033 0
M  V30 2646 H 243.561 -0.0353158 -2.12371 0
M  V30 2647 H 245.824 0.0467858 -0.946845 0
M  V30 2648 H 245.53 0.761926 -3.43348 0
M  V30 2649 H 245.404 2.42529 -2.88894 0
M  V30 2650 H 247.791 2.2467 -1.9133 0
M  V30 2651 H 247.872 0.57662 -2.49216 0
M  V30 2652 H 247.516 1.41031 -4.87927 0
M  V30 2653 H 247.446 3.08271 -4.26938 0
M  V30 2654 H 249.937 1.87237 -3.28254 0
M  V30 2655 H 250.25 3.27328 -7.00055 0
M  V30 2656 H 248.595 2.95004 -6.29283 0
M  V30 2657 H 251.786 2.24572 -4.10713 0
M  V30 2658 H 251.959 2.88475 -5.80247 0
M  V30 2659 N 245.365 1.30045 0.890287 0
M  V30 2660 C 246.642 1.09227 1.62262 0
M  V30 2661 C 247.022 -0.360305 2.08002 0
M  V30 2662 O 246.37 -1.35084 1.84295 0
M  V30 2663 C 246.58 2.08835 2.79623 0
M  V30 2664 C 247.928 2.40266 3.50082 0
M  V30 2665 O 248.952 2.07104 2.89804 0
M  V30 2666 O 247.811 2.96967 4.58773 0
M  V30 2667 H 244.905 0.419132 0.712922 0
M  V30 2668 H 247.451 1.41451 0.937529 0
M  V30 2669 H 246.223 3.06633 2.43089 0
M  V30 2670 H 245.846 1.77397 3.55832 0
M  V30 2671 N 246.843 -1.10192 1.12674 0
M  V30 2672 C 248.089 -1.82475 0.884915 0
M  V30 2673 C 248.422 -1.85093 -0.58773 0
M  V30 2674 O 247.697 -1.3134 -1.43457 0
M  V30 2675 C 247.98 -3.29018 1.46353 0
M  V30 2676 C 247.833 -3.34718 3.00473 0
M  V30 2677 C 249.152 -4.25473 1.12519 0
M  V30 2678 H 246.271 -0.662492 0.322915 0
M  V30 2679 H 248.913 -1.2913 1.39375 0
M  V30 2680 H 247.063 -3.74576 1.03077 0
M  V30 2681 H 248.735 -2.97622 3.52447 0
M  V30 2682 H 246.978 -2.74541 3.35872 0
M  V30 2683 H 247.649 -4.37918 3.36053 0
M  V30 2684 H 250.125 -3.88161 1.499 0
M  V30 2685 H 249.001 -5.26365 1.55663 0
M  V30 2686 H 249.262 -4.42084 0.0377407 0
M  V30 2687 N 248.321 -0.919034 -1.28029 0
M  V30 2688 C 249.568 -0.554934 -1.94748 0
M  V30 2689 C 249.896 0.90231 -1.72304 0
M  V30 2690 O 249.151 1.65767 -1.04018 0
M  V30 2691 C 249.45 -0.816855 -3.4794 0
M  V30 2692 C 249.116 -2.25448 -3.90492 0
M  V30 2693 C 247.778 -2.64752 -4.01821 0
M  V30 2694 C 250.13 -3.18977 -4.12193 0
M  V30 2695 C 247.458 -3.96727 -4.32232 0
M  V30 2696 C 249.81 -4.50523 -4.44086 0
M  V30 2697 C 248.474 -4.89673 -4.53626 0
M  V30 2698 H 247.744 -0.203065 -0.712633 0
M  V30 2699 H 250.391 -1.16136 -1.52265 0
M  V30 2700 H 248.696 -0.127677 -3.91592 0
M  V30 2701 H 250.393 -0.514238 -3.97689 0
M  V30 2702 H 246.983 -1.93952 -3.82205 0
M  V30 2703 H 251.167 -2.89817 -4.02889 0
M  V30 2704 H 246.423 -4.26754 -4.37825 0
M  V30 2705 H 250.597 -5.23005 -4.59825 0
M  V30 2706 H 248.224 -5.91969 -4.76946 0
M  V30 2707 N 249.799 1.42003 -0.683588 0
M  V30 2708 C 250.729 2.33487 -0.024866 0
M  V30 2709 C 251.71 1.51163 0.779975 0
M  V30 2710 O 252.895 1.79739 0.735362 0
M  V30 2711 C 250.025 3.3487 0.920836 0
M  V30 2712 C 248.979 4.27414 0.223958 0
M  V30 2713 C 248.305 5.19074 1.2832 0
M  V30 2714 C 249.605 5.14445 -0.90242 0
M  V30 2715 H 251.299 2.88819 -0.788921 0
M  V30 2716 H 248.845 1.38873 -0.38083 0
M  V30 2717 H 250.798 3.97787 1.39081 0
M  V30 2718 H 249.522 2.77861 1.71642 0
M  V30 2719 H 248.181 3.65904 -0.225864 0
M  V30 2720 H 247.829 4.58387 2.071 0
M  V30 2721 H 247.529 5.81822 0.821995 0
M  V30 2722 H 249.053 5.84867 1.75392 0
M  V30 2723 H 250.467 5.70998 -0.513272 0
M  V30 2724 H 248.864 5.86072 -1.28997 0
M  V30 2725 H 249.934 4.52322 -1.74737 0
M  V30 2726 N 251.277 0.427512 1.51691 0
M  V30 2727 C 252.526 -0.143679 2.01188 0
M  V30 2728 C 252.839 -1.44642 1.31674 0
M  V30 2729 O 254.045 -2.09997 1.72086 0
M  V30 2730 C 252.501 -0.306602 3.58592 0
M  V30 2731 C 252.109 0.985125 4.37035 0
M  V30 2732 C 253.853 -0.832091 4.16265 0
M  V30 2733 C 251.76 0.788382 5.86122 0
M  V30 2734 H 250.69 -0.0574701 0.751807 0
M  V30 2735 H 253.341 0.555772 1.74881 0
M  V30 2736 H 251.723 -1.06882 3.81303 0
M  V30 2737 H 252.897 1.75492 4.26074 0
M  V30 2738 H 251.212 1.4384 3.90767 0
M  V30 2739 H 253.809 -0.995617 5.25349 0
M  V30 2740 H 254.152 -1.81186 3.74803 0
M  V30 2741 H 254.685 -0.128444 3.97593 0
M  V30 2742 H 251.424 1.74025 6.31978 0
M  V30 2743 H 250.944 0.0582143 5.99772 0
M  V30 2744 H 252.623 0.437722 6.45518 0
M  V30 2745 N 252.755 -1.56801 0.158532 0
M  V30 2746 C 253.718 -2.16138 -0.762705 0
M  V30 2747 C 254.718 -1.1061 -1.16713 0
M  V30 2748 O 255.908 -1.36191 -1.08617 0
M  V30 2749 C 253.04 -2.73386 -2.03649 0
M  V30 2750 H 254.233 -2.98886 -0.246354 0
M  V30 2751 H 251.786 -1.56035 -0.0909744 0
M  V30 2752 H 252.521 -1.94335 -2.59623 0
M  V30 2753 H 252.306 -3.50601 -1.75559 0
M  V30 2754 H 253.796 -3.19065 -2.6942 0
M  V30 2755 N 254.233 0.115231 -1.57178 0
M  V30 2756 C 255.183 1.14707 -1.97044 0
M  V30 2757 C 256.167 1.36866 -0.845957 0
M  V30 2758 O 257.359 1.37895 -1.10968 0
M  V30 2759 C 254.488 2.47266 -2.38148 0
M  V30 2760 C 253.574 2.28566 -3.57237 0
M  V30 2761 N 253.965 1.79685 -4.72807 0
M  V30 2762 C 252.263 2.59208 -3.62943 0
M  V30 2763 C 252.964 1.74781 -5.54821 0
M  V30 2764 N 251.94 2.19264 -4.97417 0
M  V30 2765 H 255.742 0.761754 -2.83857 0
M  V30 2766 H 253.256 0.322928 -1.59157 0
M  V30 2767 H 255.253 3.219 -2.64927 0
M  V30 2768 H 253.913 2.86552 -1.52702 0
M  V30 2769 H 254.924 1.49177 -4.9595 0
M  V30 2770 H 251.601 3.02154 -2.88113 0
M  V30 2771 H 252.991 1.38212 -6.57531 0
M  V30 2772 N 255.711 1.52812 0.385517 0
M  V30 2773 C 256.644 1.72592 1.49289 0
M  V30 2774 C 257.622 0.573819 1.52138 0
M  V30 2775 O 258.806 0.80404 1.70492 0
M  V30 2776 C 255.933 1.78669 2.87741 0
M  V30 2777 C 254.979 3.00455 3.02703 0
M  V30 2778 S 255.812 4.60366 2.73538 0
M  V30 2779 C 256.968 4.69263 4.14177 0
M  V30 2780 H 257.201 2.66248 1.32285 0
M  V30 2781 H 254.734 1.43148 0.578611 0
M  V30 2782 H 256.692 1.82855 3.67524 0
M  V30 2783 H 255.353 0.861 3.02069 0
M  V30 2784 H 254.546 3.01258 4.04054 0
M  V30 2785 H 254.148 2.94278 2.30817 0
M  V30 2786 H 256.44 4.48092 5.08153 0
M  V30 2787 H 257.383 5.71276 4.18388 0
M  V30 2788 H 257.791 3.98072 4.00249 0
M  V30 2789 N 257.189 -0.644168 1.43834 0
M  V30 2790 C 258.417 -1.43147 1.49387 0
M  V30 2791 C 258.832 -1.88452 0.114583 0
M  V30 2792 O 258.189 -1.60047 -0.876989 0
M  V30 2793 C 258.24 -2.66046 2.44748 0
M  V30 2794 O 257.961 -2.22633 3.77314 0
M  V30 2795 C 259.462 -3.59311 2.59635 0
M  V30 2796 H 256.682 -0.439447 0.507077 0
M  V30 2797 H 259.226 -0.78895 1.88669 0
M  V30 2798 H 257.381 -3.26418 2.08638 0
M  V30 2799 H 257.795 -3.02216 4.28679 0
M  V30 2800 H 259.269 -4.42187 3.30416 0
M  V30 2801 H 259.746 -4.07259 1.64427 0
M  V30 2802 H 260.352 -3.04816 2.96593 0
M  V30 2803 N 258.668 -1.30515 -0.883378 0
M  V30 2804 C 259.915 -1.1943 -1.63532 0
M  V30 2805 C 260.243 0.250627 -1.92878 0
M  V30 2806 O 259.498 1.19556 -1.54935 0
M  V30 2807 C 259.797 -1.96994 -2.98209 0
M  V30 2808 C 259.463 -3.466 -2.88408 0
M  V30 2809 C 258.125 -3.87397 -2.85442 0
M  V30 2810 C 260.477 -4.41863 -2.76418 0
M  V30 2811 C 257.805 -5.21745 -2.68327 0
M  V30 2812 C 260.157 -5.7632 -2.60841 0
M  V30 2813 C 258.821 -6.16354 -2.56251 0
M  V30 2814 H 258.091 -0.437025 -0.598406 0
M  V30 2815 H 260.738 -1.61635 -1.02696 0
M  V30 2816 H 259.043 -1.47429 -3.63004 0
M  V30 2817 H 260.74 -1.85808 -3.55354 0
M  V30 2818 H 257.33 -3.14182 -2.91527 0
M  V30 2819 H 261.514 -4.11285 -2.77775 0
M  V30 2820 H 256.77 -5.51853 -2.63189 0
M  V30 2821 H 260.944 -6.49772 -2.50538 0
M  V30 2822 H 258.571 -7.20401 -2.42748 0
M  V30 2823 N 260.146 1.09593 -1.13257 0
M  V30 2824 C 261.423 1.78293 -0.804432 0
M  V30 2825 C 261.803 1.99004 0.70431 0
M  V30 2826 O 261.151 1.59007 1.641 0
M  V30 2827 C 261.361 3.10707 -1.5894 0
M  V30 2828 C 262.709 3.85443 -1.78099 0
M  V30 2829 O 263.733 3.20454 -1.55525 0
M  V30 2830 O 262.592 5.02108 -2.15753 0
M  V30 2831 H 259.686 0.773156 -0.293528 0
M  V30 2832 H 262.232 1.16164 -1.23709 0
M  V30 2833 H 261.004 2.91106 -2.61482 0
M  V30 2834 H 260.627 3.80558 -1.15157 0
M  V30 2835 N 261.624 0.925811 1.2754 0
M  V30 2836 C 262.534 0.428993 2.30644 0
M  V30 2837 C 263.55 -0.489387 1.66976 0
M  V30 2838 O 264.726 -0.372653 1.97922 0
M  V30 2839 C 261.791 -0.311967 3.45294 0
M  V30 2840 C 260.852 0.641098 4.24486 0
M  V30 2841 C 260.085 -0.0645955 5.33661 0
M  V30 2842 O 260.308 -1.28429 5.55754 0
M  V30 2843 O 259.242 0.606265 5.98839 0
M  V30 2844 H 263.068 1.28504 2.75173 0
M  V30 2845 H 260.653 0.691086 1.32455 0
M  V30 2846 H 262.535 -0.729972 4.15029 0
M  V30 2847 H 261.21 -1.14365 3.02824 0
M  V30 2848 H 260.117 1.10874 3.57292 0
M  V30 2849 H 261.45 1.43995 4.70666 0
M  V30 2850 N 263.102 -1.41638 0.69111 0
M  V30 2851 C 264.049 -2.30789 0.0229705 0
M  V30 2852 C 265.019 -1.46863 -0.775911 0
M  V30 2853 O 266.204 -1.75661 -0.74485 0
M  V30 2854 C 263.344 -3.32868 -0.910666 0
M  V30 2855 C 262.457 -4.31875 -0.103874 0
M  V30 2856 C 261.592 -5.21024 -1.03475 0
M  V30 2857 C 260.631 -6.11702 -0.220598 0
M  V30 2858 N 259.768 -6.93349 -1.10504 0
M  V30 2859 H 264.608 -2.87366 0.788978 0
M  V30 2860 H 262.145 -1.41535 0.400794 0
M  V30 2861 H 264.103 -3.90596 -1.46597 0
M  V30 2862 H 262.733 -2.77851 -1.64312 0
M  V30 2863 H 261.785 -3.76131 0.568285 0
M  V30 2864 H 263.097 -4.96003 0.527504 0
M  V30 2865 H 262.251 -5.83565 -1.65943 0
M  V30 2866 H 260.99 -4.57112 -1.69999 0
M  V30 2867 H 259.995 -5.48215 0.417187 0
M  V30 2868 H 261.22 -6.77668 0.440784 0
M  V30 2869 H 259.166 -6.3205 -1.75638 0
M  V30 2870 H 259.083 -7.54146 -0.529125 0
M  V30 2871 H 260.351 -7.60362 -1.71667 0
M  V30 2872 N 264.58 -0.43555 -1.51462 0
M  V30 2873 C 265.828 0.131254 -2.01673 0
M  V30 2874 C 266.149 1.43368 -1.32177 0
M  V30 2875 O 265.419 1.90524 -0.455769 0
M  V30 2876 H 263.999 0.0514954 -0.745223 0
M  V30 2877 H 266.661 -0.577847 -1.86137 0
M  V30 2878 H 265.757 0.308446 -3.10572 0
M  V30 2879 N 266.058 1.56714 -0.166846 0
M  V30 2880 C 267.474 1.58473 0.189372 0
M  V30 2881 C 267.674 1.18201 1.63189 0
M  V30 2882 O 266.73 0.891528 2.36237 0
M  V30 2883 C 268.043 3.00573 -0.0873872 0
M  V30 2884 C 269.591 3.1299 -0.0252443 0
M  V30 2885 C 270.066 4.57174 -0.274934 0
M  V30 2886 N 271.557 4.62665 -0.222553 0
M  V30 2887 C 272.292 5.72072 -0.389985 0
M  V30 2888 N 271.788 6.90054 -0.616229 0
M  V30 2889 N 273.581 5.61153 -0.326202 0
M  V30 2890 H 265.732 1.8118 -1.10849 0
M  V30 2891 H 267.995 0.839525 -0.440342 0
M  V30 2892 H 267.701 3.34497 -1.0865 0
M  V30 2893 H 267.575 3.72019 0.623037 0
M  V30 2894 H 269.962 2.78895 0.96444 0
M  V30 2895 H 270.043 2.43989 -0.768309 0
M  V30 2896 H 269.687 4.91976 -1.26181 0
M  V30 2897 H 269.617 5.24328 0.48869 0
M  V30 2898 H 272.108 3.77863 -0.0531512 0
M  V30 2899 H 272.421 7.69311 -0.733559 0
M  V30 2900 H 270.766 6.91927 -0.652791 0
M  V30 2901 H 273.957 4.67859 -0.150072 0
M  V30 2902 H 274.13 6.46364 -0.460116 0
M  V30 2903 N 267.536 -0.106894 1.57237 0
M  V30 2904 C 268.761 -0.830287 1.90055 0
M  V30 2905 C 269.186 -1.72064 0.75998 0
M  V30 2906 O 268.544 -1.78982 -0.288991 0
M  V30 2907 C 268.592 -1.6295 3.21683 0
M  V30 2908 O 267.696 -2.73748 3.08441 0
M  V30 2909 H 267.037 -0.228855 0.623315 0
M  V30 2910 H 269.567 -0.085658 2.04421 0
M  V30 2911 H 269.577 -2.01621 3.54701 0
M  V30 2912 H 268.252 -0.975989 4.04286 0
M  V30 2913 H 266.829 -2.38192 2.86913 0
M  V30 2914 N 269.014 -1.53014 -0.377408 0
M  V30 2915 C 269.944 -1.81589 -1.46791 0
M  V30 2916 C 270.925 -0.668622 -1.56408 0
M  V30 2917 O 272.11 -0.917337 -1.71168 0
M  V30 2918 C 269.24 -1.99519 -2.8427 0
M  V30 2919 C 268.194 -3.15249 -2.89486 0
M  V30 2920 C 267.52 -3.18451 -4.29527 0
M  V30 2921 C 268.82 -4.54084 -2.58079 0
M  V30 2922 H 270.514 -2.7291 -1.23127 0
M  V30 2923 H 268.06 -1.31319 -0.590883 0
M  V30 2924 H 270.013 -2.18092 -3.60575 0
M  V30 2925 H 268.737 -1.04897 -3.09296 0
M  V30 2926 H 267.396 -2.96477 -2.15631 0
M  V30 2927 H 267.044 -2.2149 -4.5161 0
M  V30 2928 H 266.744 -3.962 -4.33934 0
M  V30 2929 H 268.268 -3.39193 -5.07721 0
M  V30 2930 H 269.682 -4.72899 -3.24098 0
M  V30 2931 H 268.079 -5.33987 -2.7382 0
M  V30 2932 H 269.149 -4.60006 -1.53372 0
M  V30 2933 N 270.492 0.636531 -1.44174 0
M  V30 2934 C 271.72 1.42353 -1.50144 0
M  V30 2935 C 272.135 1.88389 -0.124575 0
M  V30 2936 O 271.492 1.6051 0.868489 0
M  V30 2937 C 271.543 2.64744 -2.46156 0
M  V30 2938 O 271.264 2.20629 -3.7849 0
M  V30 2939 C 272.765 3.57929 -2.61537 0
M  V30 2940 H 269.985 0.436752 -0.5094 0
M  V30 2941 H 272.529 0.778933 -1.89084 0
M  V30 2942 H 270.684 3.25307 -2.10366 0
M  V30 2943 H 271.098 2.99938 -4.30276 0
M  V30 2944 H 272.572 4.40428 -3.32757 0
M  V30 2945 H 273.049 4.06382 -1.66585 0
M  V30 2946 H 273.655 3.03238 -2.98206 0
M  V30 2947 N 271.97 1.30982 0.876444 0
M  V30 2948 C 273.218 1.20058 1.62575 0
M  V30 2949 C 273.539 -0.242947 1.93481 0
M  V30 2950 O 272.809 -1.1619 1.57724 0
M  V30 2951 H 271.389 0.44135 0.602677 0
M  V30 2952 H 274.051 1.64222 1.04962 0
M  V30 2953 H 273.147 1.76762 2.57219 0
M  V30 2954 N 273.449 -1.08991 1.13837 0
M  V30 2955 C 274.677 -1.85011 0.926202 0
M  V30 2956 C 275.092 -1.8135 -0.525127 0
M  V30 2957 O 274.449 -1.21287 -1.36366 0
M  V30 2958 C 274.5 -3.32802 1.41155 0
M  V30 2959 O 274.221 -3.36444 2.80601 0
M  V30 2960 C 275.722 -4.25649 1.23847 0
M  V30 2961 H 272.942 -0.584249 0.32999 0
M  V30 2962 H 275.486 -1.37688 1.51202 0
M  V30 2963 H 273.641 -3.77536 0.868631 0
M  V30 2964 H 274.055 -4.28657 3.02248 0
M  V30 2965 H 275.529 -5.27485 1.62675 0
M  V30 2966 H 276.006 -4.38828 0.18065 0
M  V30 2967 H 276.612 -3.86735 1.76964 0
M  V30 2968 N 274.927 -0.932562 -1.27047 0
M  V30 2969 C 276.204 -0.49377 -1.89265 0
M  V30 2970 C 276.584 1.02833 -1.8436 0
M  V30 2971 O 275.932 1.88461 -1.29209 0
M  V30 2972 C 276.142 -1.04536 -3.32976 0
M  V30 2973 C 277.49 -1.10879 -4.09867 0
M  V30 2974 O 278.514 -0.995327 -3.42011 0
M  V30 2975 O 277.373 -1.28417 -5.31198 0
M  V30 2976 H 274.467 -0.159596 -0.811454 0
M  V30 2977 H 277.013 -1.02457 -1.3528 0
M  V30 2978 H 275.785 -2.08913 -3.30864 0
M  V30 2979 H 275.408 -0.496494 -3.94488 0
M  V30 2980 N 276.405 1.4127 -0.698611 0
M  V30 2981 C 277.816 1.84187 -0.305289 0
M  V30 2982 C 278.167 1.58449 1.15708 0
M  V30 2983 O 277.292 1.05651 1.88856 0
M  V30 2984 C 277.887 3.3435 -0.547314 0
M  V30 2985 C 276.446 3.75826 -0.207878 0
M  V30 2986 C 275.593 2.64647 -0.828099 0
M  V30 2987 H 278.544 1.30778 -0.89904 0
M  V30 2988 H 278.565 3.8001 0.192998 0
M  V30 2989 H 278.077 3.53051 -1.61172 0
M  V30 2990 H 276.178 3.62725 0.852143 0
M  V30 2991 H 276.291 4.74462 -0.665021 0
M  V30 2992 H 274.655 2.53395 -0.257458 0
M  V30 2993 H 275.438 2.86165 -1.89643 0
M  V30 2994 N 277.883 0.443576 1.51229 0
M  V30 2995 C 278.846 -0.353132 2.26463 0
M  V30 2996 C 279.846 -0.944338 1.3015 0
M  V30 2997 O 281.036 -0.817813 1.5381 0
M  V30 2998 C 278.168 -1.50023 3.06114 0
M  V30 2999 H 279.361 0.3063 2.98332 0
M  V30 3000 H 276.914 0.196902 1.55055 0
M  V30 3001 H 277.649 -2.19553 2.38677 0
M  V30 3002 H 277.434 -1.08241 3.76864 0
M  V30 3003 H 278.924 -2.06296 3.63087 0
M  V30 3004 N 279.361 -1.56624 0.175154 0
M  V30 3005 C 280.309 -2.19468 -0.770495 0
M  V30 3006 C 281.303 -1.15985 -1.23466 0
M  V30 3007 O 282.509 -1.34176 -1.19987 0
M  V30 3008 H 278.884 -0.703095 -0.266761 0
M  V30 3009 H 280.855 -2.97613 -0.216542 0
M  V30 3010 C 279.604 -2.85264 -1.98796 0
M  V30 3011 H 278.927 -3.64623 -1.63983 0
M  V30 3012 H 280.367 -3.327 -2.62843 0
M  V30 3013 C 278.826 -1.85239 -2.81404 0
M  V30 3014 O 279.356 -1.34024 -3.78682 0
M  V30 3015 N 277.562 -1.53911 -2.46495 0
M  V30 3016 H 277.109 -1.95751 -1.67449 0
M  V30 3017 H 277.067 -0.872382 -3.02054 0
M  V30 3018 N 280.839 0.0985539 -1.57292 0
M  V30 3019 C 282.086 0.802678 -1.85912 0
M  V30 3020 C 282.414 1.78901 -0.763186 0
M  V30 3021 O 281.669 1.94178 0.243559 0
M  V30 3022 C 281.968 1.56927 -3.21105 0
M  V30 3023 C 281.634 0.725376 -4.45027 0
M  V30 3024 C 280.296 0.492726 -4.78671 0
M  V30 3025 C 282.648 0.138493 -5.21016 0
M  V30 3026 C 279.976 -0.336727 -5.85733 0
M  V30 3027 C 282.328 -0.678264 -6.28953 0
M  V30 3028 C 280.992 -0.921039 -6.61115 0
M  V30 3029 H 280.262 0.293721 -0.680301 0
M  V30 3030 H 282.909 0.0642841 -1.91392 0
M  V30 3031 H 281.214 2.37914 -3.11294 0
M  V30 3032 H 282.911 2.11841 -3.40477 0
M  V30 3033 H 279.501 0.916815 -4.18679 0
M  V30 3034 H 283.685 0.305404 -4.95359 0
M  V30 3035 H 278.941 -0.533836 -6.09065 0
M  V30 3036 H 283.115 -1.1399 -6.87007 0
M  V30 3037 H 280.742 -1.56556 -7.43905 0
M  V30 3038 N 282.317 1.53212 0.369288 0
M  V30 3039 C 283.28 1.7872 1.43498 0
M  V30 3040 C 284.28 0.657554 1.46741 0
M  V30 3041 O 285.47 0.925736 1.47566 0
M  V30 3042 C 282.602 1.90591 2.82645 0
M  V30 3043 H 283.795 2.73894 1.22156 0
M  V30 3044 H 281.348 1.44233 0.602203 0
M  V30 3045 H 282.083 0.974709 3.09306 0
M  V30 3046 H 281.868 2.72751 2.8169 0
M  V30 3047 H 283.358 2.11931 3.59826 0
M  V30 3048 N 283.795 -0.628877 1.44509 0
M  V30 3049 C 285.044 -1.38437 1.4669 0
M  V30 3050 C 285.357 -1.95322 0.104272 0
M  V30 3051 O 286.563 -2.715 0.00362163 0
M  V30 3052 C 285.019 -2.50659 2.5826 0
M  V30 3053 C 284.627 -2.00277 4.0074 0
M  V30 3054 C 286.371 -3.27844 2.69664 0
M  V30 3055 C 284.278 -3.09854 5.0373 0
M  V30 3056 H 283.208 -0.520245 0.545766 0
M  V30 3057 H 285.859 -0.676313 1.70582 0
M  V30 3058 H 284.241 -3.2405 2.27612 0
M  V30 3059 H 285.415 -1.33736 4.40966 0
M  V30 3060 H 283.73 -1.35901 3.93599 0
M  V30 3061 H 286.327 -4.09534 3.43781 0
M  V30 3062 H 286.67 -3.77471 1.75559 0
M  V30 3063 H 287.203 -2.61543 2.99733 0
M  V30 3064 H 283.942 -2.65168 5.99472 0
M  V30 3065 H 283.462 -3.7503 4.68095 0
M  V30 3066 H 285.141 -3.74592 5.27532 0
M  V30 3067 N 285.273 -1.31445 -0.869486 0
M  V30 3068 C 286.501 -1.24122 -1.65534 0
M  V30 3069 C 286.916 0.193387 -1.87807 0
M  V30 3070 O 286.273 1.12557 -1.43656 0
M  V30 3071 C 286.324 -1.98229 -3.02304 0
M  V30 3072 O 286.045 -3.3609 -2.81026 0
M  V30 3073 C 287.546 -1.97751 -3.96749 0
M  V30 3074 H 284.766 -0.428868 -0.516055 0
M  V30 3075 H 287.31 -1.73328 -1.08525 0
M  V30 3076 H 285.465 -1.52782 -3.56001 0
M  V30 3077 H 285.879 -3.7383 -3.67902 0
M  V30 3078 H 287.353 -2.54114 -4.90031 0
M  V30 3079 H 287.83 -0.960137 -4.28577 0
M  V30 3080 H 288.436 -2.43079 -3.48988 0
M  V30 3081 N 286.751 1.08385 -1.14413 0
M  V30 3082 C 287.998 1.80776 -0.912482 0
M  V30 3083 C 288.326 1.86236 0.560934 0
M  V30 3084 O 287.581 1.33431 1.43159 0
M  V30 3085 C 287.88 3.26273 -1.45879 0
M  V30 3086 C 287.546 3.4093 -2.95089 0
M  V30 3087 C 286.208 3.44638 -3.35824 0
M  V30 3088 C 288.56 3.44591 -3.91033 0
M  V30 3089 C 285.888 3.49597 -4.71167 0
M  V30 3090 C 288.24 3.51086 -5.26233 0
M  V30 3091 C 286.904 3.53067 -5.6648 0
M  V30 3092 H 286.174 0.661507 -0.333901 0
M  V30 3093 H 288.821 1.27613 -1.42784 0
M  V30 3094 H 287.126 3.82146 -0.864376 0
M  V30 3095 H 288.823 3.80839 -1.2555 0
M  V30 3096 H 285.413 3.38736 -2.62594 0
M  V30 3097 H 289.597 3.40957 -3.60641 0
M  V30 3098 H 284.853 3.49424 -5.0171 0
M  V30 3099 H 289.027 3.52864 -6.00383 0
M  V30 3100 H 286.654 3.56662 -6.71339 0
M  V30 3101 N 288.23 0.939286 1.26551 0
M  V30 3102 C 289.507 0.5038 1.89001 0
M  V30 3103 C 289.887 -1.01854 1.84903 0
M  V30 3104 O 289.235 -1.87773 1.30206 0
M  V30 3105 C 289.445 1.063 3.32417 0
M  V30 3106 C 290.793 1.13051 4.09273 0
M  V30 3107 O 291.817 1.01345 3.41479 0
M  V30 3108 O 290.676 1.31233 5.30509 0
M  V30 3109 H 287.77 0.163897 0.810597 0
M  V30 3110 H 290.316 1.03173 1.34735 0
M  V30 3111 H 289.088 2.10665 3.29752 0
M  V30 3112 H 288.711 0.517408 3.94219 0
M  V30 3113 N 289.708 -1.40897 0.706093 0
M  V30 3114 C 290.618 -2.3455 0.0482286 0
M  V30 3115 C 291.634 -1.56796 -0.754396 0
M  V30 3116 O 292.81 -1.89228 -0.689538 0
M  V30 3117 C 289.875 -3.35625 -0.869303 0
M  V30 3118 C 288.936 -4.29261 -0.0576994 0
M  V30 3119 C 288.169 -5.25508 -0.931531 0
M  V30 3120 O 288.392 -5.27472 -2.17092 0
M  V30 3121 O 287.326 -6.00727 -0.375587 0
M  V30 3122 H 291.152 -2.92407 0.820476 0
M  V30 3123 H 288.737 -1.4193 0.4665 0
M  V30 3124 H 290.619 -3.97635 -1.39514 0
M  V30 3125 H 289.294 -2.80196 -1.62086 0
M  V30 3126 H 288.201 -3.70566 0.512988 0
M  V30 3127 H 289.534 -4.87817 0.655426 0
M  V30 3128 N 291.186 -0.45159 -1.50991 0
M  V30 3129 C 292.116 0.342898 -2.30969 0
M  V30 3130 C 293.097 1.00815 -1.37005 0
M  V30 3131 O 294.282 1.00907 -1.65926 0
M  V30 3132 C 291.412 1.43637 -3.16205 0
M  V30 3133 C 290.366 0.893818 -4.18563 0
M  V30 3134 C 289.692 2.08411 -4.92411 0
M  V30 3135 C 290.992 -0.0815568 -5.22236 0
M  V30 3136 H 292.686 -0.324556 -2.97636 0
M  V30 3137 H 290.232 -0.157531 -1.43136 0
M  V30 3138 H 292.185 1.9995 -3.70942 0
M  V30 3139 H 290.909 2.13232 -2.47386 0
M  V30 3140 H 289.568 0.352798 -3.64898 0
M  V30 3141 H 289.216 2.76658 -4.20082 0
M  V30 3142 H 288.916 1.72741 -5.61636 0
M  V30 3143 H 290.44 2.65251 -5.49976 0
M  V30 3144 H 291.854 0.391742 -5.7196 0
M  V30 3145 H 290.251 -0.351551 -5.99069 0
M  V30 3146 H 291.321 -1.01374 -4.74185 0
M  V30 3147 N 292.664 1.56529 -0.183458 0
M  V30 3148 C 293.941 1.88959 0.50536 0
M  V30 3149 C 294.321 1.09523 1.80466 0
M  V30 3150 O 293.669 0.19278 2.27685 0
M  V30 3151 C 293.879 3.41162 0.73547 0
M  V30 3152 C 295.227 4.11155 1.06005 0
M  V30 3153 O 296.251 3.46548 0.823594 0
M  V30 3154 O 295.11 5.25318 1.50675 0
M  V30 3155 H 292.204 0.78441 0.261973 0
M  V30 3156 H 294.75 1.68231 -0.222802 0
M  V30 3157 H 293.522 3.90874 -0.182561 0
M  V30 3158 H 293.145 3.67543 1.51651 0
M  V30 3159 N 294.142 -0.090211 1.57342 0
M  V30 3160 C 295.391 -0.791531 1.8552 0
M  V30 3161 C 295.704 -1.79659 0.773441 0
M  V30 3162 O 296.91 -2.54616 0.942497 0
M  V30 3163 C 295.366 -1.45856 3.2902 0
M  V30 3164 C 294.974 -0.493017 4.45279 0
M  V30 3165 C 296.718 -2.14332 3.66418 0
M  V30 3166 C 294.625 -1.16491 5.79814 0
M  V30 3167 H 293.555 -0.299356 0.692027 0
M  V30 3168 H 296.206 -0.0445343 1.83446 0
M  V30 3169 H 294.588 -2.25318 3.2565 0
M  V30 3170 H 295.762 0.270464 4.60006 0
M  V30 3171 H 294.077 0.0863061 4.16311 0
M  V30 3172 H 296.674 -2.65344 4.64216 0
M  V30 3173 H 297.017 -2.93447 2.95287 0
M  V30 3174 H 297.55 -1.41724 3.71698 0
M  V30 3175 H 294.289 -0.41447 6.54188 0
M  V30 3176 H 293.809 -1.8997 5.68921 0
M  V30 3177 H 295.488 -1.69001 6.24538 0
M  V30 3178 N 295.62 -1.53406 -0.361157 0
M  V30 3179 C 296.897 -1.60411 -1.11927 0
M  V30 3180 C 297.277 -0.414385 -2.06993 0
M  V30 3181 O 296.625 0.594976 -2.20618 0
M  V30 3182 C 296.835 -2.95652 -1.85448 0
M  V30 3183 C 298.183 -3.50386 -2.39823 0
M  V30 3184 O 299.207 -2.97711 -1.95568 0
M  V30 3185 O 298.066 -4.42482 -3.20737 0
M  V30 3186 H 295.16 -0.64811 -0.513695 0
M  V30 3187 H 297.706 -1.65749 -0.364065 0
M  V30 3188 H 296.478 -3.73682 -1.16091 0
M  V30 3189 H 296.101 -2.93825 -2.67866 0
M  V30 3190 N 297.098 0.621204 -1.44841 0
M  V30 3191 C 298.061 1.71459 -1.521 0
M  V30 3192 C 299.061 1.55696 -0.401933 0
M  V30 3193 O 300.251 1.61011 -0.664925 0
M  V30 3194 C 297.383 3.10624 -1.40447 0
M  V30 3195 H 298.576 1.66394 -2.49506 0
M  V30 3196 H 296.129 0.835745 -1.3208 0
M  V30 3197 H 296.864 3.21277 -0.441737 0
M  V30 3198 H 296.649 3.23473 -2.21602 0
M  V30 3199 H 298.139 3.90293 -1.4853 0
M  V30 3200 N 298.576 1.31904 0.862503 0
M  V30 3201 C 299.506 1.22782 1.98612 0
M  V30 3202 C 300.487 0.113362 1.69722 0
M  V30 3203 O 301.672 0.299218 1.91881 0
M  V30 3204 C 298.802 0.942058 3.34279 0
M  V30 3205 C 297.756 2.0169 3.77499 0
M  V30 3206 C 297.082 1.58369 5.10709 0
M  V30 3207 C 298.382 3.43096 3.93805 0
M  V30 3208 H 300.076 2.16788 2.06502 0
M  V30 3209 H 297.622 1.04366 0.992154 0
M  V30 3210 H 299.575 0.864818 4.1243 0
M  V30 3211 H 298.299 -0.0336603 3.26583 0
M  V30 3212 H 296.958 2.08416 3.01593 0
M  V30 3213 H 296.606 0.595628 4.99461 0
M  V30 3214 H 296.306 2.30279 5.40597 0
M  V30 3215 H 297.83 1.52067 5.91361 0
M  V30 3216 H 299.244 3.39003 4.62331 0
M  V30 3217 H 297.641 4.13288 4.35101 0
M  V30 3218 H 298.711 3.83334 2.96957 0
M  V30 3219 N 300.054 -1.07777 1.14986 0
M  V30 3220 C 301.302 -1.79934 0.920235 0
M  V30 3221 C 301.623 -1.86955 -0.554336 0
M  V30 3222 O 300.893 -1.36731 -1.40291 0
M  V30 3223 H 299.473 -0.666424 0.337473 0
M  V30 3224 H 302.135 -1.3027 1.44968 0
M  V30 3225 H 301.231 -2.82539 1.32583 0
M  V30 3226 N 301.532 -0.945985 -1.26051 0
M  V30 3227 C 302.781 -0.591836 -1.92822 0
M  V30 3228 C 303.094 0.873956 -1.7499 0
M  V30 3229 O 304.3 1.33769 -2.36259 0
M  V30 3230 C 302.756 -1.00776 -3.45503 0
M  V30 3231 C 302.364 -2.4955 -3.7206 0
M  V30 3232 C 304.108 -0.725735 -4.1825 0
M  V30 3233 C 302.015 -2.84988 -5.18205 0
M  V30 3234 H 300.945 -0.217635 -0.721908 0
M  V30 3235 H 303.596 -1.14927 -1.43052 0
M  V30 3236 H 301.978 -0.378812 -3.94184 0
M  V30 3237 H 303.152 -3.1739 -3.34066 0
M  V30 3238 H 301.467 -2.75133 -3.12555 0
M  V30 3239 H 304.064 -0.966771 -5.25887 0
M  V30 3240 H 304.407 0.337639 -4.14929 0
M  V30 3241 H 304.94 -1.31463 -3.7545 0
M  V30 3242 H 301.679 -3.90307 -5.26631 0
M  V30 3243 H 301.199 -2.21813 -5.57278 0
M  V30 3244 H 302.878 -2.73712 -5.86252 0
M  V30 3245 N 303.011 1.40521 -0.713556 0
M  V30 3246 C 303.959 2.32549 -0.0485227 0
M  V30 3247 C 304.953 1.51931 0.74922 0
M  V30 3248 O 306.159 1.67745 0.652816 0
M  V30 3249 H 302.534 0.751994 0.00311138 0
M  V30 3250 H 304.505 2.86291 -0.841443 0
M  V30 3251 C 303.254 3.36879 0.860687 0
M  V30 3252 H 302.577 3.98978 0.256246 0
M  V30 3253 H 304.017 4.03772 1.294 0
M  V30 3254 C 302.476 2.72197 1.9852 0
M  V30 3255 O 303.006 2.5837 3.07584 0
M  V30 3256 N 301.212 2.30612 1.76823 0
M  V30 3257 H 300.759 2.42059 0.881217 0
M  V30 3258 H 300.717 1.87672 2.52243 0
M  V30 3259 N 304.489 0.459591 1.5075 0
M  V30 3260 C 305.729 -0.09824 2.04164 0
M  V30 3261 C 306.093 -1.3801 1.33481 0
M  V30 3262 O 307.294 -2.01959 1.77387 0
M  V30 3263 C 305.565 -0.289467 3.56226 0
M  V30 3264 S 307.124 -0.807507 4.31306 0
M  V30 3265 H 303.942 -0.0213845 0.710678 0
M  V30 3266 H 306.544 0.624098 1.85271 0
M  V30 3267 H 305.248 0.649461 4.05229 0
M  V30 3268 H 304.779 -1.03825 3.79452 0
M  V30 3269 H 306.794 -2.0824 4.50389 0
M  V30 3270 N 305.967 -1.56429 0.191757 0
M  V30 3271 C 307.192 -2.02309 -0.456706 0
M  V30 3272 C 307.617 -1.07103 -1.5463 0
M  V30 3273 O 306.975 -0.0539677 -1.8122 0
M  V30 3274 C 307.023 -3.46654 -0.993159 0
M  V30 3275 O 306.127 -3.54559 -2.10622 0
M  V30 3276 H 305.468 -0.655303 -0.107114 0
M  V30 3277 H 307.998 -2.02364 0.301653 0
M  V30 3278 H 308.008 -3.86377 -1.31061 0
M  V30 3279 H 306.683 -4.1544 -0.195504 0
M  V30 3280 H 305.26 -3.26708 -1.79767 0
M  V30 3281 N 307.445 0.0818655 -1.57387 0
M  V30 3282 C 308.375 1.09885 -2.06028 0
M  V30 3283 C 309.356 1.4098 -0.951774 0
M  V30 3284 O 310.541 1.50781 -1.22387 0
M  V30 3285 C 307.671 2.4151 -2.4958 0
M  V30 3286 C 306.625 2.24792 -3.64215 0
M  V30 3287 C 305.951 3.61712 -3.93787 0
M  V30 3288 C 307.251 1.67749 -4.94629 0
M  V30 3289 H 308.945 0.694128 -2.91243 0
M  V30 3290 H 306.491 0.332448 -1.4011 0
M  V30 3291 H 308.444 3.12939 -2.82219 0
M  V30 3292 H 307.168 2.83943 -1.61381 0
M  V30 3293 H 305.827 1.55807 -3.31843 0
M  V30 3294 H 305.475 4.01697 -3.02735 0
M  V30 3295 H 305.175 3.51368 -4.70971 0
M  V30 3296 H 306.699 4.34587 -4.28913 0
M  V30 3297 H 308.113 2.29032 -5.25564 0
M  V30 3298 H 306.51 1.68128 -5.76067 0
M  V30 3299 H 307.58 0.638059 -4.80684 0
M  V30 3300 N 308.923 1.53595 0.353017 0
M  V30 3301 C 310.171 1.70049 1.09215 0
M  V30 3302 C 310.492 0.461406 1.89463 0
M  V30 3303 O 309.762 -0.524633 1.88744 0
M  V30 3304 H 308.342 0.626912 0.40619 0
M  V30 3305 H 311.004 1.90822 0.396585 0
M  V30 3306 H 310.1 2.56718 1.77488 0
M  V30 3307 N 310.401 -0.613514 1.45168 0
M  V30 3308 C 311.812 -1.19539 1.43413 0
M  V30 3309 C 312.163 -1.95558 0.158632 0
M  V30 3310 O 311.288 -2.0335 -0.740119 0
M  V30 3311 C 311.883 -2.17445 2.59813 0
M  V30 3312 C 310.442 -2.71022 2.61197 0
M  V30 3313 C 309.589 -1.46323 2.35552 0
M  V30 3314 H 312.54 -0.403163 1.53494 0
M  V30 3315 H 312.561 -3.00373 2.33574 0
M  V30 3316 H 312.073 -1.62089 3.52631 0
M  V30 3317 H 310.174 -3.30332 1.7237 0
M  V30 3318 H 310.287 -3.15859 3.60236 0
M  V30 3319 H 308.651 -1.75072 1.84992 0
M  V30 3320 H 309.434 -0.92844 3.30507 0
M  V30 3321 N 311.879 -1.3236 -0.855495 0
M  V30 3322 C 312.789 -1.23221 -1.99634 0
M  V30 3323 C 313.805 -0.145983 -1.73387 0
M  V30 3324 O 314.981 -0.366502 -1.98037 0
M  V30 3325 C 312.046 -0.954782 -3.33294 0
M  V30 3326 C 311.107 -2.12937 -3.72769 0
M  V30 3327 C 310.34 -1.86508 -5.00051 0
M  V30 3328 O 310.563 -0.807231 -5.64659 0
M  V30 3329 O 309.497 -2.72591 -5.36636 0
M  V30 3330 H 313.323 -2.19126 -2.1028 0
M  V30 3331 H 310.908 -1.12241 -0.986018 0
M  V30 3332 H 312.79 -0.816519 -4.13414 0
M  V30 3333 H 311.465 -0.0258854 -3.2369 0
M  V30 3334 H 310.372 -2.3231 -2.93228 0
M  V30 3335 H 311.705 -3.04102 -3.87018 0
M  V30 3336 N 313.357 1.07166 -1.15556 0
M  V30 3337 C 314.267 2.17947 -0.868116 0
M  V30 3338 C 315.283 1.73297 0.156297 0
M  V30 3339 O 316.459 2.01392 -0.0182327 0
M  V30 3340 C 313.524 3.44789 -0.36355 0
M  V30 3341 C 312.585 4.03996 -1.45209 0
M  V30 3342 C 311.818 5.24783 -0.971508 0
M  V30 3343 O 312.041 5.70109 0.182194 0
M  V30 3344 O 310.975 5.75715 -1.75603 0
M  V30 3345 H 314.801 2.4503 -1.79427 0
M  V30 3346 H 312.386 1.16539 -0.934824 0
M  V30 3347 H 314.268 4.21307 -0.0887113 0
M  V30 3348 H 312.943 3.19253 0.534708 0
M  V30 3349 H 311.85 3.29009 -1.78056 0
M  V30 3350 H 313.183 4.33808 -2.32533 0
M  V30 3351 N 314.835 0.952656 1.25548 0
M  V30 3352 C 316.084 0.602053 1.92505 0
M  V30 3353 C 316.397 -0.864663 1.75451 0
M  V30 3354 O 317.603 -1.32514 2.36965 0
M  V30 3355 C 316.059 1.02607 3.44963 0
M  V30 3356 C 315.667 2.51519 3.70732 0
M  V30 3357 C 317.411 0.747905 4.1786 0
M  V30 3358 C 315.318 2.87732 5.16686 0
M  V30 3359 H 314.248 0.22146 0.720744 0
M  V30 3360 H 316.899 1.15684 1.42441 0
M  V30 3361 H 315.281 0.399712 3.93978 0
M  V30 3362 H 316.455 3.19157 3.32378 0
M  V30 3363 H 314.77 2.76786 3.11092 0
M  V30 3364 H 317.367 0.994647 5.25367 0
M  V30 3365 H 317.71 -0.315629 4.15102 0
M  V30 3366 H 318.243 1.33452 3.74747 0
M  V30 3367 H 314.982 3.93095 5.24554 0
M  V30 3368 H 314.502 2.24765 5.56094 0
M  V30 3369 H 316.181 2.76817 5.84792 0
M  V30 3370 N 316.313 -1.40141 0.720998 0
M  V30 3371 C 317.243 -2.33339 0.0867621 0
M  V30 3372 C 318.224 -1.53178 -0.739622 0
M  V30 3373 O 319.409 -1.81625 -0.687449 0
M  V30 3374 C 316.539 -3.37194 -0.831728 0
M  V30 3375 C 315.493 -4.27857 -0.110558 0
M  V30 3376 C 314.819 -5.22294 -1.14513 0
M  V30 3377 C 316.119 -5.11872 1.0385 0
M  V30 3378 H 317.813 -2.86626 0.865219 0
M  V30 3379 H 315.359 -1.37814 0.417516 0
M  V30 3380 H 317.312 -4.01335 -1.28485 0
M  V30 3381 H 316.036 -2.82314 -1.64214 0
M  V30 3382 H 314.695 -3.65176 0.322797 0
M  V30 3383 H 314.343 -4.63717 -1.94874 0
M  V30 3384 H 314.043 -5.83797 -0.667446 0
M  V30 3385 H 315.567 -5.89312 -1.59824 0
M  V30 3386 H 316.981 -5.69436 0.664482 0
M  V30 3387 H 315.378 -5.82445 1.4449 0
M  V30 3388 H 316.448 -4.4753 1.86668 0
M  V30 3389 N 317.792 -0.46758 -1.50504 0
M  V30 3390 C 319.203 -0.0116166 -1.86696 0
M  V30 3391 C 319.554 1.39202 -1.38265 0
M  V30 3392 O 318.679 2.0313 -0.746132 0
M  V30 3393 C 319.274 -0.0143044 -3.38797 0
M  V30 3394 C 317.833 0.386175 -3.74414 0
M  V30 3395 C 316.98 -0.401287 -2.74381 0
M  V30 3396 H 319.931 -0.682022 -1.43297 0
M  V30 3397 H 319.952 0.788641 -3.72237 0
M  V30 3398 H 319.464 -1.03602 -3.74016 0
M  V30 3399 H 317.565 1.41237 -3.44794 0
M  V30 3400 H 317.678 0.0899596 -4.79016 0
M  V30 3401 H 316.042 0.144536 -2.5429 0
M  V30 3402 H 316.825 -1.42244 -3.12444 0
M  V30 3403 N 319.27 1.56325 -0.20005 0
M  V30 3404 C 320.519 1.96895 0.437652 0
M  V30 3405 C 320.832 1.08999 1.62415 0
M  V30 3406 O 322.038 1.39372 2.32997 0
M  V30 3407 C 320.494 3.50198 0.830025 0
M  V30 3408 C 320.102 4.46765 -0.332461 0
M  V30 3409 C 321.846 3.99526 1.43453 0
M  V30 3410 C 319.753 5.91344 0.0811468 0
M  V30 3411 H 318.683 0.735209 0.167282 0
M  V30 3412 H 321.334 1.81148 -0.292853 0
M  V30 3413 H 319.716 3.61467 1.61734 0
M  V30 3414 H 320.89 4.47231 -1.11 0
M  V30 3415 H 319.205 4.07657 -0.848789 0
M  V30 3416 H 321.802 5.05025 1.75652 0
M  V30 3417 H 322.145 3.44122 2.34277 0
M  V30 3418 H 322.678 3.91393 0.71109 0
M  V30 3419 H 319.417 6.50685 -0.793033 0
M  V30 3420 H 318.937 5.94121 0.823445 0
M  V30 3421 H 320.616 6.44945 0.515252 0
M  V30 3422 N 320.748 -0.0735177 1.57428 0
M  V30 3423 C 321.995 -0.772999 1.87166 0
M  V30 3424 C 322.323 -1.77665 0.791551 0
M  V30 3425 O 321.578 -1.94541 -0.212636 0
M  V30 3426 C 321.877 -1.51799 3.23561 0
M  V30 3427 C 321.543 -0.654484 4.46125 0
M  V30 3428 C 320.205 -0.416511 4.79394 0
M  V30 3429 C 322.557 -0.0555862 5.2117 0
M  V30 3430 C 319.885 0.429869 5.85123 0
M  V30 3431 C 322.237 0.778239 6.27795 0
M  V30 3432 C 320.901 1.0261 6.59566 0
M  V30 3433 H 320.171 -0.282861 0.684888 0
M  V30 3434 H 322.818 -0.0338272 1.9147 0
M  V30 3435 H 321.123 -2.32932 3.1504 0
M  V30 3436 H 322.82 -2.06397 3.43804 0
M  V30 3437 H 319.41 -0.850091 4.20085 0
M  V30 3438 H 323.594 -0.226558 4.95783 0
M  V30 3439 H 318.85 0.630665 6.08139 0
M  V30 3440 H 323.024 1.24906 6.85107 0
M  V30 3441 H 320.651 1.68371 7.4132 0
M  V30 3442 N 322.226 -1.5378 -0.344866 0
M  V30 3443 C 323.158 -1.77988 -1.44406 0
M  V30 3444 C 324.171 -0.661138 -1.48771 0
M  V30 3445 O 325.36 -0.937842 -1.51877 0
M  V30 3446 C 322.46 -1.86345 -2.8307 0
M  V30 3447 C 321.633 -3.16256 -3.0216 0
M  V30 3448 C 320.692 -3.15588 -4.21059 0
M  V30 3449 O 319.718 -3.89314 -4.15239 0
M  V30 3450 N 320.92 -2.37864 -5.29529 0
M  V30 3451 H 323.685 -2.72839 -1.24012 0
M  V30 3452 H 321.246 -1.52814 -0.534737 0
M  V30 3453 H 323.238 -1.83351 -3.60783 0
M  V30 3454 H 321.808 -0.986858 -2.96614 0
M  V30 3455 H 321.028 -3.32385 -2.11929 0
M  V30 3456 H 322.316 -4.0207 -3.11797 0
M  V30 3457 H 321.714 -1.77514 -5.37127 0
M  V30 3458 H 320.271 -2.40668 -6.05741 0
M  V30 3459 N 323.704 0.605807 -1.45491 0
M  V30 3460 C 324.614 1.74466 -1.56839 0
M  V30 3461 C 325.63 1.68006 -0.452772 0
M  V30 3462 O 326.806 1.8833 -0.713708 0
M  V30 3463 C 323.871 3.10931 -1.53371 0
M  V30 3464 C 322.932 3.28832 -2.75986 0
M  V30 3465 C 322.165 4.58787 -2.72673 0
M  V30 3466 O 322.388 5.4122 -1.80102 0
M  V30 3467 O 321.322 4.79438 -3.63899 0
M  V30 3468 H 325.148 1.67843 -2.53106 0
M  V30 3469 H 322.733 0.770108 -1.28022 0
M  V30 3470 H 324.615 3.92233 -1.54051 0
M  V30 3471 H 323.29 3.18042 -0.602572 0
M  V30 3472 H 322.197 2.47112 -2.80867 0
M  V30 3473 H 323.53 3.26599 -3.68231 0
M  V30 3474 N 325.182 1.32811 0.848464 0
M  V30 3475 C 326.112 1.24882 1.97299 0
M  V30 3476 C 327.093 0.131357 1.69592 0
M  V30 3477 O 328.278 0.319553 1.91553 0
M  V30 3478 C 325.408 0.97746 3.33261 0
M  V30 3479 C 324.362 2.05682 3.75338 0
M  V30 3480 C 323.688 1.63777 5.09 0
M  V30 3481 C 324.988 3.47254 3.90144 0
M  V30 3482 H 326.682 2.18966 2.04191 0
M  V30 3483 H 324.228 1.05413 0.981029 0
M  V30 3484 H 326.181 0.908513 4.1149 0
M  V30 3485 H 324.905 0.000980011 3.266 0
M  V30 3486 H 323.564 2.11603 2.99366 0
M  V30 3487 H 323.212 0.648569 4.98801 0
M  V30 3488 H 322.912 2.36 5.38124 0
M  V30 3489 H 324.436 1.5833 5.89715 0
M  V30 3490 H 325.85 3.43888 4.58709 0
M  V30 3491 H 324.247 4.1788 4.30693 0
M  V30 3492 H 325.317 3.86462 2.92874 0
M  V30 3493 N 326.66 -1.06551 1.16123 0
M  V30 3494 C 327.885 -1.83544 0.965735 0
M  V30 3495 C 328.31 -1.81843 -0.481102 0
M  V30 3496 O 327.668 -1.21732 -1.34354 0
M  V30 3497 C 327.716 -3.28169 1.49457 0
M  V30 3498 O 326.82 -4.0643 0.699157 0
M  V30 3499 H 326.161 -0.568026 0.343864 0
M  V30 3500 H 328.691 -1.34362 1.54299 0
M  V30 3501 H 328.701 -3.78992 1.51092 0
M  V30 3502 H 327.376 -3.28722 2.54784 0
M  V30 3503 H 325.953 -3.65216 0.7531 0
M  V30 3504 N 328.138 -0.959301 -1.25041 0
M  V30 3505 C 329.07 -0.440543 -2.24926 0
M  V30 3506 C 330.083 0.446131 -1.56568 0
M  V30 3507 O 331.272 0.253657 -1.76689 0
M  V30 3508 C 328.372 0.38412 -3.36716 0
M  V30 3509 C 327.545 -0.490658 -4.34639 0
M  V30 3510 C 326.604 0.276587 -5.25473 0
M  V30 3511 O 325.63 -0.326614 -5.68262 0
M  V30 3512 N 326.832 1.56844 -5.5891 0
M  V30 3513 H 329.597 -1.29931 -2.70071 0
M  V30 3514 H 327.158 -0.830181 -1.38995 0
M  V30 3515 H 329.15 0.905228 -3.94446 0
M  V30 3516 H 327.72 1.14377 -2.90924 0
M  V30 3517 H 326.94 -1.19282 -3.7572 0
M  V30 3518 H 328.228 -1.08756 -4.97041 0
M  V30 3519 H 327.626 2.08036 -5.26059 0
M  V30 3520 H 326.183 2.03541 -6.19205 0
M  V30 3521 N 329.616 1.39756 -0.72842 0
M  V30 3522 C 330.846 2.04651 -0.283117 0
M  V30 3523 C 331.254 1.5502 1.08469 0
M  V30 3524 O 330.597 0.707343 1.69536 0
M  V30 3525 C 330.659 3.58947 -0.199309 0
M  V30 3526 C 330.323 4.31525 -1.5045 0
M  V30 3527 C 331.32 4.5861 -2.44894 0
M  V30 3528 C 329.005 4.70195 -1.76698 0
M  V30 3529 C 330.999 5.23366 -3.63822 0
M  V30 3530 C 328.686 5.3468 -2.95906 0
M  V30 3531 C 329.684 5.61198 -3.89289 0
M  V30 3532 O 329.372 6.24347 -5.06404 0
M  V30 3533 H 329.104 0.664777 -0.122666 0
M  V30 3534 H 331.658 1.79913 -0.990987 0
M  V30 3535 H 329.888 3.82556 0.56461 0
M  V30 3536 H 331.577 4.0534 0.213125 0
M  V30 3537 H 332.343 4.29187 -2.25883 0
M  V30 3538 H 328.222 4.48916 -1.04859 0
M  V30 3539 H 331.766 5.4398 -4.36728 0
M  V30 3540 H 327.663 5.63524 -3.14819 0
M  V30 3541 H 328.431 6.42842 -5.06652 0
M  V30 3542 N 331.094 0.475555 1.50254 0
M  V30 3543 C 332.322 -0.0754493 2.06762 0
M  V30 3544 C 332.737 -1.33111 1.33891 0
M  V30 3545 O 332.094 -1.77846 0.40952 0
M  V30 3546 C 332.145 -0.359008 3.59713 0
M  V30 3547 O 331.866 0.846851 4.29837 0
M  V30 3548 C 333.367 -0.956484 4.32858 0
M  V30 3549 H 330.587 0.00907525 0.670939 0
M  V30 3550 H 333.131 0.665618 1.93364 0
M  V30 3551 H 331.286 -1.05001 3.72899 0
M  V30 3552 H 331.7 0.594162 5.21124 0
M  V30 3553 H 333.174 -1.10463 5.40834 0
M  V30 3554 H 333.651 -1.94775 3.93649 0
M  V30 3555 H 334.257 -0.303723 4.24214 0
M  V30 3556 N 332.573 -1.56217 0.208337 0
M  V30 3557 C 333.85 -1.89739 -0.475234 0
M  V30 3558 C 334.23 -1.1238 -1.78701 0
M  V30 3559 O 333.578 -0.228979 -2.2735 0
M  V30 3560 C 333.788 -3.42289 -0.681101 0
M  V30 3561 C 335.136 -4.12789 -0.994507 0
M  V30 3562 O 336.16 -3.47814 -0.768357 0
M  V30 3563 O 335.019 -5.27649 -1.42299 0
M  V30 3564 H 332.113 -0.788478 -0.249461 0
M  V30 3565 H 334.659 -1.67855 0.249538 0
M  V30 3566 H 333.431 -3.90534 0.244722 0
M  V30 3567 H 333.054 -3.69909 -1.45785 0
M  V30 3568 N 334.051 0.0651679 -1.57465 0
M  V30 3569 C 334.998 1.07675 -2.04144 0
M  V30 3570 C 335.968 1.38071 -0.923335 0
M  V30 3571 O 337.153 1.49026 -1.19146 0
M  V30 3572 C 334.293 2.38337 -2.49579 0
M  V30 3573 C 333.406 2.14413 -3.75035 0
M  V30 3574 C 332.541 3.38686 -4.09225 0
M  V30 3575 C 331.58 3.10156 -5.27702 0
M  V30 3576 N 330.717 4.26778 -5.57499 0
M  V30 3577 H 335.557 0.671716 -2.90331 0
M  V30 3578 H 333.094 0.3201 -1.43575 0
M  V30 3579 H 335.052 3.14632 -2.73975 0
M  V30 3580 H 333.682 2.7663 -1.6636 0
M  V30 3581 H 332.734 1.2878 -3.57939 0
M  V30 3582 H 334.046 1.89344 -4.61466 0
M  V30 3583 H 333.2 4.23373 -4.34558 0
M  V30 3584 H 331.939 3.66837 -3.21374 0
M  V30 3585 H 330.944 2.23866 -5.02159 0
M  V30 3586 H 332.169 2.8332 -6.17176 0
M  V30 3587 H 330.115 4.54948 -4.72608 0
M  V30 3588 H 330.032 4.05005 -6.38362 0
M  V30 3589 H 331.3 5.12443 -5.87386 0
M  V30 3590 N 335.529 1.53961 0.336706 0
M  V30 3591 C 336.776 1.71536 1.07618 0
M  V30 3592 C 337.104 0.482125 1.8843 0
M  V30 3593 O 336.359 -0.536142 1.88213 0
M  V30 3594 C 336.658 2.93493 2.03953 0
M  V30 3595 C 336.324 4.28811 1.39399 0
M  V30 3596 C 334.986 4.65602 1.21523 0
M  V30 3597 C 337.338 5.12844 0.929541 0
M  V30 3598 C 334.666 5.84037 0.558312 0
M  V30 3599 C 337.018 6.31951 0.286505 0
M  V30 3600 C 335.682 6.67432 0.0954869 0
M  V30 3601 H 334.952 0.627696 0.393801 0
M  V30 3602 H 337.599 1.88186 0.354715 0
M  V30 3603 H 335.904 2.71475 2.82504 0
M  V30 3604 H 337.601 3.04285 2.61174 0
M  V30 3605 H 334.191 3.99858 1.54311 0
M  V30 3606 H 338.375 4.84947 1.05548 0
M  V30 3607 H 333.631 6.10097 0.398995 0
M  V30 3608 H 337.805 6.96352 -0.0814376 0
M  V30 3609 H 335.432 7.59063 -0.415579 0
M  V30 3610 N 337.007 -0.598083 1.45811 0
M  V30 3611 C 337.937 -1.71873 1.58057 0
M  V30 3612 C 338.918 -1.64533 0.431615 0
M  V30 3613 O 340.103 -1.82787 0.65595 0
M  V30 3614 C 337.233 -3.10495 1.55597 0
M  V30 3615 C 336.187 -3.32654 2.69305 0
M  V30 3616 C 335.513 -4.71646 2.51902 0
M  V30 3617 C 336.813 -3.21981 4.11248 0
M  V30 3618 H 338.507 -1.61881 2.51863 0
M  V30 3619 H 336.053 -0.777372 1.21214 0
M  V30 3620 H 338.006 -3.88699 1.6276 0
M  V30 3621 H 336.73 -3.2135 0.583255 0
M  V30 3622 H 335.389 -2.56843 2.61586 0
M  V30 3623 H 335.037 -4.79246 1.52748 0
M  V30 3624 H 334.737 -4.87426 3.2816 0
M  V30 3625 H 336.261 -5.52038 2.60933 0
M  V30 3626 H 337.675 -3.90049 4.20161 0
M  V30 3627 H 336.072 -3.49289 4.87972 0
M  V30 3628 H 337.142 -2.1928 4.32486 0
M  V30 3629 N 338.485 -1.33259 -0.841409 0
M  V30 3630 C 339.731 -1.24757 -1.59886 0
M  V30 3631 C 340.064 0.186913 -1.93298 0
M  V30 3632 O 339.339 1.12757 -1.5848 0
M  V30 3633 C 339.622 -2.12036 -2.91055 0
M  V30 3634 C 339.475 -3.63929 -2.6434 0
M  V30 3635 C 340.794 -1.9916 -3.92458 0
M  V30 3636 H 337.913 -0.454542 -0.580138 0
M  V30 3637 H 340.555 -1.63335 -0.970647 0
M  V30 3638 H 338.705 -1.79265 -3.44669 0
M  V30 3639 H 340.377 -4.06978 -2.17178 0
M  V30 3640 H 338.62 -3.85935 -1.98082 0
M  V30 3641 H 339.291 -4.20341 -3.57796 0
M  V30 3642 H 341.767 -2.27895 -3.48143 0
M  V30 3643 H 340.643 -2.62484 -4.82072 0
M  V30 3644 H 340.904 -0.963082 -4.31482 0
M  V30 3645 N 339.963 1.05934 -1.16686 0
M  V30 3646 C 341.209 1.79065 -0.95203 0
M  V30 3647 C 341.542 1.87147 0.518629 0
M  V30 3648 O 340.817 1.36574 1.38484 0
M  V30 3649 C 341.1 3.23359 -1.58464 0
M  V30 3650 C 340.953 3.23336 -3.12689 0
M  V30 3651 C 342.272 4.21004 -1.28232 0
M  V30 3652 H 339.391 0.65005 -0.34728 0
M  V30 3653 H 342.033 1.23868 -1.44072 0
M  V30 3654 H 340.183 3.70493 -1.16908 0
M  V30 3655 H 341.855 2.84336 -3.6325 0
M  V30 3656 H 340.098 2.61886 -3.4583 0
M  V30 3657 H 340.769 4.25144 -3.52075 0
M  V30 3658 H 343.245 3.8233 -1.64203 0
M  V30 3659 H 342.121 5.20225 -1.75092 0
M  V30 3660 H 342.382 4.41639 -0.201791 0
M  V30 3661 N 341.441 0.965919 1.2453 0
M  V30 3662 C 342.351 0.502154 2.29163 0
M  V30 3663 C 343.367 -0.436017 1.68448 0
M  V30 3664 O 344.543 -0.309497 1.99008 0
M  V30 3665 C 341.608 -0.201956 3.46111 0
M  V30 3666 C 340.669 0.775821 4.22232 0
M  V30 3667 C 339.902 0.105217 5.33596 0
M  V30 3668 O 340.125 -1.10683 5.59558 0
M  V30 3669 O 339.059 0.796475 5.96607 0
M  V30 3670 H 342.885 1.37194 2.70946 0
M  V30 3671 H 340.47 0.732875 1.30189 0
M  V30 3672 H 342.352 -0.597564 4.17142 0
M  V30 3673 H 341.027 -1.04673 3.06309 0
M  V30 3674 H 339.934 1.22185 3.53584 0
M  V30 3675 H 341.267 1.58896 4.65846 0
M  V30 3676 N 342.919 -1.39368 0.735821 0
M  V30 3677 C 344.33 -1.83313 0.354015 0
M  V30 3678 C 344.681 -1.61461 -1.11466 0
M  V30 3679 O 343.806 -1.10621 -1.85989 0
M  V30 3680 C 344.401 -3.32781 0.635769 0
M  V30 3681 C 342.96 -3.75142 0.307448 0
M  V30 3682 C 342.107 -2.62358 0.897974 0
M  V30 3683 H 345.058 -1.28349 0.933398 0
M  V30 3684 H 345.079 -3.80388 -0.0921773 0
M  V30 3685 H 344.591 -3.48654 1.70476 0
M  V30 3686 H 342.692 -3.64857 -0.755674 0
M  V30 3687 H 342.805 -4.72532 0.790583 0
M  V30 3688 H 341.169 -2.52624 0.324551 0
M  V30 3689 H 341.952 -2.81036 1.97164 0
M  V30 3690 N 344.397 -0.483516 -1.5 0
M  V30 3691 C 345.345 0.318061 -2.30415 0
M  V30 3692 C 346.339 0.978988 -1.38247 0
M  V30 3693 O 347.545 0.908673 -1.55381 0
M  V30 3694 H 343.92 0.121419 -0.742133 0
M  V30 3695 H 345.891 -0.380403 -2.95965 0
M  V30 3696 C 344.64 1.38013 -3.19136 0
M  V30 3697 H 343.963 0.880952 -3.89973 0
M  V30 3698 H 345.403 1.91332 -3.78375 0
M  V30 3699 C 343.862 2.38884 -2.37563 0
M  V30 3700 O 344.392 3.44412 -2.06744 0
M  V30 3701 N 342.598 2.10912 -1.99911 0
M  V30 3702 H 342.145 1.25118 -2.25174 0
M  V30 3703 H 342.103 2.78635 -1.45636 0
M  V30 3704 N 345.875 1.56104 -0.216619 0
M  V30 3705 C 346.838 2.18819 0.681962 0
M  V30 3706 C 347.838 1.14866 1.12528 0
M  V30 3707 O 349.028 1.40128 1.03488 0
M  V30 3708 C 346.16 2.80756 1.93362 0
M  V30 3709 H 347.353 2.99595 0.135254 0
M  V30 3710 H 344.906 1.56265 0.0330003 0
M  V30 3711 H 345.641 2.03837 2.52232 0
M  V30 3712 H 345.426 3.56876 1.62426 0
M  V30 3713 H 346.916 3.28844 2.57393 0
M  V30 3714 N 347.353 -0.0568162 1.57498 0
M  V30 3715 C 348.601 -0.751617 1.87604 0
M  V30 3716 C 348.922 -1.77351 0.81066 0
M  V30 3717 O 348.192 -1.95254 -0.159018 0
M  V30 3718 H 346.772 -0.280583 0.692302 0
M  V30 3719 H 349.434 -0.0293483 1.94878 0
M  V30 3720 H 348.53 -1.25852 2.856 0
M  V30 3721 N 348.832 -1.54138 -0.328536 0
M  V30 3722 C 349.779 -1.83176 -1.40411 0
M  V30 3723 C 350.749 -0.678494 -1.5161 0
M  V30 3724 O 351.934 -0.92443 -1.6691 0
M  V30 3725 C 349.074 -2.06035 -2.76846 0
M  V30 3726 C 348.187 -3.33727 -2.74318 0
M  V30 3727 C 347.322 -3.46574 -4.02567 0
M  V30 3728 C 346.361 -4.68159 -3.94327 0
M  V30 3729 N 345.498 -4.77959 -5.14296 0
M  V30 3730 H 350.338 -2.74938 -1.14948 0
M  V30 3731 H 347.875 -1.36166 -0.556538 0
M  V30 3732 H 349.833 -2.1728 -3.56153 0
M  V30 3733 H 348.463 -1.1757 -3.00628 0
M  V30 3734 H 347.515 -3.31246 -1.8703 0
M  V30 3735 H 348.827 -4.23139 -2.64111 0
M  V30 3736 H 347.981 -3.57333 -4.90304 0
M  V30 3737 H 346.72 -2.55245 -4.15574 0
M  V30 3738 H 345.725 -4.57461 -3.04974 0
M  V30 3739 H 346.95 -5.60868 -3.82889 0
M  V30 3740 H 344.896 -3.89544 -5.27818 0
M  V30 3741 H 344.813 -5.6133 -5.06404 0
M  V30 3742 H 346.081 -4.93044 -6.03761 0
M  V30 3743 N 350.31 0.590341 -1.46126 0
M  V30 3744 C 351.721 1.17243 -1.45296 0
M  V30 3745 C 352.072 1.95281 -0.189723 0
M  V30 3746 O 351.197 2.04502 0.707674 0
M  V30 3747 C 351.792 2.13284 -2.6324 0
M  V30 3748 C 350.351 2.66832 -2.65476 0
M  V30 3749 C 349.498 1.42557 -2.3785 0
M  V30 3750 H 352.449 0.378692 -1.54116 0
M  V30 3751 H 352.47 2.96619 -2.38323 0
M  V30 3752 H 351.982 1.56459 -3.55165 0
M  V30 3753 H 350.083 3.27548 -1.77603 0
M  V30 3754 H 350.196 3.10088 -3.65215 0
M  V30 3755 H 348.56 1.72107 -1.87753 0
M  V30 3756 H 349.343 0.875741 -3.31942 0
M  V30 3757 N 351.788 1.33704 0.83433 0
M  V30 3758 C 353.037 1.24763 1.58484 0
M  V30 3759 C 353.35 -0.183775 1.94735 0
M  V30 3760 O 354.556 -0.395234 2.68608 0
M  V30 3761 C 353.012 2.18638 2.85876 0
M  V30 3762 C 352.62 3.66974 2.56971 0
M  V30 3763 C 354.364 2.18581 3.63899 0
M  V30 3764 C 352.271 4.5275 3.80488 0
M  V30 3765 H 351.201 0.463425 0.594772 0
M  V30 3766 H 353.852 1.58797 0.919551 0
M  V30 3767 H 352.234 1.77542 3.5397 0
M  V30 3768 H 353.408 4.16538 1.9706 0
M  V30 3769 H 351.723 3.69366 1.92244 0
M  V30 3770 H 354.32 2.79894 4.55591 0
M  V30 3771 H 354.663 1.18207 3.99165 0
M  V30 3772 H 355.196 2.58062 3.02735 0
M  V30 3773 H 351.935 5.54017 3.5035 0
M  V30 3774 H 351.455 4.07927 4.39722 0
M  V30 3775 H 353.134 4.66784 4.4802 0
M  V30 3776 N 353.266 -1.05314 1.17247 0
M  V30 3777 C 354.512 -1.78557 0.961513 0
M  V30 3778 C 354.845 -1.87419 -0.508697 0
M  V30 3779 O 354.12 -1.37307 -1.37757 0
M  V30 3780 C 354.403 -3.22514 1.60176 0
M  V30 3781 C 354.256 -3.21673 3.14399 0
M  V30 3782 C 355.575 -4.20318 1.30463 0
M  V30 3783 H 352.694 -0.6482 0.350723 0
M  V30 3784 H 355.336 -1.23102 1.44727 0
M  V30 3785 H 353.486 -3.69867 1.18871 0
M  V30 3786 H 355.158 -2.82405 3.64753 0
M  V30 3787 H 353.401 -2.60048 3.47214 0
M  V30 3788 H 354.072 -4.23271 3.54324 0
M  V30 3789 H 356.548 -3.81454 1.66229 0
M  V30 3790 H 355.424 -5.19289 1.77848 0
M  V30 3791 H 355.685 -4.41526 0.22521 0
M  V30 3792 N 354.744 -0.972509 -1.24016 0
M  V30 3793 C 355.654 -0.5143 -2.28893 0
M  V30 3794 C 356.67 0.427078 -1.68677 0
M  V30 3795 O 357.846 0.298939 -1.99169 0
M  V30 3796 C 354.911 0.183598 -3.46214 0
M  V30 3797 C 353.972 -0.798202 -4.21814 0
M  V30 3798 C 353.205 -0.133514 -5.33533 0
M  V30 3799 O 353.428 1.07714 -5.60137 0
M  V30 3800 O 352.362 -0.828103 -5.96176 0
M  V30 3801 H 356.188 -1.38629 -2.70214 0
M  V30 3802 H 353.773 -0.739769 -1.29799 0
M  V30 3803 H 355.655 0.575433 -4.17453 0
M  V30 3804 H 354.33 1.03048 -3.0686 0
M  V30 3805 H 353.237 -1.24059 -3.52931 0
M  V30 3806 H 354.57 -1.61364 -4.64997 0
M  V30 3807 N 356.222 1.38976 -0.743202 0
M  V30 3808 C 357.17 2.32394 -0.0978389 0
M  V30 3809 C 358.164 1.53486 0.716824 0
M  V30 3810 O 359.37 1.69092 0.617088 0
M  V30 3811 H 355.745 0.75189 -0.0128402 0
M  V30 3812 H 357.716 2.84441 -0.901981 0
M  V30 3813 C 356.465 3.38629 0.789036 0
M  V30 3814 H 355.788 3.99432 0.171559 0
M  V30 3815 H 357.228 4.06426 1.20807 0
M  V30 3816 C 355.687 2.76347 1.92702 0
M  V30 3817 O 356.217 2.64836 3.02034 0
M  V30 3818 N 354.423 2.34311 1.71891 0
M  V30 3819 H 353.97 2.43873 0.829675 0
M  V30 3820 H 353.928 1.9298 2.48205 0
M  V30 3821 N 357.7 0.491464 1.49741 0
M  V30 3822 C 358.948 -0.0563141 2.02022 0
M  V30 3823 C 359.269 -1.38363 1.37407 0
M  V30 3824 O 358.539 -1.88702 0.526166 0
M  V30 3825 H 357.119 -0.0238014 0.746621 0
M  V30 3826 H 359.781 0.646533 1.83864 0
M  V30 3827 H 358.877 -0.192967 3.11503 0
M  V30 3828 N 359.178 -1.55987 0.224894 0
M  V30 3829 C 360.125 -2.20436 -0.68385 0
M  V30 3830 C 361.095 -1.16102 -1.18783 0
M  V30 3831 O 362.28 -1.4447 -1.24632 0
M  V30 3832 C 359.42 -2.89076 -1.88491 0
M  V30 3833 C 358.533 -4.08012 -1.41951 0
M  V30 3834 C 357.668 -4.64426 -2.5784 0
M  V30 3835 C 356.707 -5.75656 -2.08053 0
M  V30 3836 N 355.844 -6.26347 -3.17227 0
M  V30 3837 H 360.684 -2.97727 -0.12754 0
M  V30 3838 H 358.221 -1.47011 -0.0511978 0
M  V30 3839 H 360.179 -3.27059 -2.59014 0
M  V30 3840 H 358.809 -2.14298 -2.41405 0
M  V30 3841 H 357.861 -3.75492 -0.609095 0
M  V30 3842 H 359.173 -4.88375 -1.01447 0
M  V30 3843 H 358.327 -5.04869 -3.3644 0
M  V30 3844 H 357.066 -3.83233 -3.01635 0
M  V30 3845 H 356.071 -5.34712 -1.27916 0
M  V30 3846 H 357.296 -6.58686 -1.65255 0
M  V30 3847 H 355.242 -5.48067 -3.60497 0
M  V30 3848 H 355.159 -7.01843 -2.80986 0
M  V30 3849 H 356.427 -6.71447 -3.95953 0
M  V30 3850 N 360.656 0.0484629 -1.57525 0
M  V30 3851 C 361.884 0.755421 -1.92616 0
M  V30 3852 C 362.299 1.69919 -0.822984 0
M  V30 3853 O 361.656 1.81378 0.202085 0
M  V30 3854 C 361.707 1.52915 -3.27566 0
M  V30 3855 O 361.428 0.62329 -4.33644 0
M  V30 3856 C 362.929 2.33502 -3.76818 0
M  V30 3857 H 360.149 0.213465 -0.63614 0
M  V30 3858 H 362.693 0.0117698 -2.04497 0
M  V30 3859 H 360.848 2.22486 -3.17142 0
M  V30 3860 H 361.262 1.16383 -5.11425 0
M  V30 3861 H 362.736 2.83214 -4.73808 0
M  V30 3862 H 363.213 3.14068 -3.07014 0
M  V30 3863 H 363.819 1.69043 -3.90262 0
M  V30 3864 N 362.134 1.5431 0.320358 0
M  V30 3865 C 363.38 1.72924 1.05949 0
M  V30 3866 C 363.713 0.503185 1.87568 0
M  V30 3867 O 362.988 -0.499839 1.87968 0
M  V30 3868 C 363.271 3.00676 1.98156 0
M  V30 3869 C 363.124 4.3354 1.19845 0
M  V30 3870 C 364.443 3.24198 2.9763 0
M  V30 3871 H 361.562 0.629195 0.383774 0
M  V30 3872 H 364.204 1.87008 0.335854 0
M  V30 3873 H 362.354 2.888 2.59859 0
M  V30 3874 H 364.026 4.57305 0.605773 0
M  V30 3875 H 362.269 4.309 0.500784 0
M  V30 3876 H 362.94 5.19156 1.87567 0
M  V30 3877 H 365.416 3.35557 2.4605 0
M  V30 3878 H 364.292 4.14938 3.59329 0
M  V30 3879 H 364.553 2.41577 3.7026 0
M  V30 3880 N 363.613 -0.582584 1.46437 0
M  V30 3881 C 364.843 -1.36484 1.55099 0
M  V30 3882 C 365.251 -1.88233 0.191056 0
M  V30 3883 O 364.594 -1.6429 -0.821858 0
M  V30 3884 C 364.656 -2.588 2.49525 0
M  V30 3885 C 364.32 -2.28517 3.95764 0
M  V30 3886 C 365.317 -1.87346 4.84972 0
M  V30 3887 C 363.002 -2.40658 4.40896 0
M  V30 3888 C 364.996 -1.5871 6.17325 0
M  V30 3889 C 362.683 -2.11635 5.73284 0
M  V30 3890 C 363.681 -1.70725 6.61318 0
M  V30 3891 O 363.369 -1.42057 7.91249 0
M  V30 3892 H 363.101 -0.423297 0.527063 0
M  V30 3893 H 365.655 -0.715188 1.92547 0
M  V30 3894 H 363.885 -3.26571 2.07095 0
M  V30 3895 H 365.574 -3.20868 2.48593 0
M  V30 3896 H 366.34 -1.77481 4.5136 0
M  V30 3897 H 362.219 -2.71463 3.72598 0
M  V30 3898 H 365.763 -1.26704 6.85997 0
M  V30 3899 H 361.66 -2.21124 6.06444 0
M  V30 3900 H 362.428 -1.55901 8.03515 0
M  V30 3901 N 365.091 -1.34144 -0.827227 0
M  V30 3902 C 366.502 -1.23557 -1.39966 0
M  V30 3903 C 366.853 0.140731 -1.95695 0
M  V30 3904 O 365.978 1.04087 -1.89723 0
M  V30 3905 C 366.573 -2.23708 -2.54441 0
M  V30 3906 C 365.132 -2.16924 -3.07605 0
M  V30 3907 C 364.279 -2.10549 -1.80456 0
M  V30 3908 H 367.23 -1.45573 -0.631991 0
M  V30 3909 H 367.251 -1.85157 -3.32411 0
M  V30 3910 H 366.763 -3.23866 -2.13851 0
M  V30 3911 H 364.864 -1.20107 -3.52711 0
M  V30 3912 H 364.977 -3.07988 -3.66988 0
M  V30 3913 H 363.341 -1.56203 -2.01178 0
M  V30 3914 H 364.124 -3.12535 -1.42046 0
M  V30 3915 N 366.569 1.04691 -1.17803 0
M  V30 3916 C 367.499 2.14494 -0.92275 0
M  V30 3917 C 368.48 1.69546 0.137179 0
M  V30 3918 O 369.665 1.94195 -0.0141108 0
M  V30 3919 C 366.795 3.44491 -0.440803 0
M  V30 3920 C 365.749 4.03031 -1.4405 0
M  V30 3921 C 365.075 5.28432 -0.81631 0
M  V30 3922 C 366.375 4.39932 -2.81527 0
M  V30 3923 H 368.069 2.36107 -1.84103 0
M  V30 3924 H 365.615 1.1347 -0.886599 0
M  V30 3925 H 367.568 4.2066 -0.249602 0
M  V30 3926 H 366.292 3.22546 0.513025 0
M  V30 3927 H 364.951 3.28937 -1.61853 0
M  V30 3928 H 364.599 5.02792 0.144511 0
M  V30 3929 H 364.299 5.68559 -1.48371 0
M  V30 3930 H 365.823 6.07284 -0.635496 0
M  V30 3931 H 367.237 5.07113 -2.67412 0
M  V30 3932 H 365.634 4.9109 -3.44892 0
M  V30 3933 H 366.704 3.50045 -3.35554 0
M  V30 3934 N 368.047 0.979072 1.23499 0
M  V30 3935 C 368.994 0.517904 2.24914 0
M  V30 3936 C 369.964 -0.442525 1.60097 0
M  V30 3937 O 371.149 -0.350365 1.87556 0
M  V30 3938 C 368.289 -0.174813 3.44657 0
M  V30 3939 C 367.402 0.825721 4.24035 0
M  V30 3940 C 366.537 0.107946 5.3109 0
M  V30 3941 C 365.576 1.09778 6.02175 0
M  V30 3942 N 364.713 0.40925 7.00906 0
M  V30 3943 H 369.553 1.38751 2.63727 0
M  V30 3944 H 367.09 0.695303 1.2963 0
M  V30 3945 H 369.048 -0.593233 4.12961 0
M  V30 3946 H 367.678 -1.0083 3.06648 0
M  V30 3947 H 366.73 1.36253 3.55161 0
M  V30 3948 H 368.042 1.58005 4.73113 0
M  V30 3949 H 367.196 -0.367904 6.05583 0
M  V30 3950 H 365.935 -0.678994 4.8295 0
M  V30 3951 H 364.94 1.5844 5.26476 0
M  V30 3952 H 366.165 1.88536 6.52404 0
M  V30 3953 H 364.111 -0.358506 6.5502 0
M  V30 3954 H 364.028 1.10226 7.47921 0
M  V30 3955 H 365.296 -0.0442557 7.79487 0
M  V30 3956 N 369.525 -1.3858 0.750561 0
M  V30 3957 C 370.936 -1.82927 0.373438 0
M  V30 3958 C 371.287 -1.62634 -1.09748 0
M  V30 3959 O 370.412 -1.12588 -1.84805 0
M  V30 3960 C 371.007 -3.32088 0.671029 0
M  V30 3961 C 369.566 -3.74795 0.34722 0
M  V30 3962 C 368.713 -2.61391 0.92575 0
M  V30 3963 H 371.664 -1.27351 0.946958 0
M  V30 3964 H 371.685 -3.80465 -0.0518269 0
M  V30 3965 H 371.197 -3.46826 1.74164 0
M  V30 3966 H 369.298 -3.65638 -0.716933 0
M  V30 3967 H 369.411 -4.71667 0.840656 0
M  V30 3968 H 367.775 -2.52265 0.351327 0
M  V30 3969 H 368.558 -2.78929 2.00133 0
M  V30 3970 N 371.003 -0.499398 -1.49478 0
M  V30 3971 C 371.953 0.299103 -2.2603 0
M  V30 3972 C 372.937 0.936934 -1.30807 0
M  V30 3973 O 374.129 0.844798 -1.55538 0
M  V30 3974 C 371.258 1.36391 -3.15044 0
M  V30 3975 C 370.344 0.732398 -4.17728 0
M  V30 3976 N 370.735 -0.164028 -5.05534 0
M  V30 3977 C 369.033 0.993162 -4.34801 0
M  V30 3978 C 369.734 -0.525345 -5.79323 0
M  V30 3979 N 368.71 0.106348 -5.43496 0
M  V30 3980 H 372.512 -0.391003 -2.91287 0
M  V30 3981 H 370.026 -0.31537 -1.59308 0
M  V30 3982 H 372.023 1.94939 -3.68516 0
M  V30 3983 H 370.683 2.05571 -2.51338 0
M  V30 3984 H 371.694 -0.534736 -5.15132 0
M  V30 3985 H 368.371 1.67783 -3.82302 0
M  V30 3986 H 369.761 -1.25862 -6.60006 0
M  V30 3987 N 372.481 1.55866 -0.233164 0
M  V30 3988 C 373.758 1.90471 0.444988 0
M  V30 3989 C 374.138 1.15209 1.7689 0
M  V30 3990 O 373.486 0.265119 2.26957 0
M  V30 3991 C 373.696 3.4333 0.626559 0
M  V30 3992 C 375.044 4.14319 0.92871 0
M  V30 3993 O 376.068 3.48993 0.712926 0
M  V30 3994 O 374.927 5.29846 1.33887 0
M  V30 3995 H 372.021 0.792347 0.236885 0
M  V30 3996 H 374.567 1.67437 -0.276211 0
M  V30 3997 H 373.339 3.90095 -0.306822 0
M  V30 3998 H 372.962 3.72181 1.39881 0
M  V30 3999 N 373.959 -0.0401083 1.57549 0
M  V30 4000 C 375.206 -0.733125 1.88763 0
M  V30 4001 C 375.534 -1.75946 0.829058 0
M  V30 4002 O 374.789 -1.94949 -0.171323 0
M  V30 4003 C 375.088 -1.44902 3.26708 0
M  V30 4004 C 374.754 -0.559707 4.47413 0
M  V30 4005 C 373.416 -0.314731 4.8017 0
M  V30 4006 C 375.768 0.0549743 5.21171 0
M  V30 4007 C 373.096 0.553886 5.8408 0
M  V30 4008 C 375.448 0.911229 6.26003 0
M  V30 4009 C 374.112 1.16577 6.57241 0
M  V30 4010 H 373.382 -0.268269 0.690733 0
M  V30 4011 H 376.029 0.00679408 1.91499 0
M  V30 4012 H 374.334 -2.26197 3.1991 0
M  V30 4013 H 376.031 -1.99058 3.48105 0
M  V30 4014 H 372.621 -0.760793 4.21794 0
M  V30 4015 H 376.805 -0.121344 4.96152 0
M  V30 4016 H 372.061 0.759518 6.06664 0
M  V30 4017 H 376.235 1.3941 6.82303 0
M  V30 4018 H 373.862 1.84058 7.37582 0
M  V30 4019 N 375.437 -1.54477 -0.31217 0
M  V30 4020 C 376.4 -1.83923 -1.36766 0
M  V30 4021 C 377.4 -0.711563 -1.44199 0
M  V30 4022 O 378.59 -0.979866 -1.44029 0
M  V30 4023 C 375.722 -2.0095 -2.75376 0
M  V30 4024 H 376.915 -2.78239 -1.11906 0
M  V30 4025 H 374.468 -1.46369 -0.548257 0
M  V30 4026 H 375.203 -1.08883 -3.05475 0
M  V30 4027 H 374.988 -2.83018 -2.71373 0
M  V30 4028 H 376.478 -2.2514 -3.51713 0
M  V30 4029 N 376.915 0.57481 -1.46744 0
M  V30 4030 C 378.161 1.3347 -1.52688 0
M  V30 4031 C 378.494 1.93353 -0.181229 0
M  V30 4032 O 377.769 1.76912 0.808237 0
M  V30 4033 C 378.052 2.45811 -2.63152 0
M  V30 4034 C 377.905 1.90912 -4.07275 0
M  V30 4035 C 379.224 3.47822 -2.69644 0
M  V30 4036 H 376.343 0.483935 -0.555856 0
M  V30 4037 H 378.985 0.644968 -1.78718 0
M  V30 4038 H 377.135 3.04646 -2.41088 0
M  V30 4039 H 378.807 1.36473 -4.4065 0
M  V30 4040 H 377.05 1.21691 -4.16382 0
M  V30 4041 H 377.721 2.72042 -4.80309 0
M  V30 4042 H 380.197 2.9888 -2.895 0
M  V30 4043 H 379.073 4.23876 -3.48742 0
M  V30 4044 H 379.334 4.05555 -1.76005 0
M  V30 4045 N 378.394 1.34581 0.820102 0
M  V30 4046 C 379.344 1.22943 1.92013 0
M  V30 4047 C 380.328 0.127802 1.60392 0
M  V30 4048 O 381.52 0.357737 1.73347 0
M  V30 4049 C 378.649 0.989938 3.28717 0
M  V30 4050 C 377.735 2.13486 3.66449 0
M  V30 4051 N 378.126 3.38625 3.75722 0
M  V30 4052 C 376.424 2.04573 3.96315 0
M  V30 4053 C 377.125 4.13832 4.08801 0
M  V30 4054 N 376.101 3.42451 4.22171 0
M  V30 4055 H 379.903 2.17771 1.97365 0
M  V30 4056 H 377.417 1.2686 1.01392 0
M  V30 4057 H 379.414 0.887462 4.07345 0
M  V30 4058 H 378.074 0.0503691 3.24661 0
M  V30 4059 H 379.085 3.73143 3.59144 0
M  V30 4060 H 375.762 1.1839 4.00362 0
M  V30 4061 H 377.152 5.21909 4.23156 0
M  V30 4062 N 379.872 -1.04064 1.18357 0
M  V30 4063 C 381.121 -1.76662 0.973313 0
M  V30 4064 C 381.434 -1.89154 -0.497991 0
M  V30 4065 O 382.64 -2.58606 -0.826762 0
M  V30 4066 C 381.096 -3.17624 1.69242 0
M  V30 4067 C 380.704 -3.13225 3.20303 0
M  V30 4068 C 382.448 -3.946 1.56497 0
M  V30 4069 C 380.355 -4.49046 3.84853 0
M  V30 4070 H 379.285 -0.662214 0.36054 0
M  V30 4071 H 381.936 -1.16553 1.41731 0
M  V30 4072 H 380.318 -3.78129 1.1762 0
M  V30 4073 H 381.492 -2.62172 3.78949 0
M  V30 4074 H 379.807 -2.49749 3.33189 0
M  V30 4075 H 382.404 -4.95042 2.02084 0
M  V30 4076 H 382.747 -4.13074 0.517243 0
M  V30 4077 H 383.28 -3.4067 2.05399 0
M  V30 4078 H 380.019 -4.35777 4.89672 0
M  V30 4079 H 379.539 -5.00203 3.30994 0
M  V30 4080 H 381.218 -5.17961 3.87718 0
M  V30 4081 N 381.35 -0.985608 -1.22978 0
M  V30 4082 C 382.627 -0.573599 -1.87001 0
M  V30 4083 C 383.007 0.949213 -1.88555 0
M  V30 4084 O 382.355 1.82811 -1.37086 0
M  V30 4085 C 382.565 -1.18564 -3.28243 0
M  V30 4086 C 383.913 -1.28163 -4.04796 0
M  V30 4087 O 384.937 -1.13949 -3.37482 0
M  V30 4088 O 383.796 -1.50832 -5.25273 0
M  V30 4089 H 380.89 -0.193868 -0.803955 0
M  V30 4090 H 383.436 -1.08102 -1.30813 0
M  V30 4091 H 382.208 -2.22758 -3.21706 0
M  V30 4092 H 381.831 -0.663363 -3.92027 0
M  V30 4093 N 382.828 1.3818 -0.7579 0
M  V30 4094 C 384.053 2.04827 -0.325679 0
M  V30 4095 C 384.478 1.56788 1.03919 0
M  V30 4096 O 383.836 0.721811 1.66312 0
M  V30 4097 C 383.884 3.58774 -0.362447 0
M  V30 4098 O 382.988 4.07372 0.642033 0
M  V30 4099 H 382.329 0.64833 -0.143402 0
M  V30 4100 H 384.859 1.7677 -1.03023 0
M  V30 4101 H 384.869 4.07434 -0.214844 0
M  V30 4102 H 383.544 3.93096 -1.35824 0
M  V30 4103 H 382.121 3.70068 0.458688 0
M  V30 4104 N 384.306 0.507319 1.49211 0
M  V30 4105 C 385.536 -0.0315292 2.06576 0
M  V30 4106 C 385.944 -1.30791 1.36713 0
M  V30 4107 O 385.287 -1.78324 0.441181 0
M  V30 4108 C 385.349 -0.349104 3.57801 0
M  V30 4109 C 385.013 0.830475 4.49391 0
M  V30 4110 C 386.01 1.72271 4.90529 0
M  V30 4111 C 383.695 1.03107 4.91604 0
M  V30 4112 C 385.689 2.79964 5.72625 0
M  V30 4113 C 383.376 2.11116 5.73475 0
M  V30 4114 C 384.374 2.99379 6.1389 0
M  V30 4115 O 384.062 4.05523 6.94123 0
M  V30 4116 H 383.794 0.0201002 0.675701 0
M  V30 4117 H 386.348 0.705737 1.92895 0
M  V30 4118 H 384.578 -1.14005 3.69513 0
M  V30 4119 H 386.267 -0.827319 3.97379 0
M  V30 4120 H 387.033 1.57958 4.58557 0
M  V30 4121 H 382.912 0.353417 4.59643 0
M  V30 4122 H 386.456 3.48884 6.04091 0
M  V30 4123 H 382.353 2.25421 6.0486 0
M  V30 4124 H 383.121 4.02953 7.1244 0
M  V30 4125 N 385.784 -1.5574 0.241426 0
M  V30 4126 C 387.014 -2.02913 -0.38857 0
M  V30 4127 C 387.422 -1.12014 -1.52478 0
M  V30 4128 O 386.765 -0.125903 -1.83268 0
M  V30 4129 C 386.827 -3.4636 -0.963075 0
M  V30 4130 C 386.491 -4.56982 0.0401916 0
M  V30 4131 C 387.488 -5.12941 0.847766 0
M  V30 4132 C 385.173 -5.0203 0.164699 0
M  V30 4133 C 387.167 -6.12437 1.76636 0
M  V30 4134 C 384.854 -6.01358 1.0868 0
M  V30 4135 C 385.852 -6.5644 1.88616 0
M  V30 4136 O 385.54 -7.53831 2.79273 0
M  V30 4137 H 385.272 -0.668983 -0.0971452 0
M  V30 4138 H 387.826 -2.02198 0.361248 0
M  V30 4139 H 386.056 -3.44206 -1.76235 0
M  V30 4140 H 387.745 -3.77065 -1.50257 0
M  V30 4141 H 388.511 -4.78974 0.762133 0
M  V30 4142 H 384.39 -4.58824 -0.447411 0
M  V30 4143 H 387.934 -6.55355 2.39071 0
M  V30 4144 H 383.831 -6.34746 1.17338 0
M  V30 4145 H 384.599 -7.71428 2.73572 0
M  V30 4146 N 387.262 0.0317525 -1.57568 0
M  V30 4147 C 388.172 1.05021 -2.0978 0
M  V30 4148 C 389.188 1.39809 -1.03583 0
M  V30 4149 O 390.364 1.49182 -1.35302 0
M  V30 4150 C 387.429 2.33301 -2.56459 0
M  V30 4151 C 386.49 2.0512 -3.77127 0
M  V30 4152 C 385.723 3.27283 -4.2157 0
M  V30 4153 O 385.946 4.37861 -3.65559 0
M  V30 4154 O 384.88 3.13141 -5.14029 0
M  V30 4155 H 388.706 0.636505 -2.96955 0
M  V30 4156 H 386.291 0.248559 -1.47318 0
M  V30 4157 H 388.173 3.08722 -2.86825 0
M  V30 4158 H 386.848 2.73973 -1.72397 0
M  V30 4159 H 385.755 1.27276 -3.51784 0
M  V30 4160 H 387.088 1.69305 -4.62165 0
M  V30 4161 N 388.74 1.54641 0.303973 0
M  V30 4162 C 389.67 1.88386 1.3796 0
M  V30 4163 C 390.651 0.742485 1.5304 0
M  V30 4164 O 391.836 0.997959 1.66597 0
M  V30 4165 C 388.966 2.12854 2.74427 0
M  V30 4166 C 387.92 3.28702 2.74115 0
M  V30 4167 C 387.246 3.38582 4.13844 0
M  V30 4168 C 388.546 4.65881 2.3612 0
M  V30 4169 H 390.24 2.78474 1.09966 0
M  V30 4170 H 387.786 1.33988 0.527556 0
M  V30 4171 H 389.739 2.35047 3.49758 0
M  V30 4172 H 388.463 1.19535 3.03939 0
M  V30 4173 H 387.122 3.06428 2.0124 0
M  V30 4174 H 386.77 2.42784 4.40528 0
M  V30 4175 H 386.47 4.16453 4.14537 0
M  V30 4176 H 387.994 3.63031 4.90959 0
M  V30 4177 H 389.408 4.87823 3.01167 0
M  V30 4178 H 387.805 5.46444 2.48031 0
M  V30 4179 H 388.875 4.66799 1.3125 0
M  V30 4180 N 390.218 -0.567019 1.47046 0
M  V30 4181 C 391.466 -1.322 1.52864 0
M  V30 4182 C 391.787 -1.94088 0.188388 0
M  V30 4183 O 391.057 -1.7941 -0.786693 0
M  V30 4184 H 389.637 -0.490894 0.563056 0
M  V30 4185 H 392.299 -0.662879 1.83281 0
M  V30 4186 H 391.395 -2.12062 2.2899 0
M  V30 4187 N 391.696 -1.35014 -0.812953 0
M  V30 4188 C 392.942 -1.2812 -1.57204 0
M  V30 4189 C 393.275 0.145869 -1.93651 0
M  V30 4190 O 392.55 1.0937 -1.60836 0
M  V30 4191 C 392.833 -2.18162 -2.86492 0
M  V30 4192 C 392.686 -3.69454 -2.56561 0
M  V30 4193 C 394.005 -2.07439 -3.88145 0
M  V30 4194 H 391.124 -0.466746 -0.570366 0
M  V30 4195 H 393.766 -1.65357 -0.935783 0
M  V30 4196 H 391.916 -1.86535 -3.40789 0
M  V30 4197 H 393.588 -4.11493 -2.08497 0
M  V30 4198 H 391.831 -3.9005 -1.89851 0
M  V30 4199 H 392.502 -4.27835 -3.48799 0
M  V30 4200 H 394.978 -2.35228 -3.4323 0
M  V30 4201 H 393.854 -2.7265 -4.76396 0
M  V30 4202 H 394.115 -1.05439 -4.29343 0
M  V30 4203 N 393.175 1.03435 -1.18907 0
M  V30 4204 C 394.123 2.13703 -0.918353 0
M  V30 4205 C 395.117 1.68947 0.123767 0
M  V30 4206 O 396.323 1.79983 -0.0249701 0
M  V30 4207 H 392.698 0.698112 -0.279542 0
M  V30 4208 H 394.669 2.33731 -1.85506 0
M  V30 4209 C 393.418 3.44542 -0.467532 0
M  V30 4210 H 392.741 3.79394 -1.26095 0
M  V30 4211 H 394.181 4.22812 -0.317164 0
M  V30 4212 C 392.64 3.26829 0.817588 0
M  V30 4213 O 393.17 3.54975 1.88031 0
M  V30 4214 N 391.376 2.80139 0.772677 0
M  V30 4215 H 390.923 2.57434 -0.0923883 0
M  V30 4216 H 390.881 2.68668 1.63294 0
M  V30 4217 N 394.653 0.992116 1.22453 0
M  V30 4218 C 395.902 0.662992 1.90492 0
M  V30 4219 C 396.215 -0.808407 1.78113 0
M  V30 4220 O 397.421 -1.24908 2.41061 0
M  V30 4221 C 395.877 1.1353 3.41524 0
M  V30 4222 C 395.485 2.63187 3.62542 0
M  V30 4223 C 397.229 0.880465 4.15269 0
M  V30 4224 C 395.136 3.04024 5.0727 0
M  V30 4225 H 394.066 0.244278 0.713333 0
M  V30 4226 H 396.717 1.20157 1.38688 0
M  V30 4227 H 395.099 0.52485 3.92506 0
M  V30 4228 H 396.273 3.2957 3.22056 0
M  V30 4229 H 394.588 2.86543 3.02129 0
M  V30 4230 H 397.185 1.16128 5.21937 0
M  V30 4231 H 397.528 -0.183408 4.15896 0
M  V30 4232 H 398.061 1.45307 3.70312 0
M  V30 4233 H 394.8 4.09584 5.11782 0
M  V30 4234 H 394.32 2.42343 5.48662 0
M  V30 4235 H 395.999 2.95282 5.75689 0
M  V30 4236 N 396.131 -1.37776 0.765217 0
M  V30 4237 C 397.378 -1.99849 0.326588 0
M  V30 4238 C 397.706 -1.60746 -1.09504 0
M  V30 4239 O 396.961 -0.84202 -1.76659 0
M  V30 4240 C 397.26 -3.5504 0.410053 0
M  V30 4241 C 396.926 -4.13891 1.78899 0
M  V30 4242 C 395.588 -4.29678 2.16635 0
M  V30 4243 C 397.94 -4.46236 2.69301 0
M  V30 4244 C 395.268 -4.7511 3.44221 0
M  V30 4245 C 397.62 -4.93089 3.9629 0
M  V30 4246 C 396.284 -5.07082 4.34078 0
M  V30 4247 H 395.554 -0.7313 0.119507 0
M  V30 4248 H 398.201 -1.64645 0.977968 0
M  V30 4249 H 396.506 -3.90451 -0.324878 0
M  V30 4250 H 398.203 -4.00966 0.0520699 0
M  V30 4251 H 394.793 -4.02026 1.48569 0
M  V30 4252 H 398.977 -4.3363 2.41409 0
M  V30 4253 H 394.233 -4.84129 3.73402 0
M  V30 4254 H 398.407 -5.17084 4.66472 0
M  V30 4255 H 396.034 -5.42046 5.33001 0
M  V30 4256 N 397.609 -0.515225 -1.4894 0
M  V30 4257 C 398.857 0.0241671 -2.02086 0
M  V30 4258 C 399.178 1.3616 -1.3959 0
M  V30 4259 O 398.448 1.87841 -0.556121 0
M  V30 4260 H 397.028 0.0119203 -0.746905 0
M  V30 4261 H 399.69 -0.675702 -1.82812 0
M  V30 4262 H 398.786 0.143385 -3.1177 0
M  V30 4263 N 399.087 1.5561 -0.249682 0
M  V30 4264 C 400.335 1.98618 0.373548 0
M  V30 4265 C 400.656 1.13919 1.58264 0
M  V30 4266 O 399.926 0.222637 1.94631 0
M  V30 4267 H 398.506 0.733571 0.141006 0
M  V30 4268 H 401.168 1.91748 -0.349117 0
M  V30 4269 H 400.264 3.04584 0.680796 0
M  V30 4270 N 400.565 -0.0233959 1.57583 0
M  V30 4271 C 401.805 -0.71784 1.9138 0
M  V30 4272 C 402.169 -1.72216 0.848853 0
M  V30 4273 O 403.37 -2.46527 1.07134 0
M  V30 4274 C 401.641 -1.36489 3.30311 0
M  V30 4275 S 403.2 -2.0877 3.85954 0
M  V30 4276 H 400.018 -0.237676 0.670098 0
M  V30 4277 H 402.62 0.0276709 1.9548 0
M  V30 4278 H 401.324 -0.620782 4.05678 0
M  V30 4279 H 400.855 -2.14883 3.29528 0
M  V30 4280 H 402.87 -3.35988 3.65139 0
M  V30 4281 N 402.043 -1.548 -0.295768 0
M  V30 4282 C 403.283 -1.76069 -1.03823 0
M  V30 4283 C 403.647 -0.537992 -1.84309 0
M  V30 4284 O 404.848 -0.628514 -2.61349 0
M  V30 4285 C 403.119 -3.01705 -1.91596 0
M  V30 4286 S 404.678 -3.43998 -2.72416 0
M  V30 4287 H 401.496 -0.618852 -0.350062 0
M  V30 4288 H 404.098 -1.93009 -0.31106 0
M  V30 4289 H 402.802 -3.88812 -1.31351 0
M  V30 4290 H 402.333 -2.87366 -2.68671 0
M  V30 4291 H 404.348 -3.0148 -3.94112 0
M  V30 4292 N 403.521 0.559213 -1.47345 0
M  V30 4293 C 404.769 1.31388 -1.53563 0
M  V30 4294 C 405.09 1.93985 -0.198678 0
M  V30 4295 O 404.36 1.79825 0.777167 0
M  V30 4296 H 402.94 0.487901 -0.565652 0
M  V30 4297 H 405.602 0.65315 -1.8363 0
M  V30 4298 H 404.698 2.10844 -2.30111 0
M  V30 4299 N 404.999 1.35443 0.805782 0
M  V30 4300 C 406.227 1.31878 1.59423 0
M  V30 4301 C 406.642 -0.103562 1.88516 0
M  V30 4302 O 405.999 -1.05575 1.48863 0
M  V30 4303 C 406.05 2.12426 2.92502 0
M  V30 4304 O 405.771 3.49115 2.6467 0
M  V30 4305 C 407.272 2.16455 3.86862 0
M  V30 4306 H 404.492 0.453002 0.495005 0
M  V30 4307 H 407.036 1.78309 1.00131 0
M  V30 4308 H 405.191 1.69593 3.48306 0
M  V30 4309 H 405.605 3.90957 3.49647 0
M  V30 4310 H 407.079 2.77204 4.77349 0
M  V30 4311 H 407.556 1.16352 4.23508 0
M  V30 4312 H 408.162 2.59453 3.36993 0
M  V30 4313 N 406.477 -1.02803 1.19454 0
M  V30 4314 C 407.705 -1.79841 1.02297 0
M  V30 4315 C 408.12 -1.83879 -0.428259 0
M  V30 4316 O 407.477 -1.28345 -1.29745 0
M  V30 4317 C 407.528 -3.24852 1.58598 0
M  V30 4318 O 407.249 -3.21097 2.98041 0
M  V30 4319 C 408.75 -4.18485 1.46236 0
M  V30 4320 H 405.97 -0.565936 0.360496 0
M  V30 4321 H 408.514 -1.2948 1.58288 0
M  V30 4322 H 406.669 -3.72401 1.06753 0
M  V30 4323 H 407.083 -4.12033 3.24545 0
M  V30 4324 H 408.557 -5.18121 1.90407 0
M  V30 4325 H 409.034 -4.37254 0.41301 0
M  V30 4326 H 409.64 -3.76811 1.97215 0
M  V30 4327 N 407.956 -0.998596 -1.21925 0
M  V30 4328 C 409.367 -0.711939 -1.72593 0
M  V30 4329 C 409.718 0.770842 -1.80423 0
M  V30 4330 O 408.843 1.60237 -1.4544 0
M  V30 4331 C 409.438 -1.28567 -3.13458 0
M  V30 4332 C 407.997 -1.04828 -3.61508 0
M  V30 4333 C 407.144 -1.4024 -2.39224 0
M  V30 4334 H 410.095 -1.17027 -1.07193 0
M  V30 4335 H 410.116 -0.667098 -3.74607 0
M  V30 4336 H 409.628 -2.36486 -3.07727 0
M  V30 4337 H 407.729 0.0140383 -3.72597 0
M  V30 4338 H 407.842 -1.71566 -4.47328 0
M  V30 4339 H 406.206 -0.821077 -2.41103 0
M  V30 4340 H 406.989 -2.49176 -2.36149 0
M  V30 4341 N 409.434 1.37368 -0.772513 0
M  V30 4342 C 410.344 2.34053 -0.160081 0
M  V30 4343 C 411.36 1.60216 0.678728 0
M  V30 4344 O 412.536 1.92303 0.59847 0
M  V30 4345 C 409.601 3.3939 0.708182 0
M  V30 4346 C 408.662 4.29048 -0.147172 0
M  V30 4347 C 407.895 5.29354 0.679744 0
M  V30 4348 O 408.118 5.3723 1.91678 0
M  V30 4349 O 407.052 6.01835 0.0885444 0
M  V30 4350 H 410.878 2.88159 -0.959053 0
M  V30 4351 H 408.463 1.39543 -0.533685 0
M  V30 4352 H 410.345 4.03839 1.20384 0
M  V30 4353 H 409.02 2.8761 1.48533 0
M  V30 4354 H 407.927 3.67697 -0.689205 0
M  V30 4355 H 409.26 4.84134 -0.887423 0
M  V30 4356 N 410.912 0.523116 1.48665 0
M  V30 4357 C 411.862 -0.263106 2.26477 0
M  V30 4358 C 412.846 -0.916005 1.32281 0
M  V30 4359 O 414.038 -0.819946 1.56863 0
M  V30 4360 C 411.167 -1.31361 3.17174 0
M  V30 4361 C 410.253 -0.665849 4.1884 0
M  V30 4362 N 410.644 0.244434 5.05209 0
M  V30 4363 C 408.942 -0.923863 4.36326 0
M  V30 4364 C 409.643 0.617443 5.78414 0
M  V30 4365 N 408.619 -0.0198686 5.43596 0
M  V30 4366 H 412.421 0.437295 2.90629 0
M  V30 4367 H 409.935 0.340675 1.58787 0
M  V30 4368 H 411.932 -1.89052 3.71571 0
M  V30 4369 H 410.592 -2.01546 2.54576 0
M  V30 4370 H 411.603 0.616621 5.14216 0
M  V30 4371 H 408.28 -1.6168 3.84923 0
M  V30 4372 H 409.67 1.36346 6.57921 0
M  V30 4373 N 412.39 -1.55475 0.257931 0
M  V30 4374 C 413.636 -1.99502 -0.364266 0
M  V30 4375 C 413.969 -1.146 -1.56782 0
M  V30 4376 O 413.244 -0.211968 -1.93342 0
M  V30 4377 C 413.527 -3.51917 -0.763333 0
M  V30 4378 C 413.38 -4.4758 0.446371 0
M  V30 4379 C 414.699 -4.09742 -1.60623 0
M  V30 4380 H 411.818 -0.725277 -0.130929 0
M  V30 4381 H 414.46 -1.8653 0.361446 0
M  V30 4382 H 412.61 -3.63101 -1.38166 0
M  V30 4383 H 414.282 -4.48362 1.08487 0
M  V30 4384 H 412.525 -4.19947 1.08753 0
M  V30 4385 H 413.196 -5.51862 0.123645 0
M  V30 4386 H 415.672 -4.01727 -1.08418 0
M  V30 4387 H 414.548 -5.16631 -1.85429 0
M  V30 4388 H 414.809 -3.58889 -2.58169 0
M  V30 4389 N 413.868 0.0150385 -1.57593 0
M  V30 4390 C 414.815 1.01126 -2.07466 0
M  V30 4391 C 415.785 1.35064 -0.966794 0
M  V30 4392 O 416.97 1.4516 -1.23827 0
M  V30 4393 C 414.11 2.30276 -2.57035 0
M  V30 4394 C 413.223 2.02373 -3.81666 0
M  V30 4395 C 412.358 3.25496 -4.19793 0
M  V30 4396 C 411.397 2.93211 -5.37303 0
M  V30 4397 N 410.534 4.08826 -5.70794 0
M  V30 4398 H 415.374 0.57901 -2.92321 0
M  V30 4399 H 412.911 0.27426 -1.44521 0
M  V30 4400 H 414.869 3.05757 -2.83846 0
M  V30 4401 H 413.499 2.71197 -1.75077 0
M  V30 4402 H 412.551 1.17327 -3.61854 0
M  V30 4403 H 413.863 1.74567 -4.67256 0
M  V30 4404 H 413.017 4.09333 -4.47807 0
M  V30 4405 H 411.756 3.56428 -3.32882 0
M  V30 4406 H 410.761 2.07777 -5.09027 0
M  V30 4407 H 411.986 2.63542 -6.25877 0
M  V30 4408 H 409.932 4.39682 -4.86842 0
M  V30 4409 H 409.849 3.84491 -6.50924 0
M  V30 4410 H 411.117 4.93496 -6.03392 0
M  V30 4411 N 415.346 1.54954 0.287554 0
M  V30 4412 C 416.276 1.89839 1.35954 0
M  V30 4413 C 417.257 0.758675 1.52244 0
M  V30 4414 O 418.442 1.01557 1.65529 0
M  V30 4415 C 415.572 2.15753 2.72154 0
M  V30 4416 C 414.526 3.3159 2.70614 0
M  V30 4417 C 413.852 3.42952 4.10229 0
M  V30 4418 C 415.152 4.68359 2.31165 0
M  V30 4419 H 416.846 2.79625 1.07007 0
M  V30 4420 H 414.392 1.3454 0.513316 0
M  V30 4421 H 416.345 2.38743 3.47246 0
M  V30 4422 H 415.069 1.22752 3.02654 0
M  V30 4423 H 413.728 3.08545 1.97979 0
M  V30 4424 H 413.376 2.47443 4.37928 0
M  V30 4425 H 413.076 4.20826 4.10097 0
M  V30 4426 H 414.6 3.68218 4.87081 0
M  V30 4427 H 416.014 4.9099 2.95976 0
M  V30 4428 H 414.411 5.49044 2.42221 0
M  V30 4429 H 415.481 4.68165 1.26291 0
M  V30 4430 N 416.824 -0.551391 1.4764 0
M  V30 4431 C 418.071 -1.3083 1.54563 0
M  V30 4432 C 418.399 -1.93359 0.210361 0
M  V30 4433 O 417.654 -1.78721 -0.797332 0
M  V30 4434 C 417.953 -2.43469 2.61644 0
M  V30 4435 C 417.619 -1.98732 4.04742 0
M  V30 4436 C 416.281 -1.86248 4.43695 0
M  V30 4437 C 418.633 -1.64659 4.94507 0
M  V30 4438 C 415.961 -1.37995 5.70241 0
M  V30 4439 C 418.313 -1.17875 6.21521 0
M  V30 4440 C 416.977 -1.03992 6.5935 0
M  V30 4441 H 416.247 -0.478741 0.565587 0
M  V30 4442 H 418.894 -0.617697 1.81264 0
M  V30 4443 H 417.199 -3.18109 2.28722 0
M  V30 4444 H 418.896 -3.01642 2.64222 0
M  V30 4445 H 415.486 -2.09393 3.73968 0
M  V30 4446 H 419.67 -1.73174 4.65107 0
M  V30 4447 H 414.926 -1.25915 5.98294 0
M  V30 4448 H 419.1 -0.905739 6.90485 0
M  V30 4449 H 416.727 -0.663794 7.57296 0
M  V30 4450 N 418.302 -1.35869 -0.798587 0
M  V30 4451 C 419.718 -1.16082 -1.09532 0
M  V30 4452 C 419.918 0.0213124 -2.01489 0
M  V30 4453 O 418.974 0.689488 -2.42904 0
M  V30 4454 C 420.287 -2.46748 -1.7186 0
M  V30 4455 C 421.835 -2.53028 -1.84244 0
M  V30 4456 C 422.31 -3.83758 -2.49988 0
M  V30 4457 N 423.801 -3.85053 -2.57465 0
M  V30 4458 C 424.536 -4.8294 -3.09122 0
M  V30 4459 N 424.032 -5.91217 -3.61157 0
M  V30 4460 N 425.825 -4.70369 -3.0775 0
M  V30 4461 H 417.976 -2.11571 -0.187461 0
M  V30 4462 H 420.239 -0.936726 -0.145765 0
M  V30 4463 H 419.945 -3.33471 -1.11759 0
M  V30 4464 H 419.819 -2.61883 -2.71472 0
M  V30 4465 H 422.206 -1.66729 -2.43486 0
M  V30 4466 H 422.287 -2.418 -0.834643 0
M  V30 4467 H 421.931 -4.70459 -1.91393 0
M  V30 4468 H 421.861 -3.92278 -3.5132 0
M  V30 4469 H 424.352 -3.06822 -2.20609 0
M  V30 4470 H 424.665 -6.61892 -3.98896 0
M  V30 4471 H 423.01 -5.94899 -3.59333 0
M  V30 4472 H 426.201 -3.84914 -2.66381 0
M  V30 4473 H 426.374 -5.46816 -3.47701 0
M  V30 4474 N 419.78 1.02168 -1.19998 0
M  V30 4475 C 420.727 2.10601 -0.944228 0
M  V30 4476 C 421.697 1.65639 0.123664 0
M  V30 4477 O 422.882 1.9079 -0.0199941 0
M  V30 4478 C 420.022 3.41504 -0.496865 0
M  V30 4479 C 419.135 3.99973 -1.63234 0
M  V30 4480 C 418.27 5.18915 -1.13579 0
M  V30 4481 C 417.309 5.69456 -2.24468 0
M  V30 4482 N 416.446 6.79665 -1.76068 0
M  V30 4483 H 421.286 2.31814 -1.8726 0
M  V30 4484 H 418.823 1.13686 -0.933483 0
M  V30 4485 H 420.781 4.16626 -0.218843 0
M  V30 4486 H 419.411 3.2038 0.394508 0
M  V30 4487 H 418.463 3.21997 -2.0254 0
M  V30 4488 H 419.775 4.33492 -2.46752 0
M  V30 4489 H 418.929 6.01222 -0.813429 0
M  V30 4490 H 417.668 4.8695 -0.270434 0
M  V30 4491 H 416.673 4.85757 -2.57526 0
M  V30 4492 H 417.898 6.03459 -3.11472 0
M  V30 4493 H 415.844 6.49538 -0.918516 0
M  V30 4494 H 415.761 7.12349 -2.5317 0
M  V30 4495 H 417.029 7.65549 -1.46817 0
M  V30 4496 N 421.258 1.00505 1.21394 0
M  V30 4497 C 422.504 0.688793 1.90745 0
M  V30 4498 C 422.837 -0.778486 1.77914 0
M  V30 4499 O 422.112 -1.56433 1.15581 0
M  V30 4500 C 422.395 1.11063 3.42545 0
M  V30 4501 C 422.248 2.63737 3.64367 0
M  V30 4502 C 423.567 0.673059 4.34923 0
M  V30 4503 H 420.686 0.251702 0.692687 0
M  V30 4504 H 423.328 1.25074 1.43026 0
M  V30 4505 H 421.478 0.632508 3.83317 0
M  V30 4506 H 423.15 3.19313 3.32922 0
M  V30 4507 H 421.393 3.05248 3.08231 0
M  V30 4508 H 422.064 2.88305 4.70727 0
M  V30 4509 H 424.54 1.08392 4.01734 0
M  V30 4510 H 423.416 0.996383 5.39781 0
M  V30 4511 H 423.677 -0.425808 4.40045 0
M  V30 4512 N 422.737 -1.36956 0.779787 0
M  V30 4513 C 423.667 -2.32761 0.185651 0
M  V30 4514 C 424.648 -1.56177 -0.673989 0
M  V30 4515 O 425.833 -1.84378 -0.609797 0
M  V30 4516 C 422.963 -3.40418 -0.687964 0
M  V30 4517 C 421.917 -4.27941 0.0710102 0
M  V30 4518 C 421.243 -5.26681 -0.922573 0
M  V30 4519 C 422.543 -5.07006 1.25467 0
M  V30 4520 H 424.237 -2.82698 0.986008 0
M  V30 4521 H 421.783 -1.3592 0.475592 0
M  V30 4522 H 423.736 -4.06423 -1.11348 0
M  V30 4523 H 422.46 -2.89025 -1.52093 0
M  V30 4524 H 421.119 -3.63478 0.47739 0
M  V30 4525 H 420.767 -4.71565 -1.7503 0
M  V30 4526 H 420.467 -5.86103 -0.419237 0
M  V30 4527 H 421.991 -5.9556 -1.34686 0
M  V30 4528 H 423.405 -5.66105 0.905401 0
M  V30 4529 H 421.802 -5.75793 1.69063 0
M  V30 4530 H 422.872 -4.3921 2.05481 0
M  V30 4531 N 424.215 -0.530993 -1.48385 0
M  V30 4532 C 425.463 0.00273189 -2.021 0
M  V30 4533 C 425.784 1.34672 -1.41027 0
M  V30 4534 O 425.054 1.8724 -0.576012 0
M  V30 4535 H 423.634 0.00399774 -0.746989 0
M  V30 4536 H 426.296 -0.695054 -1.82085 0
M  V30 4537 H 425.392 0.11031 -3.11905 0
M  V30 4538 N 425.693 1.55336 -0.266172 0
M  V30 4539 C 426.641 2.23587 0.641228 0
M  V30 4540 C 427.635 1.22986 1.16494 0
M  V30 4541 O 428.841 1.40943 1.1196 0
M  V30 4542 H 425.216 0.717452 0.225315 0
M  V30 4543 H 427.187 2.9837 0.0426561 0
M  V30 4544 C 425.936 2.96369 1.81826 0
M  V30 4545 H 425.259 3.73563 1.42445 0
M  V30 4546 H 426.699 3.47459 2.42998 0
M  V30 4547 C 425.158 2.0133 2.70125 0
M  V30 4548 O 425.688 1.55875 3.70224 0
M  V30 4549 N 423.894 1.6802 2.37102 0
M  V30 4550 H 423.441 2.05181 1.55751 0
M  V30 4551 H 423.399 1.047 2.96454 0
M  V30 4552 N 427.171 -0.0066808 1.57599 0
M  V30 4553 C 428.587 -0.36267 1.55425 0
M  V30 4554 C 428.787 -1.75209 0.995187 0
M  V30 4555 O 427.843 -2.44616 0.626058 0
M  V30 4556 C 429.156 -0.244017 2.99708 0
M  V30 4557 C 430.704 -0.319451 3.11366 0
M  V30 4558 C 431.179 -0.229998 4.57422 0
M  V30 4559 N 432.67 -0.288105 4.62303 0
M  V30 4560 C 433.405 -0.242127 5.72889 0
M  V30 4561 N 432.901 -0.147133 6.92644 0
M  V30 4562 N 434.694 -0.293502 5.61333 0
M  V30 4563 H 426.845 0.902314 1.92281 0
M  V30 4564 H 429.108 0.34525 0.882896 0
M  V30 4565 H 428.814 0.711678 3.44424 0
M  V30 4566 H 428.688 -1.02877 3.629 0
M  V30 4567 H 431.075 -1.26559 2.66584 0
M  V30 4568 H 431.156 0.495055 2.50964 0
M  V30 4569 H 430.8 0.712566 5.02877 0
M  V30 4570 H 430.73 -1.0629 5.15761 0
M  V30 4571 H 433.221 -0.363126 3.76151 0
M  V30 4572 H 433.534 -0.117763 7.7271 0
M  V30 4573 H 431.879 -0.112857 6.94908 0
M  V30 4574 H 435.07 -0.365864 4.66668 0
M  V30 4575 H 435.243 -0.254204 6.47501 0
M  V30 4576 N 428.649 -1.55105 -0.279332 0
M  V30 4577 C 429.596 -1.8755 -1.34513 0
M  V30 4578 C 430.566 -0.726384 -1.49375 0
M  V30 4579 O 431.751 -0.977063 -1.63884 0
M  V30 4580 C 428.891 -2.14738 -2.70151 0
M  V30 4581 C 428.004 -3.42285 -2.63562 0
M  V30 4582 C 427.139 -3.59206 -3.91337 0
M  V30 4583 C 426.178 -4.80467 -3.79233 0
M  V30 4584 N 425.315 -4.94079 -4.98829 0
M  V30 4585 H 430.155 -2.78456 -1.06143 0
M  V30 4586 H 427.692 -1.37867 -0.512936 0
M  V30 4587 H 429.65 -2.28501 -3.49061 0
M  V30 4588 H 428.28 -1.27075 -2.96735 0
M  V30 4589 H 427.332 -3.37029 -1.76397 0
M  V30 4590 H 428.644 -4.31328 -2.50515 0
M  V30 4591 H 427.798 -3.72751 -4.78687 0
M  V30 4592 H 426.537 -2.68337 -4.07243 0
M  V30 4593 H 425.542 -4.66932 -2.90266 0
M  V30 4594 H 426.767 -5.72765 -3.64852 0
M  V30 4595 H 424.713 -4.06139 -5.15158 0
M  V30 4596 H 424.63 -5.77156 -4.8829 0
M  V30 4597 H 425.898 -5.12003 -5.8777 0
M  V30 4598 N 430.127 0.543554 -1.4793 0
M  V30 4599 C 431.538 1.12561 -1.48953 0
M  V30 4600 C 431.889 1.94578 -0.251754 0
M  V30 4601 O 431.014 2.0665 0.642255 0
M  V30 4602 C 431.609 2.04801 -2.69892 0
M  V30 4603 C 430.168 2.58251 -2.73831 0
M  V30 4604 C 429.315 1.34918 -2.42265 0
M  V30 4605 H 432.266 0.32947 -1.55242 0
M  V30 4606 H 432.287 2.88886 -2.47639 0
M  V30 4607 H 431.799 1.4508 -3.59963 0
M  V30 4608 H 429.9 3.21732 -1.87934 0
M  V30 4609 H 430.013 2.98312 -3.74895 0
M  V30 4610 H 428.377 1.66046 -1.93134 0
M  V30 4611 H 429.16 0.769693 -3.3456 0
M  V30 4612 N 431.605 1.3629 0.791371 0
M  V30 4613 C 432.535 1.33137 1.91825 0
M  V30 4614 C 433.516 0.203168 1.68882 0
M  V30 4615 O 434.701 0.400509 1.90025 0
M  V30 4616 C 431.831 1.11793 3.28816 0
M  V30 4617 C 430.785 2.21417 3.66277 0
M  V30 4618 C 430.111 1.85218 5.01596 0
M  V30 4619 C 431.411 3.63489 3.75064 0
M  V30 4620 H 433.105 2.2743 1.9472 0
M  V30 4621 H 430.651 1.09479 0.935437 0
M  V30 4622 H 432.604 1.08222 4.07266 0
M  V30 4623 H 431.328 0.139501 3.26302 0
M  V30 4624 H 429.987 2.2411 2.90121 0
M  V30 4625 H 429.635 0.859544 4.95602 0
M  V30 4626 H 429.335 2.58611 5.27631 0
M  V30 4627 H 430.859 1.832 5.82469 0
M  V30 4628 H 432.273 3.63034 4.43711 0
M  V30 4629 H 430.67 4.35771 4.12582 0
M  V30 4630 H 431.74 3.98536 2.76219 0
M  V30 4631 N 433.083 -1.0153 1.20538 0
M  V30 4632 C 434.015 -2.10224 0.913155 0
M  V30 4633 C 435.028 -1.62495 -0.0995998 0
M  V30 4634 O 436.217 -1.78014 0.131582 0
M  V30 4635 C 433.317 -3.37111 0.347717 0
M  V30 4636 C 432.49 -4.13971 1.41233 0
M  V30 4637 C 431.549 -5.19158 0.857976 0
M  V30 4638 O 430.575 -5.48 1.53897 0
M  V30 4639 N 431.777 -5.7955 -0.331966 0
M  V30 4640 H 434.542 -2.35879 1.84881 0
M  V30 4641 H 432.103 -1.17931 1.10923 0
M  V30 4642 H 434.095 -4.04683 -0.0373026 0
M  V30 4643 H 432.665 -3.08696 -0.492527 0
M  V30 4644 H 431.885 -3.41351 1.97163 0
M  V30 4645 H 433.173 -4.62103 2.12928 0
M  V30 4646 H 432.571 -5.58455 -0.902478 0
M  V30 4647 H 431.128 -6.48464 -0.65861 0
M  V30 4648 N 434.561 -1.01147 -1.20859 0
M  V30 4649 C 435.977 -0.725422 -1.42161 0
M  V30 4650 C 436.177 0.696919 -1.89064 0
M  V30 4651 O 435.233 1.46539 -2.05627 0
M  V30 4652 C 436.546 -1.74678 -2.44761 0
M  V30 4653 C 438.094 -1.76433 -2.58535 0
M  V30 4654 C 438.569 -2.77481 -3.64374 0
M  V30 4655 N 440.06 -2.76189 -3.71852 0
M  V30 4656 C 440.795 -3.51035 -4.53389 0
M  V30 4657 N 440.291 -4.35541 -5.38773 0
M  V30 4658 N 442.084 -3.39655 -4.47873 0
M  V30 4659 H 434.235 -1.92979 -0.887282 0
M  V30 4660 H 436.498 -0.833327 -0.451962 0
M  V30 4661 H 436.204 -2.76551 -2.17285 0
M  V30 4662 H 436.078 -1.55472 -3.43669 0
M  V30 4663 H 438.465 -0.75248 -2.85345 0
M  V30 4664 H 438.546 -1.99712 -1.5984 0
M  V30 4665 H 438.19 -3.78827 -3.38308 0
M  V30 4666 H 438.12 -2.51466 -4.6268 0
M  V30 4667 H 440.611 -2.14885 -3.10858 0
M  V30 4668 H 440.924 -4.89432 -5.98061 0
M  V30 4669 H 439.269 -4.39621 -5.38292 0
M  V30 4670 H 442.46 -2.73063 -3.80203 0
M  V30 4671 H 442.633 -3.9824 -5.11184 0
M  V30 4672 N 436.039 1.36541 -0.78704 0
M  V30 4673 C 436.986 2.30082 -0.181901 0
M  V30 4674 C 437.956 1.5186 0.672896 0
M  V30 4675 O 439.141 1.80374 0.622072 0
M  V30 4676 C 436.281 3.3835 0.679197 0
M  V30 4677 C 435.394 4.31565 -0.193882 0
M  V30 4678 C 434.529 5.26915 0.673364 0
M  V30 4679 C 433.568 6.11769 -0.201315 0
M  V30 4680 N 432.705 6.99315 0.624777 0
M  V30 4681 H 437.545 2.81248 -0.985064 0
M  V30 4682 H 435.082 1.38437 -0.497342 0
M  V30 4683 H 437.04 3.99767 1.19341 0
M  V30 4684 H 435.67 2.8851 1.44781 0
M  V30 4685 H 434.722 3.71323 -0.826044 0
M  V30 4686 H 436.034 4.91191 -0.867937 0
M  V30 4687 H 435.188 5.9361 1.25348 0
M  V30 4688 H 433.927 4.67737 1.38105 0
M  V30 4689 H 432.932 5.44039 -0.793849 0
M  V30 4690 H 434.157 6.73022 -0.906568 0
M  V30 4691 H 432.103 6.42648 1.3168 0
M  V30 4692 H 432.02 7.56 0.00835237 0
M  V30 4693 H 433.288 7.70382 1.18879 0
M  V30 4694 N 437.518 0.538854 1.48102 0
M  V30 4695 C 438.465 -0.219042 2.29758 0
M  V30 4696 C 439.435 -0.925562 1.37922 0
M  V30 4697 O 440.62 -0.924855 1.66886 0
M  V30 4698 C 437.76 -1.25452 3.2149 0
M  V30 4699 C 436.873 -0.555943 4.28408 0
M  V30 4700 C 436.008 -1.57512 5.0731 0
M  V30 4701 C 435.047 -0.860498 6.06021 0
M  V30 4702 N 434.184 -1.82564 6.77949 0
M  V30 4703 H 439.024 0.483449 2.94052 0
M  V30 4704 H 436.561 0.250247 1.44956 0
M  V30 4705 H 438.519 -1.86727 3.7308 0
M  V30 4706 H 437.149 -1.92528 2.591 0
M  V30 4707 H 436.201 0.170938 3.80016 0
M  V30 4708 H 437.513 0.00474616 4.988 0
M  V30 4709 H 436.667 -2.26191 5.62959 0
M  V30 4710 H 435.406 -2.16972 4.36778 0
M  V30 4711 H 434.411 -0.159686 5.49568 0
M  V30 4712 H 435.636 -0.271897 6.78555 0
M  V30 4713 H 433.582 -2.40915 6.10161 0
M  V30 4714 H 433.499 -1.31662 7.44447 0
M  V30 4715 H 434.767 -2.50414 7.38182 0
M  V30 4716 N 438.996 -1.55193 0.274407 0
M  V30 4717 C 439.943 -2.225 -0.613374 0
M  V30 4718 C 440.913 -1.19823 -1.15029 0
M  V30 4719 O 442.098 -1.48362 -1.19973 0
M  V30 4720 C 439.238 -2.94927 -1.79199 0
M  V30 4721 C 438.351 -4.12322 -1.28899 0
M  V30 4722 C 437.486 -4.72394 -2.42934 0
M  V30 4723 C 436.525 -5.81984 -1.89634 0
M  V30 4724 N 435.662 -6.36123 -2.9714 0
M  V30 4725 H 440.502 -2.97982 -0.032756 0
M  V30 4726 H 438.039 -1.47099 -0.00440146 0
M  V30 4727 H 439.997 -3.35134 -2.48478 0
M  V30 4728 H 438.627 -2.2187 -2.34465 0
M  V30 4729 H 437.679 -3.7724 -0.489327 0
M  V30 4730 H 438.991 -4.91355 -0.858587 0
M  V30 4731 H 438.145 -5.15317 -3.20208 0
M  V30 4732 H 436.884 -3.92636 -2.8929 0
M  V30 4733 H 435.889 -5.38511 -1.1084 0
M  V30 4734 H 437.114 -6.6361 -1.44215 0
M  V30 4735 H 435.06 -5.59259 -3.42878 0
M  V30 4736 H 434.977 -7.10427 -2.58515 0
M  V30 4737 H 436.245 -6.83704 -3.74391 0
M  V30 4738 N 440.474 -0.00167713 -1.576 0
M  V30 4739 C 441.89 0.354422 -1.55615 0
M  V30 4740 C 442.09 1.74679 -1.00447 0
M  V30 4741 O 441.146 2.4428 -0.639022 0
M  V30 4742 C 442.459 0.22812 -2.99833 0
M  V30 4743 C 444.007 0.302934 -3.11531 0
M  V30 4744 C 444.482 0.205737 -4.57538 0
M  V30 4745 N 445.973 0.263584 -4.62449 0
M  V30 4746 C 446.708 0.211742 -5.73009 0
M  V30 4747 N 446.204 0.110399 -6.92712 0
M  V30 4748 N 447.997 0.263729 -5.61481 0
M  V30 4749 H 440.148 -0.912498 -1.918 0
M  V30 4750 H 442.411 -0.349928 -0.881053 0
M  V30 4751 H 442.117 -0.729934 -3.44042 0
M  V30 4752 H 441.991 1.00951 -3.6344 0
M  V30 4753 H 444.378 1.25143 -2.67251 0
M  V30 4754 H 444.459 -0.508357 -2.50698 0
M  V30 4755 H 444.103 -0.739225 -5.02492 0
M  V30 4756 H 444.033 1.03554 -5.16318 0
M  V30 4757 H 446.524 0.343173 -3.76339 0
M  V30 4758 H 446.837 0.0767828 -7.72762 0
M  V30 4759 H 445.182 0.0760025 -6.94958 0
M  V30 4760 H 448.373 0.34111 -4.66855 0
M  V30 4761 H 448.546 0.219862 -6.47627 0
M  V30 4762 N 441.952 1.55251 0.271103 0
M  V30 4763 C 443.201 1.75151 1.00025 0
M  V30 4764 C 443.514 0.561041 1.87381 0
M  V30 4765 O 444.72 0.642506 2.63788 0
M  V30 4766 C 443.176 3.09999 1.82835 0
M  V30 4767 C 442.784 4.3662 1.00336 0
M  V30 4768 C 444.528 3.39249 2.55168 0
M  V30 4769 C 442.435 5.62506 1.82595 0
M  V30 4770 H 441.365 0.652877 0.377183 0
M  V30 4771 H 444.016 1.81708 0.255843 0
M  V30 4772 H 442.398 2.97485 2.61378 0
M  V30 4773 H 443.572 4.60055 0.261959 0
M  V30 4774 H 441.887 4.14527 0.394486 0
M  V30 4775 H 444.484 4.3051 3.1712 0
M  V30 4776 H 444.827 2.59467 3.2555 0
M  V30 4777 H 445.36 3.52869 1.83653 0
M  V30 4778 H 442.099 6.45041 1.16631 0
M  V30 4779 H 441.619 5.43211 2.54327 0
M  V30 4780 H 443.298 6.00875 2.39913 0
M  V30 4781 N 443.43 -0.535701 1.48216 0
M  V30 4782 C 444.677 -1.29183 1.55942 0
M  V30 4783 C 445.005 -1.93125 0.230857 0
M  V30 4784 O 444.26 -1.79556 -0.778331 0
M  V30 4785 C 444.559 -2.4068 2.64212 0
M  V30 4786 C 444.225 -1.94428 4.06827 0
M  V30 4787 C 442.887 -1.81532 4.45645 0
M  V30 4788 C 445.239 -1.59405 4.96225 0
M  V30 4789 C 442.567 -1.31939 5.71672 0
M  V30 4790 C 444.919 -1.11276 6.22736 0
M  V30 4791 C 443.583 -0.969924 6.60416 0
M  V30 4792 H 442.853 -0.472715 0.570632 0
M  V30 4793 H 445.5 -0.598437 1.81909 0
M  V30 4794 H 443.805 -3.15666 2.32083 0
M  V30 4795 H 445.502 -2.98822 2.67407 0
M  V30 4796 H 442.092 -2.05415 3.76168 0
M  V30 4797 H 446.276 -1.68231 4.66917 0
M  V30 4798 H 441.532 -1.19562 5.99596 0
M  V30 4799 H 445.706 -0.832453 6.91407 0
M  V30 4800 H 443.333 -0.583436 7.57958 0
M  V30 4801 N 444.908 -1.36708 -0.784132 0
M  V30 4802 C 445.871 -1.31307 -1.87859 0
M  V30 4803 C 446.871 -0.219654 -1.59293 0
M  V30 4804 O 448.061 -0.47476 -1.67606 0
M  V30 4805 C 445.193 -1.03679 -3.24751 0
M  V30 4806 H 446.386 -2.28647 -1.94064 0
M  V30 4807 H 443.939 -1.21558 -0.98252 0
M  V30 4808 H 444.674 -0.0681936 -3.24228 0
M  V30 4809 H 444.459 -1.82811 -3.46876 0
M  V30 4810 H 445.949 -1.02518 -4.04821 0
M  V30 4811 N 446.386 1.0089 -1.21074 0
M  V30 4812 C 447.632 1.74866 -1.02712 0
M  V30 4813 C 447.965 1.89178 0.438787 0
M  V30 4814 O 447.24 1.42325 1.32567 0
M  V30 4815 C 447.523 3.16347 -1.72036 0
M  V30 4816 C 447.376 3.09782 -3.26121 0
M  V30 4817 C 448.695 4.15187 -1.45973 0
M  V30 4818 H 445.814 0.634736 -0.374539 0
M  V30 4819 H 448.456 1.17646 -1.49196 0
M  V30 4820 H 446.606 3.65201 -1.32517 0
M  V30 4821 H 448.278 2.68673 -3.74983 0
M  V30 4822 H 446.521 2.46982 -3.56626 0
M  V30 4823 H 447.192 4.09829 -3.6979 0
M  V30 4824 H 449.668 3.75022 -1.80272 0
M  V30 4825 H 448.544 5.12331 -1.96999 0
M  V30 4826 H 448.805 4.40386 -0.388924 0
M  V30 4827 N 447.864 1.01787 1.20321 0
M  V30 4828 C 449.089 0.727009 1.9424 0
M  V30 4829 C 449.514 -0.706179 1.74341 0
M  V30 4830 O 448.872 -1.48609 1.03852 0
M  V30 4831 C 448.92 1.06958 3.44372 0
M  V30 4832 O 448.024 0.181983 4.11998 0
M  V30 4833 H 447.365 0.269626 0.606793 0
M  V30 4834 H 449.895 1.36158 1.52716 0
M  V30 4835 H 449.905 1.02182 3.94997 0
M  V30 4836 H 448.58 2.11378 3.58179 0
M  V30 4837 H 447.157 0.287378 3.71791 0
M  V30 4838 N 449.342 -1.36122 0.79427 0
M  V30 4839 C 450.567 -2.03891 0.379871 0
M  V30 4840 C 450.992 -1.59488 -0.997251 0
M  V30 4841 O 450.35 -0.765652 -1.64339 0
M  V30 4842 C 450.398 -3.57687 0.457442 0
M  V30 4843 O 449.502 -4.08931 -0.5338 0
M  V30 4844 H 448.843 -0.6443 0.160541 0
M  V30 4845 H 451.373 -1.73976 1.07673 0
M  V30 4846 H 451.383 -4.06721 0.322792 0
M  V30 4847 H 450.058 -3.89357 1.46199 0
M  V30 4848 H 448.635 -3.71154 -0.360409 0
M  V30 4849 N 450.82 -0.546701 -1.47814 0
M  V30 4850 C 452.231 -0.110564 -1.86372 0
M  V30 4851 C 452.582 1.31678 -1.45449 0
M  V30 4852 O 451.707 1.98889 -0.852758 0
M  V30 4853 C 452.302 -0.193873 -3.38245 0
M  V30 4854 C 450.861 0.187164 -3.75934 0
M  V30 4855 C 450.008 -0.546166 -2.71868 0
M  V30 4856 H 452.959 -0.757022 -1.39481 0
M  V30 4857 H 452.98 0.590218 -3.75895 0
M  V30 4858 H 452.492 -1.23282 -3.67999 0
M  V30 4859 H 450.593 1.22762 -3.51796 0
M  V30 4860 H 450.706 -0.164083 -4.78819 0
M  V30 4861 H 449.07 0.00953904 -2.54698 0
M  V30 4862 H 449.853 -1.58606 -3.04465 0
M  V30 4863 N 452.299 1.55045 -0.282633 0
M  V30 4864 C 453.524 2.04628 0.337977 0
M  V30 4865 C 453.949 1.15937 1.48123 0
M  V30 4866 O 453.307 0.159532 1.80597 0
M  V30 4867 C 453.355 3.51854 0.78936 0
M  V30 4868 O 452.459 3.66236 1.89592 0
M  V30 4869 H 451.8 0.660434 0.0687261 0
M  V30 4870 H 454.33 2.00261 -0.419124 0
M  V30 4871 H 454.34 3.93361 1.08311 0
M  V30 4872 H 453.015 4.15873 -0.0470419 0
M  V30 4873 H 451.592 3.36633 1.60413 0
M  V30 4874 N 453.777 0.010035 1.57597 0
M  V30 4875 C 454.724 -0.978122 2.09049 0
M  V30 4876 C 455.694 -1.33509 0.988159 0
M  V30 4877 O 456.879 -1.43172 1.26121 0
M  V30 4878 C 454.019 -2.26158 2.60666 0
M  V30 4879 C 453.132 -1.96275 3.84838 0
M  V30 4880 C 452.267 -3.18776 4.24918 0
M  V30 4881 C 451.306 -2.84625 5.41899 0
M  V30 4882 N 450.443 -3.99693 5.77226 0
M  V30 4883 H 455.283 -0.532431 2.93205 0
M  V30 4884 H 452.82 -0.251234 1.44939 0
M  V30 4885 H 454.778 -3.01202 2.88675 0
M  V30 4886 H 453.408 -2.68378 1.79369 0
M  V30 4887 H 452.46 -1.11555 3.63675 0
M  V30 4888 H 453.772 -1.67111 4.69974 0
M  V30 4889 H 452.926 -4.02157 4.54262 0
M  V30 4890 H 451.665 -3.51087 3.38511 0
M  V30 4891 H 450.67 -1.99653 5.12268 0
M  V30 4892 H 451.895 -2.53551 6.29991 0
M  V30 4893 H 449.841 -4.31882 4.93776 0
M  V30 4894 H 449.758 -3.74087 6.56959 0
M  V30 4895 H 451.026 -4.83834 6.11167 0
M  V30 4896 N 455.255 -1.55392 -0.262866 0
M  V30 4897 C 456.185 -1.91978 -1.32917 0
M  V30 4898 C 457.166 -0.7828 -1.51017 0
M  V30 4899 O 458.351 -1.04178 -1.63892 0
M  V30 4900 C 455.481 -2.20055 -2.68687 0
M  V30 4901 C 454.435 -3.35854 -2.65304 0
M  V30 4902 C 453.761 -3.49435 -4.04721 0
M  V30 4903 C 455.061 -4.71977 -2.23685 0
M  V30 4904 H 456.755 -2.81292 -1.02544 0
M  V30 4905 H 454.301 -1.3534 -0.491846 0
M  V30 4906 H 456.254 -2.44237 -3.43404 0
M  V30 4907 H 454.978 -1.27551 -3.00663 0
M  V30 4908 H 453.637 -3.11655 -1.93045 0
M  V30 4909 H 453.285 -2.54379 -4.33936 0
M  V30 4910 H 452.985 -4.27297 -4.0335 0
M  V30 4911 H 454.509 -3.7592 -4.81161 0
M  V30 4912 H 455.923 -4.95637 -2.88127 0
M  V30 4913 H 454.32 -5.52828 -2.33456 0
M  V30 4914 H 455.39 -4.70115 -1.18827 0
M  V30 4915 N 456.733 0.527833 -1.48498 0
M  V30 4916 C 457.979 1.28545 -1.56857 0
M  V30 4917 C 458.312 1.92678 -0.242651 0
M  V30 4918 O 457.587 1.79394 0.751545 0
M  V30 4919 C 457.87 2.37314 -2.70839 0
M  V30 4920 C 457.723 1.77858 -4.13142 0
M  V30 4921 C 459.042 3.39068 -2.80573 0
M  V30 4922 H 456.161 0.466006 -0.570971 0
M  V30 4923 H 458.803 0.587784 -1.8068 0
M  V30 4924 H 456.953 2.96821 -2.50658 0
M  V30 4925 H 458.625 1.22385 -4.44769 0
M  V30 4926 H 456.868 1.08383 -4.20042 0
M  V30 4927 H 457.539 2.56624 -4.88721 0
M  V30 4928 H 460.015 2.89518 -2.98862 0
M  V30 4929 H 458.891 4.12566 -3.6205 0
M  V30 4930 H 459.152 3.9975 -1.88818 0
M  V30 4931 N 458.211 1.37122 0.776871 0
M  V30 4932 C 459.439 1.3523 1.5659 0
M  V30 4933 C 459.854 -0.0635518 1.88693 0
M  V30 4934 O 459.211 -1.02394 1.51069 0
M  V30 4935 C 459.262 2.18583 2.8793 0
M  V30 4936 O 458.983 3.5465 2.57206 0
M  V30 4937 C 460.484 2.24612 3.82183 0
M  V30 4938 H 457.704 0.4634 0.485285 0
M  V30 4939 H 460.248 1.80392 0.963266 0
M  V30 4940 H 458.403 1.76943 3.4463 0
M  V30 4941 H 458.817 3.98286 3.41275 0
M  V30 4942 H 460.291 2.87267 4.71361 0
M  V30 4943 H 460.768 1.25309 4.20944 0
M  V30 4944 H 461.374 2.66543 3.31414 0
M  V30 4945 N 459.689 -1.00246 1.21608 0
M  V30 4946 C 460.936 -1.74061 1.03485 0
M  V30 4947 C 461.264 -1.89658 -0.431308 0
M  V30 4948 O 460.519 -1.42976 -1.33627 0
M  V30 4949 C 460.818 -3.15448 1.68009 0
M  V30 4950 C 460.484 -3.19792 3.17874 0
M  V30 4951 C 459.146 -3.20685 3.58768 0
M  V30 4952 C 461.498 -3.16835 4.13842 0
M  V30 4953 C 458.826 -3.16309 4.94131 0
M  V30 4954 C 461.178 -3.14001 5.49169 0
M  V30 4955 C 459.842 -3.13204 5.89457 0
M  V30 4956 H 459.112 -0.636934 0.378677 0
M  V30 4957 H 461.759 -1.17473 1.51236 0
M  V30 4958 H 460.064 -3.75284 1.12557 0
M  V30 4959 H 461.761 -3.71285 1.51487 0
M  V30 4960 H 458.351 -3.19842 2.85305 0
M  V30 4961 H 462.535 -3.15303 3.83272 0
M  V30 4962 H 457.791 -3.14032 5.24589 0
M  V30 4963 H 461.965 -3.10667 6.23265 0
M  V30 4964 H 459.592 -3.09568 6.94314 0
M  V30 4965 N 461.167 -1.02423 -1.1978 0
M  V30 4966 C 462.444 -0.632802 -1.85081 0
M  V30 4967 C 462.824 0.888745 -1.9148 0
M  V30 4968 O 462.172 1.78357 -1.42832 0
M  V30 4969 C 462.382 -1.28947 -3.24305 0
M  V30 4970 C 463.73 -1.40976 -4.00513 0
M  V30 4971 O 464.754 -1.24628 -3.33686 0
M  V30 4972 O 463.613 -1.67467 -5.20209 0
M  V30 4973 H 460.707 -0.219348 -0.79738 0
M  V30 4974 H 463.253 -1.12209 -1.27307 0
M  V30 4975 H 462.025 -2.3288 -3.14456 0
M  V30 4976 H 461.648 -0.787748 -3.89718 0
M  V30 4977 N 462.645 1.35699 -0.801477 0
M  V30 4978 C 463.595 2.2728 -0.181073 0
M  V30 4979 C 464.579 1.47533 0.642098 0
M  V30 4980 O 465.771 1.69785 0.500193 0
M  V30 4981 C 462.9 3.36626 0.673612 0
M  V30 4982 C 461.986 4.23802 -0.159008 0
M  V30 4983 N 462.377 4.90879 -1.2195 0
M  V30 4984 C 460.675 4.45959 0.0602005 0
M  V30 4985 C 461.376 5.5546 -1.72738 0
M  V30 4986 N 460.352 5.33663 -1.03465 0
M  V30 4987 H 464.154 2.76632 -0.992582 0
M  V30 4988 H 461.668 1.49166 -0.642127 0
M  V30 4989 H 463.665 4.01179 1.13408 0
M  V30 4990 H 462.325 2.88828 1.48353 0
M  V30 4991 H 463.336 4.92497 -1.60209 0
M  V30 4992 H 460.013 4.08969 0.839664 0
M  V30 4993 H 461.403 6.18991 -2.61342 0
M  V30 4994 N 464.123 0.554532 1.47522 0
M  V30 4995 C 465.37 0.029479 2.02479 0
M  V30 4996 C 465.698 -1.31929 1.42916 0
M  V30 4997 O 464.953 -1.87112 0.573385 0
M  V30 4998 C 465.252 -0.115927 3.57212 0
M  V30 4999 C 464.918 1.16161 4.3568 0
M  V30 5000 C 463.58 1.51168 4.56839 0
M  V30 5001 C 465.932 2.0083 4.80954 0
M  V30 5002 C 463.26 2.70696 5.2052 0
M  V30 5003 C 465.612 3.19559 5.45953 0
M  V30 5004 C 464.276 3.54882 5.65345 0
M  V30 5005 H 463.546 0.0107871 0.740921 0
M  V30 5006 H 466.193 0.725506 1.77225 0
M  V30 5007 H 464.498 -0.894902 3.81443 0
M  V30 5008 H 466.195 -0.53749 3.97381 0
M  V30 5009 H 462.785 0.879026 4.19489 0
M  V30 5010 H 466.969 1.75093 4.64388 0
M  V30 5011 H 462.225 2.98236 5.33728 0
M  V30 5012 H 466.399 3.85456 5.79997 0
M  V30 5013 H 464.026 4.47596 6.1446 0
M  V30 5014 N 465.601 -1.54893 0.290851 0
M  V30 5015 C 466.847 -2.0023 -0.321867 0
M  V30 5016 C 467.18 -1.179 -1.54316 0
M  V30 5017 O 466.455 -0.25293 -1.92848 0
M  V30 5018 C 466.738 -3.53456 -0.688515 0
M  V30 5019 C 466.591 -4.46532 0.541209 0
M  V30 5020 C 467.91 -4.13057 -1.51895 0
M  V30 5021 H 465.029 -0.727891 -0.115515 0
M  V30 5022 H 467.671 -1.85722 0.400931 0
M  V30 5023 H 465.821 -3.6595 -1.30433 0
M  V30 5024 H 467.493 -4.4596 1.17973 0
M  V30 5025 H 465.736 -4.17545 1.17636 0
M  V30 5026 H 466.407 -5.51475 0.240675 0
M  V30 5027 H 468.883 -4.03937 -0.99872 0
M  V30 5028 H 467.759 -5.20448 -1.74429 0
M  V30 5029 H 468.02 -3.64284 -2.50498 0
M  V30 5030 N 467.08 -0.0183926 -1.57589 0
M  V30 5031 C 468.326 0.663543 -1.91638 0
M  V30 5032 C 468.659 1.72392 -0.894134 0
M  V30 5033 O 467.934 1.94316 0.0846449 0
M  V30 5034 C 468.217 1.28984 -3.36207 0
M  V30 5035 C 468.07 0.239761 -4.49161 0
M  V30 5036 C 469.389 2.2109 -3.80536 0
M  V30 5037 H 466.508 0.239746 -0.696915 0
M  V30 5038 H 469.15 -0.073456 -1.89858 0
M  V30 5039 H 467.3 1.91799 -3.37854 0
M  V30 5040 H 468.972 -0.390119 -4.59647 0
M  V30 5041 H 467.215 -0.435972 -4.31604 0
M  V30 5042 H 467.886 0.717383 -5.47319 0
M  V30 5043 H 470.362 1.68273 -3.80557 0
M  V30 5044 H 469.238 2.61869 -4.82406 0
M  V30 5045 H 469.499 3.09764 -3.15434 0
M  V30 5046 N 468.558 1.5553 0.254621 0
M  V30 5047 C 469.807 1.76202 0.981612 0
M  V30 5048 C 470.12 0.580883 1.86776 0
M  V30 5049 O 471.326 0.670448 2.63092 0
M  V30 5050 C 469.782 3.11921 1.79537 0
M  V30 5051 C 469.39 4.37659 0.956991 0
M  V30 5052 C 471.134 3.41936 2.51555 0
M  V30 5053 C 469.041 5.64411 1.76619 0
M  V30 5054 H 467.971 0.656841 0.370237 0
M  V30 5055 H 470.622 1.81969 0.236556 0
M  V30 5056 H 469.004 3.00241 2.58208 0
M  V30 5057 H 470.178 4.60307 0.21315 0
M  V30 5058 H 468.493 4.14922 0.350497 0
M  V30 5059 H 471.09 4.33849 3.12536 0
M  V30 5060 H 471.433 2.62905 3.22779 0
M  V30 5061 H 471.966 3.54797 1.799 0
M  V30 5062 H 468.705 6.46241 1.09783 0
M  V30 5063 H 468.225 5.45877 2.48551 0
M  V30 5064 H 469.904 6.03386 2.33527 0
M  V30 5065 N 470.036 -0.519951 1.48776 0
M  V30 5066 C 471.284 -1.2727 1.56993 0
M  V30 5067 C 471.605 -1.9339 0.25004 0
M  V30 5068 O 470.875 -1.81822 -0.729216 0
M  V30 5069 H 469.455 -0.472732 0.578389 0
M  V30 5070 H 472.117 -0.604234 1.85297 0
M  V30 5071 H 471.213 -2.04669 2.3562 0
M  V30 5072 N 471.514 -1.37532 -0.769588 0
M  V30 5073 C 472.424 -1.35668 -1.91393 0
M  V30 5074 C 473.44 -0.255954 -1.72107 0
M  V30 5075 O 474.616 -0.491704 -1.95305 0
M  V30 5076 C 471.681 -1.16481 -3.26547 0
M  V30 5077 C 470.742 -2.36212 -3.58472 0
M  V30 5078 C 469.975 -2.17932 -4.87177 0
M  V30 5079 O 470.198 -1.1647 -5.58382 0
M  V30 5080 O 469.132 -3.06167 -5.18214 0
M  V30 5081 H 472.958 -2.32055 -1.95918 0
M  V30 5082 H 470.543 -1.18284 -0.912641 0
M  V30 5083 H 472.425 -1.07778 -4.07384 0
M  V30 5084 H 471.1 -0.231687 -3.2287 0
M  V30 5085 H 470.007 -2.50488 -2.77861 0
M  V30 5086 H 471.34 -3.281 -3.66894 0
M  V30 5087 N 472.992 0.995999 -1.22138 0
M  V30 5088 C 474.408 1.25917 -0.980667 0
M  V30 5089 C 474.608 1.98819 0.327604 0
M  V30 5090 O 473.664 2.29587 1.05101 0
M  V30 5091 C 474.977 2.07399 -2.17729 0
M  V30 5092 C 476.525 2.20594 -2.22052 0
M  V30 5093 C 477 3.05462 -3.41258 0
M  V30 5094 N 478.491 3.13049 -3.41401 0
M  V30 5095 C 479.226 3.78997 -4.30289 0
M  V30 5096 N 478.722 4.46899 -5.2939 0
M  V30 5097 N 480.515 3.75728 -4.18073 0
M  V30 5098 H 472.666 0.507158 -2.06256 0
M  V30 5099 H 474.929 0.28658 -0.903646 0
M  V30 5100 H 474.635 1.61191 -3.12586 0
M  V30 5101 H 474.509 3.08154 -2.17534 0
M  V30 5102 H 476.896 2.66017 -1.27745 0
M  V30 5103 H 476.977 1.1928 -2.26287 0
M  V30 5104 H 476.621 2.60739 -4.35864 0
M  V30 5105 H 476.551 4.06911 -3.34262 0
M  V30 5106 H 479.042 2.64721 -2.69688 0
M  V30 5107 H 479.355 4.94952 -5.935 0
M  V30 5108 H 477.7 4.45657 -5.33306 0
M  V30 5109 H 480.891 3.2184 -3.39907 0
M  V30 5110 H 481.064 4.26845 -4.87553 0
M  V30 5111 N 474.47 1.03057 1.19235 0
M  V30 5112 C 475.719 0.72326 1.88287 0
M  V30 5113 C 476.032 -0.751333 1.80594 0
M  V30 5114 O 477.238 -1.17176 2.44912 0
M  V30 5115 C 475.694 1.24338 3.3774 0
M  V30 5116 C 475.302 2.74587 3.53986 0
M  V30 5117 C 477.046 1.01213 4.12257 0
M  V30 5118 C 474.953 3.20009 4.97341 0
M  V30 5119 H 473.883 0.266848 0.705201 0
M  V30 5120 H 476.534 1.24509 1.34795 0
M  V30 5121 H 474.916 0.649457 3.90638 0
M  V30 5122 H 476.09 3.39649 3.11408 0
M  V30 5123 H 474.405 2.9601 2.9286 0
M  V30 5124 H 477.002 1.32675 5.17978 0
M  V30 5125 H 477.345 -0.051001 4.16269 0
M  V30 5126 H 477.878 1.57014 3.65501 0
M  V30 5127 H 474.617 4.25659 4.98493 0
M  V30 5128 H 474.137 2.59676 5.40674 0
M  V30 5129 H 475.816 3.13447 5.66003 0
M  V30 5130 N 475.948 -1.35272 0.808662 0
M  V30 5131 C 476.896 -2.31663 0.208606 0
M  V30 5132 C 477.89 -1.56731 -0.642778 0
M  V30 5133 O 479.096 -1.71843 -0.53571 0
M  V30 5134 H 475.471 -0.750421 0.0486993 0
M  V30 5135 H 477.442 -2.79814 1.03666 0
M  V30 5136 C 476.191 -3.42008 -0.626573 0
M  V30 5137 H 475.514 -3.99795 0.0192103 0
M  V30 5138 H 476.954 -4.11727 -1.01278 0
M  V30 5139 C 475.413 -2.85226 -1.79298 0
M  V30 5140 O 475.943 -2.78945 -2.89055 0
M  V30 5141 N 474.149 -2.42245 -1.60516 0
M  V30 5142 H 473.696 -2.47554 -0.712375 0
M  V30 5143 H 473.654 -2.04603 -2.38715 0
M  V30 5144 N 477.426 -0.562348 -1.47226 0
M  V30 5145 C 478.837 -0.130325 -1.86245 0
M  V30 5146 C 479.188 1.30128 -1.46838 0
M  V30 5147 O 478.313 1.97974 -0.873805 0
M  V30 5148 C 478.908 -0.229738 -3.3802 0
M  V30 5149 C 477.467 0.14728 -3.76112 0
M  V30 5150 C 476.614 -0.574971 -2.71274 0
M  V30 5151 H 479.565 -0.771773 -1.3867 0
M  V30 5152 H 479.586 0.550316 -3.76499 0
M  V30 5153 H 479.098 -1.27178 -3.66671 0
M  V30 5154 H 477.199 1.19023 -3.53078 0
M  V30 5155 H 477.312 -0.214858 -4.78618 0
M  V30 5156 H 475.676 -0.0174756 -2.54694 0
M  V30 5157 H 476.459 -1.61827 -3.02766 0
M  V30 5158 N 478.904 1.54736 -0.299062 0
M  V30 5159 C 479.867 2.22127 0.565012 0
M  V30 5160 C 480.867 1.20669 1.06281 0
M  V30 5161 O 482.057 1.45417 0.959145 0
M  V30 5162 C 479.189 2.90611 1.78208 0
M  V30 5163 H 480.382 2.99891 -0.0237448 0
M  V30 5164 H 477.935 1.5622 -0.0498788 0
M  V30 5165 H 478.67 2.16921 2.41072 0
M  V30 5166 H 478.455 3.64984 1.43281 0
M  V30 5167 H 479.945 3.42026 2.396 0
M  V30 5168 N 480.382 0.0267497 1.57577 0
M  V30 5169 C 481.63 -0.651116 1.91324 0
M  V30 5170 C 481.951 -1.72804 0.90353 0
M  V30 5171 O 481.221 -1.95822 -0.0552946 0
M  V30 5172 H 479.801 -0.243491 0.706202 0
M  V30 5173 H 482.463 0.0739935 1.94759 0
M  V30 5174 H 481.559 -1.10536 2.9187 0
M  V30 5175 N 481.861 -1.55662 -0.24637 0
M  V30 5176 C 483.277 -1.48098 -0.594907 0
M  V30 5177 C 483.477 -0.717044 -1.8831 0
M  V30 5178 O 482.533 -0.246618 -2.51293 0
M  V30 5179 C 483.846 -2.92507 -0.697146 0
M  V30 5180 C 485.394 -3.02881 -0.789436 0
M  V30 5181 C 485.869 -4.48598 -0.923232 0
M  V30 5182 N 487.36 -4.52538 -0.988088 0
M  V30 5183 C 488.095 -5.62536 -1.11089 0
M  V30 5184 N 487.591 -6.82342 -1.19919 0
M  V30 5185 N 489.384 -5.50334 -1.14408 0
M  V30 5186 H 481.535 -2.0377 0.599278 0
M  V30 5187 H 483.798 -0.925145 0.20691 0
M  V30 5188 H 483.504 -3.51242 0.179396 0
M  V30 5189 H 483.378 -3.43024 -1.5689 0
M  V30 5190 H 485.765 -2.44226 -1.65643 0
M  V30 5191 H 485.846 -2.55574 0.107482 0
M  V30 5192 H 485.49 -5.07864 -0.0607927 0
M  V30 5193 H 485.42 -4.93587 -1.8352 0
M  V30 5194 H 487.911 -3.66248 -0.931167 0
M  V30 5195 H 488.224 -7.61924 -1.29197 0
M  V30 5196 H 486.569 -6.85102 -1.16876 0
M  V30 5197 H 489.76 -4.5567 -1.07158 0
M  V30 5198 H 489.933 -6.36096 -1.23634 0
M  V30 5199 N 483.339 0.512053 -1.4905 0
M  V30 5200 C 484.286 1.6148 -1.64902 0
M  V30 5201 C 485.256 1.58687 -0.490673 0
M  V30 5202 O 486.441 1.76842 -0.71636 0
M  V30 5203 C 483.581 2.99676 -1.71139 0
M  V30 5204 C 482.694 3.12568 -2.98203 0
M  V30 5205 C 481.829 4.4143 -2.95487 0
M  V30 5206 C 480.868 4.47916 -4.17179 0
M  V30 5207 N 480.005 5.68191 -4.12437 0
M  V30 5208 H 484.845 1.47271 -2.59066 0
M  V30 5209 H 482.382 0.716713 -1.28459 0
M  V30 5210 H 484.34 3.79761 -1.72736 0
M  V30 5211 H 482.97 3.12614 -0.804508 0
M  V30 5212 H 482.022 2.25618 -3.06269 0
M  V30 5213 H 483.334 3.1322 -3.88194 0
M  V30 5214 H 482.488 5.29825 -2.95585 0
M  V30 5215 H 481.227 4.43326 -2.03256 0
M  V30 5216 H 480.232 3.57925 -4.17337 0
M  V30 5217 H 481.457 4.47744 -5.1059 0
M  V30 5218 H 479.403 5.7095 -3.23036 0
M  V30 5219 H 479.32 5.70413 -4.96151 0
M  V30 5220 H 480.588 6.58823 -4.16621 0
M  V30 5221 N 484.817 1.37938 0.762283 0
M  V30 5222 C 485.764 1.34467 1.87583 0
M  V30 5223 C 486.734 0.208633 1.64785 0
M  V30 5224 O 487.919 0.399494 1.86571 0
M  V30 5225 C 485.059 1.16692 3.24772 0
M  V30 5226 C 484.172 2.39608 3.59461 0
M  V30 5227 C 483.307 2.14631 4.85908 0
M  V30 5228 C 482.346 3.33364 5.13357 0
M  V30 5229 N 481.483 3.07877 6.30996 0
M  V30 5230 H 486.323 2.29669 1.89885 0
M  V30 5231 H 483.86 1.14116 0.928219 0
M  V30 5232 H 485.818 1.04405 4.03925 0
M  V30 5233 H 484.448 0.251333 3.2182 0
M  V30 5234 H 483.5 2.626 2.75219 0
M  V30 5235 H 484.812 3.28128 3.75678 0
M  V30 5236 H 483.966 1.99429 5.72986 0
M  V30 5237 H 482.705 1.23463 4.71814 0
M  V30 5238 H 481.71 3.49094 4.24751 0
M  V30 5239 H 482.935 4.25395 5.29354 0
M  V30 5240 H 480.881 2.19348 6.18241 0
M  V30 5241 H 480.798 3.89944 6.47673 0
M  V30 5242 H 482.066 2.96313 7.20985 0
M  V30 5243 N 486.295 -0.989507 1.22664 0
M  V30 5244 C 487.225 -2.09847 1.02404 0
M  V30 5245 C 488.206 -1.70007 -0.0561303 0
M  V30 5246 O 489.391 -1.93906 0.106748 0
M  V30 5247 C 486.521 -3.41996 0.604663 0
M  V30 5248 C 485.475 -3.95699 1.63115 0
M  V30 5249 C 484.801 -5.23936 1.0675 0
M  V30 5250 C 486.101 -4.25999 3.02196 0
M  V30 5251 H 487.795 -2.27054 1.95158 0
M  V30 5252 H 485.341 -1.09111 0.939727 0
M  V30 5253 H 487.294 -4.1899 0.45002 0
M  V30 5254 H 486.018 -3.24626 -0.35855 0
M  V30 5255 H 484.677 -3.2084 1.77362 0
M  V30 5256 H 484.325 -5.02909 0.0955422 0
M  V30 5257 H 484.025 -5.60833 1.75328 0
M  V30 5258 H 485.549 -6.0356 0.924516 0
M  V30 5259 H 486.963 -4.93777 2.91303 0
M  V30 5260 H 485.36 -4.74076 3.67929 0
M  V30 5261 H 486.43 -3.33636 3.51873 0
M  V30 5262 N 487.773 -1.03688 -1.18687 0
M  V30 5263 C 489.019 -0.74888 -1.89112 0
M  V30 5264 C 489.374 0.715345 -1.78607 0
M  V30 5265 O 488.667 1.51498 -1.17299 0
M  V30 5266 C 488.861 -1.14477 -3.3857 0
M  V30 5267 C 488.69 -2.64594 -3.63621 0
M  V30 5268 C 487.46 -3.31685 -3.812 0
M  V30 5269 C 489.658 -3.62811 -3.64517 0
M  V30 5270 N 487.64 -4.70822 -3.93955 0
M  V30 5271 C 489.011 -4.87603 -3.8294 0
M  V30 5272 C 491.066 -3.56495 -3.47585 0
M  V30 5273 C 489.769 -6.0684 -3.86184 0
M  V30 5274 C 491.795 -4.75155 -3.52111 0
M  V30 5275 C 491.157 -5.98765 -3.71026 0
M  V30 5276 H 487.256 -0.32603 -0.710794 0
M  V30 5277 H 489.84 -1.3258 -1.42586 0
M  V30 5278 H 488.011 -0.595974 -3.838 0
M  V30 5279 H 489.743 -0.808187 -3.96548 0
M  V30 5280 H 486.498 -2.82091 -3.80423 0
M  V30 5281 H 486.922 -5.43122 -4.04163 0
M  V30 5282 H 491.564 -2.61907 -3.31911 0
M  V30 5283 H 489.282 -7.01788 -4.00648 0
M  V30 5284 H 492.868 -4.71905 -3.40289 0
M  V30 5285 H 491.748 -6.89047 -3.74412 0
M  V30 5286 N 489.251 1.34841 -0.815825 0
M  V30 5287 C 490.214 2.27959 -0.238185 0
M  V30 5288 C 491.214 1.49983 0.579816 0
M  V30 5289 O 492.404 1.69617 0.396953 0
M  V30 5290 C 489.536 3.34314 0.666876 0
M  V30 5291 H 490.729 2.80558 -1.05958 0
M  V30 5292 H 488.282 1.44852 -0.587156 0
M  V30 5293 H 489.017 2.86916 1.5116 0
M  V30 5294 H 488.802 3.92014 0.0819106 0
M  V30 5295 H 490.292 4.0379 1.06506 0
M  V30 5296 N 490.729 0.570148 1.46925 0
M  V30 5297 C 491.639 -0.173061 2.33961 0
M  V30 5298 C 492.655 -0.898825 1.48987 0
M  V30 5299 O 493.831 -0.864825 1.81887 0
M  V30 5300 C 490.896 -1.18177 3.25937 0
M  V30 5301 C 489.957 -0.462041 4.26806 0
M  V30 5302 C 489.19 -1.4227 5.14388 0
M  V30 5303 O 489.413 -2.65842 5.04662 0
M  V30 5304 O 488.347 -0.940127 5.94513 0
M  V30 5305 H 492.173 0.541216 2.98839 0
M  V30 5306 H 489.758 0.330647 1.45695 0
M  V30 5307 H 491.64 -1.76372 3.82715 0
M  V30 5308 H 490.315 -1.87774 2.63671 0
M  V30 5309 H 489.222 0.161429 3.73752 0
M  V30 5310 H 490.555 0.192719 4.91823 0
M  V30 5311 N 492.207 -1.54576 0.307264 0
M  V30 5312 C 493.14 -2.19946 -0.608195 0
M  V30 5313 C 494.118 -1.17096 -1.12815 0
M  V30 5314 O 495.302 -1.45766 -1.19518 0
M  V30 5315 C 492.429 -2.84826 -1.8328 0
M  V30 5316 C 491.475 -4.01256 -1.44554 0
M  V30 5317 S 492.308 -5.33197 -0.49612 0
M  V30 5318 C 493.464 -6.01563 -1.72838 0
M  V30 5319 H 493.697 -2.97253 -0.0528544 0
M  V30 5320 H 491.23 -1.54129 0.0913837 0
M  V30 5321 H 493.188 -3.22832 -2.53554 0
M  V30 5322 H 491.849 -2.07353 -2.35931 0
M  V30 5323 H 491.042 -4.45457 -2.35762 0
M  V30 5324 H 490.644 -3.6484 -0.822671 0
M  V30 5325 H 492.936 -6.22751 -2.6681 0
M  V30 5326 H 493.879 -6.9552 -1.32882 0
M  V30 5327 H 494.287 -5.31279 -1.90795 0
M  V30 5328 N 493.685 -0.035106 -1.57561 0
M  V30 5329 C 494.617 0.973604 -2.07494 0
M  V30 5330 C 495.63 1.28504 -0.999534 0
M  V30 5331 O 496.819 1.24864 -1.27559 0
M  V30 5332 C 493.919 2.29945 -2.48955 0
M  V30 5333 C 493.092 2.1723 -3.79644 0
M  V30 5334 C 492.151 3.328 -4.07592 0
M  V30 5335 O 491.177 3.09418 -4.77754 0
M  V30 5336 N 492.379 4.56779 -3.58236 0
M  V30 5337 H 495.144 0.547525 -2.94656 0
M  V30 5338 H 492.705 0.151515 -1.61189 0
M  V30 5339 H 494.697 3.06097 -2.64739 0
M  V30 5340 H 493.267 2.64173 -1.67126 0
M  V30 5341 H 492.487 1.25768 -3.73599 0
M  V30 5342 H 493.775 2.05945 -4.65257 0
M  V30 5343 H 493.173 4.78668 -3.01485 0
M  V30 5344 H 491.73 5.30079 -3.79288 0
M  V30 5345 N 495.163 1.55791 0.238111 0
M  V30 5346 C 496.11 1.9105 1.29493 0
M  V30 5347 C 497.08 0.765733 1.47397 0
M  V30 5348 O 498.265 1.02017 1.61236 0
M  V30 5349 C 495.405 2.21826 2.64362 0
M  V30 5350 C 494.518 3.49153 2.54394 0
M  V30 5351 C 493.653 3.69455 3.81676 0
M  V30 5352 C 492.692 4.90353 3.66361 0
M  V30 5353 N 491.829 5.07131 4.85554 0
M  V30 5354 H 496.669 2.81172 0.987233 0
M  V30 5355 H 494.206 1.39179 0.476203 0
M  V30 5356 H 496.164 2.37675 3.4288 0
M  V30 5357 H 494.794 1.34897 2.93262 0
M  V30 5358 H 493.846 3.41587 1.67399 0
M  V30 5359 H 495.158 4.37818 2.38991 0
M  V30 5360 H 494.312 3.85311 4.68636 0
M  V30 5361 H 493.051 2.7904 3.99985 0
M  V30 5362 H 492.056 4.74464 2.77784 0
M  V30 5363 H 493.281 5.82237 3.49538 0
M  V30 5364 H 491.227 4.19654 5.04209 0
M  V30 5365 H 491.144 5.89899 4.72816 0
M  V30 5366 H 492.412 5.27407 5.73988 0
M  V30 5367 N 496.642 -0.504142 1.49319 0
M  V30 5368 C 497.89 -1.25598 1.58334 0
M  V30 5369 C 498.211 -1.93114 0.270538 0
M  V30 5370 O 497.481 -1.82585 -0.709891 0
M  V30 5371 H 496.061 -0.466571 0.58337 0
M  V30 5372 H 498.723 -0.584547 1.85928 0
M  V30 5373 H 497.819 -2.02159 2.37778 0
M  V30 5374 N 498.12 -1.38341 -0.754957 0
M  V30 5375 C 499.068 -1.35573 -1.89005 0
M  V30 5376 C 500.062 -0.241824 -1.67665 0
M  V30 5377 O 501.268 -0.410785 -1.7525 0
M  V30 5378 H 497.643 -0.422898 -0.621821 0
M  V30 5379 H 499.614 -2.31359 -1.88455 0
M  V30 5380 C 498.363 -1.19631 -3.26471 0
M  V30 5381 H 497.686 -2.04605 -3.43477 0
M  V30 5382 H 499.126 -1.21748 -4.06144 0
M  V30 5383 C 497.585 0.0968705 -3.36761 0
M  V30 5384 O 498.115 1.07439 -3.87066 0
M  V30 5385 N 496.321 0.153242 -2.90196 0
M  V30 5386 H 495.868 -0.642908 -2.49448 0
M  V30 5387 H 495.826 1.01807 -2.9746 0
M  V30 5388 N 499.598 0.982988 -1.23187 0
M  V30 5389 C 500.508 2.10907 -1.02739 0
M  V30 5390 C 501.524 1.73979 0.0273188 0
M  V30 5391 O 502.7 2.00702 -0.16757 0
M  V30 5392 C 499.765 3.41142 -0.618304 0
M  V30 5393 C 498.826 3.92112 -1.74777 0
M  V30 5394 C 498.059 5.16131 -1.3581 0
M  V30 5395 O 498.282 5.6989 -0.241201 0
M  V30 5396 O 497.216 5.61103 -2.17824 0
M  V30 5397 H 501.042 2.31046 -1.97108 0
M  V30 5398 H 498.627 1.09284 -1.01869 0
M  V30 5399 H 500.509 4.19488 -0.400982 0
M  V30 5400 H 499.184 3.2234 0.296421 0
M  V30 5401 H 498.091 3.14895 -2.0197 0
M  V30 5402 H 499.424 4.15364 -2.64071 0
M  V30 5403 N 501.076 1.04316 1.18135 0
M  V30 5404 C 501.986 0.646876 2.25505 0
M  V30 5405 C 503.002 -0.328008 1.7088 0
M  V30 5406 O 504.178 -0.182309 2.00573 0
M  V30 5407 C 501.243 0.0185664 3.46695 0
M  V30 5408 C 500.304 1.04277 4.16443 0
M  V30 5409 C 499.537 0.444352 5.31847 0
M  V30 5410 O 499.76 -0.748735 5.65465 0
M  V30 5411 O 498.694 1.17428 5.90334 0
M  V30 5412 H 502.52 1.54147 2.61672 0
M  V30 5413 H 500.105 0.814188 1.25265 0
M  V30 5414 H 501.987 -0.331068 4.20097 0
M  V30 5415 H 500.662 -0.849814 3.12346 0
M  V30 5416 H 499.569 1.44425 3.45098 0
M  V30 5417 H 500.902 1.882 4.54798 0
M  V30 5418 N 502.554 -1.34406 0.822964 0
M  V30 5419 C 503.803 -1.97542 0.407458 0
M  V30 5420 C 504.116 -1.65973 -1.035 0
M  V30 5421 O 505.322 -2.22598 -1.55442 0
M  V30 5422 C 503.778 -3.53463 0.677623 0
M  V30 5423 C 503.386 -3.93925 2.1337 0
M  V30 5424 C 505.13 -4.23229 0.328284 0
M  V30 5425 C 503.037 -5.42759 2.34876 0
M  V30 5426 H 501.967 -0.739207 0.148623 0
M  V30 5427 H 504.618 -1.53248 1.00932 0
M  V30 5428 H 503 -3.96 0.00558965 0
M  V30 5429 H 504.174 -3.62494 2.8449 0
M  V30 5430 H 502.489 -3.37097 2.44448 0
M  V30 5431 H 505.086 -5.32659 0.466794 0
M  V30 5432 H 505.429 -4.09899 -0.727224 0
M  V30 5433 H 505.962 -3.86169 0.954896 0
M  V30 5434 H 502.701 -5.61075 3.38932 0
M  V30 5435 H 502.221 -5.75704 1.68299 0
M  V30 5436 H 503.9 -6.0944 2.17236 0
M  V30 5437 N 504.032 -0.577932 -1.46621 0
M  V30 5438 C 505.278 -0.0617793 -2.02706 0
M  V30 5439 C 505.611 1.29294 -1.44903 0
M  V30 5440 O 504.886 1.8461 -0.61232 0
M  V30 5441 C 505.169 0.00911824 -3.60099 0
M  V30 5442 C 505.022 -1.37416 -4.28295 0
M  V30 5443 C 506.341 0.712159 -4.343 0
M  V30 5444 H 503.46 -0.0239246 -0.736612 0
M  V30 5445 H 506.102 -0.744211 -1.74818 0
M  V30 5446 H 504.252 0.590292 -3.83989 0
M  V30 5447 H 505.924 -2.00013 -4.15683 0
M  V30 5448 H 504.167 -1.94319 -3.87843 0
M  V30 5449 H 504.838 -1.27707 -5.37024 0
M  V30 5450 H 507.314 0.218486 -4.15526 0
M  V30 5451 H 506.19 0.730782 -5.44014 0
M  V30 5452 H 506.451 1.77251 -4.05012 0
M  V30 5453 N 505.51 1.54411 -0.315457 0
M  V30 5454 C 506.759 1.99599 0.290395 0
M  V30 5455 C 507.072 1.20746 1.53882 0
M  V30 5456 O 508.278 1.56272 2.22017 0
M  V30 5457 C 506.734 3.5539 0.56797 0
M  V30 5458 C 506.342 4.43068 -0.662945 0
M  V30 5459 C 508.086 4.09067 1.13422 0
M  V30 5460 C 505.993 5.90317 -0.357722 0
M  V30 5461 H 504.923 0.745592 0.112286 0
M  V30 5462 H 507.574 1.78477 -0.426418 0
M  V30 5463 H 505.956 3.72468 1.34476 0
M  V30 5464 H 507.13 4.37765 -1.43869 0
M  V30 5465 H 505.445 4.00238 -1.14884 0
M  V30 5466 H 508.042 5.16663 1.37707 0
M  V30 5467 H 508.385 3.60552 2.08106 0
M  V30 5468 H 508.918 3.95589 0.418805 0
M  V30 5469 H 505.657 6.4301 -1.27351 0
M  V30 5470 H 505.177 5.98592 0.380472 0
M  V30 5471 H 506.856 6.4699 0.0354284 0
M  V30 5472 N 506.988 0.0434614 1.5754 0
M  V30 5473 C 507.935 -0.93356 2.11077 0
M  V30 5474 C 508.905 -1.31383 1.01626 0
M  V30 5475 O 510.09 -1.40465 1.29129 0
M  V30 5476 C 507.23 -2.20578 2.65404 0
M  V30 5477 C 506.343 -1.88068 3.88914 0
M  V30 5478 C 505.478 -3.09691 4.31584 0
M  V30 5479 C 504.517 -2.73067 5.47815 0
M  V30 5480 N 503.654 -3.87359 5.85574 0
M  V30 5481 H 508.494 -0.470118 2.94268 0
M  V30 5482 H 506.031 -0.220434 1.45439 0
M  V30 5483 H 507.989 -2.95011 2.94999 0
M  V30 5484 H 506.619 -2.64513 1.85021 0
M  V30 5485 H 505.671 -1.03816 3.6596 0
M  V30 5486 H 506.983 -1.57104 4.73413 0
M  V30 5487 H 506.137 -3.92431 4.62691 0
M  V30 5488 H 504.876 -3.43827 3.45882 0
M  V30 5489 H 503.881 -1.88742 5.16388 0
M  V30 5490 H 505.106 -2.40131 6.35227 0
M  V30 5491 H 503.052 -4.21311 5.02825 0
M  V30 5492 H 502.969 -3.60068 6.64746 0
M  V30 5493 H 504.237 -4.70761 6.21292 0
M  V30 5494 N 508.466 -1.55915 -0.229846 0
M  V30 5495 C 509.376 -1.94891 -1.30593 0
M  V30 5496 C 510.392 -0.851604 -1.51736 0
M  V30 5497 O 511.568 -1.15447 -1.65027 0
M  V30 5498 C 508.633 -2.25052 -2.63728 0
M  V30 5499 C 507.694 -3.48306 -2.5096 0
M  V30 5500 C 506.927 -3.77019 -3.77747 0
M  V30 5501 O 507.15 -3.07534 -4.80395 0
M  V30 5502 O 506.084 -4.70523 -3.75356 0
M  V30 5503 H 509.91 -2.86581 -1.00525 0
M  V30 5504 H 507.495 -1.43017 -0.432025 0
M  V30 5505 H 509.377 -2.45682 -3.42372 0
M  V30 5506 H 508.052 -1.36538 -2.93495 0
M  V30 5507 H 506.959 -3.32964 -1.70546 0
M  V30 5508 H 508.292 -4.37177 -2.26136 0
M  V30 5509 N 509.944 0.496216 -1.49584 0
M  V30 5510 C 510.907 1.57952 -1.66084 0
M  V30 5511 C 511.907 1.51729 -0.53244 0
M  V30 5512 O 513.097 1.54796 -0.79899 0
M  V30 5513 C 510.229 2.97604 -1.66268 0
M  V30 5514 H 511.422 1.44649 -2.6271 0
M  V30 5515 H 508.975 0.7208 -1.38687 0
M  V30 5516 H 509.71 3.16378 -0.712432 0
M  V30 5517 H 509.495 3.03528 -2.4822 0
M  V30 5518 H 510.985 3.76301 -1.81073 0
M  V30 5519 N 511.423 1.38739 0.74761 0
M  V30 5520 C 512.37 1.36449 1.86146 0
M  V30 5521 C 513.34 0.226098 1.64554 0
M  V30 5522 O 514.525 0.41926 1.86137 0
M  V30 5523 C 511.665 1.2013 3.23516 0
M  V30 5524 C 510.778 2.43407 3.56899 0
M  V30 5525 C 509.913 2.19773 4.83605 0
M  V30 5526 C 508.952 3.3879 5.09792 0
M  V30 5527 N 508.089 3.14553 6.27695 0
M  V30 5528 H 512.929 2.3167 1.87438 0
M  V30 5529 H 510.466 1.15094 0.916063 0
M  V30 5530 H 512.424 1.08683 4.02795 0
M  V30 5531 H 511.054 0.285453 3.21535 0
M  V30 5532 H 510.106 2.65504 2.72418 0
M  V30 5533 H 511.418 3.32094 3.72176 0
M  V30 5534 H 510.572 2.05496 5.70838 0
M  V30 5535 H 509.311 1.28461 4.70478 0
M  V30 5536 H 508.316 3.53579 4.21025 0
M  V30 5537 H 509.541 4.30986 5.24812 0
M  V30 5538 H 507.487 2.25893 6.1588 0
M  V30 5539 H 507.404 3.96791 6.435 0
M  V30 5540 H 508.672 3.03943 7.17801 0
M  V30 5541 N 512.901 -0.976442 1.23707 0
M  V30 5542 C 514.129 -1.75341 1.09833 0
M  V30 5543 C 514.544 -1.8553 -0.349885 0
M  V30 5544 O 513.901 -1.33732 -1.24185 0
M  V30 5545 C 513.952 -3.17833 1.72233 0
M  V30 5546 O 513.673 -3.08167 3.11391 0
M  V30 5547 C 515.174 -4.11906 1.63853 0
M  V30 5548 H 512.394 -0.550137 0.384175 0
M  V30 5549 H 514.938 -1.2265 1.63638 0
M  V30 5550 H 513.093 -3.67538 1.22452 0
M  V30 5551 H 513.507 -3.97897 3.41729 0
M  V30 5552 H 514.981 -5.09579 2.12211 0
M  V30 5553 H 515.458 -4.35109 0.598092 0
M  V30 5554 H 516.064 -3.68107 2.13019 0
M  V30 5555 N 514.379 -1.04941 -1.1758 0
M  V30 5556 C 515.311 -0.606174 -2.21039 0
M  V30 5557 C 516.324 0.328763 -1.59446 0
M  V30 5558 O 517.513 0.121895 -1.78083 0
M  V30 5559 C 514.613 0.133294 -3.38638 0
M  V30 5560 C 513.786 -0.811711 -4.29802 0
M  V30 5561 C 512.845 -0.113958 -5.26077 0
M  V30 5562 O 511.871 -0.747237 -5.64274 0
M  V30 5563 N 513.073 1.14953 -5.69004 0
M  V30 5564 H 515.838 -1.49606 -2.59689 0
M  V30 5565 H 513.399 -0.930997 -1.32454 0
M  V30 5566 H 515.391 0.610144 -4.00074 0
M  V30 5567 H 513.961 0.924816 -2.98607 0
M  V30 5568 H 513.181 -1.46824 -3.65837 0
M  V30 5569 H 514.469 -1.45326 -4.87604 0
M  V30 5570 H 513.867 1.68441 -5.40041 0
M  V30 5571 H 512.424 1.57049 -6.32597 0
M  V30 5572 N 515.857 1.33968 -0.830081 0
M  V30 5573 C 517.103 1.98357 -0.422191 0
M  V30 5574 C 517.436 1.65633 1.01387 0
M  V30 5575 O 516.711 0.931648 1.70735 0
M  V30 5576 C 516.994 3.54492 -0.633043 0
M  V30 5577 C 516.847 3.96934 -2.11574 0
M  V30 5578 C 518.166 4.40039 -0.0735584 0
M  V30 5579 H 515.285 0.720544 -0.154871 0
M  V30 5580 H 517.927 1.58749 -1.04397 0
M  V30 5581 H 516.077 3.88361 -0.103775 0
M  V30 5582 H 517.749 3.73363 -2.7092 0
M  V30 5583 H 515.992 3.46984 -2.60354 0
M  V30 5584 H 516.663 5.05651 -2.21406 0
M  V30 5585 H 519.139 4.12764 -0.52585 0
M  V30 5586 H 518.015 5.48327 -0.250841 0
M  V30 5587 H 518.276 4.30124 1.02202 0
M  V30 5588 N 517.335 0.585699 1.46312 0
M  V30 5589 C 518.245 -0.148236 2.34131 0
M  V30 5590 C 519.261 -0.882972 1.49932 0
M  V30 5591 O 520.437 -0.845484 1.82794 0
M  V30 5592 C 517.502 -1.14714 3.27172 0
M  V30 5593 C 516.563 -0.416746 4.27272 0
M  V30 5594 C 515.796 -1.36806 5.15868 0
M  V30 5595 O 516.019 -2.60475 5.07454 0
M  V30 5596 O 514.953 -0.877018 5.95476 0
M  V30 5597 H 518.779 0.572882 2.98248 0
M  V30 5598 H 516.364 0.346082 1.45336 0
M  V30 5599 H 518.246 -1.72303 3.84564 0
M  V30 5600 H 516.921 -1.84967 2.65648 0
M  V30 5601 H 515.828 0.201061 3.73559 0
M  V30 5602 H 517.161 0.244872 4.9159 0
M  V30 5603 N 518.813 -1.54241 0.323641 0
M  V30 5604 C 519.76 -2.24339 -0.542277 0
M  V30 5605 C 520.73 -1.23421 -1.11159 0
M  V30 5606 O 521.915 -1.52104 -1.15192 0
M  V30 5607 C 519.055 -3.00479 -1.69725 0
M  V30 5608 C 518.168 -4.16214 -1.15716 0
M  V30 5609 C 517.303 -4.79884 -2.27783 0
M  V30 5610 C 516.342 -5.87722 -1.71023 0
M  V30 5611 N 515.479 -6.45254 -2.76752 0
M  V30 5612 H 520.319 -2.97935 0.0620613 0
M  V30 5613 H 517.856 -1.47039 0.0423993 0
M  V30 5614 H 519.814 -3.42869 -2.3769 0
M  V30 5615 H 518.444 -2.29217 -2.27288 0
M  V30 5616 H 517.496 -3.78605 -0.369063 0
M  V30 5617 H 518.808 -4.93838 -0.701832 0
M  V30 5618 H 517.962 -5.25243 -3.03651 0
M  V30 5619 H 516.701 -4.01641 -2.76652 0
M  V30 5620 H 515.706 -5.41765 -0.936518 0
M  V30 5621 H 516.931 -6.67863 -1.2303 0
M  V30 5622 H 514.877 -5.69884 -3.24912 0
M  V30 5623 H 514.794 -7.18292 -2.35782 0
M  V30 5624 H 516.062 -6.95269 -3.5245 0
M  V30 5625 N 520.291 -0.0518155 -1.57515 0
M  V30 5626 C 521.539 0.620595 -1.92336 0
M  V30 5627 C 521.86 1.71345 -0.930907 0
M  V30 5628 O 521.13 1.95885 0.0241341 0
M  V30 5629 H 519.71 0.232226 -0.709986 0
M  V30 5630 H 522.372 -0.104969 -1.94617 0
M  V30 5631 H 521.468 1.05879 -2.93592 0
M  V30 5632 N 521.769 1.56035 0.221574 0
M  V30 5633 C 522.732 1.91584 1.2581 0
M  V30 5634 C 523.732 0.794425 1.39805 0
M  V30 5635 O 524.922 1.06217 1.38071 0
M  V30 5636 C 522.054 2.16663 2.63192 0
M  V30 5637 H 523.247 2.8429 0.954935 0
M  V30 5638 H 520.8 1.49316 0.461988 0
M  V30 5639 H 521.535 1.26508 2.98607 0
M  V30 5640 H 521.32 2.98358 2.5441 0
M  V30 5641 H 522.81 2.45262 3.37988 0
M  V30 5642 N 523.247 -0.488276 1.49845 0
M  V30 5643 C 524.157 -1.61451 1.70207 0
M  V30 5644 C 525.173 -1.63877 0.584846 0
M  V30 5645 O 526.349 -1.82063 0.861107 0
M  V30 5646 C 523.414 -2.9776 1.77594 0
M  V30 5647 C 522.475 -3.05861 3.01243 0
M  V30 5648 C 521.708 -4.35668 3.08268 0
M  V30 5649 O 521.931 -5.25197 2.22541 0
M  V30 5650 O 520.865 -4.49005 4.00847 0
M  V30 5651 H 524.691 -1.47199 2.65643 0
M  V30 5652 H 522.276 -0.665939 1.33737 0
M  V30 5653 H 524.158 -3.7875 1.84732 0
M  V30 5654 H 522.833 -3.12248 0.8534 0
M  V30 5655 H 521.74 -2.24012 2.99616 0
M  V30 5656 H 523.073 -2.96304 3.9302 0
M  V30 5657 N 524.725 -1.39134 -0.740242 0
M  V30 5658 C 525.971 -1.36273 -1.50192 0
M  V30 5659 C 526.304 0.0430136 -1.94152 0
M  V30 5660 O 525.579 1.00691 -1.66408 0
M  V30 5661 C 525.862 -2.33041 -2.74525 0
M  V30 5662 C 525.715 -3.82535 -2.36617 0
M  V30 5663 C 527.034 -2.27723 -3.76604 0
M  V30 5664 H 524.153 -0.496323 -0.544823 0
M  V30 5665 H 526.795 -1.70085 -0.846815 0
M  V30 5666 H 524.945 -2.04337 -3.30422 0
M  V30 5667 H 526.617 -4.21967 -1.86391 0
M  V30 5668 H 524.86 -3.99565 -1.68909 0
M  V30 5669 H 525.531 -4.45723 -3.2563 0
M  V30 5670 H 528.007 -2.53091 -3.30279 0
M  V30 5671 H 526.883 -2.97519 -4.61274 0
M  V30 5672 H 527.144 -1.28049 -4.2315 0
M  V30 5673 N 526.204 0.969867 -1.24223 0
M  V30 5674 C 527.134 2.08191 -1.05729 0
M  V30 5675 C 528.115 1.70075 0.0290765 0
M  V30 5676 O 529.3 1.93712 -0.137583 0
M  V30 5677 C 526.43 3.40991 -0.658995 0
M  V30 5678 C 525.384 3.93054 -1.69389 0
M  V30 5679 C 524.71 5.22171 -1.15072 0
M  V30 5680 C 526.01 4.21137 -3.08935 0
M  V30 5681 H 527.704 2.23921 -1.98746 0
M  V30 5682 H 525.25 1.07602 -0.956967 0
M  V30 5683 H 527.203 4.18221 -0.51662 0
M  V30 5684 H 525.927 3.25155 0.30686 0
M  V30 5685 H 524.586 3.17977 -1.82444 0
M  V30 5686 H 524.234 5.02694 -0.175539 0
M  V30 5687 H 523.934 5.57973 -1.84229 0
M  V30 5688 H 525.458 6.02013 -1.02042 0
M  V30 5689 H 526.872 4.8908 -2.99121 0
M  V30 5690 H 525.269 4.68163 -3.75425 0
M  V30 5691 H 526.339 3.27996 -3.57137 0
M  V30 5692 N 527.682 1.05563 1.17022 0
M  V30 5693 C 528.959 0.68165 1.83338 0
M  V30 5694 C 529.339 -0.837665 1.93769 0
M  V30 5695 O 528.687 -1.74507 1.47511 0
M  V30 5696 C 528.897 1.375 3.20772 0
M  V30 5697 C 530.245 1.51545 3.96635 0
M  V30 5698 O 531.269 1.33431 3.30264 0
M  V30 5699 O 530.128 1.812 5.15586 0
M  V30 5700 H 527.222 0.240412 0.791285 0
M  V30 5701 H 529.768 1.15545 1.24288 0
M  V30 5702 H 528.54 2.41135 3.08171 0
M  V30 5703 H 528.163 0.890798 3.87493 0
M  V30 5704 N 529.16 -1.33526 0.837174 0
M  V30 5705 C 530.406 -1.9813 0.432704 0
M  V30 5706 C 530.739 -1.66168 -1.00508 0
M  V30 5707 O 530.014 -0.94069 -1.70239 0
M  V30 5708 C 530.297 -3.54151 0.651834 0
M  V30 5709 C 530.15 -3.95806 2.13676 0
M  V30 5710 C 531.469 -4.39993 0.0968937 0
M  V30 5711 H 528.588 -0.719713 0.15869 0
M  V30 5712 H 531.23 -1.58193 1.05237 0
M  V30 5713 H 529.38 -3.88301 0.124369 0
M  V30 5714 H 531.052 -3.71921 2.72896 0
M  V30 5715 H 529.295 -3.45599 2.62191 0
M  V30 5716 H 529.966 -5.0447 2.24084 0
M  V30 5717 H 532.442 -4.12479 0.547733 0
M  V30 5718 H 531.318 -5.48186 0.279917 0
M  V30 5719 H 531.579 -4.3066 -0.9992 0
M  V30 5720 N 530.638 -0.59345 -1.46 0
M  V30 5721 C 531.586 0.146268 -2.3214 0
M  V30 5722 C 532.58 0.873743 -1.45128 0
M  V30 5723 O 533.786 0.790912 -1.61693 0
M  V30 5724 H 530.161 0.0660349 -0.749095 0
M  V30 5725 H 532.132 -0.598895 -2.92328 0
M  V30 5726 C 530.881 1.1396 -3.28494 0
M  V30 5727 H 530.204 0.589252 -3.95434 0
M  V30 5728 H 531.644 1.62738 -3.91526 0
M  V30 5729 C 530.103 2.20604 -2.54628 0
M  V30 5730 O 530.633 3.28128 -2.31722 0
M  V30 5731 N 528.839 1.95502 -2.15005 0
M  V30 5732 H 528.386 1.0807 -2.33834 0
M  V30 5733 H 528.344 2.67064 -1.65904 0
M  V30 5734 N 532.116 1.54067 -0.331816 0
M  V30 5735 C 533.363 2.00715 0.268269 0
M  V30 5736 C 533.691 1.21986 1.51491 0
M  V30 5737 O 532.946 0.292309 1.93505 0
M  V30 5738 C 533.245 3.51634 0.639392 0
M  V30 5739 C 532.911 4.48018 -0.509019 0
M  V30 5740 C 531.573 4.74089 -0.824209 0
M  V30 5741 C 533.925 5.05237 -1.28003 0
M  V30 5742 C 531.253 5.54637 -1.91298 0
M  V30 5743 C 533.605 5.86972 -2.35895 0
M  V30 5744 C 532.269 6.11342 -2.67987 0
M  V30 5745 H 531.539 0.734469 0.0981667 0
M  V30 5746 H 534.186 1.8596 -0.457304 0
M  V30 5747 H 532.491 3.6416 1.44551 0
M  V30 5748 H 534.188 3.85175 1.11539 0
M  V30 5749 H 530.778 4.27851 -0.253287 0
M  V30 5750 H 534.962 4.8507 -1.04978 0
M  V30 5751 H 530.218 5.71747 -2.16599 0
M  V30 5752 H 534.392 6.30327 -2.96076 0
M  V30 5753 H 532.019 6.73544 -3.5248 0
M  V30 5754 N 533.594 0.0601682 1.57485 0
M  V30 5755 C 534.842 -0.610386 1.92662 0
M  V30 5756 C 535.163 -1.70849 0.939981 0
M  V30 5757 O 534.433 -1.95895 -0.0137455 0
M  V30 5758 H 533.013 -0.228457 0.711208 0
M  V30 5759 H 535.675 0.115288 1.94559 0
M  V30 5760 H 534.771 -1.0432 2.94149 0
M  V30 5761 N 535.072 -1.5615 -0.213296 0
M  V30 5762 C 536.321 -1.78743 -0.93455 0
M  V30 5763 C 536.634 -0.630199 -1.8517 0
M  V30 5764 O 537.84 -0.739966 -2.61222 0
M  V30 5765 C 536.296 -3.16571 -1.71203 0
M  V30 5766 C 535.904 -4.40043 -0.840617 0
M  V30 5767 C 537.648 -3.48485 -2.42401 0
M  V30 5768 C 535.555 -5.68895 -1.61592 0
M  V30 5769 H 534.485 -0.666426 -0.352692 0
M  V30 5770 H 537.136 -1.82532 -0.188227 0
M  V30 5771 H 535.518 -3.06981 -2.50157 0
M  V30 5772 H 536.692 -4.6071 -0.0910326 0
M  V30 5773 H 535.007 -4.15706 -0.240365 0
M  V30 5774 H 537.604 -4.41983 -3.00924 0
M  V30 5775 H 537.947 -2.71371 -3.15695 0
M  V30 5776 H 538.48 -3.59442 -1.7043 0
M  V30 5777 H 535.219 -6.48925 -0.926106 0
M  V30 5778 H 534.739 -5.52275 -2.33991 0
M  V30 5779 H 536.418 -6.09365 -2.17447 0
M  V30 5780 N 536.55 0.480323 -1.50102 0
M  V30 5781 C 537.46 1.60547 -1.71061 0
M  V30 5782 C 538.476 1.63564 -0.593529 0
M  V30 5783 O 539.652 1.81604 -0.870751 0
M  V30 5784 C 536.717 2.96814 -1.79171 0
M  V30 5785 C 535.778 3.04259 -3.02861 0
M  V30 5786 C 535.011 4.34027 -3.10574 0
M  V30 5787 O 535.234 5.24009 -2.25323 0
M  V30 5788 O 534.168 4.46873 -4.03223 0
M  V30 5789 H 537.994 1.45788 -2.6642 0
M  V30 5790 H 535.579 0.658838 -1.34088 0
M  V30 5791 H 537.461 3.77765 -1.86738 0
M  V30 5792 H 536.136 3.11791 -0.869947 0
M  V30 5793 H 535.043 2.22419 -3.008 0
M  V30 5794 H 536.376 2.94216 -3.94586 0
M  V30 5795 N 538.028 1.39524 0.732853 0
M  V30 5796 C 539.253 1.40329 1.52717 0
M  V30 5797 C 539.678 0.000286574 1.881 0
M  V30 5798 O 539.036 -0.987262 1.52062 0
M  V30 5799 C 539.084 2.28464 2.78992 0
M  V30 5800 O 538.188 1.716 3.75003 0
M  V30 5801 H 537.529 0.47778 0.461109 0
M  V30 5802 H 540.059 1.83546 0.903996 0
M  V30 5803 H 540.069 2.43051 3.27705 0
M  V30 5804 H 538.744 3.30425 2.52572 0
M  V30 5805 H 537.321 1.66267 3.33781 0
M  V30 5806 N 539.506 -0.963266 1.24736 0
M  V30 5807 C 540.438 -2.06162 1.0015 0
M  V30 5808 C 541.451 -1.62771 -0.0305905 0
M  V30 5809 O 542.64 -1.77296 0.206966 0
M  V30 5810 C 539.74 -3.35333 0.490385 0
M  V30 5811 C 538.913 -4.07609 1.58663 0
M  V30 5812 C 537.972 -5.15052 1.0774 0
M  V30 5813 O 536.998 -5.4098 1.77002 0
M  V30 5814 N 538.2 -5.80436 -0.0858605 0
M  V30 5815 H 540.965 -2.27825 1.94719 0
M  V30 5816 H 538.526 -1.13121 1.15825 0
M  V30 5817 H 540.518 -4.04477 0.134371 0
M  V30 5818 H 539.088 -3.10507 -0.361155 0
M  V30 5819 H 538.308 -3.32681 2.11463 0
M  V30 5820 H 539.596 -4.52656 2.32336 0
M  V30 5821 H 538.994 -5.6178 -0.664806 0
M  V30 5822 H 537.551 -6.50674 -0.382981 0
M  V30 5823 N 540.985 -1.06182 -1.16461 0
M  V30 5824 C 542.234 -0.772927 -1.86303 0
M  V30 5825 C 542.547 0.703187 -1.82523 0
M  V30 5826 O 543.753 1.10641 -2.47933 0
M  V30 5827 C 542.209 -1.33249 -3.34324 0
M  V30 5828 C 541.817 -2.83876 -3.46581 0
M  V30 5829 C 543.561 -1.12108 -4.09429 0
M  V30 5830 C 541.468 -3.33082 -4.88682 0
M  V30 5831 H 540.398 -0.285452 -0.697878 0
M  V30 5832 H 543.049 -1.28039 -1.31447 0
M  V30 5833 H 541.431 -0.7528 -3.88779 0
M  V30 5834 H 542.605 -3.47786 -3.02293 0
M  V30 5835 H 540.92 -3.03671 -2.84909 0
M  V30 5836 H 543.517 -1.46361 -5.14279 0
M  V30 5837 H 543.86 -0.0593832 -4.16258 0
M  V30 5838 H 544.393 -1.6665 -3.6121 0
M  V30 5839 H 541.132 -4.38726 -4.87032 0
M  V30 5840 H 540.652 -2.73919 -5.33599 0
M  V30 5841 H 542.331 -3.28344 -5.57494 0
M  V30 5842 N 542.463 1.3308 -0.844243 0
M  V30 5843 C 543.74 1.92178 -0.364261 0
M  V30 5844 C 544.12 1.76961 1.15101 0
M  V30 5845 O 543.468 1.16128 1.9679 0
M  V30 5846 C 543.678 3.393 -0.817106 0
M  V30 5847 C 545.026 4.16444 -0.828236 0
M  V30 5848 O 546.05 3.47975 -0.761062 0
M  V30 5849 O 544.909 5.38685 -0.920926 0
M  V30 5850 H 542.003 0.820411 -0.10419 0
M  V30 5851 H 544.549 1.41918 -0.930453 0
M  V30 5852 H 543.321 3.44272 -1.85991 0
M  V30 5853 H 542.944 3.96947 -0.227785 0
M  V30 5854 N 543.941 0.601185 1.45683 0
M  V30 5855 C 545.187 0.0940202 2.02582 0
M  V30 5856 C 545.52 -1.26972 1.46941 0
M  V30 5857 O 544.795 -1.83613 0.641612 0
M  V30 5858 C 545.078 0.0481715 3.60068 0
M  V30 5859 C 544.931 1.44212 4.26055 0
M  V30 5860 C 546.25 -0.642975 4.35378 0
M  V30 5861 H 543.369 0.0356404 0.736138 0
M  V30 5862 H 546.011 0.771929 1.73612 0
M  V30 5863 H 544.161 -0.529128 3.8488 0
M  V30 5864 H 545.833 2.06601 4.12449 0
M  V30 5865 H 544.076 2.00465 3.84703 0
M  V30 5866 H 544.747 1.36234 5.34925 0
M  V30 5867 H 547.223 -0.152351 4.15821 0
M  V30 5868 H 546.099 -0.644141 5.45107 0
M  V30 5869 H 546.36 -1.70785 4.0778 0
M  V30 5870 N 545.419 -1.53889 0.339982 0
M  V30 5871 C 546.835 -1.59595 -0.0120752 0
M  V30 5872 C 547.035 -1.35605 -1.49042 0
M  V30 5873 O 546.091 -1.14856 -2.24865 0
M  V30 5874 C 547.404 -2.9774 0.420898 0
M  V30 5875 C 548.952 -3.1077 0.37294 0
M  V30 5876 C 549.427 -4.51286 0.781327 0
M  V30 5877 N 550.918 -4.57325 0.735374 0
M  V30 5878 C 551.653 -5.64194 1.02336 0
M  V30 5879 N 551.149 -6.7893 1.37933 0
M  V30 5880 N 552.942 -5.54051 0.947838 0
M  V30 5881 H 545.093 -1.67738 1.30299 0
M  V30 5882 H 547.356 -0.785385 0.530918 0
M  V30 5883 H 547.062 -3.20349 1.45152 0
M  V30 5884 H 546.936 -3.76639 -0.205721 0
M  V30 5885 H 549.323 -2.87886 -0.648505 0
M  V30 5886 H 549.404 -2.33939 1.03472 0
M  V30 5887 H 549.048 -4.74905 1.80077 0
M  V30 5888 H 548.978 -5.26511 0.0970679 0
M  V30 5889 H 551.469 -3.74931 0.472773 0
M  V30 5890 H 551.782 -7.56392 1.58402 0
M  V30 5891 H 550.127 -6.80386 1.41774 0
M  V30 5892 H 553.318 -4.63293 0.669115 0
M  V30 5893 H 553.491 -6.37246 1.17563 0
M  V30 5894 N 546.897 -0.0685191 -1.57451 0
M  V30 5895 C 548.127 0.609577 -1.97402 0
M  V30 5896 C 548.535 1.63882 -0.945489 0
M  V30 5897 O 547.878 1.8354 0.0766052 0
M  V30 5898 C 547.94 1.3385 -3.33653 0
M  V30 5899 C 547.604 0.463103 -4.54648 0
M  V30 5900 C 548.601 -0.277964 -5.19156 0
M  V30 5901 C 546.286 0.388941 -5.00792 0
M  V30 5902 C 548.28 -1.08145 -6.28159 0
M  V30 5903 C 545.967 -0.418217 -6.09667 0
M  V30 5904 C 546.965 -1.15208 -6.73213 0
M  V30 5905 O 546.653 -1.94594 -7.79993 0
M  V30 5906 H 546.385 0.170197 -0.654224 0
M  V30 5907 H 548.939 -0.13647 -2.04946 0
M  V30 5908 H 547.169 2.13055 -3.22714 0
M  V30 5909 H 548.858 1.90851 -3.58233 0
M  V30 5910 H 549.624 -0.230241 -4.84453 0
M  V30 5911 H 545.503 0.949769 -4.5111 0
M  V30 5912 H 549.047 -1.65476 -6.7769 0
M  V30 5913 H 544.944 -0.467515 -6.43805 0
M  V30 5914 H 545.712 -1.8699 -7.96854 0
M  V30 5915 N 548.375 1.56261 0.205012 0
M  V30 5916 C 549.621 1.80306 0.9283 0
M  V30 5917 C 549.954 0.640932 1.83319 0
M  V30 5918 O 549.229 -0.359032 1.91158 0
M  V30 5919 C 549.512 3.14547 1.75306 0
M  V30 5920 C 549.365 4.41236 0.873562 0
M  V30 5921 C 550.684 3.45382 2.72762 0
M  V30 5922 H 547.803 0.655929 0.336044 0
M  V30 5923 H 550.445 1.88984 0.196211 0
M  V30 5924 H 548.595 3.0728 2.37721 0
M  V30 5925 H 550.267 4.60539 0.264887 0
M  V30 5926 H 548.51 4.33427 0.179773 0
M  V30 5927 H 549.181 5.31639 1.48541 0
M  V30 5928 H 551.657 3.52884 2.20481 0
M  V30 5929 H 550.533 4.40449 3.2756 0
M  V30 5930 H 550.794 2.68377 3.51321 0
M  V30 5931 N 549.853 -0.472356 1.50355 0
M  V30 5932 C 550.763 -1.59637 1.7191 0
M  V30 5933 C 551.779 -1.63247 0.602195 0
M  V30 5934 O 552.955 -1.81139 0.880369 0
M  V30 5935 C 550.02 -2.9586 1.80742 0
M  V30 5936 C 549.081 -3.02649 3.04471 0
M  V30 5937 C 548.314 -4.32374 3.12872 0
M  V30 5938 O 548.537 -5.22807 2.28099 0
M  V30 5939 O 547.471 -4.44728 4.05587 0
M  V30 5940 H 551.297 -1.44373 2.67189 0
M  V30 5941 H 548.882 -0.651717 1.34436 0
M  V30 5942 H 550.764 -3.7677 1.88739 0
M  V30 5943 H 549.439 -3.11325 0.88647 0
M  V30 5944 H 548.346 -2.20821 3.01975 0
M  V30 5945 H 549.679 -2.92119 3.9614 0
M  V30 5946 N 551.331 -1.39911 -0.725443 0
M  V30 5947 C 552.278 -1.39393 -1.83952 0
M  V30 5948 C 553.248 -0.252249 -1.64173 0
M  V30 5949 O 554.433 -0.44882 -1.85446 0
M  V30 5950 C 551.573 -1.25262 -3.21564 0
M  V30 5951 C 550.686 -2.49054 -3.52982 0
M  V30 5952 C 549.821 -2.27439 -4.80047 0
M  V30 5953 C 548.86 -3.46857 -5.04338 0
M  V30 5954 N 547.997 -3.24499 -6.22611 0
M  V30 5955 H 552.837 -2.34622 -1.83729 0
M  V30 5956 H 550.374 -1.16537 -0.897636 0
M  V30 5957 H 552.332 -1.15077 -4.01015 0
M  V30 5958 H 550.962 -0.33657 -3.21041 0
M  V30 5959 H 550.014 -2.69805 -2.6816 0
M  V30 5960 H 551.326 -3.37973 -3.66846 0
M  V30 5961 H 550.48 -2.14551 -5.67497 0
M  V30 5962 H 549.219 -1.35929 -4.68374 0
M  V30 5963 H 548.224 -3.60232 -4.15346 0
M  V30 5964 H 549.449 -4.3928 -5.17889 0
M  V30 5965 H 547.395 -2.35663 -6.12208 0
M  V30 5966 H 547.312 -4.06978 -6.37106 0
M  V30 5967 H 548.58 -3.15325 -7.12875 0
M  V30 5968 N 552.809 0.956637 -1.25245 0
M  V30 5969 C 554.058 1.69537 -1.0927 0
M  V30 5970 C 554.371 1.92136 0.366503 0
M  V30 5971 O 555.577 2.63687 0.64665 0
M  V30 5972 C 554.033 3.05211 -1.9072 0
M  V30 5973 C 553.641 2.90416 -3.41119 0
M  V30 5974 C 555.385 3.82882 -1.83308 0
M  V30 5975 C 553.292 4.21468 -4.14872 0
M  V30 5976 H 552.222 0.635804 -0.405302 0
M  V30 5977 H 554.873 1.06513 -1.49423 0
M  V30 5978 H 553.255 3.69128 -1.43389 0
M  V30 5979 H 554.429 2.35444 -3.9611 0
M  V30 5980 H 552.744 2.26203 -3.49602 0
M  V30 5981 H 555.341 4.79944 -2.35706 0
M  V30 5982 H 555.684 4.0853 -0.800572 0
M  V30 5983 H 556.217 3.25711 -2.28379 0
M  V30 5984 H 552.956 4.01009 -5.18529 0
M  V30 5985 H 552.476 4.76213 -3.64665 0
M  V30 5986 H 554.155 4.90022 -4.22478 0
M  V30 5987 N 554.287 1.06798 1.15896 0
M  V30 5988 C 555.533 0.788934 1.86825 0
M  V30 5989 C 555.866 -0.683084 1.8179 0
M  V30 5990 O 555.141 -1.50086 1.23711 0
M  V30 5991 C 555.424 1.29065 3.36176 0
M  V30 5992 C 555.277 2.8268 3.49874 0
M  V30 5993 C 556.596 0.902655 4.30744 0
M  V30 5994 H 553.715 0.288066 0.678371 0
M  V30 5995 H 556.357 1.32479 1.36195 0
M  V30 5996 H 554.507 0.834806 3.79425 0
M  V30 5997 H 556.179 3.36511 3.15528 0
M  V30 5998 H 554.422 3.21157 2.91617 0
M  V30 5999 H 555.093 3.12852 4.54783 0
M  V30 6000 H 557.569 1.29535 3.95424 0
M  V30 6001 H 556.445 1.28111 5.3374 0
M  V30 6002 H 556.706 -0.191951 4.41683 0
M  V30 6003 N 555.766 -1.3263 0.851289 0
M  V30 6004 C 556.698 -2.27824 0.250757 0
M  V30 6005 C 557.711 -1.52285 -0.575598 0
M  V30 6006 O 558.9 -1.73946 -0.400638 0
M  V30 6007 C 556 -3.3232 -0.664571 0
M  V30 6008 C 555.173 -4.37221 0.125187 0
M  V30 6009 C 554.232 -5.21314 -0.715385 0
M  V30 6010 O 553.258 -5.69002 -0.150111 0
M  V30 6011 N 554.46 -5.43823 -2.03069 0
M  V30 6012 H 557.225 -2.79997 1.06873 0
M  V30 6013 H 554.786 -1.45455 0.710943 0
M  V30 6014 H 556.778 -3.85486 -1.23216 0
M  V30 6015 H 555.348 -2.80331 -1.38323 0
M  V30 6016 H 554.568 -3.84384 0.874199 0
M  V30 6017 H 555.856 -5.04399 0.667774 0
M  V30 6018 H 555.254 -5.06803 -2.51332 0
M  V30 6019 H 553.811 -5.99998 -2.54648 0
M  V30 6020 N 557.244 -0.608902 -1.45362 0
M  V30 6021 C 558.472 -0.111013 -2.06602 0
M  V30 6022 C 558.887 1.20516 -1.45332 0
M  V30 6023 O 558.244 1.73437 -0.567978 0
M  V30 6024 C 558.295 0.033688 -3.61484 0
M  V30 6025 O 558.016 -1.23041 -4.20467 0
M  V30 6026 C 559.517 0.562882 -4.39712 0
M  V30 6027 H 556.737 -0.0694453 -0.667397 0
M  V30 6028 H 559.281 -0.837008 -1.86586 0
M  V30 6029 H 557.436 0.710016 -3.80838 0
M  V30 6030 H 557.85 -1.06094 -5.13658 0
M  V30 6031 H 559.324 0.613213 -5.48583 0
M  V30 6032 H 559.801 1.58543 -4.09586 0
M  V30 6033 H 560.407 -0.0794454 -4.25226 0
M  V30 6034 N 558.722 1.53707 -0.348139 0
M  V30 6035 C 559.652 2.28111 0.498766 0
M  V30 6036 C 560.633 1.29851 1.09876 0
M  V30 6037 O 561.818 1.587 1.11928 0
M  V30 6038 C 558.948 3.05735 1.64753 0
M  V30 6039 C 557.902 4.11537 1.17565 0
M  V30 6040 C 557.228 4.77142 2.4133 0
M  V30 6041 C 558.528 5.21587 0.272844 0
M  V30 6042 H 560.222 2.99152 -0.121934 0
M  V30 6043 H 557.768 1.43875 -0.0600842 0
M  V30 6044 H 559.721 3.56526 2.24649 0
M  V30 6045 H 558.445 2.32354 2.2952 0
M  V30 6046 H 557.104 3.61665 0.599483 0
M  V30 6047 H 556.752 4.0035 3.04514 0
M  V30 6048 H 556.452 5.48626 2.10436 0
M  V30 6049 H 557.976 5.30719 3.01943 0
M  V30 6050 H 559.39 5.67986 0.778779 0
M  V30 6051 H 557.787 6.00074 0.0555849 0
M  V30 6052 H 558.857 4.79969 -0.689785 0
M  V30 6053 N 560.2 0.0768682 1.57412 0
M  V30 6054 C 561.611 -0.455037 1.8107 0
M  V30 6055 C 561.962 -1.69323 0.991162 0
M  V30 6056 O 561.087 -2.15328 0.215156 0
M  V30 6057 C 561.682 -0.832316 3.28417 0
M  V30 6058 C 560.241 -1.30906 3.52903 0
M  V30 6059 C 559.388 -0.296714 2.75708 0
M  V30 6060 H 562.339 0.302514 1.5579 0
M  V30 6061 H 562.36 -1.69333 3.40744 0
M  V30 6062 H 561.872 0.0690532 3.88039 0
M  V30 6063 H 559.973 -2.22875 2.98592 0
M  V30 6064 H 560.086 -1.28348 4.61588 0
M  V30 6065 H 558.45 -0.775059 2.42621 0
M  V30 6066 H 559.233 0.597015 3.38069 0
M  V30 6067 N 561.678 -1.56367 -0.196722 0
M  V30 6068 C 562.908 -1.84371 -0.932254 0
M  V30 6069 C 563.316 -0.657013 -1.77426 0
M  V30 6070 O 562.659 0.383576 -1.79651 0
M  V30 6071 C 562.721 -3.06454 -1.87952 0
M  V30 6072 C 562.385 -4.40425 -1.21962 0
M  V30 6073 C 563.382 -5.16457 -0.597343 0
M  V30 6074 C 561.067 -4.8716 -1.22396 0
M  V30 6075 C 563.061 -6.37399 0.0117913 0
M  V30 6076 C 560.748 -6.08038 -0.610995 0
M  V30 6077 C 561.746 -6.83 0.00580487 0
M  V30 6078 O 561.434 -8.01589 0.609173 0
M  V30 6079 H 561.166 -0.616377 -0.277589 0
M  V30 6080 H 563.72 -2.04329 -0.209452 0
M  V30 6081 H 561.95 -2.82377 -2.64197 0
M  V30 6082 H 563.639 -3.21118 -2.48271 0
M  V30 6083 H 564.405 -4.81445 -0.586142 0
M  V30 6084 H 560.284 -4.2877 -1.69345 0
M  V30 6085 H 563.828 -6.9585 0.493836 0
M  V30 6086 H 559.725 -6.42519 -0.619693 0
M  V30 6087 H 560.493 -8.16935 0.505919 0
M  V30 6088 N 563.156 0.464375 -1.50603 0
M  V30 6089 C 564.402 1.21776 -1.62168 0
M  V30 6090 C 564.735 1.91476 -0.324154 0
M  V30 6091 O 564.01 1.8242 0.674782 0
M  V30 6092 C 564.293 2.25614 -2.80661 0
M  V30 6093 C 564.146 1.60175 -4.20314 0
M  V30 6094 C 565.465 3.26862 -2.94702 0
M  V30 6095 H 562.584 0.44137 -0.590222 0
M  V30 6096 H 565.226 0.510623 -1.8301 0
M  V30 6097 H 563.376 2.85923 -2.63021 0
M  V30 6098 H 565.048 1.03411 -4.4956 0
M  V30 6099 H 563.291 0.904697 -4.24261 0
M  V30 6100 H 563.962 2.35665 -4.99165 0
M  V30 6101 H 566.438 2.76582 -3.10872 0
M  V30 6102 H 565.314 3.96839 -3.79223 0
M  V30 6103 H 565.575 3.91382 -2.05603 0
M  V30 6104 N 564.634 1.40294 0.718013 0
M  V30 6105 C 565.859 1.41941 1.5122 0
M  V30 6106 C 566.284 0.0202371 1.88089 0
M  V30 6107 O 565.642 -0.971078 1.53101 0
M  V30 6108 C 565.69 2.3141 2.76554 0
M  V30 6109 O 564.794 1.75567 3.73162 0
M  V30 6110 H 564.135 0.482644 0.456016 0
M  V30 6111 H 566.665 1.84494 0.884478 0
M  V30 6112 H 566.675 2.46513 3.25108 0
M  V30 6113 H 565.35 3.33085 2.49053 0
M  V30 6114 H 563.927 1.69798 3.31999 0
M  V30 6115 N 566.112 -0.949982 1.2575 0
M  V30 6116 C 567.06 -2.06869 1.06339 0
M  V30 6117 C 568.054 -1.69399 -0.00708901 0
M  V30 6118 O 569.26 -1.79383 0.148897 0
M  V30 6119 H 565.635 -0.677197 0.326969 0
M  V30 6120 H 567.606 -2.20396 2.01167 0
M  V30 6121 C 566.355 -3.40503 0.703769 0
M  V30 6122 H 565.678 -3.69807 1.51931 0
M  V30 6123 H 567.118 -4.19623 0.607677 0
M  V30 6124 C 565.577 -3.31685 -0.5905 0
M  V30 6125 O 566.107 -3.67085 -1.63131 0
M  V30 6126 N 564.313 -2.84797 -0.577859 0
M  V30 6127 H 563.86 -2.56186 0.26951 0
M  V30 6128 H 563.818 -2.79279 -1.44398 0
M  V30 6129 N 567.59 -1.07411 -1.15328 0
M  V30 6130 C 568.836 -0.798831 -1.86404 0
M  V30 6131 C 569.169 0.673433 -1.8215 0
M  V30 6132 O 568.444 1.49428 -1.24505 0
M  V30 6133 C 568.727 -1.30846 -3.35487 0
M  V30 6134 C 568.58 -2.84532 -3.4837 0
M  V30 6135 C 569.899 -0.925486 -4.30259 0
M  V30 6136 H 567.018 -0.291659 -0.676834 0
M  V30 6137 H 569.66 -1.332 -1.35491 0
M  V30 6138 H 567.81 -0.854916 -3.78977 0
M  V30 6139 H 569.482 -3.3818 -3.13739 0
M  V30 6140 H 567.725 -3.22699 -2.8991 0
M  V30 6141 H 568.396 -3.15259 -4.53118 0
M  V30 6142 H 570.872 -1.3163 -3.94731 0
M  V30 6143 H 569.748 -1.3094 -5.33053 0
M  V30 6144 H 570.009 0.168525 -4.41779 0
M  V30 6145 N 569.068 1.32177 -0.85831 0
M  V30 6146 C 570.479 1.79381 -0.517621 0
M  V30 6147 C 570.83 1.70841 0.964769 0
M  V30 6148 O 569.955 1.26917 1.75274 0
M  V30 6149 C 570.55 3.25706 -0.932801 0
M  V30 6150 C 569.109 3.70851 -0.643953 0
M  V30 6151 C 568.256 2.53208 -1.13054 0
M  V30 6152 H 571.207 1.19424 -1.04516 0
M  V30 6153 H 571.228 3.79673 -0.250674 0
M  V30 6154 H 570.74 3.31889 -2.01174 0
M  V30 6155 H 568.841 3.70178 0.424112 0
M  V30 6156 H 568.954 4.63495 -1.21281 0
M  V30 6157 H 567.318 2.48676 -0.550679 0
M  V30 6158 H 568.101 2.62143 -2.21666 0
M  V30 6159 N 570.547 0.616602 1.45037 0
M  V30 6160 C 571.477 -0.0840787 2.33349 0
M  V30 6161 C 572.458 -0.849641 1.4736 0
M  V30 6162 O 573.643 -0.818407 1.76113 0
M  V30 6163 C 570.773 -1.07604 3.3021 0
M  V30 6164 C 569.727 -0.423096 4.25904 0
M  V30 6165 C 569.053 -1.52394 5.12523 0
M  V30 6166 C 570.353 0.661457 5.18095 0
M  V30 6167 H 572.047 0.653333 2.92185 0
M  V30 6168 H 569.593 0.315634 1.40498 0
M  V30 6169 H 571.546 -1.57485 3.90866 0
M  V30 6170 H 570.27 -1.84416 2.69552 0
M  V30 6171 H 568.929 0.05493 3.66559 0
M  V30 6172 H 568.577 -2.28257 4.48227 0
M  V30 6173 H 568.277 -1.09251 5.77354 0
M  V30 6174 H 569.801 -2.02485 5.76049 0
M  V30 6175 H 571.215 0.246353 5.7277 0
M  V30 6176 H 569.612 1.01517 5.91451 0
M  V30 6177 H 570.682 1.53446 4.59981 0
M  V30 6178 N 572.025 -1.5352 0.356285 0
M  V30 6179 C 573.25 -2.06007 -0.239961 0
M  V30 6180 C 573.675 -1.22872 -1.42422 0
M  V30 6181 O 573.033 -0.245516 -1.7963 0
M  V30 6182 C 573.081 -3.5522 -0.620587 0
M  V30 6183 O 572.185 -3.74864 -1.71902 0
M  V30 6184 H 571.526 -0.662961 -0.0371377 0
M  V30 6185 H 574.056 -1.98033 0.514194 0
M  V30 6186 H 574.066 -3.98081 -0.894197 0
M  V30 6187 H 572.741 -4.15175 0.245407 0
M  V30 6188 H 571.318 -3.43904 -1.44169 0
M  V30 6189 N 573.503 -0.0852151 -1.57369 0
M  V30 6190 C 574.433 0.874556 -2.16503 0
M  V30 6191 C 575.414 1.30111 -1.09568 0
M  V30 6192 O 576.599 1.36977 -1.37662 0
M  V30 6193 C 573.729 2.13731 -2.73745 0
M  V30 6194 C 572.683 1.84971 -3.85966 0
M  V30 6195 C 572.009 3.17991 -4.29867 0
M  V30 6196 C 573.309 1.14442 -5.09608 0
M  V30 6197 H 575.003 0.381899 -2.96954 0
M  V30 6198 H 572.549 0.18225 -1.42842 0
M  V30 6199 H 574.502 2.81302 -3.13763 0
M  V30 6200 H 573.226 2.65263 -1.90534 0
M  V30 6201 H 571.885 1.19801 -3.46473 0
M  V30 6202 H 571.533 3.6739 -3.4356 0
M  V30 6203 H 571.233 2.99534 -5.05523 0
M  V30 6204 H 572.757 3.86737 -4.72511 0
M  V30 6205 H 574.171 1.72105 -5.46857 0
M  V30 6206 H 572.568 1.06197 -5.90629 0
M  V30 6207 H 573.638 0.12559 -4.84737 0
M  V30 6208 N 574.981 1.5647 0.188427 0
M  V30 6209 C 576.258 1.71857 0.934058 0
M  V30 6210 C 576.638 0.641867 2.01105 0
M  V30 6211 O 575.986 -0.346098 2.25864 0
M  V30 6212 C 576.196 3.14431 1.5144 0
M  V30 6213 C 577.544 3.74869 1.99396 0
M  V30 6214 O 578.568 3.17601 1.61269 0
M  V30 6215 O 577.427 4.75387 2.69573 0
M  V30 6216 H 574.521 0.701186 0.438483 0
M  V30 6217 H 577.067 1.68768 0.177599 0
M  V30 6218 H 575.839 3.8427 0.738416 0
M  V30 6219 H 575.462 3.21775 2.33552 0
M  V30 6220 N 576.459 -0.456382 1.50847 0
M  V30 6221 C 577.708 -1.2042 1.61808 0
M  V30 6222 C 578.021 -1.9278 0.330932 0
M  V30 6223 O 579.227 -2.69612 0.319643 0
M  V30 6224 C 577.683 -2.18891 2.85683 0
M  V30 6225 C 577.291 -1.52267 4.2133 0
M  V30 6226 C 579.035 -2.94224 3.05994 0
M  V30 6227 C 576.942 -2.4911 5.36375 0
M  V30 6228 H 575.872 -0.453177 0.602616 0
M  V30 6229 H 578.523 -0.473144 1.77295 0
M  V30 6230 H 576.905 -2.95351 2.63787 0
M  V30 6231 H 578.079 -0.814949 4.53536 0
M  V30 6232 H 576.394 -0.891594 4.06743 0
M  V30 6233 H 578.991 -3.66732 3.89117 0
M  V30 6234 H 579.334 -3.54469 2.18306 0
M  V30 6235 H 579.867 -2.24874 3.28141 0
M  V30 6236 H 576.606 -1.93582 6.26264 0
M  V30 6237 H 576.126 -3.17991 5.08569 0
M  V30 6238 H 577.805 -3.10637 5.67551 0
M  V30 6239 N 577.937 -1.40673 -0.710563 0
M  V30 6240 C 578.869 -1.37256 -1.83558 0
M  V30 6241 C 579.882 -0.277133 -1.60424 0
M  V30 6242 O 581.071 -0.537831 -1.70205 0
M  V30 6243 C 578.171 -1.1144 -3.20054 0
M  V30 6244 C 577.344 -2.32734 -3.70342 0
M  V30 6245 C 576.403 -2.03002 -4.85465 0
M  V30 6246 O 575.429 -2.75912 -4.97857 0
M  V30 6247 N 576.631 -1.01105 -5.71627 0
M  V30 6248 H 579.396 -2.34215 -1.86985 0
M  V30 6249 H 576.957 -1.35091 -0.892301 0
M  V30 6250 H 578.949 -0.895265 -3.94673 0
M  V30 6251 H 577.519 -0.231307 -3.11743 0
M  V30 6252 H 576.739 -2.70446 -2.86798 0
M  V30 6253 H 578.027 -3.13584 -4.00678 0
M  V30 6254 H 577.425 -0.407303 -5.64232 0
M  V30 6255 H 575.982 -0.85182 -6.4621 0
M  V30 6256 N 579.415 0.9433 -1.26252 0
M  V30 6257 C 580.363 2.06302 -1.07434 0
M  V30 6258 C 581.357 1.694 -0.00189471 0
M  V30 6259 O 582.563 1.79302 -0.158408 0
M  V30 6260 H 578.938 0.675453 -0.330556 0
M  V30 6261 H 580.909 2.19326 -2.02333 0
M  V30 6262 C 579.658 3.40125 -0.721817 0
M  V30 6263 H 578.981 3.68996 -1.5389 0
M  V30 6264 H 580.421 4.19295 -0.629922 0
M  V30 6265 C 578.88 3.31993 0.572902 0
M  V30 6266 O 579.41 3.67945 1.61182 0
M  V30 6267 N 577.616 2.85099 0.562748 0
M  V30 6268 H 577.163 2.5604 -0.283092 0
M  V30 6269 H 577.121 2.80041 1.42915 0
M  V30 6270 N 580.893 1.08022 1.14757 0
M  V30 6271 C 582.139 0.808705 1.85978 0
M  V30 6272 C 582.472 -0.663764 1.82504 0
M  V30 6273 O 581.747 -1.48765 1.25296 0
M  V30 6274 C 582.03 1.32623 3.34788 0
M  V30 6275 C 581.883 2.86375 3.46856 0
M  V30 6276 C 583.202 0.948291 4.29762 0
M  V30 6277 H 580.321 0.295244 0.675278 0
M  V30 6278 H 582.963 1.33917 1.34783 0
M  V30 6279 H 581.113 0.875002 3.78518 0
M  V30 6280 H 582.785 3.39839 3.11941 0
M  V30 6281 H 581.028 3.24232 2.88194 0
M  V30 6282 H 581.699 3.17658 4.51439 0
M  V30 6283 H 584.175 1.33722 3.94028 0
M  V30 6284 H 583.051 1.33765 5.32352 0
M  V30 6285 H 583.312 -0.145094 4.41862 0
M  V30 6286 N 582.371 -1.3172 0.865308 0
M  V30 6287 C 583.648 -1.91574 0.394789 0
M  V30 6288 C 584.028 -1.78769 -1.12271 0
M  V30 6289 O 583.376 -1.19245 -1.94918 0
M  V30 6290 C 583.586 -3.37957 0.870982 0
M  V30 6291 C 584.934 -4.15073 0.894384 0
M  V30 6292 O 585.958 -3.4672 0.816325 0
M  V30 6293 O 584.817 -5.37151 1.00651 0
M  V30 6294 H 581.911 -0.818649 0.117229 0
M  V30 6295 H 584.457 -1.4042 0.952913 0
M  V30 6296 H 583.229 -3.41269 1.91444 0
M  V30 6297 H 582.852 -3.96534 0.290907 0
M  V30 6298 N 583.85 -0.624285 -1.44708 0
M  V30 6299 C 584.779 0.0717025 -2.3339 0
M  V30 6300 C 585.76 0.841814 -1.47809 0
M  V30 6301 O 586.946 0.809056 -1.76544 0
M  V30 6302 C 584.076 1.05852 -3.30776 0
M  V30 6303 C 583.029 0.400503 -4.26122 0
M  V30 6304 C 582.356 1.49674 -5.13324 0
M  V30 6305 C 583.656 -0.688924 -5.17737 0
M  V30 6306 H 585.35 -0.668819 -2.91834 0
M  V30 6307 H 582.896 -0.32308 -1.40329 0
M  V30 6308 H 584.849 1.5541 -3.91696 0
M  V30 6309 H 583.572 1.82984 -2.70526 0
M  V30 6310 H 582.231 -0.0743687 -3.66525 0
M  V30 6311 H 581.88 2.25877 -4.49431 0
M  V30 6312 H 581.58 1.06188 -5.77926 0
M  V30 6313 H 583.104 1.99427 -5.77115 0
M  V30 6314 H 584.518 -0.276724 -5.72632 0
M  V30 6315 H 582.915 -1.04652 -5.90904 0
M  V30 6316 H 583.985 -1.55884 -4.5916 0
M  V30 6317 N 585.328 1.53329 -0.364422 0
M  V30 6318 C 586.556 2.05657 0.226424 0
M  V30 6319 C 586.971 1.23801 1.42544 0
M  V30 6320 O 586.328 0.27839 1.80364 0
M  V30 6321 C 586.379 3.56125 0.621056 0
M  V30 6322 O 586.1 4.34879 -0.530304 0
M  V30 6323 C 587.601 4.24706 1.27041 0
M  V30 6324 H 584.821 0.669806 0.0400056 0
M  V30 6325 H 587.365 1.97714 -0.522456 0
M  V30 6326 H 585.52 3.64223 1.31985 0
M  V30 6327 H 585.934 5.24073 -0.211546 0
M  V30 6328 H 587.408 5.3131 1.49711 0
M  V30 6329 H 587.885 3.78354 2.23036 0
M  V30 6330 H 588.491 4.20858 0.613079 0
M  V30 6331 N 586.806 0.0935595 1.57322 0
M  V30 6332 C 587.716 -0.880192 2.17462 0
M  V30 6333 C 588.732 -1.31135 1.14366 0
M  V30 6334 O 589.908 -1.37958 1.46729 0
M  V30 6335 C 586.973 -2.12184 2.74188 0
M  V30 6336 C 586.034 -1.74503 3.92234 0
M  V30 6337 C 585.267 -2.92748 4.46245 0
M  V30 6338 O 585.49 -4.07427 3.99198 0
M  V30 6339 O 584.424 -2.71303 5.37288 0
M  V30 6340 H 588.25 -0.398516 3.01074 0
M  V30 6341 H 585.835 -0.130707 1.48827 0
M  V30 6342 H 587.717 -2.84953 3.10451 0
M  V30 6343 H 586.392 -2.59407 1.93623 0
M  V30 6344 H 585.299 -0.989186 3.60785 0
M  V30 6345 H 586.632 -1.32044 4.74157 0
M  V30 6346 N 588.284 -1.56567 -0.180126 0
M  V30 6347 C 589.7 -1.50488 -0.531559 0
M  V30 6348 C 589.9 -0.796267 -1.851 0
M  V30 6349 O 588.956 -0.352978 -2.50021 0
M  V30 6350 C 590.269 -2.95201 -0.572456 0
M  V30 6351 C 591.817 -3.05957 -0.660264 0
M  V30 6352 C 592.292 -4.5211 -0.732135 0
M  V30 6353 N 593.783 -4.56322 -0.795262 0
M  V30 6354 C 594.518 -5.66742 -0.871296 0
M  V30 6355 N 594.014 -6.86815 -0.908708 0
M  V30 6356 N 595.807 -5.54691 -0.909639 0
M  V30 6357 H 587.958 -2.01045 0.685165 0
M  V30 6358 H 590.221 -0.915536 0.245962 0
M  V30 6359 H 589.927 -3.50165 0.328208 0
M  V30 6360 H 589.801 -3.49369 -1.422 0
M  V30 6361 H 592.188 -2.51032 -1.55136 0
M  V30 6362 H 592.269 -2.54888 0.215783 0
M  V30 6363 H 591.913 -5.07664 0.154664 0
M  V30 6364 H 591.843 -5.00926 -1.6242 0
M  V30 6365 H 594.334 -3.69868 -0.77499 0
M  V30 6366 H 594.647 -7.66718 -0.967654 0
M  V30 6367 H 592.992 -6.89443 -0.877132 0
M  V30 6368 H 596.183 -4.59804 -0.877353 0
M  V30 6369 H 596.356 -6.40768 -0.965434 0
M  V30 6370 N 589.762 0.448376 -1.51087 0
M  V30 6371 C 590.725 1.52588 -1.71025 0
M  V30 6372 C 591.725 1.49958 -0.580442 0
M  V30 6373 O 592.915 1.52176 -0.847833 0
M  V30 6374 C 590.047 2.92163 -1.75652 0
M  V30 6375 H 591.24 1.36218 -2.67179 0
M  V30 6376 H 588.793 0.676313 -1.4091 0
M  V30 6377 H 589.528 3.13951 -0.812724 0
M  V30 6378 H 589.313 2.95478 -2.57751 0
M  V30 6379 H 590.803 3.70349 -1.92953 0
M  V30 6380 N 591.24 1.41047 0.703093 0
M  V30 6381 C 592.17 1.45067 1.82969 0
M  V30 6382 C 593.151 0.31016 1.67248 0
M  V30 6383 O 594.336 0.520548 1.87093 0
M  V30 6384 C 591.466 1.32478 3.2104 0
M  V30 6385 C 590.42 2.44262 3.51454 0
M  V30 6386 C 589.746 2.16742 4.88801 0
M  V30 6387 C 591.046 3.86606 3.51189 0
M  V30 6388 H 592.74 2.39353 1.79863 0
M  V30 6389 H 590.286 1.15206 0.863919 0
M  V30 6390 H 592.239 1.33904 3.99559 0
M  V30 6391 H 590.963 0.346735 3.24754 0
M  V30 6392 H 589.622 2.42107 2.75282 0
M  V30 6393 H 589.27 1.17299 4.89132 0
M  V30 6394 H 588.97 2.91643 5.10116 0
M  V30 6395 H 590.494 2.19872 5.69639 0
M  V30 6396 H 591.908 3.90517 4.19725 0
M  V30 6397 H 590.305 4.61128 3.84033 0
M  V30 6398 H 591.375 4.15296 2.50315 0
M  V30 6399 N 592.718 -0.936591 1.26751 0
M  V30 6400 C 594.134 -1.21095 1.03963 0
M  V30 6401 C 594.334 -2.00156 -0.232372 0
M  V30 6402 O 593.39 -2.3434 -0.940274 0
M  V30 6403 C 594.703 -1.96775 2.27377 0
M  V30 6404 C 596.251 -2.09749 2.32324 0
M  V30 6405 C 596.726 -2.88832 3.55443 0
M  V30 6406 N 598.217 -2.96404 3.55948 0
M  V30 6407 C 598.952 -3.58036 4.47881 0
M  V30 6408 N 598.448 -4.21132 5.50109 0
M  V30 6409 N 600.241 -3.55353 4.35523 0
M  V30 6410 H 592.392 -0.408173 2.08441 0
M  V30 6411 H 594.655 -0.243139 0.91629 0
M  V30 6412 H 594.361 -1.46094 3.19921 0
M  V30 6413 H 594.235 -2.97424 2.31989 0
M  V30 6414 H 596.622 -2.5962 1.40291 0
M  V30 6415 H 596.703 -1.08347 2.31721 0
M  V30 6416 H 596.347 -2.39647 4.47808 0
M  V30 6417 H 596.277 -3.90499 3.53296 0
M  V30 6418 H 598.768 -2.51552 2.82011 0
M  V30 6419 H 599.081 -4.66071 6.16439 0
M  V30 6420 H 597.426 -4.19705 5.53961 0
M  V30 6421 H 600.617 -3.05256 3.54875 0
M  V30 6422 H 600.79 -4.03097 5.07363 0
M  V30 6423 N 594.196 -1.08629 -1.14182 0
M  V30 6424 C 595.159 -0.722027 -2.1753 0
M  V30 6425 C 596.159 0.244305 -1.58933 0
M  V30 6426 O 597.349 0.0235545 -1.74184 0
M  V30 6427 C 594.481 -0.0663966 -3.40835 0
M  V30 6428 H 595.674 -1.63719 -2.51269 0
M  V30 6429 H 593.227 -0.884442 -1.28869 0
M  V30 6430 H 593.962 0.860389 -3.12678 0
M  V30 6431 H 593.747 -0.761598 -3.84632 0
M  V30 6432 H 595.237 0.173346 -4.1724 0
M  V30 6433 N 595.674 1.31259 -0.872281 0
M  V30 6434 C 596.904 2.00504 -0.498183 0
M  V30 6435 C 597.312 1.65632 0.914479 0
M  V30 6436 O 596.655 0.882849 1.61095 0
M  V30 6437 C 596.717 3.5482 -0.578194 0
M  V30 6438 C 596.381 4.13172 -1.95289 0
M  V30 6439 C 597.378 4.30107 -2.92069 0
M  V30 6440 C 595.063 4.48846 -2.25483 0
M  V30 6441 C 597.057 4.81908 -4.17185 0
M  V30 6442 C 594.744 5.00349 -3.50847 0
M  V30 6443 C 595.742 5.16831 -4.46514 0
M  V30 6444 O 595.43 5.67228 -5.69656 0
M  V30 6445 H 595.162 0.648055 -0.192354 0
M  V30 6446 H 597.716 1.6841 -1.17589 0
M  V30 6447 H 595.946 3.86383 0.156438 0
M  V30 6448 H 597.635 4.05318 -0.217192 0
M  V30 6449 H 598.401 4.02862 -2.7005 0
M  V30 6450 H 594.28 4.35292 -1.51795 0
M  V30 6451 H 597.824 4.94688 -4.91863 0
M  V30 6452 H 593.721 5.27028 -3.72708 0
M  V30 6453 H 594.489 5.85592 -5.7186 0
M  V30 6454 N 597.152 0.631951 1.44375 0
M  V30 6455 C 598.563 0.219036 1.85411 0
M  V30 6456 C 598.914 -1.22974 1.52879 0
M  V30 6457 O 598.039 -1.93579 0.967266 0
M  V30 6458 C 598.634 0.39075 3.36539 0
M  V30 6459 C 597.193 0.0323351 3.76386 0
M  V30 6460 C 596.34 0.703744 2.68221 0
M  V30 6461 H 599.291 0.837056 1.3483 0
M  V30 6462 H 599.312 -0.370056 3.78696 0
M  V30 6463 H 598.824 1.44527 3.60185 0
M  V30 6464 H 596.925 -1.02042 3.58355 0
M  V30 6465 H 597.038 0.442969 4.77048 0
M  V30 6466 H 595.402 0.138974 2.54321 0
M  V30 6467 H 596.185 1.76088 2.947 0
M  V30 6468 N 598.631 -1.53133 0.372548 0
M  V30 6469 C 599.879 -2.00958 -0.214534 0
M  V30 6470 C 600.2 -1.26135 -1.48711 0
M  V30 6471 O 599.47 -0.376597 -1.92246 0
M  V30 6472 H 598.05 -0.742456 -0.0822664 0
M  V30 6473 H 600.712 -1.88367 0.500385 0
M  V30 6474 H 599.808 -3.09031 -0.436605 0
M  V30 6475 N 600.109 -0.101901 -1.5727 0
M  V30 6476 C 601.525 0.254739 -1.57554 0
M  V30 6477 C 601.725 1.67937 -1.11352 0
M  V30 6478 O 600.781 2.39722 -0.793081 0
M  V30 6479 C 602.094 0.036975 -3.00677 0
M  V30 6480 C 603.642 0.104199 -3.12827 0
M  V30 6481 C 604.117 -0.0856565 -4.5792 0
M  V30 6482 N 605.608 -0.0310498 -4.6319 0
M  V30 6483 C 606.343 -0.153099 -5.73196 0
M  V30 6484 N 605.839 -0.330364 -6.92012 0
M  V30 6485 N 607.632 -0.0938854 -5.62022 0
M  V30 6486 H 599.783 -1.03263 -1.85609 0
M  V30 6487 H 602.046 -0.405251 -0.857016 0
M  V30 6488 H 601.752 -0.947254 -3.38703 0
M  V30 6489 H 601.626 0.776335 -3.69124 0
M  V30 6490 H 604.013 1.07894 -2.74669 0
M  V30 6491 H 604.094 -0.666762 -2.46957 0
M  V30 6492 H 603.738 -1.05729 -4.96773 0
M  V30 6493 H 603.668 0.705082 -5.21858 0
M  V30 6494 H 606.159 0.103141 -3.77759 0
M  V30 6495 H 606.472 -0.41482 -7.71686 0
M  V30 6496 H 604.817 -0.366119 -6.94035 0
M  V30 6497 H 608.008 0.0435168 -4.6808 0
M  V30 6498 H 608.181 -0.19245 -6.47714 0
M  V30 6499 N 601.587 1.56661 0.17182 0
M  V30 6500 C 602.812 1.86459 0.908165 0
M  V30 6501 C 603.237 0.688181 1.75059 0
M  V30 6502 O 602.595 -0.362753 1.77634 0
M  V30 6503 C 602.643 3.14669 1.76112 0
M  V30 6504 O 601.747 2.96858 2.86268 0
M  V30 6505 H 601.088 0.613318 0.254434 0
M  V30 6506 H 603.618 2.03892 0.170113 0
M  V30 6507 H 603.628 3.46061 2.16115 0
M  V30 6508 H 602.303 3.99905 1.14233 0
M  V30 6509 H 600.88 2.76819 2.49852 0
M  V30 6510 N 603.065 -0.440357 1.51323 0
M  V30 6511 C 603.995 -1.54174 1.75364 0
M  V30 6512 C 604.976 -1.59039 0.603375 0
M  V30 6513 O 606.161 -1.74815 0.845774 0
M  V30 6514 C 603.291 -2.92277 1.87593 0
M  V30 6515 C 602.245 -3.02274 3.03009 0
M  V30 6516 C 601.571 -4.42327 3.00418 0
M  V30 6517 C 602.871 -2.76634 4.43024 0
M  V30 6518 H 604.565 -1.34307 2.67585 0
M  V30 6519 H 602.111 -0.644678 1.28763 0
M  V30 6520 H 604.064 -3.69284 2.02995 0
M  V30 6521 H 602.788 -3.13369 0.920179 0
M  V30 6522 H 601.447 -2.27706 2.87307 0
M  V30 6523 H 601.095 -4.60382 2.02626 0
M  V30 6524 H 600.795 -4.49946 3.77918 0
M  V30 6525 H 602.319 -5.21312 3.17909 0
M  V30 6526 H 603.733 -3.43376 4.59093 0
M  V30 6527 H 602.13 -2.95666 5.22208 0
M  V30 6528 H 603.2 -1.72262 4.5327 0
M  V30 6529 N 604.543 -1.41418 -0.695603 0
M  V30 6530 C 605.79 -1.40774 -1.45564 0
M  V30 6531 C 606.118 -0.0168604 -1.94493 0
M  V30 6532 O 605.373 0.971259 -1.69897 0
M  V30 6533 C 605.672 -2.36112 -2.68302 0
M  V30 6534 C 605.338 -3.82952 -2.38031 0
M  V30 6535 C 604 -4.22954 -2.29486 0
M  V30 6536 C 606.352 -4.75662 -2.13061 0
M  V30 6537 C 603.68 -5.53674 -1.94067 0
M  V30 6538 C 606.032 -6.06702 -1.79151 0
M  V30 6539 C 604.696 -6.45725 -1.69102 0
M  V30 6540 H 603.966 -0.515128 -0.532658 0
M  V30 6541 H 606.613 -1.74216 -0.795047 0
M  V30 6542 H 604.918 -1.95924 -3.39295 0
M  V30 6543 H 606.615 -2.32887 -3.26442 0
M  V30 6544 H 603.205 -3.5127 -2.45576 0
M  V30 6545 H 607.389 -4.45561 -2.18608 0
M  V30 6546 H 602.645 -5.8279 -1.8484 0
M  V30 6547 H 606.819 -6.78041 -1.5885 0
M  V30 6548 H 604.446 -7.46929 -1.41426 0
M  V30 6549 N 606.021 0.929856 -1.27246 0
M  V30 6550 C 606.969 2.05151 -1.09616 0
M  V30 6551 C 607.963 1.69388 -0.0198617 0
M  V30 6552 O 609.169 1.79124 -0.177417 0
M  V30 6553 H 605.544 0.671909 -0.337701 0
M  V30 6554 H 607.515 2.17168 -2.04648 0
M  V30 6555 C 606.264 3.3934 -0.757851 0
M  V30 6556 H 605.587 3.67343 -1.57795 0
M  V30 6557 H 607.027 4.18603 -0.674358 0
M  V30 6558 C 605.486 3.32582 0.537658 0
M  V30 6559 O 606.016 3.69633 1.57271 0
M  V30 6560 N 604.222 2.8568 0.532478 0
M  V30 6561 H 603.769 2.55725 -0.310233 0
M  V30 6562 H 603.727 2.81541 1.39936 0
M  V30 6563 N 607.499 1.09233 1.13605 0
M  V30 6564 C 608.724 0.849067 1.89224 0
M  V30 6565 C 609.149 -0.593875 1.78479 0
M  V30 6566 O 608.507 -1.41703 1.13092 0
M  V30 6567 C 608.555 1.28642 3.36873 0
M  V30 6568 O 607.659 0.44363 4.10007 0
M  V30 6569 H 607 0.30767 0.588417 0
M  V30 6570 H 609.53 1.45595 1.43748 0
M  V30 6571 H 609.54 1.27096 3.87699 0
M  V30 6572 H 608.215 2.33729 3.44011 0
M  V30 6573 H 606.792 0.523241 3.69211 0
M  V30 6574 N 608.977 -1.30795 0.87923 0
M  V30 6575 C 609.94 -2.26563 0.346676 0
M  V30 6576 C 610.94 -1.52578 -0.507597 0
M  V30 6577 O 612.13 -1.71318 -0.315575 0
M  V30 6578 C 609.262 -3.37115 -0.506611 0
M  V30 6579 H 610.455 -2.75183 1.19223 0
M  V30 6580 H 608.008 -1.41886 0.655598 0
M  V30 6581 H 608.743 -2.93802 -1.37299 0
M  V30 6582 H 608.528 -3.91959 0.105218 0
M  V30 6583 H 610.018 -4.08412 -0.871192 0
M  V30 6584 N 610.455 -0.639598 -1.44038 0
M  V30 6585 C 611.402 0.0602458 -2.30721 0
M  V30 6586 C 612.372 0.828352 -1.43971 0
M  V30 6587 O 613.557 0.807693 -1.72861 0
M  V30 6588 C 610.697 1.03008 -3.29368 0
M  V30 6589 C 609.81 0.259502 -4.3122 0
M  V30 6590 C 608.945 1.22191 -5.16955 0
M  V30 6591 C 607.984 0.440978 -6.10509 0
M  V30 6592 N 607.121 1.35428 -6.88915 0
M  V30 6593 H 611.961 -0.684867 -2.90023 0
M  V30 6594 H 609.498 -0.349509 -1.42888 0
M  V30 6595 H 611.456 1.60583 -3.85057 0
M  V30 6596 H 610.086 1.74222 -2.71747 0
M  V30 6597 H 609.138 -0.432317 -3.77935 0
M  V30 6598 H 610.45 -0.348347 -4.97582 0
M  V30 6599 H 609.604 1.86873 -5.77203 0
M  V30 6600 H 608.343 1.86367 -4.50687 0
M  V30 6601 H 607.348 -0.219279 -5.49363 0
M  V30 6602 H 608.573 -0.196192 -6.78817 0
M  V30 6603 H 606.519 1.9831 -6.25307 0
M  V30 6604 H 606.436 0.800657 -7.51748 0
M  V30 6605 H 607.704 1.98967 -7.53679 0
M  V30 6606 N 611.933 1.52934 -0.380664 0
M  V30 6607 C 613.179 2.01765 0.20458 0
M  V30 6608 C 613.512 1.26696 1.47179 0
M  V30 6609 O 612.787 0.364936 1.91046 0
M  V30 6610 C 613.07 3.56869 0.481269 0
M  V30 6611 C 612.923 4.42617 -0.800629 0
M  V30 6612 C 614.242 4.2121 1.27554 0
M  V30 6613 H 611.361 0.733388 0.0728803 0
M  V30 6614 H 614.003 1.83068 -0.50853 0
M  V30 6615 H 612.153 3.72932 1.08875 0
M  V30 6616 H 613.825 4.38323 -1.43773 0
M  V30 6617 H 612.068 4.09977 -1.4178 0
M  V30 6618 H 612.739 5.49134 -0.561791 0
M  V30 6619 H 615.215 4.09072 0.761514 0
M  V30 6620 H 614.091 5.29732 1.43788 0
M  V30 6621 H 614.352 3.78269 2.28833 0
M  V30 6622 N 613.412 0.11024 1.57214 0
M  V30 6623 C 614.689 -0.592956 1.86396 0
M  V30 6624 C 615.069 -1.85379 1.00985 0
M  V30 6625 O 614.417 -2.28337 0.0863592 0
M  V30 6626 C 614.627 -0.893816 3.3736 0
M  V30 6627 C 615.975 -1.25069 4.05762 0
M  V30 6628 O 616.999 -0.984356 3.42329 0
M  V30 6629 O 615.858 -1.75017 5.17718 0
M  V30 6630 H 612.952 -0.29828 0.771335 0
M  V30 6631 H 615.498 0.144083 1.69087 0
M  V30 6632 H 614.27 2.6031e-05 3.913 0
M  V30 6633 H 613.893 -1.68631 3.60068 0
M  V30 6634 N 614.89 -1.56749 -0.16351 0
M  V30 6635 C 615.8 -2.00255 -1.2221 0
M  V30 6636 C 616.816 -0.915194 -1.47987 0
M  V30 6637 O 617.992 -1.22342 -1.59982 0
M  V30 6638 C 615.057 -2.36035 -2.53946 0
M  V30 6639 C 614.118 -3.58637 -2.35962 0
M  V30 6640 C 613.351 -3.92701 -3.61416 0
M  V30 6641 O 613.574 -3.27632 -4.66919 0
M  V30 6642 O 612.508 -4.86019 -3.55062 0
M  V30 6643 H 616.334 -2.90586 -0.882794 0
M  V30 6644 H 613.919 -1.44721 -0.370978 0
M  V30 6645 H 615.801 -2.59982 -3.31643 0
M  V30 6646 H 614.476 -1.48863 -2.8744 0
M  V30 6647 H 613.383 -3.39898 -1.5627 0
M  V30 6648 H 614.716 -4.46374 -2.0739 0
M  V30 6649 N 616.368 0.432326 -1.51554 0
M  V30 6650 C 617.278 1.55023 -1.76082 0
M  V30 6651 C 618.294 1.61593 -0.645265 0
M  V30 6652 O 619.47 1.78742 -0.928086 0
M  V30 6653 C 616.535 2.90964 -1.88523 0
M  V30 6654 C 615.596 2.9447 -3.12388 0
M  V30 6655 C 614.829 4.23926 -3.24225 0
M  V30 6656 O 615.052 5.16576 -2.4188 0
M  V30 6657 O 613.986 4.33818 -4.17235 0
M  V30 6658 H 617.812 1.37238 -2.70923 0
M  V30 6659 H 615.397 0.615845 -1.36117 0
M  V30 6660 H 617.279 3.71633 -1.98662 0
M  V30 6661 H 615.954 3.08865 -0.9687 0
M  V30 6662 H 614.861 2.12737 -3.07723 0
M  V30 6663 H 616.194 2.81514 -4.03746 0
M  V30 6664 N 617.846 1.41785 0.688094 0
M  V30 6665 C 618.756 1.46596 1.83158 0
M  V30 6666 C 619.772 0.355862 1.70322 0
M  V30 6667 O 620.948 0.604737 1.92106 0
M  V30 6668 C 618.013 1.35322 3.192 0
M  V30 6669 C 617.074 2.56711 3.4409 0
M  V30 6670 C 616.307 2.45965 4.73642 0
M  V30 6671 O 616.53 1.48827 5.50642 0
M  V30 6672 O 615.464 3.35859 4.99482 0
M  V30 6673 H 619.29 2.43083 1.82056 0
M  V30 6674 H 616.875 1.23404 0.842126 0
M  V30 6675 H 618.757 1.31347 4.00407 0
M  V30 6676 H 617.432 0.419536 3.2097 0
M  V30 6677 H 616.339 2.66262 2.62784 0
M  V30 6678 H 617.672 3.48933 3.47141 0
M  V30 6679 N 619.324 -0.923095 1.27737 0
M  V30 6680 C 620.254 -2.04124 1.13383 0
M  V30 6681 C 621.235 -1.70066 0.0340658 0
M  V30 6682 O 622.42 -1.93068 0.209383 0
M  V30 6683 C 619.55 -3.3831 0.785097 0
M  V30 6684 C 618.504 -3.86496 1.8386 0
M  V30 6685 C 617.83 -5.1754 1.34373 0
M  V30 6686 C 619.13 -4.09381 3.24353 0
M  V30 6687 H 620.824 -2.1639 2.06919 0
M  V30 6688 H 618.37 -1.03976 0.996243 0
M  V30 6689 H 620.323 -4.16016 0.671485 0
M  V30 6690 H 619.047 -3.2607 -0.185969 0
M  V30 6691 H 617.706 -3.10987 1.9412 0
M  V30 6692 H 617.354 -5.01696 0.361989 0
M  V30 6693 H 617.054 -5.50751 2.04811 0
M  V30 6694 H 618.578 -5.97811 1.24315 0
M  V30 6695 H 619.992 -4.77641 3.17067 0
M  V30 6696 H 618.389 -4.53906 3.92542 0
M  V30 6697 H 619.459 -3.14515 3.69064 0
M  V30 6698 N 620.802 -1.09834 -1.13024 0
M  V30 6699 C 621.712 -0.753731 -2.22162 0
M  V30 6700 C 622.728 0.246105 -1.72251 0
M  V30 6701 O 623.904 0.0864051 -2.01215 0
M  V30 6702 C 620.969 -0.183958 -3.46212 0
M  V30 6703 C 620.03 -1.24028 -4.10993 0
M  V30 6704 C 619.263 -0.697597 -5.29121 0
M  V30 6705 O 619.486 0.478092 -5.68393 0
M  V30 6706 O 618.42 -1.4546 -5.84059 0
M  V30 6707 H 622.246 -1.66456 -2.5402 0
M  V30 6708 H 619.831 -0.873026 -1.21238 0
M  V30 6709 H 621.713 0.130257 -4.21199 0
M  V30 6710 H 620.388 0.699823 -3.16045 0
M  V30 6711 H 619.295 -1.60725 -3.37814 0
M  V30 6712 H 620.628 -2.09685 -4.45301 0
M  V30 6713 N 622.28 1.30327 -0.886154 0
M  V30 6714 C 623.213 2.26241 -0.298407 0
M  V30 6715 C 624.191 1.51839 0.581704 0
M  V30 6716 O 625.375 1.80851 0.531536 0
M  V30 6717 C 622.502 3.33768 0.575888 0
M  V30 6718 C 621.548 4.25852 -0.235057 0
M  V30 6719 S 622.381 5.10277 -1.62411 0
M  V30 6720 C 623.537 6.21313 -0.756368 0
M  V30 6721 H 623.77 2.75744 -1.11141 0
M  V30 6722 H 621.303 1.38341 -0.685651 0
M  V30 6723 H 623.261 3.96186 1.07458 0
M  V30 6724 H 621.922 2.82986 1.363 0
M  V30 6725 H 621.115 5.02143 0.432198 0
M  V30 6726 H 620.717 3.68015 -0.666409 0
M  V30 6727 H 623.009 6.77495 0.0261451 0
M  V30 6728 H 623.952 6.92226 -1.49093 0
M  V30 6729 H 624.36 5.63611 -0.316749 0
M  V30 6730 N 623.758 0.647228 1.43697 0
M  V30 6731 C 624.705 -0.0480092 2.3075 0
M  V30 6732 C 625.675 -0.820705 1.44408 0
M  V30 6733 O 626.86 -0.798515 1.73287 0
M  V30 6734 C 624 -1.01259 3.2991 0
M  V30 6735 C 623.113 -0.236629 4.31351 0
M  V30 6736 C 622.248 -1.19447 5.17596 0
M  V30 6737 C 621.287 -0.408595 6.10735 0
M  V30 6738 N 620.424 -1.31772 6.89623 0
M  V30 6739 H 625.264 0.700238 2.89656 0
M  V30 6740 H 622.801 0.357082 1.427 0
M  V30 6741 H 624.759 -1.58538 3.85903 0
M  V30 6742 H 623.389 -1.72778 2.72667 0
M  V30 6743 H 622.441 0.452353 3.77701 0
M  V30 6744 H 623.753 0.374731 4.9739 0
M  V30 6745 H 622.907 -1.83809 5.78186 0
M  V30 6746 H 621.646 -1.83975 4.51669 0
M  V30 6747 H 620.651 0.24841 5.49239 0
M  V30 6748 H 621.876 0.232188 6.78703 0
M  V30 6749 H 619.822 -1.94991 6.2635 0
M  V30 6750 H 619.739 -0.760779 7.52162 0
M  V30 6751 H 621.007 -1.94967 7.54724 0
M  V30 6752 N 625.236 -1.5273 0.388769 0
M  V30 6753 C 626.485 -2.00757 -0.194833 0
M  V30 6754 C 626.798 -1.27951 -1.47946 0
M  V30 6755 O 628.004 -1.66686 -2.14308 0
M  V30 6756 C 626.46 -3.57695 -0.397762 0
M  V30 6757 C 626.068 -4.394 0.873583 0
M  V30 6758 C 627.812 -4.14012 -0.937759 0
M  V30 6759 C 625.719 -5.87938 0.638962 0
M  V30 6760 H 624.649 -0.750101 -0.0765845 0
M  V30 6761 H 627.3 -1.76239 0.511086 0
M  V30 6762 H 625.682 -3.7846 -1.16552 0
M  V30 6763 H 626.856 -4.30403 1.64591 0
M  V30 6764 H 625.171 -3.94301 1.33849 0
M  V30 6765 H 627.768 -5.22645 -1.12899 0
M  V30 6766 H 628.111 -3.7007 -1.90666 0
M  V30 6767 H 628.644 -3.97137 -0.229588 0
M  V30 6768 H 625.383 -6.36202 1.57885 0
M  V30 6769 H 624.903 -5.99726 -0.094443 0
M  V30 6770 H 626.582 -6.46423 0.273299 0
M  V30 6771 N 626.714 -0.118576 -1.57153 0
M  V30 6772 C 627.662 0.849114 -2.16547 0
M  V30 6773 C 628.656 1.27567 -1.11458 0
M  V30 6774 O 629.862 1.24746 -1.29763 0
M  V30 6775 H 626.237 0.291935 -0.693021 0
M  V30 6776 H 628.208 0.323693 -2.96639 0
M  V30 6777 C 626.957 2.08951 -2.77912 0
M  V30 6778 H 626.28 1.77021 -3.58474 0
M  V30 6779 H 627.72 2.74666 -3.23008 0
M  V30 6780 C 626.179 2.87899 -1.74974 0
M  V30 6781 O 626.709 3.83268 -1.20285 0
M  V30 6782 N 624.915 2.51884 -1.44924 0
M  V30 6783 H 624.462 1.74397 -1.89587 0
M  V30 6784 H 624.42 3.05003 -0.762921 0
M  V30 6785 N 628.193 1.56834 0.155195 0
M  V30 6786 C 629.123 2.00678 1.19376 0
M  V30 6787 C 630.104 0.884973 1.45266 0
M  V30 6788 O 631.289 1.1522 1.56326 0
M  V30 6789 C 628.419 2.38042 2.5289 0
M  V30 6790 C 627.373 3.53332 2.41538 0
M  V30 6791 C 626.699 3.76485 3.79688 0
M  V30 6792 C 627.999 4.86265 1.9064 0
M  V30 6793 H 629.693 2.87688 0.829232 0
M  V30 6794 H 627.239 1.38407 0.397445 0
M  V30 6795 H 629.192 2.67314 3.25763 0
M  V30 6796 H 627.916 1.4796 2.91162 0
M  V30 6797 H 626.575 3.24213 1.71117 0
M  V30 6798 H 626.223 2.83667 4.15382 0
M  V30 6799 H 625.923 4.54068 3.72956 0
M  V30 6800 H 627.447 4.08174 4.54122 0
M  V30 6801 H 628.861 5.14308 2.53299 0
M  V30 6802 H 627.258 5.67597 1.94818 0
M  V30 6803 H 628.328 4.77184 0.861596 0
M  V30 6804 N 629.671 -0.424282 1.51781 0
M  V30 6805 C 630.601 -1.52305 1.7699 0
M  V30 6806 C 631.582 -1.5839 0.620209 0
M  V30 6807 O 632.767 -1.73908 0.864268 0
M  V30 6808 C 629.897 -2.90271 1.90683 0
M  V30 6809 C 628.851 -2.99043 3.06198 0
M  V30 6810 C 628.177 -4.39116 3.05092 0
M  V30 6811 C 629.477 -2.7192 4.45934 0
M  V30 6812 H 631.171 -1.31461 2.68995 0
M  V30 6813 H 628.717 -0.630985 1.29439 0
M  V30 6814 H 630.67 -3.6711 2.06901 0
M  V30 6815 H 629.394 -3.12376 0.953365 0
M  V30 6816 H 628.053 -2.24646 2.89706 0
M  V30 6817 H 627.701 -4.58207 2.07498 0
M  V30 6818 H 627.401 -4.45912 3.82669 0
M  V30 6819 H 628.925 -5.17911 3.2342 0
M  V30 6820 H 630.339 -3.38487 4.62709 0
M  V30 6821 H 628.736 -2.90111 5.25315 0
M  V30 6822 H 629.806 -1.67445 4.55072 0
M  V30 6823 N 631.149 -1.42148 -0.680565 0
M  V30 6824 C 632.096 -1.45175 -1.79424 0
M  V30 6825 C 633.066 -0.304352 -1.63288 0
M  V30 6826 O 634.251 -0.507591 -1.83924 0
M  V30 6827 C 631.391 -1.35429 -3.17416 0
M  V30 6828 C 630.504 -2.60158 -3.4488 0
M  V30 6829 C 629.639 -2.42596 -4.72568 0
M  V30 6830 C 628.678 -3.62727 -4.93047 0
M  V30 6831 N 627.815 -3.44143 -6.11973 0
M  V30 6832 H 632.655 -2.40349 -1.76172 0
M  V30 6833 H 630.192 -1.19334 -0.860107 0
M  V30 6834 H 632.15 -1.27777 -3.97151 0
M  V30 6835 H 630.78 -0.438536 -3.19807 0
M  V30 6836 H 629.832 -2.78199 -2.5944 0
M  V30 6837 H 631.144 -3.49473 -3.55908 0
M  V30 6838 H 630.298 -2.32497 -5.60384 0
M  V30 6839 H 629.037 -1.50761 -4.63813 0
M  V30 6840 H 628.042 -3.73264 -4.03676 0
M  V30 6841 H 629.267 -4.55534 -5.03652 0
M  V30 6842 H 627.213 -2.5502 -6.04401 0
M  V30 6843 H 627.13 -4.27041 -6.23836 0
M  V30 6844 H 628.398 -3.37845 -7.02482 0
M  V30 6845 N 632.627 0.916307 -1.28225 0
M  V30 6846 C 633.574 2.01841 -1.11932 0
M  V30 6847 C 634.544 1.66091 -0.0171604 0
M  V30 6848 O 635.729 1.89934 -0.181617 0
M  V30 6849 C 632.869 3.36065 -0.784504 0
M  V30 6850 C 631.982 3.847 -1.96544 0
M  V30 6851 C 631.117 5.07423 -1.57149 0
M  V30 6852 C 630.156 5.48384 -2.71922 0
M  V30 6853 N 629.293 6.62298 -2.33037 0
M  V30 6854 H 634.133 2.1511 -2.06232 0
M  V30 6855 H 631.67 1.05366 -1.02647 0
M  V30 6856 H 633.628 4.13272 -0.571148 0
M  V30 6857 H 632.258 3.22571 0.121565 0
M  V30 6858 H 631.31 3.03673 -2.291 0
M  V30 6859 H 632.622 4.1102 -2.82603 0
M  V30 6860 H 631.776 5.92165 -1.32004 0
M  V30 6861 H 630.515 4.82906 -0.682153 0
M  V30 6862 H 629.52 4.62184 -2.97768 0
M  V30 6863 H 630.745 5.7489 -3.61494 0
M  V30 6864 H 628.691 6.39416 -1.4657 0
M  V30 6865 H 628.608 6.8833 -3.12631 0
M  V30 6866 H 629.876 7.50352 -2.11169 0
M  V30 6867 N 634.105 1.10431 1.1244 0
M  V30 6868 C 635.335 0.867612 1.87499 0
M  V30 6869 C 635.743 -0.585475 1.79913 0
M  V30 6870 O 635.086 -1.41539 1.171 0
M  V30 6871 C 635.148 1.2374 3.37533 0
M  V30 6872 C 634.812 2.69751 3.68895 0
M  V30 6873 C 635.809 3.67988 3.67261 0
M  V30 6874 C 633.494 3.06135 3.98229 0
M  V30 6875 C 635.488 5.00632 3.9452 0
M  V30 6876 C 633.175 4.38967 4.25149 0
M  V30 6877 C 634.173 5.36025 4.23281 0
M  V30 6878 O 633.861 6.66465 4.49533 0
M  V30 6879 H 633.593 0.311196 0.600111 0
M  V30 6880 H 636.147 1.47257 1.43194 0
M  V30 6881 H 634.377 0.575537 3.82393 0
M  V30 6882 H 636.066 0.978187 3.93937 0
M  V30 6883 H 636.832 3.41224 3.44661 0
M  V30 6884 H 632.711 2.31214 3.98825 0
M  V30 6885 H 636.255 5.7638 3.92978 0
M  V30 6886 H 632.152 4.6547 4.47223 0
M  V30 6887 H 632.92 6.72095 4.67152 0
M  V30 6888 N 635.583 -1.29855 0.893053 0
M  V30 6889 C 636.831 -1.9544 0.514566 0
M  V30 6890 C 637.152 -1.70795 -0.940959 0
M  V30 6891 O 636.422 -1.03601 -1.66264 0
M  V30 6892 H 635.002 -0.723137 0.187302 0
M  V30 6893 H 637.664 -1.58234 1.13789 0
M  V30 6894 H 636.76 -3.04341 0.691581 0
M  V30 6895 N 637.061 -0.65484 -1.43351 0
M  V30 6896 C 638.309 -0.168559 -2.01396 0
M  V30 6897 C 638.63 1.22235 -1.51933 0
M  V30 6898 O 637.9 1.81685 -0.732627 0
M  V30 6899 H 636.48 -0.0593244 -0.744641 0
M  V30 6900 H 639.142 -0.846871 -1.75539 0
M  V30 6901 H 638.238 -0.154428 -3.11718 0
M  V30 6902 N 638.539 1.52521 -0.396863 0
M  V30 6903 C 639.767 2.06091 0.18275 0
M  V30 6904 C 640.182 1.26796 1.39886 0
M  V30 6905 O 639.539 0.316585 1.79733 0
M  V30 6906 C 639.59 3.57362 0.545377 0
M  V30 6907 O 639.311 4.33656 -0.622428 0
M  V30 6908 C 640.812 4.27305 1.18004 0
M  V30 6909 H 638.032 0.670504 0.025789 0
M  V30 6910 H 640.576 1.96561 -0.564276 0
M  V30 6911 H 638.731 3.66941 1.2423 0
M  V30 6912 H 639.145 5.23507 -0.322662 0
M  V30 6913 H 640.619 5.34366 1.38408 0
M  V30 6914 H 641.096 3.83 2.1496 0
M  V30 6915 H 641.702 4.22064 0.523671 0
M  V30 6916 N 640.017 0.126909 1.57088 0
M  V30 6917 C 640.947 -0.816847 2.18746 0
M  V30 6918 C 641.928 -1.27161 1.12979 0
M  V30 6919 O 643.113 -1.33279 1.41246 0
M  V30 6920 C 640.243 -2.06398 2.79315 0
M  V30 6921 C 639.197 -1.74673 3.90735 0
M  V30 6922 C 638.523 -3.06482 4.38147 0
M  V30 6923 C 639.823 -1.0089 5.12463 0
M  V30 6924 H 641.517 -0.303032 2.97863 0
M  V30 6925 H 639.063 -0.144314 1.43275 0
M  V30 6926 H 641.016 -2.72885 3.2111 0
M  V30 6927 H 639.74 -2.60118 1.975 0
M  V30 6928 H 638.399 -1.10572 3.49527 0
M  V30 6929 H 638.047 -3.58152 3.5318 0
M  V30 6930 H 637.747 -2.86025 5.13287 0
M  V30 6931 H 639.271 -3.74073 4.82599 0
M  V30 6932 H 640.685 -1.57546 5.51228 0
M  V30 6933 H 639.082 -0.905006 5.93237 0
M  V30 6934 H 640.152 0.00297335 4.849 0
M  V30 6935 N 641.495 -1.56914 -0.146875 0
M  V30 6936 C 642.744 -1.82546 -0.857898 0
M  V30 6937 C 643.057 -0.708169 -1.8233 0
M  V30 6938 O 644.263 -0.850093 -2.57848 0
M  V30 6939 C 642.719 -3.23548 -1.57623 0
M  V30 6940 C 642.327 -4.43212 -0.653224 0
M  V30 6941 C 644.071 -3.58453 -2.27402 0
M  V30 6942 C 641.978 -5.75237 -1.37318 0
M  V30 6943 H 640.908 -0.680786 -0.32411 0
M  V30 6944 H 643.559 -1.83166 -0.110639 0
M  V30 6945 H 641.941 -3.17315 -2.36912 0
M  V30 6946 H 643.115 -4.60682 0.104452 0
M  V30 6947 H 641.43 -4.16351 -0.0638336 0
M  V30 6948 H 644.027 -4.54349 -2.81907 0
M  V30 6949 H 644.37 -2.84516 -3.03901 0
M  V30 6950 H 644.903 -3.66347 -1.55032 0
M  V30 6951 H 641.642 -6.52269 -0.650041 0
M  V30 6952 H 641.162 -5.61703 -2.10357 0
M  V30 6953 H 642.841 -6.18039 -1.91406 0
M  V30 6954 N 642.974 0.416227 -1.52004 0
M  V30 6955 C 644.22 1.16555 -1.6596 0
M  V30 6956 C 644.553 1.90347 -0.384906 0
M  V30 6957 O 643.828 1.84474 0.616405 0
M  V30 6958 C 644.111 2.1657 -2.87696 0
M  V30 6959 C 643.964 1.46722 -4.25197 0
M  V30 6960 C 645.283 3.17321 -3.04951 0
M  V30 6961 H 642.402 0.422369 -0.603965 0
M  V30 6962 H 645.044 0.452141 -1.84542 0
M  V30 6963 H 643.194 2.77411 -2.71985 0
M  V30 6964 H 644.866 0.89056 -4.52622 0
M  V30 6965 H 643.109 0.769263 -4.26925 0
M  V30 6966 H 643.78 2.19665 -5.0641 0
M  V30 6967 H 646.256 2.66552 -3.19514 0
M  V30 6968 H 645.132 3.84573 -3.91656 0
M  V30 6969 H 645.393 3.84643 -2.17951 0
M  V30 6970 N 644.452 1.42507 0.673017 0
M  V30 6971 C 645.382 1.48916 1.79851 0
M  V30 6972 C 646.363 0.345566 1.66553 0
M  V30 6973 O 647.548 0.560116 1.85947 0
M  V30 6974 C 644.678 1.39258 3.18158 0
M  V30 6975 C 643.632 2.51662 3.46194 0
M  V30 6976 C 642.958 2.27062 4.84094 0
M  V30 6977 C 644.258 3.93968 3.42909 0
M  V30 6978 H 645.952 2.43114 1.74745 0
M  V30 6979 H 643.498 1.17013 0.839288 0
M  V30 6980 H 645.451 1.42349 3.96629 0
M  V30 6981 H 644.175 0.415542 3.23946 0
M  V30 6982 H 642.834 2.47891 2.70084 0
M  V30 6983 H 642.482 1.27648 4.86534 0
M  V30 6984 H 642.182 3.02398 5.03815 0
M  V30 6985 H 643.706 2.31905 5.64847 0
M  V30 6986 H 645.12 3.99332 4.11347 0
M  V30 6987 H 643.517 4.6917 3.74165 0
M  V30 6988 H 644.587 4.20512 2.41449 0
M  V30 6989 N 645.93 -0.909495 1.28709 0
M  V30 6990 C 646.86 -2.0291 1.15542 0
M  V30 6991 C 647.841 -1.7002 0.0521017 0
M  V30 6992 O 649.026 -1.92835 0.229849 0
M  V30 6993 C 646.156 -3.37458 0.820935 0
M  V30 6994 C 645.11 -3.84524 1.87949 0
M  V30 6995 C 644.436 -5.16086 1.39854 0
M  V30 6996 C 645.736 -4.05918 3.28676 0
M  V30 6997 H 647.43 -2.14183 2.09203 0
M  V30 6998 H 644.976 -1.02913 1.00722 0
M  V30 6999 H 646.929 -4.1528 0.715571 0
M  V30 7000 H 645.653 -3.26249 -0.151374 0
M  V30 7001 H 644.312 -3.08911 1.97408 0
M  V30 7002 H 643.96 -5.01284 0.41518 0
M  V30 7003 H 643.66 -5.48547 2.1064 0
M  V30 7004 H 645.184 -5.96459 1.30649 0
M  V30 7005 H 646.598 -4.74252 3.22115 0
M  V30 7006 H 644.995 -4.49717 3.97334 0
M  V30 7007 H 646.065 -3.10583 3.72379 0
M  V30 7008 N 647.408 -1.11026 -1.11852 0
M  V30 7009 C 648.341 -0.708501 -2.16923 0
M  V30 7010 C 649.319 0.293196 -1.59935 0
M  V30 7011 O 650.503 0.190641 -1.87533 0
M  V30 7012 C 647.63 -0.0463705 -3.38668 0
M  V30 7013 C 646.676 -1.01252 -4.14307 0
M  V30 7014 S 647.509 -2.53291 -4.71809 0
M  V30 7015 C 648.665 -1.88366 -5.96883 0
M  V30 7016 H 648.898 -1.59854 -2.50667 0
M  V30 7017 H 646.431 -0.927869 -1.2341 0
M  V30 7018 H 648.389 0.329314 -4.09177 0
M  V30 7019 H 647.05 0.820562 -3.03192 0
M  V30 7020 H 646.243 -0.496596 -5.01548 0
M  V30 7021 H 645.845 -1.33042 -3.49537 0
M  V30 7022 H 648.137 -1.21753 -6.6647 0
M  V30 7023 H 649.08 -2.73588 -6.53112 0
M  V30 7024 H 649.488 -1.34562 -5.48227 0
M  V30 7025 N 648.886 1.2938 -0.899927 0
M  V30 7026 C 650.134 1.95164 -0.524924 0
M  V30 7027 C 650.455 1.71292 0.931888 0
M  V30 7028 O 649.725 1.04481 1.65712 0
M  V30 7029 H 648.305 0.722133 -0.191135 0
M  V30 7030 H 650.967 1.57628 -1.14627 0
M  V30 7031 H 650.063 3.0397 -0.707711 0
M  V30 7032 N 650.364 0.662433 1.43002 0
M  V30 7033 C 651.311 -0.0235324 2.30788 0
M  V30 7034 C 652.281 -0.805342 1.4527 0
M  V30 7035 O 653.466 -0.78009 1.74124 0
M  V30 7036 C 650.606 -0.977545 3.30965 0
M  V30 7037 C 649.719 -0.190865 4.31578 0
M  V30 7038 C 648.854 -1.13951 5.18834 0
M  V30 7039 C 647.893 -0.343796 6.11134 0
M  V30 7040 N 647.03 -1.2445 6.90982 0
M  V30 7041 H 651.87 0.730921 2.88897 0
M  V30 7042 H 649.407 0.372197 1.42313 0
M  V30 7043 H 651.365 -1.54437 3.87563 0
M  V30 7044 H 649.995 -1.69877 2.74484 0
M  V30 7045 H 649.047 0.492388 3.772 0
M  V30 7046 H 650.359 0.427464 4.96965 0
M  V30 7047 H 649.513 -1.77666 5.80103 0
M  V30 7048 H 648.252 -1.79174 4.53595 0
M  V30 7049 H 647.257 0.30665 5.48944 0
M  V30 7050 H 648.482 0.304161 6.78419 0
M  V30 7051 H 646.428 -1.88336 6.28383 0
M  V30 7052 H 646.345 -0.680959 7.52927 0
M  V30 7053 H 647.613 -1.86952 7.56749 0
M  V30 7054 N 651.842 -1.52309 0.404946 0
M  V30 7055 C 653.119 -1.94237 -0.230544 0
M  V30 7056 C 653.499 -1.34154 -1.6299 0
M  V30 7057 O 652.847 -0.515713 -2.22604 0
M  V30 7058 C 653.057 -3.48166 -0.241106 0
M  V30 7059 C 654.405 -4.22074 -0.462488 0
M  V30 7060 O 655.429 -3.54754 -0.320644 0
M  V30 7061 O 654.288 -5.41443 -0.741708 0
M  V30 7062 H 651.382 -0.813766 -0.147358 0
M  V30 7063 H 653.928 -1.6333 0.460587 0
M  V30 7064 H 652.7 -3.84269 0.738467 0
M  V30 7065 H 652.323 -3.85422 -0.97651 0
M  V30 7066 N 653.32 -0.135238 -1.57019 0
M  V30 7067 C 654.566 0.519563 -1.96032 0
M  V30 7068 C 654.899 1.65284 -1.01955 0
M  V30 7069 O 654.174 1.94408 -0.059727 0
M  V30 7070 C 654.457 1.0369 -3.44848 0
M  V30 7071 C 654.31 -0.0940754 -4.49702 0
M  V30 7072 C 655.629 1.92254 -3.95887 0
M  V30 7073 H 652.748 0.18739 -0.712779 0
M  V30 7074 H 655.39 -0.214086 -1.8879 0
M  V30 7075 H 653.54 1.66209 -3.5115 0
M  V30 7076 H 655.212 -0.73 -4.55487 0
M  V30 7077 H 653.455 -0.754924 -4.27181 0
M  V30 7078 H 654.126 0.309419 -5.51132 0
M  V30 7079 H 656.602 1.39581 -3.9199 0
M  V30 7080 H 655.478 2.25364 -5.00502 0
M  V30 7081 H 655.739 2.85513 -3.37543 0
M  V30 7082 N 654.798 1.5699 0.138552 0
M  V30 7083 C 656.209 1.73171 0.697754 0
M  V30 7084 C 656.56 0.750952 1.8126 0
M  V30 7085 O 655.685 -0.080549 2.1625 0
M  V30 7086 C 656.28 3.13996 1.27248 0
M  V30 7087 C 654.839 3.3175 1.77816 0
M  V30 7088 C 653.986 2.69084 0.669991 0
M  V30 7089 H 656.937 1.5846 -0.0871979 0
M  V30 7090 H 656.958 3.14463 2.14227 0
M  V30 7091 H 656.47 3.85354 0.460855 0
M  V30 7092 H 654.571 2.65403 2.61519 0
M  V30 7093 H 654.684 4.39768 1.90107 0
M  V30 7094 H 653.048 2.29782 1.09874 0
M  V30 7095 H 653.831 3.43053 -0.130329 0
M  V30 7096 N 656.276 -0.40816 1.52223 0
M  V30 7097 C 657.223 -1.49737 1.75635 0
M  V30 7098 C 658.193 -1.5493 0.598824 0
M  V30 7099 O 659.378 -1.71487 0.83648 0
M  V30 7100 C 656.518 -2.87174 1.91376 0
M  V30 7101 C 655.631 -2.91283 3.19027 0
M  V30 7102 C 654.766 -4.20026 3.25195 0
M  V30 7103 C 653.805 -4.18113 4.47044 0
M  V30 7104 N 652.942 -5.38429 4.50598 0
M  V30 7105 H 657.782 -1.29075 2.68596 0
M  V30 7106 H 655.319 -0.626518 1.33091 0
M  V30 7107 H 657.277 -3.66959 1.98486 0
M  V30 7108 H 655.907 -3.06329 1.01795 0
M  V30 7109 H 654.959 -2.03984 3.21084 0
M  V30 7110 H 656.271 -2.85734 4.08849 0
M  V30 7111 H 655.425 -5.08204 3.31382 0
M  V30 7112 H 654.164 -4.28271 2.33313 0
M  V30 7113 H 653.169 -3.28325 4.41002 0
M  V30 7114 H 654.394 -4.11507 5.40221 0
M  V30 7115 H 652.34 -5.4734 3.616 0
M  V30 7116 H 652.257 -5.34879 5.34266 0
M  V30 7117 H 653.525 -6.28557 4.61016 0
M  V30 7118 N 657.755 -1.42862 -0.66545 0
M  V30 7119 C 658.98 -1.47456 -1.45848 0
M  V30 7120 C 659.405 -0.0900312 -1.87884 0
M  V30 7121 O 658.763 0.913587 -1.56599 0
M  V30 7122 C 658.811 -2.41514 -2.67774 0
M  V30 7123 O 657.915 -1.89296 -3.66389 0
M  V30 7124 H 657.256 -0.499236 -0.437789 0
M  V30 7125 H 659.786 -1.8765 -0.815394 0
M  V30 7126 H 659.796 -2.58409 -3.15735 0
M  V30 7127 H 658.471 -3.42099 -2.36519 0
M  V30 7128 H 657.048 -1.82003 -3.25468 0
M  V30 7129 N 659.233 0.902656 -1.29189 0
M  V30 7130 C 660.48 1.65287 -1.16989 0
M  V30 7131 C 660.808 1.92485 0.279232 0
M  V30 7132 O 660.063 1.53143 1.21843 0
M  V30 7133 C 660.362 3.011 -1.92545 0
M  V30 7134 C 660.028 2.93521 -3.42281 0
M  V30 7135 C 658.69 2.91161 -3.83117 0
M  V30 7136 C 661.042 2.82947 -4.3771 0
M  V30 7137 C 658.37 2.76043 -5.17704 0
M  V30 7138 C 660.722 2.69368 -5.72384 0
M  V30 7139 C 659.386 2.65373 -6.12482 0
M  V30 7140 H 658.656 0.604828 -0.428094 0
M  V30 7141 H 661.303 1.05084 -1.60092 0
M  V30 7142 H 659.608 3.65153 -1.42024 0
M  V30 7143 H 661.305 3.58073 -1.80512 0
M  V30 7144 H 657.895 2.96158 -3.09819 0
M  V30 7145 H 662.079 2.83849 -4.07116 0
M  V30 7146 H 657.335 2.71352 -5.47885 0
M  V30 7147 H 661.509 2.60156 -6.45981 0
M  V30 7148 H 659.136 2.53415 -7.16718 0
M  V30 7149 N 660.711 1.11618 1.11262 0
M  V30 7150 C 661.621 0.78898 2.20935 0
M  V30 7151 C 662.637 -0.21867 1.7262 0
M  V30 7152 O 663.813 -0.0543826 2.01327 0
M  V30 7153 C 660.878 0.239014 3.45875 0
M  V30 7154 C 659.939 1.3055 4.08968 0
M  V30 7155 C 659.172 0.781687 5.27944 0
M  V30 7156 O 659.395 -0.387605 5.69082 0
M  V30 7157 O 658.329 1.54734 5.81671 0
M  V30 7158 H 662.155 1.70477 2.51339 0
M  V30 7159 H 659.74 0.892203 1.19834 0
M  V30 7160 H 661.622 -0.0632312 4.21353 0
M  V30 7161 H 660.297 -0.649454 3.17118 0
M  V30 7162 H 659.204 1.66079 3.35214 0
M  V30 7163 H 660.537 2.16743 4.41909 0
M  V30 7164 N 662.189 -1.289 0.906776 0
M  V30 7165 C 663.099 -2.31256 0.394707 0
M  V30 7166 C 664.115 -1.66231 -0.514121 0
M  V30 7167 O 665.291 -1.97347 -0.401994 0
M  V30 7168 C 662.356 -3.44792 -0.363191 0
M  V30 7169 C 661.417 -4.25391 0.578012 0
M  V30 7170 C 660.65 -5.33506 -0.143811 0
M  V30 7171 O 660.873 -5.53786 -1.36665 0
M  V30 7172 O 659.807 -5.99673 0.5173 0
M  V30 7173 H 663.633 -2.77051 1.24405 0
M  V30 7174 H 661.218 -1.33466 0.671346 0
M  V30 7175 H 663.1 -4.139 -0.791503 0
M  V30 7176 H 661.775 -3.01093 -1.18848 0
M  V30 7177 H 660.682 -3.58899 1.05558 0
M  V30 7178 H 662.015 -4.72752 1.36992 0
M  V30 7179 N 663.667 -0.670007 -1.42649 0
M  V30 7180 C 665.083 -0.33911 -1.55956 0
M  V30 7181 C 665.283 1.1558 -1.65056 0
M  V30 7182 O 664.339 1.94111 -1.61485 0
M  V30 7183 C 665.652 -1.06522 -2.812 0
M  V30 7184 C 667.2 -1.04708 -2.94966 0
M  V30 7185 C 667.675 -1.75442 -4.23065 0
M  V30 7186 N 669.166 -1.72286 -4.29967 0
M  V30 7187 C 669.901 -2.23877 -5.27889 0
M  V30 7188 N 669.397 -2.83829 -6.31991 0
M  V30 7189 N 671.19 -2.14279 -5.19654 0
M  V30 7190 H 663.341 -1.6399 -1.34986 0
M  V30 7191 H 665.604 -0.690603 -0.649439 0
M  V30 7192 H 665.31 -2.12033 -2.80597 0
M  V30 7193 H 665.184 -0.627398 -3.71946 0
M  V30 7194 H 667.571 -0.000315966 -2.951 0
M  V30 7195 H 667.652 -1.52374 -2.05465 0
M  V30 7196 H 667.296 -2.80084 -4.23693 0
M  V30 7197 H 667.226 -1.25229 -5.11493 0
M  V30 7198 H 669.717 -1.28554 -3.55362 0
M  V30 7199 H 670.03 -3.20827 -7.03057 0
M  V30 7200 H 668.375 -2.87896 -6.32567 0
M  V30 7201 H 671.566 -1.67135 -4.37245 0
M  V30 7202 H 671.739 -2.54792 -5.95806 0
M  V30 7203 N 665.145 1.52092 -0.413018 0
M  V30 7204 C 666.092 2.27119 0.410558 0
M  V30 7205 C 667.062 1.29692 1.03774 0
M  V30 7206 O 668.247 1.58561 1.06128 0
M  V30 7207 C 665.387 3.09863 1.51918 0
M  V30 7208 C 664.5 4.22252 0.912528 0
M  V30 7209 C 663.635 4.92348 1.99417 0
M  V30 7210 C 662.674 5.96694 1.36466 0
M  V30 7211 N 661.811 6.60292 2.38661 0
M  V30 7212 H 666.651 2.97067 -0.235661 0
M  V30 7213 H 664.188 1.46542 -0.128055 0
M  V30 7214 H 666.146 3.56144 2.17295 0
M  V30 7215 H 664.776 2.42078 2.13537 0
M  V30 7216 H 663.828 3.80113 0.147697 0
M  V30 7217 H 665.14 4.9709 0.412717 0
M  V30 7218 H 664.294 5.42054 2.72512 0
M  V30 7219 H 663.033 4.17087 2.52764 0
M  V30 7220 H 662.038 5.46304 0.61906 0
M  V30 7221 H 663.263 6.73899 0.838827 0
M  V30 7222 H 661.209 5.87858 2.91134 0
M  V30 7223 H 661.126 7.30816 1.93503 0
M  V30 7224 H 662.394 7.14635 3.11314 0
M  V30 7225 N 666.623 0.143563 1.56945 0
M  V30 7226 C 667.533 -0.810562 2.20152 0
M  V30 7227 C 668.549 -1.27431 1.1848 0
M  V30 7228 O 669.725 -1.33221 1.51044 0
M  V30 7229 C 666.79 -2.03353 2.80799 0
M  V30 7230 C 665.851 -1.61936 3.97587 0
M  V30 7231 C 665.084 -2.78403 4.55332 0
M  V30 7232 O 665.307 -3.94521 4.11958 0
M  V30 7233 O 664.241 -2.54073 5.45647 0
M  V30 7234 H 668.067 -0.30253 3.02189 0
M  V30 7235 H 665.652 -0.0832925 1.49168 0
M  V30 7236 H 667.534 -2.74932 3.19359 0
M  V30 7237 H 666.209 -2.53116 2.01777 0
M  V30 7238 H 665.116 -0.873904 3.6375 0
M  V30 7239 H 666.449 -1.16892 4.78118 0
M  V30 7240 N 668.101 -1.57061 -0.130224 0
M  V30 7241 C 669.331 -1.88159 -0.853217 0
M  V30 7242 C 669.739 -0.731675 -1.7448 0
M  V30 7243 O 669.082 0.307035 -1.81116 0
M  V30 7244 C 669.144 -3.1415 -1.74785 0
M  V30 7245 C 668.808 -4.45202 -1.03173 0
M  V30 7246 C 669.805 -5.18526 -0.377759 0
M  V30 7247 C 667.49 -4.91912 -1.01624 0
M  V30 7248 C 669.484 -6.36775 0.282123 0
M  V30 7249 C 667.171 -6.10082 -0.352555 0
M  V30 7250 C 668.169 -6.82361 0.295483 0
M  V30 7251 O 667.857 -7.98284 0.948606 0
M  V30 7252 H 667.589 -0.627596 -0.251197 0
M  V30 7253 H 670.143 -2.05034 -0.1226 0
M  V30 7254 H 668.373 -2.93328 -2.51983 0
M  V30 7255 H 670.062 -3.31359 -2.34427 0
M  V30 7256 H 670.828 -4.83498 -0.381417 0
M  V30 7257 H 666.707 -4.35566 -1.51007 0
M  V30 7258 H 670.251 -6.93129 0.788525 0
M  V30 7259 H 666.148 -6.44569 -0.346621 0
M  V30 7260 H 666.916 -8.14054 0.851954 0
M  V30 7261 N 669.579 0.400081 -1.52437 0
M  V30 7262 C 670.826 1.14619 -1.6694 0
M  V30 7263 C 671.154 1.90262 -0.403797 0
M  V30 7264 O 670.409 1.85835 0.61351 0
M  V30 7265 C 670.708 2.15914 -2.84808 0
M  V30 7266 C 670.374 1.57011 -4.2268 0
M  V30 7267 C 669.036 1.40672 -4.60179 0
M  V30 7268 C 671.388 1.14081 -5.08562 0
M  V30 7269 C 668.716 0.799335 -5.81229 0
M  V30 7270 C 671.068 0.547573 -6.30226 0
M  V30 7271 C 669.732 0.371389 -6.66466 0
M  V30 7272 H 669.002 0.419419 -0.610875 0
M  V30 7273 H 671.649 0.432227 -1.86558 0
M  V30 7274 H 669.954 2.93488 -2.59561 0
M  V30 7275 H 671.651 2.73533 -2.93225 0
M  V30 7276 H 668.241 1.70713 -3.93135 0
M  V30 7277 H 672.425 1.2551 -4.80168 0
M  V30 7278 H 667.681 0.65093 -6.07925 0
M  V30 7279 H 671.855 0.206575 -6.96094 0
M  V30 7280 H 669.482 -0.10135 -7.60132 0
M  V30 7281 N 671.057 1.43213 0.657864 0
M  V30 7282 C 671.967 1.50448 1.80007 0
M  V30 7283 C 672.983 0.39191 1.69529 0
M  V30 7284 O 674.159 0.645349 1.90781 0
M  V30 7285 C 671.224 1.42062 3.16258 0
M  V30 7286 C 670.285 2.63951 3.38568 0
M  V30 7287 C 669.518 2.55956 4.68318 0
M  V30 7288 O 669.741 1.60473 5.47361 0
M  V30 7289 O 668.675 3.46378 4.92245 0
M  V30 7290 H 672.501 2.4689 1.76858 0
M  V30 7291 H 670.086 1.25163 0.81576 0
M  V30 7292 H 671.968 1.3981 3.97531 0
M  V30 7293 H 670.643 0.487524 3.20008 0
M  V30 7294 H 669.55 2.71776 2.57077 0
M  V30 7295 H 670.883 3.56217 3.39662 0
M  V30 7296 N 672.536 -0.895792 1.29666 0
M  V30 7297 C 673.483 -2.00035 1.15129 0
M  V30 7298 C 674.453 -1.66043 0.0435819 0
M  V30 7299 O 675.638 -1.89621 0.211811 0
M  V30 7300 C 672.778 -3.34774 0.83787 0
M  V30 7301 C 671.891 -3.81525 2.0264 0
M  V30 7302 C 671.026 -5.04858 1.65201 0
M  V30 7303 C 670.065 -5.43988 2.80612 0
M  V30 7304 N 669.202 -6.58507 2.43544 0
M  V30 7305 H 674.042 -2.11802 2.09628 0
M  V30 7306 H 671.579 -1.03719 1.04311 0
M  V30 7307 H 673.537 -4.12311 0.636824 0
M  V30 7308 H 672.167 -3.22724 -0.0702314 0
M  V30 7309 H 671.219 -2.9999 2.33903 0
M  V30 7310 H 672.531 -4.06472 2.89106 0
M  V30 7311 H 671.685 -5.8999 1.41408 0
M  V30 7312 H 670.424 -4.81759 0.758893 0
M  V30 7313 H 669.429 -4.57388 3.05083 0
M  V30 7314 H 670.654 -5.69066 3.70595 0
M  V30 7315 H 668.6 -6.37004 1.56724 0
M  V30 7316 H 668.517 -6.83269 3.23542 0
M  V30 7317 H 669.785 -7.46897 2.2308 0
M  V30 7318 N 674.014 -1.12206 -1.10668 0
M  V30 7319 C 674.977 -0.790867 -2.15123 0
M  V30 7320 C 675.977 0.193618 -1.5963 0
M  V30 7321 O 677.167 -0.0318728 -1.74171 0
M  V30 7322 C 674.299 -0.174797 -3.40452 0
M  V30 7323 H 675.492 -1.7163 -2.45933 0
M  V30 7324 H 673.045 -0.924993 -1.2599 0
M  V30 7325 H 673.78 0.760478 -3.15257 0
M  V30 7326 H 673.565 -0.88358 -3.82015 0
M  V30 7327 H 675.055 0.0405162 -4.1758 0
M  V30 7328 N 675.492 1.28418 -0.913599 0
M  V30 7329 C 676.422 2.29713 -0.418847 0
M  V30 7330 C 677.403 1.62165 0.513469 0
M  V30 7331 O 678.588 1.89576 0.421235 0
M  V30 7332 C 675.718 3.45612 0.342042 0
M  V30 7333 C 674.672 4.25056 -0.501123 0
M  V30 7334 C 673.998 5.3329 0.388097 0
M  V30 7335 C 675.298 4.91814 -1.75831 0
M  V30 7336 H 676.992 2.71346 -1.26538 0
M  V30 7337 H 674.538 1.30446 -0.609903 0
M  V30 7338 H 676.491 4.15562 0.699 0
M  V30 7339 H 675.215 3.02858 1.22248 0
M  V30 7340 H 673.874 3.56833 -0.840598 0
M  V30 7341 H 673.522 4.8678 1.26707 0
M  V30 7342 H 673.222 5.87347 -0.172459 0
M  V30 7343 H 674.746 6.06088 0.74094 0
M  V30 7344 H 676.16 5.54126 -1.47026 0
M  V30 7345 H 674.557 5.55866 -2.26126 0
M  V30 7346 H 675.627 4.16313 -2.4862 0
M  V30 7347 N 676.97 0.677563 1.42291 0
M  V30 7348 C 677.917 0.000947061 2.308 0
M  V30 7349 C 678.887 -0.789889 1.46116 0
M  V30 7350 O 680.072 -0.761578 1.74942 0
M  V30 7351 C 677.212 -0.942387 3.31984 0
M  V30 7352 C 676.325 -0.14508 4.31756 0
M  V30 7353 C 675.46 -1.08442 5.20013 0
M  V30 7354 C 674.499 -0.278958 6.11464 0
M  V30 7355 N 673.636 -1.17115 6.92263 0
M  V30 7356 H 678.476 0.761521 2.88106 0
M  V30 7357 H 676.013 0.38727 1.41911 0
M  V30 7358 H 677.971 -1.50317 3.89179 0
M  V30 7359 H 676.601 -1.66956 2.76271 0
M  V30 7360 H 675.653 0.532368 3.76656 0
M  V30 7361 H 676.965 0.48015 4.96484 0
M  V30 7362 H 676.119 -1.71504 5.81955 0
M  V30 7363 H 674.858 -1.74353 4.55469 0
M  V30 7364 H 673.863 0.364856 5.48588 0
M  V30 7365 H 675.088 0.376099 6.78058 0
M  V30 7366 H 673.034 -1.81661 6.30345 0
M  V30 7367 H 672.951 -0.601063 7.53607 0
M  V30 7368 H 674.219 -1.78915 7.58689 0
M  V30 7369 N 678.448 -1.51871 0.421078 0
M  V30 7370 C 679.697 -2.01125 -0.152206 0
M  V30 7371 C 680.01 -1.3106 -1.45199 0
M  V30 7372 O 681.216 -1.71195 -2.10724 0
M  V30 7373 C 679.672 -3.58458 -0.3218 0
M  V30 7374 C 679.28 -4.37448 0.96659 0
M  V30 7375 C 681.024 -4.15908 -0.84973 0
M  V30 7376 C 678.931 -5.86451 0.763529 0
M  V30 7377 H 677.861 -0.751556 -0.0606565 0
M  V30 7378 H 680.512 -1.75115 0.548354 0
M  V30 7379 H 678.894 -3.80847 -1.08498 0
M  V30 7380 H 680.068 -4.26814 1.73684 0
M  V30 7381 H 678.383 -3.91373 1.42183 0
M  V30 7382 H 680.98 -5.24922 -1.01788 0
M  V30 7383 H 681.323 -3.74031 -1.82774 0
M  V30 7384 H 681.856 -3.97535 -0.145297 0
M  V30 7385 H 678.595 -6.3271 1.71344 0
M  V30 7386 H 678.115 -5.99791 0.0327889 0
M  V30 7387 H 679.794 -6.45697 0.410354 0
M  V30 7388 N 679.926 -0.151884 -1.56866 0
M  V30 7389 C 680.856 0.781943 -2.20018 0
M  V30 7390 C 681.837 1.25347 -1.14987 0
M  V30 7391 O 683.022 1.31015 -1.43348 0
M  V30 7392 C 680.152 2.01928 -2.82564 0
M  V30 7393 C 679.106 1.68434 -3.93464 0
M  V30 7394 C 678.432 2.99472 -4.42968 0
M  V30 7395 C 679.732 0.927244 -5.14003 0
M  V30 7396 H 681.426 0.255607 -2.98307 0
M  V30 7397 H 678.972 0.121502 -1.43486 0
M  V30 7398 H 680.925 2.67741 -3.25411 0
M  V30 7399 H 679.649 2.56943 -2.01614 0
M  V30 7400 H 678.308 1.04998 -3.51242 0
M  V30 7401 H 677.956 3.52488 -3.58834 0
M  V30 7402 H 677.656 2.77823 -5.17772 0
M  V30 7403 H 679.18 3.66348 -4.88489 0
M  V30 7404 H 680.594 1.48756 -5.53665 0
M  V30 7405 H 678.991 0.810513 -5.94601 0
M  V30 7406 H 680.061 -0.0801163 -4.84834 0
M  V30 7407 N 681.404 1.57128 0.121893 0
M  V30 7408 C 682.314 2.03425 1.16857 0
M  V30 7409 C 683.33 0.954108 1.45509 0
M  V30 7410 O 684.506 1.26541 1.56682 0
M  V30 7411 C 681.571 2.42685 2.47599 0
M  V30 7412 C 680.632 3.64767 2.2637 0
M  V30 7413 C 679.865 4.02145 3.50878 0
M  V30 7414 O 680.088 3.39897 4.58068 0
M  V30 7415 O 679.022 4.95262 3.42051 0
M  V30 7416 H 682.848 2.92825 0.80544 0
M  V30 7417 H 680.433 1.45654 0.332477 0
M  V30 7418 H 682.315 2.68684 3.24634 0
M  V30 7419 H 680.99 1.56432 2.83392 0
M  V30 7420 H 679.897 3.43922 1.47203 0
M  V30 7421 H 681.23 4.51716 1.95482 0
M  V30 7422 N 682.882 -0.391992 1.52647 0
M  V30 7423 C 684.298 -0.731848 1.41831 0
M  V30 7424 C 684.498 -1.9423 0.536361 0
M  V30 7425 O 683.554 -2.52499 0.00866571 0
M  V30 7426 C 684.867 -0.969743 2.84634 0
M  V30 7427 C 686.415 -1.0714 2.94092 0
M  V30 7428 C 686.89 -1.34195 4.37899 0
M  V30 7429 N 688.381 -1.41023 4.41211 0
M  V30 7430 C 689.116 -1.63616 5.49561 0
M  V30 7431 N 688.612 -1.83699 6.68002 0
M  V30 7432 N 690.405 -1.65771 5.371 0
M  V30 7433 H 682.556 0.404547 2.08512 0
M  V30 7434 H 684.819 0.11879 0.940528 0
M  V30 7435 H 684.525 -0.152465 3.51369 0
M  V30 7436 H 684.399 -1.88523 3.26709 0
M  V30 7437 H 686.786 -1.87925 2.27526 0
M  V30 7438 H 686.867 -0.133887 2.55449 0
M  V30 7439 H 686.511 -0.539207 5.0503 0
M  V30 7440 H 686.441 -2.29226 4.74092 0
M  V30 7441 H 688.932 -1.27223 3.55841 0
M  V30 7442 H 689.245 -2.00437 7.46354 0
M  V30 7443 H 687.59 -1.8093 6.71036 0
M  V30 7444 H 690.781 -1.4963 4.43541 0
M  V30 7445 H 690.954 -1.83038 6.21612 0
M  V30 7446 N 684.36 -1.4356 -0.65026 0
M  V30 7447 C 685.31 -1.45392 -1.75628 0
M  V30 7448 C 686.294 -0.322006 -1.57645 0
M  V30 7449 O 687.486 -0.565996 -1.67707 0
M  V30 7450 C 684.615 -1.38254 -3.1423 0
M  V30 7451 C 683.701 -2.56487 -3.3775 0
M  V30 7452 N 684.092 -3.81824 -3.31729 0
M  V30 7453 C 682.39 -2.51274 -3.6848 0
M  V30 7454 C 683.091 -4.60497 -3.55412 0
M  V30 7455 N 682.067 -3.91274 -3.77367 0
M  V30 7456 H 685.869 -2.40167 -1.69402 0
M  V30 7457 H 683.383 -1.38254 -0.852037 0
M  V30 7458 H 685.38 -1.3765 -3.9352 0
M  V30 7459 H 684.04 -0.445019 -3.21636 0
M  V30 7460 H 685.051 -4.14069 -3.11074 0
M  V30 7461 H 681.728 -1.66223 -3.82983 0
M  V30 7462 H 683.118 -5.69518 -3.5651 0
M  V30 7463 N 685.838 0.888903 -1.30139 0
M  V30 7464 C 687.115 1.62145 -1.094 0
M  V30 7465 C 687.495 2.08041 0.358091 0
M  V30 7466 O 686.843 1.84438 1.34888 0
M  V30 7467 C 687.053 2.794 -2.09133 0
M  V30 7468 C 688.401 3.49826 -2.40638 0
M  V30 7469 O 689.425 2.89583 -2.07412 0
M  V30 7470 O 688.284 4.58457 -2.97455 0
M  V30 7471 H 685.378 0.712475 -0.41989 0
M  V30 7472 H 687.924 0.936023 -1.41551 0
M  V30 7473 H 686.696 2.42762 -3.06891 0
M  V30 7474 H 686.319 3.55643 -1.77776 0
M  V30 7475 N 687.317 1.12792 1.10072 0
M  V30 7476 C 688.564 0.885545 1.82111 0
M  V30 7477 C 688.892 -0.588519 1.85383 0
M  V30 7478 O 688.147 -1.45124 1.31292 0
M  V30 7479 C 688.446 1.4102 3.28403 0
M  V30 7480 C 688.112 2.89995 3.45273 0
M  V30 7481 C 686.774 3.30671 3.49585 0
M  V30 7482 C 689.126 3.85874 3.50358 0
M  V30 7483 C 686.454 4.65925 3.56553 0
M  V30 7484 C 688.806 5.20963 3.58859 0
M  V30 7485 C 687.47 5.61177 3.61437 0
M  V30 7486 H 686.74 0.324044 0.666391 0
M  V30 7487 H 689.387 1.40874 1.29718 0
M  V30 7488 H 687.692 0.807551 3.83387 0
M  V30 7489 H 689.389 1.19882 3.82661 0
M  V30 7490 H 685.979 2.57537 3.42597 0
M  V30 7491 H 690.163 3.5554 3.46273 0
M  V30 7492 H 685.419 4.96468 3.56833 0
M  V30 7493 H 689.593 5.95079 3.61738 0
M  V30 7494 H 687.22 6.6597 3.66589 0
M  V30 7495 N 688.795 -1.27931 0.920396 0
M  V30 7496 C 690.02 -1.99343 0.572478 0
M  V30 7497 C 690.445 -1.68267 -0.840696 0
M  V30 7498 O 689.803 -0.918805 -1.56294 0
M  V30 7499 C 689.851 -3.51698 0.796284 0
M  V30 7500 O 688.955 -4.12157 -0.141602 0
M  V30 7501 H 688.296 -0.626065 0.221221 0
M  V30 7502 H 690.826 -1.62921 1.23765 0
M  V30 7503 H 690.836 -4.01793 0.708984 0
M  V30 7504 H 689.511 -3.73649 1.82644 0
M  V30 7505 H 688.088 -3.729 -0.005007 0
M  V30 7506 N 690.273 -0.685099 -1.4193 0
M  V30 7507 C 691.55 -0.140152 -1.95097 0
M  V30 7508 C 691.93 1.34745 -1.62502 0
M  V30 7509 O 691.278 2.08872 -0.926534 0
M  V30 7510 C 691.488 -0.420268 -3.4646 0
M  V30 7511 C 692.836 -0.342338 -4.23218 0
M  V30 7512 O 693.86 -0.354592 -3.54431 0
M  V30 7513 O 692.719 -0.293404 -5.45712 0
M  V30 7514 H 689.813 -0.00885998 -0.826953 0
M  V30 7515 H 692.359 -0.760539 -1.51703 0
M  V30 7516 H 691.131 -1.45037 -3.63428 0
M  V30 7517 H 690.754 0.231616 -3.96925 0
M  V30 7518 N 691.751 1.51645 -0.429126 0
M  V30 7519 C 693.167 1.59394 -0.080994 0
M  V30 7520 C 693.367 1.44064 1.40882 0
M  V30 7521 O 692.423 1.27771 2.17786 0
M  V30 7522 C 693.736 2.94779 -0.593773 0
M  V30 7523 C 695.284 3.08067 -0.553494 0
M  V30 7524 C 695.759 4.45963 -1.04311 0
M  V30 7525 N 697.25 4.5226 -1.00076 0
M  V30 7526 C 697.985 5.57268 -1.35056 0
M  V30 7527 N 697.481 6.69734 -1.77282 0
M  V30 7528 N 699.274 5.47582 -1.26925 0
M  V30 7529 H 691.425 1.59856 -1.39857 0
M  V30 7530 H 693.688 0.753095 -0.575805 0
M  V30 7531 H 693.394 3.11342 -1.63583 0
M  V30 7532 H 693.268 3.77197 -0.0142202 0
M  V30 7533 H 695.655 2.91177 0.479556 0
M  V30 7534 H 695.736 2.27508 -1.16935 0
M  V30 7535 H 695.38 4.63598 -2.07459 0
M  V30 7536 H 695.31 5.25049 -0.403873 0
M  V30 7537 H 697.801 3.71537 -0.690564 0
M  V30 7538 H 698.114 7.4587 -2.02232 0
M  V30 7539 H 696.459 6.70963 -1.81202 0
M  V30 7540 H 699.65 4.58604 -0.93809 0
M  V30 7541 H 699.823 6.29308 -1.54516 0
M  V30 7542 N 693.229 0.160201 1.56784 0
M  V30 7543 C 694.475 -0.48831 1.96833 0
M  V30 7544 C 694.808 -1.63641 1.04571 0
M  V30 7545 O 694.083 -1.94289 0.0906481 0
M  V30 7546 C 694.366 -0.981908 3.46454 0
M  V30 7547 C 694.219 0.165607 4.49495 0
M  V30 7548 C 695.538 -1.85931 3.98896 0
M  V30 7549 H 692.657 -0.176027 0.71567 0
M  V30 7550 H 695.299 0.244093 1.88426 0
M  V30 7551 H 693.449 -1.60602 3.5375 0
M  V30 7552 H 695.121 0.802372 4.54268 0
M  V30 7553 H 693.364 0.822789 4.25926 0
M  V30 7554 H 694.035 -0.221699 5.51555 0
M  V30 7555 H 696.511 -1.33327 3.94161 0
M  V30 7556 H 695.387 -2.17373 5.04024 0
M  V30 7557 H 695.648 -2.80106 3.42042 0
M  V30 7558 N 694.707 -1.5719 -0.113559 0
M  V30 7559 C 695.956 -1.84325 -0.818984 0
M  V30 7560 C 696.269 -0.746685 -1.80787 0
M  V30 7561 O 697.475 -0.904596 -2.55987 0
M  V30 7562 C 695.931 -3.26818 -1.50724 0
M  V30 7563 C 695.539 -4.44498 -0.559065 0
M  V30 7564 C 697.283 -3.63196 -2.19748 0
M  V30 7565 C 695.19 -5.7802 -1.25086 0
M  V30 7566 H 694.12 -0.687507 -0.309596 0
M  V30 7567 H 696.771 -1.8336 -0.0717621 0
M  V30 7568 H 695.153 -3.22269 -2.30128 0
M  V30 7569 H 696.327 -4.60356 0.202146 0
M  V30 7570 H 694.642 -4.16393 0.024495 0
M  V30 7571 H 697.239 -4.60226 -2.72206 0
M  V30 7572 H 697.582 -2.90899 -2.97798 0
M  V30 7573 H 698.115 -3.69553 -1.47226 0
M  V30 7574 H 694.854 -6.53501 -0.511539 0
M  V30 7575 H 694.374 -5.66038 -1.98395 0
M  V30 7576 H 696.053 -6.2196 -1.78253 0
M  V30 7577 N 696.185 0.383891 -1.52853 0
M  V30 7578 C 697.432 1.12842 -1.68146 0
M  V30 7579 C 697.76 1.89823 -0.423954 0
M  V30 7580 O 697.015 1.86475 0.593765 0
M  V30 7581 C 697.314 2.12881 -2.87082 0
M  V30 7582 C 696.98 1.52519 -4.24322 0
M  V30 7583 C 695.642 1.35783 -4.61645 0
M  V30 7584 C 697.994 1.0868 -5.09743 0
M  V30 7585 C 695.322 0.737643 -5.82044 0
M  V30 7586 C 697.674 0.480699 -6.30771 0
M  V30 7587 C 696.338 0.300681 -6.66822 0
M  V30 7588 H 695.608 0.412917 -0.615289 0
M  V30 7589 H 698.255 0.412416 -1.87006 0
M  V30 7590 H 696.56 2.90719 -2.62659 0
M  V30 7591 H 698.257 2.70408 -2.96109 0
M  V30 7592 H 694.847 1.66534 -3.94923 0
M  V30 7593 H 699.031 1.2041 -4.81472 0
M  V30 7594 H 694.287 0.586415 -6.08581 0
M  V30 7595 H 698.461 0.132733 -6.96273 0
M  V30 7596 H 696.088 -0.181966 -7.59982 0
M  V30 7597 N 697.663 1.43903 0.642637 0
M  V30 7598 C 698.94 1.36556 1.40043 0
M  V30 7599 C 699.32 0.0185588 2.11092 0
M  V30 7600 O 698.668 -0.998438 2.05532 0
M  V30 7601 C 698.878 2.55596 2.37638 0
M  V30 7602 C 700.226 2.99153 3.01318 0
M  V30 7603 O 701.25 2.55719 2.47965 0
M  V30 7604 O 700.109 3.74427 3.98078 0
M  V30 7605 H 697.203 0.540189 0.626198 0
M  V30 7606 H 699.749 1.55971 0.668657 0
M  V30 7607 H 698.521 3.45256 1.84158 0
M  V30 7608 H 698.144 2.38334 3.18249 0
M  V30 7609 N 699.141 -0.881989 1.30609 0
M  V30 7610 C 700.552 -1.44956 1.17664 0
M  V30 7611 C 700.903 -1.94945 -0.221531 0
M  V30 7612 O 700.028 -1.85257 -1.11844 0
M  V30 7613 C 700.623 -2.63474 2.12995 0
M  V30 7614 C 699.182 -3.16312 2.04019 0
M  V30 7615 C 698.329 -1.89008 2.02907 0
M  V30 7616 H 701.28 -0.691645 1.42835 0
M  V30 7617 H 701.301 -3.39783 1.71253 0
M  V30 7618 H 700.813 -2.2706 3.14746 0
M  V30 7619 H 698.914 -3.57376 1.0542 0
M  V30 7620 H 699.027 -3.79409 2.9255 0
M  V30 7621 H 697.391 -2.07465 1.47751 0
M  V30 7622 H 698.174 -1.54848 3.06394 0
M  V30 7623 N 700.619 -1.13374 -1.09472 0
M  V30 7624 C 701.867 -0.893422 -1.8128 0
M  V30 7625 C 702.188 0.582029 -1.86111 0
M  V30 7626 O 701.458 1.42305 -1.34633 0
M  V30 7627 H 700.038 -0.327543 -0.67136 0
M  V30 7628 H 702.7 -1.43018 -1.32408 0
M  V30 7629 H 701.796 -1.28374 -2.84476 0
M  V30 7630 N 702.098 1.27442 -0.927168 0
M  V30 7631 C 703.344 1.94679 -0.568164 0
M  V30 7632 C 703.677 1.72697 0.888219 0
M  V30 7633 O 702.952 1.05573 1.63354 0
M  V30 7634 C 703.235 3.4882 -0.894253 0
M  V30 7635 C 703.088 3.80146 -2.40435 0
M  V30 7636 C 704.407 4.38281 -0.399766 0
M  V30 7637 H 701.526 0.707071 -0.207892 0
M  V30 7638 H 704.168 1.50568 -1.15885 0
M  V30 7639 H 702.318 3.86522 -0.391566 0
M  V30 7640 H 703.99 3.52238 -2.97869 0
M  V30 7641 H 702.233 3.26716 -2.85375 0
M  V30 7642 H 702.904 4.87835 -2.58304 0
M  V30 7643 H 705.38 4.07726 -0.83058 0
M  V30 7644 H 704.256 5.44955 -0.656885 0
M  V30 7645 H 704.517 4.36521 0.700153 0
M  V30 7646 N 703.576 0.692616 1.41565 0
M  V30 7647 C 704.506 0.0397325 2.33466 0
M  V30 7648 C 705.487 -0.770334 1.51657 0
M  V30 7649 O 706.672 -0.723903 1.80203 0
M  V30 7650 C 703.802 -0.899495 3.3545 0
M  V30 7651 C 702.756 -0.196738 4.27548 0
M  V30 7652 C 702.082 -1.25012 5.19881 0
M  V30 7653 C 703.382 0.935158 5.1386 0
M  V30 7654 H 705.076 0.807296 2.88311 0
M  V30 7655 H 702.622 0.389665 1.38628 0
M  V30 7656 H 704.575 -1.36545 3.98665 0
M  V30 7657 H 703.299 -1.69869 2.78948 0
M  V30 7658 H 701.958 0.249158 3.65752 0
M  V30 7659 H 701.606 -2.04177 4.59696 0
M  V30 7660 H 701.306 -0.784931 5.82334 0
M  V30 7661 H 702.83 -1.71665 5.85972 0
M  V30 7662 H 704.244 0.549619 5.70659 0
M  V30 7663 H 702.641 1.32726 5.85238 0
M  V30 7664 H 703.711 1.77613 4.512 0
M  V30 7665 N 705.054 -1.51416 0.437162 0
M  V30 7666 C 706.465 -1.86682 -0.0260005 0
M  V30 7667 C 706.816 -1.35432 -1.4196 0
M  V30 7668 O 705.941 -0.705055 -2.04592 0
M  V30 7669 C 706.536 -3.38757 -0.0539577 0
M  V30 7670 C 705.095 -3.7356 -0.461532 0
M  V30 7671 C 704.242 -2.75134 0.345924 0
M  V30 7672 H 707.193 -1.44642 0.653013 0
M  V30 7673 H 707.214 -3.70573 -0.863478 0
M  V30 7674 H 706.726 -3.76028 0.96045 0
M  V30 7675 H 704.827 -3.41878 -1.48155 0
M  V30 7676 H 704.94 -4.78737 -0.186451 0
M  V30 7677 H 703.304 -2.53947 -0.195739 0
M  V30 7678 H 704.087 -3.15247 1.35921 0
M  V30 7679 N 706.532 -0.168513 -1.56696 0
M  V30 7680 C 707.462 0.758563 -2.20835 0
M  V30 7681 C 708.443 1.24121 -1.1631 0
M  V30 7682 O 709.628 1.29487 -1.4473 0
M  V30 7683 C 706.758 1.9892 -2.8469 0
M  V30 7684 C 705.712 1.64252 -3.95228 0
M  V30 7685 C 705.038 2.94757 -4.46119 0
M  V30 7686 C 706.338 0.872675 -5.14958 0
M  V30 7687 H 708.032 0.223953 -2.98561 0
M  V30 7688 H 705.578 0.106277 -1.43607 0
M  V30 7689 H 707.531 2.64275 -3.28233 0
M  V30 7690 H 706.255 2.5479 -2.04327 0
M  V30 7691 H 704.914 1.01266 -3.52336 0
M  V30 7692 H 704.562 3.48662 -3.62552 0
M  V30 7693 H 704.262 2.72316 -5.2069 0
M  V30 7694 H 705.786 3.61147 -4.92347 0
M  V30 7695 H 707.2 1.42875 -5.55211 0
M  V30 7696 H 705.597 0.747402 -5.95428 0
M  V30 7697 H 706.667 -0.131535 -4.84722 0
M  V30 7698 N 708.01 1.57248 0.105221 0
M  V30 7699 C 709.258 1.85204 0.808951 0
M  V30 7700 C 709.579 0.75574 1.7976 0
M  V30 7701 O 708.849 -0.218984 1.94672 0
M  V30 7702 H 707.429 0.683346 0.301739 0
M  V30 7703 H 710.091 1.94695 0.0892605 0
M  V30 7704 H 709.187 2.81595 1.34575 0
M  V30 7705 N 709.488 -0.375779 1.53054 0
M  V30 7706 C 710.451 -1.44254 1.7811 0
M  V30 7707 C 711.451 -1.47018 0.651328 0
M  V30 7708 O 712.641 -1.47957 0.919472 0
M  V30 7709 C 709.773 -2.8345 1.89391 0
M  V30 7710 H 710.966 -1.23316 2.73374 0
M  V30 7711 H 708.519 -0.608312 1.43977 0
M  V30 7712 H 709.254 -3.09716 0.961589 0
M  V30 7713 H 709.039 -2.82844 2.71555 0
M  V30 7714 H 710.529 -3.60722 2.10404 0
M  V30 7715 N 710.966 -1.44241 -0.634997 0
M  V30 7716 C 711.876 -1.53293 -1.77591 0
M  V30 7717 C 712.892 -0.418831 -1.68884 0
M  V30 7718 O 714.068 -0.675619 -1.8973 0
M  V30 7719 C 711.133 -1.47075 -3.13958 0
M  V30 7720 C 710.194 -2.69304 -3.34326 0
M  V30 7721 C 709.427 -2.63374 -4.64187 0
M  V30 7722 O 709.65 -1.69161 -5.44739 0
M  V30 7723 O 708.584 -3.54166 -4.86673 0
M  V30 7724 H 712.41 -2.49673 -1.72908 0
M  V30 7725 H 709.995 -1.26445 -0.795745 0
M  V30 7726 H 711.877 -1.46117 -3.95257 0
M  V30 7727 H 710.552 -0.538373 -3.19192 0
M  V30 7728 H 709.459 -2.75831 -2.52721 0
M  V30 7729 H 710.792 -3.61576 -3.33951 0
M  V30 7730 N 712.444 0.87505 -1.31075 0
M  V30 7731 C 713.692 1.62447 -1.20231 0
M  V30 7732 C 714.013 1.93506 0.240888 0
M  V30 7733 O 713.283 1.57847 1.16022 0
M  V30 7734 H 711.863 0.602207 -0.441991 0
M  V30 7735 H 714.525 1.04788 -1.64334 0
M  V30 7736 H 713.621 2.57031 -1.77036 0
M  V30 7737 N 713.922 1.13953 1.08869 0
M  V30 7738 C 714.869 0.82213 2.15661 0
M  V30 7739 C 715.839 -0.218274 1.6466 0
M  V30 7740 O 717.024 -0.0892475 1.90591 0
M  V30 7741 C 714.164 0.300572 3.43789 0
M  V30 7742 C 713.277 1.40071 4.08661 0
M  V30 7743 C 712.412 0.836897 5.24566 0
M  V30 7744 C 711.451 1.91504 5.81371 0
M  V30 7745 N 710.588 1.36875 6.88629 0
M  V30 7746 H 715.428 1.73683 2.42153 0
M  V30 7747 H 712.965 0.866879 1.18843 0
M  V30 7748 H 714.923 -0.0199943 4.17195 0
M  V30 7749 H 713.553 -0.577248 3.17597 0
M  V30 7750 H 712.605 1.83776 3.33062 0
M  V30 7751 H 713.917 2.21534 4.46905 0
M  V30 7752 H 713.071 0.467953 6.04893 0
M  V30 7753 H 711.81 -0.00874207 4.87699 0
M  V30 7754 H 710.815 2.29299 4.99702 0
M  V30 7755 H 712.04 2.76419 6.20298 0
M  V30 7756 H 709.986 0.545211 6.5373 0
M  V30 7757 H 709.903 2.1198 7.25672 0
M  V30 7758 H 711.171 1.02756 7.72698 0
M  V30 7759 N 715.4 -1.26948 0.933913 0
M  V30 7760 C 716.811 -1.76058 0.621324 0
M  V30 7761 C 717.162 -1.76175 -0.863522 0
M  V30 7762 O 716.287 -1.36921 -1.67576 0
M  V30 7763 C 716.882 -3.19713 1.12111 0
M  V30 7764 C 715.441 -3.66465 0.859074 0
M  V30 7765 C 714.588 -2.46186 1.27624 0
M  V30 7766 H 717.539 -1.13127 1.11301 0
M  V30 7767 H 717.56 -3.77566 0.471608 0
M  V30 7768 H 717.072 -3.19596 2.20182 0
M  V30 7769 H 715.173 -3.72021 -0.207566 0
M  V30 7770 H 715.286 -4.55636 1.48098 0
M  V30 7771 H 713.65 -2.45042 0.694727 0
M  V30 7772 H 714.433 -2.48774 2.36572 0
M  V30 7773 N 716.879 -0.700114 -1.41195 0
M  V30 7774 C 718.125 -0.233351 -2.01453 0
M  V30 7775 C 718.458 1.16548 -1.55339 0
M  V30 7776 O 717.733 1.78756 -0.766575 0
M  V30 7777 C 718.016 -0.2961 -3.58881 0
M  V30 7778 C 717.869 -1.7322 -4.15108 0
M  V30 7779 C 719.188 0.341525 -4.38773 0
M  V30 7780 H 716.307 -0.0862667 -0.731934 0
M  V30 7781 H 718.949 -0.889693 -1.67882 0
M  V30 7782 H 717.099 0.262736 -3.87611 0
M  V30 7783 H 718.771 -2.34523 -3.97236 0
M  V30 7784 H 717.014 -2.2649 -3.69979 0
M  V30 7785 H 717.685 -1.7276 -5.24269 0
M  V30 7786 H 720.161 -0.134461 -4.15883 0
M  V30 7787 H 719.037 0.267098 -5.4825 0
M  V30 7788 H 719.298 1.42289 -4.18577 0
M  V30 7789 N 718.357 1.51182 -0.445186 0
M  V30 7790 C 719.267 2.31692 0.368255 0
M  V30 7791 C 720.283 1.40942 1.02036 0
M  V30 7792 O 721.459 1.74011 1.01401 0
M  V30 7793 C 718.524 3.14903 1.45041 0
M  V30 7794 C 717.585 4.21442 0.817615 0
M  V30 7795 C 716.818 5.00677 1.8482 0
M  V30 7796 O 717.041 4.80644 3.07145 0
M  V30 7797 O 715.975 5.84559 1.43438 0
M  V30 7798 H 719.801 3.0232 -0.289219 0
M  V30 7799 H 717.386 1.47951 -0.207555 0
M  V30 7800 H 719.268 3.66612 2.07783 0
M  V30 7801 H 717.943 2.47031 2.09182 0
M  V30 7802 H 716.85 3.73791 0.151931 0
M  V30 7803 H 718.183 4.9171 0.219564 0
M  V30 7804 N 719.835 0.176821 1.56605 0
M  V30 7805 C 721.081 -0.467406 1.9734 0
M  V30 7806 C 721.414 -1.62523 1.06301 0
M  V30 7807 O 720.689 -1.94182 0.11125 0
M  V30 7808 C 720.972 -0.945106 3.47476 0
M  V30 7809 C 720.825 0.213273 4.49294 0
M  V30 7810 C 722.144 -1.8169 4.00845 0
M  V30 7811 H 719.263 -0.168426 0.717497 0
M  V30 7812 H 721.905 0.264065 1.88156 0
M  V30 7813 H 720.055 -1.56841 3.55434 0
M  V30 7814 H 721.727 0.850508 4.53392 0
M  V30 7815 H 719.97 0.867918 4.25029 0
M  V30 7816 H 720.641 -0.163187 5.51759 0
M  V30 7817 H 723.117 -1.29139 3.95553 0
M  V30 7818 H 721.993 -2.12015 5.06301 0
M  V30 7819 H 722.254 -2.76463 3.44994 0
M  V30 7820 N 721.313 -1.57302 -0.09688 0
M  V30 7821 C 722.243 -2.0497 -1.11846 0
M  V30 7822 C 723.224 -0.938278 -1.41882 0
M  V30 7823 O 724.409 -1.20943 -1.51942 0
M  V30 7824 C 721.539 -2.47264 -2.43881 0
M  V30 7825 C 720.493 -3.62053 -2.28257 0
M  V30 7826 C 719.819 -3.90318 -3.65453 0
M  V30 7827 C 721.119 -4.93005 -1.72461 0
M  V30 7828 H 722.813 -2.90567 -0.721888 0
M  V30 7829 H 720.359 -1.39786 -0.345803 0
M  V30 7830 H 722.312 -2.7922 -3.15617 0
M  V30 7831 H 721.036 -1.58664 -2.8547 0
M  V30 7832 H 719.695 -3.30341 -1.58967 0
M  V30 7833 H 719.343 -2.98889 -4.04567 0
M  V30 7834 H 719.043 -4.67597 -3.55846 0
M  V30 7835 H 720.567 -4.24747 -4.3866 0
M  V30 7836 H 721.981 -5.23354 -2.34036 0
M  V30 7837 H 720.378 -5.74436 -1.73618 0
M  V30 7838 H 721.448 -4.80053 -0.683898 0
M  V30 7839 N 722.791 0.367657 -1.53252 0
M  V30 7840 C 723.738 1.45028 -1.79543 0
M  V30 7841 C 724.708 1.53288 -0.63969 0
M  V30 7842 O 725.893 1.69209 -0.881653 0
M  V30 7843 C 723.033 2.82 -1.98923 0
M  V30 7844 C 722.146 2.82722 -3.26638 0
M  V30 7845 C 721.281 4.11257 -3.36216 0
M  V30 7846 C 720.32 4.06113 -4.57972 0
M  V30 7847 N 719.457 5.26293 -4.64715 0
M  V30 7848 H 724.297 1.21908 -2.71923 0
M  V30 7849 H 721.834 0.591011 -1.34705 0
M  V30 7850 H 723.792 3.61568 -2.08146 0
M  V30 7851 H 722.422 3.03523 -1.09881 0
M  V30 7852 H 721.474 1.95399 -3.26379 0
M  V30 7853 H 722.786 2.74794 -4.16281 0
M  V30 7854 H 721.94 4.99239 -3.44739 0
M  V30 7855 H 720.679 4.21935 -2.44586 0
M  V30 7856 H 719.684 3.16517 -4.49552 0
M  V30 7857 H 720.909 3.97039 -5.50942 0
M  V30 7858 H 718.855 5.37561 -3.75985 0
M  V30 7859 H 718.772 5.20526 -5.4826 0
M  V30 7860 H 720.04 6.16113 -4.77519 0
M  V30 7861 N 724.269 1.44576 0.627338 0
M  V30 7862 C 725.497 1.51048 1.41394 0
M  V30 7863 C 725.912 0.136568 1.88305 0
M  V30 7864 O 725.269 -0.858251 1.6106 0
M  V30 7865 C 725.32 2.47837 2.63172 0
M  V30 7866 O 725.041 3.79887 2.18215 0
M  V30 7867 C 726.542 2.63811 3.56257 0
M  V30 7868 H 723.762 0.512171 0.4335 0
M  V30 7869 H 726.306 1.89576 0.766878 0
M  V30 7870 H 724.461 2.12433 3.23961 0
M  V30 7871 H 724.875 4.32177 2.97192 0
M  V30 7872 H 726.349 3.35554 4.38301 0
M  V30 7873 H 726.826 1.69169 4.05313 0
M  V30 7874 H 727.432 3.0013 3.01333 0
M  V30 7875 N 725.747 -0.868086 1.31537 0
M  V30 7876 C 726.996 -1.61607 1.20689 0
M  V30 7877 C 727.309 -1.94204 -0.233275 0
M  V30 7878 O 728.515 -2.67515 -0.463465 0
M  V30 7879 C 726.971 -2.91348 2.11292 0
M  V30 7880 C 726.579 -2.66227 3.60315 0
M  V30 7881 C 728.323 -3.69344 2.09249 0
M  V30 7882 C 726.23 -3.91887 4.42921 0
M  V30 7883 H 725.16 -0.606373 0.448138 0
M  V30 7884 H 727.811 -0.959666 1.56405 0
M  V30 7885 H 726.193 -3.58374 1.68477 0
M  V30 7886 H 727.367 -2.07597 4.11388 0
M  V30 7887 H 725.682 -2.01582 3.64354 0
M  V30 7888 H 728.279 -4.62567 2.68209 0
M  V30 7889 H 728.622 -4.02044 1.0801 0
M  V30 7890 H 729.155 -3.09205 2.50274 0
M  V30 7891 H 725.894 -3.64336 5.44922 0
M  V30 7892 H 725.414 -4.49961 3.96605 0
M  V30 7893 H 727.093 -4.59754 4.55231 0
M  V30 7894 N 727.225 -1.14528 -1.08264 0
M  V30 7895 C 728.135 -0.84728 -2.18765 0
M  V30 7896 C 729.151 0.172826 -1.7314 0
M  V30 7897 O 730.327 0.000985336 -2.014 0
M  V30 7898 C 727.392 -0.330633 -3.4512 0
M  V30 7899 C 726.453 -1.41348 -4.05363 0
M  V30 7900 C 725.686 -0.921387 -5.25686 0
M  V30 7901 O 725.909 0.236587 -5.69909 0
M  V30 7902 O 724.843 -1.70101 -5.77364 0
M  V30 7903 H 728.669 -1.7708 -2.46731 0
M  V30 7904 H 726.254 -0.923661 -1.17426 0
M  V30 7905 H 728.136 -0.0485053 -4.21372 0
M  V30 7906 H 726.811 0.565147 -3.18728 0
M  V30 7907 H 725.718 -1.74908 -3.30693 0
M  V30 7908 H 727.051 -2.28383 -4.36007 0
M  V30 7909 N 728.703 1.26451 -0.940633 0
M  V30 7910 C 729.95 1.93778 -0.587909 0
M  V30 7911 C 730.278 1.73811 0.872935 0
M  V30 7912 O 729.533 1.06816 1.63978 0
M  V30 7913 C 729.832 3.46503 -0.875794 0
M  V30 7914 C 729.498 3.86609 -2.32043 0
M  V30 7915 C 728.16 3.97269 -2.71534 0
M  V30 7916 C 730.512 4.0672 -3.25927 0
M  V30 7917 C 727.84 4.25436 -4.04006 0
M  V30 7918 C 730.192 4.36375 -4.57995 0
M  V30 7919 C 728.856 4.45249 -4.97302 0
M  V30 7920 H 728.126 0.709084 -0.215131 0
M  V30 7921 H 730.773 1.50272 -1.18704 0
M  V30 7922 H 729.078 3.91319 -0.194124 0
M  V30 7923 H 730.775 3.96759 -0.581665 0
M  V30 7924 H 727.365 3.78858 -2.00411 0
M  V30 7925 H 731.549 3.97912 -2.96614 0
M  V30 7926 H 726.805 4.30519 -4.34124 0
M  V30 7927 H 730.979 4.50882 -5.30734 0
M  V30 7928 H 728.606 4.66829 -5.99979 0
M  V30 7929 N 730.181 0.707592 1.40822 0
M  V30 7930 C 731.43 0.240705 2.00259 0
M  V30 7931 C 731.743 -1.17027 1.56729 0
M  V30 7932 O 732.949 -1.73526 2.08809 0
M  V30 7933 C 731.405 0.379432 3.57894 0
M  V30 7934 C 731.013 1.79654 4.104 0
M  V30 7935 C 732.757 -0.0270684 4.24491 0
M  V30 7936 C 730.664 1.88628 5.60512 0
M  V30 7937 H 729.594 0.0862369 0.749052 0
M  V30 7938 H 732.245 0.877528 1.61157 0
M  V30 7939 H 730.627 -0.325842 3.94657 0
M  V30 7940 H 731.801 2.53155 3.85032 0
M  V30 7941 H 730.116 2.15379 3.56372 0
M  V30 7942 H 732.713 0.0193743 5.34696 0
M  V30 7943 H 733.056 -1.06772 4.02375 0
M  V30 7944 H 733.589 0.628361 3.92806 0
M  V30 7945 H 730.328 2.90787 5.87472 0
M  V30 7946 H 729.848 1.19528 5.8777 0
M  V30 7947 H 731.527 1.6547 6.25483 0
M  V30 7948 N 731.66 -1.50943 0.453197 0
M  V30 7949 C 732.885 -2.07116 -0.108463 0
M  V30 7950 C 733.31 -1.31681 -1.3432 0
M  V30 7951 O 732.668 -0.359256 -1.77705 0
M  V30 7952 C 732.716 -3.58447 -0.393424 0
M  V30 7953 O 731.82 -3.85038 -1.47714 0
M  V30 7954 H 731.161 -0.66398 0.0050993 0
M  V30 7955 H 733.691 -1.94362 0.639095 0
M  V30 7956 H 733.701 -4.02961 -0.639222 0
M  V30 7957 H 732.376 -4.12774 0.508946 0
M  V30 7958 H 730.953 -3.52376 -1.22006 0
M  V30 7959 N 733.138 -0.185124 -1.56509 0
M  V30 7960 C 734.363 0.465278 -2.02114 0
M  V30 7961 C 734.788 1.55083 -1.06447 0
M  V30 7962 O 734.146 1.81241 -0.0462852 0
M  V30 7963 C 734.194 1.00784 -3.46229 0
M  V30 7964 O 733.298 2.12123 -3.53663 0
M  V30 7965 H 732.639 0.109891 -0.654843 0
M  V30 7966 H 735.169 -0.293072 -2.0249 0
M  V30 7967 H 735.179 1.32697 -3.85818 0
M  V30 7968 H 733.854 0.213113 -4.15354 0
M  V30 7969 H 732.431 1.8115 -3.25943 0
M  V30 7970 N 734.616 1.57351 0.0885366 0
M  V30 7971 C 735.563 2.02523 1.10693 0
M  V30 7972 C 736.533 0.902736 1.39427 0
M  V30 7973 O 737.718 1.16921 1.50779 0
M  V30 7974 C 734.858 2.46013 2.42016 0
M  V30 7975 C 733.971 3.7181 2.19957 0
M  V30 7976 C 733.106 4.04152 3.44724 0
M  V30 7977 C 732.145 5.2304 3.17956 0
M  V30 7978 N 731.282 5.51102 4.35007 0
M  V30 7979 H 736.122 2.89302 0.714742 0
M  V30 7980 H 733.659 1.43084 0.341378 0
M  V30 7981 H 735.617 2.69274 3.18665 0
M  V30 7982 H 734.247 1.62235 2.79069 0
M  V30 7983 H 733.299 3.55987 1.34079 0
M  V30 7984 H 734.611 4.58604 1.96173 0
M  V30 7985 H 733.765 4.28225 4.29777 0
M  V30 7986 H 732.504 3.15893 3.71568 0
M  V30 7987 H 731.509 4.98781 2.31296 0
M  V30 7988 H 732.734 6.12902 2.92451 0
M  V30 7989 H 730.68 4.65802 4.61914 0
M  V30 7990 H 730.597 6.3228 4.14437 0
M  V30 7991 H 731.865 5.79714 5.21106 0
M  V30 7992 N 736.094 -0.359525 1.53444 0
M  V30 7993 C 737.342 -1.09935 1.69584 0
M  V30 7994 C 737.663 -1.89656 0.453371 0
M  V30 7995 O 736.933 -1.8852 -0.53263 0
M  V30 7996 H 735.513 -0.408843 0.625185 0
M  V30 7997 H 738.175 -0.40467 1.90653 0
M  V30 7998 H 737.271 -1.78575 2.55964 0
M  V30 7999 N 737.572 -1.44907 -0.619662 0
M  V30 8000 C 738.819 -1.48292 -1.37898 0
M  V30 8001 C 739.147 -0.119933 -1.9413 0
M  V30 8002 O 738.402 0.879834 -1.74807 0
M  V30 8003 C 738.701 -2.50002 -2.55409 0
M  V30 8004 C 738.367 -3.95031 -2.17397 0
M  V30 8005 C 737.029 -4.34524 -2.06743 0
M  V30 8006 C 739.381 -4.86287 -1.87548 0
M  V30 8007 C 736.709 -5.63183 -1.64445 0
M  V30 8008 C 739.061 -6.15346 -1.4674 0
M  V30 8009 C 737.725 -6.53781 -1.34636 0
M  V30 8010 H 736.995 -0.542638 -0.504603 0
M  V30 8011 H 739.642 -1.78186 -0.701581 0
M  V30 8012 H 737.947 -2.13634 -3.28433 0
M  V30 8013 H 739.644 -2.49864 -3.13639 0
M  V30 8014 H 736.234 -3.63793 -2.26611 0
M  V30 8015 H 740.418 -4.56522 -1.94682 0
M  V30 8016 H 735.674 -5.91769 -1.53687 0
M  V30 8017 H 739.848 -6.85508 -1.22685 0
M  V30 8018 H 737.475 -7.53375 -1.01634 0
M  V30 8019 N 739.05 0.861098 -1.31996 0
M  V30 8020 C 739.998 1.99052 -1.20337 0
M  V30 8021 C 740.992 1.69045 -0.109623 0
M  V30 8022 O 742.198 1.77931 -0.272117 0
M  V30 8023 H 738.573 0.653064 -0.372843 0
M  V30 8024 H 740.544 2.06015 -2.15872 0
M  V30 8025 C 739.293 3.34846 -0.936663 0
M  V30 8026 H 738.616 3.58462 -1.77045 0
M  V30 8027 H 740.056 4.1444 -0.895302 0
M  V30 8028 C 738.515 3.34965 0.360607 0
M  V30 8029 O 739.045 3.7745 1.37456 0
M  V30 8030 N 737.251 2.88101 0.380296 0
M  V30 8031 H 736.798 2.53721 -0.445351 0
M  V30 8032 H 736.756 2.88563 1.24816 0
M  V30 8033 N 740.528 1.15101 1.07655 0
M  V30 8034 C 741.756 0.947731 1.83918 0
M  V30 8035 C 742.171 -0.503927 1.81951 0
M  V30 8036 O 741.528 -1.34941 1.2287 0
M  V30 8037 C 741.579 1.4503 3.31132 0
M  V30 8038 O 741.3 2.84508 3.33146 0
M  V30 8039 C 742.801 1.28806 4.24174 0
M  V30 8040 H 740.021 0.336786 0.580358 0
M  V30 8041 H 742.565 1.52799 1.35914 0
M  V30 8042 H 740.72 0.912632 3.76497 0
M  V30 8043 H 741.134 3.0723 4.251 0
M  V30 8044 H 742.608 1.6882 5.25551 0
M  V30 8045 H 743.085 0.231851 4.38588 0
M  V30 8046 H 743.691 1.81465 3.84643 0
M  V30 8047 N 742.006 -1.2595 0.947325 0
M  V30 8048 C 743.234 -1.97544 0.615127 0
M  V30 8049 C 743.649 -1.70484 -0.811221 0
M  V30 8050 O 743.006 -0.97662 -1.5417 0
M  V30 8051 C 743.057 -3.51236 0.855328 0
M  V30 8052 O 742.778 -3.77359 2.22558 0
M  V30 8053 C 744.279 -4.40066 0.534515 0
M  V30 8054 H 741.499 -0.629888 0.231263 0
M  V30 8055 H 744.043 -1.60308 1.26971 0
M  V30 8056 H 742.198 -3.8661 0.247266 0
M  V30 8057 H 742.612 -4.71857 2.29022 0
M  V30 8058 H 744.086 -5.46838 0.753168 0
M  V30 8059 H 744.563 -4.35982 -0.530701 0
M  V30 8060 H 745.169 -4.10245 1.12158 0
M  V30 8061 N 743.484 -0.715051 -1.40445 0
M  V30 8062 C 744.73 -0.254705 -2.01194 0
M  V30 8063 C 745.063 1.14894 -1.56567 0
M  V30 8064 O 744.338 1.77933 -0.785491 0
M  V30 8065 C 744.621 -0.334148 -3.58546 0
M  V30 8066 C 744.474 -1.77613 -4.13248 0
M  V30 8067 C 745.793 0.294968 -4.3911 0
M  V30 8068 H 742.912 -0.094025 -0.730978 0
M  V30 8069 H 745.554 -0.907449 -1.66929 0
M  V30 8070 H 743.704 0.221609 -3.87867 0
M  V30 8071 H 745.376 -2.38723 -3.94727 0
M  V30 8072 H 743.619 -2.30402 -3.67556 0
M  V30 8073 H 744.29 -1.78311 -5.22407 0
M  V30 8074 H 746.766 -0.178563 -4.15717 0
M  V30 8075 H 745.642 0.208934 -5.48502 0
M  V30 8076 H 745.903 1.37841 -4.20062 0
M  V30 8077 N 744.962 1.50701 -0.461195 0
M  V30 8078 C 746.21 2.01867 0.0970051 0
M  V30 8079 C 746.531 1.34591 1.41104 0
M  V30 8080 O 745.801 0.488041 1.89723 0
M  V30 8081 H 744.381 0.74599 0.0388392 0
M  V30 8082 H 747.043 1.85129 -0.609357 0
M  V30 8083 H 746.139 3.11051 0.255688 0
M  V30 8084 N 746.441 0.193421 1.56409 0
M  V30 8085 C 747.371 -0.723334 2.22014 0
M  V30 8086 C 748.352 -1.22254 1.1827 0
M  V30 8087 O 749.537 -1.27168 1.46771 0
M  V30 8088 C 746.667 -1.94366 2.87818 0
M  V30 8089 C 745.621 -1.57943 3.97791 0
M  V30 8090 C 744.947 -2.87623 4.50752 0
M  V30 8091 C 746.247 -0.790639 5.16281 0
M  V30 8092 H 747.941 -0.176426 2.9888 0
M  V30 8093 H 745.487 -0.0834166 1.43758 0
M  V30 8094 H 747.44 -2.5902 3.32396 0
M  V30 8095 H 746.164 -2.51507 2.08355 0
M  V30 8096 H 744.823 -0.956482 3.53903 0
M  V30 8097 H 744.471 -3.4285 3.68053 0
M  V30 8098 H 744.171 -2.63998 5.24956 0
M  V30 8099 H 745.695 -3.53268 4.9803 0
M  V30 8100 H 747.109 -1.34024 5.57414 0
M  V30 8101 H 745.506 -0.65258 5.96541 0
M  V30 8102 H 746.576 0.208633 4.84451 0
M  V30 8103 N 747.919 -1.57396 -0.0801906 0
M  V30 8104 C 749.144 -1.91437 -0.797909 0
M  V30 8105 C 749.569 -0.789075 -1.70749 0
M  V30 8106 O 748.927 0.25857 -1.79447 0
M  V30 8107 C 748.975 -3.24402 -1.57467 0
M  V30 8108 O 748.079 -3.13043 -2.68473 0
M  V30 8109 H 747.42 -0.627109 -0.218243 0
M  V30 8110 H 749.95 -2.04537 -0.050949 0
M  V30 8111 H 749.96 -3.58072 -1.95571 0
M  V30 8112 H 748.635 -4.05884 -0.907229 0
M  V30 8113 H 747.212 -2.90915 -2.33287 0
M  V30 8114 N 749.397 0.351382 -1.53633 0
M  V30 8115 C 750.345 1.45142 -1.8176 0
M  V30 8116 C 751.339 1.54819 -0.687571 0
M  V30 8117 O 752.545 1.57536 -0.870772 0
M  V30 8118 H 748.92 0.483789 -0.575719 0
M  V30 8119 H 750.891 1.1863 -2.73806 0
M  V30 8120 C 749.64 2.81779 -2.03706 0
M  V30 8121 H 748.963 2.75097 -2.90107 0
M  V30 8122 H 750.403 3.5789 -2.27356 0
M  V30 8123 C 748.862 3.26762 -0.820271 0
M  V30 8124 O 749.392 4.01697 -0.0158603 0
M  V30 8125 N 747.598 2.83472 -0.639699 0
M  V30 8126 H 747.145 2.22655 -1.29547 0
M  V30 8127 H 747.103 3.13924 0.172995 0
M  V30 8128 N 750.875 1.45233 0.611969 0
M  V30 8129 C 751.805 1.5641 1.73373 0
M  V30 8130 C 752.786 0.415896 1.64937 0
M  V30 8131 O 753.971 0.638478 1.83404 0
M  V30 8132 C 751.101 1.52627 3.11965 0
M  V30 8133 C 750.055 2.66119 3.35208 0
M  V30 8134 C 749.381 2.4739 4.74028 0
M  V30 8135 C 750.681 4.08157 3.25891 0
M  V30 8136 H 752.375 2.50307 1.64277 0
M  V30 8137 H 749.921 1.20467 0.788904 0
M  V30 8138 H 751.874 1.59043 3.90235 0
M  V30 8139 H 750.598 0.552564 3.21892 0
M  V30 8140 H 749.257 2.59123 2.59327 0
M  V30 8141 H 748.905 1.48168 4.80682 0
M  V30 8142 H 748.605 3.23494 4.90536 0
M  V30 8143 H 750.129 2.55653 5.54503 0
M  V30 8144 H 751.543 4.1642 3.9404 0
M  V30 8145 H 749.94 4.84617 3.5393 0
M  V30 8146 H 751.01 4.30374 2.23397 0
M  V30 8147 N 752.353 -0.854086 1.3245 0
M  V30 8148 C 753.578 -1.64597 1.26185 0
M  V30 8149 C 754.003 -1.87357 -0.167074 0
M  V30 8150 O 753.361 -1.42675 -1.11864 0
M  V30 8151 C 753.409 -2.98213 2.02734 0
M  V30 8152 O 752.513 -3.88784 1.37554 0
M  V30 8153 H 751.854 -0.50179 0.434859 0
M  V30 8154 H 754.384 -1.06372 1.74775 0
M  V30 8155 H 754.394 -3.4803 2.1293 0
M  V30 8156 H 753.069 -2.80969 3.06642 0
M  V30 8157 H 751.646 -3.4725 1.3591 0
M  V30 8158 N 753.831 -1.1567 -1.07043 0
M  V30 8159 C 755.078 -0.933517 -1.79699 0
M  V30 8160 C 755.406 0.539162 -1.86878 0
M  V30 8161 O 754.661 1.41592 -1.35093 0
M  V30 8162 C 754.96 -1.49677 -3.24548 0
M  V30 8163 C 754.626 -2.99047 -3.37463 0
M  V30 8164 C 753.288 -3.39824 -3.40695 0
M  V30 8165 C 755.64 -3.95027 -3.40004 0
M  V30 8166 C 752.968 -4.75215 -3.44075 0
M  V30 8167 C 755.32 -5.30295 -3.44921 0
M  V30 8168 C 753.984 -5.70562 -3.46432 0
M  V30 8169 H 753.254 -0.341598 -0.657565 0
M  V30 8170 H 755.901 -1.44263 -1.25938 0
M  V30 8171 H 754.206 -0.908915 -3.81111 0
M  V30 8172 H 755.903 -1.29986 -3.79348 0
M  V30 8173 H 752.493 -2.6653 -3.35648 0
M  V30 8174 H 756.677 -3.64596 -3.36725 0
M  V30 8175 H 751.933 -5.05754 -3.43545 0
M  V30 8176 H 756.107 -6.0446 -3.45833 0
M  V30 8177 H 753.734 -6.75456 -3.48803 0
M  V30 8178 N 755.309 1.25446 -0.953992 0
M  V30 8179 C 756.557 1.92762 -0.607227 0
M  V30 8180 C 756.878 1.7509 0.858399 0
M  V30 8181 O 756.148 1.11416 1.61132 0
M  V30 8182 H 754.728 0.713377 -0.221591 0
M  V30 8183 H 757.39 1.52625 -1.21209 0
M  V30 8184 H 756.486 3.00695 -0.835998 0
M  V30 8185 N 756.787 0.722489 1.40064 0
M  V30 8186 C 757.717 0.0892452 2.33329 0
M  V30 8187 C 758.698 -0.737992 1.53257 0
M  V30 8188 O 759.883 -0.685516 1.81698 0
M  V30 8189 C 757.013 -0.828139 3.37282 0
M  V30 8190 C 755.967 -0.106005 4.27869 0
M  V30 8191 C 755.293 -1.13957 5.22415 0
M  V30 8192 C 756.593 1.04395 5.11761 0
M  V30 8193 H 758.287 0.868269 2.86534 0
M  V30 8194 H 755.833 0.418982 1.3777 0
M  V30 8195 H 757.786 -1.28058 4.01471 0
M  V30 8196 H 756.51 -1.63914 2.82489 0
M  V30 8197 H 755.169 0.326683 3.65142 0
M  V30 8198 H 754.817 -1.9438 4.63924 0
M  V30 8199 H 754.517 -0.661233 5.83868 0
M  V30 8200 H 756.041 -1.59197 5.89482 0
M  V30 8201 H 757.455 0.670541 5.69365 0
M  V30 8202 H 755.852 1.4511 5.82291 0
M  V30 8203 H 756.922 1.87144 4.47331 0
M  V30 8204 N 758.265 -1.50454 0.469181 0
M  V30 8205 C 759.676 -1.86695 0.0136034 0
M  V30 8206 C 760.027 -1.38413 -1.39055 0
M  V30 8207 O 759.152 -0.748294 -2.03051 0
M  V30 8208 C 759.747 -3.38795 0.0179098 0
M  V30 8209 C 758.306 -3.74455 -0.382191 0
M  V30 8210 C 757.453 -2.74338 0.404207 0
M  V30 8211 H 760.404 -1.43225 0.683547 0
M  V30 8212 H 760.425 -3.72321 -0.78468 0
M  V30 8213 H 759.937 -3.73906 1.04 0
M  V30 8214 H 758.038 -3.44944 -1.4087 0
M  V30 8215 H 758.151 -4.79025 -0.084862 0
M  V30 8216 H 756.515 -2.54305 -0.141829 0
M  V30 8217 H 757.298 -3.12293 1.42577 0
M  V30 8218 N 759.743 -0.201713 -1.56304 0
M  V30 8219 C 761.02 0.483273 -1.89536 0
M  V30 8220 C 761.4 1.79176 -1.11621 0
M  V30 8221 O 760.748 2.27445 -0.219339 0
M  V30 8222 C 760.958 0.695604 -3.41998 0
M  V30 8223 C 762.306 1.012 -4.12364 0
M  V30 8224 O 763.33 0.783094 -3.47485 0
M  V30 8225 O 762.189 1.44534 -5.27041 0
M  V30 8226 H 759.283 0.252801 -0.787414 0
M  V30 8227 H 761.829 -0.24242 -1.6796 0
M  V30 8228 H 760.601 -0.228165 -3.90634 0
M  V30 8229 H 760.224 1.47351 -3.69288 0
M  V30 8230 N 761.222 1.57436 0.0718424 0
M  V30 8231 C 762.638 1.53792 0.426628 0
M  V30 8232 C 762.838 0.921887 1.79174 0
M  V30 8233 O 761.894 0.524374 2.46995 0
M  V30 8234 C 763.207 2.98443 0.367739 0
M  V30 8235 C 764.755 3.09778 0.447928 0
M  V30 8236 C 765.23 4.5608 0.418946 0
M  V30 8237 N 766.721 4.60716 0.479022 0
M  V30 8238 C 767.456 5.71397 0.47881 0
M  V30 8239 N 766.952 6.91443 0.433417 0
M  V30 8240 N 768.745 5.59639 0.525364 0
M  V30 8241 H 760.896 1.95848 -0.822033 0
M  V30 8242 H 763.159 0.896418 -0.308447 0
M  V30 8243 H 762.865 3.47072 -0.56865 0
M  V30 8244 H 762.739 3.58335 1.17795 0
M  V30 8245 H 765.126 2.61122 1.37474 0
M  V30 8246 H 765.207 2.52796 -0.390857 0
M  V30 8247 H 764.851 5.05393 -0.504016 0
M  V30 8248 H 764.781 5.10925 1.27526 0
M  V30 8249 H 767.272 3.74328 0.518355 0
M  V30 8250 H 767.585 7.71562 0.43718 0
M  V30 8251 H 765.93 6.93847 0.400106 0
M  V30 8252 H 769.121 4.64756 0.558519 0
M  V30 8253 H 769.294 6.45896 0.52173 0
M  V30 8254 N 762.7 -0.34323 1.53817 0
M  V30 8255 C 763.925 -1.1079 1.75329 0
M  V30 8256 C 764.35 -1.81571 0.491293 0
M  V30 8257 O 763.708 -1.72561 -0.556089 0
M  V30 8258 C 763.756 -2.09681 2.9337 0
M  V30 8259 O 762.86 -3.17207 2.63541 0
M  V30 8260 H 762.201 -0.320402 0.581583 0
M  V30 8261 H 764.731 -0.393525 2.0078 0
M  V30 8262 H 764.741 -2.52897 3.20168 0
M  V30 8263 H 763.416 -1.5756 3.84899 0
M  V30 8264 H 761.993 -2.78806 2.47632 0
M  V30 8265 N 764.178 -1.45556 -0.604258 0
M  V30 8266 C 765.408 -1.53056 -1.38771 0
M  V30 8267 C 765.816 -0.163092 -1.88496 0
M  V30 8268 O 765.159 0.846157 -1.63052 0
M  V30 8269 C 765.221 -2.45656 -2.62476 0
M  V30 8270 C 764.885 -3.92328 -2.34367 0
M  V30 8271 C 765.882 -4.82137 -1.94525 0
M  V30 8272 C 763.567 -4.37275 -2.47177 0
M  V30 8273 C 765.561 -6.14901 -1.67856 0
M  V30 8274 C 763.248 -5.70079 -2.20122 0
M  V30 8275 C 764.246 -6.58711 -1.80524 0
M  V30 8276 O 763.934 -7.89053 -1.53788 0
M  V30 8277 H 763.666 -0.520721 -0.431075 0
M  V30 8278 H 766.22 -1.91464 -0.743693 0
M  V30 8279 H 764.45 -2.02225 -3.29609 0
M  V30 8280 H 766.139 -2.43802 -3.24523 0
M  V30 8281 H 766.905 -4.48675 -1.84162 0
M  V30 8282 H 762.784 -3.68527 -2.76964 0
M  V30 8283 H 766.328 -6.8404 -1.36874 0
M  V30 8284 H 762.225 -6.03095 -2.30102 0
M  V30 8285 H 762.993 -8.01113 -1.67812 0
M  V30 8286 N 765.656 0.84705 -1.32902 0
M  V30 8287 C 766.886 1.63166 -1.26729 0
M  V30 8288 C 767.294 1.88474 0.165595 0
M  V30 8289 O 766.637 1.45947 1.11558 0
M  V30 8290 C 766.699 3.0103 -1.96522 0
M  V30 8291 C 766.363 2.9873 -3.45846 0
M  V30 8292 C 767.36 2.75032 -4.41196 0
M  V30 8293 C 765.045 3.19125 -3.87898 0
M  V30 8294 C 767.039 2.71743 -5.76571 0
M  V30 8295 C 764.726 3.15462 -5.2338 0
M  V30 8296 C 765.724 2.91801 -6.17528 0
M  V30 8297 O 765.412 2.88027 -7.5053 0
M  V30 8298 H 765.144 0.51469 -0.438258 0
M  V30 8299 H 767.698 1.06383 -1.75704 0
M  V30 8300 H 765.928 3.59634 -1.42128 0
M  V30 8301 H 767.617 3.61821 -1.83958 0
M  V30 8302 H 768.383 2.59034 -4.10032 0
M  V30 8303 H 764.262 3.36565 -3.15032 0
M  V30 8304 H 767.806 2.53194 -6.5003 0
M  V30 8305 H 763.703 3.31006 -5.54171 0
M  V30 8306 H 764.471 3.03927 -7.59981 0
M  V30 8307 N 767.134 1.16236 1.06428 0
M  V30 8308 C 768.082 0.863669 2.15971 0
M  V30 8309 C 769.076 -0.166723 1.68578 0
M  V30 8310 O 770.282 -0.0208425 1.79988 0
M  V30 8311 H 766.657 0.261684 0.705 0
M  V30 8312 H 768.628 1.79498 2.38376 0
M  V30 8313 C 767.377 0.379697 3.45621 0
M  V30 8314 H 766.7 1.16399 3.82481 0
M  V30 8315 H 768.14 0.209458 4.23482 0
M  V30 8316 C 766.599 -0.900499 3.24642 0
M  V30 8317 O 767.129 -1.97004 3.50074 0
M  V30 8318 N 765.335 -0.843721 2.78082 0
M  V30 8319 H 764.882 0.0268429 2.57586 0
M  V30 8320 H 764.84 -1.70078 2.64425 0
M  V30 8321 N 768.612 -1.24939 0.960631 0
M  V30 8322 C 769.84 -1.96881 0.636045 0
M  V30 8323 C 770.255 -1.71334 -0.793093 0
M  V30 8324 O 769.612 -0.992917 -1.53125 0
M  V30 8325 C 769.663 -3.50309 0.892533 0
M  V30 8326 O 769.384 -3.74977 2.26548 0
M  V30 8327 C 770.885 -4.39474 0.581159 0
M  V30 8328 H 768.105 -0.627399 0.237931 0
M  V30 8329 H 770.649 -1.58952 1.28664 0
M  V30 8330 H 768.804 -3.86326 0.288257 0
M  V30 8331 H 769.218 -4.69401 2.34014 0
M  V30 8332 H 770.692 -5.46008 0.811125 0
M  V30 8333 H 771.169 -4.3652 -0.48443 0
M  V30 8334 H 771.775 -4.09032 1.16502 0
M  V30 8335 N 770.09 -0.729906 -1.39679 0
M  V30 8336 C 771.053 -0.0951668 -2.29002 0
M  V30 8337 C 772.053 0.672471 -1.46063 0
M  V30 8338 O 773.243 0.502245 -1.66803 0
M  V30 8339 C 770.375 0.874631 -3.29489 0
M  V30 8340 H 771.568 -0.882062 -2.86635 0
M  V30 8341 H 769.121 -0.495424 -1.4824 0
M  V30 8342 H 769.856 1.68807 -2.76902 0
M  V30 8343 H 769.641 0.326893 -3.90735 0
M  V30 8344 H 771.131 1.31548 -3.96339 0
M  V30 8345 N 771.568 1.50203 -0.477153 0
M  V30 8346 C 772.815 2.02358 0.0757385 0
M  V30 8347 C 773.143 1.3587 1.39174 0
M  V30 8348 O 772.398 0.475415 1.89838 0
M  V30 8349 C 772.697 3.56127 0.301325 0
M  V30 8350 C 772.363 4.41126 -0.933725 0
M  V30 8351 C 771.025 4.64075 -1.27233 0
M  V30 8352 C 773.377 4.90737 -1.75576 0
M  V30 8353 C 770.705 5.33878 -2.43292 0
M  V30 8354 C 773.057 5.61816 -2.90768 0
M  V30 8355 C 771.721 5.83016 -3.25036 0
M  V30 8356 H 770.991 0.740482 0.0277147 0
M  V30 8357 H 773.638 1.80754 -0.632467 0
M  V30 8358 H 771.943 3.76279 1.09183 0
M  V30 8359 H 773.64 3.94053 0.743184 0
M  V30 8360 H 770.23 4.23489 -0.659935 0
M  V30 8361 H 774.414 4.72856 -1.50734 0
M  V30 8362 H 769.67 5.48499 -2.70109 0
M  V30 8363 H 773.844 5.99237 -3.54807 0
M  V30 8364 H 771.471 6.36881 -4.15074 0
M  V30 8365 N 773.046 0.209999 1.56195 0
M  V30 8366 C 773.976 -0.699746 2.22769 0
M  V30 8367 C 774.957 -1.20993 1.1956 0
M  V30 8368 O 776.142 -1.25605 1.48112 0
M  V30 8369 C 773.272 -1.91302 2.89863 0
M  V30 8370 C 772.226 -1.53715 3.99444 0
M  V30 8371 C 771.552 -2.82826 4.53777 0
M  V30 8372 C 772.852 -0.735836 5.17091 0
M  V30 8373 H 774.546 -0.144716 2.9905 0
M  V30 8374 H 772.092 -0.0681645 1.43839 0
M  V30 8375 H 774.045 -2.5548 3.35124 0
M  V30 8376 H 772.769 -2.49283 2.11011 0
M  V30 8377 H 771.428 -0.918892 3.54897 0
M  V30 8378 H 771.076 -3.38927 3.71669 0
M  V30 8379 H 770.776 -2.58415 5.27727 0
M  V30 8380 H 772.3 -3.47966 5.01749 0
M  V30 8381 H 773.714 -1.28105 5.58804 0
M  V30 8382 H 772.111 -0.589272 5.972 0
M  V30 8383 H 773.181 0.260004 4.84202 0
M  V30 8384 N 774.524 -1.57472 -0.0634922 0
M  V30 8385 C 775.77 -1.87932 -0.762194 0
M  V30 8386 C 776.103 -0.803377 -1.76804 0
M  V30 8387 O 775.378 0.185468 -1.93614 0
M  V30 8388 C 775.661 -3.29053 -1.46275 0
M  V30 8389 C 775.514 -4.47309 -0.472755 0
M  V30 8390 C 776.833 -3.68537 -2.40558 0
M  V30 8391 H 773.952 -0.683521 -0.275624 0
M  V30 8392 H 776.594 -1.89983 -0.0252651 0
M  V30 8393 H 774.744 -3.27435 -2.0909 0
M  V30 8394 H 776.416 -4.61053 0.150828 0
M  V30 8395 H 774.659 -4.33286 0.211187 0
M  V30 8396 H 775.33 -5.42853 -1.00072 0
M  V30 8397 H 777.806 -3.71302 -1.87814 0
M  V30 8398 H 776.682 -4.68152 -2.86574 0
M  V30 8399 H 776.943 -2.98917 -3.25731 0
M  V30 8400 N 776.003 0.335068 -1.53997 0
M  V30 8401 C 776.933 1.41727 -1.85568 0
M  V30 8402 C 777.914 1.54505 -0.7115 0
M  V30 8403 O 779.099 1.68573 -0.964191 0
M  V30 8404 C 776.229 2.7866 -2.07282 0
M  V30 8405 C 775.183 2.80682 -3.23112 0
M  V30 8406 C 774.509 4.20581 -3.30175 0
M  V30 8407 C 775.809 2.45458 -4.61029 0
M  V30 8408 H 777.503 1.15555 -2.76202 0
M  V30 8409 H 775.049 0.554445 -1.32898 0
M  V30 8410 H 777.002 3.54423 -2.27952 0
M  V30 8411 H 775.726 3.06286 -1.13387 0
M  V30 8412 H 774.385 2.07373 -3.02311 0
M  V30 8413 H 774.033 4.4533 -2.33859 0
M  V30 8414 H 773.733 4.22843 -4.08016 0
M  V30 8415 H 775.257 4.98174 -3.53066 0
M  V30 8416 H 776.671 3.10934 -4.81656 0
M  V30 8417 H 775.068 2.5899 -5.41336 0
M  V30 8418 H 776.138 1.40628 -4.6406 0
M  V30 8419 N 777.481 1.45874 0.596531 0
M  V30 8420 C 778.729 1.5017 1.35253 0
M  V30 8421 C 779.05 0.149246 1.94428 0
M  V30 8422 O 778.32 -0.82268 1.77789 0
M  V30 8423 H 776.9 0.553052 0.502138 0
M  V30 8424 H 779.562 1.81908 0.699671 0
M  V30 8425 H 778.658 2.24671 2.16632 0
M  V30 8426 N 778.959 -0.83999 1.33349 0
M  V30 8427 C 780.208 -1.59011 1.2409 0
M  V30 8428 C 780.521 -1.94655 -0.192029 0
M  V30 8429 O 781.727 -2.68438 -0.406617 0
M  V30 8430 C 780.183 -2.86801 2.17425 0
M  V30 8431 C 779.791 -2.58525 3.65881 0
M  V30 8432 C 781.535 -3.64823 2.17036 0
M  V30 8433 C 779.442 -3.82404 4.51133 0
M  V30 8434 H 778.372 -0.596731 0.460899 0
M  V30 8435 H 781.023 -0.926274 1.58406 0
M  V30 8436 H 779.405 -3.54719 1.7604 0
M  V30 8437 H 780.579 -1.98824 4.15699 0
M  V30 8438 H 778.894 -1.93808 3.68548 0
M  V30 8439 H 781.491 -4.56774 2.7796 0
M  V30 8440 H 781.834 -3.99663 1.16513 0
M  V30 8441 H 782.367 -3.03826 2.56777 0
M  V30 8442 H 779.106 -3.52696 5.52527 0
M  V30 8443 H 778.626 -4.41447 4.0606 0
M  V30 8444 H 780.305 -4.49995 4.6488 0
M  V30 8445 N 780.437 -1.16799 -1.0581 0
M  V30 8446 C 781.662 -0.977402 -1.82925 0
M  V30 8447 C 782.087 0.469514 -1.82146 0
M  V30 8448 O 781.445 1.33576 -1.22585 0
M  V30 8449 C 781.493 -1.51543 -3.27211 0
M  V30 8450 O 780.597 -0.725021 -4.05977 0
M  V30 8451 H 779.938 -0.347474 -0.565825 0
M  V30 8452 H 782.468 -1.55151 -1.33376 0
M  V30 8453 H 782.478 -1.53502 -3.78023 0
M  V30 8454 H 781.153 -2.56872 -3.27093 0
M  V30 8455 H 779.73 -0.77634 -3.64729 0
M  V30 8456 N 781.915 1.24427 -0.967243 0
M  V30 8457 C 782.862 2.25398 -0.496419 0
M  V30 8458 C 783.832 1.59667 0.457781 0
M  V30 8459 O 785.017 1.87213 0.368246 0
M  V30 8460 C 782.157 3.44474 0.207693 0
M  V30 8461 C 781.27 4.24804 -0.785221 0
M  V30 8462 C 780.405 5.31169 -0.0572631 0
M  V30 8463 C 779.444 6.03195 -1.04027 0
M  V30 8464 N 778.581 7.01265 -0.34235 0
M  V30 8465 H 783.421 2.65039 -1.36229 0
M  V30 8466 H 780.958 1.30288 -0.682902 0
M  V30 8467 H 782.916 4.12376 0.632612 0
M  V30 8468 H 781.546 3.05672 1.03752 0
M  V30 8469 H 780.598 3.56445 -1.32858 0
M  V30 8470 H 781.91 4.74599 -1.53483 0
M  V30 8471 H 781.064 6.05205 0.425674 0
M  V30 8472 H 779.803 4.8228 0.725047 0
M  V30 8473 H 778.808 5.27964 -1.53409 0
M  V30 8474 H 780.033 6.54173 -1.82302 0
M  V30 8475 H 777.979 6.54648 0.420993 0
M  V30 8476 H 777.896 7.48939 -1.03084 0
M  V30 8477 H 779.164 7.7941 0.118634 0
M  V30 8478 N 783.393 0.737304 1.3929 0
M  V30 8479 C 784.641 0.285691 2.00071 0
M  V30 8480 C 784.962 -1.13169 1.58801 0
M  V30 8481 O 784.232 -1.77104 0.837308 0
M  V30 8482 H 782.812 0.102638 0.739915 0
M  V30 8483 H 785.474 0.947775 1.70303 0
M  V30 8484 H 784.57 0.335906 3.10287 0
M  V30 8485 N 784.871 -1.49948 0.485112 0
M  V30 8486 C 785.801 -2.31675 -0.291364 0
M  V30 8487 C 786.782 -1.39216 -0.977383 0
M  V30 8488 O 787.967 -1.68133 -0.971855 0
M  V30 8489 C 785.097 -3.19326 -1.36558 0
M  V30 8490 C 784.051 -4.2045 -0.800359 0
M  V30 8491 C 783.377 -4.96931 -1.97391 0
M  V30 8492 C 784.677 -5.21925 0.197867 0
M  V30 8493 H 786.371 -2.96839 0.390775 0
M  V30 8494 H 783.917 -1.42749 0.189375 0
M  V30 8495 H 785.87 -3.75304 -1.91638 0
M  V30 8496 H 784.594 -2.52074 -2.07668 0
M  V30 8497 H 783.253 -3.65594 -0.271428 0
M  V30 8498 H 782.901 -4.26141 -2.67232 0
M  V30 8499 H 782.601 -5.65344 -1.60187 0
M  V30 8500 H 784.125 -5.55749 -2.52935 0
M  V30 8501 H 785.539 -5.72691 -0.264239 0
M  V30 8502 H 783.936 -5.98138 0.484908 0
M  V30 8503 H 785.006 -4.71809 1.11912 0
M  V30 8504 N 786.349 -0.21828 -1.56081 0
M  V30 8505 C 787.574 0.422302 -2.03055 0
M  V30 8506 C 787.999 1.5279 -1.09713 0
M  V30 8507 O 787.357 1.81102 -0.0847187 0
M  V30 8508 C 787.405 0.934177 -3.48289 0
M  V30 8509 O 786.509 2.04574 -3.58083 0
M  V30 8510 H 785.85 0.0959764 -0.657027 0
M  V30 8511 H 788.38 -0.335958 -2.01823 0
M  V30 8512 H 788.39 1.24484 -3.88546 0
M  V30 8513 H 787.065 0.124963 -4.15712 0
M  V30 8514 H 785.642 1.74196 -3.29712 0
M  V30 8515 N 787.827 1.57504 0.0551401 0
M  V30 8516 C 789.052 1.92682 0.767352 0
M  V30 8517 C 789.477 0.81614 1.69472 0
M  V30 8518 O 788.835 -0.229989 1.79835 0
M  V30 8519 C 788.883 3.26866 1.52286 0
M  V30 8520 O 787.987 3.17274 2.63459 0
M  V30 8521 H 787.328 0.630502 0.208238 0
M  V30 8522 H 789.858 2.04592 0.0184026 0
M  V30 8523 H 789.868 3.61138 1.8985 0
M  V30 8524 H 788.543 4.07276 0.842541 0
M  V30 8525 H 787.12 2.94589 2.2863 0
M  V30 8526 N 789.305 -0.326896 1.54172 0
M  V30 8527 C 790.268 -1.38515 1.8261 0
M  V30 8528 C 791.268 -1.44872 0.697771 0
M  V30 8529 O 792.458 -1.44957 0.966078 0
M  V30 8530 C 789.59 -2.77281 1.98313 0
M  V30 8531 H 790.783 -1.14556 2.77159 0
M  V30 8532 H 788.336 -0.562199 1.45839 0
M  V30 8533 H 789.071 -3.065 1.05964 0
M  V30 8534 H 788.856 -2.74061 2.80416 0
M  V30 8535 H 790.346 -3.53845 2.21773 0
M  V30 8536 N 790.784 -1.46188 -0.588786 0
M  V30 8537 C 792.033 -1.50452 -1.34339 0
M  V30 8538 C 792.346 -0.158096 -1.9496 0
M  V30 8539 O 793.552 -0.0784918 -2.71387 0
M  V30 8540 C 792.008 -2.65074 -2.43441 0
M  V30 8541 C 791.616 -4.06111 -1.8915 0
M  V30 8542 C 793.36 -2.78603 -3.20282 0
M  V30 8543 C 791.267 -5.12084 -2.95845 0
M  V30 8544 H 790.197 -0.559905 -0.504997 0
M  V30 8545 H 792.848 -1.72382 -0.629014 0
M  V30 8546 H 791.23 -2.36462 -3.1765 0
M  V30 8547 H 792.404 -4.44487 -1.21524 0
M  V30 8548 H 790.719 -3.97197 -1.24995 0
M  V30 8549 H 793.316 -3.54944 -3.99898 0
M  V30 8550 H 793.659 -1.85902 -3.72486 0
M  V30 8551 H 794.192 -3.06832 -2.53178 0
M  V30 8552 H 790.931 -6.06556 -2.48535 0
M  V30 8553 H 790.451 -4.78259 -3.61979 0
M  V30 8554 H 792.13 -5.37661 -3.59902 0
M  V30 8555 N 792.262 0.832906 -1.33792 0
M  V30 8556 C 793.195 1.94788 -1.18882 0
M  V30 8557 C 794.173 1.62389 -0.0828426 0
M  V30 8558 O 795.357 1.86886 -0.246175 0
M  V30 8559 C 792.484 3.28506 -0.824728 0
M  V30 8560 C 791.53 3.79872 -1.93905 0
M  V30 8561 S 792.363 4.00832 -3.55097 0
M  V30 8562 C 793.519 5.37492 -3.20708 0
M  V30 8563 H 793.752 2.07137 -2.13264 0
M  V30 8564 H 791.285 0.987362 -1.18704 0
M  V30 8565 H 793.243 4.05769 -0.621442 0
M  V30 8566 H 791.904 3.13939 0.100587 0
M  V30 8567 H 791.097 4.76647 -1.6378 0
M  V30 8568 H 790.699 3.09524 -2.09931 0
M  V30 8569 H 792.991 6.20544 -2.71903 0
M  V30 8570 H 793.934 5.72593 -4.16584 0
M  V30 8571 H 794.342 5.02529 -2.57148 0
M  V30 8572 N 793.74 1.17359 1.05189 0
M  V30 8573 C 794.688 0.886527 2.15043 0
M  V30 8574 C 795.682 -0.148834 1.68745 0
M  V30 8575 O 796.888 -0.00175123 1.8 0
M  V30 8576 H 793.263 0.269147 0.702185 0
M  V30 8577 H 795.234 1.82016 2.36459 0
M  V30 8578 C 793.983 0.416333 3.45198 0
M  V30 8579 H 793.306 1.20449 3.81225 0
M  V30 8580 H 794.746 0.254362 4.23236 0
M  V30 8581 C 793.205 -0.866016 3.25579 0
M  V30 8582 O 793.735 -1.9328 3.52144 0
M  V30 8583 N 791.941 -0.814179 2.78961 0
M  V30 8584 H 791.488 0.0541618 2.57543 0
M  V30 8585 H 791.446 -1.67264 2.66214 0
M  V30 8586 N 795.218 -1.23913 0.973828 0
M  V30 8587 C 796.629 -1.73992 0.677021 0
M  V30 8588 C 796.98 -1.78833 -0.807036 0
M  V30 8589 O 796.105 -1.42183 -1.63135 0
M  V30 8590 C 796.7 -3.15985 1.22226 0
M  V30 8591 C 795.259 -3.63547 0.975228 0
M  V30 8592 C 794.406 -2.42001 1.35392 0
M  V30 8593 H 797.357 -1.09529 1.14844 0
M  V30 8594 H 797.378 -3.75875 0.591489 0
M  V30 8595 H 796.89 -3.12429 2.30238 0
M  V30 8596 H 794.991 -3.72493 -0.0891047 0
M  V30 8597 H 795.104 -4.50693 1.62518 0
M  V30 8598 H 793.468 -2.42708 0.772334 0
M  V30 8599 H 794.251 -2.41122 2.44367 0
M  V30 8600 N 796.696 -0.74468 -1.38897 0
M  V30 8601 C 797.626 -0.126355 -2.33158 0
M  V30 8602 C 798.607 0.713517 -1.54412 0
M  V30 8603 O 799.792 0.656523 -1.82766 0
M  V30 8604 C 796.922 0.774375 -3.38557 0
M  V30 8605 C 795.876 0.0379214 -4.27983 0
M  V30 8606 C 795.202 1.05631 -5.24162 0
M  V30 8607 C 796.502 -1.12523 -5.10035 0
M  V30 8608 H 798.196 -0.913744 -2.85116 0
M  V30 8609 H 795.742 -0.440847 -1.37086 0
M  V30 8610 H 797.695 1.21655 -4.03458 0
M  V30 8611 H 796.419 1.59399 -2.85061 0
M  V30 8612 H 795.078 -0.384733 -3.64576 0
M  V30 8613 H 794.726 1.86975 -4.66958 0
M  V30 8614 H 794.426 0.568261 -5.84846 0
M  V30 8615 H 795.95 1.49799 -5.9194 0
M  V30 8616 H 797.364 -0.761037 -5.68226 0
M  V30 8617 H 795.761 -1.54355 -5.79909 0
M  V30 8618 H 796.831 -1.94237 -4.44297 0
M  V30 8619 N 798.174 1.49689 -0.493057 0
M  V30 8620 C 799.451 1.9525 0.116907 0
M  V30 8621 C 799.831 1.43429 1.54892 0
M  V30 8622 O 799.179 0.644621 2.19219 0
M  V30 8623 C 799.389 3.4898 0.037705 0
M  V30 8624 C 800.737 4.24052 0.215621 0
M  V30 8625 O 801.761 3.5602 0.113266 0
M  V30 8626 O 800.62 5.44847 0.42477 0
M  V30 8627 H 797.714 0.820973 0.099662 0
M  V30 8628 H 800.26 1.60367 -0.555029 0
M  V30 8629 H 799.032 3.79309 -0.961251 0
M  V30 8630 H 798.655 3.9046 0.750137 0
M  V30 8631 N 799.652 0.226554 1.55963 0
M  V30 8632 C 800.562 -0.692725 2.24139 0
M  V30 8633 C 801.578 -1.20971 1.25068 0
M  V30 8634 O 802.754 -1.25027 1.57893 0
M  V30 8635 C 799.819 -1.88183 2.91184 0
M  V30 8636 C 798.88 -1.40633 4.05612 0
M  V30 8637 C 798.113 -2.53875 4.6945 0
M  V30 8638 O 798.336 -3.72129 4.32292 0
M  V30 8639 O 797.27 -2.24792 5.58348 0
M  V30 8640 H 801.096 -0.141921 3.03368 0
M  V30 8641 H 798.681 -0.0041049 1.49399 0
M  V30 8642 H 800.563 -2.57617 3.33484 0
M  V30 8643 H 799.238 -2.42064 2.14911 0
M  V30 8644 H 798.145 -0.67986 3.67871 0
M  V30 8645 H 799.478 -0.913838 4.83642 0
M  V30 8646 N 801.13 -1.57531 -0.0467866 0
M  V30 8647 C 802.358 -1.92696 -0.753371 0
M  V30 8648 C 802.773 -0.824792 -1.69831 0
M  V30 8649 O 802.13 0.200155 -1.81399 0
M  V30 8650 C 802.181 -3.27728 -1.52566 0
M  V30 8651 O 801.902 -4.3371 -0.618674 0
M  V30 8652 C 803.403 -3.77066 -2.33101 0
M  V30 8653 H 800.623 -0.636367 -0.212788 0
M  V30 8654 H 803.167 -2.04498 -0.00959361 0
M  V30 8655 H 801.322 -3.17378 -2.22148 0
M  V30 8656 H 801.736 -5.11548 -1.15839 0
M  V30 8657 H 803.21 -4.74109 -2.82709 0
M  V30 8658 H 803.687 -3.07348 -3.13741 0
M  V30 8659 H 804.293 -3.90442 -1.68628 0
M  V30 8660 N 802.608 0.318715 -1.54344 0
M  V30 8661 C 803.538 1.39751 -1.87061 0
M  V30 8662 C 804.519 1.53741 -0.727848 0
M  V30 8663 O 805.704 1.67541 -0.982016 0
M  V30 8664 C 802.834 2.76446 -2.10226 0
M  V30 8665 C 801.788 2.77239 -3.26071 0
M  V30 8666 C 801.114 4.17056 -3.34617 0
M  V30 8667 C 802.414 2.40555 -4.63606 0
M  V30 8668 H 804.108 1.12619 -2.77412 0
M  V30 8669 H 801.654 0.540318 -1.33479 0
M  V30 8670 H 803.607 3.51985 -2.31699 0
M  V30 8671 H 802.331 3.05066 -1.16629 0
M  V30 8672 H 800.99 2.04155 -3.04493 0
M  V30 8673 H 800.638 4.42824 -2.3857 0
M  V30 8674 H 800.338 4.18492 -4.12478 0
M  V30 8675 H 801.862 4.94401 -3.5833 0
M  V30 8676 H 803.276 3.05808 -4.84927 0
M  V30 8677 H 801.673 2.53234 -5.44052 0
M  V30 8678 H 802.743 1.35698 -4.65526 0
M  V30 8679 N 804.086 1.46499 0.581025 0
M  V30 8680 C 805.019 1.51706 1.70472 0
M  V30 8681 C 805.997 0.371036 1.5831 0
M  V30 8682 O 807.181 0.575426 1.79502 0
M  V30 8683 C 804.308 1.3972 3.08538 0
M  V30 8684 C 803.354 2.58525 3.39215 0
M  V30 8685 S 804.187 4.20872 3.311 0
M  V30 8686 C 805.343 4.11398 4.71702 0
M  V30 8687 H 805.576 2.46777 1.65796 0
M  V30 8688 H 803.109 1.34405 0.759908 0
M  V30 8689 H 805.067 1.33492 3.88188 0
M  V30 8690 H 803.728 0.460742 3.10702 0
M  V30 8691 H 802.921 2.46137 4.3981 0
M  V30 8692 H 802.523 2.61752 2.67136 0
M  V30 8693 H 804.815 3.78182 5.62125 0
M  V30 8694 H 805.758 5.11997 4.89147 0
M  V30 8695 H 806.166 3.42624 4.48631 0
M  V30 8696 N 805.565 -0.825799 1.34232 0
M  V30 8697 C 806.512 -1.93651 1.2557 0
M  V30 8698 C 807.482 -1.65578 0.131536 0
M  V30 8699 O 808.667 -1.88231 0.312027 0
M  V30 8700 C 805.807 -3.29862 1.01415 0
M  V30 8701 C 804.92 -3.70247 2.22579 0
M  V30 8702 C 804.055 -4.95392 1.91731 0
M  V30 8703 C 803.094 -5.28349 3.09053 0
M  V30 8704 N 802.231 -6.44671 2.78107 0
M  V30 8705 H 807.071 -2.00392 2.20561 0
M  V30 8706 H 804.608 -0.980441 1.09662 0
M  V30 8707 H 806.566 -4.08356 0.854485 0
M  V30 8708 H 805.196 -3.22642 0.100936 0
M  V30 8709 H 804.248 -2.87169 2.49476 0
M  V30 8710 H 805.56 -3.90575 3.10246 0
M  V30 8711 H 804.714 -5.81665 1.72484 0
M  V30 8712 H 803.453 -4.77059 1.0132 0
M  V30 8713 H 802.458 -4.40574 3.289 0
M  V30 8714 H 803.683 -5.48622 4.00239 0
M  V30 8715 H 801.629 -6.278 1.9027 0
M  V30 8716 H 801.546 -6.65158 3.59306 0
M  V30 8717 H 802.814 -7.34022 2.62358 0
M  V30 8718 N 807.043 -1.17915 -1.04565 0
M  V30 8719 C 808.271 -0.99616 -1.8134 0
M  V30 8720 C 808.686 0.455509 -1.83223 0
M  V30 8721 O 808.043 1.31636 -1.26405 0
M  V30 8722 C 808.094 -1.53758 -3.27171 0
M  V30 8723 O 807.815 -2.93241 -3.25486 0
M  V30 8724 C 809.316 -1.40007 -4.2061 0
M  V30 8725 H 806.536 -0.352055 -0.571225 0
M  V30 8726 H 809.08 -1.56349 -1.31815 0
M  V30 8727 H 807.235 -1.01213 -3.73945 0
M  V30 8728 H 807.649 -3.18392 -4.16805 0
M  V30 8729 H 809.123 -1.82695 -5.2089 0
M  V30 8730 H 809.6 -0.348054 -4.37819 0
M  V30 8731 H 810.206 -1.916 -3.79697 0
M  V30 8732 N 808.521 1.23394 -0.980386 0
M  V30 8733 C 809.451 2.2717 -0.540024 0
M  V30 8734 C 810.432 1.64659 0.426787 0
M  V30 8735 O 811.617 1.91543 0.320153 0
M  V30 8736 C 808.747 3.46939 0.15836 0
M  V30 8737 C 807.701 4.21802 -0.725732 0
M  V30 8738 C 807.027 5.34597 0.104866 0
M  V30 8739 C 808.327 4.81802 -2.01654 0
M  V30 8740 H 810.021 2.64257 -1.40743 0
M  V30 8741 H 807.567 1.2703 -0.678193 0
M  V30 8742 H 809.52 4.18683 0.477737 0
M  V30 8743 H 808.244 3.08912 1.06022 0
M  V30 8744 H 806.903 3.51875 -1.02857 0
M  V30 8745 H 806.551 4.92812 1.00726 0
M  V30 8746 H 806.251 5.85607 -0.483557 0
M  V30 8747 H 807.775 6.09163 0.418624 0
M  V30 8748 H 809.189 5.45554 -1.76193 0
M  V30 8749 H 807.586 5.43098 -2.55273 0
M  V30 8750 H 808.656 4.02549 -2.70338 0
M  V30 8751 N 809.999 0.752036 1.385 0
M  V30 8752 C 810.947 0.112634 2.32327 0
M  V30 8753 C 811.941 -0.707037 1.53939 0
M  V30 8754 O 813.147 -0.606309 1.69481 0
M  V30 8755 H 809.522 0.0176275 0.751793 0
M  V30 8756 H 811.493 0.920074 2.83861 0
M  V30 8757 C 810.242 -0.767458 3.39124 0
M  V30 8758 H 809.565 -0.146122 3.99533 0
M  V30 8759 H 811.005 -1.18216 4.07187 0
M  V30 8760 C 809.464 -1.90938 2.77568 0
M  V30 8761 O 809.994 -3.00342 2.66754 0
M  V30 8762 N 808.2 -1.70396 2.35401 0
M  V30 8763 H 807.747 -0.81413 2.44397 0
M  V30 8764 H 807.705 -2.46972 1.94557 0
M  V30 8765 N 811.477 -1.49425 0.500989 0
M  V30 8766 C 812.44 -2.27646 -0.266416 0
M  V30 8767 C 813.44 -1.3366 -0.893961 0
M  V30 8768 O 814.63 -1.5682 -0.758495 0
M  V30 8769 C 811.762 -3.11618 -1.38227 0
M  V30 8770 H 812.955 -2.96945 0.419973 0
M  V30 8771 H 810.508 -1.5419 0.255954 0
M  V30 8772 H 811.243 -2.46885 -2.10281 0
M  V30 8773 H 811.028 -3.80721 -0.937746 0
M  V30 8774 H 812.518 -3.70698 -1.92283 0
M  V30 8775 N 812.955 -0.234822 -1.55841 0
M  V30 8776 C 814.183 0.397745 -2.03041 0
M  V30 8777 C 814.598 1.52405 -1.11437 0
M  V30 8778 O 813.955 1.82061 -0.126466 0
M  V30 8779 C 814.006 0.916919 -3.49678 0
M  V30 8780 O 813.727 -0.164493 -4.37791 0
M  V30 8781 C 815.228 1.62139 -4.12584 0
M  V30 8782 H 812.448 0.0959214 -0.664108 0
M  V30 8783 H 814.992 -0.355156 -2.01392 0
M  V30 8784 H 813.147 1.62004 -3.519 0
M  V30 8785 H 813.561 0.227794 -5.24005 0
M  V30 8786 H 815.035 1.93651 -5.16917 0
M  V30 8787 H 815.512 2.53918 -3.58361 0
M  V30 8788 H 816.118 0.963145 -4.14251 0
M  V30 8789 N 814.433 1.57553 0.0384317 0
M  V30 8790 C 815.363 2.0898 1.04161 0
M  V30 8791 C 816.344 0.99029 1.38301 0
M  V30 8792 O 817.529 1.26499 1.47349 0
M  V30 8793 C 814.659 2.56145 2.34536 0
M  V30 8794 C 813.613 3.70275 2.14663 0
M  V30 8795 C 812.939 4.03612 3.50715 0
M  V30 8796 C 814.239 4.99067 1.54045 0
M  V30 8797 H 815.933 2.93046 0.613548 0
M  V30 8798 H 813.479 1.40973 0.293684 0
M  V30 8799 H 815.432 2.90741 3.05037 0
M  V30 8800 H 814.156 1.6915 2.79385 0
M  V30 8801 H 812.815 3.36013 1.46597 0
M  V30 8802 H 812.463 3.13698 3.93195 0
M  V30 8803 H 812.163 4.80482 3.38247 0
M  V30 8804 H 813.687 4.40735 4.22593 0
M  V30 8805 H 815.101 5.3168 2.14451 0
M  V30 8806 H 813.498 5.80484 1.52178 0
M  V30 8807 H 814.568 4.8226 0.505259 0
M  V30 8808 N 815.911 -0.310526 1.54511 0
M  V30 8809 C 817.157 -1.04846 1.73595 0
M  V30 8810 C 817.49 -1.87244 0.515118 0
M  V30 8811 O 816.765 -1.88282 -0.48786 0
M  V30 8812 C 817.048 -1.96237 3.01932 0
M  V30 8813 C 816.901 -1.17082 4.34295 0
M  V30 8814 C 818.22 -2.9556 3.26086 0
M  V30 8815 H 815.339 -0.37976 0.631626 0
M  V30 8816 H 817.981 -0.32394 1.87218 0
M  V30 8817 H 816.131 -2.58015 2.90449 0
M  V30 8818 H 817.803 -0.576643 4.57682 0
M  V30 8819 H 816.046 -0.473336 4.3121 0
M  V30 8820 H 816.717 -1.84257 5.20339 0
M  V30 8821 H 819.193 -2.43908 3.37117 0
M  V30 8822 H 818.069 -3.5668 4.17218 0
M  V30 8823 H 818.33 -3.68715 2.4393 0
M  V30 8824 N 817.389 -1.46805 -0.573248 0
M  V30 8825 C 818.638 -1.51868 -1.32736 0
M  V30 8826 C 818.951 -0.178765 -1.94781 0
M  V30 8827 O 820.157 -0.107272 -2.71288 0
M  V30 8828 C 818.613 -2.67641 -2.40616 0
M  V30 8829 C 818.221 -4.08094 -1.84832 0
M  V30 8830 C 819.965 -2.81984 -3.17309 0
M  V30 8831 C 817.872 -5.15193 -2.90397 0
M  V30 8832 H 816.802 -0.56523 -0.49903 0
M  V30 8833 H 819.453 -1.7304 -0.610695 0
M  V30 8834 H 817.835 -2.39818 -3.15124 0
M  V30 8835 H 819.009 -4.45751 -1.16803 0
M  V30 8836 H 817.324 -3.985 -1.20775 0
M  V30 8837 H 819.921 -3.59166 -3.96111 0
M  V30 8838 H 820.264 -1.89842 -3.70494 0
M  V30 8839 H 820.797 -3.095 -2.4991 0
M  V30 8840 H 817.536 -6.09158 -2.42088 0
M  V30 8841 H 817.056 -4.82071 -3.56886 0
M  V30 8842 H 818.735 -5.41448 -3.54179 0
M  V30 8843 N 818.867 0.818669 -1.34668 0
M  V30 8844 C 819.797 1.94468 -1.29245 0
M  V30 8845 C 820.778 1.69257 -0.169101 0
M  V30 8846 O 821.963 1.90794 -0.362143 0
M  V30 8847 C 819.093 3.31001 -1.05145 0
M  V30 8848 C 818.047 3.70663 -2.13992 0
M  V30 8849 C 817.373 5.05226 -1.75074 0
M  V30 8850 C 818.673 3.82312 -3.55858 0
M  V30 8851 H 820.367 1.99263 -2.2346 0
M  V30 8852 H 817.913 0.957304 -1.07572 0
M  V30 8853 H 819.866 4.09364 -0.999949 0
M  V30 8854 H 818.59 3.26517 -0.0737312 0
M  V30 8855 H 817.249 2.94578 -2.18219 0
M  V30 8856 H 816.897 4.97233 -0.759518 0
M  V30 8857 H 816.597 5.32734 -2.47928 0
M  V30 8858 H 818.121 5.86042 -1.71427 0
M  V30 8859 H 819.535 4.50935 -3.5402 0
M  V30 8860 H 817.932 4.21278 -4.2737 0
M  V30 8861 H 819.002 2.84193 -3.9289 0
M  V30 8862 N 820.346 1.18468 1.03938 0
M  V30 8863 C 821.256 0.927889 2.1547 0
M  V30 8864 C 822.272 -0.108447 1.73662 0
M  V30 8865 O 823.448 0.0737636 2.01265 0
M  V30 8866 C 820.513 0.458494 3.43655 0
M  V30 8867 C 819.574 1.56295 3.99838 0
M  V30 8868 C 818.807 1.11586 5.21904 0
M  V30 8869 O 819.03 -0.0249057 5.70395 0
M  V30 8870 O 817.964 1.91412 5.70653 0
M  V30 8871 H 821.79 1.86116 2.39989 0
M  V30 8872 H 819.375 0.966607 1.13917 0
M  V30 8873 H 821.257 0.204861 4.20902 0
M  V30 8874 H 819.932 -0.446464 3.20606 0
M  V30 8875 H 818.839 1.87061 3.23974 0
M  V30 8876 H 820.172 2.44408 4.2723 0
M  V30 8877 N 821.824 -1.22873 0.986916 0
M  V30 8878 C 822.771 -2.2458 0.532215 0
M  V30 8879 C 823.741 -1.60375 -0.432322 0
M  V30 8880 O 824.926 -1.87775 -0.338416 0
M  V30 8881 C 822.066 -3.44761 -0.152864 0
M  V30 8882 C 821.179 -4.23501 0.852704 0
M  V30 8883 C 820.314 -5.31011 0.14176 0
M  V30 8884 C 819.353 -6.01464 1.1361 0
M  V30 8885 N 818.49 -7.00631 0.453871 0
M  V30 8886 H 823.33 -2.62838 1.40428 0
M  V30 8887 H 820.867 -1.29185 0.703543 0
M  V30 8888 H 822.825 -4.1333 -0.566926 0
M  V30 8889 H 821.455 -3.07284 -0.988756 0
M  V30 8890 H 820.507 -3.54286 1.38512 0
M  V30 8891 H 821.819 -4.72097 1.61014 0
M  V30 8892 H 820.973 -6.05805 -0.329337 0
M  V30 8893 H 819.712 -4.83373 -0.648229 0
M  V30 8894 H 818.717 -5.25456 1.61789 0
M  V30 8895 H 819.942 -6.5119 1.92686 0
M  V30 8896 H 817.888 -6.55235 -0.316791 0
M  V30 8897 H 817.805 -7.47204 1.14986 0
M  V30 8898 H 819.073 -7.795 0.00537823 0
M  V30 8899 N 823.302 -0.75937 -1.38099 0
M  V30 8900 C 824.249 -0.135508 -2.30402 0
M  V30 8901 C 825.219 0.703356 -1.50473 0
M  V30 8902 O 826.404 0.658287 -1.79084 0
M  V30 8903 C 823.544 0.747228 -3.36913 0
M  V30 8904 C 822.657 -0.106893 -4.31868 0
M  V30 8905 C 821.792 0.779388 -5.25451 0
M  V30 8906 C 820.831 -0.0780179 -6.1205 0
M  V30 8907 N 819.968 0.765545 -6.97914 0
M  V30 8908 H 824.808 -0.9282 -2.83176 0
M  V30 8909 H 822.345 -0.46935 -1.39411 0
M  V30 8910 H 824.303 1.27371 -3.97281 0
M  V30 8911 H 822.933 1.50565 -2.85535 0
M  V30 8912 H 821.985 -0.751063 -3.72912 0
M  V30 8913 H 823.297 -0.768798 -4.9284 0
M  V30 8914 H 822.451 1.37282 -5.90964 0
M  V30 8915 H 821.19 1.47501 -4.6486 0
M  V30 8916 H 820.195 -0.684078 -5.45528 0
M  V30 8917 H 821.42 -0.770786 -6.74712 0
M  V30 8918 H 819.366 1.44601 -6.39864 0
M  V30 8919 H 819.283 0.160666 -7.55829 0
M  V30 8920 H 820.551 1.34377 -7.6783 0
M  V30 8921 N 824.78 1.49157 -0.508906 0
M  V30 8922 C 825.69 2.33045 0.269656 0
M  V30 8923 C 826.706 1.45143 0.959662 0
M  V30 8924 O 827.882 1.78155 0.939295 0
M  V30 8925 C 824.947 3.20772 1.31554 0
M  V30 8926 C 824.008 4.24531 0.638131 0
M  V30 8927 C 823.241 5.08065 1.63418 0
M  V30 8928 O 823.464 4.93238 2.86483 0
M  V30 8929 O 822.398 5.90117 1.18516 0
M  V30 8930 H 826.224 3.00821 -0.417183 0
M  V30 8931 H 823.809 1.46938 -0.270119 0
M  V30 8932 H 825.691 3.75095 1.92047 0
M  V30 8933 H 824.366 2.55681 1.98516 0
M  V30 8934 H 823.273 3.74099 -0.00674357 0
M  V30 8935 H 824.606 4.92199 0.0108155 0
M  V30 8936 N 826.258 0.243083 1.55714 0
M  V30 8937 C 827.188 -0.652336 2.24203 0
M  V30 8938 C 828.169 -1.1843 1.221 0
M  V30 8939 O 829.354 -1.22435 1.50743 0
M  V30 8940 C 826.484 -1.85111 2.93856 0
M  V30 8941 C 825.438 -1.45208 4.02615 0
M  V30 8942 C 824.764 -2.73137 4.59674 0
M  V30 8943 C 826.064 -0.625988 5.18535 0
M  V30 8944 H 827.758 -0.0812504 2.9929 0
M  V30 8945 H 825.304 -0.0376388 1.43951 0
M  V30 8946 H 827.257 -2.48314 3.40468 0
M  V30 8947 H 825.981 -2.44751 2.16251 0
M  V30 8948 H 824.64 -0.843406 3.56766 0
M  V30 8949 H 824.288 -3.30967 3.78774 0
M  V30 8950 H 823.988 -2.47163 5.33089 0
M  V30 8951 H 825.512 -3.37245 5.09017 0
M  V30 8952 H 826.926 -1.16223 5.61396 0
M  V30 8953 H 825.323 -0.462465 5.98315 0
M  V30 8954 H 826.393 0.362652 4.83542 0
M  V30 8955 N 827.736 -1.57571 -0.0300757 0
M  V30 8956 C 829.147 -1.77567 -0.576802 0
M  V30 8957 C 829.498 -0.874034 -1.75656 0
M  V30 8958 O 828.623 -0.0686124 -2.16291 0
M  V30 8959 C 829.218 -3.22016 -1.05315 0
M  V30 8960 C 827.777 -3.43212 -1.5454 0
M  V30 8961 C 826.924 -2.73061 -0.483033 0
M  V30 8962 H 829.875 -1.57483 0.196151 0
M  V30 8963 H 829.896 -3.28474 -1.92055 0
M  V30 8964 H 829.408 -3.87613 -0.194298 0
M  V30 8965 H 827.509 -2.82788 -2.42615 0
M  V30 8966 H 827.622 -4.5182 -1.5936 0
M  V30 8967 H 825.986 -2.36805 -0.937835 0
M  V30 8968 H 826.769 -3.4134 0.366341 0
M  V30 8969 N 829.214 0.302327 -1.54673 0
M  V30 8970 C 830.63 0.647911 -1.45857 0
M  V30 8971 C 830.83 1.90773 -0.64869 0
M  V30 8972 O 829.886 2.52018 -0.155865 0
M  V30 8973 C 831.199 0.802144 -2.89804 0
M  V30 8974 C 832.747 0.898114 -2.99838 0
M  V30 8975 C 833.222 1.08436 -4.44978 0
M  V30 8976 N 834.713 1.15059 -4.48682 0
M  V30 8977 C 835.448 1.31296 -5.58166 0
M  V30 8978 N 834.944 1.4444 -6.77576 0
M  V30 8979 N 836.737 1.34174 -5.45851 0
M  V30 8980 H 828.888 -0.525428 -2.05798 0
M  V30 8981 H 831.151 -0.173423 -0.932002 0
M  V30 8982 H 830.857 -0.0526531 -3.51661 0
M  V30 8983 H 830.731 1.69155 -3.37145 0
M  V30 8984 H 833.118 1.7434 -2.38096 0
M  V30 8985 H 833.199 -0.0152752 -2.55795 0
M  V30 8986 H 832.843 0.243843 -5.07314 0
M  V30 8987 H 832.773 2.01195 -4.8665 0
M  V30 8988 H 835.264 1.0626 -3.62653 0
M  V30 8989 H 835.577 1.56582 -7.56771 0
M  V30 8990 H 833.922 1.41499 -6.80443 0
M  V30 8991 H 837.113 1.23516 -4.5151 0
M  V30 8992 H 837.286 1.46485 -6.31226 0
M  V30 8993 N 830.692 1.47107 0.565454 0
M  V30 8994 C 831.655 1.58535 1.65527 0
M  V30 8995 C 832.655 0.461081 1.54048 0
M  V30 8996 O 833.845 0.725911 1.58355 0
M  V30 8997 C 830.977 1.52204 3.05036 0
M  V30 8998 H 832.17 2.55676 1.56747 0
M  V30 8999 H 829.723 1.35174 0.78471 0
M  V30 9000 H 830.458 0.564071 3.19357 0
M  V30 9001 H 830.243 2.3379 3.14777 0
M  V30 9002 H 831.733 1.63322 3.84338 0
M  V30 9003 N 832.17 -0.811516 1.35101 0
M  V30 9004 C 833.08 -1.95475 1.29718 0
M  V30 9005 C 834.096 -1.72813 0.202909 0
M  V30 9006 O 835.272 -1.96725 0.431414 0
M  V30 9007 C 832.337 -3.29975 1.06385 0
M  V30 9008 C 831.398 -3.65566 2.25077 0
M  V30 9009 C 830.631 -4.93648 2.02848 0
M  V30 9010 O 830.854 -5.617 0.992442 0
M  V30 9011 O 829.788 -5.27384 2.90087 0
M  V30 9012 H 833.614 -2.02961 2.25921 0
M  V30 9013 H 831.199 -0.948583 1.15422 0
M  V30 9014 H 833.081 -4.10506 0.951999 0
M  V30 9015 H 831.756 -3.2343 0.132294 0
M  V30 9016 H 830.663 -2.85432 2.41825 0
M  V30 9017 H 831.996 -3.7681 3.16662 0
M  V30 9018 N 833.648 -1.19017 -1.03309 0
M  V30 9019 C 834.894 -0.991681 -1.769 0
M  V30 9020 C 835.227 0.476813 -1.88255 0
M  V30 9021 O 834.502 1.35407 -1.39625 0
M  V30 9022 C 834.785 -1.65627 -3.19749 0
M  V30 9023 C 834.638 -3.19813 -3.1629 0
M  V30 9024 C 835.957 -1.37579 -4.18043 0
M  V30 9025 H 833.076 -0.361674 -0.642153 0
M  V30 9026 H 835.718 -1.46795 -1.20628 0
M  V30 9027 H 833.868 -1.25132 -3.67796 0
M  V30 9028 H 835.54 -3.69494 -2.76174 0
M  V30 9029 H 833.783 -3.51578 -2.54117 0
M  V30 9030 H 834.454 -3.61457 -4.17196 0
M  V30 9031 H 836.93 -1.72679 -3.78578 0
M  V30 9032 H 835.806 -1.86636 -5.16196 0
M  V30 9033 H 836.067 -0.300118 -4.4108 0
M  V30 9034 N 835.127 1.22348 -0.993418 0
M  V30 9035 C 836.074 2.24294 -0.544118 0
M  V30 9036 C 837.044 1.60602 0.42381 0
M  V30 9037 O 838.229 1.87952 0.328453 0
M  V30 9038 C 835.369 3.44837 0.134578 0
M  V30 9039 C 834.482 4.23043 -0.875151 0
M  V30 9040 C 833.617 5.30928 -0.169919 0
M  V30 9041 C 832.656 6.00853 -1.16798 0
M  V30 9042 N 831.793 7.00381 -0.491021 0
M  V30 9043 H 836.633 2.6209 -1.4182 0
M  V30 9044 H 834.17 1.2881 -0.710384 0
M  V30 9045 H 836.128 4.13625 0.544998 0
M  V30 9046 H 834.758 3.07804 0.972446 0
M  V30 9047 H 833.81 3.53546 -1.40389 0
M  V30 9048 H 835.122 4.71237 -1.63516 0
M  V30 9049 H 834.276 6.05972 0.297205 0
M  V30 9050 H 833.015 4.8371 0.622586 0
M  V30 9051 H 832.02 5.24591 -1.64573 0
M  V30 9052 H 833.245 6.50159 -1.96137 0
M  V30 9053 H 831.191 6.55393 0.282037 0
M  V30 9054 H 831.108 7.46584 -1.18947 0
M  V30 9055 H 832.376 7.79486 -0.0467169 0
M  V30 9056 N 836.605 0.766683 1.37694 0
M  V30 9057 C 837.515 0.150158 2.34119 0
M  V30 9058 C 838.531 -0.685513 1.59927 0
M  V30 9059 O 839.707 -0.606616 1.92047 0
M  V30 9060 C 836.772 -0.722562 3.39087 0
M  V30 9061 C 835.833 0.128983 4.29106 0
M  V30 9062 C 835.066 -0.702178 5.29061 0
M  V30 9063 O 835.289 -1.93954 5.36412 0
M  V30 9064 O 834.223 -0.114056 6.01792 0
M  V30 9065 H 838.049 0.946829 2.88563 0
M  V30 9066 H 835.634 0.527765 1.39768 0
M  V30 9067 H 837.516 -1.22095 4.03325 0
M  V30 9068 H 836.191 -1.49751 2.86978 0
M  V30 9069 H 835.098 0.673612 3.67985 0
M  V30 9070 H 836.431 0.866892 4.84506 0
M  V30 9071 N 838.083 -1.48885 0.516809 0
M  V30 9072 C 838.993 -2.33185 -0.257293 0
M  V30 9073 C 840.009 -1.4565 -0.951952 0
M  V30 9074 O 841.185 -1.78651 -0.929834 0
M  V30 9075 C 838.25 -3.21465 -1.29851 0
M  V30 9076 C 837.311 -4.24863 -0.615608 0
M  V30 9077 C 836.544 -5.08925 -1.60722 0
M  V30 9078 O 836.767 -4.9475 -2.83863 0
M  V30 9079 O 835.701 -5.90737 -1.15384 0
M  V30 9080 H 839.527 -3.00596 0.433131 0
M  V30 9081 H 837.112 -1.46792 0.277908 0
M  V30 9082 H 838.994 -3.76108 -1.90055 0
M  V30 9083 H 837.669 -2.5673 -1.97158 0
M  V30 9084 H 836.576 -3.74091 0.0265829 0
M  V30 9085 H 837.909 -4.92198 0.0152871 0
M  V30 9086 N 839.561 -0.251338 -1.55583 0
M  V30 9087 C 840.508 0.646337 -2.21565 0
M  V30 9088 C 841.478 1.16796 -1.18102 0
M  V30 9089 O 842.663 1.22162 -1.46564 0
M  V30 9090 C 839.803 1.83557 -2.92234 0
M  V30 9091 C 838.916 1.35006 -4.10363 0
M  V30 9092 C 838.051 2.4992 -4.68736 0
M  V30 9093 C 837.09 1.98253 -5.79105 0
M  V30 9094 N 836.227 3.06551 -6.31642 0
M  V30 9095 H 841.067 0.0769881 -2.97901 0
M  V30 9096 H 838.604 0.026238 -1.47077 0
M  V30 9097 H 840.562 2.53425 -3.31408 0
M  V30 9098 H 839.192 2.37733 -2.18364 0
M  V30 9099 H 838.244 0.545274 -3.76472 0
M  V30 9100 H 839.556 0.931435 -4.90026 0
M  V30 9101 H 838.71 3.27823 -5.10507 0
M  V30 9102 H 837.449 2.95086 -3.88298 0
M  V30 9103 H 836.454 1.18822 -5.36807 0
M  V30 9104 H 837.679 1.54051 -6.61396 0
M  V30 9105 H 835.625 3.51143 -5.54107 0
M  V30 9106 H 835.542 2.69033 -7.06511 0
M  V30 9107 H 836.81 3.84499 -6.78071 0
M  V30 9108 N 841.039 1.57585 0.0217189 0
M  V30 9109 C 841.969 2.10073 1.01939 0
M  V30 9110 C 842.95 1.0049 1.37243 0
M  V30 9111 O 844.135 1.28055 1.45999 0
M  V30 9112 C 841.265 2.58618 2.31806 0
M  V30 9113 C 840.219 3.72531 2.10724 0
M  V30 9114 C 839.545 4.07309 3.46415 0
M  V30 9115 C 840.845 5.00672 1.48743 0
M  V30 9116 H 842.539 2.9368 0.582432 0
M  V30 9117 H 840.085 1.41277 0.278715 0
M  V30 9118 H 842.038 2.9396 3.01936 0
M  V30 9119 H 840.762 1.72104 2.77575 0
M  V30 9120 H 839.421 3.37549 1.43025 0
M  V30 9121 H 839.069 3.17851 3.89846 0
M  V30 9122 H 838.769 4.84042 3.33132 0
M  V30 9123 H 840.293 4.45192 4.17895 0
M  V30 9124 H 841.707 5.33925 2.088 0
M  V30 9125 H 840.104 5.82065 1.46013 0
M  V30 9126 H 841.174 4.82769 0.45408 0
M  V30 9127 N 842.517 -0.29412 1.54831 0
M  V30 9128 C 843.763 -1.02999 1.74697 0
M  V30 9129 C 844.096 -1.86687 0.534949 0
M  V30 9130 O 843.371 -1.88789 -0.467863 0
M  V30 9131 C 843.654 -1.93024 3.03996 0
M  V30 9132 C 843.507 -1.1247 4.35512 0
M  V30 9133 C 844.826 -2.92085 3.29203 0
M  V30 9134 H 841.945 -0.373039 0.635618 0
M  V30 9135 H 844.587 -0.304065 1.87551 0
M  V30 9136 H 842.737 -2.5492 2.93169 0
M  V30 9137 H 844.409 -0.528067 4.58268 0
M  V30 9138 H 842.652 -0.427574 4.31688 0
M  V30 9139 H 843.323 -1.78728 5.22265 0
M  V30 9140 H 845.799 -2.40319 3.39685 0
M  V30 9141 H 844.675 -3.52234 4.20978 0
M  V30 9142 H 844.936 -3.66107 2.47827 0
M  V30 9143 N 843.995 -1.47404 -0.557645 0
M  V30 9144 C 844.905 -1.62491 -1.69216 0
M  V30 9145 C 845.921 -0.507764 -1.66426 0
M  V30 9146 O 847.097 -0.775241 -1.85882 0
M  V30 9147 C 844.162 -1.63511 -3.05721 0
M  V30 9148 C 843.223 -2.86648 -3.1958 0
M  V30 9149 C 842.456 -2.87609 -4.49574 0
M  V30 9150 O 842.679 -1.97799 -5.35006 0
M  V30 9151 O 841.613 -3.79465 -4.67215 0
M  V30 9152 H 845.439 -2.58487 -1.59431 0
M  V30 9153 H 843.024 -1.30485 -0.7276 0
M  V30 9154 H 844.906 -1.66863 -3.86956 0
M  V30 9155 H 843.581 -0.706812 -3.15889 0
M  V30 9156 H 842.488 -2.8884 -2.37744 0
M  V30 9157 H 843.821 -3.7877 -3.14316 0
M  V30 9158 N 845.473 0.80434 -1.35529 0
M  V30 9159 C 846.722 1.55665 -1.28263 0
M  V30 9160 C 847.035 1.95096 0.140352 0
M  V30 9161 O 848.241 2.69422 0.335303 0
M  V30 9162 C 846.697 2.80935 -2.24952 0
M  V30 9163 C 846.305 2.48733 -3.72607 0
M  V30 9164 C 848.049 3.5894 -2.26632 0
M  V30 9165 C 845.956 3.70308 -4.61114 0
M  V30 9166 H 844.886 0.584301 -0.476559 0
M  V30 9167 H 847.537 0.88395 -1.60806 0
M  V30 9168 H 845.919 3.49927 -1.85383 0
M  V30 9169 H 847.093 1.87733 -4.20824 0
M  V30 9170 H 845.408 1.83969 -3.73557 0
M  V30 9171 H 848.005 4.49244 -2.89973 0
M  V30 9172 H 848.348 3.96433 -1.27069 0
M  V30 9173 H 848.881 2.96912 -2.64742 0
M  V30 9174 H 845.62 3.37922 -5.61684 0
M  V30 9175 H 845.14 4.30526 -4.17621 0
M  V30 9176 H 846.819 4.37511 -4.76648 0
M  V30 9177 N 846.951 1.19563 1.02676 0
M  V30 9178 C 848.2 0.993864 1.75514 0
M  V30 9179 C 848.513 -0.475882 1.89723 0
M  V30 9180 O 849.719 -0.796525 2.59553 0
M  V30 9181 C 848.175 1.72937 3.15628 0
M  V30 9182 C 847.783 3.23937 3.09466 0
M  V30 9183 C 849.527 1.61092 3.92746 0
M  V30 9184 C 847.434 3.90067 4.44524 0
M  V30 9185 H 846.364 0.368244 0.657961 0
M  V30 9186 H 849.015 1.43081 1.14891 0
M  V30 9187 H 847.397 1.22025 3.76731 0
M  V30 9188 H 848.571 3.81983 2.57731 0
M  V30 9189 H 846.886 3.3608 2.45843 0
M  V30 9190 H 849.483 2.07848 4.92649 0
M  V30 9191 H 849.826 0.565415 4.12442 0
M  V30 9192 H 850.359 2.09361 3.3825 0
M  V30 9193 H 847.098 4.94725 4.30032 0
M  V30 9194 H 846.618 3.36809 4.96306 0
M  V30 9195 H 848.297 3.93736 5.13401 0
M  V30 9196 N 848.429 -1.21819 0.999893 0
M  V30 9197 C 849.359 -2.26282 0.576096 0
M  V30 9198 C 850.34 -1.65317 -0.400537 0
M  V30 9199 O 851.525 -1.92028 -0.28964 0
M  V30 9200 C 848.655 -3.47147 -0.103145 0
M  V30 9201 C 847.609 -4.20594 0.792745 0
M  V30 9202 C 846.935 -5.34696 -0.0198026 0
M  V30 9203 C 848.235 -4.78533 2.09293 0
M  V30 9204 H 849.929 -2.61984 1.4493 0
M  V30 9205 H 847.475 -1.25935 0.698316 0
M  V30 9206 H 849.428 -4.1939 -0.411068 0
M  V30 9207 H 848.152 -3.1056 -1.01094 0
M  V30 9208 H 846.811 -3.50194 1.08442 0
M  V30 9209 H 846.459 -4.94352 -0.928729 0
M  V30 9210 H 846.159 -5.84764 0.576661 0
M  V30 9211 H 847.683 -6.09752 -0.321659 0
M  V30 9212 H 849.097 -5.42682 1.8485 0
M  V30 9213 H 847.494 -5.38968 2.63881 0
M  V30 9214 H 848.564 -3.98197 2.76708 0
M  V30 9215 N 849.908 -0.773975 -1.37286 0
M  V30 9216 C 851.133 -0.349561 -2.04433 0
M  V30 9217 C 851.558 1.02082 -1.5799 0
M  V30 9218 O 850.916 1.65458 -0.741172 0
M  V30 9219 C 850.964 -0.404292 -3.58326 0
M  V30 9220 O 850.068 0.594447 -4.08093 0
M  V30 9221 H 849.409 -0.150959 -0.646612 0
M  V30 9222 H 851.939 -1.05079 -1.75555 0
M  V30 9223 H 851.949 -0.262378 -4.07155 0
M  V30 9224 H 850.624 -1.40403 -3.91484 0
M  V30 9225 H 849.201 0.415468 -3.70578 0
M  V30 9226 N 851.386 1.48609 -0.524698 0
M  V30 9227 C 852.634 2.02097 0.0112991 0
M  V30 9228 C 852.955 1.40455 1.35268 0
M  V30 9229 O 852.225 0.56807 1.87483 0
M  V30 9230 H 850.805 0.746966 0.00716426 0
M  V30 9231 H 853.467 1.82378 -0.687329 0
M  V30 9232 H 852.563 3.11855 0.123531 0
M  V30 9233 N 852.864 0.259585 1.55447 0
M  V30 9234 C 853.812 -0.6507 2.23313 0
M  V30 9235 C 854.806 -1.17014 1.22491 0
M  V30 9236 O 856.012 -1.12557 1.40467 0
M  V30 9237 H 852.387 -0.228354 0.71649 0
M  V30 9238 H 854.358 -0.0553039 2.98349 0
M  V30 9239 C 853.107 -1.83081 2.95596 0
M  V30 9240 H 852.43 -1.44027 3.72956 0
M  V30 9241 H 853.87 -2.44469 3.46426 0
M  V30 9242 C 852.329 -2.70976 2.00184 0
M  V30 9243 O 852.859 -3.70882 1.54304 0
M  V30 9244 N 851.065 -2.37813 1.67014 0
M  V30 9245 H 850.612 -1.5662 2.04519 0
M  V30 9246 H 850.57 -2.96896 1.03443 0
M  V30 9247 N 854.342 -1.57594 -0.0133615 0
M  V30 9248 C 855.758 -1.5527 -0.369255 0
M  V30 9249 C 855.958 -0.987751 -1.7563 0
M  V30 9250 O 855.014 -0.615683 -2.44879 0
M  V30 9251 C 856.327 -2.99602 -0.25672 0
M  V30 9252 C 857.875 -3.11227 -0.332647 0
M  V30 9253 C 858.35 -4.57321 -0.249387 0
M  V30 9254 N 859.841 -4.62177 -0.3077 0
M  V30 9255 C 860.576 -5.72781 -0.26641 0
M  V30 9256 N 860.072 -6.92575 -0.176494 0
M  V30 9257 N 861.865 -5.61204 -0.317295 0
M  V30 9258 H 854.016 -1.92662 0.894154 0
M  V30 9259 H 856.279 -0.884352 0.341505 0
M  V30 9260 H 855.985 -3.44723 0.697072 0
M  V30 9261 H 855.859 -3.6246 -1.04415 0
M  V30 9262 H 858.246 -2.66045 -1.27688 0
M  V30 9263 H 858.327 -2.51171 0.484412 0
M  V30 9264 H 857.971 -5.03174 0.691242 0
M  V30 9265 H 857.901 -5.15306 -1.08476 0
M  V30 9266 H 860.392 -3.75994 -0.379069 0
M  V30 9267 H 860.705 -7.72653 -0.150518 0
M  V30 9268 H 859.05 -6.94854 -0.142314 0
M  V30 9269 H 862.241 -4.66509 -0.385643 0
M  V30 9270 H 862.414 -6.47388 -0.28165 0
M  V30 9271 N 855.82 0.285905 -1.54985 0
M  V30 9272 C 857.045 1.04207 -1.7932 0
M  V30 9273 C 857.47 1.79622 -0.558343 0
M  V30 9274 O 856.828 1.74506 0.491661 0
M  V30 9275 C 856.876 1.98648 -3.0095 0
M  V30 9276 O 855.98 3.07207 -2.75132 0
M  V30 9277 H 855.321 0.298596 -0.593074 0
M  V30 9278 H 857.851 0.318736 -2.02102 0
M  V30 9279 H 857.861 2.4084 -3.29333 0
M  V30 9280 H 856.536 1.43167 -3.90482 0
M  V30 9281 H 855.113 2.69423 -2.57809 0
M  V30 9282 N 857.298 1.47698 0.54982 0
M  V30 9283 C 858.208 1.63386 1.68351 0
M  V30 9284 C 859.224 0.516583 1.66155 0
M  V30 9285 O 860.4 0.785088 1.85468 0
M  V30 9286 C 857.465 1.6513 3.04849 0
M  V30 9287 C 856.526 2.88338 3.18056 0
M  V30 9288 C 855.759 2.8999 4.48042 0
M  V30 9289 O 855.982 2.00633 5.3395 0
M  V30 9290 O 854.916 3.81938 4.65196 0
M  V30 9291 H 858.742 2.59329 1.58057 0
M  V30 9292 H 856.327 1.30869 0.72067 0
M  V30 9293 H 858.209 1.68913 3.86065 0
M  V30 9294 H 856.884 0.723555 3.1551 0
M  V30 9295 H 855.791 2.90097 2.36209 0
M  V30 9296 H 857.124 3.80431 3.12302 0
M  V30 9297 N 858.776 -0.797141 1.35954 0
M  V30 9298 C 859.706 -1.92387 1.32323 0
M  V30 9299 C 860.687 -1.68967 0.196007 0
M  V30 9300 O 861.872 -1.90193 0.39245 0
M  V30 9301 C 859.002 -3.29286 1.10398 0
M  V30 9302 C 857.956 -3.67212 2.19862 0
M  V30 9303 C 857.282 -5.02377 1.8309 0
M  V30 9304 C 858.582 -3.76602 3.61896 0
M  V30 9305 H 860.276 -1.95683 2.26602 0
M  V30 9306 H 857.822 -0.94007 1.09081 0
M  V30 9307 H 859.775 -4.07721 1.06495 0
M  V30 9308 H 858.499 -3.26358 0.125668 0
M  V30 9309 H 857.158 -2.91069 2.22878 0
M  V30 9310 H 856.806 -4.95961 0.838527 0
M  V30 9311 H 856.506 -5.28722 2.56372 0
M  V30 9312 H 858.03 -5.8324 1.80729 0
M  V30 9313 H 859.444 -4.45246 3.6115 0
M  V30 9314 H 857.841 -4.14425 4.34018 0
M  V30 9315 H 858.911 -2.77906 3.97361 0
M  V30 9316 N 860.254 -1.20106 -1.0204 0
M  V30 9317 C 861.164 -0.962051 -2.13967 0
M  V30 9318 C 862.18 0.0808053 -1.73812 0
M  V30 9319 O 863.356 -0.105774 -2.01122 0
M  V30 9320 C 860.421 -0.513108 -3.42882 0
M  V30 9321 C 859.482 -1.62636 -3.97301 0
M  V30 9322 C 858.715 -1.19875 -5.20063 0
M  V30 9323 O 858.938 -0.0658423 -5.70362 0
M  V30 9324 O 857.872 -2.00467 -5.67536 0
M  V30 9325 H 861.698 -1.8991 -2.36998 0
M  V30 9326 H 859.283 -0.984608 -1.12365 0
M  V30 9327 H 861.165 -0.271797 -4.20523 0
M  V30 9328 H 859.84 0.395402 -3.21276 0
M  V30 9329 H 858.747 -1.92192 -3.20957 0
M  V30 9330 H 860.08 -2.51174 -4.23288 0
M  V30 9331 N 861.732 1.21287 -1.00634 0
M  V30 9332 C 862.679 2.23705 -0.567876 0
M  V30 9333 C 863.649 1.61043 0.406753 0
M  V30 9334 O 864.834 1.88289 0.308499 0
M  V30 9335 C 861.974 3.44961 0.097996 0
M  V30 9336 C 861.087 4.22091 -0.919972 0
M  V30 9337 C 860.222 5.30718 -0.226222 0
M  V30 9338 C 859.261 5.99581 -1.23165 0
M  V30 9339 N 858.398 6.99821 -0.565278 0
M  V30 9340 H 863.238 2.60571 -1.44592 0
M  V30 9341 H 860.775 1.28049 -0.724006 0
M  V30 9342 H 862.733 4.1418 0.501097 0
M  V30 9343 H 861.363 3.08818 0.939744 0
M  V30 9344 H 860.415 3.52038 -1.44131 0
M  V30 9345 H 861.727 4.69476 -1.68505 0
M  V30 9346 H 860.881 6.06253 0.232917 0
M  V30 9347 H 859.62 4.84343 0.571247 0
M  V30 9348 H 858.625 5.22816 -1.70128 0
M  V30 9349 H 859.85 6.48042 -2.03022 0
M  V30 9350 H 857.796 6.55656 0.212508 0
M  V30 9351 H 857.713 7.4528 -1.26858 0
M  V30 9352 H 858.981 7.79393 -0.129389 0
M  V30 9353 N 863.21 0.781244 1.36873 0
M  V30 9354 C 864.14 0.188128 2.32741 0
M  V30 9355 C 865.121 -0.672326 1.56249 0
M  V30 9356 O 866.306 -0.607835 1.84442 0
M  V30 9357 C 863.436 -0.684341 3.40491 0
M  V30 9358 C 862.39 0.0755641 4.27933 0
M  V30 9359 C 861.716 -0.916968 5.26779 0
M  V30 9360 C 863.016 1.26006 5.06873 0
M  V30 9361 H 864.71 0.989016 2.82593 0
M  V30 9362 H 862.256 0.477038 1.35869 0
M  V30 9363 H 864.209 -1.10915 4.06541 0
M  V30 9364 H 862.933 -1.51785 2.89187 0
M  V30 9365 H 861.592 0.481258 3.63427 0
M  V30 9366 H 861.24 -1.74528 4.71751 0
M  V30 9367 H 860.94 -0.413 5.86147 0
M  V30 9368 H 862.464 -1.34052 5.95703 0
M  V30 9369 H 863.878 0.911425 5.66009 0
M  V30 9370 H 862.275 1.69676 5.75613 0
M  V30 9371 H 863.345 2.05948 4.38991 0
M  V30 9372 N 864.689 -1.48329 0.532571 0
M  V30 9373 C 865.935 -2.028 -0.000583219 0
M  V30 9374 C 866.268 -1.40858 -1.33688 0
M  V30 9375 O 865.543 -0.555261 -1.86406 0
M  V30 9376 C 865.826 -3.59901 -0.119846 0
M  V30 9377 C 865.679 -4.32318 1.2418 0
M  V30 9378 C 866.998 -4.31904 -0.845372 0
M  V30 9379 H 864.117 -0.736999 0.00126205 0
M  V30 9380 H 866.759 -1.77024 0.690102 0
M  V30 9381 H 864.909 -3.81993 -0.708092 0
M  V30 9382 H 866.581 -4.21637 1.87136 0
M  V30 9383 H 864.824 -3.93635 1.82301 0
M  V30 9384 H 865.495 -5.40697 1.11132 0
M  V30 9385 H 867.971 -4.14658 -0.346159 0
M  V30 9386 H 866.847 -5.41509 -0.897723 0
M  V30 9387 H 867.108 -3.99369 -1.89622 0
M  V30 9388 N 866.167 -0.267825 -1.55308 0
M  V30 9389 C 867.077 0.633055 -2.25897 0
M  V30 9390 C 868.093 1.17613 -1.28231 0
M  V30 9391 O 869.269 1.20797 -1.61153 0
M  V30 9392 C 866.334 1.80397 -2.96071 0
M  V30 9393 C 865.395 1.29829 -4.09198 0
M  V30 9394 C 864.628 2.4134 -4.76016 0
M  V30 9395 O 864.851 3.60537 -4.42006 0
M  V30 9396 O 863.785 2.09909 -5.64111 0
M  V30 9397 H 867.611 0.0614381 -3.03638 0
M  V30 9398 H 865.196 -0.0355072 -1.49358 0
M  V30 9399 H 867.078 2.48685 -3.40197 0
M  V30 9400 H 865.753 2.36281 -2.21253 0
M  V30 9401 H 864.66 0.582086 -3.69544 0
M  V30 9402 H 865.993 0.785288 -4.85895 0
M  V30 9403 N 867.645 1.57599 0.00500368 0
M  V30 9404 C 868.922 1.81561 0.727654 0
M  V30 9405 C 869.302 0.871604 1.92266 0
M  V30 9406 O 868.65 -0.0808232 2.28357 0
M  V30 9407 C 868.86 3.29922 1.13809 0
M  V30 9408 C 870.208 3.95531 1.54403 0
M  V30 9409 O 871.232 3.34215 1.23202 0
M  V30 9410 O 870.091 5.03535 2.12402 0
M  V30 9411 H 867.185 0.747462 0.353878 0
M  V30 9412 H 869.731 1.69688 -0.0200667 0
M  V30 9413 H 868.503 3.90253 0.286078 0
M  V30 9414 H 868.126 3.46775 1.94507 0
M  V30 9415 N 869.123 -0.277682 1.55134 0
M  V30 9416 C 870.37 -1.0099 1.7552 0
M  V30 9417 C 870.698 -1.86452 0.553712 0
M  V30 9418 O 869.953 -1.90122 -0.463896 0
M  V30 9419 C 870.252 -1.92599 3.01065 0
M  V30 9420 C 869.918 -1.22926 4.3382 0
M  V30 9421 C 868.58 -1.03659 4.69902 0
M  V30 9422 C 870.932 -0.733071 5.16019 0
M  V30 9423 C 868.26 -0.334933 5.85743 0
M  V30 9424 C 870.612 -0.0450319 6.32584 0
M  V30 9425 C 869.276 0.159393 6.6731 0
M  V30 9426 H 868.546 -0.36955 0.642273 0
M  V30 9427 H 871.193 -0.282611 1.89403 0
M  V30 9428 H 869.498 -2.71934 2.82062 0
M  V30 9429 H 871.195 -2.49367 3.14034 0
M  V30 9430 H 867.785 -1.38933 4.05457 0
M  V30 9431 H 871.969 -0.869565 4.88623 0
M  V30 9432 H 867.225 -0.165783 6.11175 0
M  V30 9433 H 871.399 0.34723 6.95534 0
M  V30 9434 H 869.026 0.70507 7.56923 0
M  V30 9435 N 870.601 -1.47988 -0.541979 0
M  V30 9436 C 871.531 -1.64503 -1.65713 0
M  V30 9437 C 872.512 -0.494116 -1.62765 0
M  V30 9438 O 873.697 -0.725256 -1.80149 0
M  V30 9439 C 870.827 -1.67337 -3.04328 0
M  V30 9440 C 869.781 -2.81809 -3.2213 0
M  V30 9441 C 869.107 -2.69724 -4.61685 0
M  V30 9442 C 870.407 -4.23241 -3.06046 0
M  V30 9443 H 872.101 -2.5786 -1.52147 0
M  V30 9444 H 869.647 -1.24094 -0.730529 0
M  V30 9445 H 871.6 -1.77481 -3.82202 0
M  V30 9446 H 870.324 -0.705514 -3.18889 0
M  V30 9447 H 868.983 -2.71201 -2.46669 0
M  V30 9448 H 868.631 -1.70934 -4.73065 0
M  V30 9449 H 868.331 -3.4653 -4.74543 0
M  V30 9450 H 869.855 -2.81818 -5.41674 0
M  V30 9451 H 871.269 -4.34746 -3.73723 0
M  V30 9452 H 869.666 -5.00952 -3.30405 0
M  V30 9453 H 870.736 -4.40543 -2.02609 0
M  V30 9454 N 872.079 0.78992 -1.36375 0
M  V30 9455 C 873.026 1.90254 -1.3066 0
M  V30 9456 C 873.996 1.65171 -0.17539 0
M  V30 9457 O 875.181 1.87338 -0.361824 0
M  V30 9458 C 872.321 3.27057 -1.10125 0
M  V30 9459 C 871.434 3.64215 -2.32317 0
M  V30 9460 C 870.569 4.90134 -2.04798 0
M  V30 9461 C 869.608 5.19969 -3.22953 0
M  V30 9462 N 868.745 6.37071 -2.95102 0
M  V30 9463 H 873.585 1.94474 -2.25796 0
M  V30 9464 H 871.122 0.951022 -1.12223 0
M  V30 9465 H 873.08 4.05947 -0.962453 0
M  V30 9466 H 871.71 3.22261 -0.186444 0
M  V30 9467 H 870.762 2.80454 -2.57002 0
M  V30 9468 H 872.074 3.82212 -3.20492 0
M  V30 9469 H 871.228 5.76888 -1.87845 0
M  V30 9470 H 869.967 4.74205 -1.13932 0
M  V30 9471 H 868.972 4.31699 -3.40465 0
M  V30 9472 H 870.197 5.37817 -4.14644 0
M  V30 9473 H 868.143 6.22535 -2.06848 0
M  V30 9474 H 868.06 6.55398 -3.76815 0
M  V30 9475 H 869.328 7.26808 -2.81727 0
M  V30 9476 N 873.557 1.20646 1.01402 0
M  V30 9477 C 874.467 0.973385 2.13453 0
M  V30 9478 C 875.483 -0.0715865 1.73853 0
M  V30 9479 O 876.659 0.116438 2.01063 0
M  V30 9480 C 873.724 0.531285 3.42605 0
M  V30 9481 C 872.785 1.64741 3.96433 0
M  V30 9482 C 872.018 1.22631 5.1942 0
M  V30 9483 O 872.241 0.0960891 5.70319 0
M  V30 9484 O 871.175 2.03474 5.66465 0
M  V30 9485 H 875.001 1.91164 2.35987 0
M  V30 9486 H 872.586 0.990553 1.11841 0
M  V30 9487 H 874.468 0.294095 4.20373 0
M  V30 9488 H 873.143 -0.378358 3.21481 0
M  V30 9489 H 872.05 1.93891 3.19933 0
M  V30 9490 H 873.383 2.53415 4.2195 0
M  V30 9491 N 875.035 -1.20752 1.01276 0
M  V30 9492 C 875.982 -2.234 0.579732 0
M  V30 9493 C 876.952 -1.61256 -0.398206 0
M  V30 9494 O 878.137 -1.8845 -0.29851 0
M  V30 9495 C 875.277 -3.45008 -0.0797006 0
M  V30 9496 C 874.39 -4.21597 0.942343 0
M  V30 9497 C 873.525 -5.30591 0.254364 0
M  V30 9498 C 872.564 -5.98919 1.26343 0
M  V30 9499 N 871.701 -6.99511 0.602384 0
M  V30 9500 H 876.541 -2.59801 1.45971 0
M  V30 9501 H 874.078 -1.27663 0.730787 0
M  V30 9502 H 876.036 -4.1444 -0.479125 0
M  V30 9503 H 874.666 -3.09312 -0.923354 0
M  V30 9504 H 873.718 -3.51268 1.45996 0
M  V30 9505 H 875.03 -4.68576 1.70992 0
M  V30 9506 H 874.184 -6.06368 -0.200763 0
M  V30 9507 H 872.923 -4.84639 -0.545553 0
M  V30 9508 H 871.928 -5.21906 1.72898 0
M  V30 9509 H 873.153 -6.46957 2.06456 0
M  V30 9510 H 871.099 -6.55759 -0.177734 0
M  V30 9511 H 871.016 -7.44597 1.30809 0
M  V30 9512 H 872.284 -7.79313 0.17072 0
M  V30 9513 N 876.513 -0.788492 -1.36457 0
M  V30 9514 C 877.79 -0.284484 -1.9352 0
M  V30 9515 C 878.17 1.2232 -1.7205 0
M  V30 9516 O 877.518 2.01424 -1.07892 0
M  V30 9517 C 877.728 -0.676106 -3.42388 0
M  V30 9518 C 879.076 -0.655327 -4.19512 0
M  V30 9519 O 880.1 -0.616523 -3.50824 0
M  V30 9520 O 878.959 -0.697391 -5.42032 0
M  V30 9521 H 876.053 -0.0701769 -0.824017 0
M  V30 9522 H 878.599 -0.870974 -1.45644 0
M  V30 9523 H 877.371 -1.71596 -3.51668 0
M  V30 9524 H 876.994 -0.0634517 -3.97549 0
M  V30 9525 N 877.991 1.48044 -0.54043 0
M  V30 9526 C 879.402 1.86418 -0.102662 0
M  V30 9527 C 879.753 1.4489 1.32293 0
M  V30 9528 O 878.878 0.844319 1.99249 0
M  V30 9529 C 879.473 3.38324 -0.179533 0
M  V30 9530 C 878.032 3.75852 0.203098 0
M  V30 9531 C 877.179 2.72097 -0.534637 0
M  V30 9532 H 880.13 1.398 -0.751103 0
M  V30 9533 H 880.151 3.75641 0.606147 0
M  V30 9534 H 879.663 3.68518 -1.21721 0
M  V30 9535 H 877.764 3.51272 1.24252 0
M  V30 9536 H 877.877 4.78884 -0.143784 0
M  V30 9537 H 876.241 2.54692 0.0203358 0
M  V30 9538 H 877.024 3.05135 -1.57314 0
M  V30 9539 N 879.47 0.276058 1.55163 0
M  V30 9540 C 880.4 -0.604633 2.25536 0
M  V30 9541 C 881.381 -1.15813 1.24585 0
M  V30 9542 O 882.566 -1.1921 1.53306 0
M  V30 9543 C 879.696 -1.78836 2.97716 0
M  V30 9544 C 878.65 -1.36635 4.05604 0
M  V30 9545 C 877.976 -2.63325 4.65364 0
M  V30 9546 C 879.276 -0.515858 5.19746 0
M  V30 9547 H 880.97 -0.0177483 2.99395 0
M  V30 9548 H 878.516 -0.00709627 1.43998 0
M  V30 9549 H 880.469 -2.41036 3.45658 0
M  V30 9550 H 879.193 -2.40109 2.21394 0
M  V30 9551 H 877.852 -0.767541 3.58475 0
M  V30 9552 H 877.5 -3.22858 3.85709 0
M  V30 9553 H 877.2 -2.358 5.38212 0
M  V30 9554 H 878.724 -3.26372 5.16056 0
M  V30 9555 H 880.138 -1.04289 5.63735 0
M  V30 9556 H 878.535 -0.335449 5.99162 0
M  V30 9557 H 879.605 0.465137 4.82664 0
M  V30 9558 N 880.948 -1.576 0.00335426 0
M  V30 9559 C 882.173 -1.95398 -0.695311 0
M  V30 9560 C 882.598 -0.878476 -1.66326 0
M  V30 9561 O 881.956 0.163086 -1.80565 0
M  V30 9562 C 882.004 -3.32293 -1.40049 0
M  V30 9563 O 881.108 -3.26834 -2.51502 0
M  V30 9564 H 880.449 -0.637796 -0.184694 0
M  V30 9565 H 882.979 -2.04519 0.057543 0
M  V30 9566 H 882.989 -3.67936 -1.76316 0
M  V30 9567 H 881.664 -4.10123 -0.690803 0
M  V30 9568 H 880.241 -3.02872 -2.17539 0
M  V30 9569 N 882.426 0.269451 -1.5528 0
M  V30 9570 C 883.672 1.00206 -1.76314 0
M  V30 9571 C 884.005 1.85812 -0.564581 0
M  V30 9572 O 883.28 1.89509 0.437769 0
M  V30 9573 C 883.563 1.88163 -3.07029 0
M  V30 9574 C 883.416 1.05527 -4.37246 0
M  V30 9575 C 884.735 2.8681 -3.33808 0
M  V30 9576 H 881.854 0.36288 -0.641473 0
M  V30 9577 H 884.496 0.274188 -1.88011 0
M  V30 9578 H 882.646 2.50224 -2.97187 0
M  V30 9579 H 884.318 0.455094 -4.5905 0
M  V30 9580 H 882.561 0.358842 -4.32313 0
M  V30 9581 H 883.232 1.70397 -5.25042 0
M  V30 9582 H 885.708 2.34884 -3.43466 0
M  V30 9583 H 884.584 3.45492 -4.26528 0
M  V30 9584 H 884.845 3.62118 -2.5362 0
M  V30 9585 N 883.904 1.48273 0.534124 0
M  V30 9586 C 885.153 1.55334 1.28663 0
M  V30 9587 C 885.466 0.230345 1.94239 0
M  V30 9588 O 886.672 0.179161 2.70908 0
M  V30 9589 C 885.128 2.73927 2.33435 0
M  V30 9590 C 884.736 4.12852 1.73947 0
M  V30 9591 C 886.48 2.90298 3.09722 0
M  V30 9592 C 884.387 5.22711 2.76636 0
M  V30 9593 H 883.317 0.578262 0.483869 0
M  V30 9594 H 885.968 1.74598 0.564602 0
M  V30 9595 H 884.35 2.48089 3.08655 0
M  V30 9596 H 885.524 4.48691 1.04944 0
M  V30 9597 H 883.839 4.01562 1.10167 0
M  V30 9598 H 886.436 3.69542 3.86449 0
M  V30 9599 H 886.779 1.99598 3.6533 0
M  V30 9600 H 887.312 3.16017 2.41616 0
M  V30 9601 H 884.051 6.15362 2.25852 0
M  V30 9602 H 883.571 4.91364 3.43979 0
M  V30 9603 H 885.25 5.50648 3.39699 0
M  V30 9604 N 885.382 -0.782676 1.36792 0
M  V30 9605 C 886.292 -1.92679 1.33835 0
M  V30 9606 C 887.308 -1.72344 0.23952 0
M  V30 9607 O 888.484 -1.95766 0.473045 0
M  V30 9608 C 885.549 -3.27644 1.1336 0
M  V30 9609 C 884.61 -3.6071 2.32781 0
M  V30 9610 C 883.843 -4.89234 2.13273 0
M  V30 9611 O 884.066 -5.59468 1.11136 0
M  V30 9612 O 883 -5.21112 3.01208 0
M  V30 9613 H 886.826 -1.98124 2.30175 0
M  V30 9614 H 884.411 -0.923887 1.17408 0
M  V30 9615 H 886.293 -4.08394 1.03886 0
M  V30 9616 H 884.968 -3.23076 0.200868 0
M  V30 9617 H 883.875 -2.80238 2.47825 0
M  V30 9618 H 885.208 -3.70008 3.24584 0
M  V30 9619 N 886.86 -1.21182 -1.00761 0
M  V30 9620 C 887.77 -0.984691 -2.12934 0
M  V30 9621 C 888.786 0.0623657 -1.73888 0
M  V30 9622 O 889.962 -0.1271 -2.00999 0
M  V30 9623 C 887.027 -0.549447 -3.42319 0
M  V30 9624 C 886.088 -1.66841 -3.95553 0
M  V30 9625 C 885.321 -1.25384 -5.18763 0
M  V30 9626 O 885.544 -0.126333 -5.7026 0
M  V30 9627 O 884.478 -2.06475 -5.65377 0
M  V30 9628 H 888.304 -1.92413 -2.3497 0
M  V30 9629 H 885.889 -0.99647 -1.11314 0
M  V30 9630 H 887.771 -0.316384 -4.20211 0
M  V30 9631 H 886.446 0.361304 -3.21677 0
M  V30 9632 H 885.353 -1.95585 -3.189 0
M  V30 9633 H 886.686 -2.55649 -4.206 0
M  V30 9634 N 888.338 1.20213 -1.01915 0
M  V30 9635 C 889.288 2.20957 -0.562327 0
M  V30 9636 C 890.272 1.56258 0.383704 0
M  V30 9637 O 891.464 1.75794 0.206255 0
M  V30 9638 C 888.593 3.43167 0.0954035 0
M  V30 9639 C 887.679 4.15028 -0.872487 0
M  V30 9640 N 888.07 4.63231 -2.03103 0
M  V30 9641 C 886.368 4.4057 -0.69385 0
M  V30 9642 C 887.069 5.18307 -2.64069 0
M  V30 9643 N 886.045 5.08522 -1.9211 0
M  V30 9644 H 889.847 2.55894 -1.44553 0
M  V30 9645 H 887.361 1.36178 -0.884831 0
M  V30 9646 H 889.358 4.14569 0.440232 0
M  V30 9647 H 888.018 3.09734 0.974413 0
M  V30 9648 H 889.029 4.58365 -2.41086 0
M  V30 9649 H 885.706 4.17276 0.136889 0
M  V30 9650 H 887.096 5.65961 -3.6213 0
M  V30 9651 N 889.816 0.795718 1.36037 0
M  V30 9652 C 890.746 0.212803 2.32528 0
M  V30 9653 C 891.727 -0.655716 1.56953 0
M  V30 9654 O 892.912 -0.588238 1.85077 0
M  V30 9655 C 890.042 -0.648189 3.41198 0
M  V30 9656 C 888.996 0.120948 4.27829 0
M  V30 9657 C 888.322 -0.861044 5.27722 0
M  V30 9658 C 889.622 1.31375 5.05508 0
M  V30 9659 H 891.316 1.01893 2.81528 0
M  V30 9660 H 888.862 0.491422 1.35355 0
M  V30 9661 H 890.815 -1.06597 4.07695 0
M  V30 9662 H 889.539 -1.48709 2.9078 0
M  V30 9663 H 888.198 0.519777 3.62897 0
M  V30 9664 H 887.846 -1.69515 4.73575 0
M  V30 9665 H 887.546 -0.350808 5.86552 0
M  V30 9666 H 889.07 -1.27726 5.97092 0
M  V30 9667 H 890.484 0.971406 5.6501 0
M  V30 9668 H 888.881 1.75772 5.73781 0
M  V30 9669 H 889.951 2.10593 4.36782 0
M  V30 9670 N 891.294 -1.47756 0.548274 0
M  V30 9671 C 892.71 -1.58247 0.207401 0
M  V30 9672 C 892.91 -1.54804 -1.28988 0
M  V30 9673 O 891.966 -1.44673 -2.06944 0
M  V30 9674 C 893.279 -2.89129 0.826142 0
M  V30 9675 C 894.827 -3.02695 0.79655 0
M  V30 9676 C 895.302 -4.36264 1.3942 0
M  V30 9677 N 896.793 -4.42877 1.35698 0
M  V30 9678 C 897.528 -5.44773 1.78913 0
M  V30 9679 N 897.024 -6.53528 2.29942 0
M  V30 9680 N 898.817 -5.35765 1.70038 0
M  V30 9681 H 890.968 -1.48236 1.52117 0
M  V30 9682 H 893.231 -0.704957 0.633829 0
M  V30 9683 H 892.937 -2.97358 1.87806 0
M  V30 9684 H 892.811 -3.75891 0.313916 0
M  V30 9685 H 895.198 -2.94067 -0.246655 0
M  V30 9686 H 895.279 -2.17496 1.34644 0
M  V30 9687 H 894.923 -4.45646 2.43642 0
M  V30 9688 H 894.853 -5.20179 0.819827 0
M  V30 9689 H 897.344 -3.64874 0.983623 0
M  V30 9690 H 897.657 -7.27441 2.60863 0
M  V30 9691 H 896.002 -6.54442 2.33947 0
M  V30 9692 H 899.193 -4.49699 1.29955 0
M  V30 9693 H 899.366 -6.1504 2.04035 0
M  V30 9694 N 892.772 -0.284283 -1.55015 0
M  V30 9695 C 894.183 0.211681 -1.85496 0
M  V30 9696 C 894.534 1.54735 -1.2063 0
M  V30 9697 O 893.659 2.10594 -0.497918 0
M  V30 9698 C 894.254 0.390864 -3.36538 0
M  V30 9699 C 892.813 0.831055 -3.67111 0
M  V30 9700 C 891.96 -0.0703581 -2.77211 0
M  V30 9701 H 894.911 -0.505803 -1.50424 0
M  V30 9702 H 894.932 1.22803 -3.60138 0
M  V30 9703 H 894.444 -0.581409 -3.8372 0
M  V30 9704 H 892.545 1.81447 -3.25434 0
M  V30 9705 H 892.658 0.662026 -4.74504 0
M  V30 9706 H 891.022 0.447528 -2.50737 0
M  V30 9707 H 891.805 -1.03868 -3.2721 0
M  V30 9708 N 894.251 1.57596 -0.0117121 0
M  V30 9709 C 895.214 2.08089 0.960816 0
M  V30 9710 C 896.214 0.992519 1.26514 0
M  V30 9711 O 897.404 1.25475 1.20837 0
M  V30 9712 C 894.536 2.53217 2.28241 0
M  V30 9713 H 895.729 2.9529 0.523829 0
M  V30 9714 H 893.282 1.54508 0.235995 0
M  V30 9715 H 894.017 1.69294 2.76604 0
M  V30 9716 H 893.802 3.32714 2.0747 0
M  V30 9717 H 895.292 2.92568 2.97983 0
M  V30 9718 N 895.729 -0.261212 1.5542 0
M  V30 9719 C 896.662 -1.34906 1.84054 0
M  V30 9720 C 897.64 -1.47024 0.694466 0
M  V30 9721 O 898.824 -1.63463 0.938719 0
M  V30 9722 C 895.951 -2.7242 2.01259 0
M  V30 9723 C 894.997 -2.77526 3.23855 0
M  V30 9724 S 895.83 -2.35578 4.80898 0
M  V30 9725 C 896.986 -3.75045 5.01091 0
M  V30 9726 H 897.219 -1.10416 2.76035 0
M  V30 9727 H 894.752 -0.461461 1.47343 0
M  V30 9728 H 896.71 -3.51606 2.11857 0
M  V30 9729 H 895.371 -2.94155 1.10145 0
M  V30 9730 H 894.564 -3.78483 3.32816 0
M  V30 9731 H 894.166 -2.0637 3.11909 0
M  V30 9732 H 896.458 -4.7042 4.87556 0
M  V30 9733 H 897.401 -3.71027 6.03112 0
M  V30 9734 H 897.809 -3.66894 4.29009 0
M  V30 9735 N 897.207 -1.48554 -0.526253 0
M  V30 9736 C 898.117 -1.66044 -1.65731 0
M  V30 9737 C 899.133 -0.542951 -1.65312 0
M  V30 9738 O 900.309 -0.814495 -1.84195 0
M  V30 9739 C 897.374 -1.69959 -3.02184 0
M  V30 9740 C 896.435 -2.93362 -3.13428 0
M  V30 9741 C 895.668 -2.97081 -4.43372 0
M  V30 9742 O 895.891 -2.09103 -5.3069 0
M  V30 9743 O 894.825 -3.8929 -4.59061 0
M  V30 9744 H 898.651 -2.61811 -1.53912 0
M  V30 9745 H 896.236 -1.31999 -0.699759 0
M  V30 9746 H 898.118 -1.75033 -3.83329 0
M  V30 9747 H 896.793 -0.773658 -3.14319 0
M  V30 9748 H 895.7 -2.93818 -2.31564 0
M  V30 9749 H 897.033 -3.85352 -3.06211 0
M  V30 9750 N 898.685 0.775411 -1.37205 0
M  V30 9751 C 900.101 1.07546 -1.17924 0
M  V30 9752 C 900.301 2.01496 -0.0128897 0
M  V30 9753 O 899.357 2.44039 0.64816 0
M  V30 9754 C 900.67 1.67647 -2.49629 0
M  V30 9755 C 902.218 1.79923 -2.56119 0
M  V30 9756 C 902.693 2.43438 -3.87946 0
M  V30 9757 N 904.184 2.50893 -3.89368 0
M  V30 9758 C 904.919 3.00881 -4.88117 0
M  V30 9759 N 904.415 3.5107 -5.97262 0
M  V30 9760 N 906.208 2.99722 -4.75524 0
M  V30 9761 H 898.359 0.151524 -2.11859 0
M  V30 9762 H 900.622 0.129845 -0.939066 0
M  V30 9763 H 900.328 1.06082 -3.3532 0
M  V30 9764 H 900.202 2.66988 -2.66453 0
M  V30 9765 H 902.589 2.40621 -1.70838 0
M  V30 9766 H 902.67 0.793482 -2.43182 0
M  V30 9767 H 902.314 1.8338 -4.73639 0
M  V30 9768 H 902.244 3.44611 -3.98184 0
M  V30 9769 H 904.735 2.1537 -3.10522 0
M  V30 9770 H 905.048 3.87604 -6.68568 0
M  V30 9771 H 903.393 3.49184 -6.00912 0
M  V30 9772 H 906.584 2.5981 -3.8938 0
M  V30 9773 H 906.757 3.38369 -5.52639 0
M  V30 9774 N 900.163 1.21714 1.00117 0
M  V30 9775 C 901.412 1.03087 1.73367 0
M  V30 9776 C 901.725 -0.435532 1.90689 0
M  V30 9777 O 902.931 -0.741291 2.61184 0
M  V30 9778 C 901.387 1.79593 3.11888 0
M  V30 9779 C 900.995 3.30428 3.02525 0
M  V30 9780 C 902.739 1.69386 3.89241 0
M  V30 9781 C 900.646 3.99408 4.3615 0
M  V30 9782 H 899.576 0.382117 0.650002 0
M  V30 9783 H 902.227 1.45486 1.11831 0
M  V30 9784 H 900.609 1.29988 3.74058 0
M  V30 9785 H 901.783 3.87364 2.49571 0
M  V30 9786 H 900.098 3.4122 2.38659 0
M  V30 9787 H 902.695 2.18251 4.8813 0
M  V30 9788 H 903.038 0.652773 4.1115 0
M  V30 9789 H 903.571 2.16489 3.33733 0
M  V30 9790 H 900.31 5.03735 4.19442 0
M  V30 9791 H 899.83 3.47261 4.8905 0
M  V30 9792 H 901.509 4.04537 5.04934 0
M  V30 9793 N 901.641 -1.19671 1.02551 0
M  V30 9794 C 902.889 -1.88894 0.71858 0
M  V30 9795 C 903.21 -1.79797 -0.754856 0
M  V30 9796 O 902.48 -1.20621 -1.54362 0
M  V30 9797 H 901.06 -0.699244 0.262806 0
M  V30 9798 H 903.722 -1.45298 1.29902 0
M  V30 9799 H 902.818 -2.95309 1.00989 0
M  V30 9800 N 903.119 -0.802921 -1.35613 0
M  V30 9801 C 904.029 -0.212177 -2.33639 0
M  V30 9802 C 905.045 0.642871 -1.61689 0
M  V30 9803 O 906.221 0.555485 -1.93588 0
M  V30 9804 C 903.286 0.632406 -3.40883 0
M  V30 9805 C 902.347 -0.242708 -4.28613 0
M  V30 9806 C 901.58 0.56166 -5.30736 0
M  V30 9807 O 901.803 1.79664 -5.41366 0
M  V30 9808 O 900.737 -0.0455387 -6.01883 0
M  V30 9809 H 904.563 -1.023 -2.85952 0
M  V30 9810 H 902.148 -0.564636 -1.38319 0
M  V30 9811 H 904.03 1.11358 -4.0642 0
M  V30 9812 H 902.705 1.42089 -2.90848 0
M  V30 9813 H 901.612 -0.77094 -3.6607 0
M  V30 9814 H 902.945 -0.995046 -4.82037 0
M  V30 9815 N 904.597 1.47463 -0.556102 0
M  V30 9816 C 905.527 2.32801 0.180497 0
M  V30 9817 C 906.508 1.43721 0.909848 0
M  V30 9818 O 907.693 1.72578 0.89053 0
M  V30 9819 C 904.823 3.25478 1.21167 0
M  V30 9820 C 903.777 4.2379 0.598846 0
M  V30 9821 C 903.103 5.05783 1.73457 0
M  V30 9822 C 904.403 5.20387 -0.446659 0
M  V30 9823 H 906.097 2.94636 -0.531956 0
M  V30 9824 H 903.643 1.41683 -0.257267 0
M  V30 9825 H 905.596 3.8402 1.73513 0
M  V30 9826 H 904.32 2.61695 1.95405 0
M  V30 9827 H 902.979 3.66472 0.0966897 0
M  V30 9828 H 902.627 4.38405 2.46596 0
M  V30 9829 H 902.327 5.72343 1.33031 0
M  V30 9830 H 903.851 5.67183 2.26131 0
M  V30 9831 H 905.265 5.73299 -0.00930019 0
M  V30 9832 H 903.662 5.95143 -0.769735 0
M  V30 9833 H 904.732 4.65932 -1.34295 0
M  V30 9834 N 906.075 0.2925 1.54862 0
M  V30 9835 C 907.305 -0.321646 2.04081 0
M  V30 9836 C 907.713 -1.48712 1.16967 0
M  V30 9837 O 907.056 -1.82755 0.18609 0
M  V30 9838 C 907.118 -0.848678 3.49339 0
M  V30 9839 C 906.782 0.190416 4.56603 0
M  V30 9840 C 907.779 1.01595 5.09877 0
M  V30 9841 C 905.464 0.329666 5.01217 0
M  V30 9842 C 907.458 1.96676 6.06298 0
M  V30 9843 C 905.145 1.28393 5.9746 0
M  V30 9844 C 906.143 2.10097 6.49883 0
M  V30 9845 O 905.831 3.03907 7.44242 0
M  V30 9846 H 905.563 -0.075098 0.671816 0
M  V30 9847 H 908.117 0.427531 2.00901 0
M  V30 9848 H 906.347 -1.64823 3.49815 0
M  V30 9849 H 908.036 -1.37779 3.81801 0
M  V30 9850 H 908.802 0.919197 4.7621 0
M  V30 9851 H 904.681 -0.296317 4.60047 0
M  V30 9852 H 908.225 2.60488 6.47141 0
M  V30 9853 H 904.122 1.38144 6.30545 0
M  V30 9854 H 904.89 2.98787 7.62016 0
M  V30 9855 N 907.553 -1.57587 0.0200696 0
M  V30 9856 C 908.83 -1.82696 -0.698677 0
M  V30 9857 C 909.21 -0.902082 -1.90855 0
M  V30 9858 O 908.558 0.0444834 -2.28457 0
M  V30 9859 C 908.768 -3.31691 -1.08546 0
M  V30 9860 C 910.116 -3.97938 -1.4809 0
M  V30 9861 O 911.14 -3.36133 -1.17869 0
M  V30 9862 O 909.999 -5.06851 -2.04364 0
M  V30 9863 H 907.093 -0.752997 -0.341942 0
M  V30 9864 H 909.639 -1.69635 0.04706 0
M  V30 9865 H 908.411 -3.90659 -0.223956 0
M  V30 9866 H 908.034 -3.49825 -1.88965 0
M  V30 9867 N 909.032 0.252966 -1.55557 0
M  V30 9868 C 909.979 1.3131 -1.89806 0
M  V30 9869 C 910.949 1.48121 -0.751633 0
M  V30 9870 O 912.134 1.62202 -1.00474 0
M  V30 9871 C 909.274 2.66467 -2.19293 0
M  V30 9872 C 908.387 2.57714 -3.46709 0
M  V30 9873 C 907.522 3.85184 -3.65796 0
M  V30 9874 C 906.561 3.71023 -4.86835 0
M  V30 9875 N 905.698 4.90371 -5.02474 0
M  V30 9876 H 910.538 1.01402 -2.80217 0
M  V30 9877 H 908.075 0.489462 -1.38718 0
M  V30 9878 H 910.033 3.45132 -2.34392 0
M  V30 9879 H 908.663 2.94536 -1.32093 0
M  V30 9880 H 907.715 1.70651 -3.39974 0
M  V30 9881 H 909.027 2.43158 -4.35517 0
M  V30 9882 H 908.181 4.72292 -3.80822 0
M  V30 9883 H 906.92 4.0263 -2.7521 0
M  V30 9884 H 905.925 2.82299 -4.71792 0
M  V30 9885 H 907.15 3.55078 -5.78875 0
M  V30 9886 H 905.096 5.0819 -4.14824 0
M  V30 9887 H 905.013 4.78423 -5.85361 0
M  V30 9888 H 906.281 5.78995 -5.21905 0
M  V30 9889 N 910.51 1.48831 0.518367 0
M  V30 9890 C 911.758 1.57128 1.27103 0
M  V30 9891 C 912.079 0.252098 1.93364 0
M  V30 9892 O 911.349 -0.727281 1.819 0
M  V30 9893 H 909.929 0.578891 0.472116 0
M  V30 9894 H 912.591 1.85361 0.602262 0
M  V30 9895 H 911.687 2.35838 2.04418 0
M  V30 9896 N 911.988 -0.768124 1.37614 0
M  V30 9897 C 912.935 -1.88151 1.33671 0
M  V30 9898 C 913.905 -1.64871 0.201645 0
M  V30 9899 O 915.09 -1.86739 0.391582 0
M  V30 9900 C 912.23 -3.25264 1.15314 0
M  V30 9901 C 911.343 -3.60473 2.38082 0
M  V30 9902 C 910.478 -4.86814 2.12569 0
M  V30 9903 C 909.517 -5.14765 3.31184 0
M  V30 9904 N 908.654 -6.32295 3.052 0
M  V30 9905 H 913.494 -1.90857 2.28862 0
M  V30 9906 H 911.031 -0.933048 1.13722 0
M  V30 9907 H 912.989 -4.04364 1.02691 0
M  V30 9908 H 911.619 -3.21924 0.237689 0
M  V30 9909 H 910.671 -2.7633 2.61431 0
M  V30 9910 H 911.983 -3.77065 3.26532 0
M  V30 9911 H 911.137 -5.73826 1.96999 0
M  V30 9912 H 909.876 -4.72333 1.21462 0
M  V30 9913 H 908.881 -4.26227 3.4729 0
M  V30 9914 H 910.106 -5.31153 4.23147 0
M  V30 9915 H 908.052 -6.19166 2.16726 0
M  V30 9916 H 907.969 -6.4932 3.87195 0
M  V30 9917 H 909.237 -7.22234 2.93254 0
M  V30 9918 N 913.466 -1.22244 -0.994698 0
M  V30 9919 C 914.715 -1.04005 -1.72817 0
M  V30 9920 C 915.028 0.425413 -1.90918 0
M  V30 9921 O 916.234 0.727429 -2.61574 0
M  V30 9922 C 914.69 -1.81244 -3.10932 0
M  V30 9923 C 914.298 -3.32028 -3.00768 0
M  V30 9924 C 916.042 -1.71448 -3.88337 0
M  V30 9925 C 913.949 -4.01716 -4.34026 0
M  V30 9926 H 912.879 -0.385559 -0.647966 0
M  V30 9927 H 915.53 -1.46077 -1.11058 0
M  V30 9928 H 913.912 -1.3197 -3.73363 0
M  V30 9929 H 915.086 -3.88682 -2.47513 0
M  V30 9930 H 913.401 -3.4248 -2.36846 0
M  V30 9931 H 915.998 -2.20836 -4.86965 0
M  V30 9932 H 916.341 -0.674568 -4.10798 0
M  V30 9933 H 916.874 -2.18256 -3.3258 0
M  V30 9934 H 913.613 -5.05952 -4.16765 0
M  V30 9935 H 913.133 -3.49849 -4.87202 0
M  V30 9936 H 914.812 -4.0721 -5.02782 0
M  V30 9937 N 914.944 1.19125 -1.03184 0
M  V30 9938 C 916.191 1.88883 -0.730029 0
M  V30 9939 C 916.519 1.79807 0.741602 0
M  V30 9940 O 915.774 1.18686 1.55603 0
M  V30 9941 C 916.073 3.39052 -1.13041 0
M  V30 9942 C 915.739 3.68332 -2.60082 0
M  V30 9943 C 914.401 3.76033 -3.00254 0
M  V30 9944 C 916.753 3.81423 -3.55199 0
M  V30 9945 C 914.081 3.94296 -4.34451 0
M  V30 9946 C 916.433 4.012 -4.89103 0
M  V30 9947 C 915.097 4.07134 -5.28959 0
M  V30 9948 H 914.367 0.691172 -0.267137 0
M  V30 9949 H 917.014 1.41053 -1.29523 0
M  V30 9950 H 915.319 3.88801 -0.48386 0
M  V30 9951 H 917.016 3.91351 -0.874368 0
M  V30 9952 H 913.606 3.62948 -2.27961 0
M  V30 9953 H 917.79 3.74814 -3.25313 0
M  V30 9954 H 913.046 3.97131 -4.64863 0
M  V30 9955 H 917.22 4.10271 -5.62717 0
M  V30 9956 H 914.847 4.21038 -6.32954 0
M  V30 9957 N 916.422 0.810101 1.35185 0
M  V30 9958 C 917.352 0.237453 2.32289 0
M  V30 9959 C 918.333 -0.639032 1.5764 0
M  V30 9960 O 919.518 -0.568575 1.8569 0
M  V30 9961 C 916.648 -0.611964 3.41866 0
M  V30 9962 C 915.602 0.166318 4.27677 0
M  V30 9963 C 914.928 -0.805024 5.28605 0
M  V30 9964 C 916.228 1.36729 5.04086 0
M  V30 9965 H 917.922 1.04874 2.80432 0
M  V30 9966 H 915.468 0.505751 1.34826 0
M  V30 9967 H 917.421 -1.02267 4.08802 0
M  V30 9968 H 916.145 -1.45617 2.92341 0
M  V30 9969 H 914.804 0.558238 3.62325 0
M  V30 9970 H 914.452 -1.64483 4.75347 0
M  V30 9971 H 914.152 -0.288577 5.86891 0
M  V30 9972 H 915.676 -1.21386 5.98413 0
M  V30 9973 H 917.09 1.03128 5.63948 0
M  V30 9974 H 915.487 1.81848 5.71884 0
M  V30 9975 H 916.557 2.15214 4.34524 0
M  V30 9976 N 917.9 -1.47166 0.563914 0
M  V30 9977 C 919.311 -1.86231 0.132307 0
M  V30 9978 C 919.662 -1.46976 -1.29971 0
M  V30 9979 O 918.787 -0.875911 -1.97881 0
M  V30 9980 C 919.382 -3.37996 0.233335 0
M  V30 9981 C 917.941 -3.76127 -0.143278 0
M  V30 9982 C 917.088 -2.71212 0.577857 0
M  V30 9983 H 920.039 -1.38588 0.773249 0
M  V30 9984 H 920.06 -3.76558 -0.546309 0
M  V30 9985 H 919.572 -3.66535 1.27568 0
M  V30 9986 H 917.673 -3.53205 -1.18648 0
M  V30 9987 H 917.786 -4.78595 0.219952 0
M  V30 9988 H 916.15 -2.54692 0.020186 0
M  V30 9989 H 916.933 -3.02593 1.62149 0
M  V30 9990 N 919.378 -0.300708 -1.54705 0
M  V30 9991 C 920.31 0.609179 -2.20956 0
M  V30 9992 C 921.323 1.09776 -1.20221 0
M  V30 9993 O 922.512 1.01527 -1.46815 0
M  V30 9994 C 919.612 1.84595 -2.84214 0
M  V30 9995 C 918.785 1.49991 -4.10879 0
M  V30 9996 C 917.844 2.5918 -4.57943 0
M  V30 9997 O 916.87 2.24285 -5.23149 0
M  V30 9998 N 918.072 3.89714 -4.30236 0
M  V30 9999 H 920.837 0.0420111 -2.99671 0
M  V30 10000 H 918.398 -0.122896 -1.61433 0
M  V30 10001 H 920.39 2.56988 -3.12633 0
M  V30 10002 H 918.96 2.32152 -2.09342 0
M  V30 10003 H 918.18 0.608637 -3.89473 0
M  V30 10004 H 919.468 1.24409 -4.93356 0
M  V30 10005 H 918.866 4.20874 -3.77997 0
M  V30 10006 H 917.423 4.58406 -4.63365 0
M  V30 10007 N 920.856 1.57574 -0.0284266 0
M  V30 10008 C 921.786 2.1321 0.952039 0
M  V30 10009 C 922.767 1.04806 1.33977 0
M  V30 10010 O 923.952 1.32635 1.41851 0
M  V30 10011 C 921.082 2.65862 2.23461 0
M  V30 10012 C 920.036 3.79047 1.98765 0
M  V30 10013 C 919.362 4.18124 3.33281 0
M  V30 10014 C 920.662 5.05151 1.32739 0
M  V30 10015 H 922.356 2.95385 0.488705 0
M  V30 10016 H 919.902 1.42092 0.233628 0
M  V30 10017 H 921.855 3.03417 2.92431 0
M  V30 10018 H 920.579 1.80848 2.71959 0
M  V30 10019 H 919.238 3.41929 1.32213 0
M  V30 10020 H 918.886 3.30092 3.79537 0
M  V30 10021 H 918.586 4.94396 3.17563 0
M  V30 10022 H 920.11 4.58262 4.0352 0
M  V30 10023 H 921.524 5.40297 1.91708 0
M  V30 10024 H 919.921 5.86416 1.27421 0
M  V30 10025 H 920.991 4.83969 0.300261 0
M  V30 10026 N 922.334 -0.244713 1.55689 0
M  V30 10027 C 923.583 -0.970373 1.76824 0
M  V30 10028 C 923.896 -1.86402 0.592764 0
M  V30 10029 O 925.102 -2.62659 0.687186 0
M  V30 10030 C 923.558 -1.77547 3.13058 0
M  V30 10031 C 923.166 -0.929104 4.3826 0
M  V30 10032 C 924.91 -2.49373 3.43531 0
M  V30 10033 C 922.817 -1.73021 5.65524 0
M  V30 10034 H 921.747 -0.366048 0.659185 0
M  V30 10035 H 924.398 -0.224964 1.82116 0
M  V30 10036 H 922.78 -2.56291 3.01879 0
M  V30 10037 H 923.954 -0.183836 4.60433 0
M  V30 10038 H 922.269 -0.324071 4.15137 0
M  V30 10039 H 924.866 -3.09767 4.35831 0
M  V30 10040 H 925.209 -3.21099 2.64955 0
M  V30 10041 H 925.742 -1.77637 3.55935 0
M  V30 10042 H 922.481 -1.05666 6.46927 0
M  V30 10043 H 922.001 -2.45071 5.47449 0
M  V30 10044 H 923.68 -2.2968 6.0486 0
M  V30 10045 N 923.813 -1.49104 -0.510467 0
M  V30 10046 C 924.743 -1.67981 -1.62187 0
M  V30 10047 C 925.724 -0.528529 -1.6168 0
M  V30 10048 O 926.909 -0.763305 -1.7857 0
M  V30 10049 C 924.039 -1.73755 -3.0071 0
M  V30 10050 C 922.993 -2.88579 -3.1608 0
M  V30 10051 C 922.319 -2.79457 -4.5586 0
M  V30 10052 C 923.619 -4.29638 -2.97 0
M  V30 10053 H 925.313 -2.61029 -1.46643 0
M  V30 10054 H 922.859 -1.25615 -0.704042 0
M  V30 10055 H 924.812 -1.85548 -3.78352 0
M  V30 10056 H 923.536 -0.772996 -3.17321 0
M  V30 10057 H 922.195 -2.76372 -2.40861 0
M  V30 10058 H 921.843 -1.80929 -4.69333 0
M  V30 10059 H 921.543 -3.56518 -4.67086 0
M  V30 10060 H 923.067 -2.93245 -5.35574 0
M  V30 10061 H 924.481 -4.42575 -3.64418 0
M  V30 10062 H 922.878 -5.07847 -3.19704 0
M  V30 10063 H 923.948 -4.44741 -1.93219 0
M  V30 10064 N 925.291 0.760815 -1.38019 0
M  V30 10065 C 926.254 1.85604 -1.34476 0
M  V30 10066 C 927.254 1.58897 -0.24666 0
M  V30 10067 O 928.444 1.66776 -0.50314 0
M  V30 10068 C 925.576 3.22945 -1.09176 0
M  V30 10069 H 926.769 1.90155 -2.31908 0
M  V30 10070 H 924.322 0.961746 -1.23208 0
M  V30 10071 H 925.057 3.24066 -0.123216 0
M  V30 10072 H 924.842 3.43723 -1.88672 0
M  V30 10073 H 926.332 4.03022 -1.09375 0
M  V30 10074 N 926.769 1.22769 0.988202 0
M  V30 10075 C 927.732 1.00325 2.06076 0
M  V30 10076 C 928.732 -0.0320618 1.60768 0
M  V30 10077 O 929.922 0.206912 1.72967 0
M  V30 10078 C 927.054 0.516376 3.36966 0
M  V30 10079 H 928.247 1.95499 2.27421 0
M  V30 10080 H 925.8 1.04704 1.16047 0
M  V30 10081 H 926.535 -0.439498 3.21308 0
M  V30 10082 H 926.32 1.26337 3.71189 0
M  V30 10083 H 927.81 0.37974 4.1587 0
M  V30 10084 N 928.247 -1.18576 1.03814 0
M  V30 10085 C 929.179 -2.21607 0.585055 0
M  V30 10086 C 930.192 -1.59125 -0.343963 0
M  V30 10087 O 931.381 -1.77959 -0.138882 0
M  V30 10088 C 928.481 -3.38495 -0.165602 0
M  V30 10089 C 927.654 -4.30557 0.770662 0
M  V30 10090 C 926.713 -5.26161 0.0637534 0
M  V30 10091 O 925.739 -5.64961 0.693359 0
M  V30 10092 N 926.941 -5.67882 -1.20377 0
M  V30 10093 H 929.706 -2.61104 1.47121 0
M  V30 10094 H 927.267 -1.33336 0.918316 0
M  V30 10095 H 929.259 -3.99474 -0.648292 0
M  V30 10096 H 927.829 -2.97711 -0.953268 0
M  V30 10097 H 927.049 -3.67221 1.43326 0
M  V30 10098 H 928.337 -4.88969 1.40667 0
M  V30 10099 H 927.735 -5.38409 -1.73586 0
M  V30 10100 H 926.292 -6.31069 -1.63079 0
M  V30 10101 N 929.725 -0.817259 -1.34754 0
M  V30 10102 C 930.953 -0.415451 -2.02686 0
M  V30 10103 C 931.368 0.97688 -1.61563 0
M  V30 10104 O 930.725 1.63125 -0.818321 0
M  V30 10105 C 930.776 -0.501486 -3.58005 0
M  V30 10106 O 930.497 -1.83893 -3.97637 0
M  V30 10107 C 931.998 -0.0938504 -4.43201 0
M  V30 10108 H 929.218 -0.16742 -0.649778 0
M  V30 10109 H 931.762 -1.10384 -1.7215 0
M  V30 10110 H 929.917 0.138766 -3.87151 0
M  V30 10111 H 930.331 -1.8092 -4.92309 0
M  V30 10112 H 931.805 -0.205145 -5.51619 0
M  V30 10113 H 932.282 0.962011 -4.28535 0
M  V30 10114 H 932.888 -0.707677 -4.19371 0
M  V30 10115 N 931.203 1.46865 -0.571711 0
M  V30 10116 C 932.449 2.0273 -0.0531858 0
M  V30 10117 C 932.782 1.44353 1.29907 0
M  V30 10118 O 932.057 0.604488 1.84868 0
M  V30 10119 C 932.34 3.60092 0.0243831 0
M  V30 10120 C 932.193 4.28874 -1.35599 0
M  V30 10121 C 933.512 4.33994 0.730563 0
M  V30 10122 H 930.631 0.736706 -0.0208018 0
M  V30 10123 H 933.273 1.75132 -0.736794 0
M  V30 10124 H 931.423 3.83736 0.606565 0
M  V30 10125 H 933.095 4.16527 -1.98249 0
M  V30 10126 H 931.338 3.88664 -1.92674 0
M  V30 10127 H 932.009 5.37561 -1.25429 0
M  V30 10128 H 934.485 4.1543 0.236098 0
M  V30 10129 H 933.361 5.43699 0.753836 0
M  V30 10130 H 933.622 4.04257 1.78967 0
M  V30 10131 N 932.681 0.308908 1.54543 0
M  V30 10132 C 933.628 -0.563659 2.23811 0
M  V30 10133 C 934.598 -1.12332 1.22355 0
M  V30 10134 O 935.783 -1.16638 1.50997 0
M  V30 10135 C 932.923 -1.72585 2.98845 0
M  V30 10136 C 932.036 -1.19682 4.1509 0
M  V30 10137 C 931.171 -2.32351 4.77688 0
M  V30 10138 C 930.21 -1.76623 5.86064 0
M  V30 10139 N 929.347 -2.82896 6.42584 0
M  V30 10140 H 934.187 0.0336288 2.97981 0
M  V30 10141 H 931.724 0.0283666 1.47073 0
M  V30 10142 H 933.682 -2.40951 3.40586 0
M  V30 10143 H 932.312 -2.29464 2.27037 0
M  V30 10144 H 931.364 -0.405173 3.78236 0
M  V30 10145 H 932.676 -0.748923 4.93146 0
M  V30 10146 H 931.83 -3.0865 5.22322 0
M  V30 10147 H 930.569 -2.80472 3.98982 0
M  V30 10148 H 929.574 -0.988171 5.40847 0
M  V30 10149 H 930.799 -1.29398 6.66658 0
M  V30 10150 H 928.745 -3.30336 5.66758 0
M  V30 10151 H 928.662 -2.42626 7.16009 0
M  V30 10152 H 929.93 -3.59068 6.91875 0
M  V30 10153 N 934.159 -1.57557 0.0367827 0
M  V30 10154 C 935.57 -1.79853 -0.500971 0
M  V30 10155 C 935.921 -0.947749 -1.71791 0
M  V30 10156 O 935.046 -0.160287 -2.15806 0
M  V30 10157 C 935.641 -3.26193 -0.915626 0
M  V30 10158 C 934.2 -3.49457 -1.39845 0
M  V30 10159 C 933.347 -2.74864 -0.366784 0
M  V30 10160 H 936.298 -1.56509 0.262768 0
M  V30 10161 H 936.319 -3.36324 -1.7795 0
M  V30 10162 H 935.831 -3.88089 -0.0297227 0
M  V30 10163 H 933.932 -2.92823 -2.30402 0
M  V30 10164 H 934.045 -4.58172 -1.40054 0
M  V30 10165 H 932.409 -2.4057 -0.836554 0
M  V30 10166 H 933.192 -3.39479 0.510785 0
M  V30 10167 N 935.637 0.236453 -1.55816 0
M  V30 10168 C 936.883 0.964439 -1.784 0
M  V30 10169 C 937.216 1.84573 -0.603868 0
M  V30 10170 O 936.491 1.90395 0.397473 0
M  V30 10171 C 936.774 1.81608 -3.10951 0
M  V30 10172 C 936.627 0.962283 -4.39386 0
M  V30 10173 C 937.946 2.79665 -3.39817 0
M  V30 10174 H 935.065 0.349192 -0.649026 0
M  V30 10175 H 937.707 0.234247 -1.8855 0
M  V30 10176 H 935.857 2.43864 -3.02428 0
M  V30 10177 H 937.529 0.35762 -4.59912 0
M  V30 10178 H 935.772 0.267062 -4.32977 0
M  V30 10179 H 936.443 1.59222 -5.28538 0
M  V30 10180 H 938.919 2.27546 -3.4837 0
M  V30 10181 H 937.795 3.36367 -4.33761 0
M  V30 10182 H 938.056 3.56657 -2.61244 0
M  V30 10183 N 937.115 1.49373 0.502552 0
M  V30 10184 C 938.362 1.58781 1.25678 0
M  V30 10185 C 938.69 0.273819 1.92563 0
M  V30 10186 O 937.945 -0.738141 1.81246 0
M  V30 10187 C 938.244 2.69508 2.34735 0
M  V30 10188 C 937.91 4.11057 1.85318 0
M  V30 10189 C 936.572 4.49578 1.7156 0
M  V30 10190 C 938.924 4.99653 1.48312 0
M  V30 10191 C 936.252 5.74469 1.19172 0
M  V30 10192 C 938.604 6.2506 0.97377 0
M  V30 10193 C 937.268 6.62412 0.822573 0
M  V30 10194 H 936.538 0.581021 0.459887 0
M  V30 10195 H 939.185 1.83197 0.557767 0
M  V30 10196 H 937.49 2.39057 3.10418 0
M  V30 10197 H 939.187 2.73997 2.92791 0
M  V30 10198 H 935.777 3.80651 1.96985 0
M  V30 10199 H 939.961 4.70549 1.57789 0
M  V30 10200 H 935.217 6.0211 1.06176 0
M  V30 10201 H 939.391 6.93089 0.678233 0
M  V30 10202 H 937.018 7.59069 0.414453 0
M  V30 10203 N 938.594 -0.753485 1.38421 0
M  V30 10204 C 939.871 -1.50318 1.25155 0
M  V30 10205 C 940.251 -2.10588 -0.147003 0
M  V30 10206 O 939.599 -1.97071 -1.15651 0
M  V30 10207 C 939.809 -2.56946 2.36177 0
M  V30 10208 C 941.157 -3.23846 2.74607 0
M  V30 10209 O 942.181 -2.67251 2.3549 0
M  V30 10210 O 941.04 -4.2621 3.42064 0
M  V30 10211 H 938.134 -0.666624 0.48943 0
M  V30 10212 H 940.68 -0.788887 1.50249 0
M  V30 10213 H 939.452 -2.1066 3.29754 0
M  V30 10214 H 939.075 -3.35956 2.12648 0
M  V30 10215 N 940.072 -1.23292 -0.981677 0
M  V30 10216 C 941.019 -1.01296 -2.07383 0
M  V30 10217 C 941.989 0.069139 -1.65956 0
M  V30 10218 O 943.174 -0.0827108 -1.90621 0
M  V30 10219 C 940.314 -0.608876 -3.39686 0
M  V30 10220 C 939.427 -1.76296 -3.9439 0
M  V30 10221 C 938.562 -1.30578 -5.14901 0
M  V30 10222 C 937.601 -2.4307 -5.61768 0
M  V30 10223 N 936.738 -1.98319 -6.73509 0
M  V30 10224 H 941.578 -1.9478 -2.25532 0
M  V30 10225 H 939.115 -0.970356 -1.10555 0
M  V30 10226 H 941.073 -0.355702 -4.15681 0
M  V30 10227 H 939.703 0.288961 -3.21504 0
M  V30 10228 H 938.755 -2.13017 -3.15163 0
M  V30 10229 H 940.067 -2.60871 -4.25145 0
M  V30 10230 H 939.221 -1.01066 -5.98223 0
M  V30 10231 H 937.96 -0.430386 -4.85797 0
M  V30 10232 H 936.965 -2.73358 -4.77028 0
M  V30 10233 H 938.19 -3.31144 -5.92892 0
M  V30 10234 H 936.136 -1.13157 -6.46167 0
M  V30 10235 H 936.053 -2.76454 -7.0364 0
M  V30 10236 H 937.321 -1.71907 -7.60308 0
M  V30 10237 N 941.55 1.18024 -1.04442 0
M  V30 10238 C 942.48 2.23988 -0.659683 0
M  V30 10239 C 943.461 1.6669 0.338904 0
M  V30 10240 O 944.646 1.92971 0.21817 0
M  V30 10241 C 941.776 3.4729 -0.0257672 0
M  V30 10242 C 940.73 4.17362 -0.948299 0
M  V30 10243 C 940.056 5.34401 -0.17866 0
M  V30 10244 C 941.356 4.70435 -2.26909 0
M  V30 10245 H 943.05 2.56425 -1.54553 0
M  V30 10246 H 940.596 1.23256 -0.744575 0
M  V30 10247 H 942.549 4.20627 0.255131 0
M  V30 10248 H 941.273 3.14098 0.894981 0
M  V30 10249 H 939.932 3.45928 -1.21364 0
M  V30 10250 H 939.58 4.97458 0.744614 0
M  V30 10251 H 939.28 5.8222 -0.793294 0
M  V30 10252 H 940.804 6.10526 0.0951315 0
M  V30 10253 H 942.218 5.35447 -2.04864 0
M  V30 10254 H 940.615 5.28803 -2.83703 0
M  V30 10255 H 941.685 3.87653 -2.91296 0
M  V30 10256 N 943.028 0.824394 1.34319 0
M  V30 10257 C 944.256 0.426194 2.02463 0
M  V30 10258 C 944.671 -0.968298 1.62078 0
M  V30 10259 O 944.028 -1.62689 0.82696 0
M  V30 10260 C 944.079 0.520465 3.57734 0
M  V30 10261 O 943.8 1.86 3.96656 0
M  V30 10262 C 945.301 0.117353 4.43145 0
M  V30 10263 H 942.521 0.170864 0.648881 0
M  V30 10264 H 945.065 1.11296 1.71562 0
M  V30 10265 H 943.22 -0.118233 3.8722 0
M  V30 10266 H 943.634 1.83528 4.91343 0
M  V30 10267 H 945.108 0.234395 5.51502 0
M  V30 10268 H 945.585 -0.939271 4.29039 0
M  V30 10269 H 946.191 0.729908 4.1899 0
M  V30 10270 N 944.506 -1.46559 0.579492 0
M  V30 10271 C 945.731 -2.0729 0.0674595 0
M  V30 10272 C 946.156 -1.4259 -1.22677 0
M  V30 10273 O 945.514 -0.50857 -1.74021 0
M  V30 10274 C 945.562 -3.60492 -0.0882227 0
M  V30 10275 O 944.666 -3.96172 -1.14551 0
M  V30 10276 H 944.007 -0.661159 0.0613536 0
M  V30 10277 H 946.537 -1.88247 0.801519 0
M  V30 10278 H 946.547 -4.06929 -0.295411 0
M  V30 10279 H 945.222 -4.06976 0.856943 0
M  V30 10280 H 943.799 -3.61448 -0.917033 0
M  V30 10281 N 945.984 -0.3171 -1.54377 0
M  V30 10282 C 946.917 0.594178 -2.20329 0
M  V30 10283 C 947.895 1.12067 -1.17812 0
M  V30 10284 O 949.079 1.18588 -1.46524 0
M  V30 10285 C 946.206 1.81463 -2.85987 0
M  V30 10286 C 945.252 1.41996 -4.02168 0
M  V30 10287 S 946.085 0.462159 -5.33502 0
M  V30 10288 C 947.241 1.69004 -6.02651 0
M  V30 10289 H 947.474 0.0339261 -2.97281 0
M  V30 10290 H 945.007 -0.101196 -1.54068 0
M  V30 10291 H 946.965 2.51494 -3.2444 0
M  V30 10292 H 945.626 2.34606 -2.08851 0
M  V30 10293 H 944.819 2.32921 -4.4695 0
M  V30 10294 H 944.421 0.799423 -3.65356 0
M  V30 10295 H 946.713 2.62839 -6.24437 0
M  V30 10296 H 947.656 1.28451 -6.96352 0
M  V30 10297 H 948.064 1.87408 -5.32483 0
M  V30 10298 N 947.462 1.57535 -0.0451378 0
M  V30 10299 C 948.392 2.14208 0.929372 0
M  V30 10300 C 949.373 1.06221 1.32858 0
M  V30 10301 O 950.558 1.34132 1.40436 0
M  V30 10302 C 947.688 2.68217 2.20629 0
M  V30 10303 C 946.642 3.81134 1.94734 0
M  V30 10304 C 945.968 4.21636 3.28828 0
M  V30 10305 C 947.268 5.06531 1.27374 0
M  V30 10306 H 948.962 2.95886 0.457348 0
M  V30 10307 H 946.508 1.42332 0.218544 0
M  V30 10308 H 948.461 3.06502 2.89196 0
M  V30 10309 H 947.185 1.83722 2.70026 0
M  V30 10310 H 945.844 3.43312 1.28579 0
M  V30 10311 H 945.492 3.34099 3.76014 0
M  V30 10312 H 945.192 4.97736 3.12302 0
M  V30 10313 H 946.716 4.62516 3.98637 0
M  V30 10314 H 948.13 5.423 1.85967 0
M  V30 10315 H 946.527 5.87735 1.21194 0
M  V30 10316 H 947.597 4.84261 0.248913 0
M  V30 10317 N 948.94 -0.228186 1.55939 0
M  V30 10318 C 950.351 -0.795734 1.68893 0
M  V30 10319 C 950.702 -1.85261 0.645967 0
M  V30 10320 O 949.827 -2.15434 -0.2042 0
M  V30 10321 C 950.422 -1.45013 3.06197 0
M  V30 10322 C 948.981 -1.96514 3.21028 0
M  V30 10323 C 948.128 -0.822918 2.64808 0
M  V30 10324 H 951.079 -0.0036485 1.587 0
M  V30 10325 H 951.1 -2.31875 3.01685 0
M  V30 10326 H 950.612 -0.680678 3.82084 0
M  V30 10327 H 948.713 -2.76282 2.49998 0
M  V30 10328 H 948.826 -2.14967 4.28166 0
M  V30 10329 H 947.19 -1.22846 2.23116 0
M  V30 10330 H 947.973 -0.0662493 3.43236 0
M  V30 10331 N 950.418 -1.49637 -0.494624 0
M  V30 10332 C 951.643 -1.63431 -1.27691 0
M  V30 10333 C 952.068 -0.30813 -1.85559 0
M  V30 10334 O 951.426 0.725083 -1.66169 0
M  V30 10335 C 951.474 -2.71043 -2.3784 0
M  V30 10336 O 950.578 -2.3066 -3.41862 0
M  V30 10337 H 949.919 -0.546804 -0.376698 0
M  V30 10338 H 952.449 -1.95866 -0.591413 0
M  V30 10339 H 952.459 -2.93406 -2.83508 0
M  V30 10340 H 951.134 -3.67306 -1.95088 0
M  V30 10341 H 949.711 -2.18652 -3.02069 0
M  V30 10342 N 951.896 0.746133 -1.38819 0
M  V30 10343 C 953.173 1.49652 -1.25951 0
M  V30 10344 C 953.553 2.10663 0.135833 0
M  V30 10345 O 952.901 1.97682 1.14604 0
M  V30 10346 C 953.111 2.5569 -2.37537 0
M  V30 10347 C 954.459 3.22385 -2.76321 0
M  V30 10348 O 955.483 2.65998 -2.36904 0
M  V30 10349 O 954.342 4.2439 -3.44319 0
M  V30 10350 H 951.436 0.664019 -0.492958 0
M  V30 10351 H 953.982 0.780908 -1.50665 0
M  V30 10352 H 952.754 2.08908 -3.30867 0
M  V30 10353 H 952.377 3.34823 -2.14427 0
M  V30 10354 N 953.375 1.23811 0.975125 0
M  V30 10355 C 954.6 1.10109 1.75757 0
M  V30 10356 C 955.025 -0.342922 1.84948 0
M  V30 10357 O 954.383 -1.24814 1.31496 0
M  V30 10358 C 954.431 1.73724 3.15994 0
M  V30 10359 O 953.535 1.00297 4.00018 0
M  V30 10360 H 952.876 0.385627 0.540544 0
M  V30 10361 H 955.406 1.63971 1.22372 0
M  V30 10362 H 955.416 1.79178 3.6655 0
M  V30 10363 H 954.091 2.78794 3.0862 0
M  V30 10364 H 952.668 1.02575 3.58515 0
M  V30 10365 N 954.853 -1.17469 1.05066 0
M  V30 10366 C 955.785 -2.20974 0.608526 0
M  V30 10367 C 956.798 -1.59481 -0.327066 0
M  V30 10368 O 957.987 -1.78096 -0.12 0
M  V30 10369 C 955.087 -3.38652 -0.12969 0
M  V30 10370 C 954.26 -4.29716 0.816285 0
M  V30 10371 C 953.319 -5.26064 0.119556 0
M  V30 10372 O 952.345 -5.64194 0.753241 0
M  V30 10373 N 953.547 -5.69126 -1.14347 0
M  V30 10374 H 956.312 -2.59529 1.49882 0
M  V30 10375 H 953.873 -1.32355 0.932406 0
M  V30 10376 H 955.865 -4.00139 -0.605886 0
M  V30 10377 H 954.435 -2.98705 -0.921638 0
M  V30 10378 H 953.655 -3.6568 1.47213 0
M  V30 10379 H 954.943 -4.87449 1.45845 0
M  V30 10380 H 954.341 -5.4022 -1.67866 0
M  V30 10381 H 952.898 -6.32764 -1.56376 0
M  V30 10382 N 956.331 -0.831506 -1.3388 0
M  V30 10383 C 957.579 -0.422837 -1.97627 0
M  V30 10384 C 957.9 1.01961 -1.6622 0
M  V30 10385 O 957.17 1.70916 -0.957323 0
M  V30 10386 H 955.75 -0.153365 -0.731087 0
M  V30 10387 H 958.412 -1.06284 -1.6337 0
M  V30 10388 H 957.508 -0.548858 -3.07236 0
M  V30 10389 N 957.809 1.4625 -0.587256 0
M  V30 10390 C 958.719 2.34147 0.145744 0
M  V30 10391 C 959.735 1.50026 0.881376 0
M  V30 10392 O 960.911 1.82884 0.843539 0
M  V30 10393 C 957.976 3.27294 1.14366 0
M  V30 10394 C 957.037 4.27317 0.412199 0
M  V30 10395 C 956.27 5.16013 1.36257 0
M  V30 10396 O 956.493 5.0773 2.59934 0
M  V30 10397 O 955.427 5.95569 0.870681 0
M  V30 10398 H 959.253 2.98187 -0.576055 0
M  V30 10399 H 956.838 1.45299 -0.347628 0
M  V30 10400 H 958.72 3.84747 1.71894 0
M  V30 10401 H 957.395 2.65845 1.84684 0
M  V30 10402 H 956.302 3.73538 -0.205036 0
M  V30 10403 H 957.635 4.91564 -0.250104 0
M  V30 10404 N 959.287 0.325282 1.54207 0
M  V30 10405 C 960.515 -0.27869 2.05014 0
M  V30 10406 C 960.93 -1.45649 1.20133 0
M  V30 10407 O 960.287 -1.81014 0.232398 0
M  V30 10408 C 960.338 -0.711486 3.54429 0
M  V30 10409 O 960.059 0.419458 4.36087 0
M  V30 10410 C 961.56 -1.37809 4.21336 0
M  V30 10411 H 958.78 -0.0570388 0.668571 0
M  V30 10412 H 961.324 0.47197 1.98979 0
M  V30 10413 H 959.479 -1.41212 3.60746 0
M  V30 10414 H 959.893 0.0781037 5.24442 0
M  V30 10415 H 961.367 -1.63184 5.27328 0
M  V30 10416 H 961.844 -2.32593 3.72555 0
M  V30 10417 H 962.45 -0.719987 4.19161 0
M  V30 10418 N 960.765 -1.57509 0.0534917 0
M  V30 10419 C 962.012 -1.92782 -0.619772 0
M  V30 10420 C 962.34 -0.932046 -1.70714 0
M  V30 10421 O 961.595 0.0552891 -1.95622 0
M  V30 10422 C 961.894 -3.34734 -1.25251 0
M  V30 10423 C 961.56 -4.49946 -0.293113 0
M  V30 10424 C 960.222 -4.81191 -0.0291223 0
M  V30 10425 C 962.574 -5.19925 0.364271 0
M  V30 10426 C 959.902 -5.79761 0.899649 0
M  V30 10427 C 962.254 -6.19489 1.28125 0
M  V30 10428 C 960.918 -6.49161 1.55389 0
M  V30 10429 H 960.188 -0.705441 -0.226791 0
M  V30 10430 H 962.835 -1.91121 0.120466 0
M  V30 10431 H 961.14 -3.32774 -2.06807 0
M  V30 10432 H 962.837 -3.59308 -1.78042 0
M  V30 10433 H 959.427 -4.25566 -0.509053 0
M  V30 10434 H 963.611 -4.95997 0.173411 0
M  V30 10435 H 958.867 -6.01085 1.11833 0
M  V30 10436 H 963.041 -6.72824 1.79669 0
M  V30 10437 H 960.668 -7.25354 2.2752 0
M  V30 10438 N 962.243 0.219913 -1.56058 0
M  V30 10439 C 963.489 0.945463 -1.79412 0
M  V30 10440 C 963.822 1.83922 -0.62341 0
M  V30 10441 O 963.097 1.90806 0.377256 0
M  V30 10442 C 963.38 1.783 -3.1286 0
M  V30 10443 C 963.233 0.915626 -4.40382 0
M  V30 10444 C 964.552 2.76045 -3.42764 0
M  V30 10445 H 961.671 0.342288 -0.652693 0
M  V30 10446 H 964.313 0.214235 -1.88788 0
M  V30 10447 H 962.463 2.40642 -3.04998 0
M  V30 10448 H 964.135 0.30882 -4.60265 0
M  V30 10449 H 962.378 0.221124 -4.33236 0
M  V30 10450 H 963.049 1.53607 -5.30197 0
M  V30 10451 H 965.525 2.23838 -3.50764 0
M  V30 10452 H 964.401 3.31748 -4.37304 0
M  V30 10453 H 964.662 3.53866 -2.65012 0
M  V30 10454 N 963.721 1.49897 0.486681 0
M  V30 10455 C 964.97 1.59349 1.23656 0
M  V30 10456 C 965.283 0.292024 1.93408 0
M  V30 10457 O 966.489 0.265258 2.70201 0
M  V30 10458 C 964.945 2.81215 2.24602 0
M  V30 10459 C 964.553 4.18177 1.60725 0
M  V30 10460 C 966.297 3.00004 3.00329 0
M  V30 10461 C 964.204 5.31247 2.59866 0
M  V30 10462 H 963.134 0.593363 0.465227 0
M  V30 10463 H 965.785 1.76306 0.508769 0
M  V30 10464 H 964.167 2.57783 3.00606 0
M  V30 10465 H 965.341 4.51802 0.90616 0
M  V30 10466 H 963.656 4.04864 0.973362 0
M  V30 10467 H 966.253 3.81649 3.74497 0
M  V30 10468 H 966.596 2.1112 3.58795 0
M  V30 10469 H 967.129 3.23544 2.3144 0
M  V30 10470 H 963.868 6.22236 2.06161 0
M  V30 10471 H 963.388 5.02059 3.28172 0
M  V30 10472 H 965.067 5.61177 3.22009 0
M  V30 10473 N 965.199 -0.738761 1.39212 0
M  V30 10474 C 966.162 -1.83441 1.37412 0
M  V30 10475 C 967.162 -1.58484 0.271908 0
M  V30 10476 O 968.352 -1.65954 0.529609 0
M  V30 10477 C 965.484 -3.21167 1.143 0
M  V30 10478 H 966.677 -1.86441 2.34904 0
M  V30 10479 H 964.23 -0.942023 1.24722 0
M  V30 10480 H 964.965 -3.23829 0.174756 0
M  V30 10481 H 964.75 -3.40678 1.94116 0
M  V30 10482 H 966.24 -4.01231 1.15773 0
M  V30 10483 N 966.677 -1.24326 -0.968545 0
M  V30 10484 C 967.905 -1.10947 -1.74638 0
M  V30 10485 C 968.32 0.338064 -1.85749 0
M  V30 10486 O 967.677 1.23331 -1.3452 0
M  V30 10487 C 967.728 -1.74254 -3.1673 0
M  V30 10488 O 967.449 -3.13347 -3.06178 0
M  V30 10489 C 968.95 -1.66473 -4.10855 0
M  V30 10490 H 966.17 -0.38767 -0.547679 0
M  V30 10491 H 968.714 -1.64415 -1.21605 0
M  V30 10492 H 966.869 -1.2479 -3.66751 0
M  V30 10493 H 967.283 -3.44255 -3.95713 0
M  V30 10494 H 968.757 -2.15452 -5.08217 0
M  V30 10495 H 969.234 -0.625785 -4.34719 0
M  V30 10496 H 969.84 -2.15359 -3.66743 0
M  V30 10497 N 968.156 1.1691 -1.05688 0
M  V30 10498 C 969.402 1.8757 -0.771071 0
M  V30 10499 C 969.735 1.8113 0.700399 0
M  V30 10500 O 969.01 1.22273 1.5126 0
M  V30 10501 C 969.293 3.37392 -1.25851 0
M  V30 10502 C 969.146 3.52556 -2.79329 0
M  V30 10503 C 970.465 4.31585 -0.861512 0
M  V30 10504 H 967.584 0.681089 -0.281579 0
M  V30 10505 H 970.226 1.37453 -1.31174 0
M  V30 10506 H 968.376 3.80204 -0.798563 0
M  V30 10507 H 970.048 3.18725 -3.33485 0
M  V30 10508 H 968.291 2.94668 -3.1836 0
M  V30 10509 H 968.962 4.57748 -3.08498 0
M  V30 10510 H 971.438 3.96642 -1.25756 0
M  V30 10511 H 970.314 5.34939 -1.23012 0
M  V30 10512 H 970.575 4.4148 0.234089 0
M  V30 10513 N 969.634 0.838594 1.33437 0
M  V30 10514 C 970.581 0.269609 2.2922 0
M  V30 10515 C 971.551 -0.614429 1.54318 0
M  V30 10516 O 972.736 -0.552756 1.82618 0
M  V30 10517 C 969.876 -0.549527 3.40697 0
M  V30 10518 C 968.989 0.358502 4.3051 0
M  V30 10519 C 968.124 -0.471709 5.29101 0
M  V30 10520 C 967.163 0.434728 6.10554 0
M  V30 10521 N 966.3 -0.357339 7.0119 0
M  V30 10522 H 971.14 1.09172 2.77282 0
M  V30 10523 H 968.677 0.549832 1.36438 0
M  V30 10524 H 970.635 -1.03992 4.04032 0
M  V30 10525 H 969.265 -1.33661 2.93828 0
M  V30 10526 H 968.317 0.967204 3.67899 0
M  V30 10527 H 969.629 1.05483 4.87519 0
M  V30 10528 H 968.783 -1.02594 5.97963 0
M  V30 10529 H 967.522 -1.20147 4.72669 0
M  V30 10530 H 966.527 1.00097 5.40611 0
M  V30 10531 H 967.752 1.16285 6.6907 0
M  V30 10532 H 965.698 -1.07049 6.47207 0
M  V30 10533 H 965.615 0.280277 7.5548 0
M  V30 10534 H 966.883 -0.893814 7.74359 0
M  V30 10535 N 971.112 -1.45937 0.595003 0
M  V30 10536 C 972.36 -2.01921 0.0851368 0
M  V30 10537 C 972.681 -1.46748 -1.28413 0
M  V30 10538 O 971.951 -0.656873 -1.84559 0
M  V30 10539 H 970.531 -0.746457 0.0284826 0
M  V30 10540 H 973.193 -1.78891 0.773561 0
M  V30 10541 H 972.289 -3.1209 0.0254002 0
M  V30 10542 N 972.59 -0.333456 -1.54032 0
M  V30 10543 C 973.867 0.320902 -1.9295 0
M  V30 10544 C 974.247 1.69071 -1.26405 0
M  V30 10545 O 973.595 2.24768 -0.411311 0
M  V30 10546 C 973.805 0.403257 -3.46662 0
M  V30 10547 C 975.153 0.658875 -4.19457 0
M  V30 10548 O 976.177 0.485781 -3.52872 0
M  V30 10549 O 975.036 0.993475 -5.37394 0
M  V30 10550 H 972.13 0.185158 -0.806006 0
M  V30 10551 H 974.676 -0.383895 -1.65301 0
M  V30 10552 H 973.448 -0.558409 -3.87295 0
M  V30 10553 H 973.071 1.15524 -3.80447 0
M  V30 10554 N 974.068 1.57479 -0.061844 0
M  V30 10555 C 975.314 1.93395 0.610443 0
M  V30 10556 C 975.647 0.941334 1.6986 0
M  V30 10557 O 974.922 -0.0310262 1.94475 0
M  V30 10558 C 975.205 3.39636 1.19664 0
M  V30 10559 C 975.058 4.49651 0.115805 0
M  V30 10560 C 976.377 3.86488 2.10512 0
M  V30 10561 H 973.496 0.703262 0.220436 0
M  V30 10562 H 976.138 1.89583 -0.125785 0
M  V30 10563 H 974.288 3.43015 1.82409 0
M  V30 10564 H 975.96 4.58397 -0.516728 0
M  V30 10565 H 974.203 4.30237 -0.55483 0
M  V30 10566 H 974.874 5.49089 0.566176 0
M  V30 10567 H 977.35 3.85052 1.57715 0
M  V30 10568 H 976.226 4.89444 2.48466 0
M  V30 10569 H 976.487 3.23856 3.00948 0
M  V30 10570 N 975.546 -0.211634 1.56173 0
M  V30 10571 C 976.496 -1.26602 1.8962 0
M  V30 10572 C 977.48 -1.41808 0.760222 0
M  V30 10573 O 978.672 -1.44456 1.02281 0
M  V30 10574 C 975.801 -2.61438 2.22497 0
M  V30 10575 C 974.887 -2.50094 3.42511 0
M  V30 10576 N 975.278 -2.0841 4.60868 0
M  V30 10577 C 973.576 -2.81028 3.46322 0
M  V30 10578 C 974.277 -2.08557 5.43028 0
M  V30 10579 N 973.253 -2.49427 4.82998 0
M  V30 10580 H 977.055 -0.934806 2.78637 0
M  V30 10581 H 974.569 -0.420154 1.56871 0
M  V30 10582 H 976.566 -3.37577 2.44638 0
M  V30 10583 H 975.226 -2.95397 1.34798 0
M  V30 10584 H 976.237 -1.79382 4.85842 0
M  V30 10585 H 972.914 -3.19294 2.68994 0
M  V30 10586 H 974.304 -1.7837 6.47791 0
M  V30 10587 N 977.024 -1.50153 -0.478725 0
M  V30 10588 C 978.301 -1.51274 -1.23999 0
M  V30 10589 C 978.681 -0.253048 -2.09578 0
M  V30 10590 O 978.029 0.763827 -2.15355 0
M  V30 10591 C 978.239 -2.80423 -2.07759 0
M  V30 10592 C 979.587 -3.30788 -2.66204 0
M  V30 10593 O 980.611 -2.81693 -2.18008 0
M  V30 10594 O 979.47 -4.1635 -3.53999 0
M  V30 10595 H 976.564 -0.606438 -0.562283 0
M  V30 10596 H 979.11 -1.62436 -0.491171 0
M  V30 10597 H 977.882 -3.63584 -1.44645 0
M  V30 10598 H 977.505 -2.72228 -2.89789 0
M  V30 10599 N 978.502 0.731368 -1.39602 0
M  V30 10600 C 979.751 1.48647 -1.36334 0
M  V30 10601 C 980.064 1.95565 0.0367383 0
M  V30 10602 O 981.27 2.7082 0.192017 0
M  V30 10603 C 979.726 2.68616 -2.39528 0
M  V30 10604 C 979.334 2.28632 -3.85268 0
M  V30 10605 C 981.078 3.46422 -2.45341 0
M  V30 10606 C 978.985 3.45345 -4.80095 0
M  V30 10607 H 977.915 0.558218 -0.506861 0
M  V30 10608 H 980.566 0.797467 -1.65266 0
M  V30 10609 H 978.948 3.39609 -2.03671 0
M  V30 10610 H 980.122 1.65162 -4.30184 0
M  V30 10611 H 978.437 1.63909 -3.82783 0
M  V30 10612 H 981.034 4.33241 -3.13379 0
M  V30 10613 H 981.377 3.8914 -1.47904 0
M  V30 10614 H 981.91 2.82461 -2.80108 0
M  V30 10615 H 978.649 3.07674 -5.78807 0
M  V30 10616 H 978.169 4.07784 -4.39855 0
M  V30 10617 H 979.848 4.1163 -4.99169 0
M  V30 10618 N 979.98 1.24838 0.961938 0
M  V30 10619 C 981.228 1.08936 1.70227 0
M  V30 10620 C 981.549 -0.371582 1.91427 0
M  V30 10621 O 980.819 -1.26461 1.49614 0
M  V30 10622 H 979.399 0.400128 0.630799 0
M  V30 10623 H 982.061 1.56848 1.15692 0
M  V30 10624 H 981.157 1.59195 2.68446 0
M  V30 10625 N 981.458 -1.16348 1.06306 0
M  V30 10626 C 982.405 -2.20741 0.673962 0
M  V30 10627 C 983.375 -1.628 -0.329454 0
M  V30 10628 O 984.56 -1.89547 -0.218313 0
M  V30 10629 C 981.7 -3.45036 0.0667008 0
M  V30 10630 C 980.813 -4.17221 1.12031 0
M  V30 10631 C 979.948 -5.29034 0.479176 0
M  V30 10632 C 978.987 -5.93021 1.51631 0
M  V30 10633 N 978.124 -6.96327 0.898528 0
M  V30 10634 H 982.964 -2.53376 1.56859 0
M  V30 10635 H 980.501 -1.24449 0.784276 0
M  V30 10636 H 982.459 -4.16099 -0.302916 0
M  V30 10637 H 981.089 -3.1295 -0.791333 0
M  V30 10638 H 980.141 -3.4476 1.60763 0
M  V30 10639 H 981.453 -4.60902 1.90712 0
M  V30 10640 H 980.607 -6.06674 0.0565993 0
M  V30 10641 H 979.346 -4.86517 -0.33951 0
M  V30 10642 H 978.351 -5.14104 1.94878 0
M  V30 10643 H 979.576 -6.37618 2.3371 0
M  V30 10644 H 977.522 -6.55923 0.100555 0
M  V30 10645 H 977.439 -7.38379 1.62272 0
M  V30 10646 H 978.707 -7.77888 0.5011 0
M  V30 10647 N 982.937 -0.845659 -1.3299 0
M  V30 10648 C 983.885 -0.272412 -2.30999 0
M  V30 10649 C 984.879 0.599311 -1.58444 0
M  V30 10650 O 986.085 0.488117 -1.73255 0
M  V30 10651 H 982.46 -0.0693751 -0.748793 0
M  V30 10652 H 984.431 -1.11343 -2.76849 0
M  V30 10653 C 983.18 0.532019 -3.43606 0
M  V30 10654 H 982.503 -0.129455 -3.9959 0
M  V30 10655 H 983.943 0.898853 -4.14363 0
M  V30 10656 C 982.402 1.71364 -2.90062 0
M  V30 10657 O 982.932 2.81252 -2.8681 0
M  V30 10658 N 981.138 1.53775 -2.4658 0
M  V30 10659 H 980.685 0.643836 -2.49424 0
M  V30 10660 H 980.643 2.32982 -2.11108 0
M  V30 10661 N 984.415 1.45619 -0.602734 0
M  V30 10662 C 985.664 2.01483 -0.0936395 0
M  V30 10663 C 985.977 1.47753 1.28173 0
M  V30 10664 O 987.183 1.95562 1.88329 0
M  V30 10665 C 985.639 3.59711 -0.116738 0
M  V30 10666 C 985.247 4.22437 -1.49166 0
M  V30 10667 C 986.991 4.23157 0.337368 0
M  V30 10668 C 984.898 5.72803 -1.47141 0
M  V30 10669 H 983.828 0.753353 -0.0312382 0
M  V30 10670 H 986.479 1.67142 -0.757347 0
M  V30 10671 H 984.861 3.91218 0.613529 0
M  V30 10672 H 986.035 4.02511 -2.24325 0
M  V30 10673 H 984.35 3.71166 -1.88746 0
M  V30 10674 H 986.947 5.33407 0.371628 0
M  V30 10675 H 987.29 3.93491 1.35906 0
M  V30 10676 H 987.823 3.96349 -0.339474 0
M  V30 10677 H 984.562 6.07161 -2.47055 0
M  V30 10678 H 984.082 5.94936 -0.762329 0
M  V30 10679 H 985.761 6.35907 -1.19294 0
M  V30 10680 N 985.893 0.34162 1.53853 0
M  V30 10681 C 987.139 -0.255862 2.01179 0
M  V30 10682 C 987.472 -1.50356 1.22909 0
M  V30 10683 O 986.747 -1.91913 0.316198 0
M  V30 10684 C 987.03 -0.571934 3.55529 0
M  V30 10685 C 986.883 0.687727 4.44511 0
M  V30 10686 C 988.202 -1.38233 4.17827 0
M  V30 10687 H 985.321 -0.091521 0.731295 0
M  V30 10688 H 987.963 0.461775 1.84303 0
M  V30 10689 H 986.113 -1.18331 3.70041 0
M  V30 10690 H 987.785 1.32572 4.4184 0
M  V30 10691 H 986.028 1.313 4.13452 0
M  V30 10692 H 986.699 0.421858 5.50386 0
M  V30 10693 H 989.175 -0.865374 4.07002 0
M  V30 10694 H 988.051 -1.57223 5.25901 0
M  V30 10695 H 988.312 -2.38386 3.72323 0
M  V30 10696 N 987.371 -1.57444 0.0701946 0
M  V30 10697 C 988.334 -2.11511 -0.882923 0
M  V30 10698 C 989.334 -1.03879 -1.22743 0
M  V30 10699 O 990.524 -1.29874 -1.16097 0
M  V30 10700 C 987.656 -2.61514 -2.18686 0
M  V30 10701 H 988.849 -2.9703 -0.413873 0
M  V30 10702 H 986.402 -1.55278 -0.178488 0
M  V30 10703 H 987.137 -1.79443 -2.70131 0
M  V30 10704 H 986.922 -3.40185 -1.94978 0
M  V30 10705 H 988.412 -3.03425 -2.86919 0
M  V30 10706 N 988.849 0.203349 -1.56283 0
M  V30 10707 C 990.074 0.945548 -1.84592 0
M  V30 10708 C 990.499 1.7641 -0.652772 0
M  V30 10709 O 989.857 1.76867 0.398468 0
M  V30 10710 C 989.905 1.82416 -3.11057 0
M  V30 10711 O 989.009 2.92191 -2.9103 0
M  V30 10712 H 988.35 0.266739 -0.608068 0
M  V30 10713 H 990.88 0.211158 -2.03507 0
M  V30 10714 H 990.89 2.23044 -3.41636 0
M  V30 10715 H 989.565 1.22267 -3.97522 0
M  V30 10716 H 988.142 2.55378 -2.71728 0
M  V30 10717 N 990.327 1.50405 0.470755 0
M  V30 10718 C 991.573 1.6165 1.22462 0
M  V30 10719 C 991.906 0.316034 1.91611 0
M  V30 10720 O 991.181 -0.682509 1.82132 0
M  V30 10721 C 991.464 2.79702 2.26801 0
M  V30 10722 C 991.317 4.19631 1.61955 0
M  V30 10723 C 992.636 2.93313 3.28109 0
M  V30 10724 H 989.755 0.588345 0.443868 0
M  V30 10725 H 992.397 1.82792 0.518376 0
M  V30 10726 H 990.547 2.61807 2.87036 0
M  V30 10727 H 992.219 4.49117 1.05316 0
M  V30 10728 H 990.462 4.23874 0.922674 0
M  V30 10729 H 991.133 4.98162 2.37779 0
M  V30 10730 H 993.609 3.09697 2.77897 0
M  V30 10731 H 992.485 3.77537 3.98443 0
M  V30 10732 H 992.746 2.03942 3.9225 0
M  V30 10733 N 991.805 -0.723954 1.39988 0
M  V30 10734 C 993.054 -1.47922 1.3712 0
M  V30 10735 C 993.367 -1.95582 -0.0263665 0
M  V30 10736 O 994.573 -2.70918 -0.177652 0
M  V30 10737 C 993.029 -2.67342 2.40949 0
M  V30 10738 C 992.637 -2.26586 3.86475 0
M  V30 10739 C 994.381 -3.45116 2.47174 0
M  V30 10740 C 992.288 -3.42794 4.81919 0
M  V30 10741 H 991.218 -0.555522 0.509815 0
M  V30 10742 H 993.869 -0.788692 1.65686 0
M  V30 10743 H 992.251 -3.38524 2.0547 0
M  V30 10744 H 993.425 -1.62878 4.31054 0
M  V30 10745 H 991.74 -1.61876 3.83647 0
M  V30 10746 H 994.337 -4.31573 3.15672 0
M  V30 10747 H 994.68 -3.8835 1.49966 0
M  V30 10748 H 995.213 -2.80971 2.81602 0
M  V30 10749 H 991.952 -3.046 5.8043 0
M  V30 10750 H 991.472 -4.05445 4.42012 0
M  V30 10751 H 993.151 -4.08977 5.01345 0
M  V30 10752 N 993.283 -1.25346 -0.955304 0
M  V30 10753 C 994.699 -1.02154 -1.22625 0
M  V30 10754 C 994.899 0.26206 -1.99789 0
M  V30 10755 O 993.955 0.974958 -2.32918 0
M  V30 10756 C 995.268 -2.2443 -2.00129 0
M  V30 10757 C 996.816 -2.29185 -2.13174 0
M  V30 10758 C 997.291 -3.51117 -2.94077 0
M  V30 10759 N 998.782 -3.51509 -3.01655 0
M  V30 10760 C 999.517 -4.42517 -3.64645 0
M  V30 10761 N 999.013 -5.43796 -4.29252 0
M  V30 10762 N 1000.81 -4.302 -3.61779 0
M  V30 10763 H 992.957 -2.07812 -0.439071 0
M  V30 10764 H 995.22 -0.91258 -0.256715 0
M  V30 10765 H 994.926 -3.17717 -1.50827 0
M  V30 10766 H 994.8 -2.27548 -3.00835 0
M  V30 10767 H 997.187 -1.36422 -2.61674 0
M  V30 10768 H 997.268 -2.30087 -1.11775 0
M  V30 10769 H 996.912 -4.44201 -2.46268 0
M  V30 10770 H 996.842 -3.4746 -3.95701 0
M  V30 10771 H 999.333 -2.78245 -2.55711 0
M  V30 10772 H 999.646 -6.09453 -4.75171 0
M  V30 10773 H 997.991 -5.4767 -4.27882 0
M  V30 10774 H 1001.18 -3.50304 -3.10491 0
M  V30 10775 H 1001.36 -5.01323 -4.10584 0
M  V30 10776 N 994.761 1.15782 -1.06922 0
M  V30 10777 C 995.986 1.90896 -0.810771 0
M  V30 10778 C 996.411 1.77246 0.629714 0
M  V30 10779 O 995.769 1.10215 1.43953 0
M  V30 10780 C 995.817 3.39397 -1.21829 0
M  V30 10781 O 994.921 4.10818 -0.360934 0
M  V30 10782 H 994.262 0.594497 -0.295752 0
M  V30 10783 H 996.792 1.46652 -1.42669 0
M  V30 10784 H 996.802 3.90181 -1.19259 0
M  V30 10785 H 995.477 3.4865 -2.2675 0
M  V30 10786 H 994.054 3.7019 -0.448748 0
M  V30 10787 N 996.239 0.8527 1.3254 0
M  V30 10788 C 997.464 0.468157 2.02047 0
M  V30 10789 C 997.889 -0.926967 1.63673 0
M  V30 10790 O 997.247 -1.60855 0.836378 0
M  V30 10791 C 997.295 0.612519 3.5536 0
M  V30 10792 O 996.399 -0.355506 4.10865 0
M  V30 10793 H 995.74 0.188401 0.636711 0
M  V30 10794 H 998.27 1.15135 1.6913 0
M  V30 10795 H 998.28 0.499315 4.04933 0
M  V30 10796 H 996.955 1.62988 3.82632 0
M  V30 10797 H 995.532 -0.198703 3.7237 0
M  V30 10798 N 997.718 -1.45297 0.610449 0
M  V30 10799 C 998.966 -2.01819 0.106548 0
M  V30 10800 C 999.287 -1.48102 -1.26849 0
M  V30 10801 O 998.557 -0.676411 -1.83852 0
M  V30 10802 H 997.137 -0.746113 0.0363982 0
M  V30 10803 H 999.799 -1.78061 0.792491 0
M  V30 10804 H 998.895 -3.12045 0.0585 0
M  V30 10805 N 999.196 -0.349774 -1.5367 0
M  V30 10806 C 1000.43 0.245682 -2.05134 0
M  V30 10807 C 1000.83 1.44269 -1.22406 0
M  V30 10808 O 1000.18 1.81938 -0.25379 0
M  V30 10809 C 1000.24 0.718439 -3.52248 0
M  V30 10810 C 999.903 -0.35975 -4.55582 0
M  V30 10811 C 1000.9 -1.20449 -5.05755 0
M  V30 10812 C 998.585 -0.515463 -4.99648 0
M  V30 10813 C 1000.58 -2.19043 -5.98581 0
M  V30 10814 C 998.266 -1.50479 -5.92283 0
M  V30 10815 C 999.264 -2.34072 -6.41638 0
M  V30 10816 O 998.952 -3.31319 -7.3245 0
M  V30 10817 H 998.684 0.0501122 -0.67414 0
M  V30 10818 H 1001.24 -0.5018 -1.99176 0
M  V30 10819 H 999.468 1.51727 -3.55691 0
M  V30 10820 H 1001.16 1.23513 -3.86651 0
M  V30 10821 H 1001.92 -1.09531 -4.7247 0
M  V30 10822 H 997.802 0.12537 -4.60829 0
M  V30 10823 H 1001.35 -2.84327 -6.37027 0
M  V30 10824 H 997.243 -1.61451 -6.24983 0
M  V30 10825 H 998.011 -3.26863 -7.50402 0
M  V30 10826 N 1000.67 1.57404 -0.0785433 0
M  V30 10827 C 1002.09 1.57158 0.2781 0
M  V30 10828 C 1002.29 1.08847 1.69572 0
M  V30 10829 O 1001.35 0.757407 2.40873 0
M  V30 10830 C 1002.66 3.00589 0.0816067 0
M  V30 10831 C 1004.21 3.12637 0.150627 0
M  V30 10832 C 1004.68 4.57997 -0.0176685 0
M  V30 10833 N 1006.17 4.63185 0.0377145 0
M  V30 10834 C 1006.91 5.7336 -0.0679907 0
M  V30 10835 N 1006.4 6.92426 -0.227598 0
M  V30 10836 N 1008.2 5.62099 -0.0104424 0
M  V30 10837 H 1000.35 1.87121 -1.00496 0
M  V30 10838 H 1002.61 0.862937 -0.392484 0
M  V30 10839 H 1002.32 3.40072 -0.896869 0
M  V30 10840 H 1002.19 3.67931 0.831046 0
M  V30 10841 H 1004.58 2.73037 1.11959 0
M  V30 10842 H 1004.66 2.4792 -0.630028 0
M  V30 10843 H 1004.3 4.98288 -0.983431 0
M  V30 10844 H 1004.23 5.20754 0.782475 0
M  V30 10845 H 1006.72 3.77564 0.159208 0
M  V30 10846 H 1007.04 7.72217 -0.300217 0
M  V30 10847 H 1005.38 6.94502 -0.263049 0
M  V30 10848 H 1008.57 4.67964 0.112999 0
M  V30 10849 H 1008.75 6.47928 -0.0962747 0
M  V30 10850 N 1002.15 -0.195058 1.56388 0
M  V30 10851 C 1003.4 -0.9168 1.80894 0
M  V30 10852 C 1003.73 -1.82907 0.652592 0
M  V30 10853 O 1003.01 -1.91382 -0.346853 0
M  V30 10854 C 1003.29 -1.733 3.15657 0
M  V30 10855 C 1003.14 -0.845449 4.41783 0
M  V30 10856 C 1004.46 -2.70557 3.47112 0
M  V30 10857 H 1001.58 -0.331861 0.658056 0
M  V30 10858 H 1004.22 -0.184174 1.89105 0
M  V30 10859 H 1002.37 -2.3576 3.08787 0
M  V30 10860 H 1004.04 -0.235557 4.60698 0
M  V30 10861 H 1002.29 -0.152172 4.33533 0
M  V30 10862 H 1002.96 -1.45152 5.32574 0
M  V30 10863 H 1005.43 -2.1823 3.54281 0
M  V30 10864 H 1004.31 -3.24749 4.42526 0
M  V30 10865 H 1004.57 -3.49605 2.70608 0
M  V30 10866 N 1003.63 -1.50653 -0.462772 0
M  V30 10867 C 1004.88 -1.62297 -1.21603 0
M  V30 10868 C 1005.21 -0.326191 -1.91441 0
M  V30 10869 O 1004.48 0.67284 -1.82491 0
M  V30 10870 C 1004.77 -2.80901 -2.25315 0
M  V30 10871 C 1004.62 -4.20484 -1.59728 0
M  V30 10872 C 1005.94 -2.95049 -3.26549 0
M  V30 10873 H 1003.06 -0.590691 -0.440741 0
M  V30 10874 H 1005.7 -1.83064 -0.508675 0
M  V30 10875 H 1003.85 -2.63325 -2.85643 0
M  V30 10876 H 1005.52 -4.49669 -1.02932 0
M  V30 10877 H 1003.76 -4.24357 -0.900181 0
M  V30 10878 H 1004.44 -4.99416 -2.35133 0
M  V30 10879 H 1006.91 -3.11166 -2.76251 0
M  V30 10880 H 1005.79 -3.79645 -3.96435 0
M  V30 10881 H 1006.05 -2.06019 -3.91163 0
M  V30 10882 N 1005.11 0.71652 -1.4037 0
M  V30 10883 C 1006.39 1.46947 -1.29097 0
M  V30 10884 C 1006.77 2.10903 0.0911182 0
M  V30 10885 O 1006.11 2.00068 1.10385 0
M  V30 10886 C 1006.32 2.50594 -2.42907 0
M  V30 10887 C 1007.67 3.16451 -2.83097 0
M  V30 10888 O 1008.7 2.60913 -2.42493 0
M  V30 10889 O 1007.55 4.16991 -3.53244 0
M  V30 10890 H 1004.65 0.653413 -0.506932 0
M  V30 10891 H 1007.19 0.748774 -1.52287 0
M  V30 10892 H 1005.97 2.01843 -3.35224 0
M  V30 10893 H 1005.59 3.302 -2.21481 0
M  V30 10894 N 1006.59 1.25851 0.948643 0
M  V30 10895 C 1007.52 1.09248 2.06367 0
M  V30 10896 C 1008.5 -0.000205168 1.701 0
M  V30 10897 O 1009.68 0.170442 1.93451 0
M  V30 10898 C 1006.81 0.716777 3.39823 0
M  V30 10899 C 1005.77 1.76036 3.90122 0
M  V30 10900 C 1005.09 1.23918 5.20143 0
M  V30 10901 C 1006.39 3.16039 4.15833 0
M  V30 10902 H 1008.09 2.02518 2.20515 0
M  V30 10903 H 1005.63 0.975093 1.05962 0
M  V30 10904 H 1007.59 0.587531 4.17284 0
M  V30 10905 H 1006.31 -0.251626 3.25629 0
M  V30 10906 H 1004.97 1.87815 3.14835 0
M  V30 10907 H 1004.62 0.260836 5.02323 0
M  V30 10908 H 1004.32 1.93673 5.54765 0
M  V30 10909 H 1005.84 1.12245 6.00194 0
M  V30 10910 H 1007.25 3.0738 4.83933 0
M  V30 10911 H 1005.65 3.83317 4.61723 0
M  V30 10912 H 1006.72 3.62652 3.21887 0
M  V30 10913 N 1008.06 -1.15214 1.07534 0
M  V30 10914 C 1009.31 -1.85676 0.79805 0
M  V30 10915 C 1009.63 -1.82837 -0.677919 0
M  V30 10916 O 1008.9 -1.27059 -1.49107 0
M  V30 10917 H 1007.48 -0.687468 0.292227 0
M  V30 10918 H 1010.15 -1.39658 1.35947 0
M  V30 10919 H 1009.24 -2.9076 1.13423 0
M  V30 10920 N 1009.54 -0.859717 -1.32086 0
M  V30 10921 C 1010.49 -0.306042 -2.28762 0
M  V30 10922 C 1011.46 0.589801 -1.55276 0
M  V30 10923 O 1012.64 0.523633 -1.83474 0
M  V30 10924 C 1009.78 0.495256 -3.41528 0
M  V30 10925 C 1008.9 -0.426947 -4.29885 0
M  V30 10926 C 1008.03 0.387474 -5.29785 0
M  V30 10927 C 1007.07 -0.531807 -6.09785 0
M  V30 10928 N 1006.21 0.245741 -7.0167 0
M  V30 10929 H 1011.05 -1.1357 -2.7551 0
M  V30 10930 H 1008.59 -0.571468 -1.35546 0
M  V30 10931 H 1010.54 0.97551 -4.05635 0
M  V30 10932 H 1009.17 1.28969 -2.95917 0
M  V30 10933 H 1008.23 -1.02561 -3.66313 0
M  V30 10934 H 1009.54 -1.13226 -4.85779 0
M  V30 10935 H 1008.69 0.930677 -5.99519 0
M  V30 10936 H 1007.43 1.12612 -4.74521 0
M  V30 10937 H 1006.44 -1.08685 -5.3895 0
M  V30 10938 H 1007.66 -1.26915 -6.67135 0
M  V30 10939 H 1005.61 0.967391 -6.48828 0
M  V30 10940 H 1005.52 -0.400432 -7.54939 0
M  V30 10941 H 1006.79 0.770507 -7.75683 0
M  V30 10942 N 1011.02 1.44971 -0.618145 0
M  V30 10943 C 1012.3 1.95539 -0.0489895 0
M  V30 10944 C 1012.68 1.5604 1.42179 0
M  V30 10945 O 1012.03 0.82809 2.12967 0
M  V30 10946 C 1012.24 3.48044 -0.258193 0
M  V30 10947 C 1013.58 4.24354 -0.144541 0
M  V30 10948 O 1014.61 3.55699 -0.18887 0
M  V30 10949 O 1013.47 5.46486 -0.038519 0
M  V30 10950 H 1010.56 0.826466 0.0297256 0
M  V30 10951 H 1013.11 1.55086 -0.688944 0
M  V30 10952 H 1011.88 3.69798 -1.27926 0
M  V30 10953 H 1011.5 3.95412 0.416522 0
M  V30 10954 N 1012.5 0.357919 1.53482 0
M  V30 10955 C 1013.74 -0.23451 2.0144 0
M  V30 10956 C 1014.08 -1.49044 1.24497 0
M  V30 10957 O 1013.35 -1.91566 0.336535 0
M  V30 10958 C 1013.64 -0.534193 3.56116 0
M  V30 10959 C 1013.49 0.734834 4.43757 0
M  V30 10960 C 1014.81 -1.33793 4.1927 0
M  V30 10961 H 1011.93 -0.0837595 0.732225 0
M  V30 10962 H 1014.57 0.481297 1.83803 0
M  V30 10963 H 1012.72 -1.144 3.71275 0
M  V30 10964 H 1014.39 1.37251 4.40409 0
M  V30 10965 H 1012.63 1.35678 4.12036 0
M  V30 10966 H 1013.3 0.48021 5.49907 0
M  V30 10967 H 1015.78 -0.822158 4.07897 0
M  V30 10968 H 1014.66 -1.51636 5.27539 0
M  V30 10969 H 1014.92 -2.34423 3.74831 0
M  V30 10970 N 1013.98 -1.5736 0.0868897 0
M  V30 10971 C 1015.25 -1.85495 -0.620561 0
M  V30 10972 C 1015.63 -0.982218 -1.86857 0
M  V30 10973 O 1014.98 -0.0524529 -2.2844 0
M  V30 10974 C 1015.19 -3.35996 -0.943798 0
M  V30 10975 C 1016.54 -4.03861 -1.31079 0
M  V30 10976 O 1017.56 -3.4083 -1.03507 0
M  V30 10977 O 1016.42 -5.15062 -1.82683 0
M  V30 10978 H 1013.52 -0.766822 -0.309697 0
M  V30 10979 H 1016.06 -1.69282 0.118966 0
M  V30 10980 H 1014.83 -3.91257 -0.0580628 0
M  V30 10981 H 1014.46 -3.57525 -1.73958 0
M  V30 10982 N 1015.45 0.186762 -1.56489 0
M  V30 10983 C 1016.68 0.921832 -1.85229 0
M  V30 10984 C 1017.1 1.76496 -0.670416 0
M  V30 10985 O 1016.45 1.78899 0.360758 0
M  V30 10986 C 1016.51 1.81121 -3.12854 0
M  V30 10987 O 1016.23 1.00211 -4.26485 0
M  V30 10988 C 1017.73 2.65725 -3.54831 0
M  V30 10989 H 1014.95 0.268563 -0.61491 0
M  V30 10990 H 1017.49 0.191505 -2.03601 0
M  V30 10991 H 1015.65 2.49506 -2.96354 0
M  V30 10992 H 1016.06 1.60893 -4.99213 0
M  V30 10993 H 1017.53 3.23771 -4.47075 0
M  V30 10994 H 1018.01 3.39843 -2.78215 0
M  V30 10995 H 1018.62 2.02698 -3.7389 0
M  V30 10996 N 1016.93 1.50896 0.454776 0
M  V30 10997 C 1018.16 1.66759 1.23313 0
M  V30 10998 C 1018.58 0.35722 1.84677 0
M  V30 10999 O 1017.94 -0.680771 1.68033 0
M  V30 11000 C 1017.99 2.77254 2.3057 0
M  V30 11001 O 1017.09 2.39642 3.35627 0
M  V30 11002 H 1016.43 0.556599 0.362068 0
M  V30 11003 H 1018.96 1.97365 0.539274 0
M  V30 11004 H 1018.97 3.0082 2.75629 0
M  V30 11005 H 1017.65 3.72349 1.85281 0
M  V30 11006 H 1016.23 2.26584 2.96165 0
M  V30 11007 N 1018.41 -0.709066 1.40748 0
M  V30 11008 C 1019.32 -1.85314 1.43861 0
M  V30 11009 C 1020.34 -1.70832 0.330539 0
M  V30 11010 O 1021.51 -1.92983 0.576152 0
M  V30 11011 C 1018.58 -3.21174 1.30568 0
M  V30 11012 C 1017.64 -3.47863 2.51574 0
M  V30 11013 C 1016.87 -4.77241 2.38906 0
M  V30 11014 O 1017.09 -5.52791 1.40636 0
M  V30 11015 O 1016.03 -5.04413 3.28407 0
M  V30 11016 H 1019.85 -1.85644 2.40354 0
M  V30 11017 H 1017.44 -0.860352 1.2214 0
M  V30 11018 H 1019.32 -4.02313 1.25388 0
M  V30 11019 H 1018 -3.21557 0.371841 0
M  V30 11020 H 1016.9 -2.66708 2.62331 0
M  V30 11021 H 1018.24 -3.52283 3.43741 0
M  V30 11022 N 1019.89 -1.26353 -0.941956 0
M  V30 11023 C 1021.14 -1.11241 -1.68251 0
M  V30 11024 C 1021.45 0.344055 -1.9255 0
M  V30 11025 O 1022.66 0.615832 -2.64423 0
M  V30 11026 C 1021.11 -1.94269 -3.02965 0
M  V30 11027 C 1020.72 -3.44485 -2.86415 0
M  V30 11028 C 1022.47 -1.87764 -3.80716 0
M  V30 11029 C 1020.37 -4.19763 -4.16597 0
M  V30 11030 H 1019.3 -0.412694 -0.63103 0
M  V30 11031 H 1021.95 -1.50656 -1.04762 0
M  V30 11032 H 1020.34 -1.47687 -3.6743 0
M  V30 11033 H 1021.51 -3.9883 -2.30805 0
M  V30 11034 H 1019.82 -3.52218 -2.22107 0
M  V30 11035 H 1022.42 -2.41292 -4.77161 0
M  V30 11036 H 1022.76 -0.848195 -4.07568 0
M  V30 11037 H 1023.3 -2.32165 -3.23024 0
M  V30 11038 H 1020.04 -5.23173 -3.9493 0
M  V30 11039 H 1019.56 -3.70198 -4.71925 0
M  V30 11040 H 1021.24 -4.28168 -4.85058 0
M  V30 11041 N 1021.37 1.14642 -1.08144 0
M  V30 11042 C 1022.61 1.85892 -0.810683 0
M  V30 11043 C 1022.95 1.82575 0.661821 0
M  V30 11044 O 1022.22 1.25454 1.48632 0
M  V30 11045 C 1022.5 3.34647 -1.32979 0
M  V30 11046 C 1022.36 3.46551 -2.86744 0
M  V30 11047 C 1023.68 4.29661 -0.952864 0
M  V30 11048 H 1020.8 0.674963 -0.295963 0
M  V30 11049 H 1023.44 1.3464 -1.3406 0
M  V30 11050 H 1021.59 3.78425 -0.87903 0
M  V30 11051 H 1023.26 3.11579 -3.40171 0
M  V30 11052 H 1021.5 2.87849 -3.24539 0
M  V30 11053 H 1022.17 4.51101 -3.18138 0
M  V30 11054 H 1024.65 3.93885 -1.34141 0
M  V30 11055 H 1023.53 5.32209 -1.34331 0
M  V30 11056 H 1023.79 4.41877 0.140392 0
M  V30 11057 N 1022.85 0.866709 1.31628 0
M  V30 11058 C 1023.76 0.323408 2.3236 0
M  V30 11059 C 1024.77 -0.564995 1.64572 0
M  V30 11060 O 1025.95 -0.462489 1.96018 0
M  V30 11061 C 1023.01 -0.469045 3.43513 0
M  V30 11062 C 1022.07 0.446928 4.26967 0
M  V30 11063 C 1021.31 -0.307799 5.32812 0
M  V30 11064 O 1021.53 -1.5363 5.49321 0
M  V30 11065 O 1020.46 0.332653 6.0098 0
M  V30 11066 H 1024.29 1.15827 2.80745 0
M  V30 11067 H 1021.87 0.629987 1.35468 0
M  V30 11068 H 1023.76 -0.918405 4.1127 0
M  V30 11069 H 1022.43 -1.28051 2.97296 0
M  V30 11070 H 1021.34 0.944719 3.61975 0
M  V30 11071 H 1022.67 1.2239 4.76741 0
M  V30 11072 N 1024.32 -1.44642 0.625825 0
M  V30 11073 C 1025.29 -2.29085 -0.072526 0
M  V30 11074 C 1026.29 -1.40755 -0.777467 0
M  V30 11075 O 1027.48 -1.62684 -0.622861 0
M  V30 11076 C 1024.61 -3.22212 -1.1132 0
M  V30 11077 H 1025.8 -2.92317 0.670124 0
M  V30 11078 H 1023.35 -1.51466 0.38571 0
M  V30 11079 H 1024.09 -2.63819 -1.88601 0
M  V30 11080 H 1023.87 -3.87299 -0.611709 0
M  V30 11081 H 1025.36 -3.8566 -1.60175 0
M  V30 11082 N 1025.8 -0.366053 -1.5329 0
M  V30 11083 C 1027.05 0.223824 -2.01561 0
M  V30 11084 C 1027.38 1.48382 -1.25286 0
M  V30 11085 O 1026.66 1.91385 -0.34669 0
M  V30 11086 C 1026.94 0.5153 -3.56394 0
M  V30 11087 C 1026.79 -0.758357 -4.43361 0
M  V30 11088 C 1028.11 1.31568 -4.19974 0
M  V30 11089 H 1025.23 0.0798751 -0.732659 0
M  V30 11090 H 1027.87 -0.491038 -1.83545 0
M  V30 11091 H 1026.02 1.12429 -3.71876 0
M  V30 11092 H 1027.69 -1.39584 -4.39675 0
M  V30 11093 H 1025.94 -1.37862 -4.11311 0
M  V30 11094 H 1026.61 -0.509366 -5.49645 0
M  V30 11095 H 1029.08 0.800514 -4.08327 0
M  V30 11096 H 1027.96 1.48837 -5.28336 0
M  V30 11097 H 1028.22 2.32432 -3.76069 0
M  V30 11098 N 1027.28 1.57312 -0.0952337 0
M  V30 11099 C 1028.19 2.17556 0.877877 0
M  V30 11100 C 1029.21 1.14505 1.31014 0
M  V30 11101 O 1030.38 1.46876 1.37802 0
M  V30 11102 C 1027.45 2.74413 2.11892 0
M  V30 11103 C 1026.51 3.92419 1.74085 0
M  V30 11104 C 1025.74 4.46556 2.92273 0
M  V30 11105 O 1025.96 3.99631 4.07002 0
M  V30 11106 O 1024.9 5.37576 2.70732 0
M  V30 11107 H 1028.72 3.01116 0.395312 0
M  V30 11108 H 1026.31 1.48841 0.129123 0
M  V30 11109 H 1028.19 3.10754 2.84622 0
M  V30 11110 H 1026.87 1.93899 2.59201 0
M  V30 11111 H 1025.77 3.6089 0.985346 0
M  V30 11112 H 1027.11 4.74298 1.31539 0
M  V30 11113 N 1028.76 -0.17846 1.56586 0
M  V30 11114 C 1029.7 -1.22104 1.95855 0
M  V30 11115 C 1030.67 -1.44366 0.821447 0
M  V30 11116 O 1031.86 -1.57224 1.08098 0
M  V30 11117 C 1029 -2.55701 2.31757 0
M  V30 11118 C 1028.11 -2.40879 3.5861 0
M  V30 11119 C 1027.25 -3.67293 3.83757 0
M  V30 11120 C 1026.29 -3.47373 5.03982 0
M  V30 11121 N 1025.42 -4.65839 5.25298 0
M  V30 11122 H 1030.26 -0.879168 2.84736 0
M  V30 11123 H 1027.8 -0.422721 1.40895 0
M  V30 11124 H 1029.76 -3.33556 2.50592 0
M  V30 11125 H 1028.39 -2.87898 1.45995 0
M  V30 11126 H 1027.44 -1.54236 3.47729 0
M  V30 11127 H 1028.75 -2.22102 4.46623 0
M  V30 11128 H 1027.91 -4.53584 4.02922 0
M  V30 11129 H 1026.65 -3.89041 2.94107 0
M  V30 11130 H 1025.65 -2.59467 4.84723 0
M  V30 11131 H 1026.88 -3.27055 5.95157 0
M  V30 11132 H 1024.82 -4.8782 4.38598 0
M  V30 11133 H 1024.74 -4.4995 6.0752 0
M  V30 11134 H 1026.01 -5.53435 5.48936 0
M  V30 11135 N 1030.24 -1.51135 -0.446768 0
M  V30 11136 C 1031.15 -1.74595 -1.56696 0
M  V30 11137 C 1032.16 -0.629816 -1.62201 0
M  V30 11138 O 1033.34 -0.910987 -1.79619 0
M  V30 11139 C 1030.4 -1.85738 -2.9275 0
M  V30 11140 C 1029.46 -3.09564 -2.97437 0
M  V30 11141 C 1028.7 -3.20165 -4.27001 0
M  V30 11142 O 1028.92 -2.36939 -5.1886 0
M  V30 11143 O 1027.85 -4.13077 -4.3778 0
M  V30 11144 H 1031.68 -2.69601 -1.39817 0
M  V30 11145 H 1029.26 -1.35523 -0.628805 0
M  V30 11146 H 1031.15 -1.95107 -3.73512 0
M  V30 11147 H 1029.82 -0.939184 -3.09776 0
M  V30 11148 H 1028.73 -3.05679 -2.15664 0
M  V30 11149 H 1030.06 -4.01041 -2.85353 0
M  V30 11150 N 1031.71 0.701592 -1.41122 0
M  V30 11151 C 1033.13 1.01143 -1.23459 0
M  V30 11152 C 1033.33 2.01144 -0.11968 0
M  V30 11153 O 1032.39 2.47132 0.517889 0
M  V30 11154 C 1033.7 1.54179 -2.58165 0
M  V30 11155 C 1035.25 1.66093 -2.65296 0
M  V30 11156 C 1035.72 2.22532 -4.00304 0
M  V30 11157 N 1037.21 2.299 -4.0212 0
M  V30 11158 C 1037.95 2.74584 -5.0338 0
M  V30 11159 N 1037.44 3.18917 -6.15032 0
M  V30 11160 N 1039.24 2.74094 -4.90743 0
M  V30 11161 H 1031.39 0.0390087 -2.12364 0
M  V30 11162 H 1033.65 0.0798848 -0.944628 0
M  V30 11163 H 1033.36 0.881587 -3.40472 0
M  V30 11164 H 1033.23 2.52488 -2.80231 0
M  V30 11165 H 1035.62 2.31227 -1.83352 0
M  V30 11166 H 1035.7 0.663461 -2.47046 0
M  V30 11167 H 1035.34 1.58016 -4.82694 0
M  V30 11168 H 1035.27 3.2302 -4.15891 0
M  V30 11169 H 1037.76 1.98607 -3.21502 0
M  V30 11170 H 1038.08 3.5162 -6.88174 0
M  V30 11171 H 1036.42 3.1684 -6.18577 0
M  V30 11172 H 1039.61 2.38804 -4.02604 0
M  V30 11173 H 1039.79 3.086 -5.69798 0
M  V30 11174 N 1033.19 1.2685 0.935242 0
M  V30 11175 C 1034.6 1.11569 1.49697 0
M  V30 11176 C 1034.95 -0.301952 1.93863 0
M  V30 11177 O 1034.08 -1.19408 1.80473 0
M  V30 11178 C 1034.67 2.01918 2.72056 0
M  V30 11179 C 1033.23 1.90765 3.24477 0
M  V30 11180 C 1032.38 1.94918 1.97237 0
M  V30 11181 H 1035.33 1.39853 0.750116 0
M  V30 11182 H 1035.35 1.57056 3.46574 0
M  V30 11183 H 1034.86 3.05088 2.39881 0
M  V30 11184 H 1032.96 0.905521 3.61429 0
M  V30 11185 H 1033.08 2.76611 3.91182 0
M  V30 11186 H 1031.44 1.39046 2.13397 0
M  V30 11187 H 1032.22 2.99729 1.67385 0
M  V30 11188 N 1034.67 -1.14067 1.0875 0
M  V30 11189 C 1035.92 -1.85459 0.82053 0
M  V30 11190 C 1036.25 -1.82923 -0.65213 0
M  V30 11191 O 1035.52 -1.26241 -1.47965 0
M  V30 11192 C 1035.81 -3.33937 1.34752 0
M  V30 11193 C 1035.66 -3.45026 2.88578 0
M  V30 11194 C 1036.98 -4.2915 0.975636 0
M  V30 11195 H 1034.1 -0.673384 0.299538 0
M  V30 11196 H 1036.74 -1.33927 1.34772 0
M  V30 11197 H 1034.89 -3.77953 0.899086 0
M  V30 11198 H 1036.56 -3.09771 3.41818 0
M  V30 11199 H 1034.81 -2.86124 3.26061 0
M  V30 11200 H 1035.48 -4.49408 3.20526 0
M  V30 11201 H 1037.95 -3.93168 1.36228 0
M  V30 11202 H 1036.83 -5.31489 1.37152 0
M  V30 11203 H 1037.09 -4.41945 -0.116956 0
M  V30 11204 N 1036.15 -0.873678 -1.31166 0
M  V30 11205 C 1037.11 -0.337069 -2.26708 0
M  V30 11206 C 1038.11 0.51406 -1.52362 0
M  V30 11207 O 1039.3 0.322834 -1.71182 0
M  V30 11208 C 1036.43 0.520897 -3.36897 0
M  V30 11209 H 1037.63 -1.18056 -2.75686 0
M  V30 11210 H 1035.18 -0.649577 -1.42163 0
M  V30 11211 H 1035.91 1.38543 -2.93217 0
M  V30 11212 H 1035.7 -0.0886015 -3.92 0
M  V30 11213 H 1037.19 0.888497 -4.08039 0
M  V30 11214 N 1037.63 1.44308 -0.633487 0
M  V30 11215 C 1038.56 2.33431 0.0568402 0
M  V30 11216 C 1039.54 1.48342 0.832386 0
M  V30 11217 O 1040.72 1.77056 0.797798 0
M  V30 11218 C 1037.85 3.31443 1.03743 0
M  V30 11219 C 1036.81 4.26368 0.373362 0
M  V30 11220 C 1036.13 5.14267 1.46403 0
M  V30 11221 C 1037.43 5.17287 -0.721876 0
M  V30 11222 H 1039.13 2.91402 -0.687388 0
M  V30 11223 H 1036.67 1.4012 -0.332009 0
M  V30 11224 H 1038.63 3.92677 1.52913 0
M  V30 11225 H 1037.35 2.71686 1.81258 0
M  V30 11226 H 1036.01 3.6647 -0.0977053 0
M  V30 11227 H 1035.66 4.50861 2.23011 0
M  V30 11228 H 1035.36 5.7859 1.02506 0
M  V30 11229 H 1036.88 5.78373 1.95748 0
M  V30 11230 H 1038.29 5.72444 -0.313181 0
M  V30 11231 H 1036.69 5.90226 -1.08413 0
M  V30 11232 H 1037.76 4.58159 -1.58804 0
M  V30 11233 N 1039.1 0.374177 1.53094 0
M  V30 11234 C 1040.35 -0.212396 2.00981 0
M  V30 11235 C 1040.67 -1.48576 1.26293 0
M  V30 11236 O 1039.94 -1.92206 0.378642 0
M  V30 11237 H 1038.52 -0.0814763 0.742543 0
M  V30 11238 H 1041.19 0.502389 1.88314 0
M  V30 11239 H 1040.28 -0.433316 3.09077 0
M  V30 11240 N 1040.58 -1.57259 0.103575 0
M  V30 11241 C 1041.51 -2.17509 -0.84923 0
M  V30 11242 C 1042.49 -1.11079 -1.28824 0
M  V30 11243 O 1043.68 -1.39252 -1.35361 0
M  V30 11244 C 1040.81 -2.76221 -2.10522 0
M  V30 11245 C 1039.76 -3.88098 -1.80454 0
M  V30 11246 C 1039.09 -4.33549 -3.12952 0
M  V30 11247 C 1040.39 -5.10909 -1.08486 0
M  V30 11248 H 1042.08 -2.9738 -0.347217 0
M  V30 11249 H 1039.63 -1.43045 -0.165568 0
M  V30 11250 H 1041.58 -3.17024 -2.77621 0
M  V30 11251 H 1040.31 -1.93617 -2.63021 0
M  V30 11252 H 1038.96 -3.47847 -1.15749 0
M  V30 11253 H 1038.61 -3.47825 -3.63355 0
M  V30 11254 H 1038.31 -5.08984 -2.93614 0
M  V30 11255 H 1039.84 -4.76992 -3.81196 0
M  V30 11256 H 1041.25 -5.48828 -1.65711 0
M  V30 11257 H 1039.65 -5.91828 -0.992973 0
M  V30 11258 H 1040.72 -4.84851 -0.0690108 0
M  V30 11259 N 1042.06 0.170153 -1.56679 0
M  V30 11260 C 1043.29 0.90618 -1.86556 0
M  V30 11261 C 1043.71 1.74986 -0.690044 0
M  V30 11262 O 1043.07 1.77672 0.360862 0
M  V30 11263 C 1043.12 1.75777 -3.14857 0
M  V30 11264 O 1042.22 2.85952 -2.97162 0
M  V30 11265 H 1041.56 0.253781 -0.613589 0
M  V30 11266 H 1044.09 0.167943 -2.0391 0
M  V30 11267 H 1044.1 2.15747 -3.46291 0
M  V30 11268 H 1042.78 1.13807 -4.00026 0
M  V30 11269 H 1041.35 2.49557 -2.77084 0
M  V30 11270 N 1043.54 1.5137 0.438746 0
M  V30 11271 C 1044.5 1.71993 1.51496 0
M  V30 11272 C 1045.5 0.589978 1.49586 0
M  V30 11273 O 1046.69 0.857505 1.51633 0
M  V30 11274 C 1043.82 1.77508 2.91039 0
M  V30 11275 H 1045.02 2.68041 1.34514 0
M  V30 11276 H 1042.57 1.41338 0.667326 0
M  V30 11277 H 1043.3 0.832698 3.13427 0
M  V30 11278 H 1043.09 2.59627 2.9383 0
M  V30 11279 H 1044.58 1.95308 3.69113 0
M  V30 11280 N 1045.02 -0.694098 1.41492 0
M  V30 11281 C 1045.95 -1.81841 1.37873 0
M  V30 11282 C 1046.93 -1.60732 0.245772 0
M  V30 11283 O 1048.11 -1.83461 0.432917 0
M  V30 11284 C 1045.24 -3.18543 1.15099 0
M  V30 11285 C 1044.28 -3.5844 2.31133 0
M  V30 11286 S 1045.12 -3.63079 3.93617 0
M  V30 11287 C 1046.27 -5.02505 3.73148 0
M  V30 11288 H 1046.51 -1.84634 2.33018 0
M  V30 11289 H 1044.04 -0.862948 1.28033 0
M  V30 11290 H 1046 -3.9746 1.02646 0
M  V30 11291 H 1044.66 -3.13358 0.21572 0
M  V30 11292 H 1043.85 -4.57754 2.10896 0
M  V30 11293 H 1043.45 -2.86837 2.40002 0
M  V30 11294 H 1045.75 -5.90046 3.32945 0
M  V30 11295 H 1046.69 -5.27784 4.72069 0
M  V30 11296 H 1047.1 -4.74113 3.06394 0
M  V30 11297 N 1046.49 -1.27344 -0.928501 0
M  V30 11298 C 1047.43 -1.04322 -2.02959 0
M  V30 11299 C 1048.41 0.0361118 -1.6256 0
M  V30 11300 O 1049.59 -0.108872 -1.88185 0
M  V30 11301 C 1046.72 -0.582329 -3.33656 0
M  V30 11302 C 1045.76 -1.65611 -3.93033 0
M  V30 11303 S 1046.6 -3.2484 -4.25722 0
M  V30 11304 C 1047.75 -2.8055 -5.59502 0
M  V30 11305 H 1047.98 -1.97548 -2.22176 0
M  V30 11306 H 1045.52 -1.11167 -1.07151 0
M  V30 11307 H 1047.48 -0.323095 -4.09227 0
M  V30 11308 H 1046.14 0.329858 -3.12363 0
M  V30 11309 H 1045.33 -1.28491 -4.87346 0
M  V30 11310 H 1044.93 -1.86738 -3.24045 0
M  V30 11311 H 1047.22 -2.25803 -6.38764 0
M  V30 11312 H 1048.17 -3.73603 -6.0152 0
M  V30 11313 H 1048.57 -2.19717 -5.19985 0
M  V30 11314 N 1047.97 1.13488 -1.09353 0
M  V30 11315 C 1049.2 1.88592 -0.850915 0
M  V30 11316 C 1049.62 1.79087 0.597761 0
M  V30 11317 O 1048.97 1.15695 1.41142 0
M  V30 11318 C 1049.02 3.38219 -1.27633 0
M  V30 11319 O 1048.74 3.47476 -2.66819 0
M  V30 11320 C 1050.25 4.30293 -1.06598 0
M  V30 11321 H 1047.47 0.597069 -0.306185 0
M  V30 11322 H 1050.01 1.43668 -1.45533 0
M  V30 11323 H 1048.16 3.80729 -0.715828 0
M  V30 11324 H 1048.58 4.40485 -2.84733 0
M  V30 11325 H 1050.05 5.33611 -1.41293 0
M  V30 11326 H 1050.53 4.392 -0.0037135 0
M  V30 11327 H 1051.14 3.9355 -1.6124 0
M  V30 11328 N 1049.45 0.880621 1.30701 0
M  V30 11329 C 1050.68 0.511682 2.00473 0
M  V30 11330 C 1051.09 -0.898684 1.6604 0
M  V30 11331 O 1050.45 -1.59035 0.895218 0
M  V30 11332 C 1050.5 0.671723 3.55204 0
M  V30 11333 O 1050.22 2.02656 3.8841 0
M  V30 11334 C 1051.72 0.3052 4.42248 0
M  V30 11335 H 1048.94 0.198231 0.64105 0
M  V30 11336 H 1051.49 1.18472 1.66687 0
M  V30 11337 H 1049.64 0.0461066 3.87373 0
M  V30 11338 H 1050.06 2.04202 4.83117 0
M  V30 11339 H 1051.53 0.468095 5.50012 0
M  V30 11340 H 1052.01 -0.756456 4.32637 0
M  V30 11341 H 1052.61 0.906959 4.15517 0
M  V30 11342 N 1050.93 -1.4397 0.641131 0
M  V30 11343 C 1052.16 -2.06303 0.157006 0
M  V30 11344 C 1052.57 -1.47981 -1.17248 0
M  V30 11345 O 1051.93 -0.606471 -1.72128 0
M  V30 11346 C 1051.98 -3.6147 0.0468425 0
M  V30 11347 O 1051.7 -4.17622 1.32376 0
M  V30 11348 C 1053.2 -4.40857 -0.464795 0
M  V30 11349 H 1050.42 -0.665684 0.0842946 0
M  V30 11350 H 1052.97 -1.84675 0.878363 0
M  V30 11351 H 1051.12 -3.82325 -0.625006 0
M  V30 11352 H 1051.54 -5.11167 1.17509 0
M  V30 11353 H 1053.01 -5.49813 -0.490862 0
M  V30 11354 H 1053.49 -4.13016 -1.4938 0
M  V30 11355 H 1054.09 -4.24943 0.174146 0
M  V30 11356 N 1052.41 -0.382291 -1.52893 0
M  V30 11357 C 1053.65 0.202433 -2.01787 0
M  V30 11358 C 1053.99 1.47044 -1.26853 0
M  V30 11359 O 1053.26 1.91007 -0.366969 0
M  V30 11360 C 1053.54 0.477471 -3.5692 0
M  V30 11361 C 1053.4 -0.805339 -4.42532 0
M  V30 11362 C 1054.72 1.27106 -4.21346 0
M  V30 11363 H 1051.84 0.0720998 -0.733465 0
M  V30 11364 H 1054.48 -0.510478 -1.83014 0
M  V30 11365 H 1052.63 1.08478 -3.73048 0
M  V30 11366 H 1054.3 -1.4424 -4.3817 0
M  V30 11367 H 1052.54 -1.42216 -4.09826 0
M  V30 11368 H 1053.21 -0.567635 -5.49074 0
M  V30 11369 H 1055.69 0.757161 -4.09153 0
M  V30 11370 H 1054.57 1.43225 -5.29885 0
M  V30 11371 H 1054.83 2.28431 -3.78513 0
M  V30 11372 N 1053.89 1.57202 -0.111913 0
M  V30 11373 C 1055.13 1.94565 0.546713 0
M  V30 11374 C 1055.45 0.995644 1.67666 0
M  V30 11375 O 1054.72 0.0506681 1.95834 0
M  V30 11376 H 1053.3 0.718334 0.204951 0
M  V30 11377 H 1055.97 1.94074 -0.179193 0
M  V30 11378 H 1055.06 2.9742 0.945931 0
M  V30 11379 N 1055.36 -0.161842 1.56767 0
M  V30 11380 C 1056.78 -0.51396 1.51098 0
M  V30 11381 C 1056.98 -1.84158 0.817815 0
M  V30 11382 O 1056.04 -2.49592 0.382133 0
M  V30 11383 C 1057.35 -0.537966 2.95849 0
M  V30 11384 C 1058.9 -0.624512 3.06706 0
M  V30 11385 C 1059.37 -0.679322 4.52934 0
M  V30 11386 N 1060.86 -0.741953 4.57219 0
M  V30 11387 C 1061.6 -0.805096 5.6772 0
M  V30 11388 N 1061.09 -0.828492 6.87828 0
M  V30 11389 N 1062.89 -0.844843 5.55715 0
M  V30 11390 H 1055.04 0.708581 2.00232 0
M  V30 11391 H 1057.3 0.25663 0.912603 0
M  V30 11392 H 1057.01 0.369052 3.49758 0
M  V30 11393 H 1056.88 -1.38113 3.51005 0
M  V30 11394 H 1059.27 -1.52195 2.52825 0
M  V30 11395 H 1059.35 0.245515 2.54619 0
M  V30 11396 H 1058.99 0.213901 5.07449 0
M  V30 11397 H 1058.92 -1.56563 5.02788 0
M  V30 11398 H 1061.41 -0.731772 3.70747 0
M  V30 11399 H 1061.73 -0.878109 7.67795 0
M  V30 11400 H 1060.07 -0.796612 6.9042 0
M  V30 11401 H 1063.26 -0.823632 4.60797 0
M  V30 11402 H 1063.44 -0.890588 6.41851 0
M  V30 11403 N 1056.84 -1.516 -0.430713 0
M  V30 11404 C 1058.09 -1.63829 -1.17657 0
M  V30 11405 C 1058.4 -0.363605 -1.92191 0
M  V30 11406 O 1059.61 -0.365358 -2.6903 0
M  V30 11407 C 1058.07 -2.89357 -2.14011 0
M  V30 11408 C 1057.67 -4.23854 -1.45094 0
M  V30 11409 C 1059.42 -3.10944 -2.88988 0
M  V30 11410 C 1057.32 -5.40526 -2.3997 0
M  V30 11411 H 1056.25 -0.610221 -0.442884 0
M  V30 11412 H 1058.91 -1.78073 -0.442984 0
M  V30 11413 H 1057.29 -2.68762 -2.90832 0
M  V30 11414 H 1058.46 -4.54854 -0.737853 0
M  V30 11415 H 1056.78 -4.08197 -0.822429 0
M  V30 11416 H 1059.37 -3.95286 -3.60074 0
M  V30 11417 H 1059.72 -2.24291 -3.50712 0
M  V30 11418 H 1060.25 -3.3191 -2.19272 0
M  V30 11419 H 1056.99 -6.29459 -1.82925 0
M  V30 11420 H 1056.51 -5.13893 -3.09313 0
M  V30 11421 H 1058.19 -5.72741 -3.00959 0
M  V30 11422 N 1058.32 0.686584 -1.41858 0
M  V30 11423 C 1059.27 1.80038 -1.44413 0
M  V30 11424 C 1060.24 1.63415 -0.297427 0
M  V30 11425 O 1061.42 1.84138 -0.499789 0
M  V30 11426 C 1058.56 3.17988 -1.34082 0
M  V30 11427 C 1057.67 3.45979 -2.58693 0
M  V30 11428 C 1056.81 4.73592 -2.4059 0
M  V30 11429 C 1055.85 4.94581 -3.60633 0
M  V30 11430 N 1054.99 6.13426 -3.41545 0
M  V30 11431 H 1059.83 1.77189 -2.396 0
M  V30 11432 H 1057.36 0.865158 -1.18968 0
M  V30 11433 H 1059.32 3.97689 -1.26092 0
M  V30 11434 H 1057.95 3.1999 -0.424975 0
M  V30 11435 H 1057 2.60617 -2.77097 0
M  V30 11436 H 1058.31 3.57386 -3.47961 0
M  V30 11437 H 1057.47 5.61364 -2.30119 0
M  V30 11438 H 1056.21 4.64448 -1.48794 0
M  V30 11439 H 1055.21 4.05254 -3.71549 0
M  V30 11440 H 1056.44 5.05578 -4.53395 0
M  V30 11441 H 1054.38 6.05477 -2.52456 0
M  V30 11442 H 1054.3 6.25641 -4.24393 0
M  V30 11443 H 1055.57 7.03908 -3.34864 0
M  V30 11444 N 1059.8 1.27835 0.921735 0
M  V30 11445 C 1060.71 1.12904 2.05645 0
M  V30 11446 C 1061.72 0.0575704 1.73905 0
M  V30 11447 O 1062.9 0.265261 1.99645 0
M  V30 11448 C 1059.96 0.783957 3.3772 0
M  V30 11449 C 1059.03 1.93694 3.8312 0
M  V30 11450 C 1058.26 1.60823 5.08893 0
M  V30 11451 O 1058.48 0.518873 5.68035 0
M  V30 11452 O 1057.42 2.44932 5.49811 0
M  V30 11453 H 1061.24 2.08143 2.21157 0
M  V30 11454 H 1058.83 1.07078 1.04185 0
M  V30 11455 H 1060.71 0.605107 4.17033 0
M  V30 11456 H 1059.38 -0.138849 3.23402 0
M  V30 11457 H 1058.29 2.17089 3.04669 0
M  V30 11458 H 1059.62 2.84016 4.0199 0
M  V30 11459 N 1061.28 -1.12907 1.09954 0
M  V30 11460 C 1062.52 -1.84579 0.840155 0
M  V30 11461 C 1062.85 -1.83605 -0.632692 0
M  V30 11462 O 1062.13 -1.27803 -1.46617 0
M  V30 11463 C 1062.41 -3.32489 1.38286 0
M  V30 11464 C 1062.27 -3.41946 2.92221 0
M  V30 11465 C 1063.58 -4.28091 1.0211 0
M  V30 11466 H 1060.7 -0.670169 0.306663 0
M  V30 11467 H 1063.35 -1.3249 1.36185 0
M  V30 11468 H 1061.5 -3.76978 0.939123 0
M  V30 11469 H 1063.17 -3.06128 3.45085 0
M  V30 11470 H 1061.41 -2.8265 3.29077 0
M  V30 11471 H 1062.08 -4.45983 3.25274 0
M  V30 11472 H 1064.56 -3.91701 1.4039 0
M  V30 11473 H 1063.43 -5.30005 1.42781 0
M  V30 11474 H 1063.69 -4.42044 -0.0700753 0
M  V30 11475 N 1062.75 -0.88754 -1.30232 0
M  V30 11476 C 1064 -0.508031 -1.96334 0
M  V30 11477 C 1064.33 0.940905 -1.69884 0
M  V30 11478 O 1063.61 1.66523 -1.005 0
M  V30 11479 C 1063.89 -0.786566 -3.51405 0
M  V30 11480 C 1063.74 -2.28632 -3.8736 0
M  V30 11481 C 1065.06 -0.264803 -4.39303 0
M  V30 11482 H 1062.18 -0.186051 -0.71313 0
M  V30 11483 H 1064.82 -1.112 -1.5406 0
M  V30 11484 H 1062.97 -0.272523 -3.87543 0
M  V30 11485 H 1064.65 -2.86896 -3.61231 0
M  V30 11486 H 1062.89 -2.75194 -3.35337 0
M  V30 11487 H 1063.56 -2.43181 -4.95547 0
M  V30 11488 H 1066.04 -0.704809 -4.10087 0
M  V30 11489 H 1064.91 -0.488998 -5.46717 0
M  V30 11490 H 1065.17 0.834055 -4.34161 0
M  V30 11491 N 1064.23 1.43628 -0.648757 0
M  V30 11492 C 1065.14 2.34554 0.0463037 0
M  V30 11493 C 1066.16 1.53629 0.816952 0
M  V30 11494 O 1067.33 1.86297 0.765212 0
M  V30 11495 C 1064.4 3.3185 1.00381 0
M  V30 11496 C 1063.46 4.2868 0.230589 0
M  V30 11497 C 1062.69 5.21328 1.14249 0
M  V30 11498 O 1062.92 5.18298 2.38166 0
M  V30 11499 O 1061.85 5.98726 0.617296 0
M  V30 11500 H 1065.68 2.95475 -0.702008 0
M  V30 11501 H 1063.26 1.43694 -0.408942 0
M  V30 11502 H 1065.14 3.91692 1.5542 0
M  V30 11503 H 1063.82 2.73439 1.73243 0
M  V30 11504 H 1062.73 3.72332 -0.363282 0
M  V30 11505 H 1064.06 4.90061 -0.458368 0
M  V30 11506 N 1065.71 0.390394 1.52688 0
M  V30 11507 C 1066.66 -0.444229 2.26485 0
M  V30 11508 C 1067.63 -1.05688 1.28138 0
M  V30 11509 O 1068.81 -1.0847 1.56968 0
M  V30 11510 C 1065.95 -1.56501 3.07574 0
M  V30 11511 C 1065.07 -0.975111 4.20851 0
M  V30 11512 C 1064.2 -2.06704 4.89333 0
M  V30 11513 C 1063.24 -1.45309 5.94602 0
M  V30 11514 N 1062.38 -2.48437 6.56676 0
M  V30 11515 H 1067.22 0.191535 2.97384 0
M  V30 11516 H 1064.75 0.106287 1.46716 0
M  V30 11517 H 1066.71 -2.22558 3.52879 0
M  V30 11518 H 1065.34 -2.17107 2.38881 0
M  V30 11519 H 1064.39 -0.204109 3.79852 0
M  V30 11520 H 1065.71 -0.486465 4.96422 0
M  V30 11521 H 1064.86 -2.80528 5.37949 0
M  V30 11522 H 1063.6 -2.58928 4.13289 0
M  V30 11523 H 1062.6 -0.700091 5.45324 0
M  V30 11524 H 1063.83 -0.938775 6.7258 0
M  V30 11525 H 1061.77 -2.99829 5.83471 0
M  V30 11526 H 1061.69 -2.04331 7.27863 0
M  V30 11527 H 1062.96 -3.21888 7.09935 0
M  V30 11528 N 1067.19 -1.57141 0.120249 0
M  V30 11529 C 1068.12 -2.18398 -0.826112 0
M  V30 11530 C 1069.1 -1.12439 -1.27638 0
M  V30 11531 O 1070.28 -1.40679 -1.33877 0
M  V30 11532 C 1067.41 -2.78438 -2.0758 0
M  V30 11533 C 1066.37 -3.89991 -1.76327 0
M  V30 11534 C 1065.69 -4.36844 -3.08336 0
M  V30 11535 C 1066.99 -5.12031 -1.03062 0
M  V30 11536 H 1068.69 -2.97731 -0.315656 0
M  V30 11537 H 1066.23 -1.43213 -0.150387 0
M  V30 11538 H 1068.19 -3.19951 -2.74243 0
M  V30 11539 H 1066.91 -1.96396 -2.60953 0
M  V30 11540 H 1065.57 -3.49055 -1.12053 0
M  V30 11541 H 1065.22 -3.51659 -3.59646 0
M  V30 11542 H 1064.92 -5.1207 -2.88199 0
M  V30 11543 H 1066.44 -4.81009 -3.76116 0
M  V30 11544 H 1067.86 -5.50555 -1.59881 0
M  V30 11545 H 1066.25 -5.92848 -0.930146 0
M  V30 11546 H 1067.32 -4.84897 -0.017582 0
M  V30 11547 N 1068.67 0.153526 -1.5685 0
M  V30 11548 C 1069.61 1.18973 -1.97773 0
M  V30 11549 C 1070.58 1.43041 -0.844311 0
M  V30 11550 O 1071.77 1.55484 -1.10586 0
M  V30 11551 C 1068.91 2.51981 -2.35795 0
M  V30 11552 C 1068.02 2.35143 -3.62397 0
M  V30 11553 C 1067.16 3.61141 -3.89552 0
M  V30 11554 C 1066.2 3.39311 -5.09445 0
M  V30 11555 N 1065.33 4.57423 -5.32643 0
M  V30 11556 H 1070.17 0.833758 -2.86099 0
M  V30 11557 H 1067.71 0.400252 -1.4155 0
M  V30 11558 H 1069.67 3.29527 -2.55867 0
M  V30 11559 H 1068.3 2.85539 -1.50557 0
M  V30 11560 H 1067.35 1.48684 -3.50139 0
M  V30 11561 H 1068.66 2.14969 -4.501 0
M  V30 11562 H 1067.82 4.47117 -4.10087 0
M  V30 11563 H 1066.55 3.84312 -3.00259 0
M  V30 11564 H 1065.56 2.51723 -4.8879 0
M  V30 11565 H 1066.78 3.17545 -6.00285 0
M  V30 11566 H 1064.73 4.8078 -4.46303 0
M  V30 11567 H 1064.65 4.40228 -6.14602 0
M  V30 11568 H 1065.92 5.44632 -5.57671 0
M  V30 11569 N 1070.14 1.51827 0.422667 0
M  V30 11570 C 1071.05 1.77066 1.53899 0
M  V30 11571 C 1072.07 0.655541 1.61179 0
M  V30 11572 O 1073.25 0.939448 1.78147 0
M  V30 11573 C 1070.31 1.90372 2.89758 0
M  V30 11574 C 1069.37 3.14256 2.92475 0
M  V30 11575 C 1068.61 3.26918 4.21853 0
M  V30 11576 O 1068.83 2.45164 5.15025 0
M  V30 11577 O 1067.76 4.19989 4.31153 0
M  V30 11578 H 1071.59 2.71791 1.35511 0
M  V30 11579 H 1069.17 1.36506 0.607165 0
M  V30 11580 H 1071.06 2.01024 3.70361 0
M  V30 11581 H 1069.73 0.988347 3.08242 0
M  V30 11582 H 1068.64 3.09072 2.10773 0
M  V30 11583 H 1069.97 4.0553 2.78937 0
M  V30 11584 N 1071.62 -0.679052 1.4222 0
M  V30 11585 C 1072.57 -1.79269 1.45366 0
M  V30 11586 C 1073.54 -1.63255 0.306089 0
M  V30 11587 O 1074.72 -1.8387 0.509548 0
M  V30 11588 C 1071.86 -3.17272 1.35766 0
M  V30 11589 C 1070.98 -3.44603 2.60525 0
M  V30 11590 C 1070.11 -4.7231 2.43098 0
M  V30 11591 C 1069.15 -4.92661 3.63251 0
M  V30 11592 N 1068.29 -6.11606 3.44794 0
M  V30 11593 H 1073.13 -1.75916 2.40536 0
M  V30 11594 H 1070.67 -0.858836 1.19425 0
M  V30 11595 H 1072.62 -3.97015 1.282 0
M  V30 11596 H 1071.25 -3.1976 0.441939 0
M  V30 11597 H 1070.31 -2.59144 2.78475 0
M  V30 11598 H 1071.62 -3.55536 3.49851 0
M  V30 11599 H 1070.77 -5.60136 2.33093 0
M  V30 11600 H 1069.51 -4.63652 1.51255 0
M  V30 11601 H 1068.52 -4.03278 3.73693 0
M  V30 11602 H 1069.74 -5.03167 4.5607 0
M  V30 11603 H 1067.69 -6.04129 2.55663 0
M  V30 11604 H 1067.6 -6.23381 4.27705 0
M  V30 11605 H 1068.87 -7.02122 3.38592 0
M  V30 11606 N 1073.1 -1.28322 -0.914942 0
M  V30 11607 C 1074.05 -1.12003 -2.03858 0
M  V30 11608 C 1075.04 -0.0396287 -1.69354 0
M  V30 11609 O 1076.25 -0.198309 -1.78904 0
M  V30 11610 H 1072.62 -0.34552 -0.667922 0
M  V30 11611 H 1074.59 -2.07168 -2.14765 0
M  V30 11612 C 1073.34 -0.797402 -3.38433 0
M  V30 11613 H 1072.67 -1.62071 -3.65476 0
M  V30 11614 H 1074.11 -0.723165 -4.17787 0
M  V30 11615 C 1072.57 0.498807 -3.33187 0
M  V30 11616 O 1073.1 1.52946 -3.71444 0
M  V30 11617 N 1071.3 0.499101 -2.86282 0
M  V30 11618 H 1070.85 -0.340056 -2.55346 0
M  V30 11619 H 1070.81 1.36641 -2.83155 0
M  V30 11620 N 1074.58 1.12322 -1.10551 0
M  V30 11621 C 1075.51 2.20176 -0.777486 0
M  V30 11622 C 1076.49 1.68252 0.250069 0
M  V30 11623 O 1077.67 1.93856 0.115574 0
M  V30 11624 C 1074.8 3.46666 -0.209822 0
M  V30 11625 C 1073.76 4.11749 -1.1682 0
M  V30 11626 C 1073.08 5.32703 -0.461684 0
M  V30 11627 C 1074.38 4.57746 -2.51527 0
M  V30 11628 H 1076.08 2.47872 -1.67928 0
M  V30 11629 H 1073.62 1.19136 -0.808863 0
M  V30 11630 H 1075.58 4.21388 0.0318068 0
M  V30 11631 H 1074.3 3.18401 0.727226 0
M  V30 11632 H 1072.96 3.39009 -1.3953 0
M  V30 11633 H 1072.61 5.00706 0.479875 0
M  V30 11634 H 1072.31 5.77197 -1.1008 0
M  V30 11635 H 1073.83 6.10172 -0.228629 0
M  V30 11636 H 1075.25 5.23835 -2.32958 0
M  V30 11637 H 1073.64 5.13021 -3.11335 0
M  V30 11638 H 1074.71 3.71667 -3.11435 0
M  V30 11639 N 1076.06 0.894434 1.2976 0
M  V30 11640 C 1077 0.366586 2.2787 0
M  V30 11641 C 1077.97 -0.548425 1.56785 0
M  V30 11642 O 1079.16 -0.474804 1.84798 0
M  V30 11643 C 1076.3 -0.404531 3.42721 0
M  V30 11644 C 1075.41 0.540774 4.28602 0
M  V30 11645 C 1074.55 -0.246875 5.30626 0
M  V30 11646 C 1073.59 0.693294 6.08161 0
M  V30 11647 N 1072.72 -0.059619 7.02075 0
M  V30 11648 H 1077.56 1.20834 2.72402 0
M  V30 11649 H 1075.1 0.607205 1.33983 0
M  V30 11650 H 1077.06 -0.86762 4.08079 0
M  V30 11651 H 1075.69 -1.21078 2.99232 0
M  V30 11652 H 1074.74 1.12237 3.63465 0
M  V30 11653 H 1076.05 1.26065 4.82606 0
M  V30 11654 H 1075.21 -0.771398 6.01776 0
M  V30 11655 H 1073.94 -0.999918 4.77339 0
M  V30 11656 H 1072.95 1.22936 5.35879 0
M  V30 11657 H 1074.17 1.44558 6.63536 0
M  V30 11658 H 1072.12 -0.795026 6.51165 0
M  V30 11659 H 1072.04 0.60045 7.53612 0
M  V30 11660 H 1073.31 -0.564577 7.77453 0
M  V30 11661 N 1077.53 -1.43282 0.656365 0
M  V30 11662 C 1078.78 -2.00996 0.168354 0
M  V30 11663 C 1079.1 -1.52408 -1.22601 0
M  V30 11664 O 1080.3 -2.02417 -1.80941 0
M  V30 11665 C 1078.76 -3.5903 0.250161 0
M  V30 11666 C 1078.37 -4.1661 1.64742 0
M  V30 11667 C 1080.11 -4.24118 -0.180084 0
M  V30 11668 C 1078.02 -5.66948 1.68299 0
M  V30 11669 H 1076.95 -0.751674 0.0591769 0
M  V30 11670 H 1079.6 -1.64216 0.818859 0
M  V30 11671 H 1077.98 -3.93226 -0.467908 0
M  V30 11672 H 1079.15 -3.93908 2.3911 0
M  V30 11673 H 1077.47 -3.63905 2.02391 0
M  V30 11674 H 1080.07 -5.34419 -0.173401 0
M  V30 11675 H 1080.41 -3.98264 -1.21208 0
M  V30 11676 H 1080.94 -3.94816 0.486343 0
M  V30 11677 H 1077.68 -5.97573 2.69419 0
M  V30 11678 H 1077.2 -5.91697 0.98261 0
M  V30 11679 H 1078.88 -6.31041 1.42813 0
M  V30 11680 N 1079.01 -0.398486 -1.52479 0
M  V30 11681 C 1080.42 0.0735015 -1.86555 0
M  V30 11682 C 1080.78 1.45361 -1.31775 0
M  V30 11683 O 1079.9 2.0632 -0.652759 0
M  V30 11684 C 1080.5 0.140152 -3.3851 0
M  V30 11685 C 1079.05 0.556451 -3.72264 0
M  V30 11686 C 1078.2 -0.275792 -2.75925 0
M  V30 11687 H 1081.15 -0.615991 -1.46257 0
M  V30 11688 H 1081.17 0.957507 -3.68255 0
M  V30 11689 H 1080.69 -0.864442 -3.7835 0
M  V30 11690 H 1078.79 1.56808 -3.37997 0
M  V30 11691 H 1078.9 0.308227 -4.78107 0
M  V30 11692 H 1077.26 0.260304 -2.53366 0
M  V30 11693 H 1078.05 -1.27854 -3.18604 0
M  V30 11694 N 1080.49 1.57075 -0.12858 0
M  V30 11695 C 1081.74 1.9581 0.527868 0
M  V30 11696 C 1082.07 1.01253 1.65715 0
M  V30 11697 O 1081.35 0.0514853 1.94432 0
M  V30 11698 C 1081.63 3.44406 1.05151 0
M  V30 11699 C 1081.48 4.49737 -0.0750113 0
M  V30 11700 C 1082.8 3.95069 1.9393 0
M  V30 11701 H 1079.92 0.711978 0.19041 0
M  V30 11702 H 1082.56 1.88879 -0.206081 0
M  V30 11703 H 1080.71 3.50443 1.67697 0
M  V30 11704 H 1082.38 4.55793 -0.710685 0
M  V30 11705 H 1080.63 4.27497 -0.736809 0
M  V30 11706 H 1081.3 5.50996 0.332779 0
M  V30 11707 H 1083.77 3.91395 1.41241 0
M  V30 11708 H 1082.65 4.99542 2.27484 0
M  V30 11709 H 1082.91 3.36329 2.86941 0
M  V30 11710 N 1081.97 -0.145205 1.5693 0
M  V30 11711 C 1083.22 -0.855955 1.82637 0
M  V30 11712 C 1083.53 -1.82255 0.710109 0
M  V30 11713 O 1084.74 -2.57758 0.852837 0
M  V30 11714 C 1083.19 -1.57278 3.23715 0
M  V30 11715 C 1082.8 -0.648507 4.43281 0
M  V30 11716 C 1084.55 -2.27021 3.58695 0
M  V30 11717 C 1082.45 -1.36706 5.75383 0
M  V30 11718 H 1081.38 -0.323385 0.68113 0
M  V30 11719 H 1084.03 -0.10869 1.83178 0
M  V30 11720 H 1082.42 -2.36574 3.17567 0
M  V30 11721 H 1083.59 0.109355 4.6067 0
M  V30 11722 H 1081.9 -0.0594029 4.16358 0
M  V30 11723 H 1084.5 -2.81423 4.54648 0
M  V30 11724 H 1084.84 -3.03598 2.8484 0
M  V30 11725 H 1085.38 -1.54642 3.66512 0
M  V30 11726 H 1082.12 -0.6431 6.52338 0
M  V30 11727 H 1081.64 -2.09759 5.61926 0
M  V30 11728 H 1083.32 -1.90748 6.18243 0
M  V30 11729 N 1083.45 -1.52049 -0.414609 0
M  V30 11730 C 1084.69 -1.66084 -1.16379 0
M  V30 11731 C 1085.03 -0.386932 -1.90306 0
M  V30 11732 O 1084.3 0.614441 -1.8454 0
M  V30 11733 C 1084.58 -2.87927 -2.16264 0
M  V30 11734 C 1084.44 -4.25353 -1.46269 0
M  V30 11735 C 1085.76 -3.05289 -3.16996 0
M  V30 11736 H 1082.88 -0.604414 -0.421726 0
M  V30 11737 H 1085.52 -1.8459 -0.450177 0
M  V30 11738 H 1083.67 -2.7228 -2.77121 0
M  V30 11739 H 1085.34 -4.52717 -0.885743 0
M  V30 11740 H 1083.58 -4.27006 -0.76472 0
M  V30 11741 H 1084.25 -5.06644 -2.19126 0
M  V30 11742 H 1086.73 -3.19798 -2.66212 0
M  V30 11743 H 1085.61 -3.92065 -3.84156 0
M  V30 11744 H 1085.87 -2.1836 -3.84411 0
M  V30 11745 N 1084.93 0.6715 -1.42579 0
M  V30 11746 C 1086.17 1.42871 -1.42941 0
M  V30 11747 C 1086.49 1.94941 -0.0480483 0
M  V30 11748 O 1085.76 1.73275 0.913921 0
M  V30 11749 H 1084.34 0.530189 -0.526221 0
M  V30 11750 H 1087.01 0.793219 -1.78028 0
M  V30 11751 H 1086.1 2.2801 -2.13114 0
M  V30 11752 N 1086.4 1.28806 0.908124 0
M  V30 11753 C 1087.65 1.16058 1.65454 0
M  V30 11754 C 1087.97 -0.290057 1.92831 0
M  V30 11755 O 1087.24 -1.20001 1.54843 0
M  V30 11756 H 1085.82 0.426522 0.61326 0
M  V30 11757 H 1088.48 1.61614 1.08936 0
M  V30 11758 H 1087.58 1.70437 2.61453 0
M  V30 11759 N 1087.88 -1.11734 1.11145 0
M  V30 11760 C 1088.84 -2.15868 0.770303 0
M  V30 11761 C 1089.84 -1.59438 -0.208842 0
M  V30 11762 O 1091.03 -1.74193 0.0152516 0
M  V30 11763 C 1088.17 -3.40603 0.142303 0
M  V30 11764 H 1089.36 -2.4756 1.69276 0
M  V30 11765 H 1086.91 -1.26867 0.912929 0
M  V30 11766 H 1087.65 -3.14517 -0.790526 0
M  V30 11767 H 1087.43 -3.8284 0.847087 0
M  V30 11768 H 1088.92 -4.17523 -0.0803608 0
M  V30 11769 N 1089.36 -0.901303 -1.29284 0
M  V30 11770 C 1090.58 -0.542823 -2.0017 0
M  V30 11771 C 1091.01 0.865583 -1.67001 0
M  V30 11772 O 1090.37 1.5764 -0.895502 0
M  V30 11773 C 1090.42 -0.743987 -3.52842 0
M  V30 11774 O 1089.52 0.202771 -4.11901 0
M  V30 11775 H 1088.86 -0.211903 -0.62928 0
M  V30 11776 H 1091.39 -1.21333 -1.64741 0
M  V30 11777 H 1091.4 -0.64926 -4.02801 0
M  V30 11778 H 1090.08 -1.77077 -3.7632 0
M  V30 11779 H 1088.65 0.0603637 -3.72851 0
M  V30 11780 N 1090.84 1.42931 -0.663954 0
M  V30 11781 C 1091.77 2.33499 0.00731327 0
M  V30 11782 C 1092.75 1.50074 0.800733 0
M  V30 11783 O 1093.93 1.78708 0.760062 0
M  V30 11784 C 1091.06 3.33569 0.966897 0
M  V30 11785 C 1090.02 4.27064 0.282839 0
M  V30 11786 C 1089.34 5.17257 1.35461 0
M  V30 11787 C 1090.64 5.1564 -0.831438 0
M  V30 11788 H 1092.34 2.89879 -0.749044 0
M  V30 11789 H 1089.88 1.39385 -0.361656 0
M  V30 11790 H 1091.84 3.95833 1.44549 0
M  V30 11791 H 1090.56 2.75469 1.75455 0
M  V30 11792 H 1089.22 3.6618 -0.175417 0
M  V30 11793 H 1088.87 4.5549 2.13397 0
M  V30 11794 H 1088.57 5.80634 0.902098 0
M  V30 11795 H 1090.09 5.82395 1.83436 0
M  V30 11796 H 1091.51 5.71651 -0.434534 0
M  V30 11797 H 1089.9 5.87794 -1.20908 0
M  V30 11798 H 1090.97 4.54687 -1.68487 0
M  V30 11799 N 1092.32 0.406567 1.52266 0
M  V30 11800 C 1093.26 -0.43489 2.28498 0
M  V30 11801 C 1094.26 -1.04806 1.33086 0
M  V30 11802 O 1095.46 -0.986557 1.50556 0
M  V30 11803 H 1091.84 -0.159023 0.734994 0
M  V30 11804 H 1093.81 0.229316 2.97518 0
M  V30 11805 C 1092.56 -1.54073 3.117 0
M  V30 11806 H 1091.88 -1.07824 3.84986 0
M  V30 11807 H 1093.32 -2.10337 3.6815 0
M  V30 11808 C 1091.78 -2.50662 2.251 0
M  V30 11809 O 1092.31 -3.54486 1.88951 0
M  V30 11810 N 1090.52 -2.20811 1.8892 0
M  V30 11811 H 1090.06 -1.36413 2.18516 0
M  V30 11812 H 1090.02 -2.85684 1.3127 0
M  V30 11813 N 1093.79 -1.57004 0.136909 0
M  V30 11814 C 1094.7 -2.19807 -0.819887 0
M  V30 11815 C 1095.72 -1.17939 -1.27932 0
M  V30 11816 O 1096.9 -1.50478 -1.3386 0
M  V30 11817 C 1093.96 -2.79935 -2.04542 0
M  V30 11818 C 1093.02 -3.96897 -1.6362 0
M  V30 11819 C 1092.26 -4.54148 -2.80331 0
M  V30 11820 O 1092.48 -4.10282 -3.96264 0
M  V30 11821 O 1091.41 -5.44565 -2.56384 0
M  V30 11822 H 1095.24 -3.02058 -0.315337 0
M  V30 11823 H 1092.82 -1.49131 -0.0896151 0
M  V30 11824 H 1094.71 -3.18191 -2.76283 0
M  V30 11825 H 1093.38 -2.00703 -2.53969 0
M  V30 11826 H 1092.29 -3.63376 -0.889316 0
M  V30 11827 H 1093.62 -4.77618 -1.18918 0
M  V30 11828 N 1095.27 0.136881 -1.57004 0
M  V30 11829 C 1096.22 1.16869 -1.99023 0
M  V30 11830 C 1097.19 1.42137 -0.859435 0
M  V30 11831 O 1098.37 1.54303 -1.12229 0
M  V30 11832 C 1095.51 2.49466 -2.38455 0
M  V30 11833 C 1094.63 2.31286 -3.64871 0
M  V30 11834 C 1093.76 3.56989 -3.9336 0
M  V30 11835 C 1092.8 3.33889 -5.13015 0
M  V30 11836 N 1091.94 4.51748 -5.37464 0
M  V30 11837 H 1096.78 0.803366 -2.86967 0
M  V30 11838 H 1094.32 0.385216 -1.41967 0
M  V30 11839 H 1096.27 3.26794 -2.59348 0
M  V30 11840 H 1094.9 2.83926 -1.53577 0
M  V30 11841 H 1093.96 1.44962 -3.51696 0
M  V30 11842 H 1095.27 2.10183 -4.52355 0
M  V30 11843 H 1094.42 4.42742 -4.14806 0
M  V30 11844 H 1093.16 3.81106 -3.04318 0
M  V30 11845 H 1092.17 2.46525 -4.91432 0
M  V30 11846 H 1093.39 3.1116 -6.03619 0
M  V30 11847 H 1091.34 4.76019 -4.51377 0
M  V30 11848 H 1091.25 4.33684 -6.19237 0
M  V30 11849 H 1092.52 5.38686 -5.63416 0
M  V30 11850 N 1096.75 1.52266 0.40654 0
M  V30 11851 C 1097.68 1.78755 1.50229 0
M  V30 11852 C 1098.66 0.638652 1.57655 0
M  V30 11853 O 1099.85 0.884505 1.72888 0
M  V30 11854 C 1096.98 1.94057 2.88026 0
M  V30 11855 C 1095.93 3.09667 2.95449 0
M  V30 11856 C 1095.26 3.10196 4.35526 0
M  V30 11857 C 1096.56 4.49077 2.66697 0
M  V30 11858 H 1098.25 2.70511 1.28313 0
M  V30 11859 H 1095.8 1.30167 0.615836 0
M  V30 11860 H 1097.75 2.11171 3.64671 0
M  V30 11861 H 1096.47 0.989755 3.11242 0
M  V30 11862 H 1095.13 2.92308 2.2125 0
M  V30 11863 H 1094.78 2.12831 4.55754 0
M  V30 11864 H 1094.48 3.87847 4.41416 0
M  V30 11865 H 1096 3.29443 5.14101 0
M  V30 11866 H 1097.42 4.66628 3.33064 0
M  V30 11867 H 1095.82 5.28665 2.8396 0
M  V30 11868 H 1096.89 4.56995 1.62122 0
M  V30 11869 N 1098.23 -0.663929 1.42933 0
M  V30 11870 C 1099.19 -1.75899 1.46943 0
M  V30 11871 C 1100.19 -1.5682 0.355535 0
M  V30 11872 O 1101.38 -1.62914 0.616833 0
M  V30 11873 C 1098.51 -3.14657 1.31164 0
M  V30 11874 H 1099.71 -1.73727 2.44456 0
M  V30 11875 H 1097.26 -0.874587 1.2954 0
M  V30 11876 H 1097.99 -3.22447 0.346165 0
M  V30 11877 H 1097.78 -3.29909 2.11902 0
M  V30 11878 H 1099.27 -3.9453 1.36878 0
M  V30 11879 N 1099.71 -1.29285 -0.901281 0
M  V30 11880 C 1100.65 -1.1428 -2.00521 0
M  V30 11881 C 1101.62 -0.0365428 -1.6606 0
M  V30 11882 O 1102.81 -0.203771 -1.89709 0
M  V30 11883 C 1099.95 -0.823671 -3.35126 0
M  V30 11884 C 1099.06 -2.01021 -3.8238 0
M  V30 11885 C 1098.2 -1.6306 -5.05554 0
M  V30 11886 C 1097.24 -2.78304 -5.45173 0
M  V30 11887 N 1096.37 -2.4075 -6.59533 0
M  V30 11888 H 1101.21 -2.08729 -2.12688 0
M  V30 11889 H 1098.75 -1.0387 -1.04161 0
M  V30 11890 H 1100.71 -0.61934 -4.12577 0
M  V30 11891 H 1099.34 0.0839113 -3.22691 0
M  V30 11892 H 1098.39 -2.32629 -3.00978 0
M  V30 11893 H 1099.7 -2.8738 -4.07694 0
M  V30 11894 H 1098.86 -1.38906 -5.90584 0
M  V30 11895 H 1097.59 -0.738464 -4.82077 0
M  V30 11896 H 1096.6 -3.03142 -4.58678 0
M  V30 11897 H 1097.82 -3.68179 -5.70632 0
M  V30 11898 H 1095.77 -1.54022 -6.37662 0
M  V30 11899 H 1095.69 -3.20643 -6.84634 0
M  V30 11900 H 1096.96 -2.19912 -7.47836 0
M  V30 11901 N 1101.18 1.11143 -1.11736 0
M  V30 11902 C 1102.09 2.20851 -0.791331 0
M  V30 11903 C 1103.11 1.72644 0.216833 0
M  V30 11904 O 1104.29 2.01332 0.0522401 0
M  V30 11905 C 1101.35 3.4585 -0.242694 0
M  V30 11906 C 1100.41 4.08829 -1.30986 0
M  V30 11907 C 1099.65 5.27861 -0.787305 0
M  V30 11908 O 1099.87 5.69122 0.381549 0
M  V30 11909 O 1098.8 5.81506 -1.55352 0
M  V30 11910 H 1102.63 2.51158 -1.70744 0
M  V30 11911 H 1100.21 1.19739 -0.893478 0
M  V30 11912 H 1102.1 4.21359 0.0587472 0
M  V30 11913 H 1100.77 3.17187 0.646079 0
M  V30 11914 H 1099.68 3.35037 -1.66436 0
M  V30 11915 H 1101.01 4.41678 -2.17213 0
M  V30 11916 N 1102.66 0.908147 1.28804 0
M  V30 11917 C 1103.59 0.409106 2.29888 0
M  V30 11918 C 1104.57 -0.520338 1.61946 0
M  V30 11919 O 1105.76 -0.429268 1.89396 0
M  V30 11920 C 1102.89 -0.35669 3.45463 0
M  V30 11921 C 1101.84 0.4831 4.25265 0
M  V30 11922 C 1101.17 -0.4107 5.3312 0
M  V30 11923 C 1102.47 1.73744 4.92555 0
M  V30 11924 H 1104.16 1.25386 2.7188 0
M  V30 11925 H 1101.71 0.604368 1.30703 0
M  V30 11926 H 1103.66 -0.71661 4.15262 0
M  V30 11927 H 1102.39 -1.2353 3.02337 0
M  V30 11928 H 1101.04 0.825464 3.57186 0
M  V30 11929 H 1100.69 -1.28769 4.86238 0
M  V30 11930 H 1100.39 0.14756 5.87415 0
M  V30 11931 H 1101.92 -0.766626 6.05768 0
M  V30 11932 H 1103.33 1.44676 5.54745 0
M  V30 11933 H 1101.73 2.23767 5.5682 0
M  V30 11934 H 1102.8 2.46853 4.17363 0
M  V30 11935 N 1104.14 -1.42577 0.671525 0
M  V30 11936 C 1105.39 -2.01185 0.192051 0
M  V30 11937 C 1105.71 -1.53349 -1.20454 0
M  V30 11938 O 1104.98 -0.753781 -1.80817 0
M  V30 11939 H 1103.56 -0.743898 0.0680106 0
M  V30 11940 H 1106.22 -1.74539 0.8673 0
M  V30 11941 H 1105.32 -3.11516 0.190796 0
M  V30 11942 N 1105.62 -0.414636 -1.52048 0
M  V30 11943 C 1106.58 0.396285 -2.25748 0
M  V30 11944 C 1107.58 0.969003 -1.28324 0
M  V30 11945 O 1108.77 0.847016 -1.52221 0
M  V30 11946 C 1105.9 1.55838 -3.03195 0
M  V30 11947 H 1107.1 -0.249311 -2.98862 0
M  V30 11948 H 1104.65 -0.167276 -1.55402 0
M  V30 11949 H 1105.38 2.24068 -2.34444 0
M  V30 11950 H 1105.17 1.15414 -3.74729 0
M  V30 11951 H 1106.66 2.13187 -3.59084 0
M  V30 11952 N 1107.1 1.56929 -0.145233 0
M  V30 11953 C 1108.37 1.8767 0.551288 0
M  V30 11954 C 1108.75 1.05089 1.83083 0
M  V30 11955 O 1108.1 0.137201 2.28088 0
M  V30 11956 C 1108.31 3.39268 0.818445 0
M  V30 11957 C 1109.66 4.08447 1.16 0
M  V30 11958 O 1110.68 3.44436 0.907857 0
M  V30 11959 O 1109.54 5.21488 1.63441 0
M  V30 11960 H 1106.64 0.777788 0.281024 0
M  V30 11961 H 1109.18 1.68724 -0.181712 0
M  V30 11962 H 1107.95 3.91203 -0.0871897 0
M  V30 11963 H 1107.58 3.63735 1.60569 0
M  V30 11964 N 1108.58 -0.128553 1.57075 0
M  V30 11965 C 1109.81 -0.851214 1.8825 0
M  V30 11966 C 1110.21 -1.74402 0.733531 0
M  V30 11967 O 1109.56 -1.81149 -0.305108 0
M  V30 11968 C 1109.62 -1.74451 3.14336 0
M  V30 11969 C 1109.28 -1.02699 4.45311 0
M  V30 11970 C 1110.28 -0.37224 5.18566 0
M  V30 11971 C 1107.96 -1.01101 4.9202 0
M  V30 11972 C 1109.96 0.2889 6.36745 0
M  V30 11973 C 1107.65 -0.346063 6.10119 0
M  V30 11974 C 1108.64 0.302744 6.82329 0
M  V30 11975 O 1108.33 0.9571 7.98182 0
M  V30 11976 H 1108.06 -0.250529 0.627863 0
M  V30 11977 H 1110.62 -0.120418 2.05047 0
M  V30 11978 H 1108.85 -2.51671 2.93596 0
M  V30 11979 H 1110.54 -2.34075 3.31608 0
M  V30 11980 H 1111.3 -0.376271 4.83538 0
M  V30 11981 H 1107.18 -1.50543 4.35727 0
M  V30 11982 H 1110.73 0.795901 6.93045 0
M  V30 11983 H 1106.62 -0.339762 6.44605 0
M  V30 11984 H 1107.39 0.860616 8.13963 0
M  V30 11985 N 1110.05 -1.5248 -0.398459 0
M  V30 11986 C 1111.28 -1.70677 -1.16417 0
M  V30 11987 C 1111.69 -0.420629 -1.84465 0
M  V30 11988 O 1111.03 0.614013 -1.73135 0
M  V30 11989 C 1111.1 -2.79401 -2.2622 0
M  V30 11990 C 1110.76 -4.20817 -1.78218 0
M  V30 11991 C 1111.76 -5.04298 -1.26409 0
M  V30 11992 C 1109.44 -4.67098 -1.84728 0
M  V30 11993 C 1111.44 -6.32136 -0.817461 0
M  V30 11994 C 1109.12 -5.94923 -1.39676 0
M  V30 11995 C 1110.12 -6.77272 -0.882716 0
M  V30 11996 O 1109.81 -8.02702 -0.438739 0
M  V30 11997 H 1109.54 -0.57503 -0.355411 0
M  V30 11998 H 1112.1 -1.99868 -0.473471 0
M  V30 11999 H 1110.33 -2.4561 -2.98685 0
M  V30 12000 H 1112.01 -2.86093 -2.87933 0
M  V30 12001 H 1112.78 -4.6973 -1.20744 0
M  V30 12002 H 1108.66 -4.03097 -2.23682 0
M  V30 12003 H 1112.2 -6.96361 -0.415548 0
M  V30 12004 H 1108.1 -6.28998 -1.45024 0
M  V30 12005 H 1108.87 -8.16575 -0.561079 0
M  V30 12006 N 1111.53 0.65634 -1.43283 0
M  V30 12007 C 1112.49 1.75117 -1.47874 0
M  V30 12008 C 1113.49 1.56629 -0.363846 0
M  V30 12009 O 1114.68 1.62584 -0.625464 0
M  V30 12010 C 1111.82 3.13957 -1.32831 0
M  V30 12011 H 1113.01 1.72429 -2.45374 0
M  V30 12012 H 1110.56 0.867704 -1.30002 0
M  V30 12013 H 1111.3 3.22259 -0.36326 0
M  V30 12014 H 1111.08 3.28781 -2.13649 0
M  V30 12015 H 1112.57 3.93799 -1.38969 0
M  V30 12016 N 1113.01 1.29761 0.894412 0
M  V30 12017 C 1113.96 1.15341 1.99912 0
M  V30 12018 C 1114.93 0.0453488 1.66038 0
M  V30 12019 O 1116.11 0.213829 1.89598 0
M  V30 12020 C 1113.25 0.841432 3.34685 0
M  V30 12021 C 1112.36 2.03046 3.81309 0
M  V30 12022 C 1111.5 1.65739 5.04682 0
M  V30 12023 C 1110.54 2.81191 5.43689 0
M  V30 12024 N 1109.68 2.44244 6.58247 0
M  V30 12025 H 1114.52 2.09854 2.11578 0
M  V30 12026 H 1112.05 1.04421 1.03608 0
M  V30 12027 H 1114.01 0.641211 4.12243 0
M  V30 12028 H 1112.64 -0.066797 3.22731 0
M  V30 12029 H 1111.69 2.34222 2.9974 0
M  V30 12030 H 1113 2.89538 4.06164 0
M  V30 12031 H 1112.16 1.42036 5.8984 0
M  V30 12032 H 1110.9 0.764019 4.81678 0
M  V30 12033 H 1109.9 3.0557 4.57064 0
M  V30 12034 H 1111.13 3.712 5.68672 0
M  V30 12035 H 1109.07 1.57402 6.36837 0
M  V30 12036 H 1108.99 3.24269 6.82924 0
M  V30 12037 H 1110.26 2.23875 7.46659 0
M  V30 12038 N 1114.49 -1.10549 1.12324 0
M  V30 12039 C 1115.44 -2.18944 0.785248 0
M  V30 12040 C 1116.43 -1.67867 -0.227389 0
M  V30 12041 O 1117.64 -1.79796 -0.0857162 0
M  V30 12042 H 1114.01 -0.713976 0.236098 0
M  V30 12043 H 1115.98 -2.44692 1.70788 0
M  V30 12044 C 1114.73 -3.46765 0.25485 0
M  V30 12045 H 1114.05 -3.86428 1.02534 0
M  V30 12046 H 1115.49 -4.23962 0.0566526 0
M  V30 12047 C 1113.95 -3.21185 -1.01695 0
M  V30 12048 O 1114.48 -3.42745 -2.09497 0
M  V30 12049 N 1112.69 -2.7486 -0.943423 0
M  V30 12050 H 1112.24 -2.57515 -0.0660366 0
M  V30 12051 H 1112.19 -2.58122 -1.795 0
M  V30 12052 N 1115.97 -0.914965 -1.28321 0
M  V30 12053 C 1116.93 -0.409024 -2.25521 0
M  V30 12054 C 1117.93 0.465327 -1.5392 0
M  V30 12055 O 1119.12 0.26821 -1.72123 0
M  V30 12056 C 1116.25 0.413452 -3.38383 0
M  V30 12057 H 1117.44 -1.26767 -2.71791 0
M  V30 12058 H 1115 -0.694477 -1.40024 0
M  V30 12059 H 1115.73 1.29145 -2.97476 0
M  V30 12060 H 1115.52 -0.213268 -3.9152 0
M  V30 12061 H 1117.01 0.758232 -4.10659 0
M  V30 12062 N 1117.44 1.42219 -0.679077 0
M  V30 12063 C 1118.67 2.06333 -0.210097 0
M  V30 12064 C 1119.09 1.50703 1.12562 0
M  V30 12065 O 1118.45 0.627241 1.70104 0
M  V30 12066 C 1118.5 3.60243 -0.160322 0
M  V30 12067 O 1117.6 4.03122 0.869872 0
M  V30 12068 H 1116.94 0.655362 -0.106754 0
M  V30 12069 H 1119.47 1.82278 -0.929294 0
M  V30 12070 H 1119.48 4.07997 0.014384 0
M  V30 12071 H 1118.16 4.00106 -1.13526 0
M  V30 12072 H 1116.74 3.66907 0.66586 0
M  V30 12073 N 1118.92 0.422693 1.51826 0
M  V30 12074 C 1119.83 -0.40261 2.31119 0
M  V30 12075 C 1120.85 -1.04117 1.39412 0
M  V30 12076 O 1122.02 -1.03973 1.72486 0
M  V30 12077 C 1119.09 -1.49699 3.12716 0
M  V30 12078 C 1118.15 -0.880088 4.20182 0
M  V30 12079 C 1117.38 -1.92232 4.97878 0
M  V30 12080 O 1117.61 -3.14246 4.76031 0
M  V30 12081 O 1116.54 -1.521 5.82365 0
M  V30 12082 H 1120.37 0.244308 3.02716 0
M  V30 12083 H 1117.95 0.185569 1.48243 0
M  V30 12084 H 1119.83 -2.13202 3.63487 0
M  V30 12085 H 1118.51 -2.12826 2.43899 0
M  V30 12086 H 1117.41 -0.207404 3.73525 0
M  V30 12087 H 1118.75 -0.292535 4.9133 0
M  V30 12088 N 1120.4 -1.5685 0.153553 0
M  V30 12089 C 1121.36 -2.15894 -0.769564 0
M  V30 12090 C 1122.36 -1.10239 -1.17064 0
M  V30 12091 O 1123.55 -1.35845 -1.09049 0
M  V30 12092 C 1120.68 -2.72738 -2.04516 0
M  V30 12093 H 1121.88 -2.98807 -0.255842 0
M  V30 12094 H 1119.43 -1.56005 -0.0959279 0
M  V30 12095 H 1120.17 -1.9351 -2.60239 0
M  V30 12096 H 1119.95 -3.50042 -1.76672 0
M  V30 12097 H 1121.44 -3.18208 -2.70432 0
M  V30 12098 N 1121.88 0.120221 -1.57141 0
M  V30 12099 C 1123.12 0.829449 -1.85062 0
M  V30 12100 C 1123.46 1.79585 -0.739116 0
M  V30 12101 O 1122.73 1.92819 0.255147 0
M  V30 12102 C 1123.01 1.58042 -3.23566 0
M  V30 12103 C 1122.87 0.633706 -4.45314 0
M  V30 12104 C 1124.19 2.53688 -3.59625 0
M  V30 12105 H 1121.31 0.300086 -0.67314 0
M  V30 12106 H 1123.95 0.0937393 -1.89769 0
M  V30 12107 H 1122.1 2.20758 -3.19684 0
M  V30 12108 H 1123.77 0.0154836 -4.61297 0
M  V30 12109 H 1122.01 -0.054846 -4.33765 0
M  V30 12110 H 1122.68 1.19577 -5.38893 0
M  V30 12111 H 1125.16 2.01078 -3.6429 0
M  V30 12112 H 1124.04 3.03265 -4.57516 0
M  V30 12113 H 1124.3 3.36296 -2.8698 0
M  V30 12114 N 1123.36 1.52689 0.390367 0
M  V30 12115 C 1124.3 1.7737 1.47677 0
M  V30 12116 C 1125.27 0.616864 1.54221 0
M  V30 12117 O 1126.46 0.856437 1.70499 0
M  V30 12118 C 1123.6 1.94715 2.84921 0
M  V30 12119 C 1122.71 3.22405 2.8754 0
M  V30 12120 C 1121.85 3.30074 4.16202 0
M  V30 12121 C 1120.89 4.51893 4.12867 0
M  V30 12122 N 1120.02 4.56851 5.33134 0
M  V30 12123 H 1124.86 2.70084 1.25932 0
M  V30 12124 H 1122.4 1.33813 0.610943 0
M  V30 12125 H 1124.36 2.02755 3.64618 0
M  V30 12126 H 1122.99 1.05363 3.0512 0
M  V30 12127 H 1122.04 3.23442 2.00223 0
M  V30 12128 H 1123.35 4.12156 2.80943 0
M  V30 12129 H 1122.51 3.3729 5.04302 0
M  V30 12130 H 1121.24 2.38295 4.25519 0
M  V30 12131 H 1120.25 4.44803 3.23156 0
M  V30 12132 H 1121.47 5.44987 4.05174 0
M  V30 12133 H 1119.42 3.67963 5.43083 0
M  V30 12134 H 1119.34 5.40472 5.28607 0
M  V30 12135 H 1120.61 4.6832 6.23134 0
M  V30 12136 N 1124.83 -0.648732 1.43629 0
M  V30 12137 C 1126.08 -1.40446 1.44768 0
M  V30 12138 C 1126.4 -1.95447 0.0773445 0
M  V30 12139 O 1127.6 -2.71479 -0.0337942 0
M  V30 12140 C 1126.06 -2.54194 2.54781 0
M  V30 12141 C 1125.67 -2.05781 3.97942 0
M  V30 12142 C 1127.41 -3.31529 2.65121 0
M  V30 12143 C 1125.32 -3.16767 4.99412 0
M  V30 12144 H 1124.25 -0.527717 0.538545 0
M  V30 12145 H 1126.9 -0.699756 1.69634 0
M  V30 12146 H 1125.28 -3.27156 2.23125 0
M  V30 12147 H 1126.45 -1.398 4.39081 0
M  V30 12148 H 1124.77 -1.41312 3.91688 0
M  V30 12149 H 1127.37 -4.14233 3.38105 0
M  V30 12150 H 1127.71 -3.79855 1.70341 0
M  V30 12151 H 1128.24 -2.65649 2.961 0
M  V30 12152 H 1124.98 -2.73404 5.9576 0
M  V30 12153 H 1124.5 -3.81445 4.62882 0
M  V30 12154 H 1126.18 -3.81827 5.22319 0
M  V30 12155 N 1126.31 -1.30234 -0.887518 0
M  V30 12156 C 1127.24 -1.18969 -2.00919 0
M  V30 12157 C 1128.22 -0.080952 -1.69907 0
M  V30 12158 O 1129.41 -0.262546 -1.92417 0
M  V30 12159 C 1126.54 -0.878094 -3.36016 0
M  V30 12160 C 1125.49 -1.94449 -3.81279 0
M  V30 12161 C 1124.82 -1.48594 -5.13638 0
M  V30 12162 C 1126.12 -3.35519 -4.00281 0
M  V30 12163 H 1127.81 -2.12808 -2.10602 0
M  V30 12164 H 1125.36 -1.02454 -1.01189 0
M  V30 12165 H 1127.31 -0.785954 -4.14006 0
M  V30 12166 H 1126.04 0.0959779 -3.26459 0
M  V30 12167 H 1124.69 -2.02622 -3.05516 0
M  V30 12168 H 1124.34 -0.500204 -5.00507 0
M  V30 12169 H 1124.04 -2.19921 -5.44893 0
M  V30 12170 H 1125.57 -1.40754 -5.94156 0
M  V30 12171 H 1126.98 -3.30119 -4.68716 0
M  V30 12172 H 1125.38 -4.0491 -4.42909 0
M  V30 12173 H 1126.45 -3.77597 -3.04218 0
M  V30 12174 N 1127.79 1.09952 -1.12909 0
M  V30 12175 C 1128.74 2.16436 -0.801514 0
M  V30 12176 C 1129.71 1.64444 0.233976 0
M  V30 12177 O 1130.89 1.90497 0.10743 0
M  V30 12178 C 1128.03 3.4406 -0.267753 0
M  V30 12179 C 1127.15 4.09979 -1.36165 0
M  V30 12180 C 1126.28 5.25341 -0.786803 0
M  V30 12181 C 1125.32 5.83172 -1.85948 0
M  V30 12182 N 1124.46 6.89904 -1.30298 0
M  V30 12183 H 1129.3 2.43799 -1.71365 0
M  V30 12184 H 1126.83 1.19665 -0.855499 0
M  V30 12185 H 1128.79 4.17157 0.0598031 0
M  V30 12186 H 1127.42 3.17031 0.607528 0
M  V30 12187 H 1126.47 3.34801 -1.8059 0
M  V30 12188 H 1127.79 4.48999 -2.17259 0
M  V30 12189 H 1126.94 6.05312 -0.410211 0
M  V30 12190 H 1125.68 4.87669 0.055279 0
M  V30 12191 H 1124.68 5.01867 -2.24521 0
M  V30 12192 H 1125.91 6.22907 -2.70487 0
M  V30 12193 H 1123.85 6.54221 -0.482806 0
M  V30 12194 H 1123.77 7.27662 -2.05046 0
M  V30 12195 H 1125.04 7.73643 -0.953779 0
M  V30 12196 N 1129.27 0.921757 1.27833 0
M  V30 12197 C 1130.49 0.574599 1.99281 0
M  V30 12198 C 1130.92 -0.838905 1.68357 0
M  V30 12199 O 1130.28 -1.56196 0.920468 0
M  V30 12200 C 1130.32 0.800027 3.51613 0
M  V30 12201 O 1129.43 -0.137215 4.12172 0
M  V30 12202 H 1128.77 0.221887 0.625829 0
M  V30 12203 H 1131.3 1.23939 1.62789 0
M  V30 12204 H 1131.31 0.71326 4.01717 0
M  V30 12205 H 1129.98 1.83042 3.73455 0
M  V30 12206 H 1128.56 -0.00103872 3.729 0
M  V30 12207 N 1130.75 -1.41857 0.686609 0
M  V30 12208 C 1131.68 -2.33481 0.0298353 0
M  V30 12209 C 1132.66 -1.51329 -0.776756 0
M  V30 12210 O 1133.84 -1.79895 -0.731535 0
M  V30 12211 C 1130.97 -3.35065 -0.913707 0
M  V30 12212 C 1129.93 -4.2746 -0.214861 0
M  V30 12213 C 1129.25 -5.19346 -1.27215 0
M  V30 12214 C 1130.55 -5.14252 0.913367 0
M  V30 12215 H 1132.25 -2.8865 0.795067 0
M  V30 12216 H 1129.79 -1.38792 0.383785 0
M  V30 12217 H 1131.75 -3.98082 -1.38234 0
M  V30 12218 H 1130.47 -2.78226 -1.7105 0
M  V30 12219 H 1129.13 -3.65855 0.233651 0
M  V30 12220 H 1128.78 -4.58827 -2.06124 0
M  V30 12221 H 1128.48 -5.81996 -0.80961 0
M  V30 12222 H 1130 -5.85239 -1.74147 0
M  V30 12223 H 1131.41 -5.70887 0.525424 0
M  V30 12224 H 1129.81 -5.85796 1.30244 0
M  V30 12225 H 1130.88 -4.51949 1.75699 0
M  V30 12226 N 1132.22 -0.430739 -1.51599 0
M  V30 12227 C 1133.47 0.137657 -2.01631 0
M  V30 12228 C 1133.79 1.43787 -1.31721 0
M  V30 12229 O 1133.06 1.90668 -0.449717 0
M  V30 12230 H 1131.64 0.0538611 -0.745056 0
M  V30 12231 H 1134.31 -0.571935 -1.86319 0
M  V30 12232 H 1133.4 0.318305 -3.10473 0
M  V30 12233 N 1133.7 1.56767 -0.161869 0
M  V30 12234 C 1135.12 1.58412 0.194403 0
M  V30 12235 C 1135.32 1.17682 1.63564 0
M  V30 12236 O 1134.37 0.884024 2.36519 0
M  V30 12237 C 1135.69 3.00599 -0.0778438 0
M  V30 12238 C 1137.24 3.12996 -0.015307 0
M  V30 12239 C 1137.71 4.57259 -0.260418 0
M  V30 12240 N 1139.2 4.62733 -0.207863 0
M  V30 12241 C 1139.94 5.72193 -0.371821 0
M  V30 12242 N 1139.43 6.90246 -0.594318 0
M  V30 12243 N 1141.23 5.61253 -0.308384 0
M  V30 12244 H 1133.38 1.81531 -1.10274 0
M  V30 12245 H 1135.64 0.840919 -0.437675 0
M  V30 12246 H 1135.35 3.3484 -1.07587 0
M  V30 12247 H 1135.22 3.71819 0.634845 0
M  V30 12248 H 1137.61 2.78588 0.97329 0
M  V30 12249 H 1137.69 2.44232 -0.760559 0
M  V30 12250 H 1137.33 4.92375 -1.24618 0
M  V30 12251 H 1137.26 5.2417 0.505334 0
M  V30 12252 H 1139.75 3.77878 -0.0411541 0
M  V30 12253 H 1140.07 7.6954 -0.70913 0
M  V30 12254 H 1138.41 6.92131 -0.630819 0
M  V30 12255 H 1141.6 4.67905 -0.135217 0
M  V30 12256 H 1141.77 6.46507 -0.439592 0
M  V30 12257 O 1135.22 0.0237183 1.61483 0
M  V30 12258 H 1135.91 -0.589632 1.84508 0
M  V30 END ATOM
M  V30 BEGIN BOND
M  V30 END BOND
M  V30 END CTAB
M  END
$$$$
