drugbank_target|Q9WYH8 Phospho-2-dehydro-3-deoxyheptonate aldolase (DB01819; DB03937)
 OpenBabel12092119583D

  0  0  0     0  0            999 V3000
M  V30 BEGIN CTAB
M  V30 COUNTS 5327 5370 0 0 0
M  V30 BEGIN ATOM
M  V30 1 H -0.908 1.98254 -0.117106 0
M  V30 2 N 0 1.576 0 0
M  V30 3 C 0.933 2.03868 1.02534 0
M  V30 4 C 1.911 0.928543 1.3348 0
M  V30 5 O 3.095 1.19667 1.45644 0
M  V30 6 C 0.222 2.43627 2.35294 0
M  V30 7 C -0.732 3.65373 2.2001 0
M  V30 8 S 0.101 5.13292 1.52614 0
M  V30 9 C 1.257 5.56322 2.86805 0
M  V30 10 H 1.49 2.90518 0.631377 0
M  V30 11 H -0.977 1.52953 0.210867 0
M  V30 12 H 0.981 2.67203 3.11629 0
M  V30 13 H -0.358 1.57376 2.7183 0
M  V30 14 H -1.165 3.90944 3.18086 0
M  V30 15 H -1.563 3.418 1.51819 0
M  V30 16 H 0.729 5.58782 3.83104 0
M  V30 17 H 1.672 6.56266 2.65933 0
M  V30 18 H 2.08 4.83886 2.90714 0
M  V30 19 N 1.4781 -0.272755 1.55222 0
M  V30 20 C 2.7271 -1.00211 1.75045 0
M  V30 21 C 3.0401 -1.87441 0.559046 0
M  V30 22 O 4.2461 -2.63856 0.639698 0
M  V30 23 C 2.7021 -1.83165 3.09804 0
M  V30 24 C 2.3101 -1.008 4.36513 0
M  V30 25 C 4.0541 -2.55529 3.38977 0
M  V30 26 C 1.9611 -1.83194 5.62311 0
M  V30 27 H 0.8911 -0.377878 0.652476 0
M  V30 28 H 3.5421 -0.257776 1.8168 0
M  V30 29 H 1.9241 -2.61694 2.97207 0
M  V30 30 H 3.0981 -0.266855 4.60027 0
M  V30 31 H 1.4131 -0.398897 4.14485 0
M  V30 32 H 4.0101 -3.17578 4.30172 0
M  V30 33 H 4.3531 -3.25825 2.59121 0
M  V30 34 H 4.8861 -1.84029 3.52673 0
M  V30 35 H 1.6251 -1.17318 6.44916 0
M  V30 36 H 1.1451 -2.54905 5.4294 0
M  V30 37 H 2.8241 -2.40552 6.00619 0
M  V30 38 N 2.9562 -1.48159 -0.537278 0
M  V30 39 C 4.2022 -1.56035 -1.29541 0
M  V30 40 C 4.5352 -0.230377 -1.92829 0
M  V30 41 O 3.8102 0.762952 -1.78911 0
M  V30 42 C 4.0932 -2.69323 -2.39034 0
M  V30 43 C 3.9462 -4.12002 -1.80485 0
M  V30 44 C 5.2652 -2.78408 -3.40847 0
M  V30 45 H 2.3842 -0.567992 -0.469632 0
M  V30 46 H 5.0262 -1.80302 -0.599277 0
M  V30 47 H 3.1762 -2.48763 -2.98412 0
M  V30 48 H 4.8482 -4.43981 -1.25215 0
M  V30 49 H 3.0912 -4.19344 -1.11055 0
M  V30 50 H 3.7622 -4.87077 -2.59731 0
M  V30 51 H 6.2382 -2.97012 -2.91416 0
M  V30 52 H 5.1142 -3.59416 -4.14863 0
M  V30 53 H 5.3752 -1.86269 -4.00944 0
M  V30 54 N 4.4343 0.785586 -1.36625 0
M  V30 55 C 5.6803 1.54591 -1.31261 0
M  V30 56 C 6.0133 1.93906 0.106823 0
M  V30 57 O 5.2883 1.63007 1.06108 0
M  V30 58 C 5.5713 2.82038 -2.23889 0
M  V30 59 C 5.4243 2.49066 -3.74548 0
M  V30 60 C 6.7433 3.83887 -2.15217 0
M  V30 61 H 3.8623 0.560846 -0.478143 0
M  V30 62 H 6.5043 0.902278 -1.67209 0
M  V30 63 H 4.6543 3.36961 -1.93363 0
M  V30 64 H 6.3263 2.00164 -4.15611 0
M  V30 65 H 4.5693 1.81954 -3.93796 0
M  V30 66 H 5.2403 3.40109 -4.34776 0
M  V30 67 H 7.7163 3.38421 -2.42096 0
M  V30 68 H 6.5923 4.70806 -2.82193 0
M  V30 69 H 6.8533 4.27131 -1.14068 0
M  V30 70 N 5.9124 1.20967 1.01018 0
M  V30 71 C 6.8424 0.988272 2.11555 0
M  V30 72 C 7.8234 -0.0849778 1.69888 0
M  V30 73 O 9.0084 0.0738202 1.9406 0
M  V30 74 C 6.1384 0.546528 3.42973 0
M  V30 75 C 5.0924 1.56375 3.9841 0
M  V30 76 C 4.4184 0.97842 5.25672 0
M  V30 77 C 5.7184 2.94922 4.31066 0
M  V30 78 H 7.4124 1.91276 2.30334 0
M  V30 79 H 4.9584 0.921073 1.1069 0
M  V30 80 H 6.9114 0.378839 4.19694 0
M  V30 81 H 5.6354 -0.413598 3.23971 0
M  V30 82 H 4.2944 1.71891 3.23804 0
M  V30 83 H 3.9424 0.0101688 5.02999 0
M  V30 84 H 3.6424 1.65784 5.63728 0
M  V30 85 H 5.1664 0.821939 6.05043 0
M  V30 86 H 6.5804 2.8288 4.9865 0
M  V30 87 H 4.9774 3.5983 4.80253 0
M  V30 88 H 6.0474 3.4616 3.39561 0
M  V30 89 N 7.3905 -1.2043 1.01659 0
M  V30 90 C 8.3375 -2.23215 0.586822 0
M  V30 91 C 9.3075 -1.61382 -0.393085 0
M  V30 92 O 10.4925 -1.88544 -0.292525 0
M  V30 93 C 7.6325 -3.45032 -0.0687464 0
M  V30 94 C 6.7455 -4.21296 0.955724 0
M  V30 95 C 5.8805 -5.30507 0.271208 0
M  V30 96 C 4.9195 -5.98515 1.28244 0
M  V30 97 N 4.0565 -6.99316 0.62459 0
M  V30 98 H 8.8965 -2.59336 1.46796 0
M  V30 99 H 6.4335 -1.27431 0.734836 0
M  V30 100 H 8.3915 -4.1459 -0.465965 0
M  V30 101 H 7.0215 -3.09604 -0.913529 0
M  V30 102 H 6.0735 -3.50803 1.4711 0
M  V30 103 H 7.3855 -4.6803 1.72479 0
M  V30 104 H 6.5395 -6.06428 -0.18151 0
M  V30 105 H 5.2785 -4.8481 -0.530163 0
M  V30 106 H 4.2835 -5.21355 1.74554 0
M  V30 107 H 5.5085 -6.46298 2.08509 0
M  V30 108 H 3.4545 -6.55812 -0.156914 0
M  V30 109 H 3.3715 -7.44178 1.33172 0
M  V30 110 H 4.6395 -7.79255 0.195462 0
M  V30 111 N 8.8686 -0.792821 -1.36206 0
M  V30 112 C 10.2796 -0.429513 -1.81692 0
M  V30 113 C 10.6306 1.04695 -1.65932 0
M  V30 114 O 9.7556 1.81256 -1.18218 0
M  V30 115 C 10.3506 -0.772831 -3.29868 0
M  V30 116 C 8.9096 -0.462307 -3.7355 0
M  V30 117 C 8.0566 -1.00569 -2.5842 0
M  V30 118 H 11.0076 -0.985672 -1.24379 0
M  V30 119 H 11.0286 -0.0651928 -3.80444 0
M  V30 120 H 10.5406 -1.84747 -3.41307 0
M  V30 121 H 8.6416 0.604158 -3.67669 0
M  V30 122 H 8.7546 -0.985299 -4.68859 0
M  V30 123 H 7.1186 -0.428734 -2.51066 0
M  V30 124 H 7.9016 -2.08616 -2.72643 0
M  V30 125 N 10.3467 1.47872 -0.545128 0
M  V30 126 C 11.5947 2.02093 -0.016553 0
M  V30 127 C 11.9157 1.42305 1.3332 0
M  V30 128 O 11.1857 0.593853 1.86682 0
M  V30 129 H 9.7657 0.746993 -0.00313038 0
M  V30 130 H 12.4277 1.81414 -0.712397 0
M  V30 131 H 11.5237 3.11996 0.0805422 0
M  V30 132 N 11.8248 0.280983 1.55075 0
M  V30 133 C 13.0498 -0.340154 2.04592 0
M  V30 134 C 13.4748 -1.48246 1.15779 0
M  V30 135 O 12.8328 -1.80614 0.15761 0
M  V30 136 C 12.8808 -0.793104 3.5177 0
M  V30 137 O 11.9848 -1.89981 3.66034 0
M  V30 138 H 11.3258 -0.0694289 0.66036 0
M  V30 139 H 13.8558 0.416993 2.00306 0
M  V30 140 H 13.8658 -1.08729 3.93245 0
M  V30 141 H 12.5408 0.0426163 4.15878 0
M  V30 142 H 11.1178 -1.60771 3.36463 0
M  V30 143 N 13.3029 -1.57598 0.00835791 0
M  V30 144 C 14.5309 -1.95214 -0.68549 0
M  V30 145 C 14.9459 -0.883706 -1.66841 0
M  V30 146 O 14.3029 0.136565 -1.81988 0
M  V30 147 C 14.3539 -3.32865 -1.41007 0
M  V30 148 O 14.0749 -4.35609 -0.466552 0
M  V30 149 C 15.5759 -3.84991 -2.19765 0
M  V30 150 H 12.7959 -0.643422 -0.190392 0
M  V30 151 H 15.3399 -2.04406 0.0619607 0
M  V30 152 H 13.4949 -3.24956 -2.10908 0
M  V30 153 H 13.9089 -5.15288 -0.978699 0
M  V30 154 H 15.3829 -4.8371 -2.65948 0
M  V30 155 H 15.8599 -3.18137 -3.02796 0
M  V30 156 H 16.4659 -3.96103 -1.54864 0
M  V30 157 N 14.781 0.264519 -1.55364 0
M  V30 158 C 15.691 1.34902 -1.91934 0
M  V30 159 C 16.707 1.53595 -0.817593 0
M  V30 160 O 17.883 1.67558 -1.11742 0
M  V30 161 C 14.948 2.68676 -2.19121 0
M  V30 162 C 14.009 2.58657 -3.4263 0
M  V30 163 C 13.242 3.86051 -3.68511 0
M  V30 164 O 13.465 4.87126 -2.96757 0
M  V30 165 O 12.399 3.85744 -4.62045 0
M  V30 166 H 16.225 1.06883 -2.8427 0
M  V30 167 H 13.81 0.463775 -1.42019 0
M  V30 168 H 15.692 3.47759 -2.37995 0
M  V30 169 H 14.367 2.96463 -1.29966 0
M  V30 170 H 13.274 1.7792 -3.29082 0
M  V30 171 H 14.607 2.35818 -4.32031 0
M  V30 172 N 16.2591 1.48442 0.529413 0
M  V30 173 C 17.1691 1.6569 1.66084 0
M  V30 174 C 18.1851 0.539432 1.65427 0
M  V30 175 O 19.3611 0.810572 1.84368 0
M  V30 176 C 16.4261 1.69315 3.02545 0
M  V30 177 C 15.4871 2.92694 3.14052 0
M  V30 178 C 14.7201 2.96137 4.44003 0
M  V30 179 O 14.9431 2.07973 5.31134 0
M  V30 180 O 13.8771 3.88312 4.59888 0
M  V30 181 H 17.7031 2.61483 1.54469 0
M  V30 182 H 15.2881 1.3185 0.702567 0
M  V30 183 H 17.1701 1.74217 3.83701 0
M  V30 184 H 15.8451 0.766966 3.14483 0
M  V30 185 H 14.7521 2.93324 2.32189 0
M  V30 186 H 16.0851 3.84699 3.0703 0
M  V30 187 N 17.7372 -0.778329 1.37039 0
M  V30 188 C 19.0142 -1.52551 1.22424 0
M  V30 189 C 19.3942 -2.10288 -0.184964 0
M  V30 190 O 18.7422 -1.94953 -1.19187 0
M  V30 191 C 18.9522 -2.61164 2.31504 0
M  V30 192 C 20.3002 -3.28746 2.68721 0
M  V30 193 O 21.3242 -2.71455 2.30631 0
M  V30 194 O 20.1832 -4.3231 3.3432 0
M  V30 195 H 17.2772 -0.675343 0.477326 0
M  V30 196 H 19.8232 -0.815859 1.48801 0
M  V30 197 H 18.5952 -2.16574 3.25901 0
M  V30 198 H 18.2182 -3.39737 2.06554 0
M  V30 199 N 19.2153 -1.21501 -1.00376 0
M  V30 200 C 20.4643 -1.02718 -1.73586 0
M  V30 201 C 20.7773 0.439589 -1.90596 0
M  V30 202 O 21.9833 0.746848 -2.61026 0
M  V30 203 C 20.4393 -1.78929 -3.1227 0
M  V30 204 C 20.0473 -3.29783 -3.03228 0
M  V30 205 C 21.7913 -1.68557 -3.89601 0
M  V30 206 C 19.6983 -3.98479 -4.36999 0
M  V30 207 H 18.6283 -0.380733 -0.650814 0
M  V30 208 H 21.2793 -1.45248 -1.1214 0
M  V30 209 H 19.6613 -1.29192 -3.74333 0
M  V30 210 H 20.8353 -3.86832 -2.50395 0
M  V30 211 H 19.1503 -3.40711 -2.39385 0
M  V30 212 H 21.7473 -2.17211 -4.88593 0
M  V30 213 H 22.0903 -0.644021 -4.11288 0
M  V30 214 H 22.6233 -2.15778 -3.34193 0
M  V30 215 H 19.3623 -5.02841 -4.20513 0
M  V30 216 H 18.8823 -3.46219 -4.89788 0
M  V30 217 H 20.5613 -4.03462 -5.05794 0
M  V30 218 N 20.6934 1.19889 -1.02296 0
M  V30 219 C 22.1094 1.41462 -0.738954 0
M  V30 220 C 22.3094 1.89721 0.678846 0
M  V30 221 O 21.3654 2.07016 1.4457 0
M  V30 222 C 22.6784 2.43083 -1.77005 0
M  V30 223 C 24.2264 2.5684 -1.78892 0
M  V30 224 C 24.7014 3.61709 -2.80945 0
M  V30 225 N 26.1924 3.69199 -2.79725 0
M  V30 226 C 26.9274 4.50019 -3.55345 0
M  V30 227 N 26.4234 5.34592 -4.40662 0
M  V30 228 N 28.2164 4.44612 -3.43914 0
M  V30 229 H 20.3674 0.868827 -1.93817 0
M  V30 230 H 22.6304 0.44399 -0.837602 0
M  V30 231 H 22.3364 2.14636 -2.78612 0
M  V30 232 H 22.2104 3.4217 -1.58744 0
M  V30 233 H 24.5974 2.84614 -0.779674 0
M  V30 234 H 24.6784 1.57927 -2.01228 0
M  V30 235 H 24.3224 3.34678 -3.82038 0
M  V30 236 H 24.2524 4.60259 -2.5587 0
M  V30 237 H 26.7434 3.08794 -2.17842 0
M  V30 238 H 27.0564 5.93363 -4.95116 0
M  V30 239 H 25.4014 5.34073 -4.44737 0
M  V30 240 H 28.5924 3.7758 -2.76679 0
M  V30 241 H 28.7654 5.0736 -4.031 0
M  V30 242 N 22.1715 0.800033 1.35784 0
M  V30 243 C 23.1185 0.203848 2.29898 0
M  V30 244 C 24.0885 -0.658375 1.52495 0
M  V30 245 O 25.2735 -0.604832 1.8096 0
M  V30 246 C 22.4135 -0.64688 3.38983 0
M  V30 247 C 21.5265 0.235054 4.3136 0
M  V30 248 C 20.6615 -0.623054 5.27533 0
M  V30 249 C 19.7005 0.259682 6.11549 0
M  V30 250 N 18.8375 -0.558019 6.99879 0
M  V30 251 H 23.6775 1.01186 2.80295 0
M  V30 252 H 21.2145 0.51053 1.37957 0
M  V30 253 H 23.1725 -1.15521 4.00887 0
M  V30 254 H 21.8025 -1.42021 2.89879 0
M  V30 255 H 20.8545 0.861438 3.70518 0
M  V30 256 H 22.1665 0.914768 4.9034 0
M  V30 257 H 21.3205 -1.19678 5.94779 0
M  V30 258 H 20.0595 -1.33636 4.69034 0
M  V30 259 H 19.0645 0.845726 5.43256 0
M  V30 260 H 20.2895 0.970748 6.72126 0
M  V30 261 H 18.2355 -1.25542 6.43875 0
M  V30 262 H 18.1525 0.0637872 7.55973 0
M  V30 263 H 19.4205 -1.11523 7.71481 0
M  V30 264 N 23.6496 -1.47581 0.552962 0
M  V30 265 C 24.8956 -2.02782 0.0273648 0
M  V30 266 C 25.2286 -1.42687 -1.31734 0
M  V30 267 O 24.5036 -0.580897 -1.85623 0
M  V30 268 C 24.7866 -3.60031 -0.0702371 0
M  V30 269 C 24.6396 -4.30566 1.30126 0
M  V30 270 C 25.9586 -4.33028 -0.785771 0
M  V30 271 H 23.0776 -0.736912 0.0114185 0
M  V30 272 H 25.7196 -1.76056 0.714432 0
M  V30 273 H 23.8696 -3.82932 -0.655382 0
M  V30 274 H 25.5416 -4.19018 1.92929 0
M  V30 275 H 23.7846 -3.91086 1.87709 0
M  V30 276 H 24.4556 -5.39114 1.18573 0
M  V30 277 H 26.9316 -4.15095 -0.288982 0
M  V30 278 H 25.8076 -5.42695 -0.823013 0
M  V30 279 H 26.0686 -4.01945 -1.841 0
M  V30 280 N 25.1277 -0.289203 -1.54924 0
M  V30 281 C 26.3737 0.323998 -2.00195 0
M  V30 282 C 26.7067 1.54441 -1.17735 0
M  V30 283 O 25.9817 1.92875 -0.250878 0
M  V30 284 C 26.2647 0.692276 -3.53383 0
M  V30 285 C 26.1177 -0.536457 -4.46589 0
M  V30 286 C 27.4367 1.52335 -4.12895 0
M  V30 287 H 24.5557 0.116289 -0.727768 0
M  V30 288 H 27.1977 -0.398954 -1.85764 0
M  V30 289 H 25.3477 1.30822 -3.65811 0
M  V30 290 H 27.0197 -1.17499 -4.46085 0
M  V30 291 H 25.2627 -1.17192 -4.1767 0
M  V30 292 H 25.9337 -0.234806 -5.515 0
M  V30 293 H 28.4097 1.00302 -4.0383 0
M  V30 294 H 27.2857 1.74982 -5.20262 0
M  V30 295 H 27.5467 2.50886 -3.64018 0
M  V30 296 N 26.6058 1.57591 -0.0167156 0
M  V30 297 C 27.5528 2.09462 0.969251 0
M  V30 298 C 28.5228 0.99381 1.33089 0
M  V30 299 O 29.7078 1.26726 1.42636 0
M  V30 300 C 26.8478 2.61622 2.25051 0
M  V30 301 C 25.9608 3.85666 1.94642 0
M  V30 302 C 25.0958 4.26266 3.16972 0
M  V30 303 C 24.1348 5.43101 2.82326 0
M  V30 304 N 23.2718 5.78915 3.97243 0
M  V30 305 H 28.1118 2.93428 0.519997 0
M  V30 306 H 25.6488 1.45044 0.245087 0
M  V30 307 H 27.6068 2.89949 2.99976 0
M  V30 308 H 26.2368 1.80505 2.67615 0
M  V30 309 H 25.2888 3.64145 1.10013 0
M  V30 310 H 26.6008 4.70678 1.65117 0
M  V30 311 H 25.7548 4.55963 4.00228 0
M  V30 312 H 24.4938 3.39996 3.49648 0
M  V30 313 H 23.4988 5.1311 1.97479 0
M  V30 314 H 24.7238 6.3106 2.50879 0
M  V30 315 H 22.6698 4.95602 4.29785 0
M  V30 316 H 22.5868 6.58539 3.71299 0
M  V30 317 H 23.8548 6.13212 4.81239 0
M  V30 318 N 28.0839 -0.256276 1.55502 0
M  V30 319 C 29.0139 -1.32102 1.92539 0
M  V30 320 C 29.9949 -1.50684 0.789194 0
M  V30 321 O 31.1799 -1.63449 1.04872 0
M  V30 322 C 28.3099 -2.67752 2.21192 0
M  V30 323 C 27.2639 -2.63878 3.36975 0
M  V30 324 C 26.5899 -4.03236 3.51147 0
M  V30 325 C 27.8899 -2.21682 4.72921 0
M  V30 326 H 29.5839 -1.01351 2.81724 0
M  V30 327 H 27.1299 -0.486105 1.35547 0
M  V30 328 H 29.0829 -3.42365 2.45691 0
M  V30 329 H 27.8069 -3.0012 1.28824 0
M  V30 330 H 26.4659 -1.91722 3.12471 0
M  V30 331 H 26.1139 -4.32854 2.56216 0
M  V30 332 H 25.8139 -4.01535 4.29003 0
M  V30 333 H 27.3379 -4.79563 3.77957 0
M  V30 334 H 28.7519 -2.86023 4.96854 0
M  V30 335 H 27.1489 -2.3111 5.53812 0
M  V30 336 H 28.2189 -1.16833 4.70615 0
M  V30 337 N 29.562 -1.4872 -0.521534 0
M  V30 338 C 30.525 -1.63379 -1.60748 0
M  V30 339 C 31.525 -0.50661 -1.52611 0
M  V30 340 O 32.715 -0.772601 -1.5613 0
M  V30 341 C 29.847 -1.61192 -3.00383 0
M  V30 342 H 31.04 -2.60217 -1.49087 0
M  V30 343 H 28.593 -1.37444 -0.744235 0
M  V30 344 H 29.328 -0.65863 -3.17541 0
M  V30 345 H 29.113 -2.43032 -3.07698 0
M  V30 346 H 30.603 -1.7466 -3.7932 0
M  V30 347 N 31.0401 0.771051 -1.3745 0
M  V30 348 C 31.9501 1.91538 -1.35464 0
M  V30 349 C 32.9661 1.72134 -0.254123 0
M  V30 350 O 34.1421 1.95358 -0.489626 0
M  V30 351 C 31.2071 3.26671 -1.16134 0
M  V30 352 C 30.2681 3.58723 -2.35831 0
M  V30 353 C 29.5011 4.87409 -2.17413 0
M  V30 354 O 29.7241 5.58506 -1.15876 0
M  V30 355 O 28.6581 5.18539 -3.05615 0
M  V30 356 H 32.4841 1.96165 -2.31847 0
M  V30 357 H 30.0691 0.9139 -1.18187 0
M  V30 358 H 31.9511 4.07499 -1.07345 0
M  V30 359 H 30.6261 3.22894 -0.228251 0
M  V30 360 H 29.5331 2.78127 -2.50192 0
M  V30 361 H 30.8661 3.67243 -3.27709 0
M  V30 362 N 32.5182 1.22032 0.997298 0
M  V30 363 C 33.7432 1.06921 1.77715 0
M  V30 364 C 34.1682 -0.376226 1.84299 0
M  V30 365 O 33.5262 -1.27165 1.29223 0
M  V30 366 C 33.5742 1.67996 3.19076 0
M  V30 367 O 32.6782 0.930653 4.01762 0
M  V30 368 H 32.0192 0.375814 0.547412 0
M  V30 369 H 34.5492 1.61737 1.25309 0
M  V30 370 H 34.5592 1.72538 3.69723 0
M  V30 371 H 33.2342 2.73182 3.13599 0
M  V30 372 H 31.8112 0.960917 3.60307 0
M  V30 373 N 33.9963 -1.19345 1.0293 0
M  V30 374 C 35.2263 -1.92717 0.744563 0
M  V30 375 C 35.6343 -1.75751 -0.700579 0
M  V30 376 O 34.9773 -1.07703 -1.48815 0
M  V30 377 C 35.0393 -3.44828 1.01657 0
M  V30 378 C 34.7033 -3.85564 2.45335 0
M  V30 379 C 35.7003 -3.90286 3.43472 0
M  V30 380 C 33.3853 -4.1719 2.79746 0
M  V30 381 C 35.3793 -4.26065 4.74075 0
M  V30 382 C 33.0663 -4.52642 4.10559 0
M  V30 383 C 34.0643 -4.57054 5.07534 0
M  V30 384 O 33.7523 -4.91685 6.36004 0
M  V30 385 H 33.4843 -0.618977 0.271742 0
M  V30 386 H 36.0383 -1.52415 1.37691 0
M  V30 387 H 34.2683 -3.85314 0.327084 0
M  V30 388 H 35.9573 -3.99437 0.721427 0
M  V30 389 H 36.7233 -3.66002 3.18225 0
M  V30 390 H 32.6023 -4.1294 2.04943 0
M  V30 391 H 36.1463 -4.29423 5.49765 0
M  V30 392 H 32.0433 -4.76383 4.35579 0
M  V30 393 H 32.8113 -5.09631 6.40483 0
M  V30 394 N 35.4744 -0.807222 -1.35358 0
M  V30 395 C 36.4224 -0.20614 -2.31685 0
M  V30 396 C 37.4164 0.644445 -1.56663 0
M  V30 397 O 38.6224 0.537538 -1.71786 0
M  V30 398 H 34.9974 -0.0479006 -0.750473 0
M  V30 399 H 36.9684 -1.03369 -2.79924 0
M  V30 400 C 35.7174 0.630212 -3.41941 0
M  V30 401 H 35.0404 -0.0149558 -3.99797 0
M  V30 402 H 36.4804 1.01716 -4.11619 0
M  V30 403 C 34.9394 1.79601 -2.85035 0
M  V30 404 O 35.4694 2.89351 -2.78637 0
M  V30 405 N 33.6754 1.60774 -2.42074 0
M  V30 406 H 33.2224 0.715009 -2.47478 0
M  V30 407 H 33.1804 2.38933 -2.04349 0
M  V30 408 N 36.9525 1.47285 -0.560781 0
M  V30 409 C 37.8825 2.32857 0.173105 0
M  V30 410 C 38.8635 1.44009 0.905281 0
M  V30 411 O 40.0485 1.7286 0.885046 0
M  V30 412 C 37.1785 3.25861 1.20133 0
M  V30 413 C 36.1325 4.23978 0.585388 0
M  V30 414 C 35.4585 5.06332 1.7185 0
M  V30 415 C 36.7585 5.20242 -0.463178 0
M  V30 416 H 38.4525 2.94466 -0.541307 0
M  V30 417 H 35.9985 1.41601 -0.261764 0
M  V30 418 H 37.9515 3.84569 1.72293 0
M  V30 419 H 36.6755 2.62315 1.94573 0
M  V30 420 H 35.3345 3.66501 0.085054 0
M  V30 421 H 34.9825 4.39186 2.45203 0
M  V30 422 H 34.6825 5.72762 1.31213 0
M  V30 423 H 36.2065 5.67899 2.24329 0
M  V30 424 H 37.6205 5.73293 -0.027502 0
M  V30 425 H 36.0175 5.94896 -0.788627 0
M  V30 426 H 37.0875 4.65504 -1.35773 0
M  V30 427 N 38.4306 0.297415 1.54768 0
M  V30 428 C 39.3776 -0.580276 2.23386 0
M  V30 429 C 40.3476 -1.13238 1.21517 0
M  V30 430 O 41.5326 -1.17757 1.50126 0
M  V30 431 C 38.6726 -1.74801 2.97555 0
M  V30 432 C 37.7856 -1.22764 4.1419 0
M  V30 433 C 36.9206 -2.35895 4.75949 0
M  V30 434 C 35.9596 -1.80974 5.84735 0
M  V30 435 N 35.0966 -2.87664 6.40464 0
M  V30 436 H 39.9366 0.0114833 2.97998 0
M  V30 437 H 37.4736 0.0174361 1.4709 0
M  V30 438 H 39.4316 -2.43475 3.38786 0
M  V30 439 H 38.0616 -2.31145 2.25326 0
M  V30 440 H 37.1136 -0.433271 3.77924 0
M  V30 441 H 38.4256 -0.785551 4.92575 0
M  V30 442 H 37.5796 -3.12523 5.20014 0
M  V30 443 H 36.3186 -2.83429 3.96887 0
M  V30 444 H 35.3236 -1.02834 5.40097 0
M  V30 445 H 36.5486 -1.34348 6.65678 0
M  V30 446 H 34.4946 -3.34538 5.64287 0
M  V30 447 H 34.4116 -2.4794 7.14186 0
M  V30 448 H 35.6796 -3.642 6.89187 0
M  V30 449 N 39.9087 -1.5758 0.0250728 0
M  V30 450 C 41.1487 -1.93497 -0.65865 0
M  V30 451 C 41.5127 -0.901409 -1.69525 0
M  V30 452 O 42.7137 -1.14664 -2.43116 0
M  V30 453 C 40.9847 -3.34352 -1.26267 0
M  V30 454 S 42.5437 -3.92191 -1.96803 0
M  V30 455 H 39.3617 -0.67709 -0.216958 0
M  V30 456 H 41.9637 -1.95303 0.0877692 0
M  V30 457 H 40.6677 -4.07395 -0.495741 0
M  V30 458 H 40.1987 -3.3598 -2.04648 0
M  V30 459 H 42.2137 -3.75298 -3.24601 0
M  V30 460 N 41.3868 0.248026 -1.55636 0
M  V30 461 C 42.3368 1.30994 -1.86614 0
M  V30 462 C 43.3208 1.43543 -0.726918 0
M  V30 463 O 44.5128 1.46804 -0.988818 0
M  V30 464 C 41.6418 2.6656 -2.16335 0
M  V30 465 C 40.7278 2.58019 -3.36581 0
M  V30 466 N 41.1188 2.1911 -4.55878 0
M  V30 467 C 39.4168 2.89035 -3.39669 0
M  V30 468 C 40.1178 2.21174 -5.38012 0
M  V30 469 N 39.0938 2.60632 -4.77045 0
M  V30 470 H 42.8958 0.999583 -2.76379 0
M  V30 471 H 40.4098 0.456652 -1.55848 0
M  V30 472 H 42.4068 3.43194 -2.36692 0
M  V30 473 H 41.0668 2.98463 -1.27867 0
M  V30 474 H 42.0778 1.90672 -4.81523 0
M  V30 475 H 38.7548 3.25485 -2.61469 0
M  V30 476 H 40.1448 1.9344 -6.43452 0
M  V30 477 N 42.8649 1.48995 0.513639 0
M  V30 478 C 44.1139 1.57093 1.2651 0
M  V30 479 C 44.4269 0.257091 1.93903 0
M  V30 480 O 45.6329 0.216478 2.70636 0
M  V30 481 C 44.0889 2.77118 2.29638 0
M  V30 482 C 43.6969 4.15209 1.68241 0
M  V30 483 C 45.4409 2.94538 3.05692 0
M  V30 484 C 43.3479 5.26474 2.69406 0
M  V30 485 H 42.2779 0.584876 0.475854 0
M  V30 486 H 44.9289 1.7536 0.540487 0
M  V30 487 H 43.3109 2.52319 3.05207 0
M  V30 488 H 44.4849 4.50094 0.987505 0
M  V30 489 H 42.7999 4.03042 1.04623 0
M  V30 490 H 45.3969 3.74832 3.8132 0
M  V30 491 H 45.7399 2.04614 3.62545 0
M  V30 492 H 46.2729 3.19316 2.37238 0
M  V30 493 H 43.0119 6.18417 2.17351 0
M  V30 494 H 42.5319 4.96058 3.37175 0
M  V30 495 H 44.2109 5.55277 3.32078 0
M  V30 496 N 44.343 -0.763751 1.37857 0
M  V30 497 C 45.568 -1.55805 1.36893 0
M  V30 498 C 45.993 -1.88054 -0.0416135 0
M  V30 499 O 45.351 -1.49825 -1.02089 0
M  V30 500 C 45.399 -2.84012 2.22192 0
M  V30 501 O 44.503 -3.78732 1.63204 0
M  V30 502 H 43.844 -0.471638 0.46739 0
M  V30 503 H 46.374 -0.944657 1.81487 0
M  V30 504 H 46.384 -3.33037 2.35691 0
M  V30 505 H 45.059 -2.59869 3.24716 0
M  V30 506 H 43.636 -3.37402 1.58791 0
M  V30 507 N 45.8211 -1.22559 -0.990812 0
M  V30 508 C 46.7681 -0.997519 -2.0813 0
M  V30 509 C 47.7381 0.0814702 -1.659 0
M  V30 510 O 48.9231 -0.0685424 -1.90677 0
M  V30 511 C 46.0631 -0.583615 -3.40129 0
M  V30 512 C 45.1761 -1.7336 -3.9569 0
M  V30 513 C 44.3111 -1.26748 -5.15857 0
M  V30 514 C 43.3501 -2.38888 -5.63559 0
M  V30 515 N 42.4871 -1.93308 -6.74964 0
M  V30 516 H 47.3271 -1.93099 -2.26973 0
M  V30 517 H 44.8641 -0.962114 -1.11273 0
M  V30 518 H 46.8221 -0.324801 -4.15934 0
M  V30 519 H 45.4521 0.312845 -3.2128 0
M  V30 520 H 44.5041 -2.10669 -3.16738 0
M  V30 521 H 45.8161 -2.57704 -4.27071 0
M  V30 522 H 44.9701 -0.966173 -5.98957 0
M  V30 523 H 43.7091 -0.394272 -4.86104 0
M  V30 524 H 42.7141 -2.69805 -4.79046 0
M  V30 525 H 43.9391 -3.26728 -5.95336 0
M  V30 526 H 41.8851 -1.08352 -6.4699 0
M  V30 527 H 41.8021 -2.71217 -7.05675 0
M  V30 528 H 43.0701 -1.66252 -7.61564 0
M  V30 529 N 47.2992 1.18797 -1.03562 0
M  V30 530 C 48.5472 1.88278 -0.734569 0
M  V30 531 C 48.8682 1.8043 0.739586 0
M  V30 532 O 48.1382 1.21925 1.53333 0
M  V30 533 H 46.7182 0.696991 -0.268725 0
M  V30 534 H 49.3802 1.44192 -1.31129 0
M  V30 535 H 48.4762 2.94443 -1.03489 0
M  V30 536 N 48.7773 0.814389 1.34928 0
M  V30 537 C 49.7093 0.187834 2.28429 0
M  V30 538 C 50.7223 -0.617374 1.5064 0
M  V30 539 O 51.9113 -0.448454 1.72775 0
M  V30 540 C 49.0113 -0.755962 3.30361 0
M  V30 541 C 48.1843 0.00456686 4.374 0
M  V30 542 C 47.2433 -0.858876 5.19143 0
M  V30 543 O 46.2693 -0.306968 5.68372 0
M  V30 544 N 47.4713 -2.17988 5.38016 0
M  V30 545 H 50.2363 0.991105 2.82838 0
M  V30 546 H 47.7973 0.670561 1.4736 0
M  V30 547 H 49.7893 -1.338 3.81942 0
M  V30 548 H 48.3593 -1.46001 2.7641 0
M  V30 549 H 47.5793 0.767865 3.86649 0
M  V30 550 H 48.8673 0.528422 5.06049 0
M  V30 551 H 48.2653 -2.65212 4.99679 0
M  V30 552 H 46.8223 -2.71098 5.92747 0
M  V30 553 N 50.2554 -1.46986 0.568584 0
M  V30 554 C 51.1654 -2.33942 -0.17555 0
M  V30 555 C 52.1814 -1.48891 -0.90041 0
M  V30 556 O 53.3574 -1.81794 -0.86676 0
M  V30 557 C 50.4224 -3.25811 -1.18524 0
M  V30 558 C 49.4834 -4.26757 -0.466582 0
M  V30 559 C 48.7164 -5.14236 -1.42817 0
M  V30 560 O 48.9394 -5.04379 -2.66379 0
M  V30 561 O 47.8734 -5.94412 -0.946453 0
M  V30 562 H 51.6994 -2.98896 0.538036 0
M  V30 563 H 49.2844 -1.4573 0.329097 0
M  V30 564 H 51.1664 -3.82527 -1.76779 0
M  V30 565 H 49.8414 -2.63471 -1.88055 0
M  V30 566 H 48.7484 -3.73769 0.157451 0
M  V30 567 H 50.0814 -4.91843 0.187485 0
M  V30 568 N 51.7335 -0.305618 -1.54608 0
M  V30 569 C 53.1495 0.0476228 -1.59529 0
M  V30 570 C 53.3495 1.52025 -1.32252 0
M  V30 571 O 52.4055 2.27368 -1.09818 0
M  V30 572 C 53.7185 -0.354471 -2.98603 0
M  V30 573 C 55.2665 -0.303622 -3.11524 0
M  V30 574 C 55.7415 -0.680608 -4.52915 0
M  V30 575 N 57.2325 -0.63332 -4.5885 0
M  V30 576 C 57.9675 -0.897432 -5.66334 0
M  V30 577 N 57.4635 -1.22775 -6.81834 0
M  V30 578 N 59.2565 -0.824186 -5.56025 0
M  V30 579 H 51.4075 -1.2653 -1.70599 0
M  V30 580 H 53.6705 -0.513291 -0.797017 0
M  V30 581 H 53.3765 -1.3798 -3.23503 0
M  V30 582 H 53.2505 0.289568 -3.76087 0
M  V30 583 H 55.6375 0.712472 -2.8637 0
M  V30 584 H 55.7185 -0.982348 -2.36185 0
M  V30 585 H 55.3625 -1.69453 -4.78799 0
M  V30 586 H 55.2925 0.0202385 -5.26596 0
M  V30 587 H 57.7835 -0.389138 -3.75891 0
M  V30 588 H 58.0965 -1.41513 -7.59733 0
M  V30 589 H 56.4415 -1.26583 -6.83375 0
M  V30 590 H 59.6325 -0.565748 -4.64669 0
M  V30 591 H 59.8055 -1.03338 -6.39707 0
M  V30 592 N 53.2116 1.57565 -0.0334293 0
M  V30 593 C 54.4396 1.9628 0.654347 0
M  V30 594 C 54.8546 0.910138 1.65414 0
M  V30 595 O 54.2116 -0.107595 1.82183 0
M  V30 596 C 54.2626 3.35067 1.35693 0
M  V30 597 O 53.9836 4.36296 0.397191 0
M  V30 598 C 55.4846 3.88439 2.13613 0
M  V30 599 H 52.7046 0.646369 0.180132 0
M  V30 600 H 55.2486 2.04282 -0.0944721 0
M  V30 601 H 53.4036 3.2827 2.05712 0
M  V30 602 H 53.8176 5.1678 0.896597 0
M  V30 603 H 55.2916 4.8788 2.58219 0
M  V30 604 H 55.7686 3.22914 2.97696 0
M  V30 605 H 56.3746 3.98516 1.48543 0
M  V30 606 N 54.6897 -0.239769 1.55765 0
M  V30 607 C 55.9357 -0.968234 1.78194 0
M  V30 608 C 56.2687 -1.84701 0.599938 0
M  V30 609 O 55.5437 -1.9031 -0.401524 0
M  V30 610 C 55.8267 -1.8227 3.10564 0
M  V30 611 C 55.6797 -0.971633 4.3918 0
M  V30 612 C 56.9987 -2.80388 3.39221 0
M  V30 613 H 54.1177 -0.350572 0.648281 0
M  V30 614 H 56.7597 -0.238259 1.885 0
M  V30 615 H 54.9097 -2.44507 3.01908 0
M  V30 616 H 56.5817 -0.367408 4.59835 0
M  V30 617 H 54.8247 -0.276276 4.32919 0
M  V30 618 H 55.4957 -1.60346 5.28198 0
M  V30 619 H 57.9717 -2.28287 3.47885 0
M  V30 620 H 56.8477 -3.3729 4.33044 0
M  V30 621 H 57.1087 -3.57212 2.60484 0
M  V30 622 N 56.1678 -1.49265 -0.50573 0
M  V30 623 C 57.4168 -1.57761 -1.25675 0
M  V30 624 C 57.7298 -0.267371 -1.93764 0
M  V30 625 O 58.9358 -0.230827 -2.70517 0
M  V30 626 C 57.3918 -2.78332 -2.28165 0
M  V30 627 C 56.9998 -4.16096 -1.66037 0
M  V30 628 C 58.7438 -2.96155 -3.04125 0
M  V30 629 C 56.6508 -5.27895 -2.6661 0
M  V30 630 H 55.5808 -0.587391 -0.472745 0
M  V30 631 H 58.2318 -1.75644 -0.53118 0
M  V30 632 H 56.6138 -2.53934 -3.03865 0
M  V30 633 H 57.7878 -4.50612 -0.963622 0
M  V30 634 H 56.1028 -4.03591 -1.02484 0
M  V30 635 H 58.6998 -3.76849 -3.79327 0
M  V30 636 H 59.0428 -2.06534 -3.61455 0
M  V30 637 H 59.5758 -3.2057 -2.35541 0
M  V30 638 H 56.3148 -6.1956 -2.14068 0
M  V30 639 H 55.8348 -4.97839 -3.34539 0
M  V30 640 H 57.5138 -5.57031 -3.29129 0
M  V30 641 N 57.6459 0.756429 -1.3826 0
M  V30 642 C 58.8939 1.51248 -1.34047 0
M  V30 643 C 59.2149 1.94875 0.0698372 0
M  V30 644 O 58.4849 1.67436 1.01696 0
M  V30 645 H 57.0649 0.561018 -0.493222 0
M  V30 646 H 59.7269 0.899347 -1.7291 0
M  V30 647 H 58.8229 2.40472 -1.98947 0
M  V30 648 N 59.124 1.23083 0.984299 0
M  V30 649 C 60.373 1.05466 1.71929 0
M  V30 650 C 60.686 -0.409211 1.91272 0
M  V30 651 O 61.892 -0.705226 2.62181 0
M  V30 652 C 60.348 1.83874 3.09384 0
M  V30 653 C 59.956 3.34566 2.97943 0
M  V30 654 C 61.7 1.74734 3.8687 0
M  V30 655 C 59.607 4.05381 4.30605 0
M  V30 656 H 58.537 0.391039 0.644674 0
M  V30 657 H 61.188 1.47013 1.09815 0
M  V30 658 H 59.57 1.35131 3.72231 0
M  V30 659 H 60.744 3.90767 2.44209 0
M  V30 660 H 59.059 3.44476 2.33934 0
M  V30 661 H 61.656 2.24957 4.85076 0
M  V30 662 H 61.999 0.709372 4.10212 0
M  V30 663 H 62.532 2.21067 3.30717 0
M  V30 664 H 59.271 5.09467 4.1246 0
M  V30 665 H 58.791 3.53967 4.84218 0
M  V30 666 H 60.47 4.11458 4.99311 0
M  V30 667 N 60.6021 -1.18246 1.0419 0
M  V30 668 C 61.8511 -1.87588 0.741194 0
M  V30 669 C 62.1641 -1.81303 -0.734066 0
M  V30 670 O 63.3701 -2.46019 -1.14834 0
M  V30 671 C 61.8261 -3.36538 1.27555 0
M  V30 672 C 61.4341 -3.51349 2.77953 0
M  V30 673 C 63.1781 -4.11273 1.05143 0
M  V30 674 C 61.0851 -4.94265 3.2474 0
M  V30 675 H 60.0151 -0.702622 0.273565 0
M  V30 676 H 62.6661 -1.33601 1.25789 0
M  V30 677 H 61.0481 -3.9 0.686703 0
M  V30 678 H 62.2221 -3.08153 3.42605 0
M  V30 679 H 60.5371 -2.90022 2.98791 0
M  V30 680 H 63.1341 -5.16689 1.37611 0
M  V30 681 H 63.4771 -4.16298 -0.0112774 0
M  V30 682 H 64.0101 -3.63987 1.60495 0
M  V30 683 H 60.7491 -4.94408 4.30396 0
M  V30 684 H 60.2691 -5.38172 2.64823 0
M  V30 685 H 61.9481 -5.62987 3.18834 0
M  V30 686 N 62.0802 -0.821533 -1.34494 0
M  V30 687 C 63.3282 -0.408139 -1.97936 0
M  V30 688 C 63.6492 1.03193 -1.65457 0
M  V30 689 O 62.9192 1.71622 -0.944595 0
M  V30 690 H 61.4992 -0.147928 -0.732206 0
M  V30 691 H 64.1612 -1.05067 -1.64155 0
M  V30 692 H 63.2572 -0.52601 -3.07635 0
M  V30 693 N 63.5583 1.46682 -0.576371 0
M  V30 694 C 64.8353 1.95599 0.00703437 0
M  V30 695 C 65.2153 1.51904 1.46589 0
M  V30 696 O 64.5633 0.766755 2.15251 0
M  V30 697 C 64.7733 3.4864 -0.158404 0
M  V30 698 C 66.1213 4.24594 -0.0229439 0
M  V30 699 O 67.1453 3.56094 -0.0869173 0
M  V30 700 O 66.0043 5.46373 0.118015 0
M  V30 701 H 63.0983 0.825275 0.053384 0
M  V30 702 H 65.6443 1.56996 -0.644244 0
M  V30 703 H 64.4163 3.7331 -1.17282 0
M  V30 704 H 64.0393 3.94057 0.5296 0
M  V30 705 N 65.0364 0.313813 1.54444 0
M  V30 706 C 66.3134 -0.345447 1.92525 0
M  V30 707 C 66.6934 -1.70667 1.24242 0
M  V30 708 O 66.0414 -2.25273 0.382654 0
M  V30 709 C 66.2514 -0.44737 3.46121 0
M  V30 710 C 67.5994 -0.712238 4.18584 0
M  V30 711 O 68.6234 -0.530678 3.52225 0
M  V30 712 O 67.4824 -1.06183 5.36085 0
M  V30 713 H 64.5764 -0.195407 0.803583 0
M  V30 714 H 67.1224 0.362813 1.65776 0
M  V30 715 H 65.8944 0.509043 3.87975 0
M  V30 716 H 65.5174 -1.20359 3.78945 0
M  V30 717 N 66.5145 -1.57545 0.0417849 0
M  V30 718 C 67.9305 -1.56467 -0.314704 0
M  V30 719 C 68.1305 -1.04859 -1.72066 0
M  V30 720 O 67.1865 -0.700983 -2.42575 0
M  V30 721 C 68.4995 -3.00317 -0.15174 0
M  V30 722 C 70.0475 -3.12201 -0.223553 0
M  V30 723 C 70.5225 -4.57913 -0.0892295 0
M  V30 724 N 72.0135 -4.6297 -0.145808 0
M  V30 725 C 72.7485 -5.73362 -0.0658459 0
M  V30 726 N 72.2445 -6.92769 0.0659282 0
M  V30 727 N 74.0375 -5.6197 -0.12075 0
M  V30 728 H 66.1885 -1.89416 0.961014 0
M  V30 729 H 68.4515 -0.871862 0.372237 0
M  V30 730 H 68.1575 -3.42073 0.817254 0
M  V30 731 H 68.0315 -3.65892 -0.916692 0
M  V30 732 H 70.4185 -2.70349 -1.18301 0
M  V30 733 H 70.4995 -2.49323 0.571994 0
M  V30 734 H 70.1435 -5.00448 0.866867 0
M  V30 735 H 70.0735 -5.18786 -0.903802 0
M  V30 736 H 72.5645 -3.7709 -0.247286 0
M  V30 737 H 72.8775 -7.72707 0.119905 0
M  V30 738 H 71.2225 -6.94927 0.100885 0
M  V30 739 H 74.4135 -4.67572 -0.222187 0
M  V30 740 H 74.5865 -6.47977 -0.0549735 0
M  V30 741 N 67.9926 0.231505 -1.5589 0
M  V30 742 C 69.2226 0.973092 -1.82248 0
M  V30 743 C 69.6306 1.78845 -0.617328 0
M  V30 744 O 68.9736 1.78752 0.423499 0
M  V30 745 C 69.0356 1.94732 -3.02192 0
M  V30 746 C 68.6996 1.31743 -4.37599 0
M  V30 747 C 69.6966 0.712238 -5.14998 0
M  V30 748 C 67.3816 1.33218 -4.84312 0
M  V30 749 C 69.3756 0.130195 -6.37267 0
M  V30 750 C 67.0626 0.746286 -6.06526 0
M  V30 751 C 68.0606 0.146337 -6.82843 0
M  V30 752 O 67.7486 -0.430465 -8.02747 0
M  V30 753 H 67.4806 0.29125 -0.61004 0
M  V30 754 H 70.0346 0.254915 -2.03812 0
M  V30 755 H 68.2646 2.70422 -2.76422 0
M  V30 756 H 69.9536 2.55362 -3.15508 0
M  V30 757 H 70.7196 0.69324 -4.8002 0
M  V30 758 H 66.5986 1.78854 -4.24891 0
M  V30 759 H 70.1426 -0.33871 -6.96777 0
M  V30 760 H 66.0396 0.762663 -6.40979 0
M  V30 761 H 66.8076 -0.323818 -8.17859 0
M  V30 762 N 69.4707 1.49531 0.497807 0
M  V30 763 C 70.7167 1.59415 1.25358 0
M  V30 764 C 71.0497 0.281422 1.9215 0
M  V30 765 O 70.3247 -0.715249 1.80871 0
M  V30 766 C 70.6077 2.75566 2.3181 0
M  V30 767 C 70.4607 4.16642 1.69498 0
M  V30 768 C 71.7797 2.87347 3.33346 0
M  V30 769 H 68.8987 0.580244 0.454408 0
M  V30 770 H 71.5407 1.81827 0.551262 0
M  V30 771 H 69.6907 2.56587 2.91711 0
M  V30 772 H 71.3627 4.47145 1.13399 0
M  V30 773 H 69.6057 4.22141 0.998978 0
M  V30 774 H 70.2767 4.93792 2.46725 0
M  V30 775 H 72.7527 3.04634 2.83438 0
M  V30 776 H 71.6287 3.70289 4.05188 0
M  V30 777 H 71.8897 1.96834 3.95865 0
M  V30 778 N 70.9488 -0.749086 1.3866 0
M  V30 779 C 72.1948 -1.51056 1.35314 0
M  V30 780 C 72.5278 -1.94121 -0.0553751 0
M  V30 781 O 71.8028 -1.65763 -1.01749 0
M  V30 782 C 72.0858 -2.76003 2.31288 0
M  V30 783 C 71.9388 -2.39047 3.8102 0
M  V30 784 C 73.2578 -3.78046 2.2532 0
M  V30 785 H 70.3768 -0.547972 0.492844 0
M  V30 786 H 73.0188 -0.857628 1.69543 0
M  V30 787 H 71.1688 -3.31716 2.02229 0
M  V30 788 H 72.8408 -1.89074 4.20771 0
M  V30 789 H 71.0838 -1.71449 3.98482 0
M  V30 790 H 71.7548 -3.28462 4.4364 0
M  V30 791 H 74.2308 -3.31884 2.50983 0
M  V30 792 H 73.1068 -4.63159 2.94576 0
M  V30 793 H 73.3678 -4.23957 1.25352 0
M  V30 794 N 72.4269 -1.23603 -0.977757 0
M  V30 795 C 73.3899 -1.02069 -2.05218 0
M  V30 796 C 74.3899 0.0184305 -1.60789 0
M  V30 797 O 75.5799 -0.221569 -1.72785 0
M  V30 798 C 72.7119 -0.544926 -3.36517 0
M  V30 799 H 73.9049 -1.9742 -2.25755 0
M  V30 800 H 71.4579 -1.05684 -1.15155 0
M  V30 801 H 72.1929 0.412241 -3.21669 0
M  V30 802 H 71.9779 -1.2948 -3.70105 0
M  V30 803 H 73.4679 -0.414985 -4.15533 0
M  V30 804 N 73.905 1.17692 -1.04816 0
M  V30 805 C 75.182 1.83768 -0.669963 0
M  V30 806 C 75.562 1.93232 0.849986 0
M  V30 807 O 74.91 1.46397 1.75443 0
M  V30 808 C 75.12 3.21641 -1.35455 0
M  V30 809 C 76.468 3.97592 -1.49017 0
M  V30 810 O 77.492 3.31107 -1.31326 0
M  V30 811 O 76.351 5.16729 -1.77914 0
M  V30 812 H 73.445 0.792799 -0.235368 0
M  V30 813 H 75.991 1.25021 -1.14751 0
M  V30 814 H 74.763 3.097 -2.39168 0
M  V30 815 H 74.386 3.88052 -0.866107 0
M  V30 816 N 75.3831 0.828654 1.34056 0
M  V30 817 C 76.3301 0.252567 2.29414 0
M  V30 818 C 77.3001 -0.62588 1.53857 0
M  V30 819 O 78.4851 -0.566312 1.82202 0
M  V30 820 C 75.6251 -0.574831 3.40279 0
M  V30 821 C 74.7381 0.326499 4.30764 0
M  V30 822 C 73.8731 -0.511016 5.28736 0
M  V30 823 C 72.9121 0.389342 6.1086 0
M  V30 824 N 72.0491 -0.409439 7.00905 0
M  V30 825 H 76.8891 1.07108 2.78086 0
M  V30 826 H 74.4261 0.539677 1.36843 0
M  V30 827 H 76.3841 -1.06992 4.03248 0
M  V30 828 H 75.0141 -1.35841 2.92826 0
M  V30 829 H 74.0661 0.939837 3.68607 0
M  V30 830 H 75.3781 1.01857 4.88289 0
M  V30 831 H 74.5321 -1.07035 5.97184 0
M  V30 832 H 73.2711 -1.23657 4.71763 0
M  V30 833 H 72.2761 0.960769 5.4134 0
M  V30 834 H 73.5011 1.1131 6.69916 0
M  V30 835 H 71.4471 -1.11856 6.46393 0
M  V30 836 H 71.3641 0.224126 7.55668 0
M  V30 837 H 72.6321 -0.951336 7.73673 0
M  V30 838 N 76.8612 -1.46375 0.584142 0
M  V30 839 C 78.1082 -2.02378 0.0702675 0
M  V30 840 C 78.4362 -1.45545 -1.29023 0
M  V30 841 O 77.6912 -0.610967 -1.85918 0
M  V30 842 C 77.9902 -3.57373 -0.0439342 0
M  V30 843 C 77.6562 -4.33252 1.24915 0
M  V30 844 C 76.3182 -4.53701 1.60341 0
M  V30 845 C 78.6702 -4.7681 2.1048 0
M  V30 846 C 75.9982 -5.1496 2.81128 0
M  V30 847 C 78.3502 -5.39404 3.30494 0
M  V30 848 C 77.0142 -5.5808 3.66201 0
M  V30 849 H 76.2842 -0.740554 0.0257127 0
M  V30 850 H 78.9312 -1.75727 0.761065 0
M  V30 851 H 77.2362 -3.83169 -0.817869 0
M  V30 852 H 78.9332 -3.98384 -0.457318 0
M  V30 853 H 75.5232 -4.17633 0.963364 0
M  V30 854 H 79.7072 -4.60766 1.84414 0
M  V30 855 H 74.9632 -5.27611 3.08928 0
M  V30 856 H 79.1372 -5.72114 3.97063 0
M  V30 857 H 76.7642 -6.05318 4.59885 0
M  V30 858 N 78.3393 -0.321999 -1.54275 0
M  V30 859 C 79.2493 0.553631 -2.27974 0
M  V30 860 C 80.2653 1.13054 -1.32268 0
M  V30 861 O 81.4413 1.15084 -1.6528 0
M  V30 862 C 78.5063 1.69927 -3.02201 0
M  V30 863 C 77.5673 1.15433 -4.1349 0
M  V30 864 C 76.8003 2.24537 -4.84168 0
M  V30 865 O 77.0233 3.44852 -4.5435 0
M  V30 866 O 75.9573 1.90044 -5.7111 0
M  V30 867 H 79.7833 -0.0448345 -3.03667 0
M  V30 868 H 77.3683 -0.0877418 -1.49142 0
M  V30 869 H 79.2503 2.3663 -3.48689 0
M  V30 870 H 77.9253 2.28395 -2.29385 0
M  V30 871 H 76.8323 0.452436 -3.71354 0
M  V30 872 H 78.1653 0.614805 -4.88345 0
M  V30 873 N 79.8174 1.5752 -0.0501392 0
M  V30 874 C 81.0424 1.97376 0.636997 0
M  V30 875 C 81.4674 0.927466 1.63645 0
M  V30 876 O 80.8254 -0.10941 1.8097 0
M  V30 877 C 80.8734 3.36304 1.30123 0
M  V30 878 O 79.9774 3.34156 2.41689 0
M  V30 879 H 79.3184 0.642998 0.165679 0
M  V30 880 H 81.8484 2.04258 -0.118233 0
M  V30 881 H 81.8584 3.73008 1.65315 0
M  V30 882 H 80.5334 4.11993 0.568746 0
M  V30 883 H 79.1104 3.09196 2.08451 0
M  V30 884 N 81.2955 -0.223234 1.56011 0
M  V30 885 C 82.2255 -1.27988 1.95298 0
M  V30 886 C 83.2065 -1.48976 0.820979 0
M  V30 887 O 84.3915 -1.61188 1.08315 0
M  V30 888 C 81.5215 -2.63 2.26822 0
M  V30 889 C 80.4755 -2.56671 3.42497 0
M  V30 890 C 79.8015 -3.95697 3.59622 0
M  V30 891 C 81.1015 -2.11601 4.77517 0
M  V30 892 H 82.7955 -0.953525 2.8381 0
M  V30 893 H 80.3415 -0.457244 1.36548 0
M  V30 894 H 82.2945 -3.37077 2.52898 0
M  V30 895 H 81.0185 -2.9732 1.35161 0
M  V30 896 H 79.6775 -1.85051 3.16467 0
M  V30 897 H 79.3255 -4.27322 2.6534 0
M  V30 898 H 79.0255 -3.92345 4.37424 0
M  V30 899 H 80.5495 -4.71438 3.88044 0
M  V30 900 H 81.9635 -2.7542 5.02809 0
M  V30 901 H 80.3605 -2.19311 5.5859 0
M  V30 902 H 81.4305 -1.06824 4.72987 0
M  V30 903 N 82.7736 -1.49793 -0.48987 0
M  V30 904 C 84.0506 -1.50348 -1.25119 0
M  V30 905 C 84.4306 -0.237466 -2.0976 0
M  V30 906 O 83.7786 0.77981 -2.14782 0
M  V30 907 C 83.9886 -2.78872 -2.09837 0
M  V30 908 C 85.3366 -3.288 -2.68655 0
M  V30 909 O 86.3606 -2.80065 -2.20096 0
M  V30 910 O 85.2196 -4.13707 -3.57083 0
M  V30 911 H 82.3136 -0.602242 -0.566775 0
M  V30 912 H 84.8596 -1.62067 -0.503229 0
M  V30 913 H 83.6316 -3.62499 -1.47343 0
M  V30 914 H 83.2546 -2.70066 -2.91805 0
M  V30 915 N 84.2517 0.741722 -1.39055 0
M  V30 916 C 85.4917 1.51385 -1.37338 0
M  V30 917 C 85.8557 1.91972 0.0330513 0
M  V30 918 O 87.0567 2.68229 0.175174 0
M  V30 919 C 85.3277 2.72481 -2.31276 0
M  V30 920 S 86.8867 3.62211 -2.47687 0
M  V30 921 H 83.7047 0.517906 -0.487129 0
M  V30 922 H 86.3067 0.86969 -1.7509 0
M  V30 923 H 85.0107 2.40793 -3.32336 0
M  V30 924 H 84.5417 3.41832 -1.94716 0
M  V30 925 H 86.5567 4.65812 -1.70978 0
M  V30 926 N 85.7298 1.2412 0.971189 0
M  V30 927 C 86.9758 1.08041 1.71625 0
M  V30 928 C 87.3088 -0.380407 1.90438 0
M  V30 929 O 86.5838 -1.28127 1.46334 0
M  V30 930 C 86.8668 1.81682 3.10908 0
M  V30 931 C 86.7198 3.35493 2.99608 0
M  V30 932 C 88.0388 1.58671 4.10501 0
M  V30 933 H 85.1578 0.39388 0.622919 0
M  V30 934 H 87.7998 1.52743 1.13003 0
M  V30 935 H 85.9498 1.43684 3.60953 0
M  V30 936 H 87.6218 3.83068 2.57015 0
M  V30 937 H 85.8648 3.64052 2.35899 0
M  V30 938 H 86.5358 3.82217 3.98264 0
M  V30 939 H 89.0118 1.91719 3.69301 0
M  V30 940 H 87.8878 2.1266 5.06031 0
M  V30 941 H 88.1488 0.524161 4.38982 0
M  V30 942 N 87.2079 -1.17134 1.05439 0
M  V30 943 C 88.1179 -2.24878 0.668365 0
M  V30 944 C 89.1339 -1.71186 -0.311687 0
M  V30 945 O 90.3099 -2.00738 -0.163161 0
M  V30 946 C 87.3749 -3.46662 0.051648 0
M  V30 947 C 86.4359 -4.15429 1.08246 0
M  V30 948 C 85.6689 -5.31399 0.495082 0
M  V30 949 O 85.8919 -5.66153 -0.694743 0
M  V30 950 O 84.8259 -5.89187 1.23056 0
M  V30 951 H 88.6519 -2.60189 1.56637 0
M  V30 952 H 86.2369 -1.24482 0.826104 0
M  V30 953 H 88.1189 -4.20394 -0.290966 0
M  V30 954 H 86.7939 -3.13142 -0.819971 0
M  V30 955 H 85.7009 -3.43704 1.47711 0
M  V30 956 H 87.0339 -4.52982 1.92532 0
M  V30 957 N 88.686 -0.835752 -1.33615 0
M  V30 958 C 89.911 -0.442389 -2.02627 0
M  V30 959 C 90.336 0.947735 -1.62479 0
M  V30 960 O 89.694 1.61907 -0.815826 0
M  V30 961 C 89.742 -0.567216 -3.56111 0
M  V30 962 O 88.846 0.407799 -4.10379 0
M  V30 963 H 88.187 -0.180278 -0.639059 0
M  V30 964 H 90.717 -1.12972 -1.70583 0
M  V30 965 H 90.727 -0.447708 -4.05536 0
M  V30 966 H 89.402 -1.58103 -3.84677 0
M  V30 967 H 87.979 0.246107 -3.72087 0
M  V30 968 N 90.1641 1.46063 -0.591896 0
M  V30 969 C 91.4101 2.02638 -0.0811191 0
M  V30 970 C 91.7431 1.4613 1.27905 0
M  V30 971 O 91.0181 0.629908 1.84017 0
M  V30 972 C 91.3011 3.60091 -0.0252436 0
M  V30 973 C 91.1541 4.26965 -1.41496 0
M  V30 974 C 92.4731 4.3496 0.670685 0
M  V30 975 H 89.5921 0.73635 -0.0309524 0
M  V30 976 H 92.2341 1.741 -0.760859 0
M  V30 977 H 90.3841 3.84535 0.553624 0
M  V30 978 H 92.0561 4.13756 -2.0397 0
M  V30 979 H 90.2991 3.85971 -1.98011 0
M  V30 980 H 90.9701 5.35781 -1.32825 0
M  V30 981 H 93.4461 4.15716 0.178825 0
M  V30 982 H 92.3221 5.44686 0.678837 0
M  V30 983 H 92.5831 4.06685 1.73379 0
M  V30 984 N 91.6422 0.330177 1.54103 0
M  V30 985 C 92.8882 -0.270806 2.00984 0
M  V30 986 C 93.2212 -1.51265 1.21789 0
M  V30 987 O 92.4962 -1.92142 0.301927 0
M  V30 988 C 92.7792 -0.598339 3.55094 0
M  V30 989 C 92.6322 0.654674 4.4501 0
M  V30 990 C 93.9512 -1.41334 4.16789 0
M  V30 991 H 91.0702 -0.0969531 0.730595 0
M  V30 992 H 93.7122 0.448066 1.84641 0
M  V30 993 H 91.8622 -1.21078 3.69151 0
M  V30 994 H 93.5342 1.29285 4.42813 0
M  V30 995 H 91.7772 1.28224 4.14416 0
M  V30 996 H 92.4482 0.380944 5.50684 0
M  V30 997 H 94.9242 -0.895597 4.06347 0
M  V30 998 H 93.8002 -1.61127 5.24718 0
M  V30 999 H 94.0612 -2.41146 3.70541 0
M  V30 1000 N 93.1203 -1.57491 0.0584922 0
M  V30 1001 C 94.5363 -1.56792 -0.298091 0
M  V30 1002 C 94.7363 -1.06679 -1.70944 0
M  V30 1003 O 93.7923 -0.726672 -2.41818 0
M  V30 1004 C 95.1053 -3.00461 -0.119879 0
M  V30 1005 C 96.6533 -3.1242 -0.190428 0
M  V30 1006 C 97.1283 -4.57982 -0.0406567 0
M  V30 1007 N 98.6193 -4.63099 -0.0966958 0
M  V30 1008 C 99.3543 -5.734 -0.00502943 0
M  V30 1009 N 98.8503 -6.9266 0.139402 0
M  V30 1010 N 100.643 -5.62067 -0.0611391 0
M  V30 1011 H 92.7943 -1.88386 0.98105 0
M  V30 1012 H 95.0573 -0.867865 0.381463 0
M  V30 1013 H 94.7633 -3.41187 0.85349 0
M  V30 1014 H 94.6373 -3.66843 -0.877833 0
M  V30 1015 H 97.0243 -2.71589 -1.15427 0
M  V30 1016 H 97.1053 -2.48702 0.598405 0
M  V30 1017 H 96.7493 -4.995 0.919897 0
M  V30 1018 H 96.6793 -5.19715 -0.848727 0
M  V30 1019 H 99.1703 -3.77331 -0.207277 0
M  V30 1020 H 99.4833 -7.72536 0.201855 0
M  V30 1021 H 97.8283 -6.94781 0.174586 0
M  V30 1022 H 101.019 -4.67782 -0.172583 0
M  V30 1023 H 101.192 -6.47999 0.0137562 0
M  V30 1024 N 94.5984 0.214957 -1.56127 0
M  V30 1025 C 95.8444 0.939762 -1.79712 0
M  V30 1026 C 96.1774 1.83723 -0.629247 0
M  V30 1027 O 95.4524 1.90925 0.371197 0
M  V30 1028 C 95.7354 1.77306 -3.13424 0
M  V30 1029 C 95.5884 0.90164 -4.40671 0
M  V30 1030 C 96.9074 2.74956 -3.43638 0
M  V30 1031 H 94.0264 0.340214 -0.653776 0
M  V30 1032 H 96.6684 0.20824 -1.88855 0
M  V30 1033 H 94.8184 2.39673 -3.0576 0
M  V30 1034 H 96.4904 0.294206 -4.60361 0
M  V30 1035 H 94.7334 0.207368 -4.33304 0
M  V30 1036 H 95.4044 1.51923 -5.30682 0
M  V30 1037 H 97.8804 2.22724 -3.51473 0
M  V30 1038 H 96.7564 3.30358 -4.38355 0
M  V30 1039 H 97.0174 3.53023 -2.66134 0
M  V30 1040 N 96.0765 1.50051 0.48192 0
M  V30 1041 C 97.0065 1.71046 1.58951 0
M  V30 1042 C 97.9875 0.559288 1.60642 0
M  V30 1043 O 99.1725 0.797243 1.77081 0
M  V30 1044 C 96.3025 1.79462 2.97339 0
M  V30 1045 C 95.2565 2.94558 3.10515 0
M  V30 1046 C 94.5825 2.88105 4.50444 0
M  V30 1047 C 95.8825 4.35227 2.88747 0
M  V30 1048 H 97.5765 2.6378 1.41635 0
M  V30 1049 H 95.1225 1.26936 0.679942 0
M  V30 1050 H 97.0755 1.92734 3.74742 0
M  V30 1051 H 95.7995 0.833412 3.15788 0
M  V30 1052 H 94.4585 2.80918 2.35543 0
M  V30 1053 H 94.1065 1.89853 4.65795 0
M  V30 1054 H 93.8065 3.65366 4.60197 0
M  V30 1055 H 95.3305 3.03412 5.29881 0
M  V30 1056 H 96.7445 4.49449 3.55905 0
M  V30 1057 H 95.1415 5.13856 3.09955 0
M  V30 1058 H 96.2115 4.48347 1.84696 0
M  V30 1059 N 97.5546 -0.734337 1.39446 0
M  V30 1060 C 98.5016 -1.84835 1.38219 0
M  V30 1061 C 99.4716 -1.64331 0.24179 0
M  V30 1062 O 100.657 -1.85728 0.437002 0
M  V30 1063 C 97.7966 -3.22355 1.23212 0
M  V30 1064 C 96.9096 -3.5456 2.46801 0
M  V30 1065 C 96.0446 -4.81485 2.24377 0
M  V30 1066 C 95.0836 -5.06536 3.43639 0
M  V30 1067 N 94.2206 -6.24665 3.20528 0
M  V30 1068 H 99.0606 -1.85219 2.33448 0
M  V30 1069 H 96.5976 -0.905039 1.15963 0
M  V30 1070 H 98.5556 -4.0174 1.12522 0
M  V30 1071 H 97.1856 -3.21248 0.316121 0
M  V30 1072 H 96.2376 -2.69872 2.68092 0
M  V30 1073 H 97.5496 -3.6899 3.3563 0
M  V30 1074 H 96.7036 -5.68852 2.10933 0
M  V30 1075 H 95.4426 -4.6923 1.32944 0
M  V30 1076 H 94.4476 -4.17632 3.5758 0
M  V30 1077 H 95.6726 -5.20676 4.35974 0
M  V30 1078 H 93.6186 -6.13696 2.3176 0
M  V30 1079 H 93.5356 -6.39685 4.02913 0
M  V30 1080 H 94.8036 -7.14868 3.10779 0
M  V30 1081 N 99.0327 -1.24633 -0.964593 0
M  V30 1082 C 100.444 -1.08045 -1.5226 0
M  V30 1083 C 100.795 0.347116 -1.93105 0
M  V30 1084 O 99.9197 1.23588 -1.77637 0
M  V30 1085 C 100.515 -1.95514 -2.76695 0
M  V30 1086 C 99.0737 -1.8314 -3.28841 0
M  V30 1087 C 98.2207 -1.90262 -2.01732 0
M  V30 1088 H 101.172 -1.38064 -0.782553 0
M  V30 1089 H 101.193 -1.48925 -3.50145 0
M  V30 1090 H 100.705 -2.99407 -2.46936 0
M  V30 1091 H 98.8057 -0.82092 -3.63444 0
M  V30 1092 H 98.9187 -2.67406 -3.97531 0
M  V30 1093 H 97.2827 -1.34027 -2.16584 0
M  V30 1094 H 98.0657 -2.9574 -1.74334 0
M  V30 1095 N 100.511 1.16574 -1.06058 0
M  V30 1096 C 101.741 1.90675 -0.795397 0
M  V30 1097 C 102.149 1.77547 0.653735 0
M  V30 1098 O 101.492 1.11611 1.45907 0
M  V30 1099 C 101.554 3.42011 -1.10764 0
M  V30 1100 C 101.218 3.78924 -2.55471 0
M  V30 1101 C 102.215 3.81042 -3.53699 0
M  V30 1102 C 99.8998 4.09626 -2.90708 0
M  V30 1103 C 101.894 4.13346 -4.85205 0
M  V30 1104 C 99.5808 4.41597 -4.22416 0
M  V30 1105 C 100.579 4.43436 -5.19474 0
M  V30 1106 O 100.267 4.74649 -6.48817 0
M  V30 1107 H 99.9988 0.611554 -0.288058 0
M  V30 1108 H 102.553 1.48711 -1.41683 0
M  V30 1109 H 100.783 3.84312 -0.429128 0
M  V30 1110 H 102.472 3.97384 -0.827077 0
M  V30 1111 H 103.238 3.57437 -3.27817 0
M  V30 1112 H 99.1168 4.07361 -2.15819 0
M  V30 1113 H 102.661 4.14696 -5.60957 0
M  V30 1114 H 98.5578 4.64667 -4.48056 0
M  V30 1115 H 99.3258 4.9247 -6.5377 0
M  V30 1116 N 101.989 0.842826 1.3317 0
M  V30 1117 C 102.936 0.276885 2.29133 0
M  V30 1118 C 103.906 -0.609527 1.54512 0
M  V30 1119 O 105.091 -0.546955 1.82792 0
M  V30 1120 C 102.231 -0.538707 3.40869 0
M  V30 1121 C 101.344 0.372169 4.30394 0
M  V30 1122 C 100.479 -0.454908 5.29249 0
M  V30 1123 C 99.5179 0.45411 6.10413 0
M  V30 1124 N 98.6549 -0.335075 7.013 0
M  V30 1125 H 103.495 1.10052 2.76934 0
M  V30 1126 H 101.032 0.554161 1.36262 0
M  V30 1127 H 102.99 -1.02709 4.0436 0
M  V30 1128 H 101.62 -1.32727 2.9425 0
M  V30 1129 H 100.672 0.97888 3.6759 0
M  V30 1130 H 101.984 1.0703 4.87182 0
M  V30 1131 H 101.138 -1.00695 5.98285 0
M  V30 1132 H 99.8769 -1.18646 4.73048 0
M  V30 1133 H 98.8819 1.01813 5.40291 0
M  V30 1134 H 100.107 1.18409 6.68697 0
M  V30 1135 H 98.0529 -1.04994 6.47543 0
M  V30 1136 H 97.9699 0.304262 7.55387 0
M  V30 1137 H 99.2379 -0.869224 7.74638 0
M  V30 1138 N 103.467 -1.45747 0.599634 0
M  V30 1139 C 104.397 -2.33235 -0.111306 0
M  V30 1140 C 105.378 -1.46359 -0.866781 0
M  V30 1141 O 106.563 -1.75146 -0.838904 0
M  V30 1142 C 103.693 -3.28932 -1.11451 0
M  V30 1143 C 102.647 -4.25381 -0.472772 0
M  V30 1144 C 101.973 -5.1071 -1.58365 0
M  V30 1145 C 103.273 -5.18831 0.600948 0
M  V30 1146 H 104.967 -2.92927 0.61919 0
M  V30 1147 H 102.513 -1.40857 0.299215 0
M  V30 1148 H 104.466 -3.89002 -1.62036 0
M  V30 1149 H 103.19 -2.67381 -1.8755 0
M  V30 1150 H 101.849 -3.66598 0.0121472 0
M  V30 1151 H 101.497 -4.45533 -2.33473 0
M  V30 1152 H 101.197 -5.7604 -1.15982 0
M  V30 1153 H 102.721 -5.73647 -2.09194 0
M  V30 1154 H 104.135 -5.73019 0.179491 0
M  V30 1155 H 102.532 -5.92595 0.946076 0
M  V30 1156 H 103.602 -4.6174 1.48068 0
M  V30 1157 N 104.945 -0.338344 -1.53925 0
M  V30 1158 C 106.191 0.260143 -2.01125 0
M  V30 1159 C 106.524 1.50617 -1.22589 0
M  V30 1160 O 105.799 1.91979 -0.312113 0
M  V30 1161 C 106.082 0.579499 -3.55407 0
M  V30 1162 C 105.935 -0.678264 -4.44657 0
M  V30 1163 C 107.254 1.39122 -4.17532 0
M  V30 1164 H 104.373 0.0930772 -0.731099 0
M  V30 1165 H 107.015 -0.457852 -1.84401 0
M  V30 1166 H 105.165 1.19118 -3.69788 0
M  V30 1167 H 106.837 -1.31631 -4.42121 0
M  V30 1168 H 105.08 -1.3042 -4.13731 0
M  V30 1169 H 105.751 -0.410143 -5.50474 0
M  V30 1170 H 108.227 0.874035 -4.06817 0
M  V30 1171 H 107.103 1.58342 -5.25565 0
M  V30 1172 H 107.364 2.39178 -3.71815 0
M  V30 1173 N 106.423 1.57458 -0.0668435 0
M  V30 1174 C 107.648 1.9804 0.616027 0
M  V30 1175 C 108.073 0.944771 1.62652 0
M  V30 1176 O 107.431 -0.0902094 1.81075 0
M  V30 1177 C 107.479 3.37665 1.26549 0
M  V30 1178 O 106.583 3.36701 2.38131 0
M  V30 1179 H 105.924 0.644719 0.158849 0
M  V30 1180 H 108.454 2.04121 -0.139891 0
M  V30 1181 H 108.464 3.7474 1.6135 0
M  V30 1182 H 107.139 4.12573 0.525016 0
M  V30 1183 H 105.716 3.1139 2.0516 0
M  V30 1184 N 107.901 -0.206675 1.56239 0
M  V30 1185 C 109.317 -0.557025 1.49564 0
M  V30 1186 C 109.517 -1.86424 0.764735 0
M  V30 1187 O 108.573 -2.50584 0.310491 0
M  V30 1188 C 109.886 -0.622478 2.94186 0
M  V30 1189 C 111.434 -0.712099 3.04792 0
M  V30 1190 C 111.909 -0.808767 4.50803 0
M  V30 1191 N 113.4 -0.8726 4.54907 0
M  V30 1192 C 114.135 -0.967365 5.65181 0
M  V30 1193 N 113.631 -1.02515 6.85173 0
M  V30 1194 N 115.424 -1.00366 5.53067 0
M  V30 1195 H 107.575 0.650943 2.02179 0
M  V30 1196 H 109.838 0.230387 0.919579 0
M  V30 1197 H 109.544 0.268727 3.50672 0
M  V30 1198 H 109.418 -1.4811 3.46905 0
M  V30 1199 H 111.805 -1.59374 2.48363 0
M  V30 1200 H 111.886 0.172489 2.55218 0
M  V30 1201 H 111.53 0.0684754 5.07854 0
M  V30 1202 H 111.46 -1.70899 4.98098 0
M  V30 1203 H 113.951 -0.837657 3.68499 0
M  V30 1204 H 114.264 -1.09765 7.64965 0
M  V30 1205 H 112.609 -0.994026 6.87855 0
M  V30 1206 H 115.8 -0.95527 4.58249 0
M  V30 1207 H 115.973 -1.07405 6.39037 0
M  V30 1208 N 109.379 -1.50304 -0.473955 0
M  V30 1209 C 110.289 -1.7174 -1.5982 0
M  V30 1210 C 111.305 -0.600457 -1.63311 0
M  V30 1211 O 112.481 -0.878441 -1.81233 0
M  V30 1212 C 109.546 -1.80427 -2.96052 0
M  V30 1213 C 108.607 -3.04148 -3.02972 0
M  V30 1214 C 107.84 -3.12411 -4.32706 0
M  V30 1215 O 108.063 -2.27542 -5.23049 0
M  V30 1216 O 106.997 -4.05113 -4.45159 0
M  V30 1217 H 110.823 -2.67035 -1.44657 0
M  V30 1218 H 108.408 -1.34366 -0.653148 0
M  V30 1219 H 110.29 -1.88338 -3.7697 0
M  V30 1220 H 108.965 -0.883156 -3.11419 0
M  V30 1221 H 107.872 -3.0174 -2.21142 0
M  V30 1222 H 109.205 -3.95829 -2.92541 0
M  V30 1223 N 110.857 0.726932 -1.39834 0
M  V30 1224 C 112.104 1.48664 -1.37496 0
M  V30 1225 C 112.432 1.94482 0.0264678 0
M  V30 1226 O 111.687 1.67692 1.00886 0
M  V30 1227 C 111.986 2.73495 -2.30077 0
M  V30 1228 C 111.652 2.46502 -3.77555 0
M  V30 1229 C 110.314 2.3885 -4.17737 0
M  V30 1230 C 112.666 2.23604 -4.70798 0
M  V30 1231 C 109.994 2.06352 -5.49214 0
M  V30 1232 C 112.346 1.92622 -6.02561 0
M  V30 1233 C 111.01 1.83444 -6.41798 0
M  V30 1234 H 110.28 0.544001 -0.503135 0
M  V30 1235 H 112.927 0.833657 -1.72402 0
M  V30 1236 H 111.232 3.43575 -1.88317 0
M  V30 1237 H 112.929 3.31549 -2.25558 0
M  V30 1238 H 109.519 2.5334 -3.45712 0
M  V30 1239 H 113.703 2.28479 -4.40581 0
M  V30 1240 H 108.959 1.97776 -5.78528 0
M  V30 1241 H 113.133 1.73914 -6.74334 0
M  V30 1242 H 110.76 1.58029 -7.43593 0
M  V30 1243 N 112.336 1.25143 0.95797 0
M  V30 1244 C 113.286 1.01924 2.0395 0
M  V30 1245 C 114.27 -0.0427175 1.60843 0
M  V30 1246 O 115.462 0.17221 1.7616 0
M  V30 1247 C 112.591 0.636373 3.3735 0
M  V30 1248 C 111.677 1.73492 3.8699 0
M  V30 1249 N 112.068 2.96945 4.0946 0
M  V30 1250 C 110.366 1.61467 4.15746 0
M  V30 1251 C 111.067 3.68228 4.50315 0
M  V30 1252 N 110.043 2.95833 4.56053 0
M  V30 1253 H 113.845 1.95653 2.19311 0
M  V30 1254 H 111.359 1.15413 1.14253 0
M  V30 1255 H 113.356 0.451233 4.14451 0
M  V30 1256 H 112.016 -0.293621 3.2337 0
M  V30 1257 H 113.027 3.33025 3.96629 0
M  V30 1258 H 109.704 0.753394 4.10646 0
M  V30 1259 H 111.094 4.74178 4.76031 0
M  V30 1260 N 113.814 -1.1601 1.06675 0
M  V30 1261 C 115.225 -1.68235 0.809565 0
M  V30 1262 C 115.576 -1.8454 -0.666303 0
M  V30 1263 O 114.701 -1.54374 -1.5165 0
M  V30 1264 C 115.296 -3.05585 1.46299 0
M  V30 1265 C 113.855 -3.54915 1.25349 0
M  V30 1266 C 113.002 -2.30804 1.53703 0
M  V30 1267 H 115.953 -1.00318 1.22971 0
M  V30 1268 H 115.974 -3.70174 0.880431 0
M  V30 1269 H 115.486 -2.93686 2.53713 0
M  V30 1270 H 113.587 -3.72067 0.199261 0
M  V30 1271 H 113.7 -4.36774 1.9689 0
M  V30 1272 H 112.064 -2.36007 0.957739 0
M  V30 1273 H 112.847 -2.21499 2.62284 0
M  V30 1274 N 115.292 -0.849877 -1.32721 0
M  V30 1275 C 116.202 -0.293791 -2.32753 0
M  V30 1276 C 117.218 0.585906 -1.63839 0
M  V30 1277 O 118.394 0.487413 -1.95413 0
M  V30 1278 C 115.459 0.512752 -3.42887 0
M  V30 1279 C 114.52 -0.39252 -4.27502 0
M  V30 1280 C 113.753 0.375625 -5.32377 0
M  V30 1281 O 113.976 1.60613 -5.4732 0
M  V30 1282 O 112.91 -0.256094 -6.01355 0
M  V30 1283 H 116.736 -1.12242 -2.82197 0
M  V30 1284 H 114.321 -0.612685 -1.36259 0
M  V30 1285 H 116.203 0.970704 -4.10067 0
M  V30 1286 H 114.878 1.31826 -2.95641 0
M  V30 1287 H 113.785 -0.898547 -3.63149 0
M  V30 1288 H 115.118 -1.16309 -4.7826 0
M  V30 1289 N 116.77 1.45427 -0.607355 0
M  V30 1290 C 118.047 1.9557 -0.0344566 0
M  V30 1291 C 118.427 1.54979 1.43334 0
M  V30 1292 O 117.775 0.812241 2.13576 0
M  V30 1293 C 117.985 3.48226 -0.232321 0
M  V30 1294 C 119.333 4.2445 -0.113001 0
M  V30 1295 O 120.357 3.55829 -0.162431 0
M  V30 1296 O 119.216 5.465 0.00209442 0
M  V30 1297 H 116.31 0.826222 0.0358667 0
M  V30 1298 H 118.856 1.55594 -0.6774 0
M  V30 1299 H 117.628 3.70739 -1.25174 0
M  V30 1300 H 117.251 3.95092 0.445896 0
M  V30 1301 N 118.248 0.346503 1.53744 0
M  V30 1302 C 119.476 -0.25041 2.05379 0
M  V30 1303 C 119.891 -1.43979 1.22129 0
M  V30 1304 O 119.248 -1.80677 0.257321 0
M  V30 1305 C 119.299 -0.662575 3.55376 0
M  V30 1306 O 119.02 0.479515 4.35468 0
M  V30 1307 C 120.521 -1.31989 4.23195 0
M  V30 1308 H 117.741 -0.0478198 0.669294 0
M  V30 1309 H 120.285 0.499346 1.9831 0
M  V30 1310 H 118.44 -1.36227 3.62658 0
M  V30 1311 H 118.854 0.15037 5.24284 0
M  V30 1312 H 120.328 -1.55902 5.29527 0
M  V30 1313 H 120.805 -2.27436 3.75725 0
M  V30 1314 H 121.411 -0.662154 4.20114 0
M  V30 1315 N 119.726 -1.57421 0.075193 0
M  V30 1316 C 120.972 -1.93905 -0.594025 0
M  V30 1317 C 121.305 -0.955701 -1.69056 0
M  V30 1318 O 120.58 0.0145373 -1.94495 0
M  V30 1319 C 120.863 -3.40638 -1.1678 0
M  V30 1320 C 120.716 -4.49733 -0.0776792 0
M  V30 1321 C 122.035 -3.88259 -2.07228 0
M  V30 1322 H 119.154 -0.705105 -0.214466 0
M  V30 1323 H 121.796 -1.8947 0.141854 0
M  V30 1324 H 119.946 -3.44549 -1.79494 0
M  V30 1325 H 121.618 -4.57942 0.555573 0
M  V30 1326 H 119.861 -4.29751 0.591286 0
M  V30 1327 H 120.532 -5.49549 -0.519603 0
M  V30 1328 H 123.008 -3.86376 -1.54445 0
M  V30 1329 H 121.884 -4.91533 -2.44308 0
M  V30 1330 H 122.145 -3.26396 -2.98191 0
M  V30 1331 N 121.204 0.198386 -1.56346 0
M  V30 1332 C 122.453 0.917451 -1.79627 0
M  V30 1333 C 122.766 1.8456 -0.64784 0
M  V30 1334 O 123.972 2.60504 -0.764859 0
M  V30 1335 C 122.428 1.68175 -3.18191 0
M  V30 1336 C 122.036 0.798589 -4.40825 0
M  V30 1337 C 123.78 2.39065 -3.50782 0
M  V30 1338 C 121.687 1.56157 -5.70411 0
M  V30 1339 H 120.617 0.346317 -0.669762 0
M  V30 1340 H 123.268 0.170801 -1.82703 0
M  V30 1341 H 121.65 2.47216 -3.09354 0
M  V30 1342 H 122.824 0.0470665 -4.60776 0
M  V30 1343 H 121.139 0.200686 -4.15916 0
M  V30 1344 H 123.736 2.96692 -4.44835 0
M  V30 1345 H 124.079 3.13091 -2.74371 0
M  V30 1346 H 124.612 1.66993 -3.61052 0
M  V30 1347 H 121.351 0.864142 -6.49779 0
M  V30 1348 H 120.871 2.2871 -5.54483 0
M  V30 1349 H 122.55 2.11622 -6.11412 0
M  V30 1350 N 122.682 1.50554 0.465978 0
M  V30 1351 C 123.959 1.5232 1.22712 0
M  V30 1352 C 124.339 0.270807 2.09356 0
M  V30 1353 O 123.687 -0.745541 2.15995 0
M  V30 1354 C 123.897 2.82175 2.05374 0
M  V30 1355 C 125.245 3.33033 2.6339 0
M  V30 1356 O 126.269 2.83531 2.15612 0
M  V30 1357 O 125.128 4.19336 3.50456 0
M  V30 1358 H 122.222 0.611183 0.557122 0
M  V30 1359 H 124.768 1.62847 0.477381 0
M  V30 1360 H 123.54 3.64797 1.41558 0
M  V30 1361 H 123.163 2.74675 2.87471 0
M  V30 1362 N 124.16 -0.719506 1.40217 0
M  V30 1363 C 125.09 -1.8465 1.42922 0
M  V30 1364 C 126.071 -1.67599 0.29062 0
M  V30 1365 O 127.256 -1.87688 0.498677 0
M  V30 1366 C 124.386 -3.22565 1.28722 0
M  V30 1367 C 123.34 -3.54281 2.40144 0
M  V30 1368 C 122.666 -4.91298 2.11023 0
M  V30 1369 C 123.966 -3.55676 3.82481 0
M  V30 1370 H 125.66 -1.82644 2.37237 0
M  V30 1371 H 123.206 -0.877305 1.1419 0
M  V30 1372 H 125.159 -4.01095 1.29232 0
M  V30 1373 H 123.883 -3.25137 0.308811 0
M  V30 1374 H 122.542 -2.78088 2.38877 0
M  V30 1375 H 122.19 -4.90468 1.11582 0
M  V30 1376 H 121.89 -5.13485 2.8567 0
M  V30 1377 H 123.414 -5.72166 2.13209 0
M  V30 1378 H 124.828 -4.24254 3.85592 0
M  V30 1379 H 123.225 -3.89388 4.56614 0
M  V30 1380 H 124.295 -2.55144 4.12346 0
M  V30 1381 N 125.638 -1.25649 -0.95132 0
M  V30 1382 C 126.886 -1.10375 -1.69298 0
M  V30 1383 C 127.207 0.355339 -1.91735 0
M  V30 1384 O 126.477 1.25188 -1.50681 0
M  V30 1385 H 125.057 -0.405461 -0.627384 0
M  V30 1386 H 127.719 -1.57823 -1.14358 0
M  V30 1387 H 126.815 -1.61465 -2.67087 0
M  V30 1388 N 127.117 1.15442 -1.07289 0
M  V30 1389 C 128.394 1.82306 -0.708792 0
M  V30 1390 C 128.774 1.94991 0.808807 0
M  V30 1391 O 128.122 1.50085 1.72298 0
M  V30 1392 C 128.332 3.18695 -1.42247 0
M  V30 1393 C 129.68 3.94341 -1.57417 0
M  V30 1394 O 130.704 3.28247 -1.38319 0
M  V30 1395 O 129.563 5.12839 -1.88834 0
M  V30 1396 H 126.657 0.787628 -0.252132 0
M  V30 1397 H 129.203 1.22559 -1.17377 0
M  V30 1398 H 127.975 3.04557 -2.45684 0
M  V30 1399 H 127.598 3.86128 -0.948223 0
M  V30 1400 N 128.595 0.856903 1.32268 0
M  V30 1401 C 129.841 0.462069 1.97466 0
M  V30 1402 C 130.174 -0.980298 1.67642 0
M  V30 1403 O 129.449 -1.68824 0.965858 0
M  V30 1404 C 129.732 0.704336 3.53145 0
M  V30 1405 C 129.585 2.19529 3.9259 0
M  V30 1406 C 130.904 0.1622 4.39801 0
M  V30 1407 H 128.023 0.169357 0.717278 0
M  V30 1408 H 130.665 1.07574 1.56614 0
M  V30 1409 H 128.815 0.181999 3.88073 0
M  V30 1410 H 130.487 2.78387 3.67829 0
M  V30 1411 H 128.73 2.67292 3.41668 0
M  V30 1412 H 129.401 2.31549 5.01088 0
M  V30 1413 H 131.877 0.608905 4.11621 0
M  V30 1414 H 130.753 0.361265 5.4771 0
M  V30 1415 H 131.014 -0.935158 4.32096 0
M  V30 1416 N 130.073 -1.45103 0.615059 0
M  V30 1417 C 131.02 -2.30586 -0.0993978 0
M  V30 1418 C 131.99 -1.42544 -0.852669 0
M  V30 1419 O 133.175 -1.71465 -0.836917 0
M  V30 1420 C 130.315 -3.27572 -1.08583 0
M  V30 1421 C 129.428 -4.30717 -0.332656 0
M  V30 1422 C 128.563 -5.14807 -1.30947 0
M  V30 1423 C 127.602 -6.09673 -0.544538 0
M  V30 1424 N 126.739 -6.86517 -1.47101 0
M  V30 1425 H 131.579 -2.91144 0.635542 0
M  V30 1426 H 129.116 -1.4346 0.325206 0
M  V30 1427 H 131.074 -3.82276 -1.67095 0
M  V30 1428 H 129.704 -2.68751 -1.78809 0
M  V30 1429 H 128.756 -3.78615 0.368107 0
M  V30 1430 H 130.068 -4.98102 0.263842 0
M  V30 1431 H 129.222 -5.73948 -1.96643 0
M  V30 1432 H 127.961 -4.47458 -1.9399 0
M  V30 1433 H 126.966 -5.49656 0.126003 0
M  V30 1434 H 128.191 -6.79052 0.080947 0
M  V30 1435 H 126.137 -6.21851 -2.08895 0
M  V30 1436 H 126.054 -7.50281 -0.928137 0
M  V30 1437 H 127.322 -7.50194 -2.11731 0
M  V30 1438 N 131.551 -0.354651 -1.53558 0
M  V30 1439 C 132.8 0.239504 -2.00273 0
M  V30 1440 C 133.113 1.50759 -1.24623 0
M  V30 1441 O 134.319 2.17968 -1.61871 0
M  V30 1442 C 132.775 0.477341 -3.5672 0
M  V30 1443 C 132.383 -0.775488 -4.41237 0
M  V30 1444 C 134.127 1.02975 -4.11821 0
M  V30 1445 C 132.034 -0.507838 -5.89216 0
M  V30 1446 H 130.964 0.0932743 -0.748208 0
M  V30 1447 H 133.615 -0.471701 -1.77334 0
M  V30 1448 H 131.997 1.24953 -3.7577 0
M  V30 1449 H 133.171 -1.54963 -4.33962 0
M  V30 1450 H 131.486 -1.25033 -3.97185 0
M  V30 1451 H 134.083 1.24513 -5.2 0
M  V30 1452 H 134.426 1.98862 -3.65731 0
M  V30 1453 H 134.959 0.317994 -3.96527 0
M  V30 1454 H 131.698 -1.43674 -6.39561 0
M  V30 1455 H 131.218 0.228011 -5.99366 0
M  V30 1456 H 132.897 -0.129238 -6.46871 0
M  V30 1457 N 133.029 1.57378 -0.0835403 0
M  V30 1458 C 134.277 1.93547 0.581718 0
M  V30 1459 C 134.598 0.96524 1.69435 0
M  V30 1460 O 133.868 0.0153369 1.95894 0
M  V30 1461 H 132.448 0.714521 0.217874 0
M  V30 1462 H 135.11 1.94366 -0.144158 0
M  V30 1463 H 134.206 2.95665 0.999423 0
M  V30 1464 N 134.507 -0.190092 1.56449 0
M  V30 1465 C 135.455 -1.25501 1.95837 0
M  V30 1466 C 136.449 -1.4685 0.844485 0
M  V30 1467 O 137.655 -1.47651 1.02952 0
M  V30 1468 H 134.03 -0.421447 0.622805 0
M  V30 1469 H 136.001 -0.895821 2.84636 0
M  V30 1470 C 134.75 -2.59124 2.31841 0
M  V30 1471 H 134.073 -2.43514 3.17082 0
M  V30 1472 H 135.513 -3.32371 2.6326 0
M  V30 1473 C 133.972 -3.16488 1.15486 0
M  V30 1474 O 134.502 -3.99365 0.432535 0
M  V30 1475 N 132.708 -2.75305 0.930349 0
M  V30 1476 H 132.255 -2.08013 1.51948 0
M  V30 1477 H 132.213 -3.14024 0.153634 0
M  V30 1478 N 135.985 -1.50799 -0.457987 0
M  V30 1479 C 137.233 -1.62121 -1.2067 0
M  V30 1480 C 137.554 -0.329793 -1.92191 0
M  V30 1481 O 136.824 0.653409 -1.84682 0
M  V30 1482 H 135.404 -0.597441 -0.448411 0
M  V30 1483 H 138.066 -1.87637 -0.527096 0
M  V30 1484 H 137.162 -2.43882 -1.94751 0
M  V30 1485 N 137.463 0.71206 -1.40597 0
M  V30 1486 C 138.693 1.49894 -1.42181 0
M  V30 1487 C 139.101 1.89189 -0.0208078 0
M  V30 1488 O 138.444 1.56223 0.966436 0
M  V30 1489 C 138.506 2.80215 -2.25211 0
M  V30 1490 C 138.17 2.63221 -3.73582 0
M  V30 1491 C 139.167 2.30249 -4.66135 0
M  V30 1492 C 136.852 2.79376 -4.17438 0
M  V30 1493 C 138.846 2.13645 -6.00529 0
M  V30 1494 C 136.533 2.6239 -5.51901 0
M  V30 1495 C 137.531 2.29573 -6.43262 0
M  V30 1496 O 137.219 2.12719 -7.75246 0
M  V30 1497 H 136.951 0.469031 -0.486812 0
M  V30 1498 H 139.505 0.88564 -1.85326 0
M  V30 1499 H 137.735 3.4389 -1.76852 0
M  V30 1500 H 139.424 3.41947 -2.18694 0
M  V30 1501 H 140.19 2.17398 -4.33547 0
M  V30 1502 H 136.069 3.03906 -3.46644 0
M  V30 1503 H 139.613 1.87953 -6.71803 0
M  V30 1504 H 135.51 2.74826 -5.84073 0
M  V30 1505 H 136.278 2.27611 -7.86216 0
M  V30 1506 N 138.941 1.26152 0.944643 0
M  V30 1507 C 140.188 1.11492 1.69044 0
M  V30 1508 C 140.516 -0.342366 1.91463 0
M  V30 1509 O 139.771 -1.26812 1.49054 0
M  V30 1510 C 140.07 1.82541 3.07268 0
M  V30 1511 C 139.736 3.32445 3.04616 0
M  V30 1512 C 138.398 3.73337 3.036 0
M  V30 1513 C 140.75 4.28171 2.97185 0
M  V30 1514 C 138.078 5.08348 2.92915 0
M  V30 1515 C 140.43 5.63218 2.88041 0
M  V30 1516 C 139.094 6.03426 2.85366 0
M  V30 1517 H 138.364 0.407977 0.618576 0
M  V30 1518 H 141.011 1.56551 1.10291 0
M  V30 1519 H 139.316 1.29941 3.69625 0
M  V30 1520 H 141.013 1.68642 3.63815 0
M  V30 1521 H 137.603 2.99915 3.06185 0
M  V30 1522 H 141.787 3.97563 2.97081 0
M  V30 1523 H 137.043 5.38667 2.89219 0
M  V30 1524 H 141.217 6.37078 2.81254 0
M  V30 1525 H 138.844 7.07999 2.76842 0
M  V30 1526 N 140.419 -1.14872 1.07899 0
M  V30 1527 C 141.647 -1.89661 0.82683 0
M  V30 1528 C 142.062 -1.78312 -0.620519 0
M  V30 1529 O 141.419 -1.13888 -1.42604 0
M  V30 1530 C 141.47 -3.39817 1.23316 0
M  V30 1531 O 141.191 -3.50845 2.62372 0
M  V30 1532 C 142.692 -4.31615 1.0111 0
M  V30 1533 H 139.912 -0.60092 0.298557 0
M  V30 1534 H 142.456 -1.4551 1.43691 0
M  V30 1535 H 140.611 -3.8161 0.667286 0
M  V30 1536 H 141.025 -4.44076 2.79101 0
M  V30 1537 H 142.499 -5.35367 1.34486 0
M  V30 1538 H 142.976 -4.39169 -0.0522168 0
M  V30 1539 H 143.582 -3.95572 1.56215 0
M  V30 1540 N 141.898 -0.863906 -1.31812 0
M  V30 1541 C 143.147 -0.46801 -1.96195 0
M  V30 1542 C 143.46 0.983474 -1.69077 0
M  V30 1543 O 144.666 1.48523 -2.27273 0
M  V30 1544 C 143.122 -0.785995 -3.51212 0
M  V30 1545 C 142.73 -2.25383 -3.87178 0
M  V30 1546 C 144.474 -0.458274 -4.22019 0
M  V30 1547 C 142.381 -2.51455 -5.3528 0
M  V30 1548 H 141.311 -0.171283 -0.734287 0
M  V30 1549 H 143.962 -1.05597 -1.50072 0
M  V30 1550 H 142.344 -0.127359 -3.95795 0
M  V30 1551 H 143.518 -2.95502 -3.53575 0
M  V30 1552 H 141.833 -2.54698 -3.2942 0
M  V30 1553 H 144.43 -0.630369 -5.30971 0
M  V30 1554 H 144.773 0.600834 -4.11941 0
M  V30 1555 H 145.306 -1.07319 -3.8305 0
M  V30 1556 H 142.045 -3.56025 -5.50387 0
M  V30 1557 H 141.565 -1.85923 -5.70257 0
M  V30 1558 H 143.244 -2.35874 -6.02472 0
M  V30 1559 N 143.376 1.44774 -0.622745 0
M  V30 1560 C 144.625 2.01334 -0.121397 0
M  V30 1561 C 144.938 1.49505 1.26125 0
M  V30 1562 O 146.144 1.98139 1.85616 0
M  V30 1563 C 144.6 3.59516 -0.166298 0
M  V30 1564 C 144.208 4.20342 -1.54974 0
M  V30 1565 C 145.952 4.23582 0.279021 0
M  V30 1566 C 143.859 5.70721 -1.55021 0
M  V30 1567 H 142.789 0.752851 -0.0416172 0
M  V30 1568 H 145.44 1.66083 -0.780309 0
M  V30 1569 H 143.822 3.92027 0.559557 0
M  V30 1570 H 144.996 3.99381 -2.29851 0
M  V30 1571 H 143.311 3.68529 -1.93843 0
M  V30 1572 H 145.908 5.33868 0.298083 0
M  V30 1573 H 146.251 3.95327 1.30471 0
M  V30 1574 H 146.784 3.95843 -0.394063 0
M  V30 1575 H 143.523 6.03698 -2.55399 0
M  V30 1576 H 143.043 5.93829 -0.844245 0
M  V30 1577 H 144.722 6.34203 -1.28047 0
M  V30 1578 N 144.854 0.36279 1.53368 0
M  V30 1579 C 145.817 -0.472679 2.24273 0
M  V30 1580 C 146.817 -1.012 1.24961 0
M  V30 1581 O 148.007 -0.898194 1.49259 0
M  V30 1582 C 145.139 -1.66039 2.97731 0
M  V30 1583 H 146.332 0.14773 2.99536 0
M  V30 1584 H 143.885 0.114434 1.55881 0
M  V30 1585 H 144.62 -2.31896 2.26704 0
M  V30 1586 H 144.405 -1.28066 3.70596 0
M  V30 1587 H 145.895 -2.25252 3.51641 0
M  V30 1588 N 146.332 -1.57332 0.0918853 0
M  V30 1589 C 147.58 -1.93853 -0.571446 0
M  V30 1590 C 147.901 -0.974212 -1.6892 0
M  V30 1591 O 147.171 -0.0257254 -1.95883 0
M  V30 1592 H 145.751 -0.715666 -0.214082 0
M  V30 1593 H 148.413 -1.94287 0.154464 0
M  V30 1594 H 147.509 -2.96191 -0.983729 0
M  V30 1595 N 147.81 0.181792 -1.56548 0
M  V30 1596 C 149.221 0.745244 -1.71181 0
M  V30 1597 C 149.572 1.83262 -0.70068 0
M  V30 1598 O 148.697 2.15946 0.140154 0
M  V30 1599 C 149.292 1.35859 -3.10367 0
M  V30 1600 C 147.851 1.86898 -3.2672 0
M  V30 1601 C 146.998 0.743942 -2.67134 0
M  V30 1602 H 149.949 -0.0434661 -1.5864 0
M  V30 1603 H 149.97 2.22817 -3.08436 0
M  V30 1604 H 149.482 0.566948 -3.83937 0
M  V30 1605 H 147.583 2.68738 -2.5809 0
M  V30 1606 H 147.696 2.02162 -4.34359 0
M  V30 1607 H 146.06 1.16169 -2.26665 0
M  V30 1608 H 146.843 -0.035676 -3.43281 0
M  V30 1609 N 149.288 1.51039 0.449983 0
M  V30 1610 C 150.528 1.64732 1.21007 0
M  V30 1611 C 150.892 0.349865 1.88785 0
M  V30 1612 O 152.093 0.362431 2.66345 0
M  V30 1613 C 150.364 2.80902 2.20973 0
M  V30 1614 S 151.923 3.14851 3.05638 0
M  V30 1615 H 148.741 0.5805 0.410538 0
M  V30 1616 H 151.343 1.88901 0.503634 0
M  V30 1617 H 150.047 3.73627 1.69796 0
M  V30 1618 H 149.578 2.58882 2.96215 0
M  V30 1619 H 151.593 2.60306 4.22439 0
M  V30 1620 N 150.766 -0.704594 1.40972 0
M  V30 1621 C 151.991 -1.49858 1.43378 0
M  V30 1622 C 152.416 -1.88061 0.038184 0
M  V30 1623 O 151.774 -1.5402 -0.956425 0
M  V30 1624 C 151.822 -2.74333 2.34038 0
M  V30 1625 O 150.926 -3.7147 1.7912 0
M  V30 1626 H 150.267 -0.45139 0.486974 0
M  V30 1627 H 152.797 -0.866832 1.8533 0
M  V30 1628 H 152.807 -3.22741 2.49604 0
M  V30 1629 H 151.482 -2.45863 3.35446 0
M  V30 1630 H 150.059 -3.30363 1.72958 0
M  V30 1631 N 152.244 -1.26651 -0.937939 0
M  V30 1632 C 153.49 -1.12553 -1.687 0
M  V30 1633 C 153.823 0.329782 -1.91379 0
M  V30 1634 O 153.098 1.24202 -1.4968 0
M  V30 1635 C 153.381 -1.89862 -3.05981 0
M  V30 1636 C 153.234 -3.43318 -2.90607 0
M  V30 1637 C 154.553 -1.69499 -4.0615 0
M  V30 1638 H 151.672 -0.410257 -0.612257 0
M  V30 1639 H 154.314 -1.55685 -1.08913 0
M  V30 1640 H 152.464 -1.53204 -3.57017 0
M  V30 1641 H 154.136 -3.89747 -2.46769 0
M  V30 1642 H 152.379 -3.70179 -2.26164 0
M  V30 1643 H 153.05 -3.92642 -3.8799 0
M  V30 1644 H 155.526 -2.01442 -3.64088 0
M  V30 1645 H 154.402 -2.26002 -5.00214 0
M  V30 1646 H 154.663 -0.640365 -4.37438 0
M  V30 1647 N 153.722 1.14298 -1.08507 0
M  V30 1648 C 154.632 2.23027 -0.727753 0
M  V30 1649 C 155.648 1.71952 0.26619 0
M  V30 1650 O 156.824 2.011 0.109882 0
M  V30 1651 C 153.889 3.46403 -0.143541 0
M  V30 1652 C 152.95 4.12413 -1.19223 0
M  V30 1653 C 152.183 5.29899 -0.635798 0
M  V30 1654 O 152.406 5.67796 0.544393 0
M  V30 1655 O 151.34 5.85717 -1.38634 0
M  V30 1656 H 155.166 2.55945 -1.63481 0
M  V30 1657 H 152.751 1.22248 -0.858817 0
M  V30 1658 H 154.633 4.21018 0.179404 0
M  V30 1659 H 153.308 3.15206 0.736659 0
M  V30 1660 H 152.215 3.39667 -1.56772 0
M  V30 1661 H 153.548 4.47718 -2.04474 0
M  V30 1662 N 155.201 0.870884 1.31352 0
M  V30 1663 C 156.449 0.48132 1.96285 0
M  V30 1664 C 156.77 -0.969813 1.69173 0
M  V30 1665 O 156.04 -1.67998 1.00764 0
M  V30 1666 H 154.62 0.175002 0.726212 0
M  V30 1667 H 157.282 1.11087 1.60143 0
M  V30 1668 H 156.378 0.639825 3.05471 0
M  V30 1669 N 156.679 -1.44442 0.630414 0
M  V30 1670 C 158.095 -1.56832 0.295973 0
M  V30 1671 C 158.295 -1.61806 -1.20088 0
M  V30 1672 O 157.351 -1.5607 -1.9849 0
M  V30 1673 C 158.664 -2.84031 0.987264 0
M  V30 1674 C 160.212 -2.97742 0.96534 0
M  V30 1675 C 160.687 -4.27743 1.63708 0
M  V30 1676 N 162.178 -4.34555 1.60364 0
M  V30 1677 C 162.913 -5.33862 2.09234 0
M  V30 1678 N 162.409 -6.39578 2.66292 0
M  V30 1679 N 164.202 -5.25366 1.99867 0
M  V30 1680 H 156.353 -1.39457 1.60205 0
M  V30 1681 H 158.616 -0.668237 0.672431 0
M  V30 1682 H 158.322 -2.86338 2.04215 0
M  V30 1683 H 158.196 -3.73534 0.524588 0
M  V30 1684 H 160.583 -2.94989 -0.0810639 0
M  V30 1685 H 160.664 -2.09589 1.4665 0
M  V30 1686 H 160.308 -4.31255 2.68293 0
M  V30 1687 H 160.238 -5.14752 1.11076 0
M  V30 1688 H 162.729 -3.58772 1.18705 0
M  V30 1689 H 163.042 -7.11637 3.01317 0
M  V30 1690 H 161.387 -6.40265 2.70343 0
M  V30 1691 H 164.578 -4.41688 1.55013 0
M  V30 1692 H 164.751 -6.02606 2.38265 0
M  V30 1693 N 158.157 -0.370918 -1.53173 0
M  V30 1694 C 159.067 0.480823 -2.2962 0
M  V30 1695 C 160.083 1.08789 -1.35798 0
M  V30 1696 O 161.259 1.09768 -1.68858 0
M  V30 1697 C 158.324 1.60227 -3.07454 0
M  V30 1698 C 157.385 1.0222 -4.16953 0
M  V30 1699 C 156.618 2.0902 -4.91066 0
M  V30 1700 O 156.841 3.30222 -4.65091 0
M  V30 1701 O 155.775 1.71778 -5.76867 0
M  V30 1702 H 159.601 -0.141421 -3.03371 0
M  V30 1703 H 157.186 -0.135146 -1.48787 0
M  V30 1704 H 159.068 2.25417 -3.56041 0
M  V30 1705 H 157.743 2.20982 -2.36535 0
M  V30 1706 H 156.65 0.334064 -3.72605 0
M  V30 1707 H 157.983 0.459131 -4.90054 0
M  V30 1708 N 159.635 1.57281 -0.100228 0
M  V30 1709 C 160.568 2.09976 0.893612 0
M  V30 1710 C 161.546 1.01155 1.27304 0
M  V30 1711 O 162.73 1.28687 1.37739 0
M  V30 1712 C 159.857 2.58098 2.19324 0
M  V30 1713 C 158.903 3.78626 1.96328 0
M  V30 1714 S 159.736 5.21959 1.19662 0
M  V30 1715 C 160.892 5.73435 2.50844 0
M  V30 1716 H 161.125 2.93946 0.44534 0
M  V30 1717 H 158.658 1.53985 0.113167 0
M  V30 1718 H 160.616 2.8648 2.94005 0
M  V30 1719 H 159.277 1.74344 2.61272 0
M  V30 1720 H 158.47 4.10382 2.92579 0
M  V30 1721 H 158.072 3.50763 1.29775 0
M  V30 1722 H 160.364 5.82015 3.46792 0
M  V30 1723 H 161.307 6.7185 2.23659 0
M  V30 1724 H 161.715 5.01395 2.59352 0
M  V30 1725 N 161.113 -0.173488 1.56642 0
M  V30 1726 C 162.043 -1.2171 1.99271 0
M  V30 1727 C 163.024 -1.46289 0.867959 0
M  V30 1728 O 164.209 -1.5766 1.13388 0
M  V30 1729 C 161.339 -2.55651 2.35074 0
M  V30 1730 C 160.293 -2.45645 3.50489 0
M  V30 1731 C 159.619 -3.84056 3.72028 0
M  V30 1732 C 160.919 -1.96302 4.84007 0
M  V30 1733 H 162.613 -0.86275 2.867 0
M  V30 1734 H 160.159 -0.413571 1.37933 0
M  V30 1735 H 162.112 -3.2886 2.63494 0
M  V30 1736 H 160.836 -2.92869 1.44552 0
M  V30 1737 H 159.495 -1.7489 3.22194 0
M  V30 1738 H 159.143 -4.18664 2.788 0
M  V30 1739 H 158.843 -3.7823 4.49684 0
M  V30 1740 H 160.367 -4.58854 4.02846 0
M  V30 1741 H 161.781 -2.59284 5.11317 0
M  V30 1742 H 160.178 -2.01429 5.65284 0
M  V30 1743 H 161.248 -0.917226 4.76146 0
M  V30 1744 N 162.591 -1.51276 -0.441967 0
M  V30 1745 C 163.524 -1.66933 -1.55591 0
M  V30 1746 C 164.502 -0.516958 -1.54163 0
M  V30 1747 O 165.686 -0.740209 -1.73358 0
M  V30 1748 C 162.813 -1.67866 -2.94174 0
M  V30 1749 C 161.859 -2.89013 -3.13646 0
M  V30 1750 S 162.692 -4.49897 -2.90436 0
M  V30 1751 C 163.848 -4.53568 -4.31308 0
M  V30 1752 H 164.081 -2.61155 -1.42076 0
M  V30 1753 H 161.614 -1.40902 -0.631341 0
M  V30 1754 H 163.572 -1.69089 -3.74058 0
M  V30 1755 H 162.233 -0.748296 -3.05056 0
M  V30 1756 H 161.426 -2.86054 -4.14957 0
M  V30 1757 H 161.028 -2.85509 -2.4158 0
M  V30 1758 H 163.32 -4.28924 -5.24434 0
M  V30 1759 H 164.263 -5.55355 -4.39303 0
M  V30 1760 H 164.671 -3.82943 -4.14747 0
M  V30 1761 N 164.069 0.697108 -1.41344 0
M  V30 1762 C 164.979 1.84088 -1.45427 0
M  V30 1763 C 165.995 1.70545 -0.34501 0
M  V30 1764 O 167.171 1.92488 -0.592492 0
M  V30 1765 C 164.236 3.20056 -1.33286 0
M  V30 1766 C 163.297 3.45718 -2.54514 0
M  V30 1767 C 162.53 4.75199 -2.42944 0
M  V30 1768 O 162.753 5.51579 -1.45318 0
M  V30 1769 O 161.687 5.0161 -3.32672 0
M  V30 1770 H 165.513 1.836 -2.41919 0
M  V30 1771 H 163.098 0.849966 -1.22866 0
M  V30 1772 H 164.98 4.01236 -1.28794 0
M  V30 1773 H 163.655 3.2123 -0.39909 0
M  V30 1774 H 162.562 2.64474 -2.64583 0
M  V30 1775 H 163.895 3.49356 -3.46715 0
M  V30 1776 N 165.547 1.27147 0.931209 0
M  V30 1777 C 166.775 1.16082 1.71267 0
M  V30 1778 C 167.19 -0.282772 1.8667 0
M  V30 1779 O 166.547 -1.19283 1.38122 0
M  V30 1780 C 166.598 1.8358 3.11417 0
M  V30 1781 O 166.319 3.22299 2.96741 0
M  V30 1782 C 167.82 1.78597 4.05732 0
M  V30 1783 H 165.04 0.403758 0.535929 0
M  V30 1784 H 167.584 1.67953 1.16671 0
M  V30 1785 H 165.739 1.35623 3.62885 0
M  V30 1786 H 166.153 3.55851 3.85319 0
M  V30 1787 H 167.627 2.30444 5.01597 0
M  V30 1788 H 168.104 0.754564 4.3267 0
M  V30 1789 H 168.71 2.26152 3.60188 0
M  V30 1790 N 167.025 -1.13721 1.09112 0
M  V30 1791 C 167.988 -2.17222 0.731241 0
M  V30 1792 C 168.988 -1.59035 -0.237566 0
M  V30 1793 O 170.178 -1.74192 -0.0161704 0
M  V30 1794 C 167.31 -3.40804 0.0808443 0
M  V30 1795 H 168.503 -2.50573 1.64783 0
M  V30 1796 H 166.056 -1.28493 0.889897 0
M  V30 1797 H 166.791 -3.1304 -0.847127 0
M  V30 1798 H 166.576 -3.84306 0.777896 0
M  V30 1799 H 168.066 -4.1731 -0.155657 0
M  V30 1800 N 168.503 -0.877838 -1.30888 0
M  V30 1801 C 169.453 -0.310872 -2.25871 0
M  V30 1802 C 170.437 0.556596 -1.50966 0
M  V30 1803 O 171.629 0.402187 -1.7237 0
M  V30 1804 C 168.758 0.479821 -3.3993 0
M  V30 1805 C 167.844 -0.401333 -4.22197 0
M  V30 1806 N 168.235 -1.49848 -4.83093 0
M  V30 1807 C 166.533 -0.195167 -4.45573 0
M  V30 1808 C 167.234 -2.0425 -5.44662 0
M  V30 1809 N 166.21 -1.33843 -5.26865 0
M  V30 1810 H 170.012 -1.1493 -2.70496 0
M  V30 1811 H 167.526 -0.726458 -1.45246 0
M  V30 1812 H 169.523 0.902582 -4.07012 0
M  V30 1813 H 168.183 1.31577 -2.96846 0
M  V30 1814 H 169.194 -1.88137 -4.82519 0
M  V30 1815 H 165.871 0.604192 -4.13105 0
M  V30 1816 H 167.261 -2.96345 -6.03017 0
M  V30 1817 N 169.982 1.44106 -0.638065 0
M  V30 1818 C 171.229 2.01978 -0.14533 0
M  V30 1819 C 171.557 1.50234 1.23532 0
M  V30 1820 O 170.812 0.679548 1.83523 0
M  V30 1821 C 171.111 3.5729 -0.0887327 0
M  V30 1822 C 170.777 4.28317 -1.40909 0
M  V30 1823 C 169.439 4.47437 -1.77069 0
M  V30 1824 C 171.791 4.6867 -2.28031 0
M  V30 1825 C 169.119 5.04171 -3.00047 0
M  V30 1826 C 171.471 5.26766 -3.50286 0
M  V30 1827 C 170.135 5.44104 -3.86661 0
M  V30 1828 H 169.405 0.739089 -0.0531801 0
M  V30 1829 H 172.052 1.72781 -0.825761 0
M  V30 1830 H 170.357 3.8594 0.675095 0
M  V30 1831 H 172.054 3.99807 0.309145 0
M  V30 1832 H 168.644 4.1377 -1.1177 0
M  V30 1833 H 172.828 4.53604 -2.01388 0
M  V30 1834 H 168.084 5.15782 -3.28298 0
M  V30 1835 H 172.258 5.56983 -4.18023 0
M  V30 1836 H 169.885 5.87832 -4.82034 0
M  V30 1837 N 171.46 0.379036 1.52974 0
M  V30 1838 C 172.39 -0.452706 2.29069 0
M  V30 1839 C 173.371 -1.07237 1.32039 0
M  V30 1840 O 174.556 -1.08708 1.60923 0
M  V30 1841 C 171.686 -1.5856 3.08992 0
M  V30 1842 C 170.64 -1.0925 4.13822 0
M  V30 1843 C 169.966 -2.31668 4.81907 0
M  V30 1844 C 171.266 -0.167702 5.22031 0
M  V30 1845 H 172.96 0.182181 2.98845 0
M  V30 1846 H 170.506 0.0890592 1.43724 0
M  V30 1847 H 172.459 -2.1742 3.6098 0
M  V30 1848 H 171.183 -2.24792 2.36931 0
M  V30 1849 H 169.842 -0.526494 3.628 0
M  V30 1850 H 169.49 -2.96386 4.06404 0
M  V30 1851 H 169.19 -1.9934 5.52754 0
M  V30 1852 H 170.714 -2.91189 5.36695 0
M  V30 1853 H 172.128 -0.664186 5.6944 0
M  V30 1854 H 170.525 0.0653265 6.00064 0
M  V30 1855 H 171.595 0.786347 4.78482 0
M  V30 1856 N 172.938 -1.57226 0.108567 0
M  V30 1857 C 174.163 -1.99604 -0.563303 0
M  V30 1858 C 174.588 -0.987563 -1.6009 0
M  V30 1859 O 173.946 0.0421687 -1.81251 0
M  V30 1860 C 173.994 -3.40902 -1.17552 0
M  V30 1861 O 173.098 -3.42896 -2.2912 0
M  V30 1862 H 172.439 -0.648704 -0.1417 0
M  V30 1863 H 174.969 -2.03679 0.193961 0
M  V30 1864 H 174.979 -3.78886 -1.51357 0
M  V30 1865 H 173.654 -4.1382 -0.415445 0
M  V30 1866 H 172.231 -3.1672 -1.96832 0
M  V30 1867 N 174.416 0.165178 -1.56732 0
M  V30 1868 C 175.326 1.22423 -2.00125 0
M  V30 1869 C 176.342 1.48084 -0.913619 0
M  V30 1870 O 177.518 1.60112 -1.22172 0
M  V30 1871 C 174.583 2.54197 -2.35764 0
M  V30 1872 C 173.644 2.36343 -3.58386 0
M  V30 1873 C 172.877 3.61834 -3.92316 0
M  V30 1874 O 173.1 4.67267 -3.27135 0
M  V30 1875 O 172.034 3.55579 -4.85641 0
M  V30 1876 H 175.86 0.885886 -2.90492 0
M  V30 1877 H 173.445 0.372518 -1.44681 0
M  V30 1878 H 175.327 3.3192 -2.59629 0
M  V30 1879 H 174.002 2.87598 -1.48557 0
M  V30 1880 H 172.909 1.56632 -3.39731 0
M  V30 1881 H 174.242 2.07865 -4.46154 0
M  V30 1882 N 175.894 1.51508 0.433938 0
M  V30 1883 C 176.824 1.76016 1.53429 0
M  V30 1884 C 177.805 0.610112 1.58782 0
M  V30 1885 O 178.99 0.853177 1.74455 0
M  V30 1886 C 176.12 1.88831 2.9148 0
M  V30 1887 C 175.074 3.04288 3.00987 0
M  V30 1888 C 174.4 3.0229 4.4105 0
M  V30 1889 C 175.7 4.44193 2.74754 0
M  V30 1890 H 177.394 2.68152 1.33171 0
M  V30 1891 H 174.94 1.29035 0.639214 0
M  V30 1892 H 176.893 2.04559 3.6842 0
M  V30 1893 H 175.617 0.933455 3.12976 0
M  V30 1894 H 174.276 2.8827 2.26486 0
M  V30 1895 H 173.924 2.04576 4.59519 0
M  V30 1896 H 173.624 3.79822 4.4834 0
M  V30 1897 H 175.148 3.20116 5.1996 0
M  V30 1898 H 176.562 4.60544 3.41426 0
M  V30 1899 H 174.959 5.23457 2.9345 0
M  V30 1900 H 176.029 4.53996 1.70339 0
M  V30 1901 N 177.372 -0.689602 1.41712 0
M  V30 1902 C 178.62 -1.4468 1.4111 0
M  V30 1903 C 178.941 -1.94986 0.0232196 0
M  V30 1904 O 178.211 -1.72097 -0.935913 0
M  V30 1905 H 176.791 -0.536847 0.519427 0
M  V30 1906 H 179.453 -0.815825 1.77004 0
M  V30 1907 H 178.549 -2.30706 2.10193 0
M  V30 1908 N 178.85 -1.27639 -0.924453 0
M  V30 1909 C 180.096 -1.14336 -1.67497 0
M  V30 1910 C 180.429 0.309465 -1.91718 0
M  V30 1911 O 179.704 1.22608 -1.50989 0
M  V30 1912 C 179.987 -1.93096 -3.0395 0
M  V30 1913 C 179.84 -3.46381 -2.8695 0
M  V30 1914 C 181.159 -1.73798 -4.0433 0
M  V30 1915 H 178.278 -0.416728 -0.607871 0
M  V30 1916 H 180.92 -1.56832 -1.07256 0
M  V30 1917 H 179.07 -1.56982 -3.55372 0
M  V30 1918 H 180.742 -3.92343 -2.42621 0
M  V30 1919 H 178.985 -3.72557 -2.22225 0
M  V30 1920 H 179.656 -3.96735 -3.83804 0
M  V30 1921 H 182.132 -2.05293 -3.61931 0
M  V30 1922 H 181.008 -2.31294 -4.97789 0
M  V30 1923 H 181.269 -0.686725 -4.36734 0
M  V30 1924 N 180.328 1.1314 -1.09713 0
M  V30 1925 C 181.275 2.18642 -0.739196 0
M  V30 1926 C 182.245 1.63706 0.280978 0
M  V30 1927 O 183.43 1.90111 0.161946 0
M  V30 1928 C 180.57 3.44685 -0.169102 0
M  V30 1929 C 179.683 4.13711 -1.24367 0
M  V30 1930 C 178.818 5.27379 -0.636019 0
M  V30 1931 C 177.857 5.88259 -1.69169 0
M  V30 1932 N 176.994 6.93352 -1.10485 0
M  V30 1933 H 181.834 2.48607 -1.64312 0
M  V30 1934 H 179.371 1.22066 -0.820875 0
M  V30 1935 H 181.329 4.16815 0.179256 0
M  V30 1936 H 179.959 3.15161 0.698079 0
M  V30 1937 H 179.011 3.39835 -1.70927 0
M  V30 1938 H 180.323 4.55037 -2.04311 0
M  V30 1939 H 179.477 6.06238 -0.236677 0
M  V30 1940 H 178.216 4.8731 0.194928 0
M  V30 1941 H 177.221 5.08092 -2.10055 0
M  V30 1942 H 178.446 6.30399 -2.52536 0
M  V30 1943 H 176.392 6.55335 -0.295234 0
M  V30 1944 H 176.309 7.33236 -1.84121 0
M  V30 1945 H 177.577 7.76057 -0.73181 0
M  V30 1946 N 181.806 0.884767 1.30421 0
M  V30 1947 C 183.052 0.503851 1.96441 0
M  V30 1948 C 183.385 -0.944518 1.69684 0
M  V30 1949 O 182.66 -1.66737 1.00145 0
M  V30 1950 C 182.943 0.779085 3.51571 0
M  V30 1951 C 182.796 2.27807 3.87846 0
M  V30 1952 C 184.115 0.255452 4.39358 0
M  V30 1953 H 181.234 0.184533 0.713524 0
M  V30 1954 H 183.876 1.10872 1.54297 0
M  V30 1955 H 182.026 0.264274 3.876 0
M  V30 1956 H 183.698 2.86127 3.61841 0
M  V30 1957 H 181.941 2.74479 3.35922 0
M  V30 1958 H 182.612 2.42125 4.96064 0
M  V30 1959 H 185.088 0.696079 4.10236 0
M  V30 1960 H 183.964 0.477361 5.4682 0
M  V30 1961 H 184.225 -0.843293 4.33983 0
M  V30 1962 N 183.284 -1.43765 0.645699 0
M  V30 1963 C 184.214 -2.33471 -0.0370477 0
M  V30 1964 C 185.195 -1.49042 -0.819779 0
M  V30 1965 O 186.38 -1.77726 -0.782758 0
M  V30 1966 C 183.51 -3.32311 -1.0093 0
M  V30 1967 C 182.464 -4.2667 -0.337201 0
M  V30 1968 C 181.79 -5.1549 -1.42037 0
M  V30 1969 C 183.09 -5.16657 0.765706 0
M  V30 1970 H 184.784 -2.90809 0.712069 0
M  V30 1971 H 182.33 -1.39834 0.343876 0
M  V30 1972 H 184.283 -3.9396 -1.49578 0
M  V30 1973 H 183.007 -2.73213 -1.78948 0
M  V30 1974 H 181.666 -3.66374 0.128771 0
M  V30 1975 H 181.314 -4.52735 -2.1918 0
M  V30 1976 H 181.014 -5.79438 -0.975966 0
M  V30 1977 H 182.538 -5.80012 -1.90838 0
M  V30 1978 H 183.952 -5.72158 0.361702 0
M  V30 1979 H 182.349 -5.89286 1.13413 0
M  V30 1980 H 183.419 -4.56796 1.62683 0
M  V30 1981 N 184.763 -0.387143 -1.52771 0
M  V30 1982 C 186.179 -0.037007 -1.59557 0
M  V30 1983 C 186.379 1.44801 -1.40124 0
M  V30 1984 O 185.435 2.21227 -1.21716 0
M  V30 1985 C 186.748 -0.512256 -2.96305 0
M  V30 1986 C 188.296 -0.468328 -3.09476 0
M  V30 1987 C 188.771 -0.919731 -4.4867 0
M  V30 1988 N 190.262 -0.875656 -4.54848 0
M  V30 1989 C 190.997 -1.19637 -5.6078 0
M  V30 1990 N 190.493 -1.58745 -6.74368 0
M  V30 1991 N 192.286 -1.11776 -5.50874 0
M  V30 1992 H 184.437 -1.35395 -1.63652 0
M  V30 1993 H 186.7 -0.554818 -0.768688 0
M  V30 1994 H 186.406 -1.54935 -3.15734 0
M  V30 1995 H 186.28 0.089805 -3.77093 0
M  V30 1996 H 188.667 0.559671 -2.89744 0
M  V30 1997 H 188.748 -1.10616 -2.30646 0
M  V30 1998 H 188.392 -1.94595 -4.69143 0
M  V30 1999 H 188.322 -0.258927 -5.25963 0
M  V30 2000 H 190.813 -0.587843 -3.733 0
M  V30 2001 H 191.126 -1.81586 -7.51163 0
M  V30 2002 H 189.471 -1.6263 -6.75705 0
M  V30 2003 H 192.662 -0.811264 -4.61016 0
M  V30 2004 H 192.835 -1.37103 -6.3333 0
M  V30 2005 N 186.241 1.57166 -0.116904 0
M  V30 2006 C 187.489 1.94737 0.540533 0
M  V30 2007 C 187.81 1.00096 1.67349 0
M  V30 2008 O 187.08 0.0568854 1.95817 0
M  V30 2009 H 185.66 0.718981 0.202669 0
M  V30 2010 H 188.322 1.94017 -0.185353 0
M  V30 2011 H 187.418 2.97719 0.936483 0
M  V30 2012 N 187.719 -0.156864 1.56817 0
M  V30 2013 C 188.967 -0.869404 1.82444 0
M  V30 2014 C 189.288 -1.82147 0.69623 0
M  V30 2015 O 188.558 -1.93847 -0.28287 0
M  V30 2016 H 187.138 -0.324043 0.673056 0
M  V30 2017 H 189.8 -0.153224 1.94297 0
M  V30 2018 H 188.896 -1.43761 2.77019 0
M  V30 2019 N 189.197 -1.51736 -0.425897 0
M  V30 2020 C 190.16 -1.73271 -1.50032 0
M  V30 2021 C 191.16 -0.602639 -1.4908 0
M  V30 2022 O 192.35 -0.87033 -1.509 0
M  V30 2023 C 189.482 -1.79969 -2.89523 0
M  V30 2024 H 190.675 -2.69172 -1.32237 0
M  V30 2025 H 188.228 -1.41899 -0.65532 0
M  V30 2026 H 188.963 -0.859241 -3.1271 0
M  V30 2027 H 188.748 -2.62109 -2.91619 0
M  V30 2028 H 190.238 -1.9843 -3.67444 0
M  V30 2029 N 190.675 0.682077 -1.42076 0
M  V30 2030 C 191.905 1.46844 -1.45329 0
M  V30 2031 C 192.313 1.89102 -0.0609328 0
M  V30 2032 O 191.656 1.58238 0.933082 0
M  V30 2033 C 191.718 2.75375 -2.31104 0
M  V30 2034 C 191.382 2.55238 -3.79081 0
M  V30 2035 C 192.379 2.20309 -4.70914 0
M  V30 2036 C 190.064 2.70459 -4.2327 0
M  V30 2037 C 192.058 2.00859 -6.04925 0
M  V30 2038 C 189.745 2.50624 -5.57343 0
M  V30 2039 C 190.743 2.15876 -6.47986 0
M  V30 2040 O 190.431 1.96227 -7.79583 0
M  V30 2041 H 190.163 0.4586 -0.496651 0
M  V30 2042 H 192.717 0.846131 -1.87162 0
M  V30 2043 H 190.947 3.40061 -1.84107 0
M  V30 2044 H 192.636 3.37231 -2.25898 0
M  V30 2045 H 193.402 2.08153 -4.38061 0
M  V30 2046 H 189.281 2.96485 -3.53012 0
M  V30 2047 H 192.825 1.7366 -6.75639 0
M  V30 2048 H 188.722 2.62375 -5.89771 0
M  V30 2049 H 189.49 2.10883 -7.90867 0
M  V30 2050 N 192.153 1.28127 0.917671 0
M  V30 2051 C 193.1 1.11717 2.0196 0
M  V30 2052 C 194.07 0.0153929 1.66093 0
M  V30 2053 O 195.255 0.179596 1.89953 0
M  V30 2054 C 192.395 0.780927 3.36148 0
M  V30 2055 C 191.508 1.96135 3.84909 0
M  V30 2056 C 190.643 1.56609 5.0759 0
M  V30 2057 C 189.682 2.71339 5.48673 0
M  V30 2058 N 188.819 2.32332 6.62545 0
M  V30 2059 H 193.659 2.06003 2.15329 0
M  V30 2060 H 191.196 1.02535 1.05475 0
M  V30 2061 H 193.154 0.56675 4.13333 0
M  V30 2062 H 191.784 -0.124998 3.22558 0
M  V30 2063 H 190.836 2.28777 3.03916 0
M  V30 2064 H 192.148 2.82165 4.1132 0
M  V30 2065 H 191.302 1.31374 5.92305 0
M  V30 2066 H 190.041 0.677014 4.82978 0
M  V30 2067 H 189.046 2.97276 4.62501 0
M  V30 2068 H 190.271 3.60882 5.75274 0
M  V30 2069 H 188.217 1.45889 6.39572 0
M  V30 2070 H 188.134 3.11899 6.88662 0
M  V30 2071 H 189.402 2.10371 7.50576 0
M  V30 2072 N 193.631 -1.12557 1.10312 0
M  V30 2073 C 195.042 -1.65574 0.862678 0
M  V30 2074 C 195.393 -1.86566 -0.607256 0
M  V30 2075 O 194.518 -1.59121 -1.46662 0
M  V30 2076 C 195.113 -3.00776 1.55947 0
M  V30 2077 C 193.672 -3.50748 1.36576 0
M  V30 2078 C 192.819 -2.25797 1.60968 0
M  V30 2079 H 195.77 -0.963552 1.26101 0
M  V30 2080 H 195.791 -3.67185 0.997753 0
M  V30 2081 H 195.303 -2.85465 2.62928 0
M  V30 2082 H 193.404 -3.71245 0.317531 0
M  V30 2083 H 193.517 -4.30289 2.10686 0
M  V30 2084 H 191.881 -2.32841 1.03234 0
M  V30 2085 H 192.664 -2.13043 2.69198 0
M  V30 2086 N 195.109 -0.891671 -1.2995 0
M  V30 2087 C 196.525 -0.58662 -1.48428 0
M  V30 2088 C 196.725 0.873951 -1.81561 0
M  V30 2089 O 195.781 1.65471 -1.90724 0
M  V30 2090 C 197.094 -1.50553 -2.60296 0
M  V30 2091 C 198.642 -1.50988 -2.74175 0
M  V30 2092 C 199.117 -2.41488 -3.89163 0
M  V30 2093 N 200.608 -2.39489 -3.96483 0
M  V30 2094 C 201.343 -3.06223 -4.84784 0
M  V30 2095 N 200.839 -3.82206 -5.77833 0
M  V30 2096 N 202.632 -2.95421 -4.78208 0
M  V30 2097 H 194.783 -1.83644 -1.06718 0
M  V30 2098 H 197.046 -0.786455 -0.529332 0
M  V30 2099 H 196.752 -2.54581 -2.42654 0
M  V30 2100 H 196.626 -1.22008 -3.56923 0
M  V30 2101 H 199.013 -0.47708 -2.91218 0
M  V30 2102 H 199.094 -1.83567 -1.78148 0
M  V30 2103 H 198.738 -3.44857 -3.72876 0
M  V30 2104 H 198.668 -2.06222 -4.84541 0
M  V30 2105 H 201.159 -1.84278 -3.29924 0
M  V30 2106 H 201.472 -4.302 -6.41988 0
M  V30 2107 H 199.817 -3.86313 -5.77743 0
M  V30 2108 H 203.008 -2.35581 -4.04499 0
M  V30 2109 H 203.181 -3.47704 -5.46814 0
M  V30 2110 N 196.587 1.43421 -0.653314 0
M  V30 2111 C 197.815 2.06163 -0.174491 0
M  V30 2112 C 198.23 1.48969 1.1599 0
M  V30 2113 O 197.587 0.621042 1.71608 0
M  V30 2114 C 197.638 3.61417 -0.0774865 0
M  V30 2115 O 197.359 4.16485 -1.35912 0
M  V30 2116 C 198.86 4.41235 0.427402 0
M  V30 2117 H 196.08 0.664946 -0.0899353 0
M  V30 2118 H 198.624 1.83924 -0.893988 0
M  V30 2119 H 196.779 3.82841 0.59257 0
M  V30 2120 H 197.193 5.10153 -1.21839 0
M  V30 2121 H 198.667 5.5021 0.44423 0
M  V30 2122 H 199.144 4.14268 1.45873 0
M  V30 2123 H 199.75 4.2478 -0.210167 0
M  V30 2124 N 198.065 0.39524 1.52563 0
M  V30 2125 C 199.29 -0.187456 2.06551 0
M  V30 2126 C 199.715 -1.39249 1.26457 0
M  V30 2127 O 199.073 -1.78947 0.291151 0
M  V30 2128 C 199.121 -0.529985 3.56684 0
M  V30 2129 O 198.225 -1.62307 3.79118 0
M  V30 2130 H 197.566 -0.0202537 0.663691 0
M  V30 2131 H 200.096 0.564426 1.96661 0
M  V30 2132 H 200.106 -0.792598 4.00227 0
M  V30 2133 H 198.781 0.350987 4.14416 0
M  V30 2134 H 197.358 -1.3537 3.47461 0
M  V30 2135 N 199.544 -1.57102 0.125237 0
M  V30 2136 C 200.955 -1.82384 -0.399142 0
M  V30 2137 C 201.306 -1.04276 -1.66195 0
M  V30 2138 O 200.431 -0.281269 -2.14564 0
M  V30 2139 C 201.026 -3.30821 -0.730932 0
M  V30 2140 C 199.585 -3.56762 -1.19992 0
M  V30 2141 C 198.732 -2.7649 -0.211792 0
M  V30 2142 H 201.683 -1.54786 0.350277 0
M  V30 2143 H 201.704 -3.4579 -1.58775 0
M  V30 2144 H 201.216 -3.87643 0.188345 0
M  V30 2145 H 199.317 -3.05305 -2.13588 0
M  V30 2146 H 199.43 -4.65317 -1.14093 0
M  V30 2147 H 197.794 -2.4489 -0.700085 0
M  V30 2148 H 198.577 -3.36073 0.700691 0
M  V30 2149 N 201.022 0.148545 -1.56898 0
M  V30 2150 C 202.252 0.875118 -1.8715 0
M  V30 2151 C 202.66 1.75322 -0.711262 0
M  V30 2152 O 202.003 1.80745 0.328151 0
M  V30 2153 C 202.065 1.7844 -3.12089 0
M  V30 2154 C 201.729 1.08361 -4.43967 0
M  V30 2155 C 202.726 0.438247 -5.1805 0
M  V30 2156 C 200.411 1.07358 -4.90693 0
M  V30 2157 C 202.405 -0.20779 -6.37061 0
M  V30 2158 C 200.092 0.42373 -6.09629 0
M  V30 2159 C 201.09 -0.215829 -6.82659 0
M  V30 2160 O 200.778 -0.855378 -7.99336 0
M  V30 2161 H 200.51 0.258504 -0.624621 0
M  V30 2162 H 203.064 0.14652 -2.04877 0
M  V30 2163 H 201.294 2.55389 -2.90367 0
M  V30 2164 H 202.983 2.38279 -3.286 0
M  V30 2165 H 203.749 0.437817 -4.8302 0
M  V30 2166 H 199.628 1.5608 -4.33774 0
M  V30 2167 H 203.172 -0.70758 -6.94002 0
M  V30 2168 H 199.069 0.421822 -6.4412 0
M  V30 2169 H 199.837 -0.756892 -8.14993 0
M  V30 2170 N 202.5 1.5196 0.417844 0
M  V30 2171 C 203.725 1.69717 1.1921 0
M  V30 2172 C 204.15 0.402148 1.83751 0
M  V30 2173 O 203.508 -0.639593 1.69643 0
M  V30 2174 C 203.556 2.82794 2.2374 0
M  V30 2175 O 202.66 2.47756 3.29683 0
M  V30 2176 H 202.001 0.565263 0.348387 0
M  V30 2177 H 204.531 1.98621 0.490985 0
M  V30 2178 H 204.541 3.07452 2.68212 0
M  V30 2179 H 203.216 3.76756 1.76146 0
M  V30 2180 H 201.793 2.33739 2.90552 0
M  V30 2181 N 203.978 -0.674533 1.42435 0
M  V30 2182 C 205.225 -1.43459 1.42919 0
M  V30 2183 C 205.553 -1.94446 0.0457312 0
M  V30 2184 O 204.808 -1.7132 -0.94593 0
M  V30 2185 C 205.107 -2.64767 2.40069 0
M  V30 2186 C 204.773 -2.3232 3.86443 0
M  V30 2187 C 203.435 -2.23182 4.26314 0
M  V30 2188 C 205.787 -2.05977 4.78773 0
M  V30 2189 C 203.115 -1.85827 5.56494 0
M  V30 2190 C 205.467 -1.70125 6.09295 0
M  V30 2191 C 204.131 -1.59498 6.48164 0
M  V30 2192 H 203.401 -0.524952 0.522978 0
M  V30 2193 H 206.048 -0.769097 1.75377 0
M  V30 2194 H 204.353 -3.36349 2.00939 0
M  V30 2195 H 206.05 -3.22949 2.37707 0
M  V30 2196 H 202.64 -2.40334 3.54877 0
M  V30 2197 H 206.824 -2.11969 4.48757 0
M  V30 2198 H 202.08 -1.76168 5.8547 0
M  V30 2199 H 206.254 -1.48767 6.80324 0
M  V30 2200 H 203.881 -1.30322 7.48946 0
M  V30 2201 N 205.456 -1.28612 -0.910864 0
M  V30 2202 C 206.388 -1.08589 -2.01844 0
M  V30 2203 C 207.401 -0.0367419 -1.62759 0
M  V30 2204 O 208.59 -0.280101 -1.76289 0
M  V30 2205 C 205.69 -0.628626 -3.33019 0
M  V30 2206 C 204.863 -1.75382 -4.00699 0
M  V30 2207 C 203.922 -1.28945 -5.10156 0
M  V30 2208 O 202.948 -1.9922 -5.33198 0
M  V30 2209 N 204.15 -0.154224 -5.80295 0
M  V30 2210 H 206.915 -2.03973 -2.19579 0
M  V30 2211 H 204.476 -1.20403 -1.08234 0
M  V30 2212 H 206.468 -0.301508 -4.03575 0
M  V30 2213 H 205.038 0.232451 -3.11735 0
M  V30 2214 H 204.258 -2.25039 -3.23653 0
M  V30 2215 H 205.546 -2.50854 -4.42662 0
M  V30 2216 H 204.944 0.43194 -5.64049 0
M  V30 2217 H 203.501 0.113599 -6.51701 0
M  V30 2218 N 206.934 1.1197 -1.10907 0
M  V30 2219 C 208.182 1.83225 -0.852819 0
M  V30 2220 C 208.503 1.84769 0.623341 0
M  V30 2221 O 207.773 1.3143 1.45269 0
M  V30 2222 H 206.353 0.67849 -0.312507 0
M  V30 2223 H 209.015 1.3556 -1.40033 0
M  V30 2224 H 208.111 2.87265 -1.22005 0
M  V30 2225 N 208.412 0.89855 1.29475 0
M  V30 2226 C 209.342 0.39201 2.30186 0
M  V30 2227 C 210.323 -0.532359 1.61555 0
M  V30 2228 O 211.508 -0.443331 1.89072 0
M  V30 2229 C 208.638 -0.382353 3.45189 0
M  V30 2230 C 207.592 0.451483 4.25612 0
M  V30 2231 C 206.918 -0.450307 5.328 0
M  V30 2232 C 208.218 1.70079 4.93832 0
M  V30 2233 H 209.912 1.23362 2.72804 0
M  V30 2234 H 207.458 0.594638 1.31149 0
M  V30 2235 H 209.411 -0.747451 4.14718 0
M  V30 2236 H 208.135 -1.25774 3.01411 0
M  V30 2237 H 206.794 0.798897 3.57789 0
M  V30 2238 H 206.442 -1.32379 4.85268 0
M  V30 2239 H 206.142 0.103902 5.87508 0
M  V30 2240 H 207.666 -0.811623 6.05182 0
M  V30 2241 H 209.08 1.40549 5.55805 0
M  V30 2242 H 207.477 2.19623 5.58467 0
M  V30 2243 H 208.547 2.43744 4.19186 0
M  V30 2244 N 209.89 -1.43072 0.660911 0
M  V30 2245 C 211.138 -2.01323 0.177094 0
M  V30 2246 C 211.459 -1.5245 -1.2159 0
M  V30 2247 O 210.729 -0.740322 -1.81373 0
M  V30 2248 H 209.309 -0.744382 0.0624804 0
M  V30 2249 H 211.971 -1.75179 0.854305 0
M  V30 2250 H 211.067 -3.11649 0.167641 0
M  V30 2251 N 211.368 -0.403325 -1.52352 0
M  V30 2252 C 212.278 0.432009 -2.30588 0
M  V30 2253 C 213.294 1.05884 -1.38075 0
M  V30 2254 O 214.47 1.06161 -1.71148 0
M  V30 2255 C 211.535 1.53669 -3.10784 0
M  V30 2256 C 210.596 0.933525 -4.19027 0
M  V30 2257 C 209.829 1.98557 -4.9539 0
M  V30 2258 O 210.052 3.20283 -4.71991 0
M  V30 2259 O 208.986 1.59504 -5.80381 0
M  V30 2260 H 212.812 -0.205739 -3.03002 0
M  V30 2261 H 210.397 -0.166675 -1.48467 0
M  V30 2262 H 212.279 2.17814 -3.60742 0
M  V30 2263 H 210.954 2.15915 -2.41169 0
M  V30 2264 H 209.861 0.254954 -3.7323 0
M  V30 2265 H 211.194 0.35508 -4.90918 0
M  V30 2266 N 212.846 1.57033 -0.133567 0
M  V30 2267 C 213.793 2.16074 0.811208 0
M  V30 2268 C 214.763 1.08979 1.2535 0
M  V30 2269 O 215.948 1.36958 1.32843 0
M  V30 2270 C 213.088 2.77595 2.05024 0
M  V30 2271 C 212.201 3.99042 1.65498 0
M  V30 2272 C 211.336 4.48603 2.84479 0
M  V30 2273 C 210.375 5.62547 2.41262 0
M  V30 2274 N 209.512 6.06787 3.53206 0
M  V30 2275 H 214.352 2.96477 0.300906 0
M  V30 2276 H 211.889 1.46462 0.136822 0
M  V30 2277 H 213.847 3.11402 2.77642 0
M  V30 2278 H 212.477 1.99859 2.53488 0
M  V30 2279 H 211.529 3.71302 0.826981 0
M  V30 2280 H 212.841 4.81629 1.29748 0
M  V30 2281 H 211.995 4.84395 3.65303 0
M  V30 2282 H 210.734 3.64995 3.23465 0
M  V30 2283 H 209.739 5.26345 1.58874 0
M  V30 2284 H 210.964 6.47931 2.03377 0
M  V30 2285 H 208.91 5.26117 3.91838 0
M  V30 2286 H 208.827 6.84266 3.21427 0
M  V30 2287 H 210.095 6.4722 4.34427 0
M  V30 2288 N 214.325 -0.140222 1.56975 0
M  V30 2289 C 215.573 -0.850005 1.83356 0
M  V30 2290 C 215.894 -1.81399 0.71551 0
M  V30 2291 O 215.164 -1.94136 -0.262294 0
M  V30 2292 H 213.744 -0.316886 0.676456 0
M  V30 2293 H 216.406 -0.132608 1.94448 0
M  V30 2294 H 215.502 -1.40814 2.78528 0
M  V30 2295 N 215.803 -1.52179 -0.40978 0
M  V30 2296 C 216.733 -1.78435 -1.5061 0
M  V30 2297 C 217.714 -0.635295 -1.57791 0
M  V30 2298 O 218.899 -0.880823 -1.73076 0
M  V30 2299 C 216.029 -1.93444 -2.88439 0
M  V30 2300 C 214.983 -3.09038 -2.96108 0
M  V30 2301 C 214.309 -3.09268 -4.36185 0
M  V30 2302 C 215.609 -4.48508 -2.67652 0
M  V30 2303 H 217.303 -2.70237 -1.28889 0
M  V30 2304 H 214.849 -1.30036 -0.618605 0
M  V30 2305 H 216.802 -2.10394 -3.65119 0
M  V30 2306 H 215.526 -0.983129 -3.11452 0
M  V30 2307 H 214.185 -2.91837 -2.21872 0
M  V30 2308 H 213.833 -2.11861 -4.56206 0
M  V30 2309 H 213.533 -3.86907 -4.42241 0
M  V30 2310 H 215.057 -3.28348 -5.14801 0
M  V30 2311 H 216.471 -4.65918 -3.34056 0
M  V30 2312 H 214.868 -5.28059 -2.85085 0
M  V30 2313 H 215.938 -4.56649 -1.63095 0
M  V30 2314 N 217.281 0.66697 -1.42791 0
M  V30 2315 C 218.191 1.80962 -1.49299 0
M  V30 2316 C 219.207 1.69775 -0.381108 0
M  V30 2317 O 220.383 1.91188 -0.633188 0
M  V30 2318 C 217.448 3.17156 -1.40045 0
M  V30 2319 C 216.509 3.40242 -2.6179 0
M  V30 2320 C 215.742 4.69939 -2.52969 0
M  V30 2321 O 215.965 5.48372 -1.56985 0
M  V30 2322 O 214.899 4.94441 -3.43237 0
M  V30 2323 H 218.725 1.78427 -2.45759 0
M  V30 2324 H 216.31 0.823713 -1.24641 0
M  V30 2325 H 218.192 3.98413 -1.37276 0
M  V30 2326 H 216.867 3.20312 -0.467138 0
M  V30 2327 H 215.774 2.58802 -2.70134 0
M  V30 2328 H 217.107 3.41923 -3.54047 0
M  V30 2329 N 218.759 1.29093 0.90403 0
M  V30 2330 C 219.989 1.19516 1.68522 0
M  V30 2331 C 220.397 -0.24738 1.87576 0
M  V30 2332 O 219.74 -1.17798 1.40959 0
M  V30 2333 C 219.802 1.83249 3.0929 0
M  V30 2334 C 219.466 3.32531 3.13484 0
M  V30 2335 C 220.463 4.28821 2.93953 0
M  V30 2336 C 218.148 3.73656 3.35688 0
M  V30 2337 C 220.142 5.64212 2.96553 0
M  V30 2338 C 217.829 5.0917 3.37919 0
M  V30 2339 C 218.827 6.04258 3.18373 0
M  V30 2340 O 218.515 7.37298 3.20385 0
M  V30 2341 H 218.247 0.415467 0.533257 0
M  V30 2342 H 220.801 1.70912 1.13922 0
M  V30 2343 H 219.031 1.26358 3.65473 0
M  V30 2344 H 220.72 1.68054 3.69476 0
M  V30 2345 H 221.486 3.98382 2.76616 0
M  V30 2346 H 217.365 3.00101 3.49943 0
M  V30 2347 H 220.909 6.38407 2.81216 0
M  V30 2348 H 216.806 5.39256 3.54787 0
M  V30 2349 H 217.574 7.46048 3.36681 0
M  V30 2350 N 220.237 -1.11381 1.11499 0
M  V30 2351 C 221.167 -2.19509 0.796125 0
M  V30 2352 C 222.148 -1.68458 -0.235796 0
M  V30 2353 O 223.333 -1.93947 -0.0991344 0
M  V30 2354 C 220.463 -3.46475 0.239205 0
M  V30 2355 C 219.417 -4.10744 1.20307 0
M  V30 2356 C 218.743 -5.32293 0.50683 0
M  V30 2357 C 220.043 -4.55597 2.55399 0
M  V30 2358 H 221.737 -2.46439 1.70024 0
M  V30 2359 H 219.283 -1.18446 0.818935 0
M  V30 2360 H 221.236 -4.214 0.00392006 0
M  V30 2361 H 219.96 -3.19006 -0.700206 0
M  V30 2362 H 218.619 -3.37813 1.42399 0
M  V30 2363 H 218.267 -5.01095 -0.437408 0
M  V30 2364 H 217.967 -5.76243 1.1497 0
M  V30 2365 H 219.491 -6.09956 0.280351 0
M  V30 2366 H 220.905 -5.21841 2.37391 0
M  V30 2367 H 219.302 -5.10363 3.15673 0
M  V30 2368 H 220.372 -3.69013 3.14575 0
M  V30 2369 N 221.715 -0.905404 -1.28997 0
M  V30 2370 C 223.131 -0.60233 -1.47798 0
M  V30 2371 C 223.331 0.854645 -1.82478 0
M  V30 2372 O 222.387 1.63439 -1.92468 0
M  V30 2373 C 223.7 -1.53306 -2.58685 0
M  V30 2374 C 225.248 -1.53887 -2.72558 0
M  V30 2375 C 225.723 -2.45602 -3.86579 0
M  V30 2376 N 227.214 -2.43681 -3.93921 0
M  V30 2377 C 227.949 -3.11347 -4.81509 0
M  V30 2378 N 227.445 -3.88313 -5.73746 0
M  V30 2379 N 229.238 -3.00476 -4.75048 0
M  V30 2380 H 221.389 -1.84765 -1.04764 0
M  V30 2381 H 223.652 -0.792025 -0.520961 0
M  V30 2382 H 223.358 -2.57141 -2.39941 0
M  V30 2383 H 223.232 -1.25787 -3.55609 0
M  V30 2384 H 225.619 -0.507941 -2.90696 0
M  V30 2385 H 225.7 -1.85447 -1.76191 0
M  V30 2386 H 225.344 -3.48792 -3.69197 0
M  V30 2387 H 225.274 -2.11349 -4.82327 0
M  V30 2388 H 227.765 -1.87767 -3.27951 0
M  V30 2389 H 228.078 -4.36985 -6.37389 0
M  V30 2390 H 226.423 -3.92419 -5.73614 0
M  V30 2391 H 229.614 -2.39858 -4.01977 0
M  V30 2392 H 229.787 -3.53485 -5.43095 0
M  V30 2393 N 223.193 1.4272 -0.668489 0
M  V30 2394 C 224.103 2.34596 0.0139753 0
M  V30 2395 C 225.119 1.5474 0.795703 0
M  V30 2396 O 226.295 1.87334 0.739466 0
M  V30 2397 C 223.36 3.33202 0.957982 0
M  V30 2398 C 222.421 4.28957 0.17149 0
M  V30 2399 C 221.654 5.22853 1.07053 0
M  V30 2400 O 221.877 5.21531 2.31001 0
M  V30 2401 O 220.811 5.9952 0.534727 0
M  V30 2402 H 224.637 2.9448 -0.742661 0
M  V30 2403 H 222.222 1.43117 -0.428705 0
M  V30 2404 H 224.104 3.93796 1.50008 0
M  V30 2405 H 222.779 2.758 1.69458 0
M  V30 2406 H 221.686 3.71796 -0.414558 0
M  V30 2407 H 223.019 4.89383 -0.52586 0
M  V30 2408 N 224.671 0.411399 1.52136 0
M  V30 2409 C 225.634 -0.401089 2.25663 0
M  V30 2410 C 226.634 -0.971732 1.28117 0
M  V30 2411 O 227.824 -0.850254 1.52041 0
M  V30 2412 C 224.956 -1.56483 3.02863 0
M  V30 2413 H 226.149 0.24295 2.98914 0
M  V30 2414 H 223.702 0.163968 1.55438 0
M  V30 2415 H 224.437 -2.24567 2.33967 0
M  V30 2416 H 224.222 -1.16211 3.74483 0
M  V30 2417 H 225.712 -2.13951 3.58629 0
M  V30 2418 N 226.149 -1.5696 0.141893 0
M  V30 2419 C 227.112 -2.15316 -0.785587 0
M  V30 2420 C 228.112 -1.09366 -1.1788 0
M  V30 2421 O 229.302 -1.35031 -1.10056 0
M  V30 2422 C 226.434 -2.71211 -2.06537 0
M  V30 2423 H 227.627 -2.98608 -0.278041 0
M  V30 2424 H 225.18 -1.5593 -0.107519 0
M  V30 2425 H 225.915 -1.91571 -2.6167 0
M  V30 2426 H 225.7 -3.4872 -1.79268 0
M  V30 2427 H 227.19 -3.16189 -2.72789 0
M  V30 2428 N 227.627 0.131896 -1.57047 0
M  V30 2429 C 228.904 0.871495 -1.75112 0
M  V30 2430 C 229.284 1.9866 -0.713949 0
M  V30 2431 O 228.632 2.26965 0.264447 0
M  V30 2432 C 228.842 1.40007 -3.19686 0
M  V30 2433 C 230.19 1.85752 -3.81813 0
M  V30 2434 O 231.214 1.49715 -3.23209 0
M  V30 2435 O 230.073 2.5226 -4.84796 0
M  V30 2436 H 227.167 0.412919 -0.716538 0
M  V30 2437 H 229.713 0.116641 -1.69299 0
M  V30 2438 H 228.485 0.599404 -3.86682 0
M  V30 2439 H 228.108 2.218 -3.29986 0
M  V30 2440 N 229.106 1.52395 0.401703 0
M  V30 2441 C 230.053 1.76268 1.48991 0
M  V30 2442 C 231.023 0.605386 1.54675 0
M  V30 2443 O 232.208 0.843742 1.7113 0
M  V30 2444 C 229.348 1.92592 2.86361 0
M  V30 2445 C 228.461 3.20259 2.89928 0
M  V30 2446 C 227.596 3.26972 4.18644 0
M  V30 2447 C 226.635 4.48812 4.16214 0
M  V30 2448 N 225.772 4.52877 5.36514 0
M  V30 2449 H 230.612 2.6914 1.27935 0
M  V30 2450 H 228.149 1.33355 0.620871 0
M  V30 2451 H 230.107 2.0004 3.66115 0
M  V30 2452 H 228.737 1.03093 3.05895 0
M  V30 2453 H 227.789 3.21945 2.02621 0
M  V30 2454 H 229.101 4.10056 2.83999 0
M  V30 2455 H 228.255 3.33533 5.06794 0
M  V30 2456 H 226.994 2.35126 4.27278 0
M  V30 2457 H 225.999 4.4239 3.26453 0
M  V30 2458 H 227.224 5.41961 4.09213 0
M  V30 2459 H 225.17 3.63917 5.45802 0
M  V30 2460 H 225.087 5.36529 5.32609 0
M  V30 2461 H 226.355 4.63676 6.26597 0
M  V30 2462 N 230.584 -0.659388 1.43143 0
M  V30 2463 C 231.814 -1.44513 1.47646 0
M  V30 2464 C 232.222 -1.88981 0.0910095 0
M  V30 2465 O 231.565 -1.59702 -0.907789 0
M  V30 2466 C 231.627 -2.71663 2.35456 0
M  V30 2467 C 231.291 -2.49175 3.83094 0
M  V30 2468 C 232.288 -2.1279 4.74359 0
M  V30 2469 C 229.973 -2.63691 4.27519 0
M  V30 2470 C 231.967 -1.9121 6.08044 0
M  V30 2471 C 229.654 -2.41726 5.61259 0
M  V30 2472 C 230.652 -2.0554 6.51339 0
M  V30 2473 O 230.34 -1.838 7.82606 0
M  V30 2474 H 230.072 -0.45064 0.503884 0
M  V30 2475 H 232.626 -0.816248 1.88485 0
M  V30 2476 H 230.856 -3.37089 1.89493 0
M  V30 2477 H 232.545 -3.33595 2.31235 0
M  V30 2478 H 233.311 -2.01157 4.41317 0
M  V30 2479 H 229.19 -2.90832 3.57684 0
M  V30 2480 H 232.734 -1.62889 6.78316 0
M  V30 2481 H 228.631 -2.52959 5.9387 0
M  V30 2482 H 229.399 -1.98275 7.94122 0
M  V30 2483 N 232.062 -1.29571 -0.897171 0
M  V30 2484 C 233.31 -1.17456 -1.64464 0
M  V30 2485 C 233.631 0.273698 -1.9307 0
M  V30 2486 O 232.901 1.18684 -1.55855 0
M  V30 2487 H 231.481 -0.431706 -0.609622 0
M  V30 2488 H 234.143 -1.62531 -1.07562 0
M  V30 2489 H 233.239 -1.72648 -2.59998 0
M  V30 2490 N 233.54 1.10788 -1.12088 0
M  V30 2491 C 234.473 2.16237 -0.729168 0
M  V30 2492 C 235.451 1.60207 0.277921 0
M  V30 2493 O 236.635 1.87707 0.172737 0
M  V30 2494 C 233.762 3.38609 -0.0786848 0
M  V30 2495 C 232.808 4.13322 -1.05201 0
M  V30 2496 S 233.641 4.69371 -2.57781 0
M  V30 2497 C 234.797 5.95058 -1.94053 0
M  V30 2498 H 235.03 2.4913 -1.62239 0
M  V30 2499 H 232.563 1.22519 -0.939603 0
M  V30 2500 H 234.521 4.09473 0.290254 0
M  V30 2501 H 233.182 3.03962 0.791593 0
M  V30 2502 H 232.375 5.01051 -0.544433 0
M  V30 2503 H 231.977 3.48251 -1.36371 0
M  V30 2504 H 234.269 6.65278 -1.28107 0
M  V30 2505 H 235.212 6.50472 -2.79807 0
M  V30 2506 H 235.62 5.46918 -1.39787 0
M  V30 2507 N 235.018 0.912232 1.28515 0
M  V30 2508 C 236.248 0.559604 1.98877 0
M  V30 2509 C 236.656 -0.863113 1.68366 0
M  V30 2510 O 235.999 -1.58304 0.931969 0
M  V30 2511 C 236.061 0.68703 3.52874 0
M  V30 2512 C 235.725 2.07901 4.06972 0
M  V30 2513 C 236.722 3.05157 4.20922 0
M  V30 2514 C 234.407 2.39178 4.417 0
M  V30 2515 C 236.401 4.31806 4.68852 0
M  V30 2516 C 234.088 3.66068 4.89324 0
M  V30 2517 C 235.086 4.62195 5.02856 0
M  V30 2518 O 234.774 5.86829 5.49442 0
M  V30 2519 H 234.506 0.212191 0.641834 0
M  V30 2520 H 237.06 1.22712 1.64715 0
M  V30 2521 H 235.29 -0.0375486 3.86682 0
M  V30 2522 H 236.979 0.341727 4.04459 0
M  V30 2523 H 237.745 2.82311 3.94367 0
M  V30 2524 H 233.624 1.65109 4.30418 0
M  V30 2525 H 237.168 5.06842 4.79329 0
M  V30 2526 H 233.065 3.88739 5.15318 0
M  V30 2527 H 233.833 5.89597 5.6773 0
M  V30 2528 N 236.496 -1.42363 0.676048 0
M  V30 2529 C 237.742 -2.0182 0.199125 0
M  V30 2530 C 238.075 -1.53339 -1.19168 0
M  V30 2531 O 237.35 -0.736124 -1.80032 0
M  V30 2532 C 237.633 -3.59331 0.235144 0
M  V30 2533 C 237.486 -4.17989 1.66149 0
M  V30 2534 C 238.805 -4.3813 -0.41595 0
M  V30 2535 H 235.924 -0.733293 0.0738311 0
M  V30 2536 H 238.566 -1.69368 0.86107 0
M  V30 2537 H 236.716 -3.87109 -0.328487 0
M  V30 2538 H 238.388 -4.0116 2.27747 0
M  V30 2539 H 236.631 -3.7377 2.20178 0
M  V30 2540 H 237.302 -5.27126 1.63837 0
M  V30 2541 H 239.778 -4.16051 0.0638529 0
M  V30 2542 H 238.654 -5.47717 -0.360115 0
M  V30 2543 H 238.915 -4.16101 -1.49373 0
M  V30 2544 N 237.974 -0.419461 -1.51915 0
M  V30 2545 C 239.22 0.153166 -2.02221 0
M  V30 2546 C 239.553 1.43907 -1.30401 0
M  V30 2547 O 238.828 1.90055 -0.413438 0
M  V30 2548 C 239.111 0.390291 -3.57979 0
M  V30 2549 C 238.964 -0.913014 -4.40436 0
M  V30 2550 C 240.283 1.16794 -4.2432 0
M  V30 2551 H 237.402 0.0541924 -0.735005 0
M  V30 2552 H 240.044 -0.554955 -1.81715 0
M  V30 2553 H 238.194 0.993491 -3.75582 0
M  V30 2554 H 239.866 -1.54882 -4.34522 0
M  V30 2555 H 238.109 -1.52168 -4.06236 0
M  V30 2556 H 238.78 -0.701361 -5.47526 0
M  V30 2557 H 241.256 0.657161 -4.10878 0
M  V30 2558 H 240.132 1.3026 -5.3322 0
M  V30 2559 H 240.393 2.19132 -3.83971 0
M  V30 2560 N 239.452 1.56882 -0.150215 0
M  V30 2561 C 240.68 2.00593 0.506948 0
M  V30 2562 C 241.095 1.03033 1.58208 0
M  V30 2563 O 240.452 0.0278396 1.82479 0
M  V30 2564 C 240.503 3.44209 1.10465 0
M  V30 2565 O 240.224 4.3804 0.0724636 0
M  V30 2566 C 241.725 4.03214 1.84211 0
M  V30 2567 H 238.945 0.65795 0.13169 0
M  V30 2568 H 241.489 2.03018 -0.245743 0
M  V30 2569 H 239.644 3.42625 1.80795 0
M  V30 2570 H 240.058 5.22007 0.510793 0
M  V30 2571 H 241.532 5.0569 2.21318 0
M  V30 2572 H 242.009 3.44107 2.72923 0
M  V30 2573 H 242.615 4.08437 1.18572 0
M  V30 2574 N 240.93 -0.123565 1.57115 0
M  V30 2575 C 241.84 -1.17074 2.033 0
M  V30 2576 C 242.856 -1.4561 0.952559 0
M  V30 2577 O 244.032 -1.56817 1.26374 0
M  V30 2578 C 241.097 -2.47857 2.42421 0
M  V30 2579 C 240.158 -2.26758 3.64526 0
M  V30 2580 C 239.391 -3.51305 4.01771 0
M  V30 2581 O 239.614 -4.5843 3.39409 0
M  V30 2582 O 238.548 -3.42578 4.94898 0
M  V30 2583 H 242.374 -0.808555 2.92739 0
M  V30 2584 H 239.959 -0.334027 1.45618 0
M  V30 2585 H 241.841 -3.2492 2.68338 0
M  V30 2586 H 240.516 -2.83558 1.5613 0
M  V30 2587 H 239.423 -1.47569 3.43765 0
M  V30 2588 H 240.756 -1.95963 4.51508 0
M  V30 2589 N 242.408 -1.52605 -0.393616 0
M  V30 2590 C 243.371 -1.76415 -1.46323 0
M  V30 2591 C 244.371 -0.634126 -1.47768 0
M  V30 2592 O 245.561 -0.902142 -1.4902 0
M  V30 2593 C 242.693 -1.8607 -2.85641 0
M  V30 2594 H 243.886 -2.71916 -1.26498 0
M  V30 2595 H 241.439 -1.43257 -0.625073 0
M  V30 2596 H 242.174 -0.925378 -3.10817 0
M  V30 2597 H 241.959 -2.68235 -2.85993 0
M  V30 2598 H 243.449 -2.06179 -3.63153 0
M  V30 2599 N 243.887 0.651787 -1.4349 0
M  V30 2600 C 244.817 1.77621 -1.51569 0
M  V30 2601 C 245.798 1.66022 -0.370253 0
M  V30 2602 O 246.983 1.85095 -0.587658 0
M  V30 2603 C 244.113 3.16056 -1.43966 0
M  V30 2604 C 243.067 3.4242 -2.56774 0
M  V30 2605 C 242.393 4.8067 -2.34223 0
M  V30 2606 C 243.693 3.37023 -3.99015 0
M  V30 2607 H 245.387 1.71117 -2.45681 0
M  V30 2608 H 242.933 0.821825 -1.18246 0
M  V30 2609 H 244.886 3.94472 -1.48221 0
M  V30 2610 H 243.61 3.23293 -0.463586 0
M  V30 2611 H 242.269 2.66375 -2.51873 0
M  V30 2612 H 241.917 4.84585 -1.34856 0
M  V30 2613 H 241.617 4.9927 -3.09844 0
M  V30 2614 H 243.141 5.61342 -2.40265 0
M  V30 2615 H 244.555 4.05374 -4.05395 0
M  V30 2616 H 242.952 3.67159 -4.74673 0
M  V30 2617 H 244.022 2.3518 -4.2405 0
M  V30 2618 N 245.365 1.30045 0.890287 0
M  V30 2619 C 246.613 1.18327 1.63839 0
M  V30 2620 C 246.934 -0.263455 1.93212 0
M  V30 2621 O 246.204 -1.17856 1.56482 0
M  V30 2622 H 244.784 0.434933 0.607324 0
M  V30 2623 H 247.446 1.631 1.06698 0
M  V30 2624 H 246.542 1.74024 2.59079 0
M  V30 2625 N 246.843 -1.10192 1.12674 0
M  V30 2626 C 247.753 -2.20172 0.810026 0
M  V30 2627 C 248.769 -1.72821 -0.202188 0
M  V30 2628 O 249.945 -2.01369 -0.0351691 0
M  V30 2629 C 247.01 -3.45631 0.272007 0
M  V30 2630 C 246.071 -4.07704 1.34447 0
M  V30 2631 C 245.304 -5.27175 0.832029 0
M  V30 2632 O 245.527 -5.69425 -0.333284 0
M  V30 2633 O 244.461 -5.80168 1.60277 0
M  V30 2634 H 248.287 -2.49701 1.72867 0
M  V30 2635 H 245.872 -1.18977 0.903597 0
M  V30 2636 H 247.754 -4.21394 -0.0230219 0
M  V30 2637 H 246.429 -3.17723 -0.619164 0
M  V30 2638 H 245.336 -3.33614 1.6927 0
M  V30 2639 H 246.669 -4.3982 2.2095 0
M  V30 2640 N 248.321 -0.919034 -1.28029 0
M  V30 2641 C 249.598 -0.473668 -1.89778 0
M  V30 2642 C 249.978 1.04783 -1.83259 0
M  V30 2643 O 249.326 1.8982 -1.27202 0
M  V30 2644 C 249.536 -1.00998 -3.34066 0
M  V30 2645 C 250.884 -1.06525 -4.1102 0
M  V30 2646 O 251.908 -0.958996 -3.43048 0
M  V30 2647 O 250.767 -1.22776 -5.3253 0
M  V30 2648 H 247.861 -0.15098 -0.813101 0
M  V30 2649 H 250.407 -1.01016 -1.36359 0
M  V30 2650 H 249.179 -2.05392 -3.33061 0
M  V30 2651 H 248.802 -0.454626 -3.94992 0
M  V30 2652 N 249.799 1.42003 -0.683588 0
M  V30 2653 C 251.076 1.95112 -0.138075 0
M  V30 2654 C 251.456 1.62359 1.34918 0
M  V30 2655 O 250.804 0.924311 2.08971 0
M  V30 2656 C 251.014 3.46505 -0.416581 0
M  V30 2657 C 252.362 4.23254 -0.337834 0
M  V30 2658 O 253.386 3.54468 -0.35082 0
M  V30 2659 O 252.245 5.45743 -0.287596 0
M  V30 2660 H 249.339 0.826961 -0.00797996 0
M  V30 2661 H 251.885 1.51784 -0.758924 0
M  V30 2662 H 250.657 3.63582 -1.4465 0
M  V30 2663 H 250.28 3.969 0.235839 0
M  V30 2664 N 251.277 0.427512 1.51691 0
M  V30 2665 C 252.207 -0.3796 2.30394 0
M  V30 2666 C 253.188 -1.02982 1.35384 0
M  V30 2667 O 254.373 -1.03534 1.643 0
M  V30 2668 C 251.503 -1.48649 3.1388 0
M  V30 2669 C 250.457 -0.960294 4.17088 0
M  V30 2670 C 249.783 -2.16219 4.89033 0
M  V30 2671 C 251.083 -0.00153679 5.223 0
M  V30 2672 H 252.777 0.277164 2.98114 0
M  V30 2673 H 250.323 0.134739 1.43368 0
M  V30 2674 H 252.276 -2.05826 3.67714 0
M  V30 2675 H 251 -2.1714 2.43962 0
M  V30 2676 H 249.659 -0.410806 3.64291 0
M  V30 2677 H 249.307 -2.83307 4.15628 0
M  V30 2678 H 249.007 -1.81654 5.58816 0
M  V30 2679 H 250.531 -2.73968 5.45687 0
M  V30 2680 H 251.945 -0.482687 5.71264 0
M  V30 2681 H 250.342 0.256199 5.99553 0
M  V30 2682 H 251.412 0.938174 4.75738 0
M  V30 2683 N 252.755 -1.56801 0.158532 0
M  V30 2684 C 254.166 -1.83189 -0.360366 0
M  V30 2685 C 254.517 -1.07778 -1.63946 0
M  V30 2686 O 253.642 -0.326718 -2.13919 0
M  V30 2687 C 254.237 -3.32297 -0.660595 0
M  V30 2688 C 252.796 -3.59227 -1.12398 0
M  V30 2689 C 251.943 -2.76877 -0.153097 0
M  V30 2690 H 254.894 -1.54008 0.383031 0
M  V30 2691 H 254.915 -3.4908 -1.51405 0
M  V30 2692 H 254.427 -3.87156 0.270527 0
M  V30 2693 H 252.528 -3.09766 -2.07064 0
M  V30 2694 H 252.641 -4.67632 -1.04197 0
M  V30 2695 H 251.005 -2.46319 -0.647983 0
M  V30 2696 H 251.788 -3.34511 0.77182 0
M  V30 2697 N 254.233 0.115231 -1.57178 0
M  V30 2698 C 255.18 1.14115 -2.00615 0
M  V30 2699 C 256.15 1.40939 -0.878941 0
M  V30 2700 O 257.335 1.52741 -1.14345 0
M  V30 2701 C 254.475 2.46156 -2.4187 0
M  V30 2702 C 253.588 2.26236 -3.68024 0
M  V30 2703 C 252.723 3.51534 -3.98243 0
M  V30 2704 C 251.762 3.26787 -5.17568 0
M  V30 2705 N 250.899 4.44298 -5.43639 0
M  V30 2706 H 255.739 0.763743 -2.88047 0
M  V30 2707 H 253.276 0.365615 -1.42484 0
M  V30 2708 H 255.234 3.23189 -2.63827 0
M  V30 2709 H 253.864 2.81783 -1.57475 0
M  V30 2710 H 252.916 1.40102 -3.5366 0
M  V30 2711 H 254.228 2.03929 -4.55208 0
M  V30 2712 H 253.382 4.36984 -4.20868 0
M  V30 2713 H 252.121 3.76876 -3.09541 0
M  V30 2714 H 251.126 2.39729 -4.94783 0
M  V30 2715 H 252.351 3.02812 -6.0785 0
M  V30 2716 H 250.297 4.69754 -4.57895 0
M  V30 2717 H 250.214 4.25109 -6.25154 0
M  V30 2718 H 251.482 5.3087 -5.70786 0
M  V30 2719 N 255.711 1.52812 0.385517 0
M  V30 2720 C 256.957 1.68275 1.13188 0
M  V30 2721 C 257.29 0.423179 1.89533 0
M  V30 2722 O 256.565 -0.579113 1.85679 0
M  V30 2723 C 256.848 2.92001 2.1073 0
M  V30 2724 C 256.701 4.28067 1.38125 0
M  V30 2725 C 258.02 3.11283 3.11113 0
M  V30 2726 H 255.139 0.612352 0.410115 0
M  V30 2727 H 257.781 1.85415 0.414869 0
M  V30 2728 H 255.931 2.77519 2.71874 0
M  V30 2729 H 257.603 4.54324 0.799187 0
M  V30 2730 H 255.846 4.28388 0.683092 0
M  V30 2731 H 256.517 5.10733 2.09417 0
M  V30 2732 H 258.993 3.2482 2.6006 0
M  V30 2733 H 257.869 3.99325 3.76605 0
M  V30 2734 H 258.13 2.25656 3.80173 0
M  V30 2735 N 257.189 -0.644168 1.43834 0
M  V30 2736 C 258.152 -1.73857 1.49353 0
M  V30 2737 C 259.152 -1.56315 0.377112 0
M  V30 2738 O 260.342 -1.62048 0.639226 0
M  V30 2739 C 257.474 -3.12819 1.35488 0
M  V30 2740 H 258.667 -1.70342 2.46827 0
M  V30 2741 H 256.22 -0.856652 1.30733 0
M  V30 2742 H 256.955 -3.2194 0.390569 0
M  V30 2743 H 256.74 -3.26958 2.16428 0
M  V30 2744 H 258.23 -3.92606 1.42302 0
M  V30 2745 N 258.668 -1.30515 -0.883378 0
M  V30 2746 C 259.578 -1.18959 -2.02203 0
M  V30 2747 C 260.594 -0.109172 -1.73657 0
M  V30 2748 O 261.77 -0.324413 -1.9877 0
M  V30 2749 C 258.835 -0.883871 -3.35244 0
M  V30 2750 C 257.896 -2.04982 -3.77201 0
M  V30 2751 C 257.129 -1.75859 -5.03894 0
M  V30 2752 O 257.352 -0.687276 -5.66244 0
M  V30 2753 O 256.286 -2.61146 -5.42297 0
M  V30 2754 H 260.112 -2.14616 -2.1488 0
M  V30 2755 H 257.697 -1.10124 -1.0096 0
M  V30 2756 H 259.579 -0.728644 -4.15053 0
M  V30 2757 H 258.254 0.0427798 -3.23672 0
M  V30 2758 H 257.161 -2.26038 -2.9809 0
M  V30 2759 H 258.494 -2.95825 -3.93381 0
M  V30 2760 N 260.146 1.09593 -1.13257 0
M  V30 2761 C 261.376 1.85231 -0.915049 0
M  V30 2762 C 261.784 1.81345 0.539498 0
M  V30 2763 O 261.127 1.20664 1.38513 0
M  V30 2764 C 261.189 3.34275 -1.3229 0
M  V30 2765 C 260.853 3.6191 -2.79052 0
M  V30 2766 C 261.85 3.57777 -3.77216 0
M  V30 2767 C 259.535 3.90309 -3.16171 0
M  V30 2768 C 261.529 3.81652 -5.1051 0
M  V30 2769 C 259.216 4.13839 -4.49644 0
M  V30 2770 C 260.214 4.09502 -5.46623 0
M  V30 2771 O 259.902 4.32426 -6.77689 0
M  V30 2772 H 259.634 0.591997 -0.326367 0
M  V30 2773 H 262.188 1.394 -1.50854 0
M  V30 2774 H 260.418 3.80805 -0.672667 0
M  V30 2775 H 262.107 3.9132 -1.07812 0
M  V30 2776 H 262.873 3.35865 -3.49885 0
M  V30 2777 H 258.752 3.92811 -2.41289 0
M  V30 2778 H 262.296 3.78182 -5.86195 0
M  V30 2779 H 258.193 4.35232 -4.767 0
M  V30 2780 H 258.961 4.49896 -6.83766 0
M  V30 2781 N 261.624 0.925811 1.2754 0
M  V30 2782 C 262.587 0.428129 2.25166 0
M  V30 2783 C 263.587 -0.452261 1.54309 0
M  V30 2784 O 264.777 -0.253608 1.72344 0
M  V30 2785 C 261.909 -0.384749 3.38722 0
M  V30 2786 H 263.102 1.29066 2.70706 0
M  V30 2787 H 260.655 0.706323 1.3943 0
M  V30 2788 H 261.39 -1.26618 2.98561 0
M  V30 2789 H 261.175 0.246454 3.91325 0
M  V30 2790 H 262.665 -0.723389 4.11287 0
M  V30 2791 N 263.102 -1.41638 0.69111 0
M  V30 2792 C 264.379 -1.95036 0.148421 0
M  V30 2793 C 264.759 -1.63072 -1.34055 0
M  V30 2794 O 264.107 -0.93538 -2.08478 0
M  V30 2795 C 264.317 -3.46279 0.434951 0
M  V30 2796 C 265.665 -4.23069 0.360275 0
M  V30 2797 O 266.689 -3.54277 0.369613 0
M  V30 2798 O 265.548 -5.45583 0.316534 0
M  V30 2799 H 262.642 -0.826908 0.0123654 0
M  V30 2800 H 265.188 -1.5138 0.766963 0
M  V30 2801 H 263.96 -3.6281 1.46576 0
M  V30 2802 H 263.583 -3.97019 -0.214787 0
M  V30 2803 N 264.58 -0.43555 -1.51462 0
M  V30 2804 C 265.829 0.133007 -2.01261 0
M  V30 2805 C 266.142 1.43942 -1.32439 0
M  V30 2806 O 267.348 2.09081 -1.73198 0
M  V30 2807 C 265.804 0.287581 -3.58749 0
M  V30 2808 C 265.412 -1.00829 -4.36506 0
M  V30 2809 C 267.156 0.810004 -4.167 0
M  V30 2810 C 265.063 -0.819454 -5.85695 0
M  V30 2811 H 263.993 0.0534822 -0.752101 0
M  V30 2812 H 266.644 -0.565038 -1.74584 0
M  V30 2813 H 265.026 1.04859 -3.81865 0
M  V30 2814 H 266.2 -1.77749 -4.25138 0
M  V30 2815 H 264.515 -1.45911 -3.89999 0
M  V30 2816 H 267.112 0.967743 -5.2587 0
M  V30 2817 H 267.455 1.79196 -3.75758 0
M  V30 2818 H 267.988 0.107357 -3.97655 0
M  V30 2819 H 264.727 -1.77374 -6.31046 0
M  V30 2820 H 264.247 -0.0900208 -5.99732 0
M  V30 2821 H 265.926 -0.471949 -6.45276 0
M  V30 2822 N 266.058 1.56714 -0.166846 0
M  V30 2823 C 267.307 1.95922 0.479318 0
M  V30 2824 C 267.62 1.05529 1.6469 0
M  V30 2825 O 268.826 1.34399 2.35901 0
M  V30 2826 C 267.282 3.48359 0.90412 0
M  V30 2827 C 266.89 4.47369 -0.237621 0
M  V30 2828 C 268.634 3.96394 1.51896 0
M  V30 2829 C 266.541 5.91039 0.206561 0
M  V30 2830 H 265.471 0.731495 0.18284 0
M  V30 2831 H 268.122 1.81728 -0.254363 0
M  V30 2832 H 266.504 3.57955 1.69365 0
M  V30 2833 H 267.678 4.49485 -1.01489 0
M  V30 2834 H 265.993 4.09366 -0.762128 0
M  V30 2835 H 268.59 5.01186 1.86325 0
M  V30 2836 H 268.933 3.39075 2.41524 0
M  V30 2837 H 269.466 3.89796 0.79395 0
M  V30 2838 H 266.205 6.52221 -0.654834 0
M  V30 2839 H 265.725 5.9224 0.949282 0
M  V30 2840 H 267.404 6.43707 0.651939 0
M  V30 2841 N 267.536 -0.106894 1.57237 0
M  V30 2842 C 268.468 -1.15646 1.97885 0
M  V30 2843 C 269.481 -1.36981 0.879779 0
M  V30 2844 O 270.67 -1.35841 1.15799 0
M  V30 2845 C 267.77 -2.51425 2.27241 0
M  V30 2846 C 266.943 -2.50529 3.58545 0
M  V30 2847 C 266.002 -3.68145 3.75973 0
M  V30 2848 O 265.028 -3.51176 4.47956 0
M  V30 2849 N 266.23 -4.87177 3.15656 0
M  V30 2850 H 268.995 -0.81059 2.8853 0
M  V30 2851 H 266.556 -0.296024 1.59171 0
M  V30 2852 H 268.548 -3.28689 2.36105 0
M  V30 2853 H 267.118 -2.78147 1.42663 0
M  V30 2854 H 266.338 -1.58894 3.60758 0
M  V30 2855 H 267.626 -2.46997 4.44826 0
M  V30 2856 H 267.024 -5.03868 2.57165 0
M  V30 2857 H 265.581 -5.62075 3.30023 0
M  V30 2858 N 269.014 -1.53014 -0.377408 0
M  V30 2859 C 270.263 -1.67845 -1.11853 0
M  V30 2860 C 270.576 -0.430625 -1.90801 0
M  V30 2861 O 271.782 -0.459261 -2.67587 0
M  V30 2862 C 270.238 -2.96668 -2.03756 0
M  V30 2863 C 269.846 -4.28671 -1.30175 0
M  V30 2864 C 271.59 -3.20865 -2.77932 0
M  V30 2865 C 269.497 -5.48591 -2.20911 0
M  V30 2866 H 268.427 -0.625343 -0.421263 0
M  V30 2867 H 271.078 -1.79514 -0.380409 0
M  V30 2868 H 269.46 -2.78773 -2.8125 0
M  V30 2869 H 270.634 -4.57157 -0.578259 0
M  V30 2870 H 268.949 -4.10825 -0.679108 0
M  V30 2871 H 271.546 -4.07642 -3.46024 0
M  V30 2872 H 271.889 -2.36424 -3.4265 0
M  V30 2873 H 272.422 -3.39379 -2.07525 0
M  V30 2874 H 269.161 -6.35474 -1.6079 0
M  V30 2875 H 268.681 -5.244 -2.91144 0
M  V30 2876 H 270.36 -5.8292 -2.80736 0
M  V30 2877 N 270.492 0.636531 -1.44174 0
M  V30 2878 C 271.74 1.39343 -1.46383 0
M  V30 2879 C 272.061 1.94766 -0.0955715 0
M  V30 2880 O 271.331 1.75452 0.871395 0
M  V30 2881 H 269.911 0.517199 -0.538994 0
M  V30 2882 H 272.573 0.74957 -1.7991 0
M  V30 2883 H 271.669 2.22746 -2.18611 0
M  V30 2884 N 271.97 1.30982 0.876444 0
M  V30 2885 C 272.933 1.18054 1.96459 0
M  V30 2886 C 273.933 0.109399 1.60427 0
M  V30 2887 O 275.123 0.358173 1.70478 0
M  V30 2888 C 272.255 0.810616 3.31122 0
M  V30 2889 H 273.448 2.14735 2.09354 0
M  V30 2890 H 271.001 1.145 1.06392 0
M  V30 2891 H 271.736 -0.155322 3.23928 0
M  V30 2892 H 271.521 1.58481 3.58645 0
M  V30 2893 H 273.011 0.743876 4.10921 0
M  V30 2894 N 273.449 -1.08991 1.13837 0
M  V30 2895 C 274.865 -1.33312 0.877506 0
M  V30 2896 C 275.065 -1.95587 -0.48456 0
M  V30 2897 O 274.121 -2.20509 -1.23013 0
M  V30 2898 C 275.434 -2.24045 2.0056 0
M  V30 2899 C 276.982 -2.37542 2.03821 0
M  V30 2900 C 277.457 -3.31614 3.15905 0
M  V30 2901 N 278.948 -3.39189 3.15445 0
M  V30 2902 C 279.683 -4.11992 3.98811 0
M  V30 2903 N 279.179 -4.87553 4.92203 0
M  V30 2904 N 280.972 -4.07762 3.86894 0
M  V30 2905 H 273.123 -0.669456 2.01574 0
M  V30 2906 H 275.386 -0.357482 0.878015 0
M  V30 2907 H 275.092 -1.85521 2.98789 0
M  V30 2908 H 274.966 -3.24466 1.92359 0
M  V30 2909 H 277.353 -2.75327 1.06202 0
M  V30 2910 H 277.434 -1.36884 2.16093 0
M  V30 2911 H 277.078 -2.94551 4.13766 0
M  V30 2912 H 277.008 -4.32186 3.0087 0
M  V30 2913 H 279.499 -2.85314 2.47799 0
M  V30 2914 H 279.812 -5.40549 5.52292 0
M  V30 2915 H 278.157 -4.86627 4.96205 0
M  V30 2916 H 281.348 -3.47833 3.13257 0
M  V30 2917 H 281.521 -4.64238 4.52092 0
M  V30 2918 N 274.927 -0.932562 -1.27047 0
M  V30 2919 C 275.875 -0.42603 -2.28665 0
M  V30 2920 C 276.869 0.49219 -1.62092 0
M  V30 2921 O 278.075 0.371355 -1.76128 0
M  V30 2922 H 274.45 -0.119213 -0.742491 0
M  V30 2923 H 276.421 -1.29579 -2.68797 0
M  V30 2924 C 275.17 0.301426 -3.46391 0
M  V30 2925 H 274.493 -0.39595 -3.97834 0
M  V30 2926 H 275.933 0.6202 -4.1944 0
M  V30 2927 C 274.392 1.51616 -3.00856 0
M  V30 2928 O 274.922 2.61476 -3.04948 0
M  V30 2929 N 273.128 1.36969 -2.56296 0
M  V30 2930 H 272.675 0.475873 -2.53166 0
M  V30 2931 H 272.633 2.18368 -2.26192 0
M  V30 2932 N 276.405 1.4127 -0.698611 0
M  V30 2933 C 277.368 2.29158 -0.044132 0
M  V30 2934 C 278.368 1.44529 0.704841 0
M  V30 2935 O 279.558 1.65643 0.539276 0
M  V30 2936 C 276.69 3.27459 0.947809 0
M  V30 2937 H 277.883 2.88529 -0.817994 0
M  V30 2938 H 275.436 1.49307 -0.46228 0
M  V30 2939 H 276.171 2.73073 1.74933 0
M  V30 2940 H 275.956 3.8991 0.41385 0
M  V30 2941 H 277.446 3.93311 1.40344 0
M  V30 2942 N 277.883 0.443576 1.51229 0
M  V30 2943 C 278.815 -0.400608 2.25672 0
M  V30 2944 C 279.828 -0.980945 1.29928 0
M  V30 2945 O 281.017 -0.874024 1.55638 0
M  V30 2946 C 278.117 -1.57304 3.00181 0
M  V30 2947 C 277.29 -1.11046 4.23069 0
M  V30 2948 C 276.349 -2.15374 4.80105 0
M  V30 2949 O 275.375 -1.74554 5.41774 0
M  V30 2950 N 276.577 -3.47922 4.64683 0
M  V30 2951 H 279.342 0.23745 2.98758 0
M  V30 2952 H 276.903 0.272809 1.59585 0
M  V30 2953 H 278.895 -2.26733 3.35223 0
M  V30 2954 H 277.465 -2.11632 2.30066 0
M  V30 2955 H 276.685 -0.243019 3.9345 0
M  V30 2956 H 277.973 -0.778888 5.02803 0
M  V30 2957 H 277.371 -3.83815 4.15575 0
M  V30 2958 H 275.928 -4.13228 5.0407 0
M  V30 2959 N 279.361 -1.56624 0.175154 0
M  V30 2960 C 280.309 -2.19468 -0.770495 0
M  V30 2961 C 281.303 -1.15985 -1.23466 0
M  V30 2962 O 282.509 -1.34176 -1.19987 0
M  V30 2963 H 278.884 -0.703095 -0.266761 0
M  V30 2964 H 280.855 -2.97613 -0.216542 0
M  V30 2965 C 279.604 -2.85264 -1.98796 0
M  V30 2966 H 278.927 -3.64623 -1.63983 0
M  V30 2967 H 280.367 -3.327 -2.62843 0
M  V30 2968 C 278.826 -1.85239 -2.81404 0
M  V30 2969 O 279.356 -1.34024 -3.78682 0
M  V30 2970 N 277.562 -1.53911 -2.46495 0
M  V30 2971 H 277.109 -1.95751 -1.67449 0
M  V30 2972 H 277.067 -0.872382 -3.02054 0
M  V30 2973 N 280.839 0.0985539 -1.57292 0
M  V30 2974 C 282.086 0.802678 -1.85912 0
M  V30 2975 C 282.414 1.78901 -0.763186 0
M  V30 2976 O 281.669 1.94178 0.243559 0
M  V30 2977 C 281.968 1.56927 -3.21105 0
M  V30 2978 C 281.634 0.725376 -4.45027 0
M  V30 2979 C 280.296 0.492726 -4.78671 0
M  V30 2980 C 282.648 0.138493 -5.21016 0
M  V30 2981 C 279.976 -0.336727 -5.85733 0
M  V30 2982 C 282.328 -0.678264 -6.28953 0
M  V30 2983 C 280.992 -0.921039 -6.61115 0
M  V30 2984 H 280.262 0.293721 -0.680301 0
M  V30 2985 H 282.909 0.0642841 -1.91392 0
M  V30 2986 H 281.214 2.37914 -3.11294 0
M  V30 2987 H 282.911 2.11841 -3.40477 0
M  V30 2988 H 279.501 0.916815 -4.18679 0
M  V30 2989 H 283.685 0.305404 -4.95359 0
M  V30 2990 H 278.941 -0.533836 -6.09065 0
M  V30 2991 H 283.115 -1.1399 -6.87007 0
M  V30 2992 H 280.742 -1.56556 -7.43905 0
M  V30 2993 N 282.317 1.53212 0.369288 0
M  V30 2994 C 283.733 1.42902 0.710712 0
M  V30 2995 C 283.933 0.565135 1.93413 0
M  V30 2996 O 282.989 0.0461484 2.52458 0
M  V30 2997 C 284.302 2.86042 0.927382 0
M  V30 2998 C 285.85 2.9565 1.02762 0
M  V30 2999 C 286.325 4.39843 1.27679 0
M  V30 3000 N 287.816 4.43256 1.34457 0
M  V30 3001 C 288.551 5.51929 1.55439 0
M  V30 3002 N 288.047 6.70655 1.73762 0
M  V30 3003 N 289.84 5.39502 1.57779 0
M  V30 3004 H 281.991 2.07888 -0.435457 0
M  V30 3005 H 284.254 0.938661 -0.132739 0
M  V30 3006 H 283.96 3.51557 0.100287 0
M  V30 3007 H 283.834 3.29472 1.83653 0
M  V30 3008 H 286.221 2.30291 1.84527 0
M  V30 3009 H 286.302 2.5562 0.0959504 0
M  V30 3010 H 285.946 5.05774 0.464175 0
M  V30 3011 H 285.876 4.77443 2.22162 0
M  V30 3012 H 288.367 3.5769 1.21926 0
M  V30 3013 H 288.68 7.49248 1.89335 0
M  V30 3014 H 287.025 6.73648 1.70948 0
M  V30 3015 H 290.216 4.45713 1.43029 0
M  V30 3016 H 290.389 6.2426 1.7379 0
M  V30 3017 N 283.795 -0.628877 1.44509 0
M  V30 3018 C 284.725 -1.75187 1.54376 0
M  V30 3019 C 285.706 -1.65411 0.396618 0
M  V30 3020 O 286.891 -1.84137 0.617031 0
M  V30 3021 C 284.021 -3.13725 1.48976 0
M  V30 3022 C 282.975 -3.38291 2.62189 0
M  V30 3023 C 282.301 -4.76883 2.41841 0
M  V30 3024 C 283.601 -3.30632 4.04326 0
M  V30 3025 H 285.295 -1.67187 2.48373 0
M  V30 3026 H 282.841 -0.802909 1.19538 0
M  V30 3027 H 284.794 -3.92064 1.54478 0
M  V30 3028 H 283.518 -3.22515 0.514961 0
M  V30 3029 H 282.177 -2.62334 2.56079 0
M  V30 3030 H 281.825 -4.82378 1.42548 0
M  V30 3031 H 281.525 -4.94278 3.17747 0
M  V30 3032 H 283.049 -5.57449 2.49165 0
M  V30 3033 H 284.463 -3.98873 4.11793 0
M  V30 3034 H 282.86 -3.59561 4.80454 0
M  V30 3035 H 283.93 -2.28404 4.27738 0
M  V30 3036 N 285.273 -1.31445 -0.869486 0
M  V30 3037 C 286.203 -1.21727 -1.99261 0
M  V30 3038 C 287.184 -0.104359 -1.6978 0
M  V30 3039 O 288.369 -0.289038 -1.92037 0
M  V30 3040 C 285.499 -0.924317 -3.34774 0
M  V30 3041 C 284.453 -1.99685 -3.78563 0
M  V30 3042 C 283.779 -1.55658 -5.11541 0
M  V30 3043 C 285.079 -3.41003 -3.95619 0
M  V30 3044 H 286.773 -2.1569 -2.07649 0
M  V30 3045 H 284.319 -1.03839 -0.997675 0
M  V30 3046 H 286.272 -0.842934 -4.12883 0
M  V30 3047 H 284.996 0.0509793 -3.2656 0
M  V30 3048 H 283.655 -2.06813 -3.02694 0
M  V30 3049 H 283.303 -0.569132 -4.9977 0
M  V30 3050 H 283.003 -2.27409 -5.41811 0
M  V30 3051 H 284.527 -1.48928 -5.92159 0
M  V30 3052 H 285.941 -3.36547 -4.64122 0
M  V30 3053 H 284.338 -4.10975 -4.37286 0
M  V30 3054 H 285.408 -3.81754 -2.98985 0
M  V30 3055 N 286.751 1.08385 -1.14413 0
M  V30 3056 C 287.976 1.85057 -0.936413 0
M  V30 3057 C 288.401 1.81055 0.509971 0
M  V30 3058 O 287.759 1.1958 1.36273 0
M  V30 3059 C 287.807 3.30505 -1.44217 0
M  V30 3060 O 286.911 4.07491 -0.634409 0
M  V30 3061 H 286.252 0.573425 -0.334784 0
M  V30 3062 H 288.782 1.36799 -1.52142 0
M  V30 3063 H 288.792 3.81348 -1.45043 0
M  V30 3064 H 287.467 3.32734 -2.49522 0
M  V30 3065 H 286.044 3.66368 -0.694902 0
M  V30 3066 N 288.23 0.939286 1.26551 0
M  V30 3067 C 289.177 0.446088 2.26448 0
M  V30 3068 C 290.147 -0.493234 1.58608 0
M  V30 3069 O 291.332 -0.409857 1.86346 0
M  V30 3070 C 288.472 -0.284375 3.43926 0
M  V30 3071 C 287.585 0.690399 4.26448 0
M  V30 3072 C 286.72 -0.0610712 5.31165 0
M  V30 3073 C 285.759 0.905649 6.05363 0
M  V30 3074 N 284.896 0.186055 7.01853 0
M  V30 3075 H 289.736 1.30291 2.68008 0
M  V30 3076 H 287.273 0.65371 1.31776 0
M  V30 3077 H 289.231 -0.724313 4.10864 0
M  V30 3078 H 287.861 -1.10535 3.03285 0
M  V30 3079 H 286.913 1.24885 3.59316 0
M  V30 3080 H 288.225 1.42873 4.779 0
M  V30 3081 H 287.379 -0.56038 6.04106 0
M  V30 3082 H 286.118 -0.832297 4.80546 0
M  V30 3083 H 285.123 1.4161 5.3125 0
M  V30 3084 H 286.348 1.67685 6.58072 0
M  V30 3085 H 284.294 -0.566714 6.53548 0
M  V30 3086 H 284.211 0.863752 7.51049 0
M  V30 3087 H 285.479 -0.292221 7.78952 0
M  V30 3088 N 289.708 -1.40897 0.706093 0
M  V30 3089 C 290.671 -2.29131 0.0562841 0
M  V30 3090 C 291.671 -1.44901 -0.697166 0
M  V30 3091 O 292.861 -1.65926 -0.530484 0
M  V30 3092 C 289.993 -3.27957 -0.93043 0
M  V30 3093 H 291.186 -2.88091 0.833284 0
M  V30 3094 H 288.739 -1.4906 0.470192 0
M  V30 3095 H 289.474 -2.73997 -1.73482 0
M  V30 3096 H 289.259 -3.90124 -0.393166 0
M  V30 3097 H 290.749 -3.94049 -1.38256 0
M  V30 3098 N 291.186 -0.45159 -1.50991 0
M  V30 3099 C 292.434 0.109857 -2.01801 0
M  V30 3100 C 292.755 1.41958 -1.3369 0
M  V30 3101 O 292.025 1.9003 -0.475951 0
M  V30 3102 H 290.605 0.0435884 -0.745727 0
M  V30 3103 H 293.267 -0.597557 -1.85514 0
M  V30 3104 H 292.363 0.275489 -3.10882 0
M  V30 3105 N 292.664 1.56529 -0.183458 0
M  V30 3106 C 293.889 2.02064 0.467428 0
M  V30 3107 C 294.314 1.06282 1.55196 0
M  V30 3108 O 293.672 0.0443565 1.81246 0
M  V30 3109 C 293.72 3.46122 1.01153 0
M  V30 3110 O 292.824 3.53437 2.12499 0
M  V30 3111 H 292.165 0.654726 0.110588 0
M  V30 3112 H 294.695 2.02521 -0.290917 0
M  V30 3113 H 294.705 3.85676 1.33108 0
M  V30 3114 H 293.38 4.15331 0.217533 0
M  V30 3115 H 291.957 3.2575 1.81497 0
M  V30 3116 N 294.142 -0.090211 1.57342 0
M  V30 3117 C 295.372 -0.805055 1.90269 0
M  V30 3118 C 295.78 -1.72561 0.775842 0
M  V30 3119 O 295.123 -1.81839 -0.260843 0
M  V30 3120 C 295.185 -1.66734 3.18497 0
M  V30 3121 C 294.849 -0.918092 4.47683 0
M  V30 3122 C 295.846 -0.245674 5.19319 0
M  V30 3123 C 293.531 -0.890724 4.94339 0
M  V30 3124 C 295.525 0.444088 6.35851 0
M  V30 3125 C 293.212 -0.197179 6.10782 0
M  V30 3126 C 294.21 0.469044 6.81388 0
M  V30 3127 O 293.898 1.15146 7.95611 0
M  V30 3128 H 293.63 -0.235143 0.633785 0
M  V30 3129 H 296.184 -0.0703805 2.05279 0
M  V30 3130 H 294.414 -2.44437 2.99646 0
M  V30 3131 H 296.103 -2.25919 3.37217 0
M  V30 3132 H 296.869 -0.258246 4.84312 0
M  V30 3133 H 292.748 -1.39873 4.39268 0
M  V30 3134 H 296.292 0.964667 6.90898 0
M  V30 3135 H 292.189 -0.18247 6.45242 0
M  V30 3136 H 292.957 1.05885 8.11622 0
M  V30 3137 N 295.62 -1.53406 -0.361157 0
M  V30 3138 C 296.568 -1.80832 -1.46296 0
M  V30 3139 C 297.562 -0.677699 -1.55253 0
M  V30 3140 O 298.768 -0.860723 -1.58087 0
M  V30 3141 H 295.143 -0.572627 -0.487445 0
M  V30 3142 H 297.114 -2.73045 -1.20371 0
M  V30 3143 C 295.863 -2.01907 -2.8307 0
M  V30 3144 H 295.186 -2.88349 -2.76938 0
M  V30 3145 H 296.626 -2.25072 -3.59331 0
M  V30 3146 C 295.085 -0.799449 -3.27277 0
M  V30 3147 O 295.615 0.00971761 -4.01699 0
M  V30 3148 N 293.821 -0.621637 -2.83873 0
M  V30 3149 H 293.368 -1.28126 -2.23476 0
M  V30 3150 H 293.326 0.19298 -3.13807 0
M  V30 3151 N 297.098 0.621204 -1.44841 0
M  V30 3152 C 298.045 1.73267 -1.5247 0
M  V30 3153 C 299.015 1.6189 -0.371611 0
M  V30 3154 O 300.2 1.81668 -0.58321 0
M  V30 3155 C 297.34 3.11545 -1.48438 0
M  V30 3156 C 296.453 3.33827 -2.74196 0
M  V30 3157 C 295.588 4.62133 -2.61929 0
M  V30 3158 C 294.627 4.77627 -3.82804 0
M  V30 3159 N 293.764 5.97219 -3.69153 0
M  V30 3160 H 298.604 1.66082 -2.47428 0
M  V30 3161 H 296.141 0.810026 -1.22788 0
M  V30 3162 H 298.099 3.91528 -1.4409 0
M  V30 3163 H 296.729 3.1772 -0.570402 0
M  V30 3164 H 295.781 2.47715 -2.88689 0
M  V30 3165 H 297.093 3.41153 -3.6389 0
M  V30 3166 H 296.247 5.50291 -2.5547 0
M  V30 3167 H 294.986 4.57182 -1.69811 0
M  V30 3168 H 293.991 3.87896 -3.89637 0
M  V30 3169 H 295.216 4.84385 -4.75971 0
M  V30 3170 H 293.162 5.93339 -2.79794 0
M  V30 3171 H 293.079 6.05644 -4.52472 0
M  V30 3172 H 294.347 6.87912 -3.66603 0
M  V30 3173 N 298.576 1.31904 0.862503 0
M  V30 3174 C 299.987 1.19803 1.43193 0
M  V30 3175 C 300.338 -0.192567 1.95253 0
M  V30 3176 O 299.463 -1.09081 1.86896 0
M  V30 3177 C 300.058 2.16883 2.60283 0
M  V30 3178 C 298.617 2.08692 3.13248 0
M  V30 3179 C 297.764 2.05691 1.85975 0
M  V30 3180 H 300.715 1.43846 0.670365 0
M  V30 3181 H 300.736 1.76278 3.37204 0
M  V30 3182 H 300.248 3.18083 2.22363 0
M  V30 3183 H 298.349 1.10713 3.55771 0
M  V30 3184 H 298.462 2.9815 3.75025 0
M  V30 3185 H 296.826 1.50814 2.05249 0
M  V30 3186 H 297.609 3.08659 1.50282 0
M  V30 3187 N 300.054 -1.07777 1.14986 0
M  V30 3188 C 301.3 -1.80557 0.923422 0
M  V30 3189 C 301.633 -1.86298 -0.548337 0
M  V30 3190 O 300.908 -1.34354 -1.40639 0
M  V30 3191 C 301.191 -3.25839 1.53299 0
M  V30 3192 C 301.044 -3.28269 3.07505 0
M  V30 3193 C 302.363 -4.22991 1.21518 0
M  V30 3194 H 299.482 -0.655493 0.336894 0
M  V30 3195 H 302.124 -1.26144 1.42083 0
M  V30 3196 H 300.274 -3.72306 1.10999 0
M  V30 3197 H 301.946 -2.90079 3.58681 0
M  V30 3198 H 300.189 -2.67355 3.4162 0
M  V30 3199 H 300.86 -4.30691 3.45266 0
M  V30 3200 H 303.336 -3.84894 1.581 0
M  V30 3201 H 302.212 -5.22945 1.66793 0
M  V30 3202 H 302.473 -4.41904 0.131505 0
M  V30 3203 N 301.532 -0.945985 -1.26051 0
M  V30 3204 C 302.462 -0.477172 -2.28572 0
M  V30 3205 C 303.443 0.472032 -1.63419 0
M  V30 3206 O 304.628 0.372853 -1.90587 0
M  V30 3207 C 301.758 0.253975 -3.4637 0
M  V30 3208 C 300.712 -0.609135 -4.23643 0
M  V30 3209 C 300.038 0.252252 -5.34105 0
M  V30 3210 C 301.338 -1.8829 -4.8718 0
M  V30 3211 H 303.032 -1.33402 -2.68038 0
M  V30 3212 H 300.578 -0.642904 -1.28852 0
M  V30 3213 H 302.531 0.593016 -4.17207 0
M  V30 3214 H 301.255 1.145 -3.05871 0
M  V30 3215 H 299.914 -0.931138 -3.54578 0
M  V30 3216 H 299.562 1.14278 -4.89846 0
M  V30 3217 H 299.262 -0.32188 -5.86718 0
M  V30 3218 H 300.786 0.586454 -6.07777 0
M  V30 3219 H 302.2 -1.61081 -5.50205 0
M  V30 3220 H 300.597 -2.40199 -5.49931 0
M  V30 3221 H 301.667 -2.59134 -4.09851 0
M  V30 3222 N 303.011 1.40521 -0.713556 0
M  V30 3223 C 303.941 2.33381 -0.0743864 0
M  V30 3224 C 304.922 1.52784 0.747735 0
M  V30 3225 O 306.107 1.81258 0.697071 0
M  V30 3226 C 303.237 3.36748 0.849598 0
M  V30 3227 C 302.191 4.27793 0.133247 0
M  V30 3228 C 301.517 5.21679 1.17281 0
M  V30 3229 C 302.817 5.12415 -1.01134 0
M  V30 3230 H 304.511 2.87081 -0.850007 0
M  V30 3231 H 302.057 1.38034 -0.410201 0
M  V30 3232 H 304.01 4.00648 1.30612 0
M  V30 3233 H 302.734 2.81439 1.65709 0
M  V30 3234 H 301.393 3.65342 -0.303426 0
M  V30 3235 H 301.041 4.62677 1.9733 0
M  V30 3236 H 300.741 5.83435 0.698397 0
M  V30 3237 H 302.265 5.88456 1.62947 0
M  V30 3238 H 303.679 5.69781 -0.634274 0
M  V30 3239 H 302.076 5.83203 -1.41399 0
M  V30 3240 H 303.146 4.48514 -1.84292 0
M  V30 3241 N 304.489 0.459591 1.5075 0
M  V30 3242 C 305.436 -0.340524 2.28274 0
M  V30 3243 C 306.406 -0.997371 1.32822 0
M  V30 3244 O 307.591 -1.01202 1.61749 0
M  V30 3245 C 304.731 -1.42317 3.14388 0
M  V30 3246 C 303.844 -0.782251 4.24859 0
M  V30 3247 C 302.979 -1.84182 4.98247 0
M  V30 3248 C 302.018 -1.18053 6.00608 0
M  V30 3249 N 301.155 -2.18244 6.67319 0
M  V30 3250 H 305.995 0.326899 2.96202 0
M  V30 3251 H 303.532 0.173057 1.46078 0
M  V30 3252 H 305.49 -2.06241 3.62658 0
M  V30 3253 H 304.12 -2.05992 2.4853 0
M  V30 3254 H 303.172 -0.0307404 3.80388 0
M  V30 3255 H 304.484 -0.259663 4.98124 0
M  V30 3256 H 303.638 -2.55714 5.50177 0
M  V30 3257 H 302.377 -2.39819 4.24662 0
M  V30 3258 H 301.382 -0.450776 5.47949 0
M  V30 3259 H 302.607 -0.631202 6.7616 0
M  V30 3260 H 300.553 -2.72919 5.96533 0
M  V30 3261 H 300.47 -1.70938 7.36421 0
M  V30 3262 H 301.738 -2.89191 7.23871 0
M  V30 3263 N 305.967 -1.56429 0.191757 0
M  V30 3264 C 307.383 -1.58754 -0.164137 0
M  V30 3265 C 307.583 -1.20782 -1.61288 0
M  V30 3266 O 306.639 -0.928999 -2.34789 0
M  V30 3267 C 307.952 -3.00396 0.135195 0
M  V30 3268 C 309.5 -3.1291 0.0750351 0
M  V30 3269 C 309.975 -4.56679 0.347632 0
M  V30 3270 N 311.466 -4.62252 0.296131 0
M  V30 3271 C 312.201 -5.71379 0.480948 0
M  V30 3272 N 311.697 -6.88986 0.725933 0
M  V30 3273 N 313.49 -5.60563 0.415435 0
M  V30 3274 H 305.641 -1.79393 1.13718 0
M  V30 3275 H 307.904 -0.832414 0.453643 0
M  V30 3276 H 307.61 -3.32726 1.13958 0
M  V30 3277 H 307.484 -3.72963 -0.563773 0
M  V30 3278 H 309.871 -2.80394 -0.919948 0
M  V30 3279 H 309.952 -2.42736 0.807029 0
M  V30 3280 H 309.596 -4.89907 1.33992 0
M  V30 3281 H 309.526 -5.25039 -0.405212 0
M  V30 3282 H 312.017 -3.7773 0.113259 0
M  V30 3283 H 312.33 -7.68046 0.855857 0
M  V30 3284 H 310.675 -6.90801 0.762788 0
M  V30 3285 H 313.866 -4.67561 0.224486 0
M  V30 3286 H 314.039 -6.45551 0.562889 0
M  V30 3287 N 307.445 0.0818655 -1.57387 0
M  V30 3288 C 308.693 0.781368 -1.86384 0
M  V30 3289 C 309.014 1.78618 -0.782342 0
M  V30 3290 O 308.284 1.94976 0.190061 0
M  V30 3291 H 306.864 0.291562 -0.687751 0
M  V30 3292 H 309.526 0.060348 -1.94807 0
M  V30 3293 H 308.622 1.3038 -2.83562 0
M  V30 3294 N 308.923 1.53595 0.353017 0
M  V30 3295 C 310.17 1.70385 1.09431 0
M  V30 3296 C 310.498 0.462113 1.88931 0
M  V30 3297 O 309.753 -0.556074 1.87633 0
M  V30 3298 C 310.052 2.91313 2.07054 0
M  V30 3299 C 309.718 4.27308 1.43939 0
M  V30 3300 C 308.38 4.64287 1.26454 0
M  V30 3301 C 310.732 5.11829 0.983883 0
M  V30 3302 C 308.06 5.83412 0.620226 0
M  V30 3303 C 310.412 6.31611 0.353516 0
M  V30 3304 C 309.076 6.67293 0.166272 0
M  V30 3305 H 308.346 0.623484 0.400436 0
M  V30 3306 H 310.993 1.87799 0.374655 0
M  V30 3307 H 309.298 2.68463 2.85368 0
M  V30 3308 H 310.995 3.01497 2.64387 0
M  V30 3309 H 307.585 3.98198 1.58543 0
M  V30 3310 H 311.769 4.838 1.10685 0
M  V30 3311 H 307.025 6.09639 0.463681 0
M  V30 3312 H 311.199 6.964 -0.00757555 0
M  V30 3313 H 308.826 7.59461 -0.335047 0
M  V30 3314 N 310.401 -0.613514 1.45168 0
M  V30 3315 C 311.334 -1.73809 1.47871 0
M  V30 3316 C 312.312 -1.59097 0.33568 0
M  V30 3317 O 313.496 -1.8074 0.535299 0
M  V30 3318 C 310.623 -3.11574 1.32813 0
M  V30 3319 C 309.669 -3.4489 2.50905 0
M  V30 3320 S 310.502 -3.40393 4.13392 0
M  V30 3321 C 311.658 -4.80749 4.00789 0
M  V30 3322 H 311.891 -1.71252 2.43023 0
M  V30 3323 H 309.424 -0.789658 1.32679 0
M  V30 3324 H 311.382 -3.91065 1.24812 0
M  V30 3325 H 310.043 -3.11652 0.391418 0
M  V30 3326 H 309.236 -4.45183 2.36279 0
M  V30 3327 H 308.838 -2.72901 2.55736 0
M  V30 3328 H 311.13 -5.7041 3.65567 0
M  V30 3329 H 312.073 -5.00431 5.00974 0
M  V30 3330 H 312.481 -4.56151 3.32545 0
M  V30 3331 N 311.879 -1.3236 -0.855495 0
M  V30 3332 C 312.827 -1.2118 -1.9854 0
M  V30 3333 C 313.821 -0.116788 -1.68997 0
M  V30 3334 O 315.027 -0.279657 -1.77814 0
M  V30 3335 H 311.402 -0.375608 -0.651477 0
M  V30 3336 H 313.373 -2.16743 -2.05098 0
M  V30 3337 C 312.122 -0.950849 -3.34446 0
M  V30 3338 H 311.445 -1.78563 -3.57708 0
M  V30 3339 H 312.885 -0.912863 -4.14057 0
M  V30 3340 C 311.344 0.346404 -3.35114 0
M  V30 3341 O 311.874 1.35855 -3.7803 0
M  V30 3342 N 310.08 0.36808 -2.88259 0
M  V30 3343 H 309.627 -0.456102 -2.5353 0
M  V30 3344 H 309.585 1.23591 -2.89089 0
M  V30 3345 N 313.357 1.07166 -1.15556 0
M  V30 3346 C 314.585 1.83514 -0.955519 0
M  V30 3347 C 315 1.82163 0.49621 0
M  V30 3348 O 314.357 1.23441 1.34419 0
M  V30 3349 C 314.408 3.30515 -1.46432 0
M  V30 3350 O 314.129 3.31937 -2.85918 0
M  V30 3351 C 315.63 4.23625 -1.30603 0
M  V30 3352 H 312.85 0.578926 -0.339244 0
M  V30 3353 H 315.394 1.35265 -1.53374 0
M  V30 3354 H 313.549 3.76106 -0.928584 0
M  V30 3355 H 313.963 4.23794 -3.09029 0
M  V30 3356 H 315.437 5.24831 -1.71047 0
M  V30 3357 H 315.914 4.38485 -0.250441 0
M  V30 3358 H 316.52 3.83871 -1.83094 0
M  V30 3359 N 314.835 0.952656 1.25548 0
M  V30 3360 C 316.084 0.602053 1.92505 0
M  V30 3361 C 316.397 -0.864663 1.75451 0
M  V30 3362 O 317.603 -1.32514 2.36965 0
M  V30 3363 C 316.059 1.02607 3.44963 0
M  V30 3364 C 315.667 2.51519 3.70732 0
M  V30 3365 C 317.411 0.747905 4.1786 0
M  V30 3366 C 315.318 2.87732 5.16686 0
M  V30 3367 H 314.248 0.22146 0.720744 0
M  V30 3368 H 316.899 1.15684 1.42441 0
M  V30 3369 H 315.281 0.399712 3.93978 0
M  V30 3370 H 316.455 3.19157 3.32378 0
M  V30 3371 H 314.77 2.76786 3.11092 0
M  V30 3372 H 317.367 0.994647 5.25367 0
M  V30 3373 H 317.71 -0.315629 4.15102 0
M  V30 3374 H 318.243 1.33452 3.74747 0
M  V30 3375 H 314.982 3.93095 5.24554 0
M  V30 3376 H 314.502 2.24765 5.56094 0
M  V30 3377 H 316.181 2.76817 5.84792 0
M  V30 3378 N 316.313 -1.40141 0.720998 0
M  V30 3379 C 317.223 -2.34486 0.0731031 0
M  V30 3380 C 318.239 -1.57587 -0.737723 0
M  V30 3381 O 319.415 -1.89949 -0.669429 0
M  V30 3382 C 316.48 -3.36528 -0.833656 0
M  V30 3383 C 315.541 -4.29298 -0.0121673 0
M  V30 3384 C 314.774 -5.26466 -0.875742 0
M  V30 3385 O 314.997 -5.29745 -2.11485 0
M  V30 3386 O 313.931 -6.01092 -0.31185 0
M  V30 3387 H 317.757 -2.9152 0.851444 0
M  V30 3388 H 315.342 -1.41427 0.481527 0
M  V30 3389 H 317.224 -3.99093 -1.35289 0
M  V30 3390 H 315.899 -2.81899 -1.59105 0
M  V30 3391 H 314.806 -3.70001 0.552262 0
M  V30 3392 H 316.139 -4.87094 0.707129 0
M  V30 3393 N 317.792 -0.46758 -1.50504 0
M  V30 3394 C 318.702 0.33382 -2.32213 0
M  V30 3395 C 319.718 0.999323 -1.42441 0
M  V30 3396 O 320.894 0.988068 -1.75497 0
M  V30 3397 C 317.959 1.4035 -3.17022 0
M  V30 3398 C 317.02 0.754961 -4.2261 0
M  V30 3399 C 316.253 1.77367 -5.03365 0
M  V30 3400 O 316.476 2.99976 -4.8515 0
M  V30 3401 O 315.41 1.34744 -5.86624 0
M  V30 3402 H 319.236 -0.334067 -3.01857 0
M  V30 3403 H 316.821 -0.229496 -1.47627 0
M  V30 3404 H 318.703 2.02318 -3.69656 0
M  V30 3405 H 317.378 2.05492 -2.5011 0
M  V30 3406 H 316.285 0.0964244 -3.73976 0
M  V30 3407 H 317.618 0.146545 -4.91982 0
M  V30 3408 N 319.27 1.56325 -0.20005 0
M  V30 3409 C 320.517 1.97719 0.437411 0
M  V30 3410 C 320.845 1.08709 1.61284 0
M  V30 3411 O 320.1 0.127261 1.95286 0
M  V30 3412 C 320.399 3.4495 0.935103 0
M  V30 3413 C 320.065 4.5072 -0.12749 0
M  V30 3414 C 318.727 4.79368 -0.419451 0
M  V30 3415 C 321.079 5.14268 -0.847231 0
M  V30 3416 C 318.407 5.68854 -1.43604 0
M  V30 3417 C 320.759 6.04852 -1.85301 0
M  V30 3418 C 319.423 6.31855 -2.15211 0
M  V30 3419 H 318.693 0.723507 0.16006 0
M  V30 3420 H 321.34 1.89166 -0.298056 0
M  V30 3421 H 319.645 3.50599 1.74894 0
M  V30 3422 H 321.342 3.74337 1.43781 0
M  V30 3423 H 317.932 4.28458 0.11023 0
M  V30 3424 H 322.116 4.92222 -0.634901 0
M  V30 3425 H 317.372 5.88047 -1.67364 0
M  V30 3426 H 321.546 6.53152 -2.41591 0
M  V30 3427 H 319.173 7.00994 -2.94129 0
M  V30 3428 N 320.748 -0.0735177 1.57428 0
M  V30 3429 C 321.678 -1.0879 2.06608 0
M  V30 3430 C 322.659 -1.40473 0.959237 0
M  V30 3431 O 323.844 -1.5013 1.23185 0
M  V30 3432 C 320.974 -2.40183 2.50857 0
M  V30 3433 C 319.928 -2.22858 3.65402 0
M  V30 3434 C 319.254 -3.59619 3.957 0
M  V30 3435 C 320.554 -1.65123 4.95511 0
M  V30 3436 H 322.248 -0.678673 2.91607 0
M  V30 3437 H 319.794 -0.325013 1.40284 0
M  V30 3438 H 321.747 -3.11437 2.83874 0
M  V30 3439 H 320.471 -2.83083 1.62885 0
M  V30 3440 H 319.13 -1.54045 3.32664 0
M  V30 3441 H 318.778 -4.00086 3.04861 0
M  V30 3442 H 318.478 -3.48866 4.72828 0
M  V30 3443 H 320.002 -4.32306 4.31212 0
M  V30 3444 H 321.416 -2.26241 5.26771 0
M  V30 3445 H 319.813 -1.65071 5.7695 0
M  V30 3446 H 320.883 -0.612559 4.81015 0
M  V30 3447 N 322.226 -1.5378 -0.344866 0
M  V30 3448 C 323.156 -1.84662 -1.42906 0
M  V30 3449 C 324.137 -0.701648 -1.54955 0
M  V30 3450 O 325.322 -0.953438 -1.69184 0
M  V30 3451 C 322.452 -2.05503 -2.79974 0
M  V30 3452 C 321.406 -3.21318 -2.82734 0
M  V30 3453 C 320.732 -3.2749 -4.22675 0
M  V30 3454 C 322.032 -4.59456 -2.48389 0
M  V30 3455 H 323.726 -2.75461 -1.17311 0
M  V30 3456 H 321.272 -1.32542 -0.562896 0
M  V30 3457 H 323.225 -2.25691 -3.55867 0
M  V30 3458 H 321.949 -1.11434 -3.07002 0
M  V30 3459 H 320.608 -3.00984 -2.09294 0
M  V30 3460 H 320.256 -2.31019 -4.4681 0
M  V30 3461 H 319.956 -4.05316 -4.25433 0
M  V30 3462 H 321.48 -3.49887 -5.00412 0
M  V30 3463 H 322.894 -4.79667 -3.13995 0
M  V30 3464 H 321.291 -5.39675 -2.62432 0
M  V30 3465 H 322.361 -4.63155 -1.4358 0
M  V30 3466 N 323.704 0.605807 -1.45491 0
M  V30 3467 C 324.929 1.39625 -1.53361 0
M  V30 3468 C 325.354 1.87351 -0.167645 0
M  V30 3469 O 324.712 1.60243 0.848051 0
M  V30 3470 C 324.76 2.57559 -2.5238 0
M  V30 3471 O 323.864 3.58248 -2.04285 0
M  V30 3472 H 323.205 0.416771 -0.516912 0
M  V30 3473 H 325.735 0.737103 -1.90861 0
M  V30 3474 H 325.745 3.0478 -2.71244 0
M  V30 3475 H 324.42 2.22171 -3.51586 0
M  V30 3476 H 322.997 3.17664 -1.95305 0
M  V30 3477 N 325.182 1.32811 0.848464 0
M  V30 3478 C 326.145 1.22194 1.9391 0
M  V30 3479 C 327.145 0.143404 1.60159 0
M  V30 3480 O 328.335 0.394253 1.6968 0
M  V30 3481 C 325.467 0.88067 3.29328 0
M  V30 3482 H 326.66 2.19127 2.04752 0
M  V30 3483 H 324.213 1.16731 1.0394 0
M  V30 3484 H 324.948 -0.0865776 3.24184 0
M  V30 3485 H 324.733 1.66052 3.55203 0
M  V30 3486 H 326.223 0.830871 4.09251 0
M  V30 3487 N 326.66 -1.06551 1.16123 0
M  V30 3488 C 327.57 -2.17484 0.879662 0
M  V30 3489 C 328.586 -1.73377 -0.147104 0
M  V30 3490 O 329.762 -2.01379 0.0289128 0
M  V30 3491 C 326.827 -3.44591 0.381829 0
M  V30 3492 C 325.888 -4.0322 1.4735 0
M  V30 3493 C 325.121 -5.24261 0.999324 0
M  V30 3494 O 325.344 -5.70198 -0.151957 0
M  V30 3495 O 324.278 -5.74775 1.78653 0
M  V30 3496 H 328.104 -2.44075 1.80724 0
M  V30 3497 H 325.689 -1.16042 0.940992 0
M  V30 3498 H 327.571 -4.21254 0.111053 0
M  V30 3499 H 326.246 -3.19532 -0.51777 0
M  V30 3500 H 325.153 -3.2806 1.79798 0
M  V30 3501 H 326.486 -4.32568 2.34831 0
M  V30 3502 N 328.138 -0.959301 -1.25041 0
M  V30 3503 C 329.368 -0.63303 -1.96663 0
M  V30 3504 C 329.776 0.800031 -1.71453 0
M  V30 3505 O 329.119 1.54736 -0.99008 0
M  V30 3506 C 329.181 -0.817523 -3.50081 0
M  V30 3507 C 328.845 -2.22863 -3.98975 0
M  V30 3508 C 329.842 -3.20569 -4.09306 0
M  V30 3509 C 327.527 -2.55407 -4.32519 0
M  V30 3510 C 329.521 -4.4891 -4.52503 0
M  V30 3511 C 327.208 -3.83976 -4.754 0
M  V30 3512 C 328.206 -4.8054 -4.85356 0
M  V30 3513 O 327.894 -6.06817 -5.27284 0
M  V30 3514 H 327.626 -0.235866 -0.633516 0
M  V30 3515 H 330.18 -1.2874 -1.60047 0
M  V30 3516 H 328.41 -0.105992 -3.86555 0
M  V30 3517 H 330.099 -0.491604 -4.02912 0
M  V30 3518 H 330.865 -2.96753 -3.83618 0
M  V30 3519 H 326.744 -1.8097 -4.23994 0
M  V30 3520 H 330.288 -5.24283 -4.60188 0
M  V30 3521 H 326.185 -4.07596 -5.00535 0
M  V30 3522 H 326.953 -6.10262 -5.45457 0
M  V30 3523 N 329.616 1.39756 -0.72842 0
M  V30 3524 C 330.865 1.99879 -0.270407 0
M  V30 3525 C 331.178 1.58449 1.14688 0
M  V30 3526 O 332.384 2.11362 1.70407 0
M  V30 3527 C 330.84 3.57292 -0.43252 0
M  V30 3528 C 330.448 4.07688 -1.85727 0
M  V30 3529 C 332.192 4.24485 -0.0359507 0
M  V30 3530 C 330.099 5.5765 -1.96928 0
M  V30 3531 H 329.029 0.747689 -0.0973472 0
M  V30 3532 H 331.68 1.59837 -0.901355 0
M  V30 3533 H 330.062 3.95097 0.267219 0
M  V30 3534 H 331.236 3.81231 -2.58843 0
M  V30 3535 H 329.551 3.53135 -2.20646 0
M  V30 3536 H 332.148 5.34609 -0.0987484 0
M  V30 3537 H 332.491 4.03915 1.00787 0
M  V30 3538 H 333.024 3.9183 -0.686604 0
M  V30 3539 H 329.763 5.8309 -2.99476 0
M  V30 3540 H 329.283 5.8593 -1.28241 0
M  V30 3541 H 330.962 6.22957 -1.74737 0
M  V30 3542 N 331.094 0.475555 1.50254 0
M  V30 3543 C 332.057 -0.305016 2.27161 0
M  V30 3544 C 333.057 -0.916519 1.32123 0
M  V30 3545 O 334.247 -0.785003 1.5551 0
M  V30 3546 C 331.379 -1.43496 3.09227 0
M  V30 3547 H 332.572 0.369511 2.97615 0
M  V30 3548 H 330.125 0.229747 1.54602 0
M  V30 3549 H 330.86 -2.14441 2.43281 0
M  V30 3550 H 330.645 -1.00223 3.79075 0
M  V30 3551 H 332.135 -1.98548 3.67381 0
M  V30 3552 N 332.573 -1.56217 0.208337 0
M  V30 3553 C 333.521 -2.21053 -0.723769 0
M  V30 3554 C 334.515 -1.18578 -1.20978 0
M  V30 3555 O 335.721 -1.36691 -1.17114 0
M  V30 3556 H 332.096 -0.708595 -0.251788 0
M  V30 3557 H 334.067 -2.98006 -0.153365 0
M  V30 3558 C 332.816 -2.89417 -1.927 0
M  V30 3559 H 332.139 -3.68019 -1.56212 0
M  V30 3560 H 333.579 -3.38201 -2.55727 0
M  V30 3561 C 332.038 -1.91166 -2.77411 0
M  V30 3562 O 332.568 -1.42026 -3.75754 0
M  V30 3563 N 330.774 -1.59105 -2.43175 0
M  V30 3564 H 330.321 -1.99259 -1.63259 0
M  V30 3565 H 330.279 -0.936255 -3.00136 0
M  V30 3566 N 334.051 0.0651679 -1.57465 0
M  V30 3567 C 335.276 0.779605 -1.9219 0
M  V30 3568 C 335.701 1.69988 -0.805333 0
M  V30 3569 O 335.059 1.79685 0.241435 0
M  V30 3570 C 335.107 1.54364 -3.2589 0
M  V30 3571 O 334.211 2.65474 -3.1559 0
M  V30 3572 H 333.552 0.212249 -0.629163 0
M  V30 3573 H 336.082 0.0314294 -2.04576 0
M  V30 3574 H 336.092 1.92146 -3.59922 0
M  V30 3575 H 334.767 0.868457 -4.06732 0
M  V30 3576 H 333.344 2.30501 -2.93128 0
M  V30 3577 N 335.529 1.53961 0.336706 0
M  V30 3578 C 336.777 1.71197 1.07405 0
M  V30 3579 C 337.098 0.481475 1.88962 0
M  V30 3580 O 336.368 -0.504585 1.8929 0
M  V30 3581 H 334.948 0.631185 0.399517 0
M  V30 3582 H 337.61 1.91232 0.376323 0
M  V30 3583 H 336.706 2.58587 1.74755 0
M  V30 3584 N 337.007 -0.598083 1.45811 0
M  V30 3585 C 337.955 -1.72932 1.55555 0
M  V30 3586 C 338.949 -1.63984 0.424921 0
M  V30 3587 O 340.155 -1.69663 0.601205 0
M  V30 3588 H 336.53 -0.571489 0.488779 0
M  V30 3589 H 338.501 -1.61842 2.50699 0
M  V30 3590 C 337.25 -3.11318 1.54843 0
M  V30 3591 H 336.573 -3.18867 2.41172 0
M  V30 3592 H 338.013 -3.90274 1.65717 0
M  V30 3593 C 336.472 -3.3578 0.274427 0
M  V30 3594 O 337.002 -3.9654 -0.641778 0
M  V30 3595 N 335.208 -2.90119 0.167139 0
M  V30 3596 H 334.755 -2.40855 0.913596 0
M  V30 3597 H 334.713 -3.0686 -0.684435 0
M  V30 3598 N 338.485 -1.33259 -0.841409 0
M  V30 3599 C 339.713 -1.27605 -1.62864 0
M  V30 3600 C 340.128 0.153507 -1.88175 0
M  V30 3601 O 339.485 1.09485 -1.46011 0
M  V30 3602 C 339.536 -2.04596 -2.98031 0
M  V30 3603 O 339.257 -3.41975 -2.73834 0
M  V30 3604 C 340.758 -2.06122 -3.92465 0
M  V30 3605 H 337.978 -0.439718 -0.506842 0
M  V30 3606 H 340.522 -1.75591 -1.04824 0
M  V30 3607 H 338.677 -1.60299 -3.5268 0
M  V30 3608 H 339.091 -3.81549 -3.59889 0
M  V30 3609 H 340.565 -2.64451 -4.84531 0
M  V30 3610 H 341.042 -1.05083 -4.26444 0
M  V30 3611 H 341.648 -2.50427 -3.43753 0
M  V30 3612 N 339.963 1.05934 -1.16686 0
M  V30 3613 C 340.91 2.13499 -0.876748 0
M  V30 3614 C 341.88 1.65162 0.176299 0
M  V30 3615 O 343.065 1.90757 0.0407143 0
M  V30 3616 C 340.205 3.42912 -0.387967 0
M  V30 3617 C 339.318 4.04964 -1.50426 0
M  V30 3618 C 338.453 5.22266 -0.970125 0
M  V30 3619 C 337.492 5.76309 -2.06238 0
M  V30 3620 N 336.629 6.84922 -1.54356 0
M  V30 3621 H 341.469 2.37654 -1.7979 0
M  V30 3622 H 339.006 1.16598 -0.896843 0
M  V30 3623 H 340.964 4.17111 -0.086186 0
M  V30 3624 H 339.594 3.18963 0.496235 0
M  V30 3625 H 338.646 3.28277 -1.92193 0
M  V30 3626 H 339.958 4.41122 -2.32836 0
M  V30 3627 H 339.112 6.03506 -0.621743 0
M  V30 3628 H 337.851 4.87564 -0.115377 0
M  V30 3629 H 336.856 4.93704 -2.41942 0
M  V30 3630 H 338.081 6.13062 -2.92115 0
M  V30 3631 H 336.027 6.52131 -0.711406 0
M  V30 3632 H 335.944 7.20043 -2.30379 0
M  V30 3633 H 337.212 7.69832 -1.22387 0
M  V30 3634 N 341.441 0.965919 1.2453 0
M  V30 3635 C 342.69 0.622437 1.91856 0
M  V30 3636 C 343.003 -0.846006 1.76358 0
M  V30 3637 O 344.209 -1.29993 2.38357 0
M  V30 3638 C 342.665 1.0626 3.43856 0
M  V30 3639 C 342.273 2.55437 3.68043 0
M  V30 3640 C 344.017 0.792183 4.17043 0
M  V30 3641 C 341.924 2.93196 5.13605 0
M  V30 3642 H 340.854 0.229092 0.718354 0
M  V30 3643 H 343.505 1.17189 1.41206 0
M  V30 3644 H 341.887 0.441476 3.93531 0
M  V30 3645 H 343.061 3.22665 3.28974 0
M  V30 3646 H 341.376 2.8007 3.08139 0
M  V30 3647 H 343.973 1.05031 5.24283 0
M  V30 3648 H 344.316 -0.271584 4.15413 0
M  V30 3649 H 344.849 1.37419 3.73311 0
M  V30 3650 H 341.588 3.98636 5.20355 0
M  V30 3651 H 341.108 2.30651 5.53679 0
M  V30 3652 H 342.787 2.83004 5.81823 0
M  V30 3653 N 342.919 -1.39368 0.735821 0
M  V30 3654 C 344.168 -1.99733 0.281004 0
M  V30 3655 C 344.481 -1.59055 -1.13846 0
M  V30 3656 O 345.687 -2.12262 -1.69284 0
M  V30 3657 C 344.143 -3.57057 0.451462 0
M  V30 3658 C 343.751 -4.06697 1.87886 0
M  V30 3659 C 345.495 -4.2446 0.0584616 0
M  V30 3660 C 343.402 -5.56598 1.99883 0
M  V30 3661 H 342.332 -0.747163 0.101311 0
M  V30 3662 H 344.983 -1.59357 0.909819 0
M  V30 3663 H 343.365 -3.95234 -0.246263 0
M  V30 3664 H 344.539 -3.79853 2.60861 0
M  V30 3665 H 342.854 -3.5196 2.22515 0
M  V30 3666 H 345.451 -5.34549 0.127099 0
M  V30 3667 H 345.794 -4.04444 -0.986433 0
M  V30 3668 H 346.327 -3.9146 0.707374 0
M  V30 3669 H 343.066 -5.81494 3.02564 0
M  V30 3670 H 342.586 -5.85242 1.31346 0
M  V30 3671 H 344.265 -6.22022 1.78039 0
M  V30 3672 N 344.397 -0.483516 -1.5 0
M  V30 3673 C 345.327 0.293829 -2.31644 0
M  V30 3674 C 346.308 0.978864 -1.39112 0
M  V30 3675 O 347.493 0.973644 -1.68029 0
M  V30 3676 C 344.623 1.36897 -3.19181 0
M  V30 3677 C 343.577 0.804833 -4.20365 0
M  V30 3678 C 342.903 1.9792 -4.96721 0
M  V30 3679 C 344.203 -0.192313 -5.21946 0
M  V30 3680 H 345.897 -0.387616 -2.9688 0
M  V30 3681 H 343.443 -0.187856 -1.42769 0
M  V30 3682 H 345.396 1.92037 -3.751 0
M  V30 3683 H 344.12 2.07936 -2.51853 0
M  V30 3684 H 342.779 0.275319 -3.65565 0
M  V30 3685 H 342.427 2.67686 -4.25856 0
M  V30 3686 H 342.127 1.60789 -5.65173 0
M  V30 3687 H 343.651 2.53526 -5.55479 0
M  V30 3688 H 345.065 0.270333 -5.72662 0
M  V30 3689 H 343.462 -0.478543 -5.98189 0
M  V30 3690 H 344.532 -1.11409 -4.71928 0
M  V30 3691 N 345.875 1.56104 -0.216619 0
M  V30 3692 C 347.115 2.00074 0.418322 0
M  V30 3693 C 347.479 1.10098 1.57297 0
M  V30 3694 O 348.68 1.43393 2.27359 0
M  V30 3695 C 346.951 3.47231 0.846477 0
M  V30 3696 S 348.51 4.13223 1.47622 0
M  V30 3697 H 345.328 0.698457 0.132962 0
M  V30 3698 H 347.93 1.92784 -0.324748 0
M  V30 3699 H 346.634 4.104 -0.0036319 0
M  V30 3700 H 346.165 3.58384 1.62248 0
M  V30 3701 H 348.18 4.12005 2.76526 0
M  V30 3702 N 347.353 -0.0568162 1.57498 0
M  V30 3703 C 348.263 -1.08346 2.08083 0
M  V30 3704 C 349.279 -1.41439 1.01346 0
M  V30 3705 O 350.455 -1.51316 1.32912 0
M  V30 3706 C 347.52 -2.37352 2.52715 0
M  V30 3707 C 346.581 -2.11093 3.73816 0
M  V30 3708 C 345.814 -3.33949 4.1631 0
M  V30 3709 O 346.037 -4.43622 3.58547 0
M  V30 3710 O 344.971 -3.21279 5.08983 0
M  V30 3711 H 348.797 -0.683667 2.95905 0
M  V30 3712 H 346.382 -0.271965 1.46904 0
M  V30 3713 H 348.264 -3.13246 2.81877 0
M  V30 3714 H 346.939 -2.76681 1.68016 0
M  V30 3715 H 345.846 -1.32856 3.49714 0
M  V30 3716 H 347.179 -1.76637 4.59413 0
M  V30 3717 N 348.832 -1.54138 -0.328536 0
M  V30 3718 C 350.248 -1.44736 -0.672574 0
M  V30 3719 C 350.448 -0.616217 -1.91846 0
M  V30 3720 O 349.504 -0.113067 -2.52247 0
M  V30 3721 C 350.817 -2.884 -0.851217 0
M  V30 3722 C 352.365 -2.98271 -0.948877 0
M  V30 3723 C 352.84 -4.43074 -1.15973 0
M  V30 3724 N 354.331 -4.46665 -1.22658 0
M  V30 3725 C 355.066 -5.55857 -1.40751 0
M  V30 3726 N 354.562 -6.75026 -1.5592 0
M  V30 3727 N 356.355 -5.43495 -1.4342 0
M  V30 3728 H 348.506 -2.06661 0.490421 0
M  V30 3729 H 350.769 -0.934812 0.157579 0
M  V30 3730 H 350.475 -3.51699 -0.00704236 0
M  V30 3731 H 350.349 -3.34225 -1.74853 0
M  V30 3732 H 352.736 -2.35102 -1.78356 0
M  V30 3733 H 352.817 -2.55785 -0.0281435 0
M  V30 3734 H 352.461 -5.06827 -0.329915 0
M  V30 3735 H 352.391 -4.83165 -2.09426 0
M  V30 3736 H 354.882 -3.60797 -1.124 0
M  V30 3737 H 355.195 -7.54004 -1.69404 0
M  V30 3738 H 353.54 -6.77944 -1.53027 0
M  V30 3739 H 356.731 -4.49349 -1.31162 0
M  V30 3740 H 356.904 -6.28649 -1.57178 0
M  V30 3741 N 350.31 0.590341 -1.46126 0
M  V30 3742 C 351.558 1.34616 -1.50742 0
M  V30 3743 C 351.879 1.94363 -0.157486 0
M  V30 3744 O 351.149 1.78136 0.815136 0
M  V30 3745 H 349.729 0.499789 -0.555175 0
M  V30 3746 H 352.391 0.691953 -1.82203 0
M  V30 3747 H 351.487 2.15678 -2.25587 0
M  V30 3748 N 351.788 1.33704 0.83433 0
M  V30 3749 C 353.037 1.24763 1.58484 0
M  V30 3750 C 353.35 -0.183775 1.94735 0
M  V30 3751 O 354.556 -0.395234 2.68608 0
M  V30 3752 C 353.012 2.18638 2.85876 0
M  V30 3753 C 352.62 3.66974 2.56971 0
M  V30 3754 C 354.364 2.18581 3.63899 0
M  V30 3755 C 352.271 4.5275 3.80488 0
M  V30 3756 H 351.201 0.463425 0.594772 0
M  V30 3757 H 353.852 1.58797 0.919551 0
M  V30 3758 H 352.234 1.77542 3.5397 0
M  V30 3759 H 353.408 4.16538 1.9706 0
M  V30 3760 H 351.723 3.69366 1.92244 0
M  V30 3761 H 354.32 2.79894 4.55591 0
M  V30 3762 H 354.663 1.18207 3.99165 0
M  V30 3763 H 355.196 2.58062 3.02735 0
M  V30 3764 H 351.935 5.54017 3.5035 0
M  V30 3765 H 351.455 4.07927 4.39722 0
M  V30 3766 H 353.134 4.66784 4.4802 0
M  V30 3767 N 353.266 -1.05314 1.17247 0
M  V30 3768 C 354.682 -1.30452 0.919473 0
M  V30 3769 C 354.882 -1.9703 -0.42209 0
M  V30 3770 O 353.938 -2.24311 -1.15935 0
M  V30 3771 C 355.251 -2.17551 2.07586 0
M  V30 3772 C 356.799 -2.30937 2.11275 0
M  V30 3773 C 357.274 -3.21396 3.26296 0
M  V30 3774 N 358.765 -3.28981 3.26076 0
M  V30 3775 C 359.5 -3.99095 4.11716 0
M  V30 3776 N 358.996 -4.71648 5.07465 0
M  V30 3777 N 360.789 -3.95247 3.9967 0
M  V30 3778 H 352.94 -0.604988 2.03602 0
M  V30 3779 H 355.203 -0.329368 0.888944 0
M  V30 3780 H 354.909 -1.75921 3.0454 0
M  V30 3781 H 354.783 -3.18182 2.02584 0
M  V30 3782 H 357.17 -2.71809 1.14907 0
M  V30 3783 H 357.251 -1.2994 2.20339 0
M  V30 3784 H 356.895 -2.81238 4.22927 0
M  V30 3785 H 356.825 -4.22395 3.14467 0
M  V30 3786 H 359.316 -2.77286 2.5675 0
M  V30 3787 H 359.629 -5.22705 5.6921 0
M  V30 3788 H 357.974 -4.70594 5.11435 0
M  V30 3789 H 361.165 -3.37691 3.24164 0
M  V30 3790 H 361.338 -4.4962 4.66632 0
M  V30 3791 N 354.744 -0.972509 -1.24016 0
M  V30 3792 C 355.972 -0.654803 -1.96265 0
M  V30 3793 C 356.387 0.776708 -1.72083 0
M  V30 3794 O 355.744 1.52171 -1.00748 0
M  V30 3795 C 355.795 -0.92592 -3.49441 0
M  V30 3796 O 355.516 -2.30116 -3.72798 0
M  V30 3797 C 357.017 -0.623068 -4.38899 0
M  V30 3798 H 354.237 -0.243907 -0.6251 0
M  V30 3799 H 356.781 -1.30175 -1.57717 0
M  V30 3800 H 354.936 -0.325108 -3.86033 0
M  V30 3801 H 355.35 -2.38483 -4.67147 0
M  V30 3802 H 356.824 -0.863189 -5.45209 0
M  V30 3803 H 357.301 0.442754 -4.36963 0
M  V30 3804 H 357.907 -1.204 -4.07902 0
M  V30 3805 N 356.222 1.38976 -0.743202 0
M  V30 3806 C 357.469 2.00343 -0.294752 0
M  V30 3807 C 357.797 1.58983 1.12047 0
M  V30 3808 O 357.052 0.813809 1.77977 0
M  V30 3809 C 357.351 3.55647 -0.353517 0
M  V30 3810 C 357.017 4.16685 -1.72292 0
M  V30 3811 C 355.679 4.3307 -2.09771 0
M  V30 3812 C 358.031 4.50464 -2.62168 0
M  V30 3813 C 355.359 4.80526 -3.36618 0
M  V30 3814 C 357.711 4.99332 -3.88395 0
M  V30 3815 C 356.375 5.13924 -4.25956 0
M  V30 3816 H 355.645 0.733108 -0.107857 0
M  V30 3817 H 358.292 1.6618 -0.951651 0
M  V30 3818 H 356.597 3.89884 0.386954 0
M  V30 3819 H 358.294 4.00998 0.0117269 0
M  V30 3820 H 354.884 4.04339 -1.42155 0
M  V30 3821 H 359.068 4.37416 -2.3448 0
M  V30 3822 H 354.324 4.90008 -3.65653 0
M  V30 3823 H 358.498 5.2444 -4.58187 0
M  V30 3824 H 356.125 5.50457 -5.2431 0
M  V30 3825 N 357.7 0.491464 1.49741 0
M  V30 3826 C 358.61 -0.296835 2.32715 0
M  V30 3827 C 359.626 -0.976536 1.44013 0
M  V30 3828 O 360.802 -0.960023 1.77047 0
M  V30 3829 C 357.867 -1.35288 3.19215 0
M  V30 3830 C 356.928 -0.687632 4.23757 0
M  V30 3831 C 356.161 -1.69336 5.06123 0
M  V30 3832 O 356.384 -2.92219 4.89861 0
M  V30 3833 O 355.318 -1.25394 5.88693 0
M  V30 3834 H 359.144 0.382048 3.01287 0
M  V30 3835 H 356.729 0.252953 1.47243 0
M  V30 3836 H 358.611 -1.96411 3.72828 0
M  V30 3837 H 357.286 -2.01487 2.53347 0
M  V30 3838 H 356.193 -0.0369159 3.74082 0
M  V30 3839 H 357.526 -0.0682566 4.92153 0
M  V30 3840 N 359.178 -1.55987 0.224894 0
M  V30 3841 C 360.125 -2.20436 -0.68385 0
M  V30 3842 C 361.095 -1.16102 -1.18783 0
M  V30 3843 O 362.28 -1.4447 -1.24632 0
M  V30 3844 C 359.42 -2.89076 -1.88491 0
M  V30 3845 C 358.533 -4.08012 -1.41951 0
M  V30 3846 C 357.668 -4.64426 -2.5784 0
M  V30 3847 C 356.707 -5.75656 -2.08053 0
M  V30 3848 N 355.844 -6.26347 -3.17227 0
M  V30 3849 H 360.684 -2.97727 -0.12754 0
M  V30 3850 H 358.221 -1.47011 -0.0511978 0
M  V30 3851 H 360.179 -3.27059 -2.59014 0
M  V30 3852 H 358.809 -2.14298 -2.41405 0
M  V30 3853 H 357.861 -3.75492 -0.609095 0
M  V30 3854 H 359.173 -4.88375 -1.01447 0
M  V30 3855 H 358.327 -5.04869 -3.3644 0
M  V30 3856 H 357.066 -3.83233 -3.01635 0
M  V30 3857 H 356.071 -5.34712 -1.27916 0
M  V30 3858 H 357.296 -6.58686 -1.65255 0
M  V30 3859 H 355.242 -5.48067 -3.60497 0
M  V30 3860 H 355.159 -7.01843 -2.80986 0
M  V30 3861 H 356.427 -6.71447 -3.95953 0
M  V30 3862 N 360.656 0.0484629 -1.57525 0
M  V30 3863 C 361.619 1.03956 -2.04269 0
M  V30 3864 C 362.619 1.30211 -0.943496 0
M  V30 3865 O 363.809 1.25539 -1.20771 0
M  V30 3866 C 360.941 2.37742 -2.44319 0
M  V30 3867 H 362.134 0.636182 -2.93075 0
M  V30 3868 H 359.687 0.294811 -1.53494 0
M  V30 3869 H 360.422 2.82866 -1.5861 0
M  V30 3870 H 360.207 2.20021 -3.24551 0
M  V30 3871 H 361.697 3.08936 -2.80978 0
M  V30 3872 N 362.134 1.5431 0.320358 0
M  V30 3873 C 363.362 1.76636 1.07738 0
M  V30 3874 C 363.777 0.51649 1.81598 0
M  V30 3875 O 363.134 -0.512942 1.75143 0
M  V30 3876 C 363.185 2.96158 2.07299 0
M  V30 3877 O 362.906 4.16313 1.36438 0
M  V30 3878 C 364.407 3.3072 2.95193 0
M  V30 3879 H 361.627 0.589597 0.320339 0
M  V30 3880 H 364.171 2.01207 0.36551 0
M  V30 3881 H 362.326 2.73851 2.74016 0
M  V30 3882 H 362.74 4.83565 2.03138 0
M  V30 3883 H 364.214 4.17643 3.60941 0
M  V30 3884 H 364.691 2.48026 3.62463 0
M  V30 3885 H 365.297 3.55117 2.34034 0
M  V30 3886 N 363.613 -0.582584 1.46437 0
M  V30 3887 C 365.029 -0.905962 1.31394 0
M  V30 3888 C 365.229 -1.99468 0.285476 0
M  V30 3889 O 364.285 -2.50566 -0.311914 0
M  V30 3890 C 365.598 -1.3232 2.70022 0
M  V30 3891 C 367.146 -1.43604 2.78113 0
M  V30 3892 C 367.621 -1.88694 4.17323 0
M  V30 3893 N 369.112 -1.95887 4.19741 0
M  V30 3894 C 369.847 -2.32051 5.24347 0
M  V30 3895 N 369.343 -2.67006 6.39281 0
M  V30 3896 N 371.136 -2.32606 5.11713 0
M  V30 3897 H 363.287 0.1366 2.1196 0
M  V30 3898 H 365.55 -0.00155736 0.947999 0
M  V30 3899 H 365.256 -0.597242 3.46592 0
M  V30 3900 H 365.13 -2.28469 3.00136 0
M  V30 3901 H 367.517 -2.15286 2.01832 0
M  V30 3902 H 367.598 -0.457059 2.51684 0
M  V30 3903 H 367.242 -1.1759 4.941 0
M  V30 3904 H 367.172 -2.8755 4.4116 0
M  V30 3905 H 369.663 -1.71362 3.36814 0
M  V30 3906 H 369.976 -2.93554 7.14875 0
M  V30 3907 H 368.321 -2.64644 6.42642 0
M  V30 3908 H 371.512 -2.04721 4.2096 0
M  V30 3909 H 371.685 -2.60462 5.93349 0
M  V30 3910 N 365.091 -1.34144 -0.827227 0
M  V30 3911 C 366.039 -1.25364 -1.95925 0
M  V30 3912 C 367.033 -0.152608 -1.68711 0
M  V30 3913 O 368.239 -0.317311 -1.77181 0
M  V30 3914 H 364.614 -0.389342 -0.643364 0
M  V30 3915 H 366.585 -2.21045 -2.00454 0
M  V30 3916 C 365.334 -1.02158 -3.32354 0
M  V30 3917 H 364.657 -1.86111 -3.5384 0
M  V30 3918 H 366.097 -1.00048 -4.12027 0
M  V30 3919 C 364.556 0.275244 -3.35774 0
M  V30 3920 O 365.086 1.27806 -3.80826 0
M  V30 3921 N 363.292 0.306853 -2.88975 0
M  V30 3922 H 362.839 -0.509777 -2.52506 0
M  V30 3923 H 362.797 1.17432 -2.91646 0
M  V30 3924 N 366.569 1.04691 -1.17803 0
M  V30 3925 C 367.797 1.81446 -0.99423 0
M  V30 3926 C 368.212 1.83174 0.457459 0
M  V30 3927 O 367.569 1.26265 1.31771 0
M  V30 3928 C 367.62 3.27334 -1.5341 0
M  V30 3929 O 367.341 3.25798 -2.92895 0
M  V30 3930 C 368.842 4.20759 -1.39559 0
M  V30 3931 H 366.062 0.571599 -0.351447 0
M  V30 3932 H 368.606 1.31982 -1.56208 0
M  V30 3933 H 366.761 3.74052 -1.00815 0
M  V30 3934 H 367.175 4.17144 -3.17949 0
M  V30 3935 H 368.649 5.21084 -1.82141 0
M  V30 3936 H 369.126 4.37856 -0.343394 0
M  V30 3937 H 369.732 3.79901 -1.91195 0
M  V30 3938 N 368.047 0.979072 1.23499 0
M  V30 3939 C 368.977 0.537606 2.27227 0
M  V30 3940 C 369.958 -0.428539 1.64613 0
M  V30 3941 O 371.143 -0.322191 1.91509 0
M  V30 3942 C 368.273 -0.162052 3.46922 0
M  V30 3943 C 367.227 0.721242 4.21879 0
M  V30 3944 C 366.553 -0.110555 5.34586 0
M  V30 3945 C 367.853 2.01141 4.82016 0
M  V30 3946 H 369.547 1.40462 2.64406 0
M  V30 3947 H 367.093 0.67684 1.27102 0
M  V30 3948 H 369.046 -0.482192 4.18632 0
M  V30 3949 H 367.77 -1.06351 3.08799 0
M  V30 3950 H 366.429 1.02482 3.51984 0
M  V30 3951 H 366.077 -1.0125 4.92704 0
M  V30 3952 H 365.777 0.477325 5.85658 0
M  V30 3953 H 367.301 -0.425107 6.09118 0
M  V30 3954 H 368.715 1.75612 5.45741 0
M  V30 3955 H 367.112 2.54695 5.43369 0
M  V30 3956 H 368.182 2.69909 4.02836 0
M  V30 3957 N 369.525 -1.3858 0.750561 0
M  V30 3958 C 370.802 -1.94231 0.231009 0
M  V30 3959 C 371.182 -1.68611 -1.27018 0
M  V30 3960 O 370.53 -1.02296 -2.04323 0
M  V30 3961 C 370.74 -3.44123 0.581428 0
M  V30 3962 C 372.088 -4.2116 0.539389 0
M  V30 3963 O 373.112 -3.52391 0.519541 0
M  V30 3964 O 371.971 -5.43749 0.54765 0
M  V30 3965 H 369.065 -0.825639 0.0474263 0
M  V30 3966 H 371.611 -1.4799 0.830478 0
M  V30 3967 H 370.383 -3.56267 1.61833 0
M  V30 3968 H 370.006 -3.97573 -0.0462047 0
M  V30 3969 N 371.003 -0.499398 -1.49478 0
M  V30 3970 C 372.252 0.0475259 -2.01644 0
M  V30 3971 C 372.565 1.38195 -1.38425 0
M  V30 3972 O 373.771 2.01547 -1.8191 0
M  V30 3973 C 372.227 0.135164 -3.59646 0
M  V30 3974 C 371.835 -1.19252 -4.31837 0
M  V30 3975 C 373.579 0.632538 -4.19761 0
M  V30 3976 C 371.486 -1.06713 -5.81693 0
M  V30 3977 H 370.416 0.0215349 -0.753692 0
M  V30 3978 H 373.067 -0.638577 -1.7203 0
M  V30 3979 H 371.449 0.885681 -3.85969 0
M  V30 3980 H 372.623 -1.9562 -4.17216 0
M  V30 3981 H 370.938 -1.62321 -3.83459 0
M  V30 3982 H 373.535 0.743833 -5.29501 0
M  V30 3983 H 373.878 1.63098 -3.83021 0
M  V30 3984 H 374.411 -0.0613987 -3.97753 0
M  V30 3985 H 371.15 -2.03979 -6.22955 0
M  V30 3986 H 370.67 -0.344307 -5.98811 0
M  V30 3987 H 372.349 -0.745208 -6.42694 0
M  V30 3988 N 372.481 1.55866 -0.233164 0
M  V30 3989 C 373.706 2.03449 0.402906 0
M  V30 3990 C 374.131 1.11166 1.51736 0
M  V30 3991 O 373.489 0.101996 1.81013 0
M  V30 3992 C 373.537 3.49165 0.9009 0
M  V30 3993 O 372.641 3.60019 2.01147 0
M  V30 3994 H 371.982 0.657913 0.0897025 0
M  V30 3995 H 374.512 2.01493 -0.355201 0
M  V30 3996 H 374.522 3.89716 1.2077 0
M  V30 3997 H 373.197 4.15813 0.0852889 0
M  V30 3998 H 371.774 3.3136 1.71042 0
M  V30 3999 N 373.959 -0.0401083 1.57549 0
M  V30 4000 C 374.922 -1.02871 2.04817 0
M  V30 4001 C 375.922 -1.29708 0.950388 0
M  V30 4002 O 377.112 -1.24897 1.21435 0
M  V30 4003 C 374.244 -2.36443 2.45576 0
M  V30 4004 H 375.437 -0.620631 2.93408 0
M  V30 4005 H 372.99 -0.286667 1.53649 0
M  V30 4006 H 373.725 -2.82021 1.60108 0
M  V30 4007 H 373.51 -2.18296 3.25713 0
M  V30 4008 H 375 -3.07441 2.82612 0
M  V30 4009 N 375.437 -1.54477 -0.31217 0
M  V30 4010 C 376.683 -1.73483 -1.0503 0
M  V30 4011 C 377.016 -0.513125 -1.87298 0
M  V30 4012 O 376.291 0.489864 -1.8823 0
M  V30 4013 C 376.574 -3.01723 -1.96558 0
M  V30 4014 C 376.427 -4.3417 -1.17545 0
M  V30 4015 C 377.746 -3.25772 -2.95907 0
M  V30 4016 H 374.865 -0.631222 -0.380432 0
M  V30 4017 H 377.507 -1.87184 -0.325932 0
M  V30 4018 H 375.657 -2.90174 -2.58324 0
M  V30 4019 H 377.329 -4.5762 -0.581513 0
M  V30 4020 H 375.572 -4.31159 -0.477925 0
M  V30 4021 H 376.243 -5.20143 -1.84811 0
M  V30 4022 H 378.719 -3.36857 -2.44267 0
M  V30 4023 H 377.595 -4.16838 -3.57123 0
M  V30 4024 H 377.856 -2.43537 -3.68974 0
M  V30 4025 N 376.915 0.57481 -1.46744 0
M  V30 4026 C 378.326 1.15695 -1.46532 0
M  V30 4027 C 378.677 1.95068 -0.210425 0
M  V30 4028 O 377.802 2.05241 0.685944 0
M  V30 4029 C 378.397 2.1048 -2.65487 0
M  V30 4030 C 376.956 2.64002 -2.68291 0
M  V30 4031 C 376.103 1.40026 -2.39349 0
M  V30 4032 H 379.054 0.362325 -1.54509 0
M  V30 4033 H 379.075 2.94074 -2.41455 0
M  V30 4034 H 378.587 1.52683 -3.56805 0
M  V30 4035 H 376.688 3.25646 -1.81067 0
M  V30 4036 H 376.801 3.06197 -3.68483 0
M  V30 4037 H 375.165 1.70106 -1.89568 0
M  V30 4038 H 375.948 0.840485 -3.32852 0
M  V30 4039 N 378.394 1.34581 0.820102 0
M  V30 4040 C 379.643 1.26437 1.57151 0
M  V30 4041 C 379.956 -0.163111 1.94919 0
M  V30 4042 O 381.162 -0.366722 2.69012 0
M  V30 4043 C 379.618 2.21658 2.83541 0
M  V30 4044 C 379.226 3.69679 2.53065 0
M  V30 4045 C 380.97 2.22428 3.61561 0
M  V30 4046 C 378.877 4.56761 3.75664 0
M  V30 4047 H 377.807 0.469707 0.589823 0
M  V30 4048 H 380.458 1.59763 0.902656 0
M  V30 4049 H 378.84 1.81287 3.52067 0
M  V30 4050 H 380.014 4.18605 1.92631 0
M  V30 4051 H 378.329 3.71384 1.88316 0
M  V30 4052 H 380.926 2.8471 4.52597 0
M  V30 4053 H 381.269 1.22434 3.97889 0
M  V30 4054 H 381.802 2.61259 2.99981 0
M  V30 4055 H 378.541 5.57702 3.44454 0
M  V30 4056 H 378.061 4.12568 4.35371 0
M  V30 4057 H 379.74 4.71509 4.43044 0
M  V30 4058 N 379.872 -1.04064 1.18357 0
M  V30 4059 C 381.121 -1.76662 0.973313 0
M  V30 4060 C 381.434 -1.89154 -0.497991 0
M  V30 4061 O 382.64 -2.58606 -0.826762 0
M  V30 4062 C 381.096 -3.17624 1.69242 0
M  V30 4063 C 380.704 -3.13225 3.20303 0
M  V30 4064 C 382.448 -3.946 1.56497 0
M  V30 4065 C 380.355 -4.49046 3.84853 0
M  V30 4066 H 379.285 -0.662214 0.36054 0
M  V30 4067 H 381.936 -1.16553 1.41731 0
M  V30 4068 H 380.318 -3.78129 1.1762 0
M  V30 4069 H 381.492 -2.62172 3.78949 0
M  V30 4070 H 379.807 -2.49749 3.33189 0
M  V30 4071 H 382.404 -4.95042 2.02084 0
M  V30 4072 H 382.747 -4.13074 0.517243 0
M  V30 4073 H 383.28 -3.4067 2.05399 0
M  V30 4074 H 380.019 -4.35777 4.89672 0
M  V30 4075 H 379.539 -5.00203 3.30994 0
M  V30 4076 H 381.218 -5.17961 3.87718 0
M  V30 4077 N 381.35 -0.985608 -1.22978 0
M  V30 4078 C 382.766 -0.695104 -1.43668 0
M  V30 4079 C 382.966 0.736866 -1.87543 0
M  V30 4080 O 382.022 1.50868 -2.02473 0
M  V30 4081 C 383.335 -1.69447 -2.48412 0
M  V30 4082 C 384.883 -1.70909 -2.62219 0
M  V30 4083 C 385.358 -2.6969 -3.70178 0
M  V30 4084 N 386.849 -2.6824 -3.77626 0
M  V30 4085 C 387.584 -3.41339 -4.60733 0
M  V30 4086 N 387.08 -4.24015 -5.4789 0
M  V30 4087 N 388.873 -3.30079 -4.54977 0
M  V30 4088 H 381.024 -1.91054 -0.928016 0
M  V30 4089 H 383.287 -0.823553 -0.469536 0
M  V30 4090 H 382.993 -2.7188 -2.23102 0
M  V30 4091 H 382.867 -1.48147 -3.46889 0
M  V30 4092 H 385.254 -0.691785 -2.86877 0
M  V30 4093 H 385.335 -1.96276 -1.6404 0
M  V30 4094 H 384.979 -3.71566 -3.46268 0
M  V30 4095 H 384.909 -2.41595 -4.67909 0
M  V30 4096 H 387.4 -2.08243 -3.15346 0
M  V30 4097 H 387.713 -4.76636 -6.08308 0
M  V30 4098 H 386.058 -4.28104 -5.47496 0
M  V30 4099 H 389.249 -2.64937 -3.85909 0
M  V30 4100 H 389.422 -3.87308 -5.19516 0
M  V30 4101 N 382.828 1.3818 -0.7579 0
M  V30 4102 C 383.775 2.30416 -0.133057 0
M  V30 4103 C 384.745 1.50398 0.704957 0
M  V30 4104 O 385.93 1.79014 0.660192 0
M  V30 4105 C 383.07 3.36834 0.750813 0
M  V30 4106 C 382.183 4.31879 -0.102297 0
M  V30 4107 C 381.318 5.25368 0.784979 0
M  V30 4108 C 380.357 6.12058 -0.0715046 0
M  V30 4109 N 379.494 6.97832 0.772972 0
M  V30 4110 H 384.334 2.83274 -0.925186 0
M  V30 4111 H 381.871 1.39461 -0.467866 0
M  V30 4112 H 383.829 3.97145 1.27794 0
M  V30 4113 H 382.459 2.85374 1.50868 0
M  V30 4114 H 381.511 3.72991 -0.747095 0
M  V30 4115 H 382.823 4.92921 -0.763552 0
M  V30 4116 H 381.977 5.90818 1.37911 0
M  V30 4117 H 380.716 4.64703 1.47996 0
M  V30 4118 H 379.721 5.456 -0.678272 0
M  V30 4119 H 380.946 6.74793 -0.763606 0
M  V30 4120 H 378.892 6.3971 1.45282 0
M  V30 4121 H 378.809 7.55812 0.168709 0
M  V30 4122 H 380.077 7.67687 1.35194 0
M  V30 4123 N 384.306 0.507319 1.49211 0
M  V30 4124 C 385.216 -0.272136 2.33016 0
M  V30 4125 C 386.232 -0.961206 1.45041 0
M  V30 4126 O 387.408 -0.941191 1.78055 0
M  V30 4127 C 384.473 -1.31895 3.20631 0
M  V30 4128 C 383.534 -0.642648 4.24463 0
M  V30 4129 C 382.767 -1.63959 5.07891 0
M  V30 4130 O 382.99 -2.87007 4.92933 0
M  V30 4131 O 381.924 -1.19143 5.8999 0
M  V30 4132 H 385.75 0.413982 3.00865 0
M  V30 4133 H 383.335 0.268556 1.46966 0
M  V30 4134 H 385.217 -1.92446 3.7489 0
M  V30 4135 H 383.892 -1.98788 2.5547 0
M  V30 4136 H 382.799 0.00276252 3.741 0
M  V30 4137 H 384.132 -0.0160534 4.92197 0
M  V30 4138 N 385.784 -1.5574 0.241426 0
M  V30 4139 C 387.009 -2.0366 -0.392111 0
M  V30 4140 C 387.434 -1.11969 -1.51144 0
M  V30 4141 O 386.792 -0.111594 -1.80956 0
M  V30 4142 C 386.84 -3.49638 -0.882371 0
M  V30 4143 O 385.944 -3.6108 -1.99235 0
M  V30 4144 H 385.285 -0.658379 -0.0862122 0
M  V30 4145 H 387.815 -2.01302 0.365881 0
M  V30 4146 H 387.825 -3.90351 -1.18702 0
M  V30 4147 H 386.5 -4.15852 -0.0632361 0
M  V30 4148 H 385.077 -3.32262 -1.69282 0
M  V30 4149 N 387.262 0.0317525 -1.57568 0
M  V30 4150 C 388.212 1.04101 -2.02847 0
M  V30 4151 C 389.196 1.3219 -0.917317 0
M  V30 4152 O 390.388 1.31819 -1.18121 0
M  V30 4153 C 387.517 2.34295 -2.5092 0
M  V30 4154 C 386.603 2.09308 -3.68851 0
M  V30 4155 N 386.994 1.5437 -4.81667 0
M  V30 4156 C 385.292 2.39604 -3.76172 0
M  V30 4157 C 385.993 1.45126 -5.63306 0
M  V30 4158 N 384.969 1.92589 -5.08341 0
M  V30 4159 H 388.771 0.610217 -2.87495 0
M  V30 4160 H 386.285 0.238108 -1.60645 0
M  V30 4161 H 388.282 3.07404 -2.81617 0
M  V30 4162 H 386.942 2.78055 -1.67677 0
M  V30 4163 H 387.953 1.22678 -5.03161 0
M  V30 4164 H 384.63 2.86457 -3.03724 0
M  V30 4165 H 386.02 1.03163 -6.63933 0
M  V30 4166 N 388.74 1.54641 0.303973 0
M  V30 4167 C 389.67 1.88386 1.3796 0
M  V30 4168 C 390.651 0.742485 1.5304 0
M  V30 4169 O 391.836 0.997959 1.66597 0
M  V30 4170 C 388.966 2.12854 2.74427 0
M  V30 4171 C 387.92 3.28702 2.74115 0
M  V30 4172 C 387.246 3.38582 4.13844 0
M  V30 4173 C 388.546 4.65881 2.3612 0
M  V30 4174 H 390.24 2.78474 1.09966 0
M  V30 4175 H 387.786 1.33988 0.527556 0
M  V30 4176 H 389.739 2.35047 3.49758 0
M  V30 4177 H 388.463 1.19535 3.03939 0
M  V30 4178 H 387.122 3.06428 2.0124 0
M  V30 4179 H 386.77 2.42784 4.40528 0
M  V30 4180 H 386.47 4.16453 4.14537 0
M  V30 4181 H 387.994 3.63031 4.90959 0
M  V30 4182 H 389.408 4.87823 3.01167 0
M  V30 4183 H 387.805 5.46444 2.48031 0
M  V30 4184 H 388.875 4.66799 1.3125 0
M  V30 4185 N 390.218 -0.567019 1.47046 0
M  V30 4186 C 391.629 -1.14916 1.47143 0
M  V30 4187 C 391.98 -1.94954 0.220767 0
M  V30 4188 O 391.105 -2.05602 -0.67505 0
M  V30 4189 C 391.7 -2.09069 2.666 0
M  V30 4190 C 390.259 -2.62575 2.69687 0
M  V30 4191 C 389.406 -1.38755 2.40088 0
M  V30 4192 H 392.357 -0.354126 1.54699 0
M  V30 4193 H 392.378 -2.92789 2.43011 0
M  V30 4194 H 391.89 -1.50789 3.57609 0
M  V30 4195 H 389.991 -3.24681 1.82792 0
M  V30 4196 H 390.104 -3.04239 3.70102 0
M  V30 4197 H 388.468 -1.69098 1.90468 0
M  V30 4198 H 389.251 -0.822822 3.33293 0
M  V30 4199 N 391.696 -1.35014 -0.812953 0
M  V30 4200 C 392.945 -1.27269 -1.56479 0
M  V30 4201 C 393.258 0.152771 -1.95002 0
M  V30 4202 O 394.464 0.352451 -2.69203 0
M  V30 4203 C 392.92 -2.23159 -2.82362 0
M  V30 4204 C 392.528 -3.71016 -2.511 0
M  V30 4205 C 394.272 -2.24342 -3.60376 0
M  V30 4206 C 392.179 -4.58746 -3.73237 0
M  V30 4207 H 391.109 -0.472829 -0.587324 0
M  V30 4208 H 393.76 -1.6024 -0.894171 0
M  V30 4209 H 392.142 -1.83151 -3.51101 0
M  V30 4210 H 393.316 -4.1962 -1.90409 0
M  V30 4211 H 391.631 -3.72378 -1.86343 0
M  V30 4212 H 394.228 -2.87107 -4.51081 0
M  V30 4213 H 394.571 -1.24542 -3.97234 0
M  V30 4214 H 395.104 -2.62846 -2.98591 0
M  V30 4215 H 391.843 -5.59521 -3.41492 0
M  V30 4216 H 391.363 -4.14871 -4.33176 0
M  V30 4217 H 393.042 -4.73852 -4.40537 0
M  V30 4218 N 393.175 1.03435 -1.18907 0
M  V30 4219 C 394.105 2.13503 -0.945448 0
M  V30 4220 C 395.086 1.69682 0.119189 0
M  V30 4221 O 396.271 1.94169 -0.034707 0
M  V30 4222 C 393.401 3.44004 -0.477316 0
M  V30 4223 C 392.355 4.0148 -1.48316 0
M  V30 4224 C 391.681 5.27537 -0.872311 0
M  V30 4225 C 392.981 4.36921 -2.86177 0
M  V30 4226 H 394.675 2.34141 -1.86597 0
M  V30 4227 H 392.221 1.12523 -0.898584 0
M  V30 4228 H 394.174 4.20372 -0.294204 0
M  V30 4229 H 392.898 3.23072 0.478786 0
M  V30 4230 H 391.557 3.27201 -1.65332 0
M  V30 4231 H 391.205 5.02917 0.0911752 0
M  V30 4232 H 390.905 5.66954 -1.54393 0
M  V30 4233 H 392.429 6.06576 -0.699871 0
M  V30 4234 H 393.843 5.04248 -2.72776 0
M  V30 4235 H 392.24 4.87405 -3.50081 0
M  V30 4236 H 393.31 3.46466 -3.39248 0
M  V30 4237 N 394.653 0.992116 1.22453 0
M  V30 4238 C 395.899 0.668523 1.91464 0
M  V30 4239 C 396.232 -0.797313 1.77078 0
M  V30 4240 O 395.507 -1.5765 1.13916 0
M  V30 4241 C 395.79 1.07424 3.43703 0
M  V30 4242 C 395.643 2.59857 3.67143 0
M  V30 4243 C 396.962 0.626891 4.35612 0
M  V30 4244 H 394.081 0.244341 0.695318 0
M  V30 4245 H 396.723 1.2355 1.44345 0
M  V30 4246 H 394.873 0.591816 3.83966 0
M  V30 4247 H 396.545 3.15764 3.3629 0
M  V30 4248 H 394.788 3.01961 3.11451 0
M  V30 4249 H 395.459 2.83296 4.73759 0
M  V30 4250 H 397.935 1.04125 4.02861 0
M  V30 4251 H 396.811 0.939076 5.40807 0
M  V30 4252 H 397.072 -0.472457 4.39568 0
M  V30 4253 N 396.131 -1.37776 0.765217 0
M  V30 4254 C 397.408 -1.93975 0.251596 0
M  V30 4255 C 397.788 -1.69949 -1.25222 0
M  V30 4256 O 397.136 -1.04457 -2.03226 0
M  V30 4257 C 397.346 -3.43487 0.617895 0
M  V30 4258 C 398.694 -4.20564 0.584029 0
M  V30 4259 O 399.718 -3.5182 0.556888 0
M  V30 4260 O 398.577 -5.43138 0.605291 0
M  V30 4261 H 395.671 -0.82509 0.0561806 0
M  V30 4262 H 398.217 -1.47101 0.846128 0
M  V30 4263 H 396.989 -3.5453 1.65602 0
M  V30 4264 H 396.612 -3.976 -0.00403411 0
M  V30 4265 N 397.609 -0.515225 -1.4894 0
M  V30 4266 C 399.02 -0.0710067 -1.86565 0
M  V30 4267 C 399.371 1.34733 -1.42623 0
M  V30 4268 O 398.496 2.00653 -0.810379 0
M  V30 4269 C 399.091 -0.122083 -3.3858 0
M  V30 4270 C 397.65 0.266863 -3.75453 0
M  V30 4271 C 396.797 -0.488376 -2.72966 0
M  V30 4272 H 399.748 -0.727266 -1.41055 0
M  V30 4273 H 399.769 0.669818 -3.74558 0
M  V30 4274 H 399.281 -1.15448 -3.70531 0
M  V30 4275 H 397.382 1.30196 -3.49113 0
M  V30 4276 H 397.495 -0.0624811 -4.79059 0
M  V30 4277 H 395.859 0.0635622 -2.54621 0
M  V30 4278 H 396.642 -1.52113 -3.07761 0
M  V30 4279 N 399.087 1.5561 -0.249682 0
M  V30 4280 C 400.312 2.03865 0.381305 0
M  V30 4281 C 400.737 1.12769 1.50548 0
M  V30 4282 O 400.095 0.121189 1.80895 0
M  V30 4283 C 400.143 3.50101 0.863816 0
M  V30 4284 O 399.247 3.62132 1.97318 0
M  V30 4285 H 398.588 0.658827 0.0827194 0
M  V30 4286 H 401.118 2.01105 -0.376552 0
M  V30 4287 H 401.128 3.90975 1.1663 0
M  V30 4288 H 399.803 4.1588 0.0411816 0
M  V30 4289 H 398.38 3.33155 1.67517 0
M  V30 4290 N 400.565 -0.0233959 1.57583 0
M  V30 4291 C 401.515 -1.03023 2.03397 0
M  V30 4292 C 402.499 -1.31701 0.924315 0
M  V30 4293 O 403.691 -1.31191 1.18819 0
M  V30 4294 C 400.82 -2.32961 2.52159 0
M  V30 4295 C 399.906 -2.07349 3.69956 0
M  V30 4296 N 400.297 -1.51814 4.82479 0
M  V30 4297 C 398.595 -2.37606 3.77438 0
M  V30 4298 C 399.296 -1.42136 5.64068 0
M  V30 4299 N 398.272 -1.89891 5.09355 0
M  V30 4300 H 402.074 -0.594962 2.87815 0
M  V30 4301 H 399.588 -0.229586 1.60769 0
M  V30 4302 H 401.585 -3.05906 2.83244 0
M  V30 4303 H 400.245 -2.77162 1.69149 0
M  V30 4304 H 401.256 -1.20008 5.03804 0
M  V30 4305 H 397.933 -2.84842 3.05239 0
M  V30 4306 H 399.323 -0.996405 6.64471 0
M  V30 4307 N 402.043 -1.548 -0.295768 0
M  V30 4308 C 403.268 -1.78653 -1.05346 0
M  V30 4309 C 403.693 -0.546894 -1.79974 0
M  V30 4310 O 403.051 0.502763 -1.7419 0
M  V30 4311 C 403.099 -2.99679 -2.00561 0
M  V30 4312 O 402.203 -2.7317 -3.08953 0
M  V30 4313 H 401.544 -0.59116 -0.302367 0
M  V30 4314 H 404.074 -2.01895 -0.331598 0
M  V30 4315 H 404.084 -3.27793 -2.42932 0
M  V30 4316 H 402.759 -3.89562 -1.4565 0
M  V30 4317 H 401.336 -2.56089 -2.71059 0
M  V30 4318 N 403.521 0.559213 -1.47345 0
M  V30 4319 C 404.769 1.31388 -1.53563 0
M  V30 4320 C 405.09 1.93985 -0.198678 0
M  V30 4321 O 404.36 1.79825 0.777167 0
M  V30 4322 H 402.94 0.487901 -0.565652 0
M  V30 4323 H 405.602 0.65315 -1.8363 0
M  V30 4324 H 404.698 2.10844 -2.30111 0
M  V30 4325 N 404.999 1.35443 0.805782 0
M  V30 4326 C 406.247 1.28507 1.55982 0
M  V30 4327 C 406.568 -0.140046 1.94496 0
M  V30 4328 O 405.838 -1.07666 1.63661 0
M  V30 4329 H 404.418 0.472676 0.578434 0
M  V30 4330 H 407.08 1.69555 0.961098 0
M  V30 4331 H 406.176 1.90148 2.47488 0
M  V30 4332 N 406.477 -1.02803 1.19454 0
M  V30 4333 C 407.893 -1.28473 0.946937 0
M  V30 4334 C 408.093 -1.97881 -0.380202 0
M  V30 4335 O 407.149 -2.26719 -1.11151 0
M  V30 4336 C 408.462 -2.13099 2.12154 0
M  V30 4337 C 410.01 -2.26404 2.16126 0
M  V30 4338 C 410.485 -3.14402 3.33039 0
M  V30 4339 N 411.976 -3.21991 3.32981 0
M  V30 4340 C 412.711 -3.90272 4.20089 0
M  V30 4341 N 412.207 -4.60777 5.17355 0
M  V30 4342 N 414 -3.8668 4.07964 0
M  V30 4343 H 406.151 -0.561665 2.04839 0
M  V30 4344 H 408.414 -0.310438 0.89573 0
M  V30 4345 H 408.12 -1.69422 3.08203 0
M  V30 4346 H 407.994 -3.13813 2.09287 0
M  V30 4347 H 410.381 -2.69311 1.20647 0
M  V30 4348 H 410.462 -1.25237 2.23045 0
M  V30 4349 H 410.106 -2.72204 4.28798 0
M  V30 4350 H 410.036 -4.1563 3.23356 0
M  V30 4351 H 412.527 -2.71778 2.62574 0
M  V30 4352 H 412.84 -5.10513 5.80169 0
M  V30 4353 H 411.185 -4.5964 5.21302 0
M  V30 4354 H 414.376 -3.30739 3.31254 0
M  V30 4355 H 414.549 -4.39621 4.76064 0
M  V30 4356 N 407.956 -0.998596 -1.21925 0
M  V30 4357 C 409.372 -0.710303 -1.42923 0
M  V30 4358 C 409.572 0.716933 -1.88314 0
M  V30 4359 O 408.628 1.48712 -2.04062 0
M  V30 4360 C 409.941 -1.72072 -2.466 0
M  V30 4361 C 411.489 -1.73681 -2.60392 0
M  V30 4362 C 411.964 -2.73601 -3.67296 0
M  V30 4363 N 413.455 -2.7223 -3.7476 0
M  V30 4364 C 414.19 -3.46206 -4.57087 0
M  V30 4365 N 413.686 -4.29802 -5.43362 0
M  V30 4366 N 415.479 -3.34886 -4.51451 0
M  V30 4367 H 407.63 -1.92028 -0.9077 0
M  V30 4368 H 409.893 -0.828487 -0.460775 0
M  V30 4369 H 409.599 -2.74231 -2.20206 0
M  V30 4370 H 409.473 -1.51818 -3.45299 0
M  V30 4371 H 411.86 -0.722173 -2.86127 0
M  V30 4372 H 411.941 -1.98005 -1.61949 0
M  V30 4373 H 411.585 -3.75217 -3.42307 0
M  V30 4374 H 411.515 -2.46545 -4.65321 0
M  V30 4375 H 414.006 -2.11576 -3.1312 0
M  V30 4376 H 414.319 -4.83061 -6.03218 0
M  V30 4377 H 412.664 -4.33887 -5.42925 0
M  V30 4378 H 415.855 -2.69015 -3.83078 0
M  V30 4379 H 416.028 -3.92796 -5.15379 0
M  V30 4380 N 409.434 1.37368 -0.772513 0
M  V30 4381 C 410.711 1.93839 -0.26188 0
M  V30 4382 C 411.091 1.7061 1.24319 0
M  V30 4383 O 410.439 1.05534 2.02669 0
M  V30 4384 C 410.649 3.43154 -0.636102 0
M  V30 4385 C 411.997 4.20249 -0.606324 0
M  V30 4386 O 413.021 3.5152 -0.575538 0
M  V30 4387 O 411.88 5.42809 -0.634086 0
M  V30 4388 H 408.974 0.82478 -0.0605555 0
M  V30 4389 H 411.52 1.4665 -0.853917 0
M  V30 4390 H 410.292 3.53647 -1.6748 0
M  V30 4391 H 409.915 3.97596 -0.0170516 0
M  V30 4392 N 410.912 0.523116 1.48665 0
M  V30 4393 C 411.842 -0.23231 2.32342 0
M  V30 4394 C 412.823 -0.941637 1.41659 0
M  V30 4395 O 414.008 -0.928751 1.70552 0
M  V30 4396 C 411.138 -1.28387 3.22698 0
M  V30 4397 C 410.092 -0.693098 4.22351 0
M  V30 4398 C 409.418 -1.8468 5.01794 0
M  V30 4399 C 410.718 0.33063 5.21252 0
M  V30 4400 H 412.412 0.466192 2.95748 0
M  V30 4401 H 409.958 0.225643 1.42221 0
M  V30 4402 H 411.911 -1.82024 3.80059 0
M  V30 4403 H 410.635 -2.01186 2.57278 0
M  V30 4404 H 409.294 -0.178299 3.66166 0
M  V30 4405 H 408.942 -2.56301 4.32804 0
M  V30 4406 H 408.642 -1.45747 5.69238 0
M  V30 4407 H 410.166 -2.38709 5.62006 0
M  V30 4408 H 411.58 -0.118407 5.73178 0
M  V30 4409 H 409.977 0.636974 5.9671 0
M  V30 4410 H 411.047 1.23883 4.68808 0
M  V30 4411 N 412.39 -1.55475 0.257931 0
M  V30 4412 C 413.636 -1.99502 -0.364266 0
M  V30 4413 C 413.969 -1.146 -1.56782 0
M  V30 4414 O 413.244 -0.211968 -1.93342 0
M  V30 4415 C 413.527 -3.51917 -0.763333 0
M  V30 4416 C 413.38 -4.4758 0.446371 0
M  V30 4417 C 414.699 -4.09742 -1.60623 0
M  V30 4418 H 411.818 -0.725277 -0.130929 0
M  V30 4419 H 414.46 -1.8653 0.361446 0
M  V30 4420 H 412.61 -3.63101 -1.38166 0
M  V30 4421 H 414.282 -4.48362 1.08487 0
M  V30 4422 H 412.525 -4.19947 1.08753 0
M  V30 4423 H 413.196 -5.51862 0.123645 0
M  V30 4424 H 415.672 -4.01727 -1.08418 0
M  V30 4425 H 414.548 -5.16631 -1.85429 0
M  V30 4426 H 414.809 -3.58889 -2.58169 0
M  V30 4427 N 413.868 0.0150385 -1.57593 0
M  V30 4428 C 415.117 0.702115 -1.89085 0
M  V30 4429 C 415.43 1.75764 -0.858277 0
M  V30 4430 O 416.636 2.49829 -1.0629 0
M  V30 4431 C 415.092 1.29992 -3.35604 0
M  V30 4432 C 414.7 0.280007 -4.47124 0
M  V30 4433 C 416.444 1.96606 -3.76227 0
M  V30 4434 C 414.351 0.886949 -5.84711 0
M  V30 4435 H 413.281 0.265997 -0.705522 0
M  V30 4436 H 415.932 -0.0430408 -1.8345 0
M  V30 4437 H 414.314 2.09525 -3.36029 0
M  V30 4438 H 415.488 -0.489631 -4.58191 0
M  V30 4439 H 413.803 -0.284835 -4.15425 0
M  V30 4440 H 416.4 2.42893 -4.76347 0
M  V30 4441 H 416.743 2.79024 -3.08952 0
M  V30 4442 H 417.276 1.23828 -3.78036 0
M  V30 4443 H 414.015 0.101876 -6.55421 0
M  V30 4444 H 413.535 1.6261 -5.77337 0
M  V30 4445 H 415.214 1.39011 -6.3189 0
M  V30 4446 N 415.346 1.54954 0.287554 0
M  V30 4447 C 416.757 1.65732 0.859634 0
M  V30 4448 C 417.108 0.574767 1.87592 0
M  V30 4449 O 416.233 -0.286299 2.14498 0
M  V30 4450 C 416.828 3.00438 1.56597 0
M  V30 4451 C 415.387 3.13292 2.08627 0
M  V30 4452 C 414.534 2.61473 0.923416 0
M  V30 4453 H 417.485 1.5857 0.0642338 0
M  V30 4454 H 417.506 2.92613 2.43224 0
M  V30 4455 H 417.018 3.79207 0.826053 0
M  V30 4456 H 415.119 2.39268 2.85625 0
M  V30 4457 H 415.232 4.19647 2.31157 0
M  V30 4458 H 413.596 2.18264 1.31275 0
M  V30 4459 H 414.379 3.42733 0.197241 0
M  V30 4460 N 416.824 -0.551391 1.4764 0
M  V30 4461 C 417.754 -1.66757 1.63445 0
M  V30 4462 C 418.735 -1.63077 0.483742 0
M  V30 4463 O 419.92 -1.80607 0.71377 0
M  V30 4464 C 417.05 -3.05387 1.65396 0
M  V30 4465 C 416.004 -3.23918 2.79752 0
M  V30 4466 C 415.33 -4.63393 2.66779 0
M  V30 4467 C 416.63 -3.08735 4.21284 0
M  V30 4468 H 418.324 -1.53786 2.56886 0
M  V30 4469 H 415.87 -0.738415 1.23626 0
M  V30 4470 H 417.823 -3.83325 1.75043 0
M  V30 4471 H 416.547 -3.19332 0.685195 0
M  V30 4472 H 415.206 -2.48391 2.69625 0
M  V30 4473 H 414.854 -4.74144 1.67918 0
M  V30 4474 H 414.554 -4.7674 3.43501 0
M  V30 4475 H 416.078 -5.43458 2.78364 0
M  V30 4476 H 417.492 -3.76484 4.32357 0
M  V30 4477 H 415.889 -3.33588 4.98838 0
M  V30 4478 H 416.959 -2.0541 4.39243 0
M  V30 4479 N 418.302 -1.35869 -0.798587 0
M  V30 4480 C 419.527 -1.32883 -1.59238 0
M  V30 4481 C 419.952 0.0894587 -1.87887 0
M  V30 4482 O 419.31 1.05869 -1.47178 0
M  V30 4483 C 419.358 -2.14892 -2.89575 0
M  V30 4484 O 418.462 -1.53512 -3.82763 0
M  V30 4485 H 417.803 -0.455236 -0.48338 0
M  V30 4486 H 420.333 -1.79024 -0.990539 0
M  V30 4487 H 420.343 -2.27139 -3.38928 0
M  V30 4488 H 419.018 -3.17998 -2.68049 0
M  V30 4489 H 417.595 -1.50153 -3.41334 0
M  V30 4490 N 419.78 1.02168 -1.19998 0
M  V30 4491 C 421.196 1.27969 -0.953737 0
M  V30 4492 C 421.396 1.98079 0.369703 0
M  V30 4493 O 420.452 2.27306 1.09947 0
M  V30 4494 C 421.765 2.11971 -2.13281 0
M  V30 4495 C 423.313 2.25255 -2.17323 0
M  V30 4496 C 423.788 3.12632 -3.34702 0
M  V30 4497 N 425.279 3.2022 -3.34684 0
M  V30 4498 C 426.014 3.88039 -4.22153 0
M  V30 4499 N 425.51 4.58027 -5.19791 0
M  V30 4500 N 427.303 3.84511 -4.10009 0
M  V30 4501 H 419.454 0.550794 -2.05134 0
M  V30 4502 H 421.717 0.305683 -0.897364 0
M  V30 4503 H 421.423 1.67785 -3.09097 0
M  V30 4504 H 421.297 3.12699 -2.10949 0
M  V30 4505 H 423.684 2.68667 -1.22073 0
M  V30 4506 H 423.765 1.24053 -2.23706 0
M  V30 4507 H 423.409 2.69926 -4.30235 0
M  V30 4508 H 423.339 4.13909 -3.25556 0
M  V30 4509 H 425.83 2.70382 -2.64012 0
M  V30 4510 H 426.143 5.07429 -5.82868 0
M  V30 4511 H 424.488 4.56869 -5.23733 0
M  V30 4512 H 427.679 3.28978 -3.33003 0
M  V30 4513 H 427.852 4.3709 -4.78389 0
M  V30 4514 N 421.258 1.00505 1.21394 0
M  V30 4515 C 422.221 0.570459 2.21987 0
M  V30 4516 C 423.221 -0.353211 1.56873 0
M  V30 4517 O 424.411 -0.14349 1.73608 0
M  V30 4518 C 421.543 -0.168555 3.40483 0
M  V30 4519 H 422.736 1.46021 2.6195 0
M  V30 4520 H 420.289 0.793565 1.34656 0
M  V30 4521 H 421.024 -1.07374 3.06009 0
M  V30 4522 H 420.809 0.494823 3.88965 0
M  V30 4523 H 422.299 -0.460362 4.15055 0
M  V30 4524 N 422.737 -1.36956 0.779787 0
M  V30 4525 C 423.7 -2.2851 0.177662 0
M  V30 4526 C 424.7 -1.48393 -0.619377 0
M  V30 4527 O 425.89 -1.68505 -0.441785 0
M  V30 4528 C 423.022 -3.32428 -0.755279 0
M  V30 4529 H 424.215 -2.83269 0.984823 0
M  V30 4530 H 421.768 -1.46358 0.548544 0
M  V30 4531 H 422.503 -2.82808 -1.58714 0
M  V30 4532 H 422.288 -3.91659 -0.185817 0
M  V30 4533 H 423.778 -4.00824 -1.17174 0
M  V30 4534 N 424.215 -0.530993 -1.48385 0
M  V30 4535 C 425.464 0.00474348 -2.01699 0
M  V30 4536 C 425.777 1.35227 -1.41325 0
M  V30 4537 O 426.983 1.97643 -1.86144 0
M  V30 4538 C 425.439 0.0588473 -3.59852 0
M  V30 4539 C 425.047 -1.28385 -4.2921 0
M  V30 4540 C 426.791 0.543358 -4.21008 0
M  V30 4541 C 424.698 -1.19028 -5.79298 0
M  V30 4542 H 423.628 0.00554317 -0.75398 0
M  V30 4543 H 426.279 -0.674924 -1.70637 0
M  V30 4544 H 424.661 0.803612 -3.8776 0
M  V30 4545 H 425.835 -2.04426 -4.12973 0
M  V30 4546 H 424.15 -1.70418 -3.7993 0
M  V30 4547 H 426.747 0.631351 -5.3096 0
M  V30 4548 H 427.09 1.54937 -3.86394 0
M  V30 4549 H 427.623 -0.145754 -3.97533 0
M  V30 4550 H 424.362 -2.17147 -6.18488 0
M  V30 4551 H 423.882 -0.471246 -5.97946 0
M  V30 4552 H 425.561 -0.881365 -6.40969 0
M  V30 4553 N 425.693 1.55336 -0.266172 0
M  V30 4554 C 426.656 2.20878 0.612001 0
M  V30 4555 C 427.656 1.18388 1.08816 0
M  V30 4556 O 428.846 1.4335 0.989774 0
M  V30 4557 C 425.978 2.86765 1.84332 0
M  V30 4558 H 427.171 2.99873 0.0398718 0
M  V30 4559 H 424.724 1.56291 -0.0167309 0
M  V30 4560 H 425.459 2.11759 2.45619 0
M  V30 4561 H 425.244 3.61862 1.5099 0
M  V30 4562 H 426.734 3.36867 2.46801 0
M  V30 4563 N 427.171 -0.0066808 1.57599 0
M  V30 4564 C 428.417 -0.693947 1.90558 0
M  V30 4565 C 428.75 -1.73792 0.866594 0
M  V30 4566 O 428.025 -1.94156 -0.115548 0
M  V30 4567 C 428.308 -1.34317 3.34112 0
M  V30 4568 C 428.161 -0.311189 4.48722 0
M  V30 4569 C 429.48 -2.27116 3.7697 0
M  V30 4570 H 426.599 -0.250803 0.693013 0
M  V30 4571 H 429.241 0.043242 1.89951 0
M  V30 4572 H 427.391 -1.9715 3.3476 0
M  V30 4573 H 429.063 0.316944 4.6021 0
M  V30 4574 H 427.306 0.367253 4.32243 0
M  V30 4575 H 427.977 -0.804366 5.46108 0
M  V30 4576 H 430.453 -1.74306 3.77831 0
M  V30 4577 H 429.329 -2.69511 4.78179 0
M  V30 4578 H 429.59 -3.14743 3.10466 0
M  V30 4579 N 428.649 -1.55105 -0.279332 0
M  V30 4580 C 429.897 -1.75066 -1.00977 0
M  V30 4581 C 430.218 -0.551276 -1.87045 0
M  V30 4582 O 429.488 0.433984 -1.91032 0
M  V30 4583 H 428.068 -0.645578 -0.375816 0
M  V30 4584 H 430.73 -1.92497 -0.305089 0
M  V30 4585 H 429.826 -2.64894 -1.65038 0
M  V30 4586 N 430.127 0.543554 -1.4793 0
M  V30 4587 C 431.09 1.63156 -1.60975 0
M  V30 4588 C 432.09 1.53346 -0.483899 0
M  V30 4589 O 433.28 1.5726 -0.749339 0
M  V30 4590 C 430.412 3.02743 -1.56716 0
M  V30 4591 H 431.605 1.52934 -2.57975 0
M  V30 4592 H 429.158 0.764557 -1.36324 0
M  V30 4593 H 429.893 3.18484 -0.611418 0
M  V30 4594 H 429.678 3.11272 -2.38438 0
M  V30 4595 H 431.168 3.81871 -1.6901 0
M  V30 4596 N 431.605 1.3629 0.791371 0
M  V30 4597 C 432.555 1.26988 1.89362 0
M  V30 4598 C 433.539 0.161795 1.60084 0
M  V30 4599 O 434.731 0.394426 1.72549 0
M  V30 4600 C 431.86 1.05944 3.26544 0
M  V30 4601 C 430.946 2.21211 3.61838 0
M  V30 4602 N 431.337 3.46518 3.68455 0
M  V30 4603 C 429.635 2.12933 3.91887 0
M  V30 4604 C 430.336 4.2241 3.99931 0
M  V30 4605 N 429.312 3.51329 4.14812 0
M  V30 4606 H 433.114 2.21908 1.92702 0
M  V30 4607 H 430.628 1.28982 0.986787 0
M  V30 4608 H 432.625 0.973666 4.05371 0
M  V30 4609 H 431.285 0.119223 3.24481 0
M  V30 4610 H 432.296 3.80677 3.51148 0
M  V30 4611 H 428.973 1.26855 3.97761 0
M  V30 4612 H 430.363 5.30767 4.1199 0
M  V30 4613 N 433.083 -1.0153 1.20538 0
M  V30 4614 C 434.331 -1.74803 1.01432 0
M  V30 4615 C 434.652 -1.8963 -0.454456 0
M  V30 4616 O 433.922 -1.43975 -1.32846 0
M  V30 4617 H 432.502 -0.647598 0.372324 0
M  V30 4618 H 435.164 -1.22402 1.5167 0
M  V30 4619 H 434.26 -2.75114 1.47373 0
M  V30 4620 N 434.561 -1.01147 -1.20859 0
M  V30 4621 C 435.81 -0.693214 -1.89413 0
M  V30 4622 C 436.123 0.779969 -1.79376 0
M  V30 4623 O 437.329 1.21057 -2.43017 0
M  V30 4624 C 435.785 -1.18949 -3.39675 0
M  V30 4625 C 435.393 -2.68921 -3.58309 0
M  V30 4626 C 437.137 -0.94642 -4.13815 0
M  V30 4627 C 435.044 -3.12056 -5.0237 0
M  V30 4628 H 433.974 -0.255595 -0.709357 0
M  V30 4629 H 436.625 -1.22349 -1.36759 0
M  V30 4630 H 435.007 -0.587228 -3.91622 0
M  V30 4631 H 436.181 -3.34652 -3.16772 0
M  V30 4632 H 434.496 -2.91314 -2.97532 0
M  V30 4633 H 437.093 -1.24417 -5.20023 0
M  V30 4634 H 437.436 0.117219 -4.16135 0
M  V30 4635 H 437.969 -1.5118 -3.67953 0
M  V30 4636 H 434.708 -4.17674 -5.05202 0
M  V30 4637 H 434.228 -2.51041 -5.44737 0
M  V30 4638 H 435.907 -3.04403 -5.70918 0
M  V30 4639 N 436.039 1.36541 -0.78704 0
M  V30 4640 C 437.288 1.98552 -0.35494 0
M  V30 4641 C 437.601 1.63171 1.07864 0
M  V30 4642 O 438.807 2.18399 1.61289 0
M  V30 4643 C 437.263 3.55136 -0.583671 0
M  V30 4644 C 436.871 3.99444 -2.02851 0
M  V30 4645 C 438.615 4.2395 -0.215957 0
M  V30 4646 C 436.522 5.48796 -2.20403 0
M  V30 4647 H 435.452 0.742888 -0.128972 0
M  V30 4648 H 438.103 1.5587 -0.968337 0
M  V30 4649 H 436.485 3.95875 0.0994046 0
M  V30 4650 H 437.659 3.6991 -2.74779 0
M  V30 4651 H 435.974 3.43459 -2.35425 0
M  V30 4652 H 438.571 5.33709 -0.325405 0
M  V30 4653 H 438.914 4.07827 0.835646 0
M  V30 4654 H 439.447 3.88565 -0.852175 0
M  V30 4655 H 436.186 5.69864 -3.23937 0
M  V30 4656 H 435.706 5.79964 -1.52977 0
M  V30 4657 H 437.385 6.14986 -2.01002 0
M  V30 4658 N 437.518 0.538854 1.48102 0
M  V30 4659 C 438.764 0.00801365 2.02798 0
M  V30 4660 C 439.097 -1.3309 1.41424 0
M  V30 4661 O 438.372 -1.86169 0.563158 0
M  V30 4662 C 438.655 -0.104589 3.59948 0
M  V30 4663 C 438.508 1.26012 4.31788 0
M  V30 4664 C 439.827 -0.827055 4.32259 0
M  V30 4665 H 436.946 0.00438624 0.736987 0
M  V30 4666 H 439.588 0.6976 1.7673 0
M  V30 4667 H 437.738 -0.691893 3.82289 0
M  V30 4668 H 439.41 1.88922 4.2084 0
M  V30 4669 H 437.653 1.83968 3.92859 0
M  V30 4670 H 438.324 1.13424 5.40221 0
M  V30 4671 H 440.8 -0.328578 4.14801 0
M  V30 4672 H 439.676 -0.87476 5.41885 0
M  V30 4673 H 439.937 -1.87927 4.0017 0
M  V30 4674 N 438.996 -1.55193 0.274407 0
M  V30 4675 C 439.906 -2.26164 -0.623473 0
M  V30 4676 C 440.922 -1.28729 -1.17068 0
M  V30 4677 O 442.098 -1.61663 -1.20112 0
M  V30 4678 C 439.163 -2.96833 -1.7914 0
M  V30 4679 C 438.224 -4.09745 -1.28093 0
M  V30 4680 C 437.457 -4.77034 -2.3932 0
M  V30 4681 O 437.68 -4.4353 -3.5866 0
M  V30 4682 O 436.614 -5.64996 -2.07516 0
M  V30 4683 H 440.44 -3.03661 -0.0485661 0
M  V30 4684 H 438.025 -1.49341 0.0418382 0
M  V30 4685 H 439.907 -3.41248 -2.4724 0
M  V30 4686 H 438.582 -2.22253 -2.35341 0
M  V30 4687 H 437.489 -3.69787 -0.566416 0
M  V30 4688 H 438.822 -4.86224 -0.764683 0
M  V30 4689 N 440.474 -0.00167713 -1.576 0
M  V30 4690 C 441.72 0.683832 -1.90923 0
M  V30 4691 C 442.053 1.7333 -0.875799 0
M  V30 4692 O 441.328 1.94215 0.10525 0
M  V30 4693 C 441.611 1.32543 -3.3482 0
M  V30 4694 C 441.464 0.287387 -4.48881 0
M  V30 4695 C 442.783 2.25114 -3.78169 0
M  V30 4696 H 439.902 0.247125 -0.694333 0
M  V30 4697 H 442.544 -0.0533149 -1.89925 0
M  V30 4698 H 440.694 1.95372 -3.35801 0
M  V30 4699 H 442.366 -0.341346 -4.60035 0
M  V30 4700 H 440.609 -0.39017 -4.32042 0
M  V30 4701 H 441.28 0.775393 -5.46527 0
M  V30 4702 H 443.756 1.723 -3.7875 0
M  V30 4703 H 442.632 2.66971 -4.79602 0
M  V30 4704 H 442.893 3.13092 -3.12131 0
M  V30 4705 N 441.952 1.55251 0.271103 0
M  V30 4706 C 442.902 1.84649 1.33749 0
M  V30 4707 C 443.886 0.705529 1.44607 0
M  V30 4708 O 445.078 0.966916 1.48256 0
M  V30 4709 C 442.207 2.12354 2.69742 0
M  V30 4710 C 441.293 3.32714 2.62988 0
M  V30 4711 N 441.684 4.52575 2.25853 0
M  V30 4712 C 439.982 3.35341 2.94045 0
M  V30 4713 C 440.683 5.34669 2.29136 0
M  V30 4714 N 439.659 4.73123 2.67685 0
M  V30 4715 H 443.461 2.74865 1.0405 0
M  V30 4716 H 440.975 1.55152 0.479738 0
M  V30 4717 H 442.972 2.31572 3.4667 0
M  V30 4718 H 441.632 1.23422 3.00328 0
M  V30 4719 H 442.643 4.78639 1.978 0
M  V30 4720 H 439.32 2.56608 3.2933 0
M  V30 4721 H 440.71 6.40509 2.02971 0
M  V30 4722 N 443.43 -0.535701 1.48216 0
M  V30 4723 C 444.841 -1.11769 1.49548 0
M  V30 4724 C 445.192 -1.94442 0.26207 0
M  V30 4725 O 444.317 -2.06987 -0.631287 0
M  V30 4726 C 444.912 -2.03367 2.70975 0
M  V30 4727 C 443.471 -2.56795 2.75196 0
M  V30 4728 C 442.618 -1.33631 2.42977 0
M  V30 4729 H 445.569 -0.321232 1.55415 0
M  V30 4730 H 445.59 -2.87569 2.49167 0
M  V30 4731 H 445.102 -1.43169 3.60727 0
M  V30 4732 H 443.203 -3.20731 1.89638 0
M  V30 4733 H 443.316 -2.9632 3.76472 0
M  V30 4734 H 441.68 -1.6502 1.94012 0
M  V30 4735 H 442.463 -0.75194 3.34964 0
M  V30 4736 N 444.908 -1.36708 -0.784132 0
M  V30 4737 C 445.818 -1.3363 -1.92822 0
M  V30 4738 C 446.834 -0.237686 -1.72369 0
M  V30 4739 O 448.01 -0.470962 -1.95816 0
M  V30 4740 C 445.075 -1.13011 -3.27764 0
M  V30 4741 C 444.136 -2.32397 -3.60957 0
M  V30 4742 C 443.369 -2.12752 -4.89461 0
M  V30 4743 O 443.592 -1.10541 -5.59586 0
M  V30 4744 O 442.526 -3.00653 -5.21432 0
M  V30 4745 H 446.352 -2.29964 -1.98369 0
M  V30 4746 H 443.937 -1.1731 -0.925136 0
M  V30 4747 H 445.819 -1.03451 -4.08504 0
M  V30 4748 H 444.494 -0.19743 -3.23097 0
M  V30 4749 H 443.401 -2.47527 -2.80502 0
M  V30 4750 H 444.734 -3.2419 -3.70354 0
M  V30 4751 N 446.386 1.0089 -1.21074 0
M  V30 4752 C 447.797 1.56056 -1.02486 0
M  V30 4753 C 448.148 1.91728 0.416506 0
M  V30 4754 O 447.273 1.73066 1.29912 0
M  V30 4755 C 447.868 2.83563 -1.85411 0
M  V30 4756 C 446.427 3.3523 -1.71166 0
M  V30 4757 C 445.574 2.0846 -1.82865 0
M  V30 4758 H 448.525 0.831818 -1.35154 0
M  V30 4759 H 448.546 3.55286 -1.36205 0
M  V30 4760 H 448.058 2.57569 -2.9031 0
M  V30 4761 H 446.159 3.66167 -0.689361 0
M  V30 4762 H 446.272 4.06913 -2.52901 0
M  V30 4763 H 444.636 2.21275 -1.26132 0
M  V30 4764 H 445.419 1.84883 -2.89263 0
M  V30 4765 N 447.864 1.01787 1.20321 0
M  V30 4766 C 448.774 0.598898 2.26827 0
M  V30 4767 C 449.79 -0.36418 1.70146 0
M  V30 4768 O 450.966 -0.224812 2.00141 0
M  V30 4769 C 448.031 -0.0549769 3.46656 0
M  V30 4770 C 447.092 0.954205 4.18561 0
M  V30 4771 C 446.325 0.331439 5.3267 0
M  V30 4772 O 446.548 -0.86851 5.63749 0
M  V30 4773 O 445.482 1.0488 5.92692 0
M  V30 4774 H 449.308 1.48562 2.64883 0
M  V30 4775 H 446.893 0.787434 1.26964 0
M  V30 4776 H 448.775 -0.420102 4.19301 0
M  V30 4777 H 447.45 -0.915876 3.10473 0
M  V30 4778 H 446.357 1.37072 3.48083 0
M  V30 4779 H 447.69 1.78511 4.58688 0
M  V30 4780 N 449.342 -1.36122 0.79427 0
M  V30 4781 C 450.289 -2.29982 0.194101 0
M  V30 4782 C 451.259 -1.52214 -0.664833 0
M  V30 4783 O 452.444 -1.80702 -0.612498 0
M  V30 4784 C 449.584 -3.38706 -0.661244 0
M  V30 4785 C 448.697 -4.31456 0.216766 0
M  V30 4786 C 447.832 -5.27265 -0.645411 0
M  V30 4787 C 446.871 -6.11653 0.233756 0
M  V30 4788 N 446.008 -6.99636 -0.587682 0
M  V30 4789 H 450.848 -2.80722 0.999965 0
M  V30 4790 H 448.385 -1.38172 0.504677 0
M  V30 4791 H 450.343 -4.00394 -1.17219 0
M  V30 4792 H 448.973 -2.89274 -1.43249 0
M  V30 4793 H 448.025 -3.7088 0.845724 0
M  V30 4794 H 449.337 -4.90724 0.893973 0
M  V30 4795 H 448.491 -5.94266 -1.22198 0
M  V30 4796 H 447.23 -4.68463 -1.35623 0
M  V30 4797 H 446.235 -5.4361 0.82269 0
M  V30 4798 H 447.46 -6.72531 0.942247 0
M  V30 4799 H 445.406 -6.43337 -1.2827 0
M  V30 4800 H 445.323 -7.55993 0.0317402 0
M  V30 4801 H 446.591 -7.71001 -1.14792 0
M  V30 4802 N 450.82 -0.546701 -1.47814 0
M  V30 4803 C 451.783 0.196287 -2.28358 0
M  V30 4804 C 452.783 0.852437 -1.36346 0
M  V30 4805 O 453.973 0.709913 -1.59078 0
M  V30 4806 C 451.105 1.28579 -3.15722 0
M  V30 4807 H 452.298 -0.511086 -2.95513 0
M  V30 4808 H 449.851 -0.303248 -1.5333 0
M  V30 4809 H 450.586 2.0259 -2.53235 0
M  V30 4810 H 450.371 0.820229 -3.83425 0
M  V30 4811 H 451.861 1.80793 -3.76435 0
M  V30 4812 N 452.299 1.55045 -0.282633 0
M  V30 4813 C 453.229 2.2579 0.595066 0
M  V30 4814 C 454.21 1.25074 1.15284 0
M  V30 4815 O 455.395 1.5381 1.18559 0
M  V30 4816 C 452.525 2.98472 1.77572 0
M  V30 4817 C 451.479 4.0618 1.34914 0
M  V30 4818 C 450.805 4.66477 2.6135 0
M  V30 4819 C 452.105 5.1996 0.493821 0
M  V30 4820 H 453.799 2.994 0.00505653 0
M  V30 4821 H 451.345 1.44 0.000992001 0
M  V30 4822 H 453.298 3.46677 2.39568 0
M  V30 4823 H 452.022 2.2241 2.39168 0
M  V30 4824 H 450.681 3.58797 0.752338 0
M  V30 4825 H 450.329 3.87074 3.2122 0
M  V30 4826 H 450.029 5.39207 2.33516 0
M  V30 4827 H 451.553 5.17435 3.24181 0
M  V30 4828 H 452.967 5.64172 1.01898 0
M  V30 4829 H 451.364 5.99299 0.310047 0
M  V30 4830 H 452.434 4.82462 -0.485593 0
M  V30 4831 N 453.777 0.010035 1.57597 0
M  V30 4832 C 455.002 -0.687021 1.95691 0
M  V30 4833 C 455.427 -1.65952 0.885519 0
M  V30 4834 O 454.785 -1.80633 -0.15543 0
M  V30 4835 C 454.833 -1.3864 3.32884 0
M  V30 4836 O 453.937 -2.50115 3.27897 0
M  V30 4837 H 453.278 -0.181989 0.638573 0
M  V30 4838 H 455.808 0.0662122 2.04493 0
M  V30 4839 H 455.818 -1.74754 3.6868 0
M  V30 4840 H 454.493 -0.673411 4.10412 0
M  V30 4841 H 453.07 -2.16253 3.03791 0
M  V30 4842 N 455.255 -1.55392 -0.262866 0
M  V30 4843 C 456.532 -1.67204 -1.01499 0
M  V30 4844 C 456.912 -0.545186 -2.03939 0
M  V30 4845 O 456.26 0.453467 -2.23955 0
M  V30 4846 C 456.47 -3.06847 -1.6627 0
M  V30 4847 C 457.818 -3.64928 -2.17054 0
M  V30 4848 O 458.842 -3.09545 -1.76239 0
M  V30 4849 O 457.701 -4.61984 -2.91947 0
M  V30 4850 H 454.795 -0.679467 -0.471438 0
M  V30 4851 H 457.341 -1.67729 -0.257918 0
M  V30 4852 H 456.113 -3.80309 -0.920915 0
M  V30 4853 H 455.736 -3.10266 -2.48638 0
M  V30 4854 N 456.733 0.527833 -1.48498 0
M  V30 4855 C 457.981 1.28101 -1.56316 0
M  V30 4856 C 458.302 1.9352 -0.239781 0
M  V30 4857 O 457.572 1.81433 0.738849 0
M  V30 4858 H 456.152 0.475793 -0.575873 0
M  V30 4859 H 458.814 0.614052 -1.84974 0
M  V30 4860 H 457.91 2.05916 -2.34532 0
M  V30 4861 N 458.211 1.37122 0.776871 0
M  V30 4862 C 459.158 1.3247 1.88998 0
M  V30 4863 C 460.128 0.191143 1.64997 0
M  V30 4864 O 461.313 0.379683 1.86984 0
M  V30 4865 C 458.453 1.13241 3.25992 0
M  V30 4866 C 457.566 2.35782 3.61982 0
M  V30 4867 C 456.701 2.09465 4.88158 0
M  V30 4868 C 455.74 3.279 5.16864 0
M  V30 4869 N 454.877 3.01167 6.34226 0
M  V30 4870 H 459.717 2.27642 1.9231 0
M  V30 4871 H 457.254 1.13125 0.94027 0
M  V30 4872 H 459.212 1.00115 4.0501 0
M  V30 4873 H 457.842 0.217186 3.22069 0
M  V30 4874 H 456.894 2.59666 2.77989 0
M  V30 4875 H 458.206 3.24125 3.79137 0
M  V30 4876 H 457.36 1.93341 5.75069 0
M  V30 4877 H 456.099 1.18452 4.73097 0
M  V30 4878 H 455.104 3.44569 4.2843 0
M  V30 4879 H 456.329 4.19757 5.33836 0
M  V30 4880 H 454.275 2.12779 6.20533 0
M  V30 4881 H 454.192 3.83052 6.51772 0
M  V30 4882 H 455.46 2.88649 7.24087 0
M  V30 4883 N 459.689 -1.00246 1.21608 0
M  V30 4884 C 460.621 -2.09244 0.935401 0
M  V30 4885 C 461.634 -1.62592 -0.0823594 0
M  V30 4886 O 462.823 -1.77865 0.150456 0
M  V30 4887 C 459.923 -3.36724 0.383453 0
M  V30 4888 C 459.096 -4.1245 1.45615 0
M  V30 4889 C 458.155 -5.18219 0.912991 0
M  V30 4890 O 457.181 -5.46337 1.59701 0
M  V30 4891 N 458.383 -5.7987 -0.270478 0
M  V30 4892 H 461.148 -2.33905 1.87373 0
M  V30 4893 H 458.709 -1.16748 1.12167 0
M  V30 4894 H 460.701 -4.047 0.00562157 0
M  V30 4895 H 459.271 -3.09201 -0.459758 0
M  V30 4896 H 458.491 -3.39241 2.00772 0
M  V30 4897 H 459.779 -4.59819 2.17817 0
M  V30 4898 H 459.177 -5.59381 -0.843195 0
M  V30 4899 H 457.734 -6.49126 -0.589794 0
M  V30 4900 N 461.167 -1.02423 -1.1978 0
M  V30 4901 C 462.392 -0.7373 -1.93852 0
M  V30 4902 C 462.817 0.696923 -1.74713 0
M  V30 4903 O 462.175 1.48056 -1.04638 0
M  V30 4904 C 462.223 -1.08783 -3.438 0
M  V30 4905 O 461.327 -0.20383 -4.11896 0
M  V30 4906 H 460.668 -0.27284 -0.605355 0
M  V30 4907 H 463.198 -1.36966 -1.51992 0
M  V30 4908 H 463.208 -1.04276 -3.9445 0
M  V30 4909 H 461.883 -2.13274 -3.57053 0
M  V30 4910 H 460.46 -0.307091 -3.71633 0
M  V30 4911 N 462.645 1.35699 -0.801477 0
M  V30 4912 C 463.575 2.32436 -0.222658 0
M  V30 4913 C 464.556 1.5723 0.649057 0
M  V30 4914 O 465.741 1.85324 0.580387 0
M  V30 4915 C 462.871 3.41469 0.633719 0
M  V30 4916 C 461.825 4.27774 -0.139083 0
M  V30 4917 C 461.151 5.28082 0.838666 0
M  V30 4918 C 462.451 5.04946 -1.33517 0
M  V30 4919 H 464.145 2.81094 -1.03086 0
M  V30 4920 H 461.691 1.35146 -0.497155 0
M  V30 4921 H 463.644 4.08143 1.04868 0
M  V30 4922 H 462.368 2.91408 1.47475 0
M  V30 4923 H 461.027 3.62673 -0.535156 0
M  V30 4924 H 460.675 4.7429 1.67506 0
M  V30 4925 H 460.375 5.86695 0.32594 0
M  V30 4926 H 461.899 5.97628 1.25194 0
M  V30 4927 H 463.313 5.64593 -0.995349 0
M  V30 4928 H 461.71 5.7303 -1.78202 0
M  V30 4929 H 462.78 4.35886 -2.12442 0
M  V30 4930 N 464.123 0.554532 1.47522 0
M  V30 4931 C 465.4 -0.0360704 1.95567 0
M  V30 4932 C 465.78 -1.48828 1.49711 0
M  V30 4933 O 465.128 -2.16366 0.734717 0
M  V30 4934 C 465.338 0.106631 3.48837 0
M  V30 4935 C 466.686 -0.0400899 4.24581 0
M  V30 4936 O 467.71 0.0340453 3.56184 0
M  V30 4937 O 466.569 -0.199111 5.46137 0
M  V30 4938 H 463.663 -0.0656294 0.824392 0
M  V30 4939 H 466.209 0.620867 1.57935 0
M  V30 4940 H 464.981 1.11727 3.7501 0
M  V30 4941 H 464.604 -0.58804 3.93227 0
M  V30 4942 N 465.601 -1.54893 0.290851 0
M  V30 4943 C 466.848 -1.99933 -0.321391 0
M  V30 4944 C 467.176 -1.17927 -1.54672 0
M  V30 4945 O 466.431 -0.240902 -1.94212 0
M  V30 4946 C 466.73 -3.49815 -0.732397 0
M  V30 4947 C 466.396 -4.4921 0.390056 0
M  V30 4948 C 465.058 -4.76107 0.698223 0
M  V30 4949 C 467.41 -5.08453 1.14562 0
M  V30 4950 C 464.738 -5.59514 1.76526 0
M  V30 4951 C 467.09 -5.9302 2.2025 0
M  V30 4952 C 465.754 -6.18232 2.51684 0
M  V30 4953 H 465.024 -0.731608 -0.117605 0
M  V30 4954 H 467.671 -1.87107 0.407839 0
M  V30 4955 H 465.976 -3.60199 -1.54155 0
M  V30 4956 H 467.673 -3.82083 -1.21712 0
M  V30 4957 H 464.263 -4.28372 0.13976 0
M  V30 4958 H 468.447 -4.87683 0.920801 0
M  V30 4959 H 463.703 -5.77289 2.01364 0
M  V30 4960 H 467.877 -6.37955 2.7926 0
M  V30 4961 H 465.504 -6.82653 3.34499 0
M  V30 4962 N 467.08 -0.0183926 -1.57589 0
M  V30 4963 C 467.99 0.982943 -2.13015 0
M  V30 4964 C 469.006 1.36443 -1.07979 0
M  V30 4965 O 470.182 1.44802 -1.3998 0
M  V30 4966 C 467.247 2.25024 -2.63752 0
M  V30 4967 C 466.308 1.93018 -3.83461 0
M  V30 4968 C 465.541 3.13706 -4.31769 0
M  V30 4969 O 465.764 4.2601 -3.79305 0
M  V30 4970 O 464.698 2.96629 -5.23732 0
M  V30 4971 H 468.524 0.541709 -2.9883 0
M  V30 4972 H 466.109 0.201565 -1.48034 0
M  V30 4973 H 467.991 2.99441 -2.96502 0
M  V30 4974 H 466.666 2.68349 -1.81026 0
M  V30 4975 H 465.573 1.16019 -3.55655 0
M  V30 4976 H 466.906 1.54516 -4.67317 0
M  V30 4977 N 468.558 1.5553 0.254621 0
M  V30 4978 C 469.488 1.9268 1.31897 0
M  V30 4979 C 470.469 0.790797 1.506 0
M  V30 4980 O 471.654 1.05045 1.63337 0
M  V30 4981 C 468.784 2.21477 2.67517 0
M  V30 4982 C 467.738 3.37256 2.63519 0
M  V30 4983 C 467.064 3.51576 4.02862 0
M  V30 4984 C 468.364 4.73157 2.21179 0
M  V30 4985 H 470.058 2.81832 1.01051 0
M  V30 4986 H 467.604 1.35599 0.484662 0
M  V30 4987 H 469.557 2.46055 3.42104 0
M  V30 4988 H 468.281 1.29144 2.99982 0
M  V30 4989 H 466.94 3.12675 1.9139 0
M  V30 4990 H 466.588 2.56676 4.32581 0
M  V30 4991 H 466.288 4.2943 4.01078 0
M  V30 4992 H 467.812 3.78467 4.79161 0
M  V30 4993 H 469.226 4.97158 2.85494 0
M  V30 4994 H 467.623 5.54058 2.30521 0
M  V30 4995 H 468.693 4.70739 1.16332 0
M  V30 4996 N 470.036 -0.519951 1.48776 0
M  V30 4997 C 471.283 -1.27522 1.57303 0
M  V30 4998 C 471.611 -1.92869 0.251328 0
M  V30 4999 O 470.866 -1.80372 -0.759243 0
M  V30 5000 C 471.165 -2.37864 2.6675 0
M  V30 5001 C 470.831 -1.90103 4.08867 0
M  V30 5002 C 469.493 -1.76795 4.47546 0
M  V30 5003 C 471.845 -1.54133 4.97888 0
M  V30 5004 C 469.173 -1.25868 5.73039 0
M  V30 5005 C 471.525 -1.04665 6.23881 0
M  V30 5006 C 470.189 -0.899823 6.61407 0
M  V30 5007 H 469.459 -0.466636 0.575614 0
M  V30 5008 H 472.106 -0.579109 1.82534 0
M  V30 5009 H 470.411 -3.13186 2.35418 0
M  V30 5010 H 472.108 -2.95969 2.70561 0
M  V30 5011 H 468.698 -2.01414 3.78326 0
M  V30 5012 H 472.882 -1.6327 4.68675 0
M  V30 5013 H 468.138 -1.13196 6.0083 0
M  V30 5014 H 472.312 -0.759074 6.92251 0
M  V30 5015 H 469.939 -0.503011 7.58534 0
M  V30 5016 N 471.514 -1.37532 -0.769588 0
M  V30 5017 C 472.461 -1.3347 -1.88293 0
M  V30 5018 C 473.431 -0.199891 -1.64893 0
M  V30 5019 O 474.616 -0.389594 -1.8678 0
M  V30 5020 C 471.756 -1.14968 -3.25387 0
M  V30 5021 C 470.869 -2.37698 -3.60727 0
M  V30 5022 C 470.004 -2.12051 -4.8704 0
M  V30 5023 C 469.043 -3.30636 -5.15117 0
M  V30 5024 N 468.18 -3.04527 -6.3262 0
M  V30 5025 H 473.02 -2.28658 -1.911 0
M  V30 5026 H 470.557 -1.13622 -0.934257 0
M  V30 5027 H 472.515 -1.02261 -4.04473 0
M  V30 5028 H 471.145 -0.234263 -3.21949 0
M  V30 5029 H 470.197 -2.61137 -2.76608 0
M  V30 5030 H 471.509 -3.26131 -3.77413 0
M  V30 5031 H 470.663 -1.96388 -5.74035 0
M  V30 5032 H 469.402 -1.20959 -4.72462 0
M  V30 5033 H 468.407 -3.46836 -4.26597 0
M  V30 5034 H 469.632 -4.22582 -5.31603 0
M  V30 5035 H 467.578 -2.16067 -6.19396 0
M  V30 5036 H 467.495 -3.86503 -6.49732 0
M  V30 5037 H 468.763 -2.92485 -7.22546 0
M  V30 5038 N 472.992 0.995999 -1.22138 0
M  V30 5039 C 473.902 2.11985 -1.00496 0
M  V30 5040 C 474.918 1.7394 0.0457701 0
M  V30 5041 O 476.094 2.00868 -0.146273 0
M  V30 5042 C 473.159 3.41779 -0.582086 0
M  V30 5043 C 472.22 3.93943 -1.70608 0
M  V30 5044 C 471.453 5.17542 -1.30328 0
M  V30 5045 O 471.676 5.70114 -0.180743 0
M  V30 5046 O 470.61 5.63382 -2.11861 0
M  V30 5047 H 474.436 2.33123 -1.94647 0
M  V30 5048 H 472.021 1.10358 -1.00705 0
M  V30 5049 H 473.903 4.1989 -0.356467 0
M  V30 5050 H 472.578 3.22007 0.330592 0
M  V30 5051 H 471.485 3.17019 -1.98619 0
M  V30 5052 H 472.818 4.18141 -2.59651 0
M  V30 5053 N 474.47 1.03057 1.19235 0
M  V30 5054 C 475.4 0.633497 2.24742 0
M  V30 5055 C 476.381 -0.358335 1.66283 0
M  V30 5056 O 477.566 -0.240676 1.92703 0
M  V30 5057 C 474.696 -0.0147648 3.47297 0
M  V30 5058 C 473.65 0.899527 4.18441 0
M  V30 5059 C 472.976 0.116281 5.34574 0
M  V30 5060 C 474.276 2.21404 4.73051 0
M  V30 5061 H 475.97 1.5155 2.58211 0
M  V30 5062 H 473.516 0.73014 1.24117 0
M  V30 5063 H 475.469 -0.304202 4.20301 0
M  V30 5064 H 474.193 -0.931577 3.13032 0
M  V30 5065 H 472.852 1.17319 3.47321 0
M  V30 5066 H 472.5 -0.802619 4.96555 0
M  V30 5067 H 472.2 0.725293 5.83107 0
M  V30 5068 H 473.724 -0.166376 6.10373 0
M  V30 5069 H 475.138 1.98601 5.37802 0
M  V30 5070 H 473.535 2.77512 5.32078 0
M  V30 5071 H 474.605 2.86752 3.91026 0
M  V30 5072 N 475.948 -1.35272 0.808662 0
M  V30 5073 C 477.194 -1.99003 0.390581 0
M  V30 5074 C 477.527 -1.63999 -1.0401 0
M  V30 5075 O 476.802 -0.904368 -1.72196 0
M  V30 5076 C 477.085 -3.55454 0.576566 0
M  V30 5077 C 476.938 -4.00249 2.05233 0
M  V30 5078 C 478.257 -4.401 0.00354277 0
M  V30 5079 H 475.376 -0.722917 0.143388 0
M  V30 5080 H 478.018 -1.6039 1.01858 0
M  V30 5081 H 476.168 -3.88477 0.0419766 0
M  V30 5082 H 477.84 -3.77626 2.64946 0
M  V30 5083 H 476.083 -3.51082 2.54801 0
M  V30 5084 H 476.754 -5.0911 2.13333 0
M  V30 5085 H 479.23 -4.13548 0.460117 0
M  V30 5086 H 478.106 -5.48656 0.163575 0
M  V30 5087 H 478.367 -4.28444 -1.09032 0
M  V30 5088 N 477.426 -0.562348 -1.47226 0
M  V30 5089 C 478.358 0.220011 -2.28142 0
M  V30 5090 C 479.371 0.874596 -1.37312 0
M  V30 5091 O 480.56 0.747583 -1.62091 0
M  V30 5092 C 477.66 1.32953 -3.11732 0
M  V30 5093 C 476.833 0.770759 -4.30556 0
M  V30 5094 C 475.892 1.76541 -4.95701 0
M  V30 5095 O 474.918 1.3095 -5.53932 0
M  V30 5096 N 476.12 3.09896 -4.90861 0
M  V30 5097 H 478.885 -0.474107 -2.95926 0
M  V30 5098 H 476.446 -0.398761 -1.56912 0
M  V30 5099 H 478.438 1.99378 -3.5218 0
M  V30 5100 H 477.008 1.92681 -2.46156 0
M  V30 5101 H 476.228 -0.0704056 -3.94137 0
M  V30 5102 H 477.516 0.376872 -5.07402 0
M  V30 5103 H 476.914 3.49577 -4.44761 0
M  V30 5104 H 475.471 3.71865 -5.35313 0
M  V30 5105 N 478.904 1.54736 -0.299062 0
M  V30 5106 C 479.814 2.27127 0.587413 0
M  V30 5107 C 480.83 1.30575 1.15005 0
M  V30 5108 O 482.006 1.63554 1.17525 0
M  V30 5109 C 479.071 2.99645 1.74395 0
M  V30 5110 C 478.132 4.11731 1.21559 0
M  V30 5111 C 477.365 4.80781 2.317 0
M  V30 5112 O 477.588 4.4918 3.51558 0
M  V30 5113 O 476.522 5.68226 1.98501 0
M  V30 5114 H 480.348 3.037 0.000250109 0
M  V30 5115 H 477.933 1.49256 -0.0655919 0
M  V30 5116 H 479.815 3.45138 2.4178 0
M  V30 5117 H 478.49 2.25969 2.31775 0
M  V30 5118 H 477.397 3.70641 0.507514 0
M  V30 5119 H 478.73 4.87379 0.687233 0
M  V30 5120 N 480.382 0.0267497 1.57577 0
M  V30 5121 C 481.315 -0.99059 2.05579 0
M  V30 5122 C 482.293 -1.31884 0.951065 0
M  V30 5123 O 483.477 -1.43592 1.22121 0
M  V30 5124 C 480.604 -2.31125 2.47586 0
M  V30 5125 C 479.65 -2.13777 3.69055 0
M  V30 5126 S 480.483 -1.4388 5.15809 0
M  V30 5127 C 481.639 -2.77321 5.6111 0
M  V30 5128 H 481.872 -0.581976 2.91548 0
M  V30 5129 H 479.405 -0.184876 1.53289 0
M  V30 5130 H 481.363 -3.07049 2.72454 0
M  V30 5131 H 480.024 -2.6912 1.61967 0
M  V30 5132 H 479.217 -3.11405 3.96287 0
M  V30 5133 H 478.819 -1.45996 3.44327 0
M  V30 5134 H 481.111 -3.73565 5.65204 0
M  V30 5135 H 482.054 -2.54756 6.60685 0
M  V30 5136 H 482.462 -2.82459 4.88751 0
M  V30 5137 N 481.861 -1.55662 -0.24637 0
M  V30 5138 C 482.808 -1.90361 -1.30504 0
M  V30 5139 C 483.778 -0.757905 -1.47801 0
M  V30 5140 O 484.963 -1.01161 -1.61775 0
M  V30 5141 C 482.103 -2.2042 -2.65535 0
M  V30 5142 C 481.216 -3.47799 -2.56242 0
M  V30 5143 C 480.351 -3.67426 -3.8363 0
M  V30 5144 C 479.39 -4.88403 -3.68956 0
M  V30 5145 N 478.527 -5.04548 -4.88237 0
M  V30 5146 H 483.367 -2.80645 -1.00213 0
M  V30 5147 H 480.904 -1.38924 -0.483577 0
M  V30 5148 H 482.862 -2.35853 -3.44135 0
M  V30 5149 H 481.492 -1.3334 -2.93973 0
M  V30 5150 H 480.544 -3.40694 -1.69208 0
M  V30 5151 H 481.856 -4.36544 -2.4131 0
M  V30 5152 H 481.01 -3.82821 -4.70673 0
M  V30 5153 H 479.749 -2.76914 -4.01459 0
M  V30 5154 H 478.754 -4.72984 -2.80296 0
M  V30 5155 H 479.979 -5.80375 -3.52621 0
M  V30 5156 H 477.925 -4.16974 -5.06427 0
M  V30 5157 H 477.842 -5.87384 -4.75937 0
M  V30 5158 H 479.11 -5.24355 -5.76777 0
M  V30 5159 N 483.339 0.512053 -1.4905 0
M  V30 5160 C 484.286 1.6148 -1.64902 0
M  V30 5161 C 485.256 1.58687 -0.490673 0
M  V30 5162 O 486.441 1.76842 -0.71636 0
M  V30 5163 C 483.581 2.99676 -1.71139 0
M  V30 5164 C 482.694 3.12568 -2.98203 0
M  V30 5165 C 481.829 4.4143 -2.95487 0
M  V30 5166 C 480.868 4.47916 -4.17179 0
M  V30 5167 N 480.005 5.68191 -4.12437 0
M  V30 5168 H 484.845 1.47271 -2.59066 0
M  V30 5169 H 482.382 0.716713 -1.28459 0
M  V30 5170 H 484.34 3.79761 -1.72736 0
M  V30 5171 H 482.97 3.12614 -0.804508 0
M  V30 5172 H 482.022 2.25618 -3.06269 0
M  V30 5173 H 483.334 3.1322 -3.88194 0
M  V30 5174 H 482.488 5.29825 -2.95585 0
M  V30 5175 H 481.227 4.43326 -2.03256 0
M  V30 5176 H 480.232 3.57925 -4.17337 0
M  V30 5177 H 481.457 4.47744 -5.1059 0
M  V30 5178 H 479.403 5.7095 -3.23036 0
M  V30 5179 H 479.32 5.70413 -4.96151 0
M  V30 5180 H 480.588 6.58823 -4.16621 0
M  V30 5181 N 484.817 1.37938 0.762283 0
M  V30 5182 C 485.747 1.37176 1.88958 0
M  V30 5183 C 486.728 0.238945 1.68413 0
M  V30 5184 O 487.913 0.440726 1.89133 0
M  V30 5185 C 485.043 1.18742 3.2637 0
M  V30 5186 C 483.997 2.29136 3.61498 0
M  V30 5187 C 483.323 1.95816 4.97554 0
M  V30 5188 C 484.623 3.71363 3.6727 0
M  V30 5189 H 486.317 2.31509 1.89853 0
M  V30 5190 H 483.863 1.11438 0.912005 0
M  V30 5191 H 485.816 1.16837 4.04879 0
M  V30 5192 H 484.54 0.208683 3.25933 0
M  V30 5193 H 483.199 2.30213 2.85303 0
M  V30 5194 H 482.847 0.964475 4.93667 0
M  V30 5195 H 482.547 2.69745 5.22026 0
M  V30 5196 H 484.071 1.95513 5.78452 0
M  V30 5197 H 485.485 3.72364 4.35911 0
M  V30 5198 H 483.882 4.44425 4.03245 0
M  V30 5199 H 484.952 4.04305 2.67704 0
M  V30 5200 N 486.295 -0.989507 1.22664 0
M  V30 5201 C 487.258 -2.06183 1.00106 0
M  V30 5202 C 488.258 -1.60765 -0.0337726 0
M  V30 5203 O 489.448 -1.72989 0.205072 0
M  V30 5204 C 486.58 -3.37021 0.51279 0
M  V30 5205 H 487.773 -2.27629 1.95256 0
M  V30 5206 H 485.326 -1.16158 1.0458 0
M  V30 5207 H 486.061 -3.21261 -0.442917 0
M  V30 5208 H 485.846 -3.71323 1.25942 0
M  V30 5209 H 487.336 -4.1591 0.375315 0
M  V30 5210 N 487.773 -1.03688 -1.18687 0
M  V30 5211 C 489.05 -0.652397 -1.84399 0
M  V30 5212 C 489.43 0.868386 -1.92412 0
M  V30 5213 O 488.778 1.76832 -1.44716 0
M  V30 5214 C 488.988 -1.3238 -3.22919 0
M  V30 5215 C 490.336 -1.45216 -3.98996 0
M  V30 5216 O 491.36 -1.2816 -3.32345 0
M  V30 5217 O 490.219 -1.72975 -5.18403 0
M  V30 5218 H 487.313 -0.227793 -0.795009 0
M  V30 5219 H 489.859 -1.13553 -1.2611 0
M  V30 5220 H 488.631 -2.36202 -3.11968 0
M  V30 5221 H 488.254 -0.829039 -3.88861 0
M  V30 5222 N 489.251 1.34841 -0.815825 0
M  V30 5223 C 490.214 2.27959 -0.238185 0
M  V30 5224 C 491.214 1.49983 0.579816 0
M  V30 5225 O 492.404 1.69617 0.396953 0
M  V30 5226 C 489.536 3.34314 0.666876 0
M  V30 5227 H 490.729 2.80558 -1.05958 0
M  V30 5228 H 488.282 1.44852 -0.587156 0
M  V30 5229 H 489.017 2.86916 1.5116 0
M  V30 5230 H 488.802 3.92014 0.0819106 0
M  V30 5231 H 490.292 4.0379 1.06506 0
M  V30 5232 N 490.729 0.570148 1.46925 0
M  V30 5233 C 491.659 -0.158274 2.32963 0
M  V30 5234 C 492.64 -0.896093 1.44583 0
M  V30 5235 O 493.825 -0.874022 1.7342 0
M  V30 5236 C 490.955 -1.18055 3.26619 0
M  V30 5237 C 489.909 -0.558379 4.24342 0
M  V30 5238 C 489.235 -1.68623 5.07415 0
M  V30 5239 C 490.535 0.496295 5.19937 0
M  V30 5240 H 492.229 0.560046 2.94115 0
M  V30 5241 H 489.775 0.270775 1.41431 0
M  V30 5242 H 491.728 -1.69841 3.85658 0
M  V30 5243 H 490.452 -1.92899 2.63548 0
M  V30 5244 H 489.111 -0.0617157 3.66548 0
M  V30 5245 H 488.759 -2.42402 4.40738 0
M  V30 5246 H 488.459 -1.27564 5.73586 0
M  V30 5247 H 489.983 -2.20709 5.69315 0
M  V30 5248 H 491.397 0.0640052 5.73264 0
M  V30 5249 H 489.794 0.82649 5.94381 0
M  V30 5250 H 490.864 1.38735 4.6463 0
M  V30 5251 N 492.207 -1.54576 0.307264 0
M  V30 5252 C 493.455 -1.99867 -0.299574 0
M  V30 5253 C 493.776 -1.19714 -1.53927 0
M  V30 5254 O 493.046 -0.29472 -1.9367 0
M  V30 5255 H 491.626 -0.738299 -0.113683 0
M  V30 5256 H 494.288 -1.9032 0.420042 0
M  V30 5257 H 493.384 -3.06901 -0.567283 0
M  V30 5258 N 493.685 -0.035106 -1.57561 0
M  V30 5259 C 494.931 0.64318 -1.92331 0
M  V30 5260 C 495.264 1.71434 -0.912368 0
M  V30 5261 O 494.539 1.94395 0.0640303 0
M  V30 5262 C 494.822 1.25411 -3.37556 0
M  V30 5263 C 494.675 0.192109 -4.4939 0
M  V30 5264 C 495.994 2.17041 -3.82859 0
M  V30 5265 H 493.113 0.232341 -0.699419 0
M  V30 5266 H 495.755 -0.0935889 -1.89769 0
M  V30 5267 H 493.905 1.88205 -3.39869 0
M  V30 5268 H 495.577 -0.438849 -4.59208 0
M  V30 5269 H 493.82 -0.481725 -4.31117 0
M  V30 5270 H 494.491 0.659292 -5.48049 0
M  V30 5271 H 496.967 1.64228 -3.8232 0
M  V30 5272 H 495.843 2.56738 -4.85157 0
M  V30 5273 H 496.104 3.06401 -3.18702 0
M  V30 5274 N 495.163 1.55791 0.238111 0
M  V30 5275 C 496.11 1.9105 1.29493 0
M  V30 5276 C 497.08 0.765733 1.47397 0
M  V30 5277 O 498.265 1.02017 1.61236 0
M  V30 5278 C 495.405 2.21826 2.64362 0
M  V30 5279 C 494.518 3.49153 2.54394 0
M  V30 5280 C 493.653 3.69455 3.81676 0
M  V30 5281 C 492.692 4.90353 3.66361 0
M  V30 5282 N 491.829 5.07131 4.85554 0
M  V30 5283 H 496.669 2.81172 0.987233 0
M  V30 5284 H 494.206 1.39179 0.476203 0
M  V30 5285 H 496.164 2.37675 3.4288 0
M  V30 5286 H 494.794 1.34897 2.93262 0
M  V30 5287 H 493.846 3.41587 1.67399 0
M  V30 5288 H 495.158 4.37818 2.38991 0
M  V30 5289 H 494.312 3.85311 4.68636 0
M  V30 5290 H 493.051 2.7904 3.99985 0
M  V30 5291 H 492.056 4.74464 2.77784 0
M  V30 5292 H 493.281 5.82237 3.49538 0
M  V30 5293 H 491.227 4.19654 5.04209 0
M  V30 5294 H 491.144 5.89899 4.72816 0
M  V30 5295 H 492.412 5.27407 5.73988 0
M  V30 5296 N 496.642 -0.504142 1.49319 0
M  V30 5297 C 497.888 -1.26033 1.58882 0
M  V30 5298 C 498.221 -1.92268 0.273274 0
M  V30 5299 O 497.496 -1.80567 -0.72291 0
M  V30 5300 C 497.779 -2.32976 2.7458 0
M  V30 5301 C 497.632 -1.71263 4.1592 0
M  V30 5302 C 498.951 -3.34561 2.85932 0
M  V30 5303 H 496.07 -0.456863 0.578312 0
M  V30 5304 H 498.712 -0.558965 1.81592 0
M  V30 5305 H 496.862 -2.92796 2.55348 0
M  V30 5306 H 498.534 -1.15294 4.4666 0
M  V30 5307 H 496.777 -1.01686 4.21714 0
M  V30 5308 H 497.448 -2.48816 4.92742 0
M  V30 5309 H 499.924 -2.84727 3.0343 0
M  V30 5310 H 498.8 -4.06754 3.68568 0
M  V30 5311 H 499.061 -3.96695 1.95154 0
M  V30 5312 N 498.12 -1.38341 -0.754957 0
M  V30 5313 C 499.068 -1.35573 -1.89005 0
M  V30 5314 C 500.062 -0.241824 -1.67665 0
M  V30 5315 O 501.268 -0.410785 -1.7525 0
M  V30 5316 H 497.643 -0.422898 -0.621821 0
M  V30 5317 H 499.614 -2.31359 -1.88455 0
M  V30 5318 C 498.363 -1.19631 -3.26471 0
M  V30 5319 H 497.686 -2.04605 -3.43477 0
M  V30 5320 H 499.126 -1.21748 -4.06144 0
M  V30 5321 C 497.585 0.0968705 -3.36761 0
M  V30 5322 O 498.115 1.07439 -3.87066 0
M  V30 5323 N 496.321 0.153242 -2.90196 0
M  V30 5324 H 495.868 -0.642908 -2.49448 0
M  V30 5325 H 495.826 1.01807 -2.9746 0
M  V30 5326 O 499.637 0.895511 -1.34398 0
M  V30 5327 H 500.328 1.53136 -1.18614 0
M  V30 END ATOM
M  V30 BEGIN BOND
M  V30 END BOND
M  V30 END CTAB
M  END
$$$$
