drugbank_target|Q9WYS2 Oxidoreductase, short chain dehydrogenase/reductase family (DB03461)
 OpenBabel12092120273D

  0  0  0     0  0            999 V3000
M  V30 BEGIN CTAB
M  V30 COUNTS 3941 3975 0 0 0
M  V30 BEGIN ATOM
M  V30 1 H -0.908 1.98254 -0.117106 0
M  V30 2 N 0 1.576 0 0
M  V30 3 C 0.933 2.03868 1.02534 0
M  V30 4 C 1.911 0.928543 1.3348 0
M  V30 5 O 3.095 1.19667 1.45644 0
M  V30 6 C 0.222 2.43627 2.35294 0
M  V30 7 C -0.732 3.65373 2.2001 0
M  V30 8 S 0.101 5.13292 1.52614 0
M  V30 9 C 1.257 5.56322 2.86805 0
M  V30 10 H 1.49 2.90518 0.631377 0
M  V30 11 H -0.977 1.52953 0.210867 0
M  V30 12 H 0.981 2.67203 3.11629 0
M  V30 13 H -0.358 1.57376 2.7183 0
M  V30 14 H -1.165 3.90944 3.18086 0
M  V30 15 H -1.563 3.418 1.51819 0
M  V30 16 H 0.729 5.58782 3.83104 0
M  V30 17 H 1.672 6.56266 2.65933 0
M  V30 18 H 2.08 4.83886 2.90714 0
M  V30 19 N 1.4781 -0.272755 1.55222 0
M  V30 20 C 2.4251 -1.33716 1.88119 0
M  V30 21 C 3.3951 -1.49066 0.73271 0
M  V30 22 O 4.5801 -1.63469 0.984002 0
M  V30 23 C 1.7201 -2.69238 2.15882 0
M  V30 24 C 0.8331 -2.62108 3.43399 0
M  V30 25 C -0.0319 -3.89811 3.60861 0
M  V30 26 C -0.9929 -3.77193 4.8207 0
M  V30 27 N -1.8559 -4.9673 4.96189 0
M  V30 28 H 2.9841 -1.04962 2.78903 0
M  V30 29 H 0.5211 -0.507088 1.38083 0
M  V30 30 H 2.4791 -3.48089 2.29978 0
M  V30 31 H 1.1091 -2.96194 1.28331 0
M  V30 32 H 0.1611 -1.74967 3.37773 0
M  V30 33 H 1.4731 -2.48685 4.32386 0
M  V30 34 H 0.6271 -4.77103 3.74777 0
M  V30 35 H -0.6339 -4.06102 2.7006 0
M  V30 36 H -1.6289 -2.88284 4.68159 0
M  V30 37 H -0.4039 -3.62421 5.74307 0
M  V30 38 H -2.4579 -5.13431 4.08319 0
M  V30 39 H -2.5409 -4.85839 5.79221 0
M  V30 40 H -1.2729 -5.85594 5.1449 0
M  V30 41 N 2.9562 -1.48159 -0.537278 0
M  V30 42 C 3.8662 -1.64807 -1.6696 0
M  V30 43 C 4.8822 -0.530651 -1.65711 0
M  V30 44 O 6.0582 -0.800784 -1.84796 0
M  V30 45 C 3.1232 -1.67708 -3.03438 0
M  V30 46 C 2.1842 -2.91025 -3.156 0
M  V30 47 C 1.4172 -2.93778 -4.45567 0
M  V30 48 O 1.6402 -2.05153 -5.3223 0
M  V30 49 O 0.5742 -3.85868 -4.61941 0
M  V30 50 H 4.4002 -2.6066 -1.55853 0
M  V30 51 H 1.9852 -1.31475 -0.709549 0
M  V30 52 H 3.8672 -1.7218 -3.84619 0
M  V30 53 H 2.5422 -0.750278 -3.14885 0
M  V30 54 H 1.4492 -2.92089 -2.33741 0
M  V30 55 H 2.7822 -3.83065 -3.09066 0
M  V30 56 N 4.4343 0.785586 -1.36625 0
M  V30 57 C 5.6803 1.54591 -1.31261 0
M  V30 58 C 6.0133 1.93906 0.106823 0
M  V30 59 O 5.2883 1.63007 1.06108 0
M  V30 60 C 5.5713 2.82038 -2.23889 0
M  V30 61 C 5.4243 2.49066 -3.74548 0
M  V30 62 C 6.7433 3.83887 -2.15217 0
M  V30 63 H 3.8623 0.560846 -0.478143 0
M  V30 64 H 6.5043 0.902278 -1.67209 0
M  V30 65 H 4.6543 3.36961 -1.93363 0
M  V30 66 H 6.3263 2.00164 -4.15611 0
M  V30 67 H 4.5693 1.81954 -3.93796 0
M  V30 68 H 5.2403 3.40109 -4.34776 0
M  V30 69 H 7.7163 3.38421 -2.42096 0
M  V30 70 H 6.5923 4.70806 -2.82193 0
M  V30 71 H 6.8533 4.27131 -1.14068 0
M  V30 72 N 5.9124 1.20967 1.01018 0
M  V30 73 C 7.1594 1.02374 1.74716 0
M  V30 74 C 7.4874 -0.443375 1.89379 0
M  V30 75 O 6.7424 -1.34535 1.42123 0
M  V30 76 C 7.0414 1.65997 3.16512 0
M  V30 77 C 6.7074 3.15831 3.2181 0
M  V30 78 C 5.3694 3.56719 3.22963 0
M  V30 79 C 7.7214 4.11816 3.19464 0
M  V30 80 C 5.0494 4.92107 3.19449 0
M  V30 81 C 7.4014 5.47158 3.17491 0
M  V30 82 C 6.0654 5.87451 3.16951 0
M  V30 83 H 5.3354 0.374614 0.639332 0
M  V30 84 H 7.9824 1.50485 1.18434 0
M  V30 85 H 6.2874 1.10166 3.75993 0
M  V30 86 H 7.9844 1.49119 3.72242 0
M  V30 87 H 4.5744 2.83263 3.21652 0
M  V30 88 H 8.7584 3.81257 3.17737 0
M  V30 89 H 4.0144 5.22579 3.17366 0
M  V30 90 H 8.1884 6.21274 3.14629 0
M  V30 91 H 5.8154 6.92329 3.13983 0
M  V30 92 N 7.3905 -1.2043 1.01659 0
M  V30 93 C 8.6675 -1.8548 0.621004 0
M  V30 94 C 9.0475 -1.9091 -0.900919 0
M  V30 95 O 8.3955 -1.41694 -1.79263 0
M  V30 96 C 8.6055 -3.25119 1.2688 0
M  V30 97 C 9.9535 -4.01403 1.38423 0
M  V30 98 O 10.9775 -3.34473 1.22501 0
M  V30 99 O 9.8365 -5.21265 1.64151 0
M  V30 100 H 6.9305 -0.798761 0.214266 0
M  V30 101 H 9.4765 -1.28019 1.11396 0
M  V30 102 H 8.2485 -3.15932 2.30873 0
M  V30 103 H 7.8715 -3.90212 0.762917 0
M  V30 104 N 8.8686 -0.792821 -1.36206 0
M  V30 105 C 9.7986 -0.207853 -2.32573 0
M  V30 106 C 10.7796 0.659055 -1.56813 0
M  V30 107 O 11.9646 0.592176 -1.84951 0
M  V30 108 C 9.0946 0.655449 -3.41059 0
M  V30 109 C 8.0486 -0.111842 -4.27854 0
M  V30 110 C 7.3746 0.872274 -5.27537 0
M  V30 111 C 8.6746 -1.30299 -5.05786 0
M  V30 112 H 10.3686 -1.01294 -2.81744 0
M  V30 113 H 7.9146 -0.48854 -1.3546 0
M  V30 114 H 9.8676 1.07464 -4.07467 0
M  V30 115 H 8.5916 1.49328 -2.90463 0
M  V30 116 H 7.2506 -0.512053 -3.63006 0
M  V30 117 H 6.8986 1.70523 -4.73214 0
M  V30 118 H 6.5986 0.363291 -5.86476 0
M  V30 119 H 8.1226 1.28996 -5.96818 0
M  V30 120 H 9.5366 -0.959379 -5.65216 0
M  V30 121 H 7.9336 -1.7455 -5.74154 0
M  V30 122 H 9.0036 -2.09663 -4.37229 0
M  V30 123 N 10.3467 1.47872 -0.545128 0
M  V30 124 C 11.7627 1.5829 -0.204032 0
M  V30 125 C 11.9627 1.54529 1.29317 0
M  V30 126 O 11.0187 1.44232 2.07252 0
M  V30 127 C 12.3317 2.89304 -0.819987 0
M  V30 128 C 13.8797 3.02864 -0.790105 0
M  V30 129 C 14.3547 4.3656 -1.38491 0
M  V30 130 N 15.8457 4.43165 -1.34755 0
M  V30 131 C 16.5807 5.45153 -1.77753 0
M  V30 132 N 16.0767 6.54016 -2.2855 0
M  V30 133 N 17.8697 5.36125 -1.68897 0
M  V30 134 H 10.0207 1.4856 -1.51802 0
M  V30 135 H 12.2837 0.706305 -0.632327 0
M  V30 136 H 11.9897 2.97757 -1.87173 0
M  V30 137 H 11.8637 3.75957 -0.305915 0
M  V30 138 H 14.2507 2.94014 0.252913 0
M  V30 139 H 14.3317 2.17782 -1.34181 0
M  V30 140 H 13.9757 4.46164 -2.42693 0
M  V30 141 H 13.9057 5.20353 -0.808754 0
M  V30 142 H 16.3967 3.65083 -0.975855 0
M  V30 143 H 16.7097 7.27994 -2.59314 0
M  V30 144 H 15.0547 6.54938 -2.32553 0
M  V30 145 H 18.2457 4.49975 -1.28998 0
M  V30 146 H 18.4187 6.15472 -2.02726 0
M  V30 147 N 11.8248 0.280983 1.55075 0
M  V30 148 C 13.0728 -0.333455 1.9933 0
M  V30 149 C 13.3938 -1.55937 1.17085 0
M  V30 150 O 12.6638 -1.94143 0.261805 0
M  V30 151 H 11.2438 -0.126197 0.736263 0
M  V30 152 H 13.9058 0.387678 1.91005 0
M  V30 153 H 13.0018 -0.619292 3.05894 0
M  V30 154 N 13.3029 -1.57598 0.00835791 0
M  V30 155 C 14.7189 -1.55764 -0.347822 0
M  V30 156 C 14.9189 -1.01186 -1.74252 0
M  V30 157 O 13.9749 -0.649371 -2.44007 0
M  V30 158 C 15.2879 -2.99927 -0.215407 0
M  V30 159 C 16.8359 -3.11656 -0.289725 0
M  V30 160 C 17.3109 -4.57621 -0.18634 0
M  V30 161 N 18.8019 -4.62557 -0.243978 0
M  V30 162 C 19.5369 -5.73094 -0.18745 0
M  V30 163 N 19.0329 -6.92753 -0.0810331 0
M  V30 164 N 20.8259 -5.61588 -0.239925 0
M  V30 165 H 12.9769 -1.91411 0.92062 0
M  V30 166 H 15.2399 -0.879562 0.353659 0
M  V30 167 H 14.9459 -3.43729 0.744512 0
M  V30 168 H 14.8199 -3.63865 -0.994097 0
M  V30 169 H 17.2069 -2.67779 -1.24009 0
M  V30 170 H 17.2879 -2.5048 0.51898 0
M  V30 171 H 16.9319 -5.02174 0.760519 0
M  V30 172 H 16.8619 -5.16752 -1.01364 0
M  V30 173 H 19.3529 -3.76481 -0.327217 0
M  V30 174 H 19.6659 -7.72787 -0.0440241 0
M  V30 175 H 18.0109 -6.94984 -0.0465419 0
M  V30 176 H 21.2019 -4.66996 -0.321317 0
M  V30 177 H 21.3749 -6.47714 -0.192407 0
M  V30 178 N 14.781 0.264519 -1.55364 0
M  V30 179 C 16.027 0.99646 -1.76631 0
M  V30 180 C 16.36 1.85632 -0.570478 0
M  V30 181 O 15.635 1.89647 0.43175 0
M  V30 182 C 15.918 1.87187 -3.07625 0
M  V30 183 C 15.771 1.04138 -4.37579 0
M  V30 184 C 17.09 2.85749 -3.34717 0
M  V30 185 H 14.209 0.360841 -0.642622 0
M  V30 186 H 16.851 0.268218 -1.88097 0
M  V30 187 H 15.001 2.49279 -2.9798 0
M  V30 188 H 16.673 0.440517 -4.59192 0
M  V30 189 H 14.916 0.345115 -4.32425 0
M  V30 190 H 15.587 1.68729 -5.2558 0
M  V30 191 H 18.063 2.33793 -3.4421 0
M  V30 192 H 16.939 3.44136 -4.27623 0
M  V30 193 H 17.2 3.61311 -2.54768 0
M  V30 194 N 16.2591 1.48442 0.529413 0
M  V30 195 C 17.2221 1.62524 1.61612 0
M  V30 196 C 18.2221 0.498509 1.52877 0
M  V30 197 O 19.4121 0.76431 1.56537 0
M  V30 198 C 16.5441 1.59597 3.01233 0
M  V30 199 H 17.7371 2.59423 1.50465 0
M  V30 200 H 15.2901 1.37047 0.751514 0
M  V30 201 H 16.0251 0.641781 3.17886 0
M  V30 202 H 15.8101 2.41397 3.08982 0
M  V30 203 H 17.3001 1.72646 3.80241 0
M  V30 204 N 17.7372 -0.778329 1.37039 0
M  V30 205 C 18.6672 -1.90546 1.34962 0
M  V30 206 C 19.6482 -1.68681 0.219274 0
M  V30 207 O 20.8332 -1.89634 0.418624 0
M  V30 208 C 17.9632 -3.27734 1.14925 0
M  V30 209 C 16.9172 -3.64147 2.24902 0
M  V30 210 C 16.2432 -4.99806 1.89996 0
M  V30 211 C 17.5432 -3.71579 3.67051 0
M  V30 212 H 19.2372 -1.92541 2.29277 0
M  V30 213 H 16.7832 -0.924948 1.10366 0
M  V30 214 H 18.7362 -4.06215 1.12104 0
M  V30 215 H 17.4602 -3.26154 0.170631 0
M  V30 216 H 16.1192 -2.8797 2.26868 0
M  V30 217 H 15.7672 -4.94759 0.906796 0
M  V30 218 H 15.4672 -5.25139 2.63634 0
M  V30 219 H 16.9912 -5.80694 1.88749 0
M  V30 220 H 18.4052 -4.40227 3.67251 0
M  V30 221 H 16.8022 -4.08405 4.39688 0
M  V30 222 H 17.8722 -2.72404 4.01154 0
M  V30 223 N 19.2153 -1.21501 -1.00376 0
M  V30 224 C 20.4613 -1.03452 -1.74429 0
M  V30 225 C 20.7943 0.430764 -1.89362 0
M  V30 226 O 20.0693 1.31962 -1.42886 0
M  V30 227 C 20.3523 -1.73375 -3.15615 0
M  V30 228 C 20.2053 -3.27431 -3.08397 0
M  V30 229 C 21.5243 -1.47732 -4.14564 0
M  V30 230 H 18.6433 -0.377226 -0.633143 0
M  V30 231 H 21.2853 -1.49693 -1.17013 0
M  V30 232 H 19.4353 -1.34064 -3.64636 0
M  V30 233 H 21.1073 -3.76119 -2.67081 0
M  V30 234 H 19.3503 -3.5767 -2.45468 0
M  V30 235 H 20.0213 -3.71524 -4.08258 0
M  V30 236 H 22.4973 -1.8186 -3.74254 0
M  V30 237 H 21.3733 -1.99169 -5.11491 0
M  V30 238 H 21.6343 -0.407589 -4.40217 0
M  V30 239 N 20.6934 1.19889 -1.02296 0
M  V30 240 C 21.9214 1.9339 -0.735399 0
M  V30 241 C 22.3364 1.75148 0.704887 0
M  V30 242 O 21.6934 1.06954 1.47875 0
M  V30 243 C 21.7444 3.45313 -1.06962 0
M  V30 244 O 21.4654 3.62964 -2.45334 0
M  V30 245 C 22.9664 4.35948 -0.804021 0
M  V30 246 H 20.1864 0.61448 -0.269546 0
M  V30 247 H 22.7304 1.522 -1.36585 0
M  V30 248 H 20.8854 3.84359 -0.484455 0
M  V30 249 H 21.2994 4.56886 -2.57595 0
M  V30 250 H 22.7734 5.41174 -1.0879 0
M  V30 251 H 23.2504 4.3842 0.261691 0
M  V30 252 H 23.8564 4.02574 -1.37164 0
M  V30 253 N 22.1715 0.800033 1.35784 0
M  V30 254 C 23.4195 0.376597 1.9856 0
M  V30 255 C 23.7405 -1.05812 1.63795 0
M  V30 256 O 23.0105 -1.73103 0.917171 0
M  V30 257 H 21.5905 0.136261 0.734467 0
M  V30 258 H 24.2525 1.02442 1.65806 0
M  V30 259 H 23.3485 0.477002 3.08433 0
M  V30 260 N 23.6496 -1.47581 0.552962 0
M  V30 261 C 24.8976 -2.02082 0.0272703 0
M  V30 262 C 25.2186 -1.4301 -1.32563 0
M  V30 263 O 24.4886 -0.603745 -1.86365 0
M  V30 264 H 23.0686 -0.746966 0.00709182 0
M  V30 265 H 25.7306 -1.81033 0.722008 0
M  V30 266 H 24.8266 -3.12034 -0.0639951 0
M  V30 267 N 25.1277 -0.289203 -1.54924 0
M  V30 268 C 26.3527 0.329299 -2.04769 0
M  V30 269 C 26.7777 1.4763 -1.16564 0
M  V30 270 O 26.1357 1.80527 -0.167186 0
M  V30 271 C 26.1837 0.774438 -3.52186 0
M  V30 272 O 25.2877 1.88038 -3.67036 0
M  V30 273 H 24.6287 0.0659259 -0.660719 0
M  V30 274 H 27.1587 -0.42761 -2.00082 0
M  V30 275 H 27.1687 1.06642 -3.93816 0
M  V30 276 H 25.8437 -0.0646707 -4.1585 0
M  V30 277 H 24.4207 1.58985 -3.3731 0
M  V30 278 N 26.6058 1.57591 -0.0167156 0
M  V30 279 C 28.0218 1.55946 0.339557 0
M  V30 280 C 28.2218 1.02109 1.73713 0
M  V30 281 O 27.2778 0.662303 2.43659 0
M  V30 282 C 28.5908 3.00037 0.199499 0
M  V30 283 C 30.1388 3.11805 0.273193 0
M  V30 284 C 30.6138 4.57713 0.162068 0
M  V30 285 N 32.1048 4.6268 0.219444 0
M  V30 286 C 32.8398 5.73185 0.157054 0
M  V30 287 N 32.3358 6.92786 0.0442936 0
M  V30 288 N 34.1288 5.61707 0.21014 0
M  V30 289 H 26.2798 1.90921 -0.930758 0
M  V30 290 H 28.5428 0.877674 -0.358319 0
M  V30 291 H 28.2488 3.4333 -0.76273 0
M  V30 292 H 28.1228 3.64387 0.974786 0
M  V30 293 H 30.5098 2.68433 1.22587 0
M  V30 294 H 30.5908 2.50201 -0.532256 0
M  V30 295 H 30.2348 5.01763 -0.78714 0
M  V30 296 H 30.1648 5.17283 0.986222 0
M  V30 297 H 32.6558 3.76649 0.307246 0
M  V30 298 H 32.9688 7.728 0.00304069 0
M  V30 299 H 31.3138 6.94999 0.00968457 0
M  V30 300 H 34.5048 4.6716 0.296546 0
M  V30 301 H 34.6778 6.47807 0.158054 0
M  V30 302 N 28.0839 -0.256276 1.55502 0
M  V30 303 C 29.3319 -0.983672 1.76545 0
M  V30 304 C 29.6529 -1.86206 0.578982 0
M  V30 305 O 28.9229 -1.91656 -0.405577 0
M  V30 306 H 27.5029 -0.366191 0.651086 0
M  V30 307 H 30.1649 -0.276479 1.92929 0
M  V30 308 H 29.2609 -1.61087 2.67315 0
M  V30 309 N 29.562 -1.4872 -0.521534 0
M  V30 310 C 30.492 -1.66771 -1.63431 0
M  V30 311 C 31.473 -0.516499 -1.62069 0
M  V30 312 O 32.658 -0.750013 -1.79132 0
M  V30 313 C 29.788 -1.71515 -3.01993 0
M  V30 314 C 28.742 -2.86222 -3.18216 0
M  V30 315 C 28.068 -2.76061 -4.57924 0
M  V30 316 C 29.368 -4.27419 -3.00184 0
M  V30 317 H 31.062 -2.59932 -1.48579 0
M  V30 318 H 28.608 -1.25089 -0.713358 0
M  V30 319 H 30.561 -1.82731 -3.7972 0
M  V30 320 H 29.285 -0.749393 -3.17886 0
M  V30 321 H 27.944 -2.74575 -2.42908 0
M  V30 322 H 27.592 -1.77437 -4.70665 0
M  V30 323 H 27.292 -3.53037 -4.69722 0
M  V30 324 H 28.816 -2.89256 -5.37739 0
M  V30 325 H 30.23 -4.39855 -3.67697 0
M  V30 326 H 28.627 -5.05458 -3.2347 0
M  V30 327 H 29.697 -4.43293 -1.96518 0
M  V30 328 N 31.0401 0.771051 -1.3745 0
M  V30 329 C 32.2881 1.52661 -1.32435 0
M  V30 330 C 32.6091 1.9479 0.0905024 0
M  V30 331 O 31.8791 1.66348 1.03466 0
M  V30 332 H 30.4591 0.566218 -0.487244 0
M  V30 333 H 33.1211 0.917636 -1.71946 0
M  V30 334 H 32.2171 2.42568 -1.96385 0
M  V30 335 N 32.5182 1.22032 0.997298 0
M  V30 336 C 33.7652 1.04222 1.73621 0
M  V30 337 C 34.0932 -0.423264 1.89839 0
M  V30 338 O 33.3482 -1.3302 1.43542 0
M  V30 339 C 33.6472 1.69345 3.14733 0
M  V30 340 C 33.3132 3.19226 3.18442 0
M  V30 341 C 31.9752 3.60124 3.19161 0
M  V30 342 C 34.3272 4.15181 3.15078 0
M  V30 343 C 31.6552 4.95467 3.14212 0
M  V30 344 C 34.0072 5.50495 3.1167 0
M  V30 345 C 32.6712 5.90779 3.10703 0
M  V30 346 H 31.9412 0.381374 0.635323 0
M  V30 347 H 34.5882 1.51732 1.16831 0
M  V30 348 H 32.8932 1.14147 3.74803 0
M  V30 349 H 34.5902 1.53059 3.7064 0
M  V30 350 H 31.1802 2.86659 3.18629 0
M  V30 351 H 35.3642 3.84605 3.13676 0
M  V30 352 H 30.6202 5.25916 3.11805 0
M  V30 353 H 34.7942 6.24576 3.08022 0
M  V30 354 H 32.4212 6.9562 3.06622 0
M  V30 355 N 33.9963 -1.19345 1.0293 0
M  V30 356 C 35.2443 -1.88665 0.724574 0
M  V30 357 C 35.5653 -1.80036 -0.749144 0
M  V30 358 O 34.8353 -1.2111 -1.53978 0
M  V30 359 H 33.4153 -0.698406 0.265025 0
M  V30 360 H 36.0773 -1.44885 1.30362 0
M  V30 361 H 35.1733 -2.94987 1.01926 0
M  V30 362 N 35.4744 -0.807222 -1.35358 0
M  V30 363 C 36.7234 -0.384376 -1.98004 0
M  V30 364 C 37.0364 1.0543 -1.64754 0
M  V30 365 O 38.2424 1.58029 -2.20769 0
M  V30 366 C 36.6984 -0.636326 -3.5423 0
M  V30 367 C 36.3064 -2.08759 -3.96388 0
M  V30 368 C 38.0504 -0.278869 -4.23583 0
M  V30 369 C 35.9574 -2.28525 -5.45463 0
M  V30 370 H 34.8874 -0.139986 -0.740891 0
M  V30 371 H 37.5384 -0.991369 -1.54415 0
M  V30 372 H 35.9204 0.0406256 -3.95979 0
M  V30 373 H 37.0944 -2.8024 -3.6579 0
M  V30 374 H 35.4094 -2.40497 -3.39926 0
M  V30 375 H 38.0064 -0.404599 -5.33167 0
M  V30 376 H 38.3494 0.775012 -4.09022 0
M  V30 377 H 38.8824 -0.909764 -3.87257 0
M  V30 378 H 35.6214 -3.32361 -5.64992 0
M  V30 379 H 35.1414 -1.61569 -5.77629 0
M  V30 380 H 36.8204 -2.10109 -6.11934 0
M  V30 381 N 36.9525 1.47285 -0.560781 0
M  V30 382 C 37.9155 2.28535 0.174488 0
M  V30 383 C 38.9155 1.37153 0.839388 0
M  V30 384 O 40.1055 1.59748 0.694702 0
M  V30 385 C 37.2375 3.16934 1.25561 0
M  V30 386 H 38.4305 2.95012 -0.539262 0
M  V30 387 H 35.9835 1.53034 -0.317865 0
M  V30 388 H 36.7185 2.55157 2.00164 0
M  V30 389 H 36.5035 3.8419 0.783604 0
M  V30 390 H 37.9935 3.78143 1.77193 0
M  V30 391 N 38.4306 0.297415 1.54768 0
M  V30 392 C 39.3626 -0.613881 2.20826 0
M  V30 393 C 40.3756 -1.10032 1.19987 0
M  V30 394 O 41.5646 -1.01839 1.46598 0
M  V30 395 C 38.6646 -1.852 2.83821 0
M  V30 396 C 37.8376 -1.50865 4.10559 0
M  V30 397 C 36.8966 -2.60154 4.57391 0
M  V30 398 O 35.9226 -2.25398 5.2267 0
M  V30 399 N 37.1246 -3.90629 4.29406 0
M  V30 400 H 39.8896 -0.048389 2.99661 0
M  V30 401 H 37.4506 0.11946 1.61459 0
M  V30 402 H 39.4426 -2.57652 3.12086 0
M  V30 403 H 38.0126 -2.32597 2.08847 0
M  V30 404 H 37.2326 -0.616925 3.89343 0
M  V30 405 H 38.5206 -1.25458 4.9309 0
M  V30 406 H 37.9186 -4.21677 3.77101 0
M  V30 407 H 36.4756 -4.59391 4.62388 0
M  V30 408 N 39.9087 -1.5758 0.0250728 0
M  V30 409 C 41.1567 -1.91255 -0.653151 0
M  V30 410 C 41.4777 -0.901691 -1.729 0
M  V30 411 O 40.7477 0.0573785 -1.95816 0
M  V30 412 H 39.3277 -0.705942 -0.244243 0
M  V30 413 H 41.9897 -1.94767 0.0719209 0
M  V30 414 H 41.0857 -2.91752 -1.10847 0
M  V30 415 N 41.3868 0.248026 -1.55636 0
M  V30 416 C 42.3168 1.31079 -1.93237 0
M  V30 417 C 43.2978 1.50264 -0.797174 0
M  V30 418 O 44.4828 1.62891 -1.05737 0
M  V30 419 C 41.6128 2.66575 -2.22609 0
M  V30 420 C 40.5668 2.62087 -3.3837 0
M  V30 421 C 39.8928 4.01369 -3.53281 0
M  V30 422 C 41.1928 2.19171 -4.7409 0
M  V30 423 H 42.8868 0.998556 -2.82257 0
M  V30 424 H 40.4328 0.47891 -1.35803 0
M  V30 425 H 42.3858 3.41057 -2.47503 0
M  V30 426 H 41.1098 2.99432 -1.30414 0
M  V30 427 H 39.7688 1.90063 -3.13483 0
M  V30 428 H 39.4168 4.31489 -2.58508 0
M  V30 429 H 39.1168 3.99254 -4.31127 0
M  V30 430 H 40.6408 4.77552 -3.80495 0
M  V30 431 H 42.0548 2.83384 -4.98363 0
M  V30 432 H 40.4518 2.2817 -5.5503 0
M  V30 433 H 41.5218 1.14336 -4.71227 0
M  V30 434 N 42.8649 1.48995 0.513639 0
M  V30 435 C 43.8279 1.64229 1.59879 0
M  V30 436 C 44.8279 0.514696 1.5234 0
M  V30 437 O 46.0179 0.78087 1.55718 0
M  V30 438 C 43.1499 1.62783 2.99524 0
M  V30 439 H 44.3429 2.61004 1.47705 0
M  V30 440 H 41.8959 1.37837 0.736936 0
M  V30 441 H 42.6309 0.675461 3.17188 0
M  V30 442 H 42.4159 2.4466 3.06404 0
M  V30 443 H 43.9059 1.76669 3.78388 0
M  V30 444 N 44.343 -0.763751 1.37857 0
M  V30 445 C 45.253 -1.90817 1.36478 0
M  V30 446 C 46.269 -1.71997 0.263248 0
M  V30 447 O 47.445 -1.95095 0.499979 0
M  V30 448 C 44.51 -3.2605 1.17864 0
M  V30 449 C 43.571 -3.57467 2.3773 0
M  V30 450 C 42.804 -4.86249 2.19995 0
M  V30 451 O 43.027 -5.57884 1.18836 0
M  V30 452 O 41.961 -5.16911 3.08361 0
M  V30 453 H 45.787 -1.94933 2.32884 0
M  V30 454 H 43.372 -0.907619 1.1867 0
M  V30 455 H 45.254 -4.06924 1.09504 0
M  V30 456 H 43.929 -3.22769 0.245372 0
M  V30 457 H 42.836 -2.76796 2.51664 0
M  V30 458 H 44.169 -3.655 3.29652 0
M  V30 459 N 45.8211 -1.22559 -0.990812 0
M  V30 460 C 46.7841 -0.998863 -2.0629 0
M  V30 461 C 47.7841 0.0354834 -1.60761 0
M  V30 462 O 48.9741 -0.203231 -1.7301 0
M  V30 463 C 46.1061 -0.509203 -3.37076 0
M  V30 464 H 47.2991 -1.95014 -2.27837 0
M  V30 465 H 44.8521 -1.04456 -1.16269 0
M  V30 466 H 45.5871 0.446335 -3.21214 0
M  V30 467 H 45.3721 -1.25547 -3.71457 0
M  V30 468 H 46.8621 -0.370888 -4.1595 0
M  V30 469 N 47.2992 1.18797 -1.03562 0
M  V30 470 C 48.5472 1.88278 -0.734569 0
M  V30 471 C 48.8682 1.8043 0.739586 0
M  V30 472 O 48.1382 1.21925 1.53333 0
M  V30 473 H 46.7182 0.696991 -0.268725 0
M  V30 474 H 49.3802 1.44192 -1.31129 0
M  V30 475 H 48.4762 2.94443 -1.03489 0
M  V30 476 N 48.7773 0.814389 1.34928 0
M  V30 477 C 50.0173 0.404165 2.00364 0
M  V30 478 C 50.3813 -1.01166 1.63185 0
M  V30 479 O 51.5823 -1.52431 2.21401 0
M  V30 480 C 49.8533 0.590718 3.52484 0
M  V30 481 S 51.4123 0.272075 4.37956 0
M  V30 482 H 48.2303 0.15311 0.694319 0
M  V30 483 H 50.8323 1.05834 1.64376 0
M  V30 484 H 49.5363 1.62099 3.77031 0
M  V30 485 H 49.0673 -0.0785013 3.93322 0
M  V30 486 H 51.0823 -0.917405 4.87645 0
M  V30 487 N 50.2554 -1.46986 0.568584 0
M  V30 488 C 51.4804 -2.07335 0.0520528 0
M  V30 489 C 51.9054 -1.41675 -1.23733 0
M  V30 490 O 51.2634 -0.495623 -1.74394 0
M  V30 491 C 51.3114 -3.60417 -0.11501 0
M  V30 492 O 50.4154 -3.95309 -1.17492 0
M  V30 493 H 49.7564 -0.661597 0.0564385 0
M  V30 494 H 52.2864 -1.88837 0.787507 0
M  V30 495 H 52.2964 -4.06698 -0.325644 0
M  V30 496 H 50.9714 -4.07601 0.826675 0
M  V30 497 H 49.5484 -3.60757 -0.943869 0
M  V30 498 N 51.7335 -0.305618 -1.54608 0
M  V30 499 C 52.9795 0.302746 -2.00528 0
M  V30 500 C 53.3125 1.53184 -1.19367 0
M  V30 501 O 52.5875 1.92598 -0.271321 0
M  V30 502 C 52.8705 0.654756 -3.54097 0
M  V30 503 C 52.7235 -0.583793 -4.45995 0
M  V30 504 C 54.0425 1.47947 -4.14487 0
M  V30 505 H 51.1615 0.108564 -0.72896 0
M  V30 506 H 53.8035 -0.418634 -1.85331 0
M  V30 507 H 51.9535 1.26935 -3.67178 0
M  V30 508 H 53.6255 -1.22224 -4.44814 0
M  V30 509 H 51.8685 -1.21615 -4.16404 0
M  V30 510 H 52.5395 -0.293287 -5.5122 0
M  V30 511 H 55.0155 0.96013 -4.04871 0
M  V30 512 H 53.8915 1.69454 -5.22088 0
M  V30 513 H 54.1525 2.47011 -3.66658 0
M  V30 514 N 53.2116 1.57565 -0.0334293 0
M  V30 515 C 54.4576 1.92262 0.645226 0
M  V30 516 C 54.7906 0.910543 1.71531 0
M  V30 517 O 54.0656 -0.066099 1.94388 0
M  V30 518 C 54.3486 3.37422 1.2577 0
M  V30 519 C 54.2016 4.49369 0.196891 0
M  V30 520 C 55.5206 3.82628 2.17449 0
M  V30 521 H 52.6396 0.699171 0.233085 0
M  V30 522 H 55.2816 1.89779 -0.0915694 0
M  V30 523 H 53.4316 3.39669 1.88566 0
M  V30 524 H 55.1036 4.59254 -0.433962 0
M  V30 525 H 53.3466 4.31168 -0.477137 0
M  V30 526 H 54.0176 5.47978 0.665124 0
M  V30 527 H 56.4936 3.82145 1.64634 0
M  V30 528 H 55.3696 4.84883 2.57254 0
M  V30 529 H 55.6306 3.18376 3.0674 0
M  V30 530 N 54.6897 -0.239769 1.55765 0
M  V30 531 C 55.9357 -0.968234 1.78194 0
M  V30 532 C 56.2687 -1.84701 0.599938 0
M  V30 533 O 55.5437 -1.9031 -0.401524 0
M  V30 534 C 55.8267 -1.8227 3.10564 0
M  V30 535 C 55.6797 -0.971633 4.3918 0
M  V30 536 C 56.9987 -2.80388 3.39221 0
M  V30 537 H 54.1177 -0.350572 0.648281 0
M  V30 538 H 56.7597 -0.238259 1.885 0
M  V30 539 H 54.9097 -2.44507 3.01908 0
M  V30 540 H 56.5817 -0.367408 4.59835 0
M  V30 541 H 54.8247 -0.276276 4.32919 0
M  V30 542 H 55.4957 -1.60346 5.28198 0
M  V30 543 H 57.9717 -2.28287 3.47885 0
M  V30 544 H 56.8477 -3.3729 4.33044 0
M  V30 545 H 57.1087 -3.57212 2.60484 0
M  V30 546 N 56.1678 -1.49265 -0.50573 0
M  V30 547 C 57.1308 -1.65075 -1.59006 0
M  V30 548 C 58.1308 -0.522768 -1.52065 0
M  V30 549 O 59.3208 -0.789117 -1.55302 0
M  V30 550 C 56.4528 -1.64369 -2.98656 0
M  V30 551 H 57.6458 -2.61784 -1.46319 0
M  V30 552 H 55.1988 -1.38226 -0.729616 0
M  V30 553 H 55.9338 -0.692272 -3.16825 0
M  V30 554 H 55.7188 -2.46282 -3.05103 0
M  V30 555 H 57.2088 -1.78674 -3.77446 0
M  V30 556 N 57.6459 0.756429 -1.3826 0
M  V30 557 C 58.8709 1.55077 -1.37717 0
M  V30 558 C 59.2959 1.88073 0.03164 0
M  V30 559 O 58.6539 1.50364 1.01293 0
M  V30 560 C 58.7019 2.8283 -2.23695 0
M  V30 561 O 57.8059 3.77862 -1.6521 0
M  V30 562 H 57.1469 0.469152 -0.469885 0
M  V30 563 H 59.6769 0.935019 -1.81985 0
M  V30 564 H 59.6869 3.31783 -2.37453 0
M  V30 565 H 58.3619 2.58144 -3.2609 0
M  V30 566 H 56.9389 3.36555 -1.60578 0
M  V30 567 N 59.124 1.23083 0.984299 0
M  V30 568 C 60.54 0.992637 1.24975 0
M  V30 569 C 60.74 -0.308618 1.99123 0
M  V30 570 O 59.796 -1.02905 2.30579 0
M  V30 571 C 61.109 2.19698 2.05312 0
M  V30 572 C 62.657 2.24147 2.18465 0
M  V30 573 C 63.132 3.44157 3.02192 0
M  V30 574 N 64.623 3.44372 3.09777 0
M  V30 575 C 65.358 4.33886 3.74874 0
M  V30 576 N 64.854 5.3363 4.41827 0
M  V30 577 N 66.647 4.21639 3.71721 0
M  V30 578 H 58.798 2.06731 0.487453 0
M  V30 579 H 61.061 0.906339 0.277944 0
M  V30 580 H 60.767 3.1411 1.58201 0
M  V30 581 H 60.641 2.20465 3.06064 0
M  V30 582 H 63.028 1.30277 2.64786 0
M  V30 583 H 63.109 2.27415 1.17115 0
M  V30 584 H 62.753 4.38332 2.56568 0
M  V30 585 H 62.683 3.3813 4.03702 0
M  V30 586 H 65.174 2.72201 2.62135 0
M  V30 587 H 65.487 5.98196 4.89266 0
M  V30 588 H 63.832 5.37534 4.40548 0
M  V30 589 H 67.023 3.42962 3.18582 0
M  V30 590 H 67.196 4.91604 4.22173 0
M  V30 591 N 60.6021 -1.18246 1.0419 0
M  V30 592 C 61.5501 -2.23968 0.627792 0
M  V30 593 C 62.5441 -1.65828 -0.346019 0
M  V30 594 O 63.7501 -1.78733 -0.213175 0
M  V30 595 H 60.1251 -0.728939 0.184802 0
M  V30 596 H 62.0961 -2.56202 1.52981 0
M  V30 597 C 60.8451 -3.47699 0.00796591 0
M  V30 598 H 60.1681 -3.92734 0.748347 0
M  V30 599 H 61.6081 -4.23294 -0.24455 0
M  V30 600 C 60.0671 -3.13153 -1.24246 0
M  V30 601 O 60.5971 -3.27003 -2.33307 0
M  V30 602 N 58.8031 -2.67467 -1.13622 0
M  V30 603 H 58.3501 -2.56396 -0.248734 0
M  V30 604 H 58.3081 -2.44724 -1.97377 0
M  V30 605 N 62.0802 -0.821533 -1.34494 0
M  V30 606 C 63.0102 -0.257138 -2.3208 0
M  V30 607 C 63.9912 0.625645 -1.58176 0
M  V30 608 O 65.1762 0.552811 -1.86166 0
M  V30 609 C 62.3062 0.582958 -3.42372 0
M  V30 610 C 61.2602 -0.202571 -4.2752 0
M  V30 611 C 60.5862 0.760179 -5.29269 0
M  V30 612 C 61.8862 -1.40998 -5.02908 0
M  V30 613 H 63.5802 -1.07247 -2.79532 0
M  V30 614 H 61.1262 -0.517163 -1.34393 0
M  V30 615 H 63.0792 0.987972 -4.09655 0
M  V30 616 H 61.8032 1.43133 -2.93565 0
M  V30 617 H 60.4622 -0.588936 -3.61838 0
M  V30 618 H 60.1102 1.60447 -4.76724 0
M  V30 619 H 59.8102 0.238809 -5.87115 0
M  V30 620 H 61.3342 1.16308 -5.9942 0
M  V30 621 H 62.7482 -1.07905 -5.63054 0
M  V30 622 H 61.1452 -1.86689 -5.70322 0
M  V30 623 H 62.2152 -2.1889 -4.32684 0
M  V30 624 N 63.5583 1.46682 -0.576371 0
M  V30 625 C 64.4683 2.34032 0.163141 0
M  V30 626 C 65.4843 1.49367 0.892501 0
M  V30 627 O 66.6603 1.82252 0.857106 0
M  V30 628 C 63.7253 3.26435 1.16795 0
M  V30 629 C 62.7863 4.26998 0.443944 0
M  V30 630 C 62.0193 5.14986 1.40088 0
M  V30 631 O 62.2423 5.05785 2.637 0
M  V30 632 O 61.1763 5.94906 0.914917 0
M  V30 633 H 65.0023 2.98607 -0.55388 0
M  V30 634 H 62.5873 1.45554 -0.336821 0
M  V30 635 H 64.4693 3.83459 1.74748 0
M  V30 636 H 63.1443 2.64465 1.86655 0
M  V30 637 H 62.0513 3.7368 -0.177271 0
M  V30 638 H 63.3843 4.91736 -0.213566 0
M  V30 639 N 65.0364 0.313813 1.54444 0
M  V30 640 C 65.9464 -0.565714 2.27677 0
M  V30 641 C 66.9624 -1.13754 1.31666 0
M  V30 642 O 68.1384 -1.15959 1.64668 0
M  V30 643 C 65.2034 -1.71528 3.01296 0
M  V30 644 C 64.2644 -1.17624 4.12872 0
M  V30 645 C 63.4974 -2.27102 4.8297 0
M  V30 646 O 63.7204 -3.47256 4.52514 0
M  V30 647 O 62.6544 -1.9307 5.70094 0
M  V30 648 H 66.4804 0.0287296 3.03686 0
M  V30 649 H 64.0654 0.0798312 1.49187 0
M  V30 650 H 65.9474 -2.38476 3.4743 0
M  V30 651 H 64.6224 -2.29608 2.2817 0
M  V30 652 H 63.5294 -0.472124 3.71109 0
M  V30 653 H 64.8624 -0.640695 4.88012 0
M  V30 654 N 66.5145 -1.57545 0.0417849 0
M  V30 655 C 67.4775 -2.09885 -0.92093 0
M  V30 656 C 68.4775 -1.01648 -1.24596 0
M  V30 657 O 69.6675 -1.27759 -1.1842 0
M  V30 658 C 66.7995 -2.57527 -2.23367 0
M  V30 659 H 67.9925 -2.96236 -0.467382 0
M  V30 660 H 65.5455 -1.5493 -0.206467 0
M  V30 661 H 66.2805 -1.74542 -2.73323 0
M  V30 662 H 66.0655 -3.36613 -2.01083 0
M  V30 663 H 67.5555 -2.98201 -2.92346 0
M  V30 664 N 67.9926 0.231505 -1.5589 0
M  V30 665 C 69.2176 0.978689 -1.82856 0
M  V30 666 C 69.6426 1.77559 -0.620846 0
M  V30 667 O 69.0006 1.76119 0.430305 0
M  V30 668 C 69.0486 1.87997 -3.07716 0
M  V30 669 O 68.1526 2.97393 -2.85712 0
M  V30 670 H 67.4936 0.277663 -0.603158 0
M  V30 671 H 70.0236 0.24783 -2.03093 0
M  V30 672 H 70.0336 2.2917 -3.37558 0
M  V30 673 H 68.7086 1.29417 -3.95252 0
M  V30 674 H 67.2856 2.60238 -2.67078 0
M  V30 675 N 69.4707 1.49531 0.497807 0
M  V30 676 C 70.3807 1.69176 1.62532 0
M  V30 677 C 71.3967 0.5744 1.64246 0
M  V30 678 O 72.5727 0.849497 1.82608 0
M  V30 679 C 69.6377 1.75695 2.98885 0
M  V30 680 C 68.6987 2.9929 3.07773 0
M  V30 681 C 67.9317 3.05488 4.37622 0
M  V30 682 O 68.1547 2.19192 5.26603 0
M  V30 683 O 67.0887 3.9798 4.51548 0
M  V30 684 H 70.9147 2.647 1.48887 0
M  V30 685 H 68.4997 1.3331 0.674441 0
M  V30 686 H 70.3817 1.82317 3.79919 0
M  V30 687 H 69.0567 0.8335 3.12785 0
M  V30 688 H 67.9637 2.98183 2.25915 0
M  V30 689 H 69.2967 3.91125 2.98801 0
M  V30 690 N 70.9488 -0.749086 1.3866 0
M  V30 691 C 71.9118 -1.84457 1.36045 0
M  V30 692 C 72.9118 -1.58682 0.260122 0
M  V30 693 O 74.1018 -1.66343 0.517261 0
M  V30 694 C 71.2338 -3.22008 1.11911 0
M  V30 695 H 72.4268 -1.88182 2.33512 0
M  V30 696 H 69.9798 -0.951266 1.24019 0
M  V30 697 H 70.7148 -3.2395 0.150686 0
M  V30 698 H 70.4998 -3.42111 1.91579 0
M  V30 699 H 71.9898 -4.0208 1.12788 0
M  V30 700 N 72.4269 -1.23603 -0.977757 0
M  V30 701 C 73.3899 -1.02069 -2.05218 0
M  V30 702 C 74.3899 0.0184305 -1.60789 0
M  V30 703 O 75.5799 -0.221569 -1.72785 0
M  V30 704 C 72.7119 -0.544926 -3.36517 0
M  V30 705 H 73.9049 -1.9742 -2.25755 0
M  V30 706 H 71.4579 -1.05684 -1.15155 0
M  V30 707 H 72.1929 0.412241 -3.21669 0
M  V30 708 H 71.9779 -1.2948 -3.70105 0
M  V30 709 H 73.4679 -0.414985 -4.15533 0
M  V30 710 N 73.905 1.17692 -1.04816 0
M  V30 711 C 74.837 2.21103 -0.603822 0
M  V30 712 C 75.85 1.59411 0.33046 0
M  V30 713 O 77.039 1.7807 0.12379 0
M  V30 714 C 74.139 3.38623 0.136898 0
M  V30 715 C 73.312 4.29888 -0.807137 0
M  V30 716 C 72.371 5.26088 -0.10836 0
M  V30 717 O 71.397 5.64353 -0.741232 0
M  V30 718 N 72.599 5.68882 1.15558 0
M  V30 719 H 75.364 2.59848 -1.49329 0
M  V30 720 H 72.925 1.32553 -0.929587 0
M  V30 721 H 74.917 4.00009 0.614401 0
M  V30 722 H 73.487 2.98508 0.927993 0
M  V30 723 H 72.707 3.65993 -1.46434 0
M  V30 724 H 73.995 4.87759 -1.44807 0
M  V30 725 H 73.393 5.39861 1.69015 0
M  V30 726 H 71.95 6.32429 1.57722 0
M  V30 727 N 75.3831 0.828654 1.34056 0
M  V30 728 C 76.3301 0.252567 2.29414 0
M  V30 729 C 77.3001 -0.62588 1.53857 0
M  V30 730 O 78.4851 -0.566312 1.82202 0
M  V30 731 C 75.6251 -0.574831 3.40279 0
M  V30 732 C 74.7381 0.326499 4.30764 0
M  V30 733 C 73.8731 -0.511016 5.28736 0
M  V30 734 C 72.9121 0.389342 6.1086 0
M  V30 735 N 72.0491 -0.409439 7.00905 0
M  V30 736 H 76.8891 1.07108 2.78086 0
M  V30 737 H 74.4261 0.539677 1.36843 0
M  V30 738 H 76.3841 -1.06992 4.03248 0
M  V30 739 H 75.0141 -1.35841 2.92826 0
M  V30 740 H 74.0661 0.939837 3.68607 0
M  V30 741 H 75.3781 1.01857 4.88289 0
M  V30 742 H 74.5321 -1.07035 5.97184 0
M  V30 743 H 73.2711 -1.23657 4.71763 0
M  V30 744 H 72.2761 0.960769 5.4134 0
M  V30 745 H 73.5011 1.1131 6.69916 0
M  V30 746 H 71.4471 -1.11856 6.46393 0
M  V30 747 H 71.3641 0.224126 7.55668 0
M  V30 748 H 72.6321 -0.951336 7.73673 0
M  V30 749 N 76.8612 -1.46375 0.584142 0
M  V30 750 C 77.7912 -2.33103 -0.136037 0
M  V30 751 C 78.7722 -1.45431 -0.882255 0
M  V30 752 O 79.9572 -1.74246 -0.857434 0
M  V30 753 C 77.0872 -3.27731 -1.14933 0
M  V30 754 C 76.0412 -4.24855 -0.517862 0
M  V30 755 C 75.3672 -5.09001 -1.63773 0
M  V30 756 C 76.6672 -5.19439 0.545886 0
M  V30 757 H 78.3612 -2.93568 0.588086 0
M  V30 758 H 75.9072 -1.41166 0.284259 0
M  V30 759 H 77.8602 -3.87261 -1.66153 0
M  V30 760 H 76.5842 -2.65377 -1.90375 0
M  V30 761 H 75.2432 -3.6659 -0.0267361 0
M  V30 762 H 74.8912 -4.43031 -2.38185 0
M  V30 763 H 74.5912 -5.74777 -1.22085 0
M  V30 764 H 76.1152 -5.71396 -2.15266 0
M  V30 765 H 77.5292 -5.73177 0.118704 0
M  V30 766 H 75.9262 -5.93566 0.88317 0
M  V30 767 H 76.9962 -4.63285 1.43162 0
M  V30 768 N 78.3393 -0.321999 -1.54275 0
M  V30 769 C 79.5673 0.283052 -2.04955 0
M  V30 770 C 79.9823 1.45904 -1.19823 0
M  V30 771 O 79.3393 1.81063 -0.228545 0
M  V30 772 C 79.3903 0.719028 -3.54277 0
M  V30 773 O 79.1113 -0.410175 -4.36176 0
M  V30 774 C 80.6123 1.38705 -4.21041 0
M  V30 775 H 77.8323 0.0584616 -0.668448 0
M  V30 776 H 80.3763 -0.467734 -1.99079 0
M  V30 777 H 78.5313 1.41979 -3.60445 0
M  V30 778 H 78.9453 -0.0669416 -5.24457 0
M  V30 779 H 80.4193 1.64306 -5.2698 0
M  V30 780 H 80.8963 2.33385 -3.72059 0
M  V30 781 H 81.5023 0.728906 -4.19007 0
M  V30 782 N 79.8174 1.5752 -0.0501392 0
M  V30 783 C 80.7274 2.14952 0.939827 0
M  V30 784 C 81.7434 1.10706 1.34239 0
M  V30 785 O 82.9194 1.42869 1.41952 0
M  V30 786 C 79.9844 2.68232 2.19665 0
M  V30 787 C 79.0454 3.87272 1.85253 0
M  V30 788 C 78.2784 4.38002 3.04943 0
M  V30 789 O 78.5014 3.87811 4.18281 0
M  V30 790 O 77.4354 5.29602 2.86017 0
M  V30 791 H 81.2614 2.9986 0.481392 0
M  V30 792 H 78.8464 1.4841 0.171699 0
M  V30 793 H 80.7284 3.02475 2.93406 0
M  V30 794 H 79.4034 1.86395 2.64648 0
M  V30 795 H 78.3104 3.5792 1.0883 0
M  V30 796 H 79.6434 4.70336 1.4507 0
M  V30 797 N 81.2955 -0.223234 1.56011 0
M  V30 798 C 82.2425 -1.27664 1.92277 0
M  V30 799 C 83.2125 -1.46659 0.779763 0
M  V30 800 O 84.3975 -1.60256 1.03551 0
M  V30 801 C 81.5375 -2.62234 2.24338 0
M  V30 802 C 80.6505 -2.51051 3.51564 0
M  V30 803 C 79.7855 -3.78133 3.7308 0
M  V30 804 C 78.8245 -3.61665 4.93827 0
M  V30 805 N 77.9615 -4.80693 5.11741 0
M  V30 806 H 82.8015 -0.960358 2.82101 0
M  V30 807 H 80.3385 -0.462901 1.39627 0
M  V30 808 H 82.2965 -3.40596 2.40936 0
M  V30 809 H 80.9265 -2.91961 1.3769 0
M  V30 810 H 79.9785 -1.64132 3.43169 0
M  V30 811 H 81.2905 -2.34803 4.40079 0
M  V30 812 H 80.4445 -4.64938 3.89766 0
M  V30 813 H 79.1835 -3.97304 2.82844 0
M  V30 814 H 78.1885 -2.73244 4.77093 0
M  V30 815 H 79.4135 -3.43966 5.85546 0
M  V30 816 H 77.3595 -5.00181 4.24446 0
M  V30 817 H 77.2765 -4.67165 5.94384 0
M  V30 818 H 78.5445 -5.6893 5.3286 0
M  V30 819 N 82.7736 -1.49793 -0.48987 0
M  V30 820 C 84.0036 -1.6333 -1.26518 0
M  V30 821 C 84.4116 -0.308392 -1.8667 0
M  V30 822 O 83.7546 0.717512 -1.69108 0
M  V30 823 C 83.8166 -2.6522 -2.4269 0
M  V30 824 C 83.4806 -4.09279 -2.03321 0
M  V30 825 C 84.4776 -4.95738 -1.56652 0
M  V30 826 C 82.1626 -4.55082 -2.12616 0
M  V30 827 C 84.1566 -6.26041 -1.19795 0
M  V30 828 C 81.8436 -5.85396 -1.75371 0
M  V30 829 C 82.8416 -6.707 -1.29036 0
M  V30 830 O 82.5296 -7.98584 -0.92299 0
M  V30 831 H 82.2616 -0.552502 -0.389509 0
M  V30 832 H 84.8156 -1.96642 -0.593381 0
M  V30 833 H 83.0456 -2.27112 -3.12981 0
M  V30 834 H 84.7346 -2.68171 -3.04695 0
M  V30 835 H 85.5006 -4.61575 -1.48908 0
M  V30 836 H 81.3796 -3.88844 -2.47631 0
M  V30 837 H 84.9236 -6.92578 -0.835582 0
M  V30 838 H 80.8206 -6.19085 -1.82768 0
M  V30 839 H 81.5886 -8.11692 -1.05349 0
M  V30 840 N 84.2517 0.741722 -1.39055 0
M  V30 841 C 85.4997 1.49818 -1.35643 0
M  V30 842 C 85.8207 1.94938 0.0491642 0
M  V30 843 O 85.0907 1.68505 0.999141 0
M  V30 844 H 83.6707 0.555755 -0.499144 0
M  V30 845 H 86.3327 0.880957 -1.73854 0
M  V30 846 H 85.4287 2.38348 -2.01486 0
M  V30 847 N 85.7298 1.2412 0.971189 0
M  V30 848 C 86.9758 1.08041 1.71625 0
M  V30 849 C 87.3088 -0.380407 1.90438 0
M  V30 850 O 86.5838 -1.28127 1.46334 0
M  V30 851 C 86.8668 1.81682 3.10908 0
M  V30 852 C 86.7198 3.35493 2.99608 0
M  V30 853 C 88.0388 1.58671 4.10501 0
M  V30 854 H 85.1578 0.39388 0.622919 0
M  V30 855 H 87.7998 1.52743 1.13003 0
M  V30 856 H 85.9498 1.43684 3.60953 0
M  V30 857 H 87.6218 3.83068 2.57015 0
M  V30 858 H 85.8648 3.64052 2.35899 0
M  V30 859 H 86.5358 3.82217 3.98264 0
M  V30 860 H 89.0118 1.91719 3.69301 0
M  V30 861 H 87.8878 2.1266 5.06031 0
M  V30 862 H 88.1488 0.524161 4.38982 0
M  V30 863 N 87.2079 -1.17134 1.05439 0
M  V30 864 C 88.1179 -2.24878 0.668365 0
M  V30 865 C 89.1339 -1.71186 -0.311687 0
M  V30 866 O 90.3099 -2.00738 -0.163161 0
M  V30 867 C 87.3749 -3.46662 0.051648 0
M  V30 868 C 86.4359 -4.15429 1.08246 0
M  V30 869 C 85.6689 -5.31399 0.495082 0
M  V30 870 O 85.8919 -5.66153 -0.694743 0
M  V30 871 O 84.8259 -5.89187 1.23056 0
M  V30 872 H 88.6519 -2.60189 1.56637 0
M  V30 873 H 86.2369 -1.24482 0.826104 0
M  V30 874 H 88.1189 -4.20394 -0.290966 0
M  V30 875 H 86.7939 -3.13142 -0.819971 0
M  V30 876 H 85.7009 -3.43704 1.47711 0
M  V30 877 H 87.0339 -4.52982 1.92532 0
M  V30 878 N 88.686 -0.835752 -1.33615 0
M  V30 879 C 89.914 -0.443344 -2.02094 0
M  V30 880 C 90.329 0.954522 -1.62894 0
M  V30 881 O 89.686 1.61982 -0.840723 0
M  V30 882 C 89.737 -0.550775 -3.5728 0
M  V30 883 O 89.458 -1.89356 -3.95065 0
M  V30 884 C 90.959 -0.154919 -4.43029 0
M  V30 885 H 88.179 -0.176359 -0.647409 0
M  V30 886 H 90.723 -1.12746 -1.70612 0
M  V30 887 H 88.878 0.0853997 -3.87306 0
M  V30 888 H 89.292 -1.87687 -4.89769 0
M  V30 889 H 90.766 -0.281144 -5.51284 0
M  V30 890 H 91.243 0.902863 -4.2982 0
M  V30 891 H 91.849 -0.765404 -4.18356 0
M  V30 892 N 90.1641 1.46063 -0.591896 0
M  V30 893 C 91.0971 2.27452 0.184617 0
M  V30 894 C 92.0751 1.36188 0.888351 0
M  V30 895 O 93.2591 1.65606 0.90039 0
M  V30 896 C 90.3861 3.14162 1.26571 0
M  V30 897 C 89.4321 4.21255 0.666814 0
M  V30 898 S 90.2651 5.33034 -0.513345 0
M  V30 899 C 91.4211 6.23311 0.56872 0
M  V30 900 H 91.6541 2.92963 -0.505939 0
M  V30 901 H 89.1871 1.49676 -0.379014 0
M  V30 902 H 91.1451 3.6468 1.88463 0
M  V30 903 H 89.8061 2.47946 1.92826 0
M  V30 904 H 88.9991 4.81788 1.47974 0
M  V30 905 H 88.6011 3.73797 0.123359 0
M  V30 906 H 90.8931 6.61758 1.45198 0
M  V30 907 H 91.8361 7.081 -7.23824e-05 0
M  V30 908 H 92.2441 5.57646 0.876996 0
M  V30 909 N 91.6422 0.330177 1.54103 0
M  V30 910 C 92.6052 -0.520144 2.2322 0
M  V30 911 C 93.6052 -1.03828 1.22786 0
M  V30 912 O 94.7952 -0.929652 1.4732 0
M  V30 913 C 91.9272 -1.72317 2.94142 0
M  V30 914 H 93.1202 0.0841605 2.99782 0
M  V30 915 H 90.6732 0.0813433 1.56088 0
M  V30 916 H 91.4082 -2.36653 2.21734 0
M  V30 917 H 91.1932 -1.35898 3.67796 0
M  V30 918 H 92.6832 -2.3266 3.46784 0
M  V30 919 N 93.1203 -1.57491 0.0584922 0
M  V30 920 C 94.3673 -1.92978 -0.613648 0
M  V30 921 C 94.6953 -0.937461 -1.70417 0
M  V30 922 O 93.9503 0.049078 -1.95638 0
M  V30 923 C 94.2493 -3.3513 -1.24188 0
M  V30 924 C 93.9153 -4.50037 -0.278826 0
M  V30 925 C 92.5773 -4.81198 -0.0138447 0
M  V30 926 C 94.9293 -5.19807 0.380777 0
M  V30 927 C 92.2573 -5.79473 0.918052 0
M  V30 928 C 94.6093 -6.19079 1.30091 0
M  V30 929 C 93.2733 -6.48665 1.57449 0
M  V30 930 H 92.5433 -0.706157 -0.22455 0
M  V30 931 H 95.1903 -1.91082 0.126533 0
M  V30 932 H 93.4953 -3.33429 -2.05749 0
M  V30 933 H 95.1923 -3.59871 -1.769 0
M  V30 934 H 91.7823 -4.25726 -0.495539 0
M  V30 935 H 95.9663 -4.95939 0.189158 0
M  V30 936 H 91.2223 -6.00727 1.1374 0
M  V30 937 H 95.3963 -6.7225 1.81804 0
M  V30 938 H 93.0233 -7.24628 2.29822 0
M  V30 939 N 94.5984 0.214957 -1.56127 0
M  V30 940 C 96.0144 0.564948 -1.49267 0
M  V30 941 C 96.2144 1.86827 -0.754838 0
M  V30 942 O 95.2704 2.50745 -0.297198 0
M  V30 943 C 96.5834 0.638071 -2.93852 0
M  V30 944 C 98.1314 0.728253 -3.0441 0
M  V30 945 C 98.6064 0.832663 -4.50367 0
M  V30 946 N 100.097 0.896712 -4.54437 0
M  V30 947 C 100.832 0.997324 -5.6466 0
M  V30 948 N 100.328 1.06147 -6.8462 0
M  V30 949 N 102.121 1.03297 -5.52527 0
M  V30 950 H 94.2724 -0.640211 -2.02522 0
M  V30 951 H 96.5354 -0.225507 -0.920788 0
M  V30 952 H 96.2414 -0.250126 -3.50809 0
M  V30 953 H 96.1154 1.49947 -3.46115 0
M  V30 954 H 98.5024 1.60689 -2.47514 0
M  V30 955 H 98.5834 -0.158952 -2.55306 0
M  V30 956 H 98.2274 -0.0415417 -5.07883 0
M  V30 957 H 98.1574 1.73538 -4.97184 0
M  V30 958 H 100.648 0.857188 -3.6805 0
M  V30 959 H 100.961 1.1382 -7.64372 0
M  V30 960 H 99.3064 1.03049 -6.87318 0
M  V30 961 H 102.497 0.979558 -4.57736 0
M  V30 962 H 102.67 1.10793 -6.38458 0
M  V30 963 N 96.0765 1.50051 0.48192 0
M  V30 964 C 97.3165 1.62128 1.24474 0
M  V30 965 C 97.6805 0.309742 1.89485 0
M  V30 966 O 98.8815 0.305854 2.67054 0
M  V30 967 C 97.1525 2.76151 2.26882 0
M  V30 968 S 98.7115 3.08297 3.12247 0
M  V30 969 H 95.5295 0.571661 0.422759 0
M  V30 970 H 98.1315 1.87791 0.54359 0
M  V30 971 H 96.8355 3.69942 1.77683 0
M  V30 972 H 96.3665 2.52541 3.0164 0
M  V30 973 H 98.3815 2.51287 4.27866 0
M  V30 974 N 97.5546 -0.734337 1.39446 0
M  V30 975 C 98.8316 -1.48579 1.27215 0
M  V30 976 C 99.2116 -2.1077 -0.117968 0
M  V30 977 O 98.5596 -1.98646 -1.12924 0
M  V30 978 C 98.7696 -2.53667 2.39696 0
M  V30 979 C 100.118 -3.20031 2.79044 0
M  V30 980 O 101.142 -2.6398 2.39151 0
M  V30 981 O 100.001 -4.21455 3.47905 0
M  V30 982 H 97.0946 -0.659816 0.49857 0
M  V30 983 H 99.6406 -0.768106 1.51322 0
M  V30 984 H 98.4126 -2.06096 3.32626 0
M  V30 985 H 98.0356 -3.32994 2.17258 0
M  V30 986 N 99.0327 -1.24633 -0.964593 0
M  V30 987 C 100.279 -1.08949 -1.71049 0
M  V30 988 C 100.612 0.370302 -1.90637 0
M  V30 989 O 99.8867 1.27349 -1.47011 0
M  V30 990 C 100.17 -1.83329 -3.0994 0
M  V30 991 C 100.023 -3.37077 -2.97824 0
M  V30 992 C 101.342 -1.60846 -4.09654 0
M  V30 993 H 98.4607 -0.397178 -0.620821 0
M  V30 994 H 101.103 -1.5334 -1.12191 0
M  V30 995 H 99.2527 -1.45597 -3.60186 0
M  V30 996 H 100.925 -3.84425 -2.5498 0
M  V30 997 H 99.1677 -3.65298 -2.33965 0
M  V30 998 H 99.8387 -3.84324 -3.96231 0
M  V30 999 H 102.315 -1.93674 -3.68279 0
M  V30 1000 H 101.191 -2.1534 -5.04896 0
M  V30 1001 H 101.452 -0.547434 -4.38698 0
M  V30 1002 N 100.511 1.16574 -1.06058 0
M  V30 1003 C 101.736 1.91493 -0.796562 0
M  V30 1004 C 102.161 1.76773 0.642868 0
M  V30 1005 O 101.519 1.09142 1.44768 0
M  V30 1006 C 101.567 3.40293 -1.19303 0
M  V30 1007 O 100.671 4.11074 -0.330394 0
M  V30 1008 H 100.012 0.596678 -0.291326 0
M  V30 1009 H 102.542 1.47708 -1.41575 0
M  V30 1010 H 102.552 3.91057 -1.16356 0
M  V30 1011 H 101.227 3.50326 -2.24153 0
M  V30 1012 H 99.8038 3.70513 -0.421225 0
M  V30 1013 N 101.989 0.842826 1.3317 0
M  V30 1014 C 102.937 0.267495 2.31057 0
M  V30 1015 C 103.931 -0.602682 1.58316 0
M  V30 1016 O 105.137 -0.491803 1.73151 0
M  V30 1017 H 101.512 0.0677813 0.748939 0
M  V30 1018 H 103.483 1.10754 2.77085 0
M  V30 1019 C 102.232 -0.539331 3.43492 0
M  V30 1020 H 101.555 0.12095 3.99617 0
M  V30 1021 H 102.995 -0.90767 4.14171 0
M  V30 1022 C 101.454 -1.71981 2.89697 0
M  V30 1023 O 101.984 -2.81862 2.86211 0
M  V30 1024 N 100.19 -1.54299 2.46252 0
M  V30 1025 H 99.7369 -0.649143 2.49287 0
M  V30 1026 H 99.6949 -2.33431 2.10612 0
M  V30 1027 N 103.467 -1.45747 0.599634 0
M  V30 1028 C 104.697 -2.06369 0.0977132 0
M  V30 1029 C 105.105 -1.44624 -1.21985 0
M  V30 1030 O 104.448 -0.551831 -1.75216 0
M  V30 1031 C 104.51 -3.59284 -0.124673 0
M  V30 1032 C 104.174 -4.43318 1.10987 0
M  V30 1033 C 105.171 -4.78796 2.02609 0
M  V30 1034 C 102.856 -4.84194 1.33647 0
M  V30 1035 C 104.85 -5.53997 3.15224 0
M  V30 1036 C 102.537 -5.5915 2.46565 0
M  V30 1037 C 103.535 -5.93968 3.37182 0
M  V30 1038 O 103.223 -6.67405 4.48136 0
M  V30 1039 H 102.955 -0.673122 0.0623153 0
M  V30 1040 H 105.509 -1.88104 0.824981 0
M  V30 1041 H 103.739 -3.75919 -0.906745 0
M  V30 1042 H 105.428 -4.01775 -0.577201 0
M  V30 1043 H 106.194 -4.47781 1.86325 0
M  V30 1044 H 102.073 -4.56534 0.64016 0
M  V30 1045 H 105.617 -5.81091 3.85978 0
M  V30 1046 H 101.514 -5.89579 2.62805 0
M  V30 1047 H 102.282 -6.85847 4.46717 0
M  V30 1048 N 104.945 -0.338344 -1.53925 0
M  V30 1049 C 105.855 0.529421 -2.28548 0
M  V30 1050 C 106.871 1.11645 -1.3346 0
M  V30 1051 O 108.047 1.13325 -1.66492 0
M  V30 1052 C 105.112 1.66713 -3.03987 0
M  V30 1053 C 104.173 1.11041 -4.14691 0
M  V30 1054 C 103.406 2.19389 -4.86522 0
M  V30 1055 O 103.629 3.40013 -4.57982 0
M  V30 1056 O 102.563 1.83976 -5.73094 0
M  V30 1057 H 106.389 -0.0770399 -3.03602 0
M  V30 1058 H 103.974 -0.103555 -1.49041 0
M  V30 1059 H 105.856 2.32918 -3.5118 0
M  V30 1060 H 104.531 2.25949 -2.31794 0
M  V30 1061 H 103.438 0.413024 -3.71813 0
M  V30 1062 H 104.771 0.562975 -4.8897 0
M  V30 1063 N 106.423 1.57458 -0.0668435 0
M  V30 1064 C 107.333 2.15937 0.916975 0
M  V30 1065 C 108.349 1.12123 1.33058 0
M  V30 1066 O 109.525 1.44366 1.40429 0
M  V30 1067 C 106.59 2.70547 2.16807 0
M  V30 1068 C 105.651 3.89215 1.81135 0
M  V30 1069 C 104.884 4.41211 3.0028 0
M  V30 1070 O 105.107 3.92225 4.14144 0
M  V30 1071 O 104.041 5.32605 2.80384 0
M  V30 1072 H 107.867 3.00354 0.449561 0
M  V30 1073 H 105.452 1.48584 0.155949 0
M  V30 1074 H 107.334 3.0557 2.90181 0
M  V30 1075 H 106.009 1.89192 2.62656 0
M  V30 1076 H 104.916 3.59054 1.05028 0
M  V30 1077 H 106.249 4.71848 1.40073 0
M  V30 1078 N 107.901 -0.206675 1.56239 0
M  V30 1079 C 109.147 -0.930218 1.80208 0
M  V30 1080 C 109.48 -1.83387 0.638981 0
M  V30 1081 O 108.755 -1.91119 -0.361066 0
M  V30 1082 C 109.038 -1.75641 3.1436 0
M  V30 1083 C 108.891 -0.878257 4.41142 0
M  V30 1084 C 110.21 -2.73129 3.45092 0
M  V30 1085 H 107.329 -0.336742 0.655571 0
M  V30 1086 H 109.971 -0.198222 1.88963 0
M  V30 1087 H 108.121 -2.38048 3.07027 0
M  V30 1088 H 109.793 -0.269787 4.6051 0
M  V30 1089 H 108.036 -0.184385 4.33408 0
M  V30 1090 H 108.707 -1.49106 5.3148 0
M  V30 1091 H 111.183 -2.20856 3.52649 0
M  V30 1092 H 110.059 -3.28028 4.40101 0
M  V30 1093 H 110.32 -3.51606 2.68003 0
M  V30 1094 N 109.379 -1.50304 -0.473955 0
M  V30 1095 C 110.326 -1.68959 -1.57231 0
M  V30 1096 C 111.296 -0.530899 -1.57387 0
M  V30 1097 O 112.481 -0.761133 -1.74961 0
M  V30 1098 C 109.621 -1.7871 -2.95223 0
M  V30 1099 C 108.734 -3.06061 -3.04878 0
M  V30 1100 C 107.869 -3.06626 -4.33767 0
M  V30 1101 C 106.908 -4.28443 -4.37154 0
M  V30 1102 N 106.045 -4.26763 -5.5751 0
M  V30 1103 H 110.885 -2.6273 -1.40631 0
M  V30 1104 H 108.422 -1.30241 -0.683789 0
M  V30 1105 H 110.38 -1.82344 -3.75242 0
M  V30 1106 H 109.01 -0.883806 -3.10465 0
M  V30 1107 H 108.062 -3.11911 -2.17751 0
M  V30 1108 H 109.374 -3.96039 -3.0324 0
M  V30 1109 H 108.528 -3.08973 -5.22131 0
M  V30 1110 H 107.267 -2.14473 -4.3801 0
M  V30 1111 H 106.272 -4.2631 -3.47188 0
M  V30 1112 H 107.497 -5.2182 -4.34605 0
M  V30 1113 H 105.443 -3.37462 -5.62544 0
M  V30 1114 H 105.36 -5.10507 -5.57601 0
M  V30 1115 H 106.628 -4.33253 -6.48006 0
M  V30 1116 N 110.857 0.726932 -1.39834 0
M  V30 1117 C 111.804 1.841 -1.39197 0
M  V30 1118 C 112.774 1.642 -0.250502 0
M  V30 1119 O 113.959 1.85494 -0.446846 0
M  V30 1120 C 111.099 3.21697 -1.24919 0
M  V30 1121 C 110.212 3.53247 -2.48678 0
M  V30 1122 C 109.347 4.80289 -2.26928 0
M  V30 1123 C 108.386 5.04707 -3.4632 0
M  V30 1124 N 107.523 6.22956 -3.23836 0
M  V30 1125 H 112.363 1.83979 -2.34427 0
M  V30 1126 H 109.9 0.898876 -1.16442 0
M  V30 1127 H 111.858 4.01137 -1.1465 0
M  V30 1128 H 110.488 3.21076 -0.333153 0
M  V30 1129 H 109.54 2.68447 -2.69519 0
M  V30 1130 H 110.852 3.67205 -3.37582 0
M  V30 1131 H 110.006 5.67725 -2.13947 0
M  V30 1132 H 108.745 4.68519 -1.35431 0
M  V30 1133 H 107.75 4.1573 -3.5979 0
M  V30 1134 H 108.975 5.18357 -4.38729 0
M  V30 1135 H 106.921 6.12459 -2.35011 0
M  V30 1136 H 106.838 6.37539 -4.063 0
M  V30 1137 H 108.106 7.1321 -3.14566 0
M  V30 1138 N 112.336 1.25143 0.95797 0
M  V30 1139 C 113.266 1.07711 2.07173 0
M  V30 1140 C 114.247 -0.0128462 1.70095 0
M  V30 1141 O 115.432 0.156061 1.93572 0
M  V30 1142 C 112.562 0.691503 3.40346 0
M  V30 1143 C 111.516 1.73132 3.9142 0
M  V30 1144 C 110.842 1.20049 5.21049 0
M  V30 1145 C 112.142 3.1294 4.1817 0
M  V30 1146 H 113.836 2.00873 2.22014 0
M  V30 1147 H 111.382 0.967191 1.06684 0
M  V30 1148 H 113.335 0.556505 4.17709 0
M  V30 1149 H 112.059 -0.275819 3.25433 0
M  V30 1150 H 110.718 1.8547 3.16222 0
M  V30 1151 H 110.366 0.223499 5.02503 0
M  V30 1152 H 110.066 1.89545 5.56189 0
M  V30 1153 H 111.59 1.07782 6.01012 0
M  V30 1154 H 113.004 3.03775 4.86203 0
M  V30 1155 H 111.401 3.79875 4.64559 0
M  V30 1156 H 112.471 3.6025 3.24573 0
M  V30 1157 N 113.814 -1.1601 1.06675 0
M  V30 1158 C 114.744 -2.22688 0.702307 0
M  V30 1159 C 115.725 -1.67306 -0.307032 0
M  V30 1160 O 116.91 -1.93352 -0.181305 0
M  V30 1161 C 114.04 -3.47178 0.092038 0
M  V30 1162 C 112.994 -4.15477 1.02777 0
M  V30 1163 C 112.32 -5.33963 0.28061 0
M  V30 1164 C 113.62 -4.66019 2.35846 0
M  V30 1165 H 115.314 -2.53429 1.59419 0
M  V30 1166 H 112.86 -1.21813 0.767961 0
M  V30 1167 H 114.813 -4.21037 -0.174814 0
M  V30 1168 H 113.537 -3.15749 -0.834877 0
M  V30 1169 H 112.196 -3.43549 1.27944 0
M  V30 1170 H 111.844 -4.98788 -0.649545 0
M  V30 1171 H 111.544 -5.806 0.904258 0
M  V30 1172 H 113.068 -6.10596 0.021396 0
M  V30 1173 H 114.482 -5.3144 2.15045 0
M  V30 1174 H 112.879 -5.23293 2.93743 0
M  V30 1175 H 113.949 -3.82023 2.98641 0
M  V30 1176 N 115.292 -0.849877 -1.32721 0
M  V30 1177 C 116.202 -0.293791 -2.32753 0
M  V30 1178 C 117.218 0.585906 -1.63839 0
M  V30 1179 O 118.394 0.487413 -1.95413 0
M  V30 1180 C 115.459 0.512752 -3.42887 0
M  V30 1181 C 114.52 -0.39252 -4.27502 0
M  V30 1182 C 113.753 0.375625 -5.32377 0
M  V30 1183 O 113.976 1.60613 -5.4732 0
M  V30 1184 O 112.91 -0.256094 -6.01355 0
M  V30 1185 H 116.736 -1.12242 -2.82197 0
M  V30 1186 H 114.321 -0.612685 -1.36259 0
M  V30 1187 H 116.203 0.970704 -4.10067 0
M  V30 1188 H 114.878 1.31826 -2.95641 0
M  V30 1189 H 113.785 -0.898547 -3.63149 0
M  V30 1190 H 115.118 -1.16309 -4.7826 0
M  V30 1191 N 116.77 1.45427 -0.607355 0
M  V30 1192 C 117.733 2.28974 0.101693 0
M  V30 1193 C 118.733 1.39754 0.795329 0
M  V30 1194 O 119.923 1.61878 0.643527 0
M  V30 1195 C 117.055 3.20768 1.15414 0
M  V30 1196 H 118.248 2.93147 -0.632844 0
M  V30 1197 H 115.801 1.51945 -0.366391 0
M  V30 1198 H 116.536 2.61395 1.91945 0
M  V30 1199 H 116.321 3.86489 0.66098 0
M  V30 1200 H 117.811 3.83589 1.65073 0
M  V30 1201 N 118.248 0.346503 1.53744 0
M  V30 1202 C 119.494 -0.249473 2.0126 0
M  V30 1203 C 119.827 -1.49965 1.23386 0
M  V30 1204 O 119.102 -1.91811 0.32229 0
M  V30 1205 C 119.385 -0.560643 3.55709 0
M  V30 1206 C 119.238 0.701836 4.44291 0
M  V30 1207 C 120.557 -1.36905 4.18264 0
M  V30 1208 H 117.676 -0.0891987 0.731582 0
M  V30 1209 H 120.318 0.467624 1.84156 0
M  V30 1210 H 118.468 -1.17156 3.70414 0
M  V30 1211 H 120.14 1.33974 4.41417 0
M  V30 1212 H 118.383 1.32612 4.13033 0
M  V30 1213 H 119.054 0.43933 5.50249 0
M  V30 1214 H 121.53 -0.852448 4.07275 0
M  V30 1215 H 120.406 -1.55553 5.26398 0
M  V30 1216 H 120.667 -2.37203 3.73078 0
M  V30 1217 N 119.726 -1.57421 0.075193 0
M  V30 1218 C 120.673 -2.12915 -0.890843 0
M  V30 1219 C 121.643 -1.04252 -1.29309 0
M  V30 1220 O 122.828 -1.31933 -1.37834 0
M  V30 1221 C 119.968 -2.69795 -2.15186 0
M  V30 1222 C 119.081 -3.92624 -1.80194 0
M  V30 1223 C 118.216 -4.37736 -3.00933 0
M  V30 1224 C 117.255 -5.53205 -2.61974 0
M  V30 1225 N 116.392 -5.9326 -3.75483 0
M  V30 1226 H 121.232 -2.95156 -0.410735 0
M  V30 1227 H 118.769 -1.45854 -0.191086 0
M  V30 1228 H 120.727 -3.00883 -2.89008 0
M  V30 1229 H 119.357 -1.90313 -2.60731 0
M  V30 1230 H 118.409 -3.67977 -0.964218 0
M  V30 1231 H 119.721 -4.76482 -1.47534 0
M  V30 1232 H 118.875 -4.70503 -3.8303 0
M  V30 1233 H 117.614 -3.52739 -3.36789 0
M  V30 1234 H 116.619 -5.20086 -1.783 0
M  V30 1235 H 117.844 -6.39936 -2.27284 0
M  V30 1236 H 115.79 -5.11212 -4.11094 0
M  V30 1237 H 115.707 -6.71865 -3.46602 0
M  V30 1238 H 116.975 -6.30651 -4.58148 0
M  V30 1239 N 121.204 0.198386 -1.56346 0
M  V30 1240 C 122.114 1.2664 -1.97483 0
M  V30 1241 C 123.13 1.49989 -0.882002 0
M  V30 1242 O 124.306 1.62668 -1.18748 0
M  V30 1243 C 121.371 2.59141 -2.30319 0
M  V30 1244 C 120.432 2.43892 -3.53292 0
M  V30 1245 C 119.665 3.70074 -3.84553 0
M  V30 1246 O 119.888 4.74101 -3.1715 0
M  V30 1247 O 118.822 3.658 -4.7799 0
M  V30 1248 H 122.648 0.947304 -2.88548 0
M  V30 1249 H 120.233 0.403123 -1.43859 0
M  V30 1250 H 122.115 3.37352 -2.5253 0
M  V30 1251 H 120.79 2.90684 -1.42423 0
M  V30 1252 H 119.697 1.63803 -3.36332 0
M  V30 1253 H 121.03 2.17282 -4.41644 0
M  V30 1254 N 122.682 1.50554 0.465978 0
M  V30 1255 C 123.629 1.6979 1.56333 0
M  V30 1256 C 124.599 0.539239 1.57103 0
M  V30 1257 O 125.784 0.770401 1.74555 0
M  V30 1258 C 122.924 1.80273 2.94271 0
M  V30 1259 C 122.037 3.07674 3.0325 0
M  V30 1260 C 121.172 3.08922 4.32135 0
M  V30 1261 C 120.211 4.30755 4.34875 0
M  V30 1262 N 119.348 4.29714 5.55239 0
M  V30 1263 H 124.188 2.63472 1.39235 0
M  V30 1264 H 121.725 1.30602 0.676873 0
M  V30 1265 H 123.683 1.84332 3.74269 0
M  V30 1266 H 122.313 0.900258 3.09992 0
M  V30 1267 H 121.365 3.13062 2.16094 0
M  V30 1268 H 122.677 3.97642 3.01135 0
M  V30 1269 H 121.831 3.11738 5.20485 0
M  V30 1270 H 120.57 2.16792 4.36866 0
M  V30 1271 H 119.575 4.28146 3.44922 0
M  V30 1272 H 120.8 5.24117 4.31831 0
M  V30 1273 H 118.746 3.4044 5.60746 0
M  V30 1274 H 118.663 5.13456 5.54886 0
M  V30 1275 H 119.931 4.36683 6.457 0
M  V30 1276 N 124.16 -0.719506 1.40217 0
M  V30 1277 C 125.407 -1.47933 1.38283 0
M  V30 1278 C 125.735 -1.94493 -0.0161536 0
M  V30 1279 O 124.99 -1.68224 -0.999956 0
M  V30 1280 C 125.289 -2.72271 2.31524 0
M  V30 1281 C 124.955 -2.44496 3.78857 0
M  V30 1282 C 123.617 -2.36631 4.18998 0
M  V30 1283 C 125.969 -2.21104 4.71977 0
M  V30 1284 C 123.297 -2.03437 5.503 0
M  V30 1285 C 125.649 -1.89423 6.03574 0
M  V30 1286 C 124.313 -1.80038 6.42762 0
M  V30 1287 H 123.583 -0.541325 0.506012 0
M  V30 1288 H 126.23 -0.824502 1.72842 0
M  V30 1289 H 124.535 -3.42572 1.90137 0
M  V30 1290 H 126.232 -3.30348 2.27313 0
M  V30 1291 H 122.822 -2.51503 3.47051 0
M  V30 1292 H 127.006 -2.26139 4.41786 0
M  V30 1293 H 122.262 -1.94705 5.79569 0
M  V30 1294 H 126.436 -1.70336 6.75247 0
M  V30 1295 H 124.063 -1.54083 7.44421 0
M  V30 1296 N 125.638 -1.25649 -0.95132 0
M  V30 1297 C 126.886 -1.10375 -1.69298 0
M  V30 1298 C 127.207 0.355339 -1.91735 0
M  V30 1299 O 126.477 1.25188 -1.50681 0
M  V30 1300 H 125.057 -0.405461 -0.627384 0
M  V30 1301 H 127.719 -1.57823 -1.14358 0
M  V30 1302 H 126.815 -1.61465 -2.67087 0
M  V30 1303 N 127.117 1.15442 -1.07289 0
M  V30 1304 C 128.064 2.20161 -0.692653 0
M  V30 1305 C 129.034 1.63073 0.31564 0
M  V30 1306 O 130.219 1.89725 0.202235 0
M  V30 1307 C 127.359 3.44967 -0.0959509 0
M  V30 1308 C 126.472 4.16256 -1.15564 0
M  V30 1309 C 125.607 5.28609 -0.524011 0
M  V30 1310 C 124.646 5.91715 -1.56653 0
M  V30 1311 N 123.783 6.9554 -0.957531 0
M  V30 1312 H 128.623 2.52037 -1.59002 0
M  V30 1313 H 126.16 1.2378 -0.794798 0
M  V30 1314 H 128.118 4.16341 0.267628 0
M  V30 1315 H 126.748 3.1361 0.764772 0
M  V30 1316 H 125.8 3.43385 -1.6368 0
M  V30 1317 H 127.112 4.59268 -1.94613 0
M  V30 1318 H 126.266 6.06604 -0.108032 0
M  V30 1319 H 125.005 4.86787 0.29825 0
M  V30 1320 H 124.01 5.12433 -1.9923 0
M  V30 1321 H 125.235 6.35614 -2.39107 0
M  V30 1322 H 123.181 6.55814 -0.156162 0
M  V30 1323 H 123.098 7.36977 -1.68526 0
M  V30 1324 H 124.366 7.77435 -0.567032 0
M  V30 1325 N 128.595 0.856903 1.32268 0
M  V30 1326 C 129.525 0.31858 2.31316 0
M  V30 1327 C 130.506 -0.583487 1.59779 0
M  V30 1328 O 131.691 -0.503259 1.87566 0
M  V30 1329 C 128.821 -0.491979 3.43798 0
M  V30 1330 C 127.775 0.315849 4.26833 0
M  V30 1331 C 127.101 -0.619586 5.31098 0
M  V30 1332 C 128.401 1.54282 4.98993 0
M  V30 1333 H 130.095 1.14621 2.76591 0
M  V30 1334 H 127.641 0.552613 1.32974 0
M  V30 1335 H 129.594 -0.879012 4.1213 0
M  V30 1336 H 128.318 -1.35299 2.97257 0
M  V30 1337 H 126.977 0.684664 3.6015 0
M  V30 1338 H 126.625 -1.47751 4.8081 0
M  V30 1339 H 126.325 -0.0830621 5.87541 0
M  V30 1340 H 127.849 -1.00375 6.02293 0
M  V30 1341 H 129.263 1.22796 5.59995 0
M  V30 1342 H 127.66 2.01745 5.65172 0
M  V30 1343 H 128.73 2.30285 4.26728 0
M  V30 1344 N 130.073 -1.45103 0.615059 0
M  V30 1345 C 131.35 -1.95549 0.0448276 0
M  V30 1346 C 131.73 -1.55737 -1.4251 0
M  V30 1347 O 131.078 -0.823556 -2.13143 0
M  V30 1348 C 131.288 -3.48098 0.250785 0
M  V30 1349 C 132.636 -4.24384 0.135509 0
M  V30 1350 O 133.66 -3.55738 0.181299 0
M  V30 1351 O 132.519 -5.46493 0.0268878 0
M  V30 1352 H 129.613 -0.8264 -0.0314845 0
M  V30 1353 H 132.159 -1.55232 0.685642 0
M  V30 1354 H 130.931 -3.7007 1.27139 0
M  V30 1355 H 130.554 -3.95323 -0.424937 0
M  V30 1356 N 131.551 -0.354651 -1.53558 0
M  V30 1357 C 132.779 0.239515 -2.05509 0
M  V30 1358 C 133.194 1.4333 -1.2289 0
M  V30 1359 O 132.551 1.80538 -0.266899 0
M  V30 1360 C 132.602 0.643719 -3.55723 0
M  V30 1361 O 132.323 -0.502602 -4.35207 0
M  V30 1362 C 133.824 1.29743 -4.23889 0
M  V30 1363 H 131.044 0.0442697 -0.669538 0
M  V30 1364 H 133.588 -0.509856 -1.98042 0
M  V30 1365 H 131.743 1.34302 -3.63376 0
M  V30 1366 H 132.157 -0.178172 -5.24197 0
M  V30 1367 H 133.631 1.53091 -5.30346 0
M  V30 1368 H 134.108 2.25441 -3.76926 0
M  V30 1369 H 134.714 0.639865 -4.20459 0
M  V30 1370 N 133.029 1.57378 -0.0835403 0
M  V30 1371 C 134.275 1.94217 0.583733 0
M  V30 1372 C 134.608 0.964653 1.68547 0
M  V30 1373 O 133.883 -0.00422258 1.945 0
M  V30 1374 C 134.166 3.41253 1.14972 0
M  V30 1375 C 134.019 4.49768 0.0538277 0
M  V30 1376 C 135.338 3.89352 2.05166 0
M  V30 1377 H 132.457 0.706233 0.210724 0
M  V30 1378 H 135.099 1.89392 -0.1519 0
M  V30 1379 H 133.249 3.45496 1.77665 0
M  V30 1380 H 134.921 4.57641 -0.579851 0
M  V30 1381 H 133.164 4.29432 -0.614068 0
M  V30 1382 H 133.835 5.49817 0.490452 0
M  V30 1383 H 136.311 3.87189 1.52393 0
M  V30 1384 H 135.187 4.92822 2.41698 0
M  V30 1385 H 135.448 3.27973 2.96456 0
M  V30 1386 N 134.507 -0.190092 1.56449 0
M  V30 1387 C 135.753 -0.911052 1.81184 0
M  V30 1388 C 136.086 -1.82699 0.658396 0
M  V30 1389 O 135.361 -1.91491 -0.340775 0
M  V30 1390 C 135.644 -1.72297 3.16205 0
M  V30 1391 C 135.497 -0.831419 4.42049 0
M  V30 1392 C 136.816 -2.69454 3.47969 0
M  V30 1393 H 133.935 -0.32977 0.659106 0
M  V30 1394 H 136.577 -0.178169 1.89163 0
M  V30 1395 H 134.727 -2.34778 3.09534 0
M  V30 1396 H 136.399 -0.220929 4.60771 0
M  V30 1397 H 134.642 -0.138406 4.33579 0
M  V30 1398 H 135.313 -1.43461 5.33032 0
M  V30 1399 H 137.789 -2.17104 3.54972 0
M  V30 1400 H 136.665 -3.23342 4.43555 0
M  V30 1401 H 136.926 -3.48744 2.71717 0
M  V30 1402 N 135.985 -1.50799 -0.457987 0
M  V30 1403 C 136.933 -1.71162 -1.575 0
M  V30 1404 C 137.927 -0.577592 -1.59249 0
M  V30 1405 O 139.133 -0.758443 -1.63241 0
M  V30 1406 H 135.508 -0.540468 -0.522875 0
M  V30 1407 H 137.479 -2.64837 -1.37492 0
M  V30 1408 C 136.228 -1.83496 -2.95338 0
M  V30 1409 H 135.551 -2.70153 -2.94716 0
M  V30 1410 H 136.991 -2.01765 -3.72917 0
M  V30 1411 C 135.45 -0.589694 -3.31699 0
M  V30 1412 O 135.98 0.265163 -4.00824 0
M  V30 1413 N 134.186 -0.439845 -2.87252 0
M  V30 1414 H 133.733 -1.13655 -2.31172 0
M  V30 1415 H 133.691 0.392159 -3.11945 0
M  V30 1416 N 137.463 0.71206 -1.40597 0
M  V30 1417 C 138.426 1.80785 -1.40888 0
M  V30 1418 C 139.426 1.57937 -0.302103 0
M  V30 1419 O 140.616 1.64913 -0.561182 0
M  V30 1420 C 137.748 3.18927 -1.20409 0
M  V30 1421 H 138.941 1.81924 -2.38419 0
M  V30 1422 H 136.494 0.91805 -1.26497 0
M  V30 1423 H 137.229 3.23436 -0.236522 0
M  V30 1424 H 137.014 3.36911 -2.00582 0
M  V30 1425 H 138.504 3.98949 -1.23408 0
M  V30 1426 N 138.941 1.26152 0.944643 0
M  V30 1427 C 139.904 1.07474 2.0244 0
M  V30 1428 C 140.904 0.0242064 1.60782 0
M  V30 1429 O 142.094 0.267302 1.72137 0
M  V30 1430 C 139.226 0.633956 3.34953 0
M  V30 1431 H 140.419 2.03336 2.20442 0
M  V30 1432 H 137.972 1.087 1.12312 0
M  V30 1433 H 138.707 -0.326811 3.22649 0
M  V30 1434 H 138.492 1.39247 3.66542 0
M  V30 1435 H 139.982 0.52501 4.14287 0
M  V30 1436 N 140.419 -1.14872 1.07899 0
M  V30 1437 C 141.667 -1.85422 0.803941 0
M  V30 1438 C 141.988 -1.83051 -0.67211 0
M  V30 1439 O 141.258 -1.27532 -1.48703 0
M  V30 1440 H 139.838 -0.686537 0.294408 0
M  V30 1441 H 142.5 -1.39226 1.3639 0
M  V30 1442 H 141.596 -2.90399 1.14346 0
M  V30 1443 N 141.898 -0.863906 -1.31812 0
M  V30 1444 C 143.147 -0.46801 -1.96195 0
M  V30 1445 C 143.46 0.983474 -1.69077 0
M  V30 1446 O 144.666 1.48523 -2.27273 0
M  V30 1447 C 143.122 -0.785995 -3.51212 0
M  V30 1448 C 142.73 -2.25383 -3.87178 0
M  V30 1449 C 144.474 -0.458274 -4.22019 0
M  V30 1450 C 142.381 -2.51455 -5.3528 0
M  V30 1451 H 141.311 -0.171283 -0.734287 0
M  V30 1452 H 143.962 -1.05597 -1.50072 0
M  V30 1453 H 142.344 -0.127359 -3.95795 0
M  V30 1454 H 143.518 -2.95502 -3.53575 0
M  V30 1455 H 141.833 -2.54698 -3.2942 0
M  V30 1456 H 144.43 -0.630369 -5.30971 0
M  V30 1457 H 144.773 0.600834 -4.11941 0
M  V30 1458 H 145.306 -1.07319 -3.8305 0
M  V30 1459 H 142.045 -3.56025 -5.50387 0
M  V30 1460 H 141.565 -1.85923 -5.70257 0
M  V30 1461 H 143.244 -2.35874 -6.02472 0
M  V30 1462 N 143.376 1.44774 -0.622745 0
M  V30 1463 C 144.324 2.32387 0.0994683 0
M  V30 1464 C 145.318 1.46859 0.844326 0
M  V30 1465 O 146.524 1.63254 0.758174 0
M  V30 1466 H 142.899 0.750273 0.0509291 0
M  V30 1467 H 144.87 2.91062 -0.65767 0
M  V30 1468 C 143.619 3.30723 1.07319 0
M  V30 1469 H 142.942 3.96541 0.509462 0
M  V30 1470 H 144.382 3.94725 1.54817 0
M  V30 1471 C 142.841 2.59021 2.15429 0
M  V30 1472 O 143.371 2.38286 3.23393 0
M  V30 1473 N 141.577 2.189 1.91131 0
M  V30 1474 H 141.124 2.35964 1.03337 0
M  V30 1475 H 141.082 1.71251 2.63668 0
M  V30 1476 N 144.854 0.36279 1.53368 0
M  V30 1477 C 146.27 0.0116182 1.59596 0
M  V30 1478 C 146.47 -1.47012 1.37803 0
M  V30 1479 O 145.526 -2.23136 1.18181 0
M  V30 1480 C 146.839 0.465052 2.97082 0
M  V30 1481 C 148.387 0.419033 3.10182 0
M  V30 1482 C 148.862 0.848235 4.50077 0
M  V30 1483 N 150.353 0.803183 4.56183 0
M  V30 1484 C 151.088 1.107 5.62613 0
M  V30 1485 N 150.584 1.47996 6.76808 0
M  V30 1486 N 152.377 1.02998 5.52583 0
M  V30 1487 H 144.528 1.32775 1.65785 0
M  V30 1488 H 146.791 0.542518 0.777417 0
M  V30 1489 H 146.497 1.49892 3.18159 0
M  V30 1490 H 146.371 -0.149786 3.76902 0
M  V30 1491 H 148.758 -0.605696 2.88817 0
M  V30 1492 H 148.839 1.06933 2.32377 0
M  V30 1493 H 148.483 1.87107 4.7218 0
M  V30 1494 H 148.413 0.175218 5.26308 0
M  V30 1495 H 150.904 0.52838 3.74188 0
M  V30 1496 H 151.217 1.69613 7.53957 0
M  V30 1497 H 149.562 1.51859 6.78206 0
M  V30 1498 H 152.753 0.737817 4.62249 0
M  V30 1499 H 152.926 1.2701 6.35431 0
M  V30 1500 N 146.332 -1.57332 0.0918853 0
M  V30 1501 C 147.748 -1.57389 -0.264766 0
M  V30 1502 C 147.948 -1.10281 -1.68643 0
M  V30 1503 O 147.004 -0.777801 -2.40222 0
M  V30 1504 C 148.317 -3.00648 -0.0561195 0
M  V30 1505 C 149.865 -3.12754 -0.124116 0
M  V30 1506 C 150.34 -4.57965 0.0564972 0
M  V30 1507 N 151.831 -4.632 0.00155611 0
M  V30 1508 C 152.566 -5.73281 0.116598 0
M  V30 1509 N 152.062 -6.92208 0.286294 0
M  V30 1510 N 153.855 -5.6207 0.0580973 0
M  V30 1511 H 146.006 -1.86262 1.02079 0
M  V30 1512 H 148.269 -0.859579 0.399786 0
M  V30 1513 H 147.975 -3.393 0.925669 0
M  V30 1514 H 147.849 -3.68623 -0.799823 0
M  V30 1515 H 150.236 -2.73976 -1.09641 0
M  V30 1516 H 150.317 -2.47377 0.651024 0
M  V30 1517 H 149.961 -4.97436 1.02564 0
M  V30 1518 H 149.891 -5.21399 -0.738297 0
M  V30 1519 H 152.382 -3.77686 -0.127192 0
M  V30 1520 H 152.695 -7.71934 0.365676 0
M  V30 1521 H 151.04 -6.94254 0.32192 0
M  V30 1522 H 154.231 -4.68043 -0.0733204 0
M  V30 1523 H 154.404 -6.47824 0.151203 0
M  V30 1524 N 147.81 0.181792 -1.56548 0
M  V30 1525 C 148.76 1.22961 -1.92002 0
M  V30 1526 C 149.744 1.40331 -0.787146 0
M  V30 1527 O 150.936 1.42478 -1.05019 0
M  V30 1528 C 148.065 2.57144 -2.27446 0
M  V30 1529 C 147.151 2.43512 -3.47222 0
M  V30 1530 N 147.542 1.99577 -4.64761 0
M  V30 1531 C 145.84 2.74368 -3.51622 0
M  V30 1532 C 146.541 1.98156 -5.46909 0
M  V30 1533 N 145.517 2.40164 -4.8767 0
M  V30 1534 H 149.319 0.881462 -2.8037 0
M  V30 1535 H 146.833 0.390141 -1.57644 0
M  V30 1536 H 148.83 3.32847 -2.51035 0
M  V30 1537 H 147.49 2.92771 -1.40411 0
M  V30 1538 H 148.501 1.70078 -4.89177 0
M  V30 1539 H 145.178 3.14102 -2.75038 0
M  V30 1540 H 146.568 1.65975 -6.51077 0
M  V30 1541 N 149.288 1.51039 0.449983 0
M  V30 1542 C 150.699 1.557 1.03026 0
M  V30 1543 C 151.05 0.372939 1.92623 0
M  V30 1544 O 150.175 -0.511771 2.10261 0
M  V30 1545 C 150.77 2.82171 1.87523 0
M  V30 1546 C 149.329 2.89444 2.40622 0
M  V30 1547 C 148.476 2.50228 1.19504 0
M  V30 1548 H 151.427 1.56999 0.231745 0
M  V30 1549 H 151.448 2.65219 2.72835 0
M  V30 1550 H 150.96 3.68331 1.22286 0
M  V30 1551 H 149.061 2.07685 3.0935 0
M  V30 1552 H 149.174 3.92816 2.74285 0
M  V30 1553 H 147.538 2.03139 1.53644 0
M  V30 1554 H 148.321 3.38719 0.558972 0
M  V30 1555 N 150.766 -0.704594 1.40972 0
M  V30 1556 C 151.729 -1.80035 1.41845 0
M  V30 1557 C 152.729 -1.57774 0.310474 0
M  V30 1558 O 153.919 -1.64613 0.56992 0
M  V30 1559 C 151.051 -3.18284 1.22098 0
M  V30 1560 H 152.244 -1.80658 2.3938 0
M  V30 1561 H 149.797 -0.911329 1.26982 0
M  V30 1562 H 150.532 -3.23306 0.253672 0
M  V30 1563 H 150.317 -3.35843 2.02366 0
M  V30 1564 H 151.807 -3.98289 1.25522 0
M  V30 1565 N 152.244 -1.26651 -0.937939 0
M  V30 1566 C 153.154 -1.10276 -2.07066 0
M  V30 1567 C 154.17 -0.0354197 -1.73964 0
M  V30 1568 O 155.346 -0.239816 -1.99967 0
M  V30 1569 C 152.411 -0.740887 -3.38691 0
M  V30 1570 C 151.472 -1.88799 -3.85556 0
M  V30 1571 C 150.705 -1.54329 -5.10899 0
M  V30 1572 O 150.928 -0.446494 -5.6865 0
M  V30 1573 O 149.862 -2.37911 -5.52885 0
M  V30 1574 H 153.688 -2.05309 -2.23789 0
M  V30 1575 H 151.273 -1.05743 -1.0554 0
M  V30 1576 H 153.155 -0.55195 -4.1777 0
M  V30 1577 H 151.83 0.180022 -3.23199 0
M  V30 1578 H 150.737 -2.13191 -3.07409 0
M  V30 1579 H 152.07 -2.78874 -4.05574 0
M  V30 1580 N 153.722 1.14298 -1.08507 0
M  V30 1581 C 154.632 2.23027 -0.727753 0
M  V30 1582 C 155.648 1.71952 0.26619 0
M  V30 1583 O 156.824 2.011 0.109882 0
M  V30 1584 C 153.889 3.46403 -0.143541 0
M  V30 1585 C 152.95 4.12413 -1.19223 0
M  V30 1586 C 152.183 5.29899 -0.635798 0
M  V30 1587 O 152.406 5.67796 0.544393 0
M  V30 1588 O 151.34 5.85717 -1.38634 0
M  V30 1589 H 155.166 2.55945 -1.63481 0
M  V30 1590 H 152.751 1.22248 -0.858817 0
M  V30 1591 H 154.633 4.21018 0.179404 0
M  V30 1592 H 153.308 3.15206 0.736659 0
M  V30 1593 H 152.215 3.39667 -1.56772 0
M  V30 1594 H 153.548 4.47718 -2.04474 0
M  V30 1595 N 155.201 0.870884 1.31352 0
M  V30 1596 C 156.448 0.482273 1.96673 0
M  V30 1597 C 156.776 -0.965638 1.68836 0
M  V30 1598 O 156.031 -1.69514 0.977937 0
M  V30 1599 C 156.33 0.687157 3.50732 0
M  V30 1600 C 155.996 2.108 3.9859 0
M  V30 1601 C 154.658 2.49656 4.1137 0
M  V30 1602 C 157.01 3.03459 4.23748 0
M  V30 1603 C 154.338 3.80412 4.46659 0
M  V30 1604 C 156.69 4.3373 4.60501 0
M  V30 1605 C 155.354 4.725 4.71487 0
M  V30 1606 H 154.624 0.176476 0.719679 0
M  V30 1607 H 157.271 1.10405 1.56471 0
M  V30 1608 H 155.576 -0.0177476 3.91796 0
M  V30 1609 H 157.273 0.366284 3.99324 0
M  V30 1610 H 153.863 1.79633 3.8914 0
M  V30 1611 H 158.047 2.74665 4.13368 0
M  V30 1612 H 153.303 4.1021 4.53362 0
M  V30 1613 H 157.477 5.05578 4.78919 0
M  V30 1614 H 155.104 5.73859 4.98588 0
M  V30 1615 N 156.679 -1.44442 0.630414 0
M  V30 1616 C 158.09 -1.85434 0.217063 0
M  V30 1617 C 158.441 -1.52748 -1.23136 0
M  V30 1618 O 157.566 -0.965205 -1.93682 0
M  V30 1619 C 158.161 -3.36581 0.387168 0
M  V30 1620 C 156.72 -3.76389 0.0283297 0
M  V30 1621 C 155.867 -2.68296 0.700889 0
M  V30 1622 H 158.818 -1.34919 0.83562 0
M  V30 1623 H 158.839 -3.78657 -0.374086 0
M  V30 1624 H 158.351 -3.60339 1.44144 0
M  V30 1625 H 156.452 -3.58246 -1.02423 0
M  V30 1626 H 156.565 -4.77095 0.437892 0
M  V30 1627 H 154.929 -2.54335 0.136267 0
M  V30 1628 H 155.712 -2.94887 1.75774 0
M  V30 1629 N 158.157 -0.370918 -1.53173 0
M  V30 1630 C 159.087 0.464847 -2.28826 0
M  V30 1631 C 160.068 1.07936 -1.31468 0
M  V30 1632 O 161.253 1.0956 -1.60344 0
M  V30 1633 C 158.383 1.60196 -3.08147 0
M  V30 1634 C 157.337 1.11443 -4.13237 0
M  V30 1635 C 156.663 2.3422 -4.80672 0
M  V30 1636 C 157.963 0.195384 -5.21934 0
M  V30 1637 H 159.657 -0.166329 -2.98938 0
M  V30 1638 H 157.203 -0.0814359 -1.4377 0
M  V30 1639 H 159.156 2.19332 -3.59822 0
M  V30 1640 H 157.88 2.26045 -2.35735 0
M  V30 1641 H 156.539 0.545727 -3.62515 0
M  V30 1642 H 156.187 2.98537 -4.04827 0
M  V30 1643 H 155.887 2.02269 -5.51689 0
M  V30 1644 H 157.411 2.94032 -5.35143 0
M  V30 1645 H 158.825 0.694375 -5.69079 0
M  V30 1646 H 157.222 -0.0335027 -6.00091 0
M  V30 1647 H 158.292 -0.760961 -4.78892 0
M  V30 1648 N 159.635 1.57281 -0.100228 0
M  V30 1649 C 160.912 1.86014 0.604812 0
M  V30 1650 C 161.292 0.998025 1.86018 0
M  V30 1651 O 160.64 0.0718184 2.28387 0
M  V30 1652 C 160.85 3.36784 0.915278 0
M  V30 1653 C 162.198 4.04957 1.27651 0
M  V30 1654 O 163.222 3.41695 1.00613 0
M  V30 1655 O 162.081 5.16593 1.7831 0
M  V30 1656 H 159.175 0.76942 0.303185 0
M  V30 1657 H 161.721 1.69176 -0.133313 0
M  V30 1658 H 160.493 3.91292 0.0248896 0
M  V30 1659 H 160.116 3.58987 1.70921 0
M  V30 1660 N 161.113 -0.173488 1.56642 0
M  V30 1661 C 162.023 -1.23482 1.99473 0
M  V30 1662 C 163.039 -1.48567 0.905752 0
M  V30 1663 O 164.215 -1.60758 1.21321 0
M  V30 1664 C 161.28 -2.55444 2.34413 0
M  V30 1665 C 160.341 -2.38241 3.57127 0
M  V30 1666 C 159.574 -3.63909 3.90392 0
M  V30 1667 O 159.797 -4.68996 3.24653 0
M  V30 1668 O 158.731 -3.58149 4.83749 0
M  V30 1669 H 162.557 -0.901279 2.90018 0
M  V30 1670 H 160.142 -0.380185 1.44482 0
M  V30 1671 H 162.024 -3.33292 2.57865 0
M  V30 1672 H 160.699 -2.88382 1.4703 0
M  V30 1673 H 159.606 -1.58431 3.38896 0
M  V30 1674 H 160.939 -2.10228 4.45045 0
M  V30 1675 N 162.591 -1.51276 -0.441967 0
M  V30 1676 C 163.838 -1.63715 -1.19179 0
M  V30 1677 C 164.166 -0.351175 -1.91303 0
M  V30 1678 O 163.421 0.664524 -1.84072 0
M  V30 1679 C 163.72 -2.78746 -2.23686 0
M  V30 1680 C 163.386 -4.18189 -1.68607 0
M  V30 1681 C 162.048 -4.56125 -1.53308 0
M  V30 1682 C 164.4 -5.05222 -1.28062 0
M  V30 1683 C 161.728 -5.78804 -0.959317 0
M  V30 1684 C 164.08 -6.28476 -0.721162 0
M  V30 1685 C 162.744 -6.65188 -0.55504 0
M  V30 1686 H 162.014 -0.599076 -0.436106 0
M  V30 1687 H 164.661 -1.85296 -0.48351 0
M  V30 1688 H 162.966 -2.51369 -3.00535 0
M  V30 1689 H 164.663 -2.8557 -2.81515 0
M  V30 1690 H 161.253 -3.88277 -1.8149 0
M  V30 1691 H 165.437 -4.76524 -1.38704 0
M  V30 1692 H 160.693 -6.05899 -0.81833 0
M  V30 1693 H 164.867 -6.95259 -0.398458 0
M  V30 1694 H 162.494 -7.60123 -0.108311 0
M  V30 1695 N 164.069 0.697108 -1.41344 0
M  V30 1696 C 165.485 1.00751 -1.2378 0
M  V30 1697 C 165.685 2.01105 -0.126066 0
M  V30 1698 O 164.741 2.47295 0.51004 0
M  V30 1699 C 166.054 1.53359 -2.58653 0
M  V30 1700 C 167.602 1.6525 -2.65822 0
M  V30 1701 C 168.077 2.2126 -4.01009 0
M  V30 1702 N 169.568 2.28622 -4.02847 0
M  V30 1703 C 170.303 2.72984 -5.04249 0
M  V30 1704 N 169.799 3.16962 -6.16041 0
M  V30 1705 N 171.592 2.72534 -4.91611 0
M  V30 1706 H 163.743 0.0322662 -2.12375 0
M  V30 1707 H 166.006 0.0768853 -0.944877 0
M  V30 1708 H 165.712 0.870773 -3.4075 0
M  V30 1709 H 165.586 2.51597 -2.81032 0
M  V30 1710 H 167.973 2.30644 -1.84086 0
M  V30 1711 H 168.054 0.655614 -2.47256 0
M  V30 1712 H 167.698 1.56482 -4.83193 0
M  V30 1713 H 167.628 3.21698 -4.16915 0
M  V30 1714 H 170.119 1.97585 -3.22131 0
M  V30 1715 H 170.432 3.49434 -6.89287 0
M  V30 1716 H 168.777 3.14875 -6.1958 0
M  V30 1717 H 171.968 2.37525 -4.0336 0
M  V30 1718 H 172.141 3.06789 -5.70775 0
M  V30 1719 N 165.547 1.27147 0.931209 0
M  V30 1720 C 166.479 1.05364 2.03546 0
M  V30 1721 C 167.492 0.0108438 1.62796 0
M  V30 1722 O 168.681 0.25202 1.76712 0
M  V30 1723 C 165.781 0.575566 3.33977 0
M  V30 1724 C 164.954 1.68985 4.03439 0
M  V30 1725 C 164.013 1.20813 5.12143 0
M  V30 1726 O 163.039 1.90712 5.363 0
M  V30 1727 N 164.241 0.0618851 5.80467 0
M  V30 1728 H 167.006 2.00454 2.22796 0
M  V30 1729 H 164.567 1.18666 1.10136 0
M  V30 1730 H 166.559 0.237264 4.04004 0
M  V30 1731 H 165.129 -0.282016 3.11325 0
M  V30 1732 H 164.349 2.19861 3.27192 0
M  V30 1733 H 165.637 2.4378 4.46597 0
M  V30 1734 H 165.035 -0.521621 5.6329 0
M  V30 1735 H 163.592 -0.217264 6.51438 0
M  V30 1736 N 167.025 -1.13721 1.09112 0
M  V30 1737 C 168.271 -1.85198 0.826414 0
M  V30 1738 C 168.604 -1.83129 -0.646319 0
M  V30 1739 O 167.879 -1.2671 -1.47563 0
M  V30 1740 C 168.162 -3.33507 1.35812 0
M  V30 1741 C 168.015 -3.44108 2.89672 0
M  V30 1742 C 169.334 -4.28838 0.989256 0
M  V30 1743 H 166.453 -0.67243 0.301675 0
M  V30 1744 H 169.095 -1.33499 1.35197 0
M  V30 1745 H 167.245 -3.77666 0.911082 0
M  V30 1746 H 168.917 -3.08684 3.428 0
M  V30 1747 H 167.16 -2.85087 3.26967 0
M  V30 1748 H 167.831 -4.48388 3.21951 0
M  V30 1749 H 170.307 -3.92734 1.37475 0
M  V30 1750 H 169.183 -5.31051 1.38838 0
M  V30 1751 H 169.444 -4.4198 -0.102924 0
M  V30 1752 N 168.503 -0.877838 -1.30888 0
M  V30 1753 C 169.752 -0.488793 -1.95688 0
M  V30 1754 C 170.065 0.965485 -1.70111 0
M  V30 1755 O 171.271 1.46104 -2.28836 0
M  V30 1756 C 169.727 -0.823201 -3.50359 0
M  V30 1757 C 169.335 -2.29477 -3.84765 0
M  V30 1758 C 171.079 -0.503009 -4.21509 0
M  V30 1759 C 168.986 -2.57118 -5.32583 0
M  V30 1760 H 167.916 -0.179062 -0.732429 0
M  V30 1761 H 170.567 -1.07183 -1.48943 0
M  V30 1762 H 168.949 -0.169331 -3.95638 0
M  V30 1763 H 170.123 -2.99236 -3.5042 0
M  V30 1764 H 168.438 -2.58178 -3.267 0
M  V30 1765 H 171.035 -0.68665 -5.30273 0
M  V30 1766 H 171.378 0.557109 -4.12555 0
M  V30 1767 H 171.911 -1.11376 -3.8189 0
M  V30 1768 H 168.65 -3.61843 -5.4658 0
M  V30 1769 H 168.17 -1.91961 -5.68253 0
M  V30 1770 H 169.849 -2.42251 -5.99936 0
M  V30 1771 N 169.982 1.44106 -0.638065 0
M  V30 1772 C 170.892 2.34513 0.0637334 0
M  V30 1773 C 171.908 1.53018 0.828346 0
M  V30 1774 O 173.084 1.85723 0.779036 0
M  V30 1775 C 170.149 3.31095 1.02844 0
M  V30 1776 C 169.21 4.28497 0.26244 0
M  V30 1777 C 168.443 5.20465 1.1812 0
M  V30 1778 O 168.666 5.16514 2.42011 0
M  V30 1779 O 167.6 5.98251 0.661774 0
M  V30 1780 H 171.426 2.95989 -0.68003 0
M  V30 1781 H 169.011 1.43994 -0.398252 0
M  V30 1782 H 170.893 3.90526 1.58327 0
M  V30 1783 H 169.568 2.72144 1.7527 0
M  V30 1784 H 168.475 3.72592 -0.335602 0
M  V30 1785 H 169.808 4.90388 -0.421936 0
M  V30 1786 N 171.46 0.379036 1.52974 0
M  V30 1787 C 172.706 -0.206727 2.01744 0
M  V30 1788 C 173.039 -1.47314 1.26539 0
M  V30 1789 O 172.314 -1.91084 0.362903 0
M  V30 1790 C 172.597 -0.485066 3.56818 0
M  V30 1791 C 172.45 0.795919 4.42702 0
M  V30 1792 C 173.769 -1.28003 4.21074 0
M  V30 1793 H 170.888 -0.0736607 0.73331 0
M  V30 1794 H 173.53 0.506581 1.83122 0
M  V30 1795 H 171.68 -1.09272 3.72816 0
M  V30 1796 H 173.352 1.43307 4.38476 0
M  V30 1797 H 171.595 1.41344 4.10127 0
M  V30 1798 H 172.266 0.555947 5.49193 0
M  V30 1799 H 174.742 -0.765867 4.08991 0
M  V30 1800 H 173.618 -1.44352 5.29579 0
M  V30 1801 H 173.879 -2.29236 3.78026 0
M  V30 1802 N 172.938 -1.57226 0.108567 0
M  V30 1803 C 173.886 -2.16002 -0.862885 0
M  V30 1804 C 174.88 -1.10644 -1.28274 0
M  V30 1805 O 176.086 -1.28966 -1.2557 0
M  V30 1806 H 172.461 -0.691148 -0.296342 0
M  V30 1807 H 174.432 -2.96427 -0.342575 0
M  V30 1808 C 173.181 -2.76576 -2.10716 0
M  V30 1809 H 172.504 -3.5734 -1.793 0
M  V30 1810 H 173.944 -3.21253 -2.76717 0
M  V30 1811 C 172.403 -1.73137 -2.89007 0
M  V30 1812 O 172.933 -1.17842 -3.84026 0
M  V30 1813 N 171.139 -1.43317 -2.52801 0
M  V30 1814 H 170.686 -1.88473 -1.75601 0
M  V30 1815 H 170.644 -0.743485 -3.05483 0
M  V30 1816 N 174.416 0.165178 -1.56732 0
M  V30 1817 C 175.346 1.20651 -1.99914 0
M  V30 1818 C 176.327 1.45827 -0.875705 0
M  V30 1819 O 177.512 1.57057 -1.14223 0
M  V30 1820 C 174.642 2.54401 -2.36427 0
M  V30 1821 C 173.596 2.43782 -3.51787 0
M  V30 1822 C 172.922 3.82078 -3.7406 0
M  V30 1823 C 174.222 1.93732 -4.85041 0
M  V30 1824 H 175.916 0.847534 -2.87154 0
M  V30 1825 H 173.462 0.40625 -1.38151 0
M  V30 1826 H 175.415 3.27458 -2.65234 0
M  V30 1827 H 174.139 2.92098 -1.46103 0
M  V30 1828 H 172.798 1.73178 -3.23117 0
M  V30 1829 H 172.446 4.17179 -2.81017 0
M  V30 1830 H 172.146 3.7584 -4.51684 0
M  V30 1831 H 173.67 4.56712 -4.05274 0
M  V30 1832 H 175.084 2.56569 -5.12684 0
M  V30 1833 H 173.481 1.98428 -5.66345 0
M  V30 1834 H 174.551 0.891962 -4.76626 0
M  V30 1835 N 175.894 1.51508 0.433938 0
M  V30 1836 C 177.141 1.64345 1.18309 0
M  V30 1837 C 177.469 0.361315 1.91115 0
M  V30 1838 O 176.724 -0.654753 1.84422 0
M  V30 1839 C 177.023 2.79928 2.22205 0
M  V30 1840 C 176.689 4.19078 1.66387 0
M  V30 1841 C 175.351 4.56932 1.50887 0
M  V30 1842 C 177.703 5.05894 1.25381 0
M  V30 1843 C 175.031 5.79305 0.928608 0
M  V30 1844 C 177.383 6.2885 0.687823 0
M  V30 1845 C 176.047 6.65473 0.519755 0
M  V30 1846 H 175.317 0.601381 0.432923 0
M  V30 1847 H 177.964 1.85549 0.473676 0
M  V30 1848 H 176.269 2.52959 2.99197 0
M  V30 1849 H 177.966 2.87059 2.79997 0
M  V30 1850 H 174.556 3.89234 1.79428 0
M  V30 1851 H 178.74 4.77253 1.36175 0
M  V30 1852 H 173.996 6.06324 0.786186 0
M  V30 1853 H 178.17 6.95461 0.361581 0
M  V30 1854 H 175.797 7.6017 0.0679979 0
M  V30 1855 N 177.372 -0.689602 1.41712 0
M  V30 1856 C 178.62 -1.4468 1.4111 0
M  V30 1857 C 178.941 -1.94986 0.0232196 0
M  V30 1858 O 178.211 -1.72097 -0.935913 0
M  V30 1859 H 176.791 -0.536847 0.519427 0
M  V30 1860 H 179.453 -0.815825 1.77004 0
M  V30 1861 H 178.549 -2.30706 2.10193 0
M  V30 1862 N 178.85 -1.27639 -0.924453 0
M  V30 1863 C 180.078 -1.16989 -1.70649 0
M  V30 1864 C 180.493 0.272869 -1.86818 0
M  V30 1865 O 179.85 1.18549 -1.38753 0
M  V30 1866 C 179.901 -1.85229 -3.10439 0
M  V30 1867 O 179.622 -3.23868 -2.95028 0
M  V30 1868 C 181.123 -1.80746 -4.04779 0
M  V30 1869 H 178.343 -0.406595 -0.53378 0
M  V30 1870 H 180.887 -1.68569 -1.15778 0
M  V30 1871 H 179.042 -1.37545 -3.6216 0
M  V30 1872 H 179.456 -3.57889 -3.83426 0
M  V30 1873 H 180.93 -2.33101 -5.00368 0
M  V30 1874 H 181.407 -0.777499 -4.32263 0
M  V30 1875 H 182.013 -2.28059 -3.58984 0
M  V30 1876 N 180.328 1.1314 -1.09713 0
M  V30 1877 C 181.558 1.88048 -0.855656 0
M  V30 1878 C 181.966 1.79537 0.596919 0
M  V30 1879 O 181.309 1.16196 1.42282 0
M  V30 1880 C 181.371 3.38314 -1.21589 0
M  V30 1881 C 181.035 3.70605 -2.67397 0
M  V30 1882 C 182.032 3.69596 -3.65643 0
M  V30 1883 C 179.717 4.0017 -3.03593 0
M  V30 1884 C 181.711 3.977 -4.9811 0
M  V30 1885 C 179.398 4.27935 -4.36251 0
M  V30 1886 C 180.396 4.26685 -5.33318 0
M  V30 1887 O 180.084 4.53767 -6.63589 0
M  V30 1888 H 179.816 0.60208 -0.307368 0
M  V30 1889 H 182.37 1.44128 -1.46343 0
M  V30 1890 H 180.6 3.82752 -0.551177 0
M  V30 1891 H 182.289 3.94552 -0.953083 0
M  V30 1892 H 183.055 3.46826 -3.39023 0
M  V30 1893 H 178.934 4.00289 -2.2867 0
M  V30 1894 H 182.478 3.9664 -5.73866 0
M  V30 1895 H 178.375 4.50178 -4.62613 0
M  V30 1896 H 179.143 4.71422 -6.69107 0
M  V30 1897 N 181.806 0.884767 1.30421 0
M  V30 1898 C 183.036 0.517293 2.00019 0
M  V30 1899 C 183.444 -0.898632 1.66497 0
M  V30 1900 O 182.787 -1.60245 0.898181 0
M  V30 1901 C 182.849 0.612025 3.54252 0
M  V30 1902 C 182.513 1.99222 4.1129 0
M  V30 1903 C 183.51 2.9616 4.273 0
M  V30 1904 C 181.195 2.29755 4.46674 0
M  V30 1905 C 183.189 4.21764 4.77906 0
M  V30 1906 C 180.876 3.55606 4.96979 0
M  V30 1907 C 181.874 4.51425 5.12547 0
M  V30 1908 O 181.562 5.75043 5.61766 0
M  V30 1909 H 181.294 0.198529 0.64619 0
M  V30 1910 H 183.848 1.1919 1.67281 0
M  V30 1911 H 182.078 -0.119561 3.86515 0
M  V30 1912 H 183.767 0.255859 4.05093 0
M  V30 1913 H 184.533 2.73882 4.00267 0
M  V30 1914 H 180.412 1.55942 4.33824 0
M  V30 1915 H 183.956 4.96561 4.89972 0
M  V30 1916 H 179.853 3.7772 5.23448 0
M  V30 1917 H 180.621 5.77422 5.80109 0
M  V30 1918 N 183.284 -1.43765 0.645699 0
M  V30 1919 C 184.53 -2.02197 0.156271 0
M  V30 1920 C 184.863 -1.50776 -1.22393 0
M  V30 1921 O 184.138 -0.697771 -1.81553 0
M  V30 1922 C 184.421 -3.59749 0.158872 0
M  V30 1923 C 184.274 -4.21419 1.57245 0
M  V30 1924 C 185.593 -4.37149 -0.50879 0
M  V30 1925 H 182.712 -0.734694 0.0582602 0
M  V30 1926 H 185.354 -1.71157 0.824951 0
M  V30 1927 H 183.504 -3.86325 -0.410525 0
M  V30 1928 H 185.176 -4.059 2.19186 0
M  V30 1929 H 183.419 -3.78356 2.122 0
M  V30 1930 H 184.09 -5.30482 1.52619 0
M  V30 1931 H 186.566 -4.16093 -0.024412 0
M  V30 1932 H 185.442 -5.4683 -0.476213 0
M  V30 1933 H 185.703 -4.12839 -1.58165 0
M  V30 1934 N 184.763 -0.387143 -1.52771 0
M  V30 1935 C 186.003 0.195537 -2.03463 0
M  V30 1936 C 186.367 1.44222 -1.26744 0
M  V30 1937 O 187.568 2.10192 -1.67549 0
M  V30 1938 C 185.839 0.459097 -3.54439 0
M  V30 1939 S 187.398 1.01237 -4.26962 0
M  V30 1940 H 184.216 0.0552675 -0.708849 0
M  V30 1941 H 186.818 -0.534992 -1.88037 0
M  V30 1942 H 185.522 -0.455382 -4.07866 0
M  V30 1943 H 185.053 1.21811 -3.74066 0
M  V30 1944 H 187.068 2.29492 -4.39941 0
M  V30 1945 N 186.241 1.57166 -0.116904 0
M  V30 1946 C 187.657 1.5779 0.239693 0
M  V30 1947 C 187.857 1.1295 1.66867 0
M  V30 1948 O 186.913 0.81592 2.38954 0
M  V30 1949 C 188.226 3.00699 0.00828202 0
M  V30 1950 C 189.774 3.12912 0.0743438 0
M  V30 1951 C 190.249 4.57817 -0.129348 0
M  V30 1952 N 191.74 4.63139 -0.075247 0
M  V30 1953 C 192.475 5.73023 -0.207788 0
M  V30 1954 N 191.971 6.91665 -0.396382 0
M  V30 1955 N 193.764 5.61906 -0.14751 0
M  V30 1956 H 185.915 1.84615 -1.05029 0
M  V30 1957 H 188.178 0.85311 -0.41341 0
M  V30 1958 H 187.884 3.37784 -0.979531 0
M  V30 1959 H 187.758 3.69848 0.741077 0
M  V30 1960 H 190.145 2.75686 1.05268 0
M  V30 1961 H 190.226 2.4631 -0.690297 0
M  V30 1962 H 189.87 4.95742 -1.10465 0
M  V30 1963 H 189.8 5.22507 0.655253 0
M  V30 1964 H 192.291 3.7784 0.0670898 0
M  V30 1965 H 192.604 7.71255 -0.488437 0
M  V30 1966 H 190.949 6.93654 -0.432329 0
M  V30 1967 H 194.14 4.681 -0.00115036 0
M  V30 1968 H 194.313 6.47501 -0.254247 0
M  V30 1969 N 187.719 -0.156864 1.56817 0
M  V30 1970 C 188.629 -1.2136 2.00771 0
M  V30 1971 C 189.645 -1.47598 0.921459 0
M  V30 1972 O 190.821 -1.59462 1.2302 0
M  V30 1973 C 187.886 -2.52943 2.37109 0
M  V30 1974 C 186.947 -2.34439 3.59634 0
M  V30 1975 C 186.18 -3.59748 3.94229 0
M  V30 1976 O 186.403 -4.65526 3.29609 0
M  V30 1977 O 185.337 -3.52998 4.8752 0
M  V30 1978 H 189.163 -0.870468 2.90958 0
M  V30 1979 H 186.748 -0.36484 1.44877 0
M  V30 1980 H 188.63 -3.30538 2.61386 0
M  V30 1981 H 187.305 -2.86806 1.5008 0
M  V30 1982 H 186.212 -1.54828 3.40557 0
M  V30 1983 H 187.545 -2.05496 4.4725 0
M  V30 1984 N 189.197 -1.51736 -0.425897 0
M  V30 1985 C 190.16 -1.73271 -1.50032 0
M  V30 1986 C 191.16 -0.602639 -1.4908 0
M  V30 1987 O 192.35 -0.87033 -1.509 0
M  V30 1988 C 189.482 -1.79969 -2.89523 0
M  V30 1989 H 190.675 -2.69172 -1.32237 0
M  V30 1990 H 188.228 -1.41899 -0.65532 0
M  V30 1991 H 188.963 -0.859241 -3.1271 0
M  V30 1992 H 188.748 -2.62109 -2.91619 0
M  V30 1993 H 190.238 -1.9843 -3.67444 0
M  V30 1994 N 190.675 0.682077 -1.42076 0
M  V30 1995 C 191.922 1.44215 -1.42156 0
M  V30 1996 C 192.25 1.94468 -0.0354186 0
M  V30 1997 O 191.505 1.70816 0.955002 0
M  V30 1998 C 191.804 2.66036 -2.38662 0
M  V30 1999 C 191.47 2.34366 -3.85206 0
M  V30 2000 C 190.132 2.25439 -4.25124 0
M  V30 2001 C 192.484 2.08513 -4.77673 0
M  V30 2002 C 189.812 1.88775 -5.55501 0
M  V30 2003 C 192.164 1.73354 -6.08384 0
M  V30 2004 C 190.828 1.62933 -6.47309 0
M  V30 2005 H 190.098 0.527718 -0.520187 0
M  V30 2006 H 192.745 0.778387 -1.74967 0
M  V30 2007 H 191.05 3.3741 -1.99152 0
M  V30 2008 H 192.747 3.24205 -2.35991 0
M  V30 2009 H 189.337 2.42213 -3.53597 0
M  V30 2010 H 193.521 2.14346 -4.47626 0
M  V30 2011 H 188.777 1.7927 -5.84527 0
M  V30 2012 H 192.951 1.52373 -6.79526 0
M  V30 2013 H 190.578 1.34292 -7.48244 0
M  V30 2014 N 192.153 1.28127 0.917671 0
M  V30 2015 C 193.378 1.18007 1.70555 0
M  V30 2016 C 193.803 -0.258257 1.86319 0
M  V30 2017 O 193.161 -1.1869 1.37049 0
M  V30 2018 C 193.209 1.87948 3.07746 0
M  V30 2019 O 192.313 1.18427 3.9503 0
M  V30 2020 H 191.654 0.409867 0.522403 0
M  V30 2021 H 194.184 1.69379 1.1477 0
M  V30 2022 H 194.194 1.95701 3.58001 0
M  V30 2023 H 192.869 2.92573 2.95591 0
M  V30 2024 H 191.446 1.18811 3.53466 0
M  V30 2025 N 193.631 -1.12557 1.10312 0
M  V30 2026 C 194.561 -2.20341 0.772798 0
M  V30 2027 C 195.542 -1.68198 -0.25365 0
M  V30 2028 O 196.727 -1.93831 -0.119699 0
M  V30 2029 C 193.857 -3.46709 0.202443 0
M  V30 2030 C 192.811 -4.11996 1.15943 0
M  V30 2031 C 192.137 -5.328 0.450345 0
M  V30 2032 C 193.437 -4.5828 2.50552 0
M  V30 2033 H 195.131 -2.48229 1.674 0
M  V30 2034 H 192.677 -1.19308 0.806326 0
M  V30 2035 H 194.63 -4.2138 -0.0407752 0
M  V30 2036 H 193.354 -3.18245 -0.734001 0
M  V30 2037 H 192.013 -3.39305 1.38808 0
M  V30 2038 H 191.661 -5.00602 -0.490531 0
M  V30 2039 H 191.361 -5.7743 1.08851 0
M  V30 2040 H 192.885 -6.10219 0.215642 0
M  V30 2041 H 194.299 -5.2433 2.31843 0
M  V30 2042 H 192.696 -5.13683 3.10242 0
M  V30 2043 H 193.766 -3.72329 3.10643 0
M  V30 2044 N 195.109 -0.891671 -1.2995 0
M  V30 2045 C 196.039 -0.379797 -2.30391 0
M  V30 2046 C 197.02 0.540919 -1.6127 0
M  V30 2047 O 198.205 0.453352 -1.88834 0
M  V30 2048 C 195.335 0.400654 -3.44981 0
M  V30 2049 C 194.289 -0.428905 -4.25846 0
M  V30 2050 C 193.615 0.478557 -5.32554 0
M  V30 2051 C 194.915 -1.67458 -4.94727 0
M  V30 2052 H 196.609 -1.21914 -2.73454 0
M  V30 2053 H 194.155 -0.587675 -1.31462 0
M  V30 2054 H 196.108 0.769434 -4.14316 0
M  V30 2055 H 194.832 1.27371 -3.0074 0
M  V30 2056 H 193.491 -0.779911 -3.58208 0
M  V30 2057 H 193.139 1.34951 -4.84559 0
M  V30 2058 H 192.839 -0.0727433 -5.87555 0
M  V30 2059 H 194.363 0.843705 -6.04743 0
M  V30 2060 H 195.777 -1.376 -5.56542 0
M  V30 2061 H 194.174 -2.16659 -5.59624 0
M  V30 2062 H 195.244 -2.41518 -4.20473 0
M  V30 2063 N 196.587 1.43421 -0.653314 0
M  V30 2064 C 198.003 1.56341 -0.320886 0
M  V30 2065 C 198.203 1.63696 1.17499 0
M  V30 2066 O 197.259 1.59208 1.95982 0
M  V30 2067 C 198.572 2.82424 -1.03233 0
M  V30 2068 C 200.12 2.96168 -1.01259 0
M  V30 2069 C 200.595 4.25084 -1.70492 0
M  V30 2070 N 202.086 4.31948 -1.67257 0
M  V30 2071 C 202.821 5.30466 -2.17701 0
M  V30 2072 N 202.317 6.35261 -2.76434 0
M  V30 2073 N 204.11 5.2212 -2.082 0
M  V30 2074 H 196.261 1.3689 -1.62403 0
M  V30 2075 H 198.524 0.657455 -0.682977 0
M  V30 2076 H 198.23 2.83053 -2.08744 0
M  V30 2077 H 198.104 3.72653 -0.583948 0
M  V30 2078 H 200.491 2.9508 0.0341235 0
M  V30 2079 H 200.572 2.07229 -1.49966 0
M  V30 2080 H 200.216 4.26932 -2.7512 0
M  V30 2081 H 200.146 5.1292 -1.19251 0
M  V30 2082 H 202.637 3.56838 -1.24398 0
M  V30 2083 H 202.95 7.06754 -3.12601 0
M  V30 2084 H 201.295 6.35884 -2.80495 0
M  V30 2085 H 204.486 4.39166 -1.62021 0
M  V30 2086 H 204.659 5.98739 -2.47822 0
M  V30 2087 N 198.065 0.39524 1.52563 0
M  V30 2088 C 198.975 -0.444232 2.30356 0
M  V30 2089 C 199.991 -1.06615 1.37511 0
M  V30 2090 O 201.167 -1.07067 1.70583 0
M  V30 2091 C 198.232 -1.55315 3.09964 0
M  V30 2092 C 197.293 -0.955734 4.18526 0
M  V30 2093 C 196.526 -2.01181 4.9433 0
M  V30 2094 O 196.749 -3.22781 4.70285 0
M  V30 2095 O 195.683 -1.62579 5.79527 0
M  V30 2096 H 199.509 0.189667 3.03107 0
M  V30 2097 H 197.094 0.1588 1.48554 0
M  V30 2098 H 198.976 -2.19724 3.59582 0
M  V30 2099 H 197.651 -2.17191 2.4002 0
M  V30 2100 H 196.558 -0.274743 3.7309 0
M  V30 2101 H 197.891 -0.381109 4.90722 0
M  V30 2102 N 199.544 -1.57102 0.125237 0
M  V30 2103 C 200.769 -2.0019 -0.542101 0
M  V30 2104 C 201.194 -1.00449 -1.59034 0
M  V30 2105 O 200.552 0.0229423 -1.81285 0
M  V30 2106 C 200.6 -3.42129 -1.13929 0
M  V30 2107 O 199.704 -3.45307 -2.2547 0
M  V30 2108 H 199.045 -0.650171 -0.134812 0
M  V30 2109 H 201.575 -2.03461 0.215553 0
M  V30 2110 H 201.585 -3.80471 -1.4733 0
M  V30 2111 H 200.26 -4.14237 -0.371531 0
M  V30 2112 H 198.837 -3.1879 -1.93462 0
M  V30 2113 N 201.022 0.148545 -1.56898 0
M  V30 2114 C 202.299 0.890019 -1.74178 0
M  V30 2115 C 202.679 1.99407 -0.692839 0
M  V30 2116 O 202.027 2.26671 0.288505 0
M  V30 2117 C 202.237 1.43389 -3.18183 0
M  V30 2118 C 203.585 1.89791 -3.79822 0
M  V30 2119 O 204.609 1.53134 -3.21603 0
M  V30 2120 O 203.468 2.57387 -4.82093 0
M  V30 2121 H 200.562 0.420496 -0.712118 0
M  V30 2122 H 203.108 0.134591 -1.69165 0
M  V30 2123 H 201.88 0.640383 -3.86024 0
M  V30 2124 H 201.503 2.25287 -3.27615 0
M  V30 2125 N 202.5 1.5196 0.417844 0
M  V30 2126 C 203.448 1.75278 1.52907 0
M  V30 2127 C 204.442 0.619611 1.57662 0
M  V30 2128 O 205.648 0.801457 1.61173 0
M  V30 2129 H 202.023 0.554141 0.508362 0
M  V30 2130 H 203.994 2.68389 1.30422 0
M  V30 2131 C 202.743 1.91262 2.90369 0
M  V30 2132 H 202.066 2.77872 2.8745 0
M  V30 2133 H 203.506 2.11581 3.67436 0
M  V30 2134 C 201.965 0.677431 3.30019 0
M  V30 2135 O 202.495 -0.158799 4.01386 0
M  V30 2136 N 200.701 0.515851 2.85985 0
M  V30 2137 H 200.248 1.19744 2.28077 0
M  V30 2138 H 200.206 -0.309315 3.12875 0
M  V30 2139 N 203.978 -0.674533 1.42435 0
M  V30 2140 C 205.389 -1.25514 1.38214 0
M  V30 2141 C 205.74 -1.96055 0.0755464 0
M  V30 2142 O 204.865 -2.00028 -0.8257 0
M  V30 2143 C 205.46 -2.28269 2.50357 0
M  V30 2144 C 204.019 -2.81856 2.49467 0
M  V30 2145 C 203.166 -1.56182 2.29134 0
M  V30 2146 H 206.117 -0.467902 1.51646 0
M  V30 2147 H 206.138 -3.10009 2.20624 0
M  V30 2148 H 205.65 -1.769 3.45439 0
M  V30 2149 H 203.751 -3.37346 1.58204 0
M  V30 2150 H 203.864 -3.30854 3.46515 0
M  V30 2151 H 202.228 -1.82761 1.774 0
M  V30 2152 H 203.011 -1.06778 3.26272 0
M  V30 2153 N 205.456 -1.28612 -0.910864 0
M  V30 2154 C 206.681 -1.1891 -1.69927 0
M  V30 2155 C 207.106 0.248372 -1.86453 0
M  V30 2156 O 206.464 1.17961 -1.37676 0
M  V30 2157 C 206.512 -1.89578 -3.06745 0
M  V30 2158 O 205.616 -1.20521 -3.94396 0
M  V30 2159 H 204.957 -0.412632 -0.520222 0
M  V30 2160 H 207.487 -1.69985 -1.1387 0
M  V30 2161 H 207.497 -1.97597 -3.56958 0
M  V30 2162 H 206.172 -2.94136 -2.94035 0
M  V30 2163 H 204.749 -1.20684 -3.52831 0
M  V30 2164 N 206.934 1.1197 -1.10907 0
M  V30 2165 C 208.183 1.82947 -0.849302 0
M  V30 2166 C 208.496 1.85275 0.627112 0
M  V30 2167 O 209.702 2.52296 1.00295 0
M  V30 2168 C 208.158 3.28529 -1.46959 0
M  V30 2169 C 207.766 3.34546 -2.97965 0
M  V30 2170 C 209.51 4.04443 -1.28942 0
M  V30 2171 C 207.417 4.74491 -3.53004 0
M  V30 2172 H 206.347 0.685477 -0.314065 0
M  V30 2173 H 208.998 1.2604 -1.33365 0
M  V30 2174 H 207.38 3.85333 -0.912917 0
M  V30 2175 H 208.554 2.87654 -3.59989 0
M  V30 2176 H 206.869 2.72108 -3.15192 0
M  V30 2177 H 209.466 5.07787 -1.67502 0
M  V30 2178 H 209.809 4.15656 -0.231456 0
M  V30 2179 H 210.342 3.5401 -1.81443 0
M  V30 2180 H 207.081 4.68474 -4.58489 0
M  V30 2181 H 206.601 5.21816 -2.9575 0
M  V30 2182 H 208.28 5.4344 -3.51115 0
M  V30 2183 N 208.412 0.89855 1.29475 0
M  V30 2184 C 209.661 0.519863 1.94885 0
M  V30 2185 C 209.974 -0.9383 1.71625 0
M  V30 2186 O 211.18 -1.42445 2.31131 0
M  V30 2187 C 209.636 0.878836 3.49005 0
M  V30 2188 C 209.244 2.35569 3.81066 0
M  V30 2189 C 210.988 0.570004 4.20656 0
M  V30 2190 C 208.895 2.65558 5.28425 0
M  V30 2191 H 207.825 0.190692 0.729488 0
M  V30 2192 H 210.476 1.09539 1.47219 0
M  V30 2193 H 208.858 0.232253 3.95318 0
M  V30 2194 H 210.032 3.04773 3.45616 0
M  V30 2195 H 208.347 2.63343 3.22552 0
M  V30 2196 H 210.944 0.770925 5.29113 0
M  V30 2197 H 211.287 -0.491404 4.1339 0
M  V30 2198 H 211.82 1.17438 3.8007 0
M  V30 2199 H 208.559 3.70493 5.40754 0
M  V30 2200 H 208.079 2.00977 5.65127 0
M  V30 2201 H 209.758 2.51765 5.96006 0
M  V30 2202 N 209.89 -1.43072 0.660911 0
M  V30 2203 C 210.838 -2.32569 -0.0378199 0
M  V30 2204 C 211.832 -1.49046 -0.805092 0
M  V30 2205 O 213.038 -1.65206 -0.714624 0
M  V30 2206 H 209.413 -0.75136 -0.031019 0
M  V30 2207 H 211.384 -2.89216 0.734609 0
M  V30 2208 C 210.133 -3.33453 -0.985124 0
M  V30 2209 H 209.456 -3.97752 -0.404147 0
M  V30 2210 H 210.896 -3.98691 -1.44297 0
M  V30 2211 C 209.355 -2.64642 -2.08486 0
M  V30 2212 O 209.885 -2.46776 -3.16961 0
M  V30 2213 N 208.091 -2.23891 -1.8526 0
M  V30 2214 H 207.638 -2.38621 -0.970449 0
M  V30 2215 H 207.596 -1.78181 -2.59034 0
M  V30 2216 N 211.368 -0.403325 -1.52352 0
M  V30 2217 C 212.617 0.175668 -2.00934 0
M  V30 2218 C 212.93 1.46718 -1.29356 0
M  V30 2219 O 214.136 2.12708 -1.68724 0
M  V30 2220 C 212.592 0.363612 -3.58058 0
M  V30 2221 C 212.2 -0.915472 -4.38547 0
M  V30 2222 C 213.944 0.89821 -4.14888 0
M  V30 2223 C 211.851 -0.695035 -5.87302 0
M  V30 2224 H 210.781 0.0694234 -0.750797 0
M  V30 2225 H 213.432 -0.527879 -1.75743 0
M  V30 2226 H 211.814 1.12935 -3.79555 0
M  V30 2227 H 212.988 -1.68691 -4.28812 0
M  V30 2228 H 211.303 -1.37606 -3.93006 0
M  V30 2229 H 213.9 1.07907 -5.23699 0
M  V30 2230 H 214.243 1.87126 -3.71873 0
M  V30 2231 H 214.776 0.191681 -3.97338 0
M  V30 2232 H 211.515 -1.63948 -6.34666 0
M  V30 2233 H 211.035 0.0372116 -5.99788 0
M  V30 2234 H 212.714 -0.33497 -6.46132 0
M  V30 2235 N 212.846 1.57033 -0.133567 0
M  V30 2236 C 214.094 1.953 0.519848 0
M  V30 2237 C 214.415 1.01866 1.66278 0
M  V30 2238 O 213.685 0.0776513 1.95746 0
M  V30 2239 H 212.265 0.721091 0.195032 0
M  V30 2240 H 214.927 1.93809 -0.205921 0
M  V30 2241 H 214.023 2.98695 0.904854 0
M  V30 2242 N 214.325 -0.140222 1.56975 0
M  V30 2243 C 215.55 -0.870414 1.88251 0
M  V30 2244 C 215.975 -1.73637 0.723312 0
M  V30 2245 O 215.333 -1.78329 -0.32689 0
M  V30 2246 C 215.381 -1.69737 3.18154 0
M  V30 2247 O 214.485 -2.80229 3.02565 0
M  V30 2248 H 213.826 -0.242025 0.61832 0
M  V30 2249 H 216.356 -0.128999 2.04193 0
M  V30 2250 H 216.366 -2.09099 3.50345 0
M  V30 2251 H 215.041 -1.06152 4.02125 0
M  V30 2252 H 213.618 -2.44224 2.81796 0
M  V30 2253 N 215.803 -1.52179 -0.40978 0
M  V30 2254 C 216.733 -1.78435 -1.5061 0
M  V30 2255 C 217.714 -0.635295 -1.57791 0
M  V30 2256 O 218.899 -0.880823 -1.73076 0
M  V30 2257 C 216.029 -1.93444 -2.88439 0
M  V30 2258 C 214.983 -3.09038 -2.96108 0
M  V30 2259 C 214.309 -3.09268 -4.36185 0
M  V30 2260 C 215.609 -4.48508 -2.67652 0
M  V30 2261 H 217.303 -2.70237 -1.28889 0
M  V30 2262 H 214.849 -1.30036 -0.618605 0
M  V30 2263 H 216.802 -2.10394 -3.65119 0
M  V30 2264 H 215.526 -0.983129 -3.11452 0
M  V30 2265 H 214.185 -2.91837 -2.21872 0
M  V30 2266 H 213.833 -2.11861 -4.56206 0
M  V30 2267 H 213.533 -3.86907 -4.42241 0
M  V30 2268 H 215.057 -3.28348 -5.14801 0
M  V30 2269 H 216.471 -4.65918 -3.34056 0
M  V30 2270 H 214.868 -5.28059 -2.85085 0
M  V30 2271 H 215.938 -4.56649 -1.63095 0
M  V30 2272 N 217.281 0.66697 -1.42791 0
M  V30 2273 C 218.509 1.45505 -1.47091 0
M  V30 2274 C 218.924 1.8861 -0.0845873 0
M  V30 2275 O 218.281 1.58632 0.90234 0
M  V30 2276 C 218.332 2.69906 -2.40485 0
M  V30 2277 O 218.053 2.28608 -3.73725 0
M  V30 2278 C 219.554 3.63396 -2.53886 0
M  V30 2279 H 216.774 0.447459 -0.500022 0
M  V30 2280 H 219.318 0.818866 -1.8739 0
M  V30 2281 H 217.473 3.29696 -2.03419 0
M  V30 2282 H 217.887 3.08997 -4.23817 0
M  V30 2283 H 219.361 4.47387 -3.2334 0
M  V30 2284 H 219.838 4.09824 -1.57927 0
M  V30 2285 H 220.444 3.09495 -2.91706 0
M  V30 2286 N 218.759 1.29093 0.90403 0
M  V30 2287 C 220.005 1.16986 1.65656 0
M  V30 2288 C 220.338 -0.278925 1.92186 0
M  V30 2289 O 219.613 -1.2019 1.5292 0
M  V30 2290 C 219.896 1.97908 3.0084 0
M  V30 2291 C 219.749 3.50903 2.81403 0
M  V30 2292 C 221.068 1.80208 4.01513 0
M  V30 2293 H 218.187 0.426346 0.601164 0
M  V30 2294 H 220.829 1.58518 1.04747 0
M  V30 2295 H 218.979 1.62616 3.52829 0
M  V30 2296 H 220.651 3.96153 2.36348 0
M  V30 2297 H 218.894 3.76045 2.1627 0
M  V30 2298 H 219.565 4.02791 3.77443 0
M  V30 2299 H 222.041 2.11025 3.58619 0
M  V30 2300 H 220.917 2.39184 4.94047 0
M  V30 2301 H 221.178 0.756119 4.35586 0
M  V30 2302 N 220.237 -1.11381 1.11499 0
M  V30 2303 C 221.147 -2.21019 0.786628 0
M  V30 2304 C 222.163 -1.72597 -0.220507 0
M  V30 2305 O 223.339 -2.01321 -0.0565251 0
M  V30 2306 C 220.404 -3.459 0.235333 0
M  V30 2307 C 219.465 -4.09107 1.30115 0
M  V30 2308 C 218.698 -5.28027 0.776068 0
M  V30 2309 O 218.921 -5.6904 -0.393661 0
M  V30 2310 O 217.855 -5.81835 1.54114 0
M  V30 2311 H 221.681 -2.51521 1.70209 0
M  V30 2312 H 219.266 -1.19928 0.890928 0
M  V30 2313 H 221.148 -4.21346 -0.067715 0
M  V30 2314 H 219.823 -3.17049 -0.652828 0
M  V30 2315 H 218.73 -3.35391 1.65722 0
M  V30 2316 H 220.063 -4.42139 2.16273 0
M  V30 2317 N 221.715 -0.905404 -1.28997 0
M  V30 2318 C 222.625 -0.392246 -2.31298 0
M  V30 2319 C 223.641 0.515889 -1.66176 0
M  V30 2320 O 224.817 0.404093 -1.97304 0
M  V30 2321 C 221.882 0.36686 -3.44754 0
M  V30 2322 C 220.943 -0.573485 -4.25452 0
M  V30 2323 C 220.176 0.149488 -5.33491 0
M  V30 2324 O 220.399 1.37255 -5.5364 0
M  V30 2325 O 219.333 -0.510919 -5.99728 0
M  V30 2326 H 223.159 -1.2411 -2.77183 0
M  V30 2327 H 220.744 -0.669926 -1.33538 0
M  V30 2328 H 222.626 0.795907 -4.13816 0
M  V30 2329 H 221.301 1.19169 -3.00966 0
M  V30 2330 H 220.208 -1.05176 -3.59011 0
M  V30 2331 H 221.541 -1.36489 -4.72897 0
M  V30 2332 N 223.193 1.4272 -0.668489 0
M  V30 2333 C 224.439 2.01923 -0.188419 0
M  V30 2334 C 224.772 1.52704 1.19979 0
M  V30 2335 O 224.047 0.726566 1.8042 0
M  V30 2336 C 224.33 3.59451 -0.216085 0
M  V30 2337 C 224.183 4.18864 -1.6393 0
M  V30 2338 C 225.502 4.37903 0.439179 0
M  V30 2339 H 222.621 0.733674 -0.0699412 0
M  V30 2340 H 225.263 1.69822 -0.852076 0
M  V30 2341 H 223.413 3.86929 0.349012 0
M  V30 2342 H 225.085 4.02362 -2.25616 0
M  V30 2343 H 223.328 3.74933 -2.18193 0
M  V30 2344 H 223.999 5.27987 -1.61039 0
M  V30 2345 H 226.475 4.16079 -0.0417878 0
M  V30 2346 H 225.351 5.47519 0.389157 0
M  V30 2347 H 225.612 4.15303 1.51577 0
M  V30 2348 N 224.671 0.411399 1.52136 0
M  V30 2349 C 225.899 -0.163076 2.06256 0
M  V30 2350 C 226.314 -1.3867 1.28125 0
M  V30 2351 O 225.671 -1.79423 0.333721 0
M  V30 2352 C 225.722 -0.511252 3.57867 0
M  V30 2353 O 225.443 0.66378 4.33042 0
M  V30 2354 C 226.944 -1.13921 4.28412 0
M  V30 2355 H 224.164 -0.0193897 0.67072 0
M  V30 2356 H 226.708 0.583007 1.96013 0
M  V30 2357 H 224.863 -1.20723 3.6811 0
M  V30 2358 H 225.277 0.372601 5.23175 0
M  V30 2359 H 226.751 -1.33302 5.35663 0
M  V30 2360 H 227.228 -2.11296 3.85033 0
M  V30 2361 H 227.834 -0.483373 4.22544 0
M  V30 2362 N 226.149 -1.5696 0.141893 0
M  V30 2363 C 227.082 -2.12271 -0.837627 0
M  V30 2364 C 228.06 -1.04495 -1.24578 0
M  V30 2365 O 229.244 -1.32293 -1.34278 0
M  V30 2366 C 226.371 -2.63822 -2.12404 0
M  V30 2367 C 225.417 -3.83698 -1.86221 0
M  V30 2368 S 226.25 -5.24948 -1.05781 0
M  V30 2369 C 227.406 -5.79884 -2.35552 0
M  V30 2370 H 227.639 -2.95023 -0.367249 0
M  V30 2371 H 225.172 -1.54231 -0.0723014 0
M  V30 2372 H 227.13 -2.94175 -2.86307 0
M  V30 2373 H 225.791 -1.8121 -2.56557 0
M  V30 2374 H 224.984 -4.17995 -2.81596 0
M  V30 2375 H 224.586 -3.5408 -1.20429 0
M  V30 2376 H 226.878 -5.91005 -3.31239 0
M  V30 2377 H 227.821 -6.77544 -2.05767 0
M  V30 2378 H 228.229 -5.08095 -2.45967 0
M  V30 2379 N 227.627 0.131896 -1.57047 0
M  V30 2380 C 229.038 0.690407 -1.73465 0
M  V30 2381 C 229.389 1.8094 -0.758629 0
M  V30 2382 O 228.514 2.16282 0.0713813 0
M  V30 2383 C 229.109 1.25916 -3.14532 0
M  V30 2384 C 227.668 1.76409 -3.32501 0
M  V30 2385 C 226.815 0.658579 -2.69366 0
M  V30 2386 H 229.766 -0.0939144 -1.58422 0
M  V30 2387 H 229.787 2.12892 -3.15369 0
M  V30 2388 H 229.299 0.444515 -3.85546 0
M  V30 2389 H 227.4 2.60391 -2.66509 0
M  V30 2390 H 227.513 1.88241 -4.4057 0
M  V30 2391 H 225.877 1.08899 -2.30246 0
M  V30 2392 H 226.66 -0.14487 -3.42994 0
M  V30 2393 N 229.106 1.52395 0.401703 0
M  V30 2394 C 230.054 1.7689 1.51039 0
M  V30 2395 C 231.048 0.636298 1.56996 0
M  V30 2396 O 232.254 0.818507 1.60314 0
M  V30 2397 H 228.629 0.559502 0.502456 0
M  V30 2398 H 230.6 2.69757 1.27568 0
M  V30 2399 C 229.349 1.94331 2.88324 0
M  V30 2400 H 228.672 2.80905 2.84486 0
M  V30 2401 H 230.112 2.15466 3.65172 0
M  V30 2402 C 228.571 0.712396 3.29282 0
M  V30 2403 O 229.101 -0.116218 4.01532 0
M  V30 2404 N 227.307 0.546154 2.85422 0
M  V30 2405 H 226.854 1.22156 2.26794 0
M  V30 2406 H 226.812 -0.276113 3.13185 0
M  V30 2407 N 230.584 -0.659388 1.43143 0
M  V30 2408 C 231.833 -1.41518 1.43721 0
M  V30 2409 C 232.146 -1.95499 0.0628176 0
M  V30 2410 O 233.352 -2.71446 -0.0539683 0
M  V30 2411 C 231.808 -2.5608 2.52885 0
M  V30 2412 C 231.416 -2.08733 3.96402 0
M  V30 2413 C 233.16 -3.3349 2.62649 0
M  V30 2414 C 231.067 -3.20469 4.97045 0
M  V30 2415 H 229.997 -0.531705 0.534608 0
M  V30 2416 H 232.648 -0.712343 1.69109 0
M  V30 2417 H 231.03 -3.28805 2.20688 0
M  V30 2418 H 232.204 -1.43059 4.3803 0
M  V30 2419 H 230.519 -1.44219 3.90627 0
M  V30 2420 H 233.116 -4.16734 3.35017 0
M  V30 2421 H 233.459 -3.8111 1.67513 0
M  V30 2422 H 233.992 -2.67842 2.94118 0
M  V30 2423 H 230.731 -2.77824 5.93712 0
M  V30 2424 H 230.251 -3.84874 4.60034 0
M  V30 2425 H 231.93 -3.85698 5.19467 0
M  V30 2426 N 232.062 -1.29571 -0.897171 0
M  V30 2427 C 233.287 -1.20705 -1.68656 0
M  V30 2428 C 233.712 0.228582 -1.86706 0
M  V30 2429 O 233.07 1.16494 -1.3892 0
M  V30 2430 C 233.118 -1.9282 -3.04717 0
M  V30 2431 O 232.222 -1.24697 -3.93096 0
M  V30 2432 H 231.563 -0.418126 -0.515816 0
M  V30 2433 H 234.093 -1.71183 -1.12061 0
M  V30 2434 H 234.103 -2.01372 -3.54843 0
M  V30 2435 H 232.778 -2.97239 -2.90899 0
M  V30 2436 H 231.355 -1.2442 -3.51531 0
M  V30 2437 N 233.54 1.10788 -1.12088 0
M  V30 2438 C 234.503 2.15207 -0.788577 0
M  V30 2439 C 235.503 1.59609 0.195317 0
M  V30 2440 O 236.693 1.74174 -0.0300193 0
M  V30 2441 C 233.825 3.4047 -0.171174 0
M  V30 2442 H 235.018 2.46116 -1.71368 0
M  V30 2443 H 232.571 1.26089 -0.923652 0
M  V30 2444 H 233.306 3.15176 0.763832 0
M  V30 2445 H 233.091 3.82109 -0.879514 0
M  V30 2446 H 234.581 4.17576 0.04496 0
M  V30 2447 N 235.018 0.912232 1.28515 0
M  V30 2448 C 236.248 0.559604 1.98877 0
M  V30 2449 C 236.656 -0.863113 1.68366 0
M  V30 2450 O 235.999 -1.58304 0.931969 0
M  V30 2451 C 236.061 0.68703 3.52874 0
M  V30 2452 C 235.725 2.07901 4.06972 0
M  V30 2453 C 236.722 3.05157 4.20922 0
M  V30 2454 C 234.407 2.39178 4.417 0
M  V30 2455 C 236.401 4.31806 4.68852 0
M  V30 2456 C 234.088 3.66068 4.89324 0
M  V30 2457 C 235.086 4.62195 5.02856 0
M  V30 2458 O 234.774 5.86829 5.49442 0
M  V30 2459 H 234.506 0.212191 0.641834 0
M  V30 2460 H 237.06 1.22712 1.64715 0
M  V30 2461 H 235.29 -0.0375486 3.86682 0
M  V30 2462 H 236.979 0.341727 4.04459 0
M  V30 2463 H 237.745 2.82311 3.94367 0
M  V30 2464 H 233.624 1.65109 4.30418 0
M  V30 2465 H 237.168 5.06842 4.79329 0
M  V30 2466 H 233.065 3.88739 5.15318 0
M  V30 2467 H 233.833 5.89597 5.6773 0
M  V30 2468 N 236.496 -1.42363 0.676048 0
M  V30 2469 C 237.459 -2.29199 0.00766941 0
M  V30 2470 C 238.459 -1.43389 -0.727745 0
M  V30 2471 O 239.649 -1.64764 -0.56556 0
M  V30 2472 C 236.781 -3.2591 -0.999785 0
M  V30 2473 H 237.974 -2.89794 0.771988 0
M  V30 2474 H 235.527 -1.50024 0.438468 0
M  V30 2475 H 236.262 -2.70256 -1.79255 0
M  V30 2476 H 236.047 -3.89202 -0.475829 0
M  V30 2477 H 237.537 -3.91028 -1.46583 0
M  V30 2478 N 237.974 -0.419461 -1.51915 0
M  V30 2479 C 238.937 0.389116 -2.25873 0
M  V30 2480 C 239.937 0.964924 -1.28631 0
M  V30 2481 O 241.127 0.842179 -1.52489 0
M  V30 2482 C 238.259 1.54874 -3.03689 0
M  V30 2483 H 239.452 -0.258799 -2.98781 0
M  V30 2484 H 237.005 -0.172209 -1.55348 0
M  V30 2485 H 237.74 2.23323 -2.35154 0
M  V30 2486 H 237.525 1.14223 -3.75094 0
M  V30 2487 H 239.015 2.12046 -3.59759 0
M  V30 2488 N 239.452 1.56882 -0.150215 0
M  V30 2489 C 240.677 2.01027 0.510184 0
M  V30 2490 C 241.102 1.02966 1.57415 0
M  V30 2491 O 240.46 0.00590158 1.81299 0
M  V30 2492 C 240.508 3.43899 1.08472 0
M  V30 2493 O 239.612 3.4885 2.19948 0
M  V30 2494 H 238.953 0.652233 0.124451 0
M  V30 2495 H 241.483 2.03093 -0.247894 0
M  V30 2496 H 241.493 3.82766 1.41259 0
M  V30 2497 H 240.168 4.14776 0.305582 0
M  V30 2498 H 238.745 3.21827 1.88366 0
M  V30 2499 N 240.93 -0.123565 1.57115 0
M  V30 2500 C 241.877 -1.15177 2.00007 0
M  V30 2501 C 242.847 -1.41403 0.871454 0
M  V30 2502 O 244.032 -1.53346 1.13533 0
M  V30 2503 C 241.172 -2.47436 2.40561 0
M  V30 2504 C 240.285 -2.28184 3.66819 0
M  V30 2505 C 239.42 -3.53641 3.96373 0
M  V30 2506 C 238.459 -3.29528 5.15827 0
M  V30 2507 N 237.596 -4.47175 5.41275 0
M  V30 2508 H 242.436 -0.779008 2.87638 0
M  V30 2509 H 239.973 -0.373166 1.42288 0
M  V30 2510 H 241.931 -3.24584 2.62109 0
M  V30 2511 H 240.561 -2.82614 1.55978 0
M  V30 2512 H 239.613 -1.41976 3.52912 0
M  V30 2513 H 240.925 -2.0634 4.5412 0
M  V30 2514 H 240.079 -4.39209 4.18545 0
M  V30 2515 H 238.818 -3.78512 3.07538 0
M  V30 2516 H 237.823 -2.42349 4.93505 0
M  V30 2517 H 239.048 -3.06031 6.06236 0
M  V30 2518 H 236.994 -4.72175 4.55397 0
M  V30 2519 H 236.911 -4.28419 6.22891 0
M  V30 2520 H 238.179 -5.3389 5.67963 0
M  V30 2521 N 242.408 -1.52605 -0.393616 0
M  V30 2522 C 243.656 -1.67093 -1.13685 0
M  V30 2523 C 243.977 -0.411011 -1.90619 0
M  V30 2524 O 243.247 0.574491 -1.87287 0
M  V30 2525 H 241.827 -0.615923 -0.422668 0
M  V30 2526 H 244.489 -1.89704 -0.447039 0
M  V30 2527 H 243.585 -2.51922 -1.84232 0
M  V30 2528 N 243.887 0.651787 -1.4349 0
M  V30 2529 C 245.135 1.40888 -1.44897 0
M  V30 2530 C 245.456 1.94856 -0.0749086 0
M  V30 2531 O 244.726 1.74518 0.889956 0
M  V30 2532 H 243.306 0.522887 -0.533478 0
M  V30 2533 H 245.968 0.768609 -1.79104 0
M  V30 2534 H 245.064 2.25052 -2.16236 0
M  V30 2535 N 245.365 1.30045 0.890287 0
M  V30 2536 C 246.611 1.18737 1.64406 0
M  V30 2537 C 246.944 -0.258525 1.92472 0
M  V30 2538 O 246.219 -1.18562 1.54186 0
M  V30 2539 C 246.502 2.01087 2.98724 0
M  V30 2540 C 246.355 3.53867 2.77665 0
M  V30 2541 C 247.674 1.84457 3.9958 0
M  V30 2542 H 244.793 0.432698 0.596608 0
M  V30 2543 H 247.435 1.5962 1.0306 0
M  V30 2544 H 245.585 1.66349 3.51084 0
M  V30 2545 H 247.257 3.98637 2.32133 0
M  V30 2546 H 245.5 3.78318 2.12269 0
M  V30 2547 H 246.171 4.06772 3.7315 0
M  V30 2548 H 248.647 2.14817 3.56361 0
M  V30 2549 H 247.523 2.44411 4.91482 0
M  V30 2550 H 247.784 0.802276 4.3476 0
M  V30 2551 N 246.843 -1.10192 1.12674 0
M  V30 2552 C 247.806 -2.14786 0.799979 0
M  V30 2553 C 248.806 -1.59711 -0.18685 0
M  V30 2554 O 249.996 -1.74156 0.0392558 0
M  V30 2555 C 247.128 -3.40374 0.189228 0
M  V30 2556 H 248.321 -2.45203 1.72671 0
M  V30 2557 H 245.874 -1.25597 0.930326 0
M  V30 2558 H 246.609 -3.15577 -0.747107 0
M  V30 2559 H 246.394 -3.81637 0.899766 0
M  V30 2560 H 247.884 -4.17594 -0.0228143 0
M  V30 2561 N 248.321 -0.919034 -1.28029 0
M  V30 2562 C 249.546 -0.570357 -1.99403 0
M  V30 2563 C 249.971 0.842486 -1.68178 0
M  V30 2564 O 249.329 1.56391 -0.917141 0
M  V30 2565 C 249.377 -0.792541 -3.51783 0
M  V30 2566 O 248.481 0.145988 -4.12142 0
M  V30 2567 H 247.822 -0.220555 -0.6263 0
M  V30 2568 H 250.352 -1.23592 -1.63053 0
M  V30 2569 H 250.362 -0.704708 -4.01868 0
M  V30 2570 H 249.037 -1.82247 -3.73844 0
M  V30 2571 H 247.614 0.00897528 -3.72899 0
M  V30 2572 N 249.799 1.42003 -0.683588 0
M  V30 2573 C 250.729 2.33487 -0.024866 0
M  V30 2574 C 251.71 1.51163 0.779975 0
M  V30 2575 O 252.895 1.79739 0.735362 0
M  V30 2576 C 250.025 3.3487 0.920836 0
M  V30 2577 C 248.979 4.27414 0.223958 0
M  V30 2578 C 248.305 5.19074 1.2832 0
M  V30 2579 C 249.605 5.14445 -0.90242 0
M  V30 2580 H 251.299 2.88819 -0.788921 0
M  V30 2581 H 248.845 1.38873 -0.38083 0
M  V30 2582 H 250.798 3.97787 1.39081 0
M  V30 2583 H 249.522 2.77861 1.71642 0
M  V30 2584 H 248.181 3.65904 -0.225864 0
M  V30 2585 H 247.829 4.58387 2.071 0
M  V30 2586 H 247.529 5.81822 0.821995 0
M  V30 2587 H 249.053 5.84867 1.75392 0
M  V30 2588 H 250.467 5.70998 -0.513272 0
M  V30 2589 H 248.864 5.86072 -1.28997 0
M  V30 2590 H 249.934 4.52322 -1.74737 0
M  V30 2591 N 251.277 0.427512 1.51691 0
M  V30 2592 C 252.505 -0.141191 2.06418 0
M  V30 2593 C 252.92 -1.37303 1.29589 0
M  V30 2594 O 252.277 -1.79059 0.352732 0
M  V30 2595 C 252.328 -0.473266 3.58389 0
M  V30 2596 O 252.049 0.709673 4.32314 0
M  V30 2597 C 253.55 -1.09371 4.29596 0
M  V30 2598 H 250.77 -0.0122747 0.670888 0
M  V30 2599 H 253.314 0.603764 1.95384 0
M  V30 2600 H 251.469 -1.16812 3.69369 0
M  V30 2601 H 251.883 0.42807 5.2275 0
M  V30 2602 H 253.357 -1.27613 5.37046 0
M  V30 2603 H 253.834 -2.072 3.87253 0
M  V30 2604 H 254.44 -0.43853 4.23033 0
M  V30 2605 N 252.755 -1.56801 0.158532 0
M  V30 2606 C 253.702 -2.17337 -0.776729 0
M  V30 2607 C 254.672 -1.1096 -1.23601 0
M  V30 2608 O 255.857 -1.39054 -1.30647 0
M  V30 2609 C 252.997 -2.80822 -2.00582 0
M  V30 2610 C 252.11 -4.01624 -1.59129 0
M  V30 2611 C 251.245 -4.53072 -2.77306 0
M  V30 2612 C 250.284 -5.66314 -2.32282 0
M  V30 2613 N 249.421 -6.12329 -3.43508 0
M  V30 2614 H 254.261 -2.96918 -0.253701 0
M  V30 2615 H 251.798 -1.46661 -0.113504 0
M  V30 2616 H 253.756 -3.15779 -2.72652 0
M  V30 2617 H 252.386 -2.03866 -2.50277 0
M  V30 2618 H 251.438 -3.72571 -0.767806 0
M  V30 2619 H 252.75 -4.83633 -1.2207 0
M  V30 2620 H 251.904 -4.90145 -3.57551 0
M  V30 2621 H 250.643 -3.70095 -3.17617 0
M  V30 2622 H 249.648 -5.28806 -1.5048 0
M  V30 2623 H 250.873 -6.51085 -1.93043 0
M  V30 2624 H 248.819 -5.32284 -3.83418 0
M  V30 2625 H 248.736 -6.89293 -3.105 0
M  V30 2626 H 250.004 -6.5405 -4.24075 0
M  V30 2627 N 254.233 0.115231 -1.57178 0
M  V30 2628 C 255.196 1.12526 -1.99676 0
M  V30 2629 C 256.196 1.34095 -0.88742 0
M  V30 2630 O 257.386 1.30548 -1.15337 0
M  V30 2631 C 254.518 2.4789 -2.34015 0
M  V30 2632 H 255.711 0.759912 -2.90113 0
M  V30 2633 H 253.264 0.359648 -1.52106 0
M  V30 2634 H 253.999 2.89339 -1.4647 0
M  V30 2635 H 253.784 2.33588 -3.14927 0
M  V30 2636 H 255.274 3.20575 -2.67622 0
M  V30 2637 N 255.711 1.52812 0.385517 0
M  V30 2638 C 256.641 1.80808 1.47752 0
M  V30 2639 C 257.622 0.660318 1.5676 0
M  V30 2640 O 258.807 0.908246 1.71652 0
M  V30 2641 C 255.937 1.98008 2.85324 0
M  V30 2642 C 254.891 3.13709 2.91154 0
M  V30 2643 C 254.217 3.16169 4.31209 0
M  V30 2644 C 255.517 4.52709 2.60483 0
M  V30 2645 H 257.211 2.72253 1.24573 0
M  V30 2646 H 254.757 1.31003 0.597839 0
M  V30 2647 H 256.71 2.16176 3.61726 0
M  V30 2648 H 255.434 1.03255 3.09848 0
M  V30 2649 H 254.093 2.95329 2.17201 0
M  V30 2650 H 253.741 2.19092 4.52778 0
M  V30 2651 H 253.441 3.93894 4.36029 0
M  V30 2652 H 254.965 3.36496 5.09512 0
M  V30 2653 H 256.379 4.71173 3.26602 0
M  V30 2654 H 254.776 5.32528 2.76648 0
M  V30 2655 H 255.846 4.59186 1.55809 0
M  V30 2656 N 257.189 -0.644168 1.43834 0
M  V30 2657 C 258.152 -1.73857 1.49353 0
M  V30 2658 C 259.152 -1.56315 0.377112 0
M  V30 2659 O 260.342 -1.62048 0.639226 0
M  V30 2660 C 257.474 -3.12819 1.35488 0
M  V30 2661 H 258.667 -1.70342 2.46827 0
M  V30 2662 H 256.22 -0.856652 1.30733 0
M  V30 2663 H 256.955 -3.2194 0.390569 0
M  V30 2664 H 256.74 -3.26958 2.16428 0
M  V30 2665 H 258.23 -3.92606 1.42302 0
M  V30 2666 N 258.668 -1.30515 -0.883378 0
M  V30 2667 C 259.615 -1.17032 -1.98927 0
M  V30 2668 C 260.585 -0.0594241 -1.65994 0
M  V30 2669 O 261.77 -0.229895 -1.8941 0
M  V30 2670 C 258.91 -0.869777 -3.33959 0
M  V30 2671 C 258.023 -2.06271 -3.79574 0
M  V30 2672 C 257.158 -1.70011 -5.03259 0
M  V30 2673 C 256.197 -2.8579 -5.41286 0
M  V30 2674 N 255.334 -2.49816 -6.56153 0
M  V30 2675 H 260.174 -2.1164 -2.09792 0
M  V30 2676 H 257.711 -1.05296 -1.02719 0
M  V30 2677 H 259.669 -0.676138 -4.11685 0
M  V30 2678 H 258.299 0.0394332 -3.22776 0
M  V30 2679 H 257.351 -2.36755 -2.97744 0
M  V30 2680 H 258.663 -2.92971 -4.03694 0
M  V30 2681 H 257.817 -1.47032 -5.88614 0
M  V30 2682 H 256.556 -0.804829 -4.81013 0
M  V30 2683 H 255.561 -3.09434 -4.54456 0
M  V30 2684 H 256.786 -3.76008 -5.65504 0
M  V30 2685 H 254.732 -1.62795 -6.35479 0
M  V30 2686 H 254.649 -3.30048 -6.8015 0
M  V30 2687 H 255.917 -2.30197 -7.44735 0
M  V30 2688 N 260.146 1.09593 -1.13257 0
M  V30 2689 C 261.056 2.19739 -0.821691 0
M  V30 2690 C 262.072 1.72926 0.19302 0
M  V30 2691 O 263.248 2.01385 0.0244895 0
M  V30 2692 C 260.313 3.45482 -0.290333 0
M  V30 2693 C 259.374 4.06985 -1.36607 0
M  V30 2694 C 258.607 5.26726 -0.859975 0
M  V30 2695 O 258.83 5.69594 0.303082 0
M  V30 2696 O 257.764 5.7931 -1.63351 0
M  V30 2697 H 261.59 2.48781 -1.74189 0
M  V30 2698 H 259.175 1.18496 -0.909894 0
M  V30 2699 H 261.057 4.214 0.000674022 0
M  V30 2700 H 259.732 3.18047 0.602306 0
M  V30 2701 H 258.639 3.32712 -1.71037 0
M  V30 2702 H 259.972 4.38643 -2.23279 0
M  V30 2703 N 261.624 0.925811 1.2754 0
M  V30 2704 C 262.87 0.575575 1.95086 0
M  V30 2705 C 263.225 -0.873246 1.71441 0
M  V30 2706 O 262.518 -1.61443 1.03183 0
M  V30 2707 C 262.712 0.835296 3.47502 0
M  V30 2708 C 262.541 2.30781 3.85967 0
M  V30 2709 C 261.311 2.96017 4.09514 0
M  V30 2710 C 263.509 3.28519 3.95702 0
M  V30 2711 N 261.491 4.3344 4.34744 0
M  V30 2712 C 262.862 4.51146 4.25285 0
M  V30 2713 C 264.917 3.23753 3.7827 0
M  V30 2714 C 263.62 5.69606 4.39251 0
M  V30 2715 C 265.646 4.41523 3.9346 0
M  V30 2716 C 265.008 5.62928 4.23428 0
M  V30 2717 H 261.107 0.260711 0.737261 0
M  V30 2718 H 263.691 1.19204 1.53943 0
M  V30 2719 H 261.862 0.248005 3.87607 0
M  V30 2720 H 263.594 0.447878 4.02214 0
M  V30 2721 H 260.349 2.46695 4.04275 0
M  V30 2722 H 260.773 5.04528 4.5142 0
M  V30 2723 H 265.415 2.3096 3.54143 0
M  V30 2724 H 263.133 6.62866 4.62205 0
M  V30 2725 H 266.719 4.39351 3.81394 0
M  V30 2726 H 265.599 6.52538 4.34929 0
M  V30 2727 N 263.102 -1.41638 0.69111 0
M  V30 2728 C 264.35 -2.00902 0.219758 0
M  V30 2729 C 264.671 -1.54994 -1.18329 0
M  V30 2730 O 263.941 -0.778628 -1.79762 0
M  V30 2731 H 262.521 -0.74289 0.0782558 0
M  V30 2732 H 265.183 -1.73327 0.891271 0
M  V30 2733 H 264.279 -3.11224 0.233708 0
M  V30 2734 N 264.58 -0.43555 -1.51462 0
M  V30 2735 C 265.996 -0.0877501 -1.59359 0
M  V30 2736 C 266.196 1.4027 -1.4466 0
M  V30 2737 O 265.252 2.17243 -1.28693 0
M  V30 2738 C 266.565 -0.606264 -2.94525 0
M  V30 2739 C 268.113 -0.566548 -3.0783 0
M  V30 2740 C 268.588 -1.06201 -4.45517 0
M  V30 2741 N 270.079 -1.01992 -4.51832 0
M  V30 2742 C 270.814 -1.37417 -5.5669 0
M  V30 2743 N 270.31 -1.80119 -6.68976 0
M  V30 2744 N 272.103 -1.29245 -5.47039 0
M  V30 2745 H 264.254 -1.40533 -1.59261 0
M  V30 2746 H 266.517 -0.578992 -0.750648 0
M  V30 2747 H 266.223 -1.64901 -3.10645 0
M  V30 2748 H 266.097 -0.0302097 -3.77188 0
M  V30 2749 H 268.484 0.467208 -2.91378 0
M  V30 2750 H 268.565 -1.17898 -2.2701 0
M  V30 2751 H 268.209 -2.09422 -4.62715 0
M  V30 2752 H 268.139 -0.426127 -5.24873 0
M  V30 2753 H 270.63 -0.706308 -3.71241 0
M  V30 2754 H 270.943 -2.05392 -7.45006 0
M  V30 2755 H 269.288 -1.84044 -6.70189 0
M  V30 2756 H 272.479 -0.957522 -4.58202 0
M  V30 2757 H 272.652 -1.57182 -6.28648 0
M  V30 2758 N 266.058 1.56714 -0.166846 0
M  V30 2759 C 267.288 2.00828 0.48494 0
M  V30 2760 C 267.696 1.04612 1.57648 0
M  V30 2761 O 267.039 0.0383201 1.8366 0
M  V30 2762 C 267.101 3.4137 1.12723 0
M  V30 2763 C 266.765 4.56654 0.177886 0
M  V30 2764 C 267.762 5.16402 -0.60207 0
M  V30 2765 C 265.447 5.02244 0.0750139 0
M  V30 2766 C 267.441 6.20167 -1.47215 0
M  V30 2767 C 265.128 6.05859 -0.798649 0
M  V30 2768 C 266.126 6.64691 -1.57082 0
M  V30 2769 O 265.814 7.66297 -2.42989 0
M  V30 2770 H 265.546 0.663587 0.128953 0
M  V30 2771 H 268.1 2.03692 -0.264365 0
M  V30 2772 H 266.33 3.35406 1.92457 0
M  V30 2773 H 268.019 3.69466 1.68076 0
M  V30 2774 H 268.785 4.82065 -0.53274 0
M  V30 2775 H 264.664 4.56167 0.665812 0
M  V30 2776 H 268.208 6.66016 -2.07531 0
M  V30 2777 H 264.105 6.39621 -0.869199 0
M  V30 2778 H 264.873 7.83601 -2.36455 0
M  V30 2779 N 267.536 -0.106894 1.57237 0
M  V30 2780 C 268.784 -0.810921 1.85117 0
M  V30 2781 C 269.105 -1.7984 0.753827 0
M  V30 2782 O 268.375 -1.94649 -0.221056 0
M  V30 2783 H 266.955 -0.302466 0.683025 0
M  V30 2784 H 269.617 -0.0913324 1.94686 0
M  V30 2785 H 268.713 -1.34875 2.81452 0
M  V30 2786 N 269.014 -1.53014 -0.377408 0
M  V30 2787 C 270.263 -1.67845 -1.11853 0
M  V30 2788 C 270.576 -0.430625 -1.90801 0
M  V30 2789 O 271.782 -0.459261 -2.67587 0
M  V30 2790 C 270.238 -2.96668 -2.03756 0
M  V30 2791 C 269.846 -4.28671 -1.30175 0
M  V30 2792 C 271.59 -3.20865 -2.77932 0
M  V30 2793 C 269.497 -5.48591 -2.20911 0
M  V30 2794 H 268.427 -0.625343 -0.421263 0
M  V30 2795 H 271.078 -1.79514 -0.380409 0
M  V30 2796 H 269.46 -2.78773 -2.8125 0
M  V30 2797 H 270.634 -4.57157 -0.578259 0
M  V30 2798 H 268.949 -4.10825 -0.679108 0
M  V30 2799 H 271.546 -4.07642 -3.46024 0
M  V30 2800 H 271.889 -2.36424 -3.4265 0
M  V30 2801 H 272.422 -3.39379 -2.07525 0
M  V30 2802 H 269.161 -6.35474 -1.6079 0
M  V30 2803 H 268.681 -5.244 -2.91144 0
M  V30 2804 H 270.36 -5.8292 -2.80736 0
M  V30 2805 N 270.492 0.636531 -1.44174 0
M  V30 2806 C 271.908 0.954104 -1.27941 0
M  V30 2807 C 272.108 2.0039 -0.211248 0
M  V30 2808 O 271.164 2.49236 0.404695 0
M  V30 2809 C 272.477 1.4225 -2.64925 0
M  V30 2810 C 274.025 1.53827 -2.72592 0
M  V30 2811 C 274.5 2.04053 -4.10032 0
M  V30 2812 N 275.991 2.11331 -4.12182 0
M  V30 2813 C 276.726 2.51352 -5.15374 0
M  V30 2814 N 276.222 2.90549 -6.2893 0
M  V30 2815 N 278.015 2.51438 -5.02728 0
M  V30 2816 H 270.166 -0.0578386 -2.12321 0
M  V30 2817 H 272.429 0.0367406 -0.947288 0
M  V30 2818 H 272.135 0.725466 -3.44136 0
M  V30 2819 H 272.009 2.39451 -2.9145 0
M  V30 2820 H 274.396 2.22628 -1.93702 0
M  V30 2821 H 274.477 0.550154 -2.49814 0
M  V30 2822 H 274.121 1.35848 -4.89395 0
M  V30 2823 H 274.051 3.03726 -4.30184 0
M  V30 2824 H 276.542 1.83745 -3.30222 0
M  V30 2825 H 276.855 3.19884 -7.03487 0
M  V30 2826 H 275.2 2.88313 -6.32377 0
M  V30 2827 H 278.391 2.20203 -4.13072 0
M  V30 2828 H 278.564 2.82304 -5.83274 0
M  V30 2829 N 271.97 1.30982 0.876444 0
M  V30 2830 C 273.216 1.20474 1.63138 0
M  V30 2831 C 273.549 -0.238096 1.92735 0
M  V30 2832 O 272.824 -1.1692 1.55435 0
M  V30 2833 C 273.107 2.04244 2.96574 0
M  V30 2834 C 272.96 3.56793 2.73896 0
M  V30 2835 C 274.279 1.88684 3.97601 0
M  V30 2836 H 271.398 0.439001 0.591985 0
M  V30 2837 H 274.04 1.60704 1.01361 0
M  V30 2838 H 272.19 1.70063 3.493 0
M  V30 2839 H 273.862 4.01077 2.27892 0
M  V30 2840 H 272.105 3.80548 2.08245 0
M  V30 2841 H 272.776 4.10706 3.68815 0
M  V30 2842 H 275.252 2.18584 3.54062 0
M  V30 2843 H 274.128 2.4961 4.88862 0
M  V30 2844 H 274.389 0.848343 4.33884 0
M  V30 2845 N 273.449 -1.08991 1.13837 0
M  V30 2846 C 274.397 -2.17841 0.815347 0
M  V30 2847 C 275.391 -1.68164 -0.204233 0
M  V30 2848 O 276.597 -1.79897 -0.0609304 0
M  V30 2849 H 272.972 -0.710654 0.245915 0
M  V30 2850 H 274.943 -2.42315 1.74143 0
M  V30 2851 C 273.692 -3.46381 0.302614 0
M  V30 2852 H 273.015 -3.84979 1.0785 0
M  V30 2853 H 274.455 -4.23844 0.115074 0
M  V30 2854 C 272.914 -3.22556 -0.972591 0
M  V30 2855 O 273.444 -3.45599 -2.04754 0
M  V30 2856 N 271.65 -2.76134 -0.905455 0
M  V30 2857 H 271.197 -2.57582 -0.0305421 0
M  V30 2858 H 271.155 -2.60571 -1.75926 0
M  V30 2859 N 274.927 -0.932562 -1.27047 0
M  V30 2860 C 276.173 -0.576412 -1.94436 0
M  V30 2861 C 276.506 0.880891 -1.73072 0
M  V30 2862 O 275.781 1.62905 -1.06264 0
M  V30 2863 C 276.064 -0.909031 -3.48437 0
M  V30 2864 C 275.917 -2.42044 -3.79123 0
M  V30 2865 C 277.236 -0.418341 -4.38107 0
M  V30 2866 H 274.355 -0.210888 -0.706184 0
M  V30 2867 H 276.997 -1.16522 -1.50075 0
M  V30 2868 H 275.147 -0.407947 -3.86352 0
M  V30 2869 H 276.819 -2.99359 -3.50973 0
M  V30 2870 H 275.062 -2.86758 -3.25503 0
M  V30 2871 H 275.733 -2.6037 -4.86736 0
M  V30 2872 H 278.209 -0.847856 -4.0737 0
M  V30 2873 H 277.085 -0.679981 -5.44672 0
M  V30 2874 H 277.346 0.681642 -4.36814 0
M  V30 2875 N 276.405 1.4127 -0.698611 0
M  V30 2876 C 277.654 2.00408 -0.227949 0
M  V30 2877 C 277.967 1.55981 1.18023 0
M  V30 2878 O 279.173 2.07699 1.74852 0
M  V30 2879 C 277.629 3.58129 -0.356636 0
M  V30 2880 C 277.237 4.11536 -1.77037 0
M  V30 2881 C 278.981 4.24466 0.0540969 0
M  V30 2882 C 276.888 5.61701 -1.85055 0
M  V30 2883 H 275.818 0.749586 -0.0814657 0
M  V30 2884 H 278.469 1.61713 -0.867249 0
M  V30 2885 H 276.851 3.94442 0.350965 0
M  V30 2886 H 278.025 3.86636 -2.50698 0
M  V30 2887 H 276.34 3.57736 -2.13105 0
M  V30 2888 H 278.937 5.34698 0.0146723 0
M  V30 2889 H 279.28 4.01687 1.09332 0
M  V30 2890 H 279.813 3.93198 -0.603337 0
M  V30 2891 H 276.552 5.89312 -2.8704 0
M  V30 2892 H 276.072 5.88519 -1.15783 0
M  V30 2893 H 277.751 6.26524 -1.61484 0
M  V30 2894 N 277.883 0.443576 1.51229 0
M  V30 2895 C 278.846 -0.353132 2.26463 0
M  V30 2896 C 279.846 -0.944338 1.3015 0
M  V30 2897 O 281.036 -0.817813 1.5381 0
M  V30 2898 C 278.168 -1.50023 3.06114 0
M  V30 2899 H 279.361 0.3063 2.98332 0
M  V30 2900 H 276.914 0.196902 1.55055 0
M  V30 2901 H 277.649 -2.19553 2.38677 0
M  V30 2902 H 277.434 -1.08241 3.76864 0
M  V30 2903 H 278.924 -2.06296 3.63087 0
M  V30 2904 N 279.361 -1.56624 0.175154 0
M  V30 2905 C 280.772 -1.83561 -0.340916 0
M  V30 2906 C 281.123 -1.09511 -1.62794 0
M  V30 2907 O 280.248 -0.349389 -2.13561 0
M  V30 2908 C 280.843 -3.32979 -0.625313 0
M  V30 2909 C 279.402 -3.60399 -1.08581 0
M  V30 2910 C 278.549 -2.77024 -0.123722 0
M  V30 2911 H 281.5 -1.53593 0.399344 0
M  V30 2912 H 281.521 -3.50666 -1.47694 0
M  V30 2913 H 281.033 -3.86847 0.311575 0
M  V30 2914 H 279.134 -3.11945 -2.03767 0
M  V30 2915 H 279.247 -4.68711 -0.992317 0
M  V30 2916 H 277.611 -2.46993 -0.621821 0
M  V30 2917 H 278.394 -3.33674 0.807256 0
M  V30 2918 N 280.839 0.0985539 -1.57292 0
M  V30 2919 C 282.087 0.801092 -1.85545 0
M  V30 2920 C 282.408 1.79438 -0.763353 0
M  V30 2921 O 281.678 1.94763 0.21073 0
M  V30 2922 H 280.258 0.29884 -0.684619 0
M  V30 2923 H 282.92 0.0810064 -1.94732 0
M  V30 2924 H 282.016 1.3338 -2.82163 0
M  V30 2925 N 282.317 1.53212 0.369288 0
M  V30 2926 C 283.563 1.70413 1.11046 0
M  V30 2927 C 283.918 0.448509 1.87099 0
M  V30 2928 O 283.211 -0.558382 1.83283 0
M  V30 2929 C 283.405 2.89101 2.10132 0
M  V30 2930 C 283.234 4.26084 1.43814 0
M  V30 2931 C 282.004 4.90994 1.19384 0
M  V30 2932 C 284.202 5.06754 0.877802 0
M  V30 2933 N 282.184 6.11911 0.49377 0
M  V30 2934 C 283.555 6.1924 0.306891 0
M  V30 2935 C 285.61 4.91814 0.776129 0
M  V30 2936 C 284.313 7.1842 -0.355774 0
M  V30 2937 C 286.339 5.91263 0.127252 0
M  V30 2938 C 285.701 7.03069 -0.432801 0
M  V30 2939 H 281.8 0.676872 0.391623 0
M  V30 2940 H 284.384 1.90603 0.397334 0
M  V30 2941 H 282.555 2.70456 2.78761 0
M  V30 2942 H 284.287 2.95142 2.76899 0
M  V30 2943 H 281.042 4.50074 1.47413 0
M  V30 2944 H 281.466 6.76813 0.159207 0
M  V30 2945 H 286.108 4.05564 1.19489 0
M  V30 2946 H 283.826 8.04264 -0.786499 0
M  V30 2947 H 287.412 5.81779 0.0495613 0
M  V30 2948 H 286.292 7.78702 -0.926958 0
M  V30 2949 N 283.795 -0.628877 1.44509 0
M  V30 2950 C 285.025 -1.41349 1.50678 0
M  V30 2951 C 285.433 -1.88745 0.131075 0
M  V30 2952 O 284.776 -1.61592 -0.87371 0
M  V30 2953 C 284.838 -2.66608 2.41165 0
M  V30 2954 C 284.502 -2.40993 3.88293 0
M  V30 2955 C 285.499 -2.0268 4.78766 0
M  V30 2956 C 283.184 -2.54563 4.33016 0
M  V30 2957 C 285.178 -1.78269 6.11963 0
M  V30 2958 C 282.865 -2.29766 5.6626 0
M  V30 2959 C 283.863 -1.91678 6.55552 0
M  V30 2960 O 283.551 -1.67158 7.86329 0
M  V30 2961 H 283.283 -0.439851 0.51333 0
M  V30 2962 H 285.837 -0.776084 1.90174 0
M  V30 2963 H 284.067 -3.32994 1.96601 0
M  V30 2964 H 285.756 -3.28615 2.38259 0
M  V30 2965 H 286.522 -1.91751 4.45485 0
M  V30 2966 H 282.401 -2.83179 3.63773 0
M  V30 2967 H 285.945 -1.48465 6.81619 0
M  V30 2968 H 281.842 -2.40306 5.99102 0
M  V30 2969 H 282.61 -1.81386 7.98149 0
M  V30 2970 N 285.273 -1.31445 -0.869486 0
M  V30 2971 C 286.689 -1.10113 -1.15531 0
M  V30 2972 C 286.889 0.128087 -2.01092 0
M  V30 2973 O 285.945 0.817276 -2.38908 0
M  V30 2974 C 287.258 -2.37291 -1.84698 0
M  V30 2975 C 288.806 -2.42906 -1.97397 0
M  V30 2976 C 289.281 -3.69967 -2.69979 0
M  V30 2977 N 290.772 -3.70864 -2.77514 0
M  V30 2978 C 291.507 -4.65875 -3.34287 0
M  V30 2979 N 291.003 -5.71242 -3.91988 0
M  V30 2980 N 292.796 -4.53394 -3.3225 0
M  V30 2981 H 284.947 -2.1028 -0.299347 0
M  V30 2982 H 287.21 -0.927683 -0.195214 0
M  V30 2983 H 286.916 -3.27078 -1.29278 0
M  V30 2984 H 286.79 -2.47125 -2.84972 0
M  V30 2985 H 289.177 -1.53588 -2.51982 0
M  V30 2986 H 289.258 -2.37036 -0.961643 0
M  V30 2987 H 288.902 -4.59652 -2.16062 0
M  V30 2988 H 288.832 -3.73103 -3.7162 0
M  V30 2989 H 291.323 -2.94697 -2.36563 0
M  V30 2990 H 291.636 -6.39817 -4.33421 0
M  V30 2991 H 289.981 -5.75015 -3.90362 0
M  V30 2992 H 293.172 -3.70252 -2.8641 0
M  V30 2993 H 293.345 -5.27617 -3.76197 0
M  V30 2994 N 286.751 1.08385 -1.14413 0
M  V30 2995 C 287.979 1.84517 -0.936001 0
M  V30 2996 C 288.394 1.81626 0.515503 0
M  V30 2997 O 287.751 1.22008 1.35721 0
M  V30 2998 C 287.802 3.32049 -1.42918 0
M  V30 2999 O 287.523 3.34951 -2.82381 0
M  V30 3000 C 289.024 4.24986 -1.26103 0
M  V30 3001 H 286.244 0.582491 -0.333084 0
M  V30 3002 H 288.788 1.36885 -1.5193 0
M  V30 3003 H 286.943 3.7707 -0.888641 0
M  V30 3004 H 287.357 4.27048 -3.04517 0
M  V30 3005 H 288.831 5.26615 -1.6547 0
M  V30 3006 H 289.308 4.38726 -0.20392 0
M  V30 3007 H 289.914 3.85791 -1.79012 0
M  V30 3008 N 288.23 0.939286 1.26551 0
M  V30 3009 C 289.177 0.446088 2.26448 0
M  V30 3010 C 290.147 -0.493234 1.58608 0
M  V30 3011 O 291.332 -0.409857 1.86346 0
M  V30 3012 C 288.472 -0.284375 3.43926 0
M  V30 3013 C 287.585 0.690399 4.26448 0
M  V30 3014 C 286.72 -0.0610712 5.31165 0
M  V30 3015 C 285.759 0.905649 6.05363 0
M  V30 3016 N 284.896 0.186055 7.01853 0
M  V30 3017 H 289.736 1.30291 2.68008 0
M  V30 3018 H 287.273 0.65371 1.31776 0
M  V30 3019 H 289.231 -0.724313 4.10864 0
M  V30 3020 H 287.861 -1.10535 3.03285 0
M  V30 3021 H 286.913 1.24885 3.59316 0
M  V30 3022 H 288.225 1.42873 4.779 0
M  V30 3023 H 287.379 -0.56038 6.04106 0
M  V30 3024 H 286.118 -0.832297 4.80546 0
M  V30 3025 H 285.123 1.4161 5.3125 0
M  V30 3026 H 286.348 1.67685 6.58072 0
M  V30 3027 H 284.294 -0.566714 6.53548 0
M  V30 3028 H 284.211 0.863752 7.51049 0
M  V30 3029 H 285.479 -0.292221 7.78952 0
M  V30 3030 N 289.708 -1.40897 0.706093 0
M  V30 3031 C 290.641 -2.282 -0.00328781 0
M  V30 3032 C 291.619 -1.42816 -0.77732 0
M  V30 3033 O 292.803 -1.72237 -0.765944 0
M  V30 3034 C 289.93 -3.23226 -1.01205 0
M  V30 3035 C 288.976 -4.25222 -0.329955 0
M  V30 3036 S 289.809 -5.27269 0.935298 0
M  V30 3037 C 290.965 -6.25859 -0.0716061 0
M  V30 3038 H 291.198 -2.88016 0.737143 0
M  V30 3039 H 288.731 -1.46191 0.496756 0
M  V30 3040 H 290.689 -3.78503 -1.58888 0
M  V30 3041 H 289.35 -2.62485 -1.72513 0
M  V30 3042 H 288.543 -4.92023 -1.09221 0
M  V30 3043 H 288.145 -3.73595 0.174069 0
M  V30 3044 H 290.437 -6.71204 -0.921521 0
M  V30 3045 H 291.38 -7.0586 0.562765 0
M  V30 3046 H 291.788 -5.62852 -0.431088 0
M  V30 3047 N 291.186 -0.45159 -1.50991 0
M  V30 3048 C 292.414 0.108334 -2.06616 0
M  V30 3049 C 292.829 1.35224 -1.31757 0
M  V30 3050 O 292.186 1.78475 -0.381174 0
M  V30 3051 C 292.237 0.41619 -3.59096 0
M  V30 3052 O 291.958 -0.778361 -4.3113 0
M  V30 3053 C 293.459 1.02523 -4.31282 0
M  V30 3054 H 290.679 0.00159995 -0.670998 0
M  V30 3055 H 293.223 -0.634771 -1.94399 0
M  V30 3056 H 291.378 1.10921 -3.71181 0
M  V30 3057 H 291.792 -0.511181 -5.22003 0
M  V30 3058 H 293.266 1.19053 -5.39009 0
M  V30 3059 H 293.743 2.01013 -3.905 0
M  V30 3060 H 294.349 0.371173 -4.23677 0
M  V30 3061 N 292.664 1.56529 -0.183458 0
M  V30 3062 C 293.574 2.22144 0.754272 0
M  V30 3063 C 294.59 1.21684 1.24374 0
M  V30 3064 O 295.766 1.54385 1.29333 0
M  V30 3065 C 292.831 2.85884 1.96141 0
M  V30 3066 C 291.892 4.01579 1.51765 0
M  V30 3067 C 291.125 4.6227 2.66725 0
M  V30 3068 O 291.348 4.21865 3.83909 0
M  V30 3069 O 290.282 5.51936 2.40104 0
M  V30 3070 H 294.108 3.02861 0.225527 0
M  V30 3071 H 291.693 1.49331 0.0453032 0
M  V30 3072 H 293.575 3.26253 2.66715 0
M  V30 3073 H 292.25 2.08154 2.47899 0
M  V30 3074 H 291.157 3.65856 0.781049 0
M  V30 3075 H 292.49 4.80938 1.04686 0
M  V30 3076 N 294.142 -0.090211 1.57342 0
M  V30 3077 C 295.105 -1.09335 2.01441 0
M  V30 3078 C 296.105 -1.32666 0.908641 0
M  V30 3079 O 297.295 -1.28697 1.174 0
M  V30 3080 C 294.427 -2.44136 2.3793 0
M  V30 3081 H 295.62 -0.713662 2.91285 0
M  V30 3082 H 293.173 -0.335404 1.52659 0
M  V30 3083 H 293.908 -2.86972 1.51055 0
M  V30 3084 H 293.693 -2.28548 3.18603 0
M  V30 3085 H 295.183 -3.16277 2.72688 0
M  V30 3086 N 295.62 -1.53406 -0.361157 0
M  V30 3087 C 296.866 -1.70054 -1.10496 0
M  V30 3088 C 297.199 -0.453278 -1.88836 0
M  V30 3089 O 296.474 0.5495 -1.86576 0
M  V30 3090 C 296.757 -2.95317 -2.06058 0
M  V30 3091 C 296.61 -4.3021 -1.31298 0
M  V30 3092 C 297.929 -3.16193 -3.06121 0
M  V30 3093 H 295.048 -0.618799 -0.400321 0
M  V30 3094 H 297.69 -1.86052 -0.385318 0
M  V30 3095 H 295.84 -2.81809 -2.67425 0
M  V30 3096 H 297.512 -4.55538 -0.726807 0
M  V30 3097 H 295.755 -4.29421 -0.614853 0
M  V30 3098 H 296.426 -5.14 -2.01265 0
M  V30 3099 H 298.902 -3.28916 -2.5486 0
M  V30 3100 H 297.778 -4.05266 -3.70204 0
M  V30 3101 H 298.039 -2.31676 -3.76535 0
M  V30 3102 N 297.098 0.621204 -1.44841 0
M  V30 3103 C 298.345 1.38055 -1.48145 0
M  V30 3104 C 298.673 1.94143 -0.117867 0
M  V30 3105 O 297.928 1.74713 0.881694 0
M  V30 3106 C 298.227 2.55675 -2.4973 0
M  V30 3107 C 297.893 2.17817 -3.94799 0
M  V30 3108 C 296.555 2.07205 -4.34303 0
M  V30 3109 C 298.907 1.88065 -4.86087 0
M  V30 3110 C 296.235 1.65045 -5.63007 0
M  V30 3111 C 298.587 1.47394 -6.15189 0
M  V30 3112 C 297.251 1.35331 -6.53637 0
M  V30 3113 H 296.521 0.505181 -0.542101 0
M  V30 3114 H 299.168 0.703477 -1.78111 0
M  V30 3115 H 297.473 3.2866 -2.13284 0
M  V30 3116 H 299.17 3.13904 -2.4953 0
M  V30 3117 H 295.76 2.26998 -3.63552 0
M  V30 3118 H 299.944 1.95168 -4.56315 0
M  V30 3119 H 295.2 1.54317 -5.91605 0
M  V30 3120 H 299.374 1.23415 -6.85377 0
M  V30 3121 H 297.001 1.02435 -7.53267 0
M  V30 3122 N 298.576 1.31904 0.862503 0
M  V30 3123 C 299.801 1.25135 1.65397 0
M  V30 3124 C 300.226 -0.179 1.87246 0
M  V30 3125 O 299.584 -1.1277 1.4196 0
M  V30 3126 C 299.632 2.00832 2.99498 0
M  V30 3127 O 298.736 1.35075 3.89652 0
M  V30 3128 H 298.077 0.431655 0.504549 0
M  V30 3129 H 300.607 1.74094 1.07483 0
M  V30 3130 H 300.617 2.10709 3.49379 0
M  V30 3131 H 299.292 3.04847 2.82916 0
M  V30 3132 H 297.869 1.33696 3.48109 0
M  V30 3133 N 300.054 -1.07777 1.14986 0
M  V30 3134 C 301.331 -1.7699 0.832695 0
M  V30 3135 C 301.711 -2.001 -0.672561 0
M  V30 3136 O 301.059 -1.61598 -1.6155 0
M  V30 3137 C 301.269 -3.08139 1.63863 0
M  V30 3138 C 302.617 -3.8256 1.84208 0
M  V30 3139 O 303.641 -3.17939 1.60603 0
M  V30 3140 O 302.5 -4.98612 2.23714 0
M  V30 3141 H 299.594 -0.768389 0.305791 0
M  V30 3142 H 302.14 -1.14182 1.25541 0
M  V30 3143 H 300.912 -2.86909 2.6608 0
M  V30 3144 H 300.535 -3.78678 1.21197 0
M  V30 3145 N 301.532 -0.945985 -1.26051 0
M  V30 3146 C 302.943 -0.638096 -1.75457 0
M  V30 3147 C 303.294 0.846672 -1.76991 0
M  V30 3148 O 302.419 1.66262 -1.38513 0
M  V30 3149 C 303.014 -1.15157 -3.18629 0
M  V30 3150 C 301.573 -0.894004 -3.65629 0
M  V30 3151 C 300.72 -1.29967 -2.44957 0
M  V30 3152 H 303.671 -1.12376 -1.1206 0
M  V30 3153 H 303.692 -0.507615 -3.77099 0
M  V30 3154 H 303.204 -2.23222 -3.1748 0
M  V30 3155 H 301.305 0.172057 -3.72203 0
M  V30 3156 H 301.418 -1.52439 -4.54202 0
M  V30 3157 H 299.782 -0.718078 -2.44368 0
M  V30 3158 H 300.565 -2.38935 -2.46505 0
M  V30 3159 N 303.011 1.40521 -0.713556 0
M  V30 3160 C 303.921 2.34522 -0.0606667 0
M  V30 3161 C 304.937 1.57193 0.74607 0
M  V30 3162 O 306.113 1.89591 0.679493 0
M  V30 3163 C 303.178 3.36081 0.851491 0
M  V30 3164 C 302.239 4.29286 0.0349339 0
M  V30 3165 C 301.472 5.25994 0.903649 0
M  V30 3166 O 301.695 5.28616 2.14292 0
M  V30 3167 O 300.629 6.00918 0.343723 0
M  V30 3168 H 304.455 2.91968 -0.835972 0
M  V30 3169 H 302.04 1.41681 -0.47402 0
M  V30 3170 H 303.922 3.98369 1.37404 0
M  V30 3171 H 302.597 2.81052 1.60598 0
M  V30 3172 H 301.504 3.70289 -0.532633 0
M  V30 3173 H 302.837 4.87462 -0.681287 0
M  V30 3174 N 304.489 0.459591 1.5075 0
M  V30 3175 C 305.436 -0.340524 2.28274 0
M  V30 3176 C 306.406 -0.997371 1.32822 0
M  V30 3177 O 307.591 -1.01202 1.61749 0
M  V30 3178 C 304.731 -1.42317 3.14388 0
M  V30 3179 C 303.844 -0.782251 4.24859 0
M  V30 3180 C 302.979 -1.84182 4.98247 0
M  V30 3181 C 302.018 -1.18053 6.00608 0
M  V30 3182 N 301.155 -2.18244 6.67319 0
M  V30 3183 H 305.995 0.326899 2.96202 0
M  V30 3184 H 303.532 0.173057 1.46078 0
M  V30 3185 H 305.49 -2.06241 3.62658 0
M  V30 3186 H 304.12 -2.05992 2.4853 0
M  V30 3187 H 303.172 -0.0307404 3.80388 0
M  V30 3188 H 304.484 -0.259663 4.98124 0
M  V30 3189 H 303.638 -2.55714 5.50177 0
M  V30 3190 H 302.377 -2.39819 4.24662 0
M  V30 3191 H 301.382 -0.450776 5.47949 0
M  V30 3192 H 302.607 -0.631202 6.7616 0
M  V30 3193 H 300.553 -2.72919 5.96533 0
M  V30 3194 H 300.47 -1.70938 7.36421 0
M  V30 3195 H 301.738 -2.89191 7.23871 0
M  V30 3196 N 305.967 -1.56429 0.191757 0
M  V30 3197 C 306.897 -2.21937 -0.725696 0
M  V30 3198 C 307.878 -1.1814 -1.2238 0
M  V30 3199 O 309.063 -1.46636 -1.27325 0
M  V30 3200 C 306.193 -2.87611 -1.94672 0
M  V30 3201 C 305.147 -3.97623 -1.58366 0
M  V30 3202 C 304.473 -4.50446 -2.88102 0
M  V30 3203 C 305.773 -5.16197 -0.796133 0
M  V30 3204 H 307.467 -2.98861 -0.179606 0
M  V30 3205 H 305.013 -1.43749 -0.0849464 0
M  V30 3206 H 306.966 -3.3212 -2.59373 0
M  V30 3207 H 305.69 -2.08087 -2.51728 0
M  V30 3208 H 304.349 -3.53801 -0.960247 0
M  V30 3209 H 303.997 -3.67688 -3.43241 0
M  V30 3210 H 303.697 -5.24675 -2.64556 0
M  V30 3211 H 305.221 -4.97654 -3.53798 0
M  V30 3212 H 306.635 -5.57271 -1.34618 0
M  V30 3213 H 305.032 -5.96471 -0.658928 0
M  V30 3214 H 306.102 -4.84473 0.203478 0
M  V30 3215 N 307.445 0.0818655 -1.57387 0
M  V30 3216 C 308.722 0.815343 -1.77796 0
M  V30 3217 C 309.102 1.96289 -0.77679 0
M  V30 3218 O 308.45 2.27691 0.192106 0
M  V30 3219 C 308.66 1.29765 -3.23978 0
M  V30 3220 C 310.008 1.7351 -3.8753 0
M  V30 3221 O 311.032 1.39356 -3.27808 0
M  V30 3222 O 309.891 2.36708 -4.92576 0
M  V30 3223 H 306.985 0.389914 -0.729312 0
M  V30 3224 H 309.531 0.0627213 -1.69584 0
M  V30 3225 H 308.303 0.47608 -3.88393 0
M  V30 3226 H 307.926 2.11189 -3.36875 0
M  V30 3227 N 308.923 1.53595 0.353017 0
M  V30 3228 C 310.153 1.74058 1.11299 0
M  V30 3229 C 310.561 0.475205 1.83135 0
M  V30 3230 O 309.904 -0.562344 1.74881 0
M  V30 3231 C 309.966 2.85994 2.17825 0
M  V30 3232 C 309.63 4.25923 1.65647 0
M  V30 3233 C 310.627 5.07829 1.11383 0
M  V30 3234 C 308.312 4.72377 1.7078 0
M  V30 3235 C 310.306 6.34285 0.629439 0
M  V30 3236 C 307.993 5.98808 1.21953 0
M  V30 3237 C 308.991 6.79594 0.681265 0
M  V30 3238 O 308.679 8.03651 0.200248 0
M  V30 3239 H 308.411 0.585327 0.338183 0
M  V30 3240 H 310.965 2.01186 0.413927 0
M  V30 3241 H 309.195 2.54368 2.91262 0
M  V30 3242 H 310.884 2.94515 2.79313 0
M  V30 3243 H 311.65 4.73107 1.06746 0
M  V30 3244 H 307.529 4.0956 2.11617 0
M  V30 3245 H 311.073 6.97288 0.208636 0
M  V30 3246 H 306.97 6.33026 1.26287 0
M  V30 3247 H 307.738 8.1788 0.318416 0
M  V30 3248 N 310.401 -0.613514 1.45168 0
M  V30 3249 C 311.334 -1.73809 1.47871 0
M  V30 3250 C 312.312 -1.59097 0.33568 0
M  V30 3251 O 313.496 -1.8074 0.535299 0
M  V30 3252 C 310.623 -3.11574 1.32813 0
M  V30 3253 C 309.669 -3.4489 2.50905 0
M  V30 3254 S 310.502 -3.40393 4.13392 0
M  V30 3255 C 311.658 -4.80749 4.00789 0
M  V30 3256 H 311.891 -1.71252 2.43023 0
M  V30 3257 H 309.424 -0.789658 1.32679 0
M  V30 3258 H 311.382 -3.91065 1.24812 0
M  V30 3259 H 310.043 -3.11652 0.391418 0
M  V30 3260 H 309.236 -4.45183 2.36279 0
M  V30 3261 H 308.838 -2.72901 2.55736 0
M  V30 3262 H 311.13 -5.7041 3.65567 0
M  V30 3263 H 312.073 -5.00431 5.00974 0
M  V30 3264 H 312.481 -4.56151 3.32545 0
M  V30 3265 N 311.879 -1.3236 -0.855495 0
M  V30 3266 C 312.809 -1.23833 -1.97958 0
M  V30 3267 C 313.79 -0.122361 -1.69659 0
M  V30 3268 O 314.975 -0.30939 -1.9172 0
M  V30 3269 C 312.105 -0.959772 -3.33775 0
M  V30 3270 C 311.059 -2.03689 -3.76424 0
M  V30 3271 C 310.385 -1.61075 -5.09862 0
M  V30 3272 C 311.685 -3.4518 -3.9198 0
M  V30 3273 H 313.379 -2.1788 -2.0535 0
M  V30 3274 H 310.925 -1.04891 -0.986605 0
M  V30 3275 H 312.878 -0.886678 -4.11966 0
M  V30 3276 H 311.602 0.0163404 -3.26596 0
M  V30 3277 H 310.261 -2.10012 -3.00484 0
M  V30 3278 H 309.909 -0.622107 -4.99138 0
M  V30 3279 H 309.609 -2.33143 -5.39368 0
M  V30 3280 H 311.133 -1.55201 -5.90546 0
M  V30 3281 H 312.547 -3.4145 -4.60526 0
M  V30 3282 H 310.944 -4.1559 -4.32903 0
M  V30 3283 H 312.014 -3.84903 -2.94919 0
M  V30 3284 N 313.357 1.07166 -1.15556 0
M  V30 3285 C 314.304 2.14417 -0.854055 0
M  V30 3286 C 315.274 1.64965 0.193806 0
M  V30 3287 O 316.459 1.90703 0.0609443 0
M  V30 3288 C 313.599 3.43304 -0.351574 0
M  V30 3289 C 312.712 4.06537 -1.46123 0
M  V30 3290 C 311.847 5.23266 -0.914677 0
M  V30 3291 C 310.886 5.78464 -2.00114 0
M  V30 3292 N 310.023 6.86521 -1.47083 0
M  V30 3293 H 314.863 2.39548 -1.77259 0
M  V30 3294 H 312.4 1.17543 -0.884425 0
M  V30 3295 H 314.358 4.17179 -0.0419409 0
M  V30 3296 H 312.988 3.18419 0.530037 0
M  V30 3297 H 312.04 3.30297 -1.88701 0
M  V30 3298 H 313.352 4.43567 -2.28144 0
M  V30 3299 H 312.506 6.04131 -0.557698 0
M  V30 3300 H 311.245 4.87658 -0.0636583 0
M  V30 3301 H 310.25 4.96243 -2.36692 0
M  V30 3302 H 311.475 6.16126 -2.85597 0
M  V30 3303 H 309.421 6.52849 -0.642198 0
M  V30 3304 H 309.338 7.22446 -2.22729 0
M  V30 3305 H 310.606 7.71087 -1.14215 0
M  V30 3306 N 314.835 0.952656 1.25548 0
M  V30 3307 C 316.251 0.656769 1.4546 0
M  V30 3308 C 316.451 -0.78633 1.85524 0
M  V30 3309 O 315.507 -1.56183 1.98402 0
M  V30 3310 C 316.82 1.62801 2.52817 0
M  V30 3311 C 318.368 1.63897 2.66659 0
M  V30 3312 C 318.843 2.5978 3.77198 0
M  V30 3313 N 320.334 2.58133 3.84606 0
M  V30 3314 C 321.069 3.29003 4.69621 0
M  V30 3315 N 320.565 4.09339 5.58939 0
M  V30 3316 N 322.358 3.179 4.63569 0
M  V30 3317 H 314.509 1.88526 0.978344 0
M  V30 3318 H 316.772 0.810815 0.491206 0
M  V30 3319 H 316.478 2.65869 2.30232 0
M  V30 3320 H 316.352 1.38898 3.50695 0
M  V30 3321 H 318.739 0.615481 2.8861 0
M  V30 3322 H 318.82 1.91858 1.69187 0
M  V30 3323 H 318.464 3.62254 3.55997 0
M  V30 3324 H 318.394 2.29105 4.7415 0
M  V30 3325 H 320.885 1.99809 3.20757 0
M  V30 3326 H 321.198 4.6034 6.20731 0
M  V30 3327 H 319.543 4.13438 5.58654 0
M  V30 3328 H 322.734 2.54612 3.92798 0
M  V30 3329 H 322.907 3.73398 5.29602 0
M  V30 3330 N 316.313 -1.40141 0.720998 0
M  V30 3331 C 317.562 -2.0002 0.259804 0
M  V30 3332 C 317.875 -1.57839 -1.15526 0
M  V30 3333 O 319.081 -2.10455 -1.71525 0
M  V30 3334 C 317.537 -3.57516 0.413566 0
M  V30 3335 C 317.145 -4.08667 1.83562 0
M  V30 3336 C 318.889 -4.24498 0.0134387 0
M  V30 3337 C 316.796 -5.58686 1.93968 0
M  V30 3338 H 315.726 -0.748195 0.0933806 0
M  V30 3339 H 318.377 -1.60313 0.892866 0
M  V30 3340 H 316.759 -3.9495 -0.288169 0
M  V30 3341 H 317.933 -3.82598 2.56817 0
M  V30 3342 H 316.248 -3.543 2.1877 0
M  V30 3343 H 318.845 -5.34654 0.0703954 0
M  V30 3344 H 319.188 -4.03375 -1.02927 0
M  V30 3345 H 319.721 -3.92188 0.665815 0
M  V30 3346 H 316.46 -5.8467 2.96379 0
M  V30 3347 H 315.98 -5.86602 1.25131 0
M  V30 3348 H 317.659 -6.23875 1.71431 0
M  V30 3349 N 317.792 -0.46758 -1.50504 0
M  V30 3350 C 319.203 -0.0116166 -1.86696 0
M  V30 3351 C 319.554 1.39202 -1.38265 0
M  V30 3352 O 318.679 2.0313 -0.746132 0
M  V30 3353 C 319.274 -0.0143044 -3.38797 0
M  V30 3354 C 317.833 0.386175 -3.74414 0
M  V30 3355 C 316.98 -0.401287 -2.74381 0
M  V30 3356 H 319.931 -0.682022 -1.43297 0
M  V30 3357 H 319.952 0.788641 -3.72237 0
M  V30 3358 H 319.464 -1.03602 -3.74016 0
M  V30 3359 H 317.565 1.41237 -3.44794 0
M  V30 3360 H 317.678 0.0899596 -4.79016 0
M  V30 3361 H 316.042 0.144536 -2.5429 0
M  V30 3362 H 316.825 -1.42244 -3.12444 0
M  V30 3363 N 319.27 1.56325 -0.20005 0
M  V30 3364 C 320.2 2.22318 0.713916 0
M  V30 3365 C 321.181 1.18788 1.21752 0
M  V30 3366 O 322.366 1.47309 1.26545 0
M  V30 3367 C 319.496 2.88639 1.93144 0
M  V30 3368 C 318.45 3.98457 1.56255 0
M  V30 3369 C 317.776 4.51967 2.85709 0
M  V30 3370 C 319.076 5.16612 0.768747 0
M  V30 3371 H 320.77 2.98952 0.163755 0
M  V30 3372 H 318.316 1.43792 0.0773219 0
M  V30 3373 H 320.269 3.33491 2.57608 0
M  V30 3374 H 318.993 2.09419 2.50621 0
M  V30 3375 H 317.652 3.54305 0.941471 0
M  V30 3376 H 317.3 3.69503 3.41287 0
M  V30 3377 H 317 5.26071 2.6177 0
M  V30 3378 H 318.524 4.99523 3.51154 0
M  V30 3379 H 319.938 5.57977 1.3166 0
M  V30 3380 H 318.335 5.96812 0.627286 0
M  V30 3381 H 319.405 4.84358 -0.229168 0
M  V30 3382 N 320.748 -0.0735177 1.57428 0
M  V30 3383 C 321.996 -0.771472 1.86796 0
M  V30 3384 C 322.317 -1.78201 0.791804 0
M  V30 3385 O 321.587 -1.95074 -0.179718 0
M  V30 3386 H 320.167 -0.28791 0.689287 0
M  V30 3387 H 322.829 -0.0500161 1.94836 0
M  V30 3388 H 321.925 -1.28874 2.8425 0
M  V30 3389 N 322.226 -1.5378 -0.344866 0
M  V30 3390 C 323.642 -1.44015 -0.687888 0
M  V30 3391 C 323.842 -0.595834 -1.92489 0
M  V30 3392 O 322.898 -0.0863064 -2.52352 0
M  V30 3393 C 324.211 -2.87481 -0.881758 0
M  V30 3394 C 325.759 -2.97247 -0.980459 0
M  V30 3395 C 326.234 -4.41819 -1.20665 0
M  V30 3396 N 327.725 -4.45339 -1.27389 0
M  V30 3397 C 328.46 -5.54333 -1.46639 0
M  V30 3398 N 327.956 -6.73335 -1.63071 0
M  V30 3399 N 329.749 -5.41944 -1.49176 0
M  V30 3400 H 321.9 -2.07169 0.468475 0
M  V30 3401 H 324.163 -0.93643 0.147655 0
M  V30 3402 H 323.869 -3.51672 -0.0443444 0
M  V30 3403 H 323.743 -3.32352 -1.78388 0
M  V30 3404 H 326.13 -2.33197 -1.8084 0
M  V30 3405 H 326.211 -2.5574 -0.0552713 0
M  V30 3406 H 325.855 -5.06449 -0.383652 0
M  V30 3407 H 325.785 -4.80917 -2.14539 0
M  V30 3408 H 328.276 -3.59585 -1.1622 0
M  V30 3409 H 328.589 -7.52165 -1.77391 0
M  V30 3410 H 326.934 -6.76282 -1.60209 0
M  V30 3411 H 330.125 -4.47932 -1.3592 0
M  V30 3412 H 330.298 -6.26946 -1.63837 0
M  V30 3413 N 323.704 0.605807 -1.45491 0
M  V30 3414 C 324.932 1.39136 -1.5313 0
M  V30 3415 C 325.347 1.88082 -0.164507 0
M  V30 3416 O 324.704 1.62316 0.834247 0
M  V30 3417 C 324.755 2.59463 -2.51716 0
M  V30 3418 O 324.476 2.12551 -3.83084 0
M  V30 3419 C 325.977 3.52301 -2.6907 0
M  V30 3420 H 323.197 0.425849 -0.51855 0
M  V30 3421 H 325.741 0.73865 -1.90694 0
M  V30 3422 H 323.896 3.20772 -2.17219 0
M  V30 3423 H 324.31 2.90744 -4.36541 0
M  V30 3424 H 325.784 4.33271 -3.42024 0
M  V30 3425 H 326.261 4.02757 -1.75167 0
M  V30 3426 H 326.867 2.96845 -3.04571 0
M  V30 3427 N 325.182 1.32811 0.848464 0
M  V30 3428 C 326.43 1.23479 1.59991 0
M  V30 3429 C 326.751 -0.201853 1.93952 0
M  V30 3430 O 326.021 -1.12818 1.60153 0
M  V30 3431 H 324.601 0.454034 0.593179 0
M  V30 3432 H 327.263 1.66412 1.01455 0
M  V30 3433 H 326.359 1.82178 2.53412 0
M  V30 3434 N 326.66 -1.06551 1.16123 0
M  V30 3435 C 327.906 -1.79567 0.94252 0
M  V30 3436 C 328.239 -1.86869 -0.528547 0
M  V30 3437 O 327.514 -1.35838 -1.39206 0
M  V30 3438 C 327.797 -3.24195 1.56747 0
M  V30 3439 C 327.65 -3.24989 3.10969 0
M  V30 3440 C 328.969 -4.21678 1.25998 0
M  V30 3441 H 326.088 -0.651883 0.343828 0
M  V30 3442 H 328.73 -1.2463 1.43413 0
M  V30 3443 H 326.88 -3.71107 1.14942 0
M  V30 3444 H 328.552 -2.86258 3.61737 0
M  V30 3445 H 326.795 -2.63716 3.44436 0
M  V30 3446 H 327.466 -4.27005 3.49815 0
M  V30 3447 H 329.942 -3.83196 1.62174 0
M  V30 3448 H 328.818 -5.21146 1.7233 0
M  V30 3449 H 329.079 -4.4174 0.178367 0
M  V30 3450 N 328.138 -0.959301 -1.25041 0
M  V30 3451 C 329.549 -0.65667 -1.74771 0
M  V30 3452 C 329.9 0.827852 -1.77879 0
M  V30 3453 O 329.025 1.64783 -1.40269 0
M  V30 3454 C 329.62 -1.1853 -3.1739 0
M  V30 3455 C 328.179 -0.932734 -3.6466 0
M  V30 3456 C 327.326 -1.32558 -2.43564 0
M  V30 3457 H 330.277 -1.13558 -1.10862 0
M  V30 3458 H 330.298 -0.547582 -3.76539 0
M  V30 3459 H 329.81 -2.26576 -3.15095 0
M  V30 3460 H 327.911 0.13257 -3.72364 0
M  V30 3461 H 328.024 -1.57248 -4.52559 0
M  V30 3462 H 326.388 -0.743956 -2.43593 0
M  V30 3463 H 327.171 -2.41537 -2.43957 0
M  V30 3464 N 329.616 1.39756 -0.72842 0
M  V30 3465 C 330.526 2.34444 -0.0855374 0
M  V30 3466 C 331.542 1.57976 0.729356 0
M  V30 3467 O 332.718 1.90301 0.659346 0
M  V30 3468 C 329.783 3.36965 0.815798 0
M  V30 3469 C 328.844 4.29299 -0.0105996 0
M  V30 3470 C 328.077 5.26923 0.84781 0
M  V30 3471 O 328.3 5.30859 2.08673 0
M  V30 3472 O 327.234 6.01249 0.279969 0
M  V30 3473 H 331.06 2.91065 -0.866892 0
M  V30 3474 H 328.645 1.4117 -0.48902 0
M  V30 3475 H 330.527 3.99804 1.33171 0
M  V30 3476 H 329.202 2.82739 1.57608 0
M  V30 3477 H 328.109 3.69703 -0.571877 0
M  V30 3478 H 329.442 4.86712 -0.73295 0
M  V30 3479 N 331.094 0.475555 1.50254 0
M  V30 3480 C 332.371 -0.139685 1.95101 0
M  V30 3481 C 332.751 -1.56555 1.41611 0
M  V30 3482 O 332.099 -2.19956 0.618993 0
M  V30 3483 C 332.309 -0.0784298 3.48912 0
M  V30 3484 C 333.657 -0.265095 4.23772 0
M  V30 3485 O 334.681 -0.154808 3.55863 0
M  V30 3486 O 333.54 -0.488327 5.44314 0
M  V30 3487 H 330.634 -0.109236 0.819754 0
M  V30 3488 H 333.18 0.536276 1.61004 0
M  V30 3489 H 331.952 0.916918 3.80405 0
M  V30 3490 H 331.575 -0.795655 3.89558 0
M  V30 3491 N 332.573 -1.56217 0.208337 0
M  V30 3492 C 333.503 -2.22694 -0.702116 0
M  V30 3493 C 334.484 -1.19432 -1.2112 0
M  V30 3494 O 335.669 -1.47978 -1.25762 0
M  V30 3495 C 332.799 -2.8966 -1.9161 0
M  V30 3496 C 331.753 -3.9928 -1.5414 0
M  V30 3497 C 331.079 -4.53476 -2.83308 0
M  V30 3498 C 332.379 -5.17012 -0.741339 0
M  V30 3499 H 334.073 -2.99034 -0.147898 0
M  V30 3500 H 331.619 -1.43831 -0.0696951 0
M  V30 3501 H 333.572 -3.34852 -2.55836 0
M  V30 3502 H 332.296 -2.10746 -2.49507 0
M  V30 3503 H 330.955 -3.54799 -0.922668 0
M  V30 3504 H 330.603 -3.71308 -3.39322 0
M  V30 3505 H 330.303 -5.27451 -2.58976 0
M  V30 3506 H 331.827 -5.01378 -3.485 0
M  V30 3507 H 333.241 -5.58667 -1.28699 0
M  V30 3508 H 331.638 -5.97137 -0.595627 0
M  V30 3509 H 332.708 -4.8423 0.254851 0
M  V30 3510 N 334.051 0.0651679 -1.57465 0
M  V30 3511 C 334.998 1.07675 -2.04144 0
M  V30 3512 C 335.968 1.38071 -0.923335 0
M  V30 3513 O 337.153 1.49026 -1.19146 0
M  V30 3514 C 334.293 2.38337 -2.49579 0
M  V30 3515 C 333.406 2.14413 -3.75035 0
M  V30 3516 C 332.541 3.38686 -4.09225 0
M  V30 3517 C 331.58 3.10156 -5.27702 0
M  V30 3518 N 330.717 4.26778 -5.57499 0
M  V30 3519 H 335.557 0.671716 -2.90331 0
M  V30 3520 H 333.094 0.3201 -1.43575 0
M  V30 3521 H 335.052 3.14632 -2.73975 0
M  V30 3522 H 333.682 2.7663 -1.6636 0
M  V30 3523 H 332.734 1.2878 -3.57939 0
M  V30 3524 H 334.046 1.89344 -4.61466 0
M  V30 3525 H 333.2 4.23373 -4.34558 0
M  V30 3526 H 331.939 3.66837 -3.21374 0
M  V30 3527 H 330.944 2.23866 -5.02159 0
M  V30 3528 H 332.169 2.8332 -6.17176 0
M  V30 3529 H 330.115 4.54948 -4.72608 0
M  V30 3530 H 330.032 4.05005 -6.38362 0
M  V30 3531 H 331.3 5.12443 -5.87386 0
M  V30 3532 N 335.529 1.53961 0.336706 0
M  V30 3533 C 336.777 1.71197 1.07405 0
M  V30 3534 C 337.098 0.481475 1.88962 0
M  V30 3535 O 336.368 -0.504585 1.8929 0
M  V30 3536 H 334.948 0.631185 0.399517 0
M  V30 3537 H 337.61 1.91232 0.376323 0
M  V30 3538 H 336.706 2.58587 1.74755 0
M  V30 3539 N 337.007 -0.598083 1.45811 0
M  V30 3540 C 338.253 -1.35882 1.50545 0
M  V30 3541 C 338.586 -1.93616 0.150445 0
M  V30 3542 O 337.861 -1.75604 -0.83628 0
M  V30 3543 C 338.144 -2.49966 2.59208 0
M  V30 3544 C 337.997 -1.97367 4.04186 0
M  V30 3545 C 339.316 -3.52068 2.64076 0
M  V30 3546 H 336.435 -0.492717 0.548087 0
M  V30 3547 H 339.077 -0.673319 1.77669 0
M  V30 3548 H 337.227 -3.08443 2.3621 0
M  V30 3549 H 338.899 -1.43466 4.38423 0
M  V30 3550 H 337.142 -1.283 4.14393 0
M  V30 3551 H 337.813 -2.79649 4.75921 0
M  V30 3552 H 340.289 -3.03448 2.84708 0
M  V30 3553 H 339.165 -4.2937 3.41954 0
M  V30 3554 H 339.426 -4.08304 1.69531 0
M  V30 3555 N 338.485 -1.33259 -0.841409 0
M  V30 3556 C 339.448 -1.23221 -1.9326 0
M  V30 3557 C 340.448 -0.151895 -1.60081 0
M  V30 3558 O 341.638 -0.403246 -1.69468 0
M  V30 3559 C 338.77 -0.898123 -3.28856 0
M  V30 3560 H 339.963 -2.2021 -2.03587 0
M  V30 3561 H 337.516 -1.17281 -1.03319 0
M  V30 3562 H 338.251 0.0693841 -3.24226 0
M  V30 3563 H 338.036 -1.67934 -3.54317 0
M  V30 3564 H 339.526 -0.852563 -4.08805 0
M  V30 3565 N 339.963 1.05934 -1.16686 0
M  V30 3566 C 341.209 1.79065 -0.95203 0
M  V30 3567 C 341.542 1.87147 0.518629 0
M  V30 3568 O 340.817 1.36574 1.38484 0
M  V30 3569 C 341.1 3.23359 -1.58464 0
M  V30 3570 C 340.953 3.23336 -3.12689 0
M  V30 3571 C 342.272 4.21004 -1.28232 0
M  V30 3572 H 339.391 0.65005 -0.34728 0
M  V30 3573 H 342.033 1.23868 -1.44072 0
M  V30 3574 H 340.183 3.70493 -1.16908 0
M  V30 3575 H 341.855 2.84336 -3.6325 0
M  V30 3576 H 340.098 2.61886 -3.4583 0
M  V30 3577 H 340.769 4.25144 -3.52075 0
M  V30 3578 H 343.245 3.8233 -1.64203 0
M  V30 3579 H 342.121 5.20225 -1.75092 0
M  V30 3580 H 342.382 4.41639 -0.201791 0
M  V30 3581 N 341.441 0.965919 1.2453 0
M  V30 3582 C 342.688 0.626831 1.92554 0
M  V30 3583 C 343.016 -0.837739 1.75534 0
M  V30 3584 O 342.271 -1.61793 1.10098 0
M  V30 3585 C 342.57 0.945428 3.44669 0
M  V30 3586 C 342.236 2.39785 3.81856 0
M  V30 3587 C 340.898 2.79483 3.91718 0
M  V30 3588 C 343.25 3.34055 4.00071 0
M  V30 3589 C 340.578 4.12496 4.1721 0
M  V30 3590 C 342.93 4.66694 4.27059 0
M  V30 3591 C 341.594 5.06172 4.3514 0
M  V30 3592 H 340.864 0.229374 0.704605 0
M  V30 3593 H 343.511 1.21707 1.4785 0
M  V30 3594 H 341.816 0.272926 3.90848 0
M  V30 3595 H 343.513 0.661484 3.95507 0
M  V30 3596 H 340.103 2.08003 3.74743 0
M  V30 3597 H 344.287 3.04571 3.91855 0
M  V30 3598 H 339.543 4.42709 4.21685 0
M  V30 3599 H 343.717 5.3971 4.40097 0
M  V30 3600 H 341.344 6.09262 4.54646 0
M  V30 3601 N 342.919 -1.39368 0.735821 0
M  V30 3602 C 343.849 -2.33234 0.111506 0
M  V30 3603 C 344.83 -1.53954 -0.723334 0
M  V30 3604 O 346.015 -1.82344 -0.668147 0
M  V30 3605 C 343.145 -3.38057 -0.795917 0
M  V30 3606 C 342.099 -4.2795 -0.065172 0
M  V30 3607 C 341.425 -5.23479 -1.08967 0
M  V30 3608 C 342.725 -5.10741 1.09273 0
M  V30 3609 H 344.419 -2.85692 0.895571 0
M  V30 3610 H 341.965 -1.37364 0.432109 0
M  V30 3611 H 343.918 -4.02675 -1.24221 0
M  V30 3612 H 342.642 -2.8404 -1.61211 0
M  V30 3613 H 341.301 -3.64813 0.361511 0
M  V30 3614 H 340.949 -4.65758 -1.89944 0
M  V30 3615 H 340.649 -5.84472 -0.605489 0
M  V30 3616 H 342.173 -5.90974 -1.53565 0
M  V30 3617 H 343.587 -5.68699 0.724841 0
M  V30 3618 H 341.984 -5.8088 1.50659 0
M  V30 3619 H 343.054 -4.45525 1.91404 0
M  V30 3620 N 344.397 -0.483516 -1.5 0
M  V30 3621 C 345.36 0.292965 -2.2732 0
M  V30 3622 C 346.36 0.909499 -1.32608 0
M  V30 3623 O 347.55 0.776745 -1.55924 0
M  V30 3624 C 344.682 1.41854 -3.09984 0
M  V30 3625 H 345.875 -0.385289 -2.97415 0
M  V30 3626 H 343.428 -0.237942 -1.54478 0
M  V30 3627 H 344.163 2.13148 -2.44414 0
M  V30 3628 H 343.948 0.982114 -3.79601 0
M  V30 3629 H 345.438 1.96597 -3.68429 0
M  V30 3630 N 345.875 1.56104 -0.216619 0
M  V30 3631 C 347.1 2.0301 0.424462 0
M  V30 3632 C 347.525 1.0955 1.52907 0
M  V30 3633 O 346.883 0.0827914 1.81111 0
M  V30 3634 C 346.931 3.4819 0.937883 0
M  V30 3635 O 346.035 3.57865 2.04955 0
M  V30 3636 H 345.376 0.656925 0.0966755 0
M  V30 3637 H 347.906 2.01859 -0.33381 0
M  V30 3638 H 347.916 3.88413 1.24897 0
M  V30 3639 H 346.591 4.15699 0.129387 0
M  V30 3640 H 345.168 3.29527 1.74546 0
M  V30 3641 N 347.353 -0.0568162 1.57498 0
M  V30 3642 C 348.263 -1.08346 2.08083 0
M  V30 3643 C 349.279 -1.41439 1.01346 0
M  V30 3644 O 350.455 -1.51316 1.32912 0
M  V30 3645 C 347.52 -2.37352 2.52715 0
M  V30 3646 C 346.581 -2.11093 3.73816 0
M  V30 3647 C 345.814 -3.33949 4.1631 0
M  V30 3648 O 346.037 -4.43622 3.58547 0
M  V30 3649 O 344.971 -3.21279 5.08983 0
M  V30 3650 H 348.797 -0.683667 2.95905 0
M  V30 3651 H 346.382 -0.271965 1.46904 0
M  V30 3652 H 348.264 -3.13246 2.81877 0
M  V30 3653 H 346.939 -2.76681 1.68016 0
M  V30 3654 H 345.846 -1.32856 3.49714 0
M  V30 3655 H 347.179 -1.76637 4.59413 0
M  V30 3656 N 348.832 -1.54138 -0.328536 0
M  V30 3657 C 349.742 -1.86192 -1.42723 0
M  V30 3658 C 350.758 -0.753382 -1.56844 0
M  V30 3659 O 351.934 -1.04718 -1.72035 0
M  V30 3660 C 348.999 -2.07824 -2.77507 0
M  V30 3661 C 348.06 -3.31641 -2.72603 0
M  V30 3662 C 347.293 -3.52232 -4.00959 0
M  V30 3663 O 347.516 -2.7636 -4.9898 0
M  V30 3664 O 346.45 -4.45699 -4.0452 0
M  V30 3665 H 350.276 -2.79608 -1.18547 0
M  V30 3666 H 347.861 -1.3998 -0.522104 0
M  V30 3667 H 349.743 -2.23411 -3.57303 0
M  V30 3668 H 348.418 -1.17596 -3.01584 0
M  V30 3669 H 347.325 -3.21444 -1.91376 0
M  V30 3670 H 348.658 -4.2191 -2.53481 0
M  V30 3671 N 350.31 0.590341 -1.46126 0
M  V30 3672 C 351.273 1.68194 -1.55703 0
M  V30 3673 C 352.273 1.54808 -0.434868 0
M  V30 3674 O 353.463 1.59564 -0.698928 0
M  V30 3675 C 350.595 3.07575 -1.47005 0
M  V30 3676 H 351.788 1.61064 -2.52979 0
M  V30 3677 H 349.341 0.807541 -1.33823 0
M  V30 3678 H 350.076 3.20268 -0.509785 0
M  V30 3679 H 349.861 3.187 -2.28414 0
M  V30 3680 H 351.351 3.87055 -1.56776 0
M  V30 3681 N 351.788 1.33704 0.83433 0
M  V30 3682 C 352.735 1.24335 1.94447 0
M  V30 3683 C 353.705 0.120991 1.65659 0
M  V30 3684 O 354.89 0.300035 1.88426 0
M  V30 3685 C 352.03 0.993124 3.30501 0
M  V30 3686 C 351.143 2.20217 3.71657 0
M  V30 3687 C 350.278 1.88572 4.96602 0
M  V30 3688 C 349.317 3.05683 5.30306 0
M  V30 3689 N 348.454 2.73997 6.46429 0
M  V30 3690 H 353.294 2.1928 2.01792 0
M  V30 3691 H 350.831 1.09035 0.987404 0
M  V30 3692 H 352.789 0.828467 4.08892 0
M  V30 3693 H 351.419 0.0803902 3.227 0
M  V30 3694 H 350.471 2.47642 2.88752 0
M  V30 3695 H 351.783 3.07752 3.92543 0
M  V30 3696 H 350.937 1.68776 5.82752 0
M  V30 3697 H 349.676 0.982799 4.77695 0
M  V30 3698 H 348.681 3.26088 4.42659 0
M  V30 3699 H 349.906 3.96737 5.51159 0
M  V30 3700 H 347.852 1.86268 6.28999 0
M  V30 3701 H 347.769 3.55064 6.67432 0
M  V30 3702 H 349.037 2.57679 7.35678 0
M  V30 3703 N 353.266 -1.05314 1.17247 0
M  V30 3704 C 354.496 -1.81707 0.983166 0
M  V30 3705 C 354.904 -1.83222 -0.471822 0
M  V30 3706 O 354.247 -1.25721 -1.3394 0
M  V30 3707 C 354.309 -3.29134 1.44606 0
M  V30 3708 C 353.973 -3.51304 2.92292 0
M  V30 3709 C 354.97 -3.4353 3.90235 0
M  V30 3710 C 352.655 -3.78306 3.30439 0
M  V30 3711 C 354.649 -3.62442 5.24323 0
M  V30 3712 C 352.336 -3.96866 4.64694 0
M  V30 3713 C 353.334 -3.88933 5.61445 0
M  V30 3714 O 353.022 -4.06976 6.93272 0
M  V30 3715 H 352.754 -0.579476 0.348114 0
M  V30 3716 H 355.308 -1.33705 1.55924 0
M  V30 3717 H 353.538 -3.78046 0.813537 0
M  V30 3718 H 355.227 -3.87049 1.22262 0
M  V30 3719 H 355.993 -3.22648 3.62109 0
M  V30 3720 H 351.872 -3.83585 2.55702 0
M  V30 3721 H 355.416 -3.56165 5.99827 0
M  V30 3722 H 351.313 -4.1724 4.92525 0
M  V30 3723 H 352.081 -4.24209 6.99992 0
M  V30 3724 N 354.744 -0.972509 -1.24016 0
M  V30 3725 C 355.99 -0.637978 -1.92504 0
M  V30 3726 C 356.323 0.825383 -1.75787 0
M  V30 3727 O 355.598 1.59442 -1.11393 0
M  V30 3728 C 355.881 -1.01942 -3.45369 0
M  V30 3729 C 355.734 -2.53983 -3.71231 0
M  V30 3730 C 357.053 -0.55751 -4.36555 0
M  V30 3731 H 354.172 -0.233248 -0.699117 0
M  V30 3732 H 356.814 -1.21238 -1.46292 0
M  V30 3733 H 354.964 -0.530656 -3.84859 0
M  V30 3734 H 356.636 -3.10374 -3.41271 0
M  V30 3735 H 354.879 -2.96968 -3.16216 0
M  V30 3736 H 355.55 -2.75723 -4.78206 0
M  V30 3737 H 358.026 -0.977029 -4.04467 0
M  V30 3738 H 356.902 -0.85292 -5.42233 0
M  V30 3739 H 357.163 0.542328 -4.38761 0
M  V30 3740 N 356.222 1.38976 -0.743202 0
M  V30 3741 C 357.45 2.04636 -0.30525 0
M  V30 3742 C 357.865 1.56044 1.06281 0
M  V30 3743 O 357.222 0.728921 1.67311 0
M  V30 3744 C 357.273 3.60193 -0.307177 0
M  V30 3745 O 356.994 4.06998 -1.62124 0
M  V30 3746 C 358.495 4.4306 0.145928 0
M  V30 3747 H 355.715 0.65788 -0.132041 0
M  V30 3748 H 358.259 1.77866 -1.00915 0
M  V30 3749 H 356.414 3.85835 0.347898 0
M  V30 3750 H 356.828 5.01371 -1.54036 0
M  V30 3751 H 358.302 5.51921 0.0934183 0
M  V30 3752 H 358.779 4.22706 1.19231 0
M  V30 3753 H 359.385 4.22584 -0.479886 0
M  V30 3754 N 357.7 0.491464 1.49741 0
M  V30 3755 C 358.948 -0.0563141 2.02022 0
M  V30 3756 C 359.269 -1.38363 1.37407 0
M  V30 3757 O 358.539 -1.88702 0.526166 0
M  V30 3758 H 357.119 -0.0238014 0.746621 0
M  V30 3759 H 359.781 0.646533 1.83864 0
M  V30 3760 H 358.877 -0.192967 3.11503 0
M  V30 3761 N 359.178 -1.55987 0.224894 0
M  V30 3762 C 360.11 -2.17722 -0.716224 0
M  V30 3763 C 361.123 -1.14723 -1.15509 0
M  V30 3764 O 362.312 -1.41688 -1.08567 0
M  V30 3765 C 359.412 -2.74873 -1.98238 0
M  V30 3766 C 358.585 -4.03074 -1.69853 0
M  V30 3767 C 357.644 -4.44757 -2.81208 0
M  V30 3768 O 356.67 -5.11587 -2.49534 0
M  V30 3769 N 357.872 -4.10716 -4.10235 0
M  V30 3770 H 360.637 -2.99109 -0.188123 0
M  V30 3771 H 358.198 -1.6184 0.0440123 0
M  V30 3772 H 360.19 -2.99727 -2.7193 0
M  V30 3773 H 358.76 -1.9777 -2.42086 0
M  V30 3774 H 357.98 -3.86041 -0.797875 0
M  V30 3775 H 359.268 -4.86701 -1.48324 0
M  V30 3776 H 358.666 -3.57019 -4.38809 0
M  V30 3777 H 357.223 -4.40455 -4.80461 0
M  V30 3778 N 360.656 0.0484629 -1.57525 0
M  V30 3779 C 361.905 0.742065 -1.87553 0
M  V30 3780 C 362.218 1.77545 -0.820802 0
M  V30 3781 O 363.424 2.52027 -1.00967 0
M  V30 3782 C 361.88 1.37081 -3.32771 0
M  V30 3783 C 361.488 0.374786 -4.4643 0
M  V30 3784 C 363.232 2.04542 -3.71972 0
M  V30 3785 C 361.139 1.01077 -5.82698 0
M  V30 3786 H 360.069 0.280903 -0.699721 0
M  V30 3787 H 362.72 -0.00411877 -1.835 0
M  V30 3788 H 361.102 2.16605 -3.31509 0
M  V30 3789 H 362.276 -0.392331 -4.59127 0
M  V30 3790 H 360.591 -0.196653 -4.15935 0
M  V30 3791 H 363.188 2.52943 -4.71088 0
M  V30 3792 H 363.531 2.85515 -3.02964 0
M  V30 3793 H 364.064 1.31819 -3.75325 0
M  V30 3794 H 360.803 0.240878 -6.55057 0
M  V30 3795 H 360.323 1.74819 -5.73758 0
M  V30 3796 H 362.002 1.52383 -6.28799 0
M  V30 3797 N 362.134 1.5431 0.320358 0
M  V30 3798 C 363.383 1.7188 1.05546 0
M  V30 3799 C 363.696 0.501143 1.89071 0
M  V30 3800 O 364.902 0.558258 2.65699 0
M  V30 3801 C 363.358 3.04025 1.92605 0
M  V30 3802 C 362.966 4.33207 1.14176 0
M  V30 3803 C 364.71 3.30959 2.65832 0
M  V30 3804 C 362.617 5.56412 2.00399 0
M  V30 3805 H 361.547 0.640547 0.397763 0
M  V30 3806 H 364.198 1.80802 0.313522 0
M  V30 3807 H 362.58 2.89019 2.7071 0
M  V30 3808 H 363.754 4.58989 0.40819 0
M  V30 3809 H 362.069 4.13062 0.526165 0
M  V30 3810 H 364.666 4.20203 3.30656 0
M  V30 3811 H 365.009 2.48979 3.33639 0
M  V30 3812 H 365.542 3.46847 1.94787 0
M  V30 3813 H 362.281 6.41004 1.37094 0
M  V30 3814 H 361.801 5.34844 2.7148 0
M  V30 3815 H 363.48 5.92938 2.58908 0
M  V30 3816 N 363.613 -0.582584 1.46437 0
M  V30 3817 C 364.86 -1.34079 1.51753 0
M  V30 3818 C 365.188 -1.93762 0.169299 0
M  V30 3819 O 364.443 -1.76989 -0.835062 0
M  V30 3820 C 364.742 -2.48964 2.56421 0
M  V30 3821 C 364.408 -2.07273 4.00436 0
M  V30 3822 C 363.07 -1.95618 4.39644 0
M  V30 3823 C 365.422 -1.75111 4.90903 0
M  V30 3824 C 362.75 -1.5006 5.67185 0
M  V30 3825 C 365.102 -1.31032 6.18881 0
M  V30 3826 C 363.766 -1.17954 6.56996 0
M  V30 3827 H 363.036 -0.49063 0.555304 0
M  V30 3828 H 365.683 -0.656007 1.79913 0
M  V30 3829 H 363.988 -3.22889 2.21923 0
M  V30 3830 H 365.685 -3.07178 2.57765 0
M  V30 3831 H 362.275 -2.17279 3.69443 0
M  V30 3832 H 366.459 -1.83001 4.61329 0
M  V30 3833 H 361.715 -1.38577 5.95488 0
M  V30 3834 H 365.889 -1.052 6.88408 0
M  V30 3835 H 363.516 -0.824279 7.55718 0
M  V30 3836 N 365.091 -1.34144 -0.827227 0
M  V30 3837 C 366.337 -1.26446 -1.58554 0
M  V30 3838 C 366.67 0.1664 -1.93486 0
M  V30 3839 O 365.945 1.1107 -1.59667 0
M  V30 3840 C 366.228 -2.15111 -2.8879 0
M  V30 3841 C 366.081 -3.66712 -2.60465 0
M  V30 3842 C 367.4 -2.03311 -3.90324 0
M  V30 3843 H 364.519 -0.46067 -0.575284 0
M  V30 3844 H 367.161 -1.64356 -0.953269 0
M  V30 3845 H 365.311 -1.8291 -3.42748 0
M  V30 3846 H 366.983 -4.09259 -2.1285 0
M  V30 3847 H 365.226 -3.88014 -1.93978 0
M  V30 3848 H 365.897 -4.24112 -3.53317 0
M  V30 3849 H 368.373 -2.31574 -3.45706 0
M  V30 3850 H 367.249 -2.67582 -4.79261 0
M  V30 3851 H 367.51 -1.00879 -4.30437 0
M  V30 3852 N 366.569 1.04691 -1.17803 0
M  V30 3853 C 367.846 1.7472 -0.879328 0
M  V30 3854 C 368.226 2.01812 0.619271 0
M  V30 3855 O 367.574 1.65824 1.57209 0
M  V30 3856 C 367.784 3.03686 -1.71976 0
M  V30 3857 C 369.132 3.77542 -1.94286 0
M  V30 3858 O 370.156 3.13569 -1.68976 0
M  V30 3859 O 369.015 4.92506 -2.36855 0
M  V30 3860 H 366.109 0.760011 -0.326056 0
M  V30 3861 H 368.655 1.10813 -1.28525 0
M  V30 3862 H 367.427 2.79754 -2.73594 0
M  V30 3863 H 367.05 3.75332 -1.31194 0
M  V30 3864 N 368.047 0.979072 1.23499 0
M  V30 3865 C 369.295 0.645941 1.91499 0
M  V30 3866 C 369.616 -0.822948 1.76784 0
M  V30 3867 O 368.886 -1.58854 1.14639 0
M  V30 3868 H 367.466 0.235919 0.708767 0
M  V30 3869 H 370.128 1.2426 1.50152 0
M  V30 3870 H 369.224 0.896411 2.9895 0
M  V30 3871 N 369.525 -1.3858 0.750561 0
M  V30 3872 C 370.773 -1.99789 0.30477 0
M  V30 3873 C 371.094 -1.59874 -1.11649 0
M  V30 3874 O 370.364 -0.85417 -1.76297 0
M  V30 3875 H 368.944 -0.738902 0.109694 0
M  V30 3876 H 371.606 -1.69391 0.963983 0
M  V30 3877 H 370.702 -3.09952 0.365499 0
M  V30 3878 N 371.003 -0.499398 -1.49478 0
M  V30 3879 C 372.249 0.0377587 -2.03365 0
M  V30 3880 C 372.604 1.3484 -1.37244 0
M  V30 3881 O 371.897 1.85 -0.498547 0
M  V30 3882 C 372.091 0.248424 -3.56536 0
M  V30 3883 C 371.92 -1.04025 -4.37503 0
M  V30 3884 C 370.69 -1.59159 -4.79579 0
M  V30 3885 C 372.888 -1.9431 -4.76181 0
M  V30 3886 N 370.87 -2.82634 -5.44969 0
M  V30 3887 C 372.241 -3.02364 -5.41272 0
M  V30 3888 C 374.296 -1.95008 -4.58123 0
M  V30 3889 C 372.999 -4.1114 -5.90217 0
M  V30 3890 C 375.025 -3.02758 -5.08027 0
M  V30 3891 C 374.387 -4.09531 -5.73118 0
M  V30 3892 H 370.486 -0.026923 -0.781536 0
M  V30 3893 H 373.07 -0.673901 -1.82665 0
M  V30 3894 H 371.241 0.929139 -3.77123 0
M  V30 3895 H 372.973 0.782445 -3.97064 0
M  V30 3896 H 369.728 -1.13696 -4.5975 0
M  V30 3897 H 370.152 -3.45416 -5.82252 0
M  V30 3898 H 374.794 -1.13766 -4.07207 0
M  V30 3899 H 372.512 -4.93181 -6.40155 0
M  V30 3900 H 376.098 -3.04315 -4.95866 0
M  V30 3901 H 374.978 -4.91534 -6.11035 0
M  V30 3902 N 372.481 1.55866 -0.233164 0
M  V30 3903 C 373.709 2.02998 0.399905 0
M  V30 3904 C 374.124 1.11274 1.52524 0
M  V30 3905 O 373.481 0.124528 1.82075 0
M  V30 3906 C 373.532 3.4958 0.920639 0
M  V30 3907 O 373.253 4.37808 -0.159834 0
M  V30 3908 C 374.754 4.12411 1.62578 0
M  V30 3909 H 371.974 0.664006 0.0966281 0
M  V30 3910 H 374.518 2.0143 -0.353013 0
M  V30 3911 H 372.673 3.51727 1.62379 0
M  V30 3912 H 373.087 5.23981 0.23337 0
M  V30 3913 H 374.561 5.16711 1.94201 0
M  V30 3914 H 375.038 3.5809 2.54299 0
M  V30 3915 H 375.644 4.14148 0.967553 0
M  V30 3916 N 373.959 -0.0401083 1.57549 0
M  V30 3917 C 374.922 -1.02871 2.04817 0
M  V30 3918 C 375.922 -1.29708 0.950388 0
M  V30 3919 O 377.112 -1.24897 1.21435 0
M  V30 3920 C 374.244 -2.36443 2.45576 0
M  V30 3921 H 375.437 -0.620631 2.93408 0
M  V30 3922 H 372.99 -0.286667 1.53649 0
M  V30 3923 H 373.725 -2.82021 1.60108 0
M  V30 3924 H 373.51 -2.18296 3.25713 0
M  V30 3925 H 375 -3.07441 2.82612 0
M  V30 3926 N 375.437 -1.54477 -0.31217 0
M  V30 3927 C 376.385 -1.85395 -1.40469 0
M  V30 3928 C 377.379 -0.726749 -1.53019 0
M  V30 3929 O 378.585 -0.910582 -1.55269 0
M  V30 3930 H 374.96 -0.587845 -0.46898 0
M  V30 3931 H 376.931 -2.76736 -1.11623 0
M  V30 3932 C 375.68 -2.10811 -2.76503 0
M  V30 3933 H 375.003 -2.97014 -2.67625 0
M  V30 3934 H 376.443 -2.3639 -3.51988 0
M  V30 3935 C 374.902 -0.903165 -3.24568 0
M  V30 3936 O 375.432 -0.118085 -4.01526 0
M  V30 3937 N 373.638 -0.711634 -2.81752 0
M  V30 3938 H 373.185 -1.35171 -2.19286 0
M  V30 3939 H 373.143 0.0930473 -3.14262 0
M  V30 3940 O 376.954 0.458097 -1.54867 0
M  V30 3941 H 377.645 1.11218 -1.58588 0
M  V30 END ATOM
M  V30 BEGIN BOND
M  V30 END BOND
M  V30 END CTAB
M  END
$$$$
