drugbank_target|Q9WZX6 Ribosomal RNA small subunit methyltransferase H (DB01752)
 OpenBabel12092120223D

  0  0  0     0  0            999 V3000
M  V30 BEGIN CTAB
M  V30 COUNTS 6539 6978 0 0 0
M  V30 BEGIN ATOM
M  V30 1 H -2.588 8.49073 -0.0679273 0
M  V30 2 O -1.492 9.37262 0.0843559 0
M  V30 3 P 0 8.791 0 0
M  V30 4 O 1.422 9.31096 0.027933 0
M  V30 5 O -0.36 7.77869 -1.04071 0
M  V30 6 O -0.323 8.09533 1.41463 0
M  V30 7 C -0.483 9.0349 2.53943 0
M  V30 8 C 0.057 8.35226 3.79016 0
M  V30 9 O -0.999 7.57992 4.15078 0
M  V30 10 C 1.275 7.45087 3.67298 0
M  V30 11 O 2.013 7.27796 4.85194 0
M  V30 12 C 0.606 6.17323 3.12027 0
M  V30 13 O 1.405 5.04231 3.47188 0
M  V30 14 C -0.731 6.19961 3.81809 0
M  V30 15 H -0.699 5.58218 4.73051 0
M  V30 16 H 0.484 6.21726 2.02589 0
M  V30 17 H 1.968 7.86112 2.9231 0
M  V30 18 H 0.274 9.11627 4.55076 0
M  V30 19 H 0.084 9.9573 2.34194 0
M  V30 20 H -1.546 9.2792 2.67832 0
M  V30 21 H 1.093 4.67702 4.28772 0
M  V30 22 P 2.95057 7.39546 4.75277 0
M  V30 23 O 4.37157 7.81861 5.05793 0
M  V30 24 O 2.59057 7.1065 3.32998 0
M  V30 25 O 2.62757 6.04542 5.56673 0
M  V30 26 C 2.46657 6.22839 7.02169 0
M  V30 27 C 3.00757 4.97725 7.70406 0
M  V30 28 O 1.95257 4.13208 7.58899 0
M  V30 29 C 4.22557 4.28231 7.11815 0
M  V30 30 O 4.96357 3.49945 8.01648 0
M  V30 31 C 3.55757 3.5063 5.96244 0
M  V30 32 O 4.35557 2.37008 5.64352 0
M  V30 33 C 2.21957 3.15122 6.56374 0
M  V30 34 N 1.17657 3.22311 5.55692 0
M  V30 35 C 1.34557 3.99655 4.46046 0
M  V30 36 N 0.31857 3.97599 3.63918 0
M  V30 37 C -0.56643 3.11159 4.25334 0
M  V30 38 C -1.83343 2.64972 3.85157 0
M  V30 39 N -2.39843 1.78482 4.74759 0
M  V30 40 C -1.79643 1.37463 5.90819 0
M  V30 41 N -0.61943 1.7733 6.31889 0
M  V30 42 C -0.04443 2.64393 5.43725 0
M  V30 43 H 3.43457 4.12931 5.06895 0
M  V30 44 H 4.91757 5.03285 6.70911 0
M  V30 45 H 3.22357 5.20001 8.76217 0
M  V30 46 H 3.03357 7.11046 7.35349 0
M  V30 47 H 1.40357 6.35815 7.26986 0
M  V30 48 H 2.24557 4.58037 4.27732 0
M  V30 49 H 4.04357 1.61619 6.13468 0
M  V30 50 P 5.90114 3.65191 7.99657 0
M  V30 51 O 7.32314 3.8425 8.48115 0
M  V30 52 O 5.54114 4.17805 6.64342 0
M  V30 53 O 5.57814 2.07613 7.95143 0
M  V30 54 C 5.41814 1.44328 9.27336 0
M  V30 55 C 5.95814 0.0220036 9.17197 0
M  V30 56 O 4.90214 -0.626867 8.61923 0
M  V30 57 C 7.17614 -0.24586 8.30336 0
M  V30 58 O 7.91414 -1.39011 8.63583 0
M  V30 59 C 6.50714 -0.273849 6.91158 0
M  V30 60 O 7.30614 -1.06348 6.02892 0
M  V30 61 C 5.17014 -0.897649 7.22545 0
M  V30 62 H 5.20214 -1.9841 7.04286 0
M  V30 63 H 6.38514 0.739928 6.497 0
M  V30 64 H 7.86914 0.60668 8.36503 0
M  V30 65 H 6.17514 -0.352479 10.1829 0
M  V30 66 H 5.98514 2.00611 10.0304 0
M  V30 67 H 4.35514 1.41843 9.55327 0
M  V30 68 H 6.99414 -1.95734 6.03555 0
M  V30 69 P 8.85171 -1.25109 8.70152 0
M  V30 70 O 10.2527 -1.31452 9.27431 0
M  V30 71 O 8.47371 -0.0458113 7.89887 0
M  V30 72 O 8.52871 -2.55201 7.81066 0
M  V30 73 C 8.36871 -3.79939 8.58154 0
M  V30 74 C 8.90871 -4.93969 7.72701 0
M  V30 75 O 7.85271 -5.18666 6.91125 0
M  V30 76 C 10.1257 -4.69597 6.85231 0
M  V30 77 O 10.8647 -5.83832 6.51337 0
M  V30 78 C 9.45871 -3.96706 5.66633 0
M  V30 79 O 10.2567 -4.15346 4.49615 0
M  V30 80 C 8.12071 -4.66153 5.59313 0
M  V30 81 N 7.07771 -3.71582 5.24027 0
M  V30 82 C 6.04271 -4.15133 4.44901 0
M  V30 83 O 6.08171 -5.32122 4.00336 0
M  V30 84 N 5.03071 -3.30554 4.15693 0
M  V30 85 C 5.07871 -2.04701 4.61105 0
M  V30 86 C 6.17471 -1.57111 5.38655 0
M  V30 87 C 7.14071 -2.44234 5.68454 0
M  V30 88 H 8.15271 -5.47604 4.85148 0
M  V30 89 H 9.33571 -2.8955 5.86187 0
M  V30 90 H 10.8197 -4.01995 7.36197 0
M  V30 91 H 9.12571 -5.81019 8.37003 0
M  V30 92 H 8.93471 -3.73517 9.52265 0
M  V30 93 H 7.30471 -3.97122 8.80267 0
M  V30 94 H 6.22271 -0.538464 5.72373 0
M  V30 95 H 7.98671 -2.11927 6.29377 0
M  V30 96 H 10.0407 -4.98352 4.09633 0
M  V30 97 P 11.8023 -5.75688 6.64379 0
M  V30 98 O 13.2243 -6.11849 7.01846 0
M  V30 99 O 11.4423 -4.30744 6.56026 0
M  V30 100 O 11.4793 -6.37042 5.19165 0
M  V30 101 C 11.3193 -7.83578 5.16515 0
M  V30 102 C 11.8593 -8.33398 3.83019 0
M  V30 103 O 10.8033 -8.10074 3.01034 0
M  V30 104 C 13.0773 -7.65514 3.2257 0
M  V30 105 O 13.8153 -8.4329 2.32297 0
M  V30 106 C 12.4083 -6.40075 2.62207 0
M  V30 107 O 13.2073 -5.92589 1.53712 0
M  V30 108 C 11.0713 -6.9454 2.18503 0
M  V30 109 H 11.1033 -7.23063 1.12091 0
M  V30 110 H 12.2863 -5.6025 3.37201 0
M  V30 111 H 13.7703 -7.35707 4.02681 0
M  V30 112 H 12.0763 -9.40912 3.9095 0
M  V30 113 H 11.8863 -8.29056 5.99158 0
M  V30 114 H 10.2563 -8.10073 5.25882 0
M  V30 115 H 12.8953 -6.30324 0.726794 0
M  V30 116 P 14.7528 -8.4349 2.47671 0
M  V30 117 O 16.1748 -8.94167 2.5964 0
M  V30 118 O 14.3928 -7.1704 3.19006 0
M  V30 119 O 14.4298 -8.16596 0.923387 0
M  V30 120 C 14.2698 -9.38437 0.108857 0
M  V30 121 C 14.8098 -9.08175 -1.28353 0
M  V30 122 O 13.7538 -8.44229 -1.84713 0
M  V30 123 C 16.0278 -8.18386 -1.42505 0
M  V30 124 O 16.7659 -8.3501 -2.60497 0
M  V30 125 C 15.3588 -6.80225 -1.25468 0
M  V30 126 O 16.1578 -5.81621 -1.91066 0
M  V30 127 C 14.0218 -7.02416 -1.9168 0
M  V30 128 H 14.0538 -6.6888 -2.96621 0
M  V30 129 H 15.2368 -6.53617 -0.192223 0
M  V30 130 H 16.7208 -8.36622 -0.589963 0
M  V30 131 H 15.0268 -10.0291 -1.79807 0
M  V30 132 H 14.8368 -10.2138 0.558219 0
M  V30 133 H 13.2068 -9.6579 0.0444202 0
M  V30 134 H 15.8458 -5.69556 -2.79637 0
M  V30 135 P 17.7034 -8.4349 -2.47671 0
M  V30 136 O 19.1244 -8.92689 -2.65029 0
M  V30 137 O 17.3434 -7.7568 -1.19296 0
M  V30 138 O 17.3804 -7.36886 -3.63805 0
M  V30 139 C 17.2194 -7.95433 -4.98253 0
M  V30 140 C 17.7604 -6.94612 -5.98974 0
M  V30 141 O 16.7054 -6.10277 -6.11744 0
M  V30 142 C 18.9784 -6.11426 -5.62335 0
M  V30 143 O 19.7164 -5.6162 -6.70584 0
M  V30 144 C 18.3104 -5.04409 -4.73308 0
M  V30 145 O 19.1084 -3.86404 -4.74719 0
M  V30 146 C 16.9724 -4.8728 -5.41006 0
M  V30 147 N 15.9294 -4.65812 -4.42377 0
M  V30 148 C 16.0984 -5.09132 -3.15382 0
M  V30 149 N 15.0714 -4.84021 -2.3716 0
M  V30 150 C 14.1864 -4.18386 -3.20441 0
M  V30 151 C 12.9194 -3.6275 -2.94905 0
M  V30 152 N 12.3544 -3.05008 -4.05243 0
M  V30 153 C 12.9564 -2.98348 -5.28159 0
M  V30 154 N 14.1334 -3.48171 -5.56333 0
M  V30 155 C 14.7084 -4.06869 -4.47212 0
M  V30 156 H 18.1874 -5.39013 -3.70026 0
M  V30 157 H 19.6704 -6.71916 -5.01943 0
M  V30 158 H 17.9764 -7.45796 -6.94223 0
M  V30 159 H 17.7864 -8.89416 -5.05237 0
M  V30 160 H 16.1564 -8.14876 -5.18409 0
M  V30 161 H 16.9984 -5.59989 -2.81362 0
M  V30 162 H 18.7964 -3.27906 -5.43085 0
M  V30 163 P 20.654 -5.75688 -6.64379 0
M  V30 164 O 22.076 -6.07627 -7.05504 0
M  V30 165 O 20.294 -5.88047 -5.19722 0
M  V30 166 O 20.331 -4.2322 -7.04443 0
M  V30 167 C 20.171 -3.99743 -8.4911 0
M  V30 168 C 20.711 -2.60516 -8.79425 0
M  V30 169 O 19.655 -1.82684 -8.4467 0
M  V30 170 C 21.929 -2.10343 -8.03628 0
M  V30 171 O 22.667 -1.09919 -8.67766 0
M  V30 172 C 21.26 -1.68446 -6.70876 0
M  V30 173 O 22.059 -0.678137 -6.08433 0
M  V30 174 C 19.923 -1.17436 -7.18567 0
M  V30 175 H 19.955 -0.0804732 -7.31656 0
M  V30 176 H 21.138 -2.54037 -6.02537 0
M  V30 177 H 22.622 -2.93881 -7.85526 0
M  V30 178 H 20.928 -2.53065 -9.86973 0
M  V30 179 H 20.738 -4.75072 -9.05887 0
M  V30 180 H 19.108 -4.05244 -8.76668 0
M  V30 181 H 21.747 0.177647 -6.34251 0
M  V30 182 P 23.6046 -1.25109 -8.70152 0
M  V30 183 O 25.0266 -1.29744 -9.22016 0
M  V30 184 O 23.2446 -2.13714 -7.55141 0
M  V30 185 O 23.2816 0.248149 -8.21425 0
M  V30 186 C 23.1216 1.22779 -9.30434 0
M  V30 187 C 23.6616 2.56293 -8.80664 0
M  V30 188 O 22.6056 3.02979 -8.09349 0
M  V30 189 C 24.8796 2.57523 -7.89775 0
M  V30 190 O 25.6176 3.7668 -7.89438 0
M  V30 191 C 24.2106 2.20997 -6.55446 0
M  V30 192 O 25.0096 2.71895 -5.48509 0
M  V30 193 C 22.8736 2.89693 -6.67988 0
M  V30 194 H 22.9056 3.88793 -6.19859 0
M  V30 195 H 24.0886 1.12046 -6.44229 0
M  V30 196 H 25.5726 1.7746 -8.19711 0
M  V30 197 H 23.8786 3.20706 -9.67112 0
M  V30 198 H 23.6886 0.901032 -10.1892 0
M  V30 199 H 22.0586 1.33049 -9.56592 0
M  V30 200 H 24.6976 3.57847 -5.23962 0
M  V30 201 P 26.5551 3.65191 -7.99657 0
M  V30 202 O 27.9771 3.89332 -8.45794 0
M  V30 203 O 26.1951 2.28472 -7.50807 0
M  V30 204 O 26.2321 4.64972 -6.77611 0
M  V30 205 C 26.0721 6.06319 -7.16352 0
M  V30 206 C 26.6121 6.91731 -6.02299 0
M  V30 207 O 25.5561 6.92449 -5.17064 0
M  V30 208 C 27.8301 6.43627 -5.25174 0
M  V30 209 O 28.5681 7.43686 -4.60469 0
M  V30 210 C 27.1611 5.40275 -4.31916 0
M  V30 211 O 27.9601 5.25279 -3.14438 0
M  V30 212 C 25.8241 6.04847 -4.05327 0
M  V30 213 H 25.8561 6.62195 -3.11261 0
M  V30 214 H 27.0391 4.42556 -4.81383 0
M  V30 215 H 28.5231 5.92458 -5.93643 0
M  V30 216 H 26.8291 7.92655 -6.402 0
M  V30 217 H 26.6391 6.26671 -8.0846 0
M  V30 218 H 25.0091 6.29101 -7.32804 0
M  V30 219 H 27.6481 5.84315 -2.47318 0
M  V30 220 P 29.5057 7.39546 -4.75277 0
M  V30 221 O 30.9277 7.84798 -5.01039 0
M  V30 222 O 29.1457 5.9812 -5.08098 0
M  V30 223 O 29.1827 7.57503 -3.1866 0
M  V30 224 C 29.0227 8.97357 -2.74833 0
M  V30 225 C 29.5627 9.07548 -1.32709 0
M  V30 226 O 28.5067 8.62072 -0.606159 0
M  V30 227 C 30.7807 8.25383 -0.938334 0
M  V30 228 O 31.5187 8.74577 0.146954 0
M  V30 229 C 30.1117 6.8802 -0.712559 0
M  V30 230 O 30.9107 6.1189 0.194655 0
M  V30 231 C 28.7747 7.27966 -0.139777 0
M  V30 232 H 28.8067 7.25354 0.961601 0
M  V30 233 H 29.9897 6.32557 -1.65702 0
M  V30 234 H 31.4737 8.19355 -1.79097 0
M  V30 235 H 29.7797 10.1294 -1.10029 0
M  V30 236 H 29.5897 9.64276 -3.41316 0
M  V30 237 H 27.9597 9.25417 -2.76357 0
M  V30 238 H 30.5987 6.25267 1.07847 0
M  V30 239 P 32.4563 8.791 -9.96115e-15 0
M  V30 240 O 33.8783 9.31096 0.027933 0
M  V30 241 O 32.0963 7.77869 -1.04071 0
M  V30 242 O 32.1333 8.09533 1.41463 0
M  V30 243 C 31.9733 9.0349 2.53943 0
M  V30 244 C 32.5133 8.35226 3.79016 0
M  V30 245 O 31.4573 7.57992 4.15078 0
M  V30 246 C 33.7313 7.45087 3.67298 0
M  V30 247 O 34.4693 7.27796 4.85194 0
M  V30 248 C 33.0623 6.17323 3.12027 0
M  V30 249 O 33.8613 5.04231 3.47188 0
M  V30 250 C 31.7253 6.19961 3.81809 0
M  V30 251 H 31.7573 5.58218 4.73051 0
M  V30 252 H 32.9403 6.21726 2.02589 0
M  V30 253 H 34.4243 7.86112 2.9231 0
M  V30 254 H 32.7303 9.11627 4.55076 0
M  V30 255 H 32.5403 9.9573 2.34194 0
M  V30 256 H 30.9103 9.2792 2.67832 0
M  V30 257 H 33.5493 4.67702 4.28772 0
M  V30 258 P 35.4068 7.39546 4.75277 0
M  V30 259 O 36.8288 7.81777 5.05738 0
M  V30 260 O 35.0468 7.1065 3.32998 0
M  V30 261 O 35.0838 6.04542 5.56673 0
M  V30 262 C 34.9238 6.22772 7.02095 0
M  V30 263 C 35.4638 4.97725 7.70406 0
M  V30 264 O 34.4078 4.13256 7.58987 0
M  V30 265 C 36.6818 4.28231 7.11815 0
M  V30 266 O 37.4198 3.49945 8.01648 0
M  V30 267 C 36.0128 3.5063 5.96244 0
M  V30 268 O 36.8118 2.36482 5.64681 0
M  V30 269 C 34.6758 3.15122 6.56374 0
M  V30 270 H 34.7078 2.13853 6.99751 0
M  V30 271 H 35.8908 4.13501 5.06559 0
M  V30 272 H 37.3748 5.03285 6.70911 0
M  V30 273 H 35.6808 5.20877 8.75697 0
M  V30 274 H 35.4908 7.11046 7.35349 0
M  V30 275 H 33.8608 6.35815 7.26986 0
M  V30 276 H 36.4998 1.61644 6.13565 0
M  V30 277 P 38.3574 3.65191 7.99657 0
M  V30 278 O 39.7784 3.84292 8.48206 0
M  V30 279 O 37.9974 4.17805 6.64342 0
M  V30 280 O 38.0344 2.07613 7.95143 0
M  V30 281 C 37.8734 1.44344 9.27435 0
M  V30 282 C 38.4144 0.0220036 9.17197 0
M  V30 283 O 37.3594 -0.626794 8.61824 0
M  V30 284 C 39.6324 -0.24586 8.30336 0
M  V30 285 O 40.3704 -1.39011 8.63583 0
M  V30 286 C 38.9644 -0.273849 6.91158 0
M  V30 287 O 39.7624 -1.05728 6.029 0
M  V30 288 C 37.6264 -0.897649 7.22545 0
M  V30 289 N 36.5834 -0.292839 6.41732 0
M  V30 290 C 36.7524 0.950603 5.91308 0
M  V30 291 N 35.7254 1.37732 5.21105 0
M  V30 292 C 34.8404 0.318109 5.26039 0
M  V30 293 C 33.5734 0.146766 4.6727 0
M  V30 294 N 33.0084 -1.06525 4.95887 0
M  V30 295 C 33.6104 -2.0378 5.71347 0
M  V30 296 N 34.7874 -1.92445 6.27451 0
M  V30 297 C 35.3624 -0.715382 6.00353 0
M  V30 298 H 38.8414 0.733318 6.49674 0
M  V30 299 H 40.3244 0.60668 8.36503 0
M  V30 300 H 38.6304 -0.362662 10.1825 0
M  V30 301 H 38.4404 2.00611 10.0304 0
M  V30 302 H 36.8104 1.41843 9.55327 0
M  V30 303 H 37.6524 1.54076 6.07465 0
M  V30 304 H 39.4504 -1.95704 6.0346 0
M  V30 305 P 41.308 -1.25109 8.70152 0
M  V30 306 O 42.73 -1.35274 9.21221 0
M  V30 307 O 40.948 -0.0769065 7.84762 0
M  V30 308 O 40.985 -2.55232 7.81161 0
M  V30 309 C 40.825 -3.79939 8.58154 0
M  V30 310 C 41.365 -4.94023 7.72785 0
M  V30 311 O 40.309 -5.18726 6.91205 0
M  V30 312 C 42.583 -4.69597 6.85231 0
M  V30 313 O 43.321 -5.83832 6.51337 0
M  V30 314 C 41.914 -3.96706 5.66633 0
M  V30 315 O 42.713 -4.15414 4.49689 0
M  V30 316 C 40.577 -4.66153 5.59313 0
M  V30 317 H 40.609 -5.47679 4.85214 0
M  V30 318 H 41.792 -2.89008 5.86566 0
M  V30 319 H 43.276 -4.0121 7.36511 0
M  V30 320 H 41.582 -5.80182 8.37584 0
M  V30 321 H 41.392 -3.73517 9.52265 0
M  V30 322 H 39.762 -3.97163 8.80359 0
M  V30 323 H 42.401 -4.90969 4.01921 0
M  V30 324 P 44.2585 -5.75688 6.64379 0
M  V30 325 O 45.6805 -6.11849 7.01846 0
M  V30 326 O 43.8985 -4.30744 6.56026 0
M  V30 327 O 43.9355 -6.37042 5.19165 0
M  V30 328 C 43.7755 -7.83578 5.16515 0
M  V30 329 C 44.3155 -8.33398 3.83019 0
M  V30 330 O 43.2595 -8.10074 3.01034 0
M  V30 331 C 45.5335 -7.65514 3.2257 0
M  V30 332 O 46.2715 -8.4329 2.32297 0
M  V30 333 C 44.8645 -6.40075 2.62207 0
M  V30 334 O 45.6635 -5.92589 1.53712 0
M  V30 335 C 43.5275 -6.9454 2.18503 0
M  V30 336 H 43.5595 -7.23063 1.12091 0
M  V30 337 H 44.7425 -5.6025 3.37201 0
M  V30 338 H 46.2265 -7.35707 4.02681 0
M  V30 339 H 44.5325 -9.40912 3.9095 0
M  V30 340 H 44.3425 -8.29056 5.99158 0
M  V30 341 H 42.7125 -8.10073 5.25882 0
M  V30 342 H 45.3515 -6.30324 0.726794 0
M  V30 343 P 47.2091 -8.4349 2.47671 0
M  V30 344 O 48.6311 -8.94167 2.5964 0
M  V30 345 O 46.8491 -7.1704 3.19006 0
M  V30 346 O 46.8861 -8.16596 0.923387 0
M  V30 347 C 46.7261 -9.38437 0.108857 0
M  V30 348 C 47.2661 -9.08175 -1.28353 0
M  V30 349 O 46.2101 -8.44229 -1.84713 0
M  V30 350 C 48.4841 -8.18386 -1.42505 0
M  V30 351 O 49.2221 -8.3501 -2.60497 0
M  V30 352 C 47.8151 -6.80225 -1.25468 0
M  V30 353 O 48.6141 -5.81621 -1.91066 0
M  V30 354 C 46.4781 -7.02416 -1.9168 0
M  V30 355 H 46.5101 -6.6888 -2.96621 0
M  V30 356 H 47.6931 -6.53617 -0.192223 0
M  V30 357 H 49.1771 -8.36622 -0.589963 0
M  V30 358 H 47.4831 -10.0291 -1.79807 0
M  V30 359 H 47.2931 -10.2138 0.558219 0
M  V30 360 H 45.6631 -9.6579 0.0444202 0
M  V30 361 H 48.3021 -5.69556 -2.79637 0
M  V30 362 P 50.1597 -8.4349 -2.47671 0
M  V30 363 O 51.5817 -8.92593 -2.65 0
M  V30 364 O 49.7997 -7.7568 -1.19296 0
M  V30 365 O 49.8367 -7.36886 -3.63805 0
M  V30 366 C 49.6767 -7.95349 -4.982 0
M  V30 367 C 50.2167 -6.94612 -5.98974 0
M  V30 368 O 49.1607 -6.10347 -6.11815 0
M  V30 369 C 51.4347 -6.11426 -5.62335 0
M  V30 370 O 52.1727 -5.6162 -6.70584 0
M  V30 371 C 50.7657 -5.04409 -4.73308 0
M  V30 372 O 51.5647 -3.85992 -4.75183 0
M  V30 373 C 49.4287 -4.8728 -5.41006 0
M  V30 374 H 49.4607 -4.02333 -6.11157 0
M  V30 375 H 50.6437 -5.39466 -3.69543 0
M  V30 376 H 52.1277 -6.71916 -5.01943 0
M  V30 377 H 50.4337 -7.4649 -6.93477 0
M  V30 378 H 50.2437 -8.89416 -5.05237 0
M  V30 379 H 48.6137 -8.14876 -5.18409 0
M  V30 380 H 51.2527 -3.27957 -5.4317 0
M  V30 381 P 53.1103 -5.75688 -6.64379 0
M  V30 382 O 54.5323 -6.07627 -7.05504 0
M  V30 383 O 52.7503 -5.88047 -5.19722 0
M  V30 384 O 52.7873 -4.2322 -7.04443 0
M  V30 385 C 52.6273 -3.99743 -8.4911 0
M  V30 386 C 53.1673 -2.60516 -8.79425 0
M  V30 387 O 52.1113 -1.82684 -8.4467 0
M  V30 388 C 54.3853 -2.10343 -8.03628 0
M  V30 389 O 55.1233 -1.09919 -8.67766 0
M  V30 390 C 53.7163 -1.68446 -6.70876 0
M  V30 391 O 54.5153 -0.678137 -6.08433 0
M  V30 392 C 52.3793 -1.17436 -7.18567 0
M  V30 393 H 52.4113 -0.0804732 -7.31656 0
M  V30 394 H 53.5943 -2.54037 -6.02537 0
M  V30 395 H 55.0783 -2.93881 -7.85526 0
M  V30 396 H 53.3843 -2.53065 -9.86973 0
M  V30 397 H 53.1943 -4.75072 -9.05887 0
M  V30 398 H 51.5643 -4.05244 -8.76668 0
M  V30 399 H 54.2033 0.177647 -6.34251 0
M  V30 400 P 56.0608 -1.25109 -8.70152 0
M  V30 401 O 57.4828 -1.29744 -9.22016 0
M  V30 402 O 55.7008 -2.13714 -7.55141 0
M  V30 403 O 55.7378 0.248149 -8.21425 0
M  V30 404 C 55.5778 1.22779 -9.30434 0
M  V30 405 C 56.1178 2.56293 -8.80664 0
M  V30 406 O 55.0618 3.02979 -8.09349 0
M  V30 407 C 57.3358 2.57523 -7.89775 0
M  V30 408 O 58.0738 3.7668 -7.89438 0
M  V30 409 C 56.6668 2.20997 -6.55446 0
M  V30 410 O 57.4658 2.71895 -5.48509 0
M  V30 411 C 55.3298 2.89693 -6.67988 0
M  V30 412 H 55.3618 3.88793 -6.19859 0
M  V30 413 H 56.5448 1.12046 -6.44229 0
M  V30 414 H 58.0288 1.7746 -8.19711 0
M  V30 415 H 56.3348 3.20706 -9.67112 0
M  V30 416 H 56.1448 0.901032 -10.1892 0
M  V30 417 H 54.5148 1.33049 -9.56592 0
M  V30 418 H 57.1538 3.57847 -5.23962 0
M  V30 419 P 59.0114 3.65191 -7.99657 0
M  V30 420 O 60.4334 3.89332 -8.45794 0
M  V30 421 O 58.6514 2.28472 -7.50807 0
M  V30 422 O 58.6884 4.64972 -6.77611 0
M  V30 423 C 58.5284 6.06319 -7.16352 0
M  V30 424 C 59.0684 6.91731 -6.02299 0
M  V30 425 O 58.0124 6.92449 -5.17064 0
M  V30 426 C 60.2864 6.43627 -5.25174 0
M  V30 427 O 61.0244 7.43686 -4.60469 0
M  V30 428 C 59.6174 5.40275 -4.31916 0
M  V30 429 O 60.4164 5.25279 -3.14438 0
M  V30 430 C 58.2804 6.04847 -4.05327 0
M  V30 431 H 58.3124 6.62195 -3.11261 0
M  V30 432 H 59.4954 4.42556 -4.81383 0
M  V30 433 H 60.9794 5.92458 -5.93643 0
M  V30 434 H 59.2854 7.92655 -6.402 0
M  V30 435 H 59.0954 6.26671 -8.0846 0
M  V30 436 H 57.4654 6.29101 -7.32804 0
M  V30 437 H 60.1044 5.84315 -2.47318 0
M  V30 438 P 61.962 7.39546 -4.75277 0
M  V30 439 O 63.384 7.84798 -5.01039 0
M  V30 440 O 61.602 5.9812 -5.08098 0
M  V30 441 O 61.639 7.57503 -3.1866 0
M  V30 442 C 61.479 8.97357 -2.74833 0
M  V30 443 C 62.019 9.07548 -1.32709 0
M  V30 444 O 60.963 8.62072 -0.606159 0
M  V30 445 C 63.237 8.25383 -0.938334 0
M  V30 446 O 63.975 8.74577 0.146954 0
M  V30 447 C 62.568 6.8802 -0.712559 0
M  V30 448 O 63.367 6.1189 0.194655 0
M  V30 449 C 61.231 7.27966 -0.139777 0
M  V30 450 H 61.263 7.25354 0.961601 0
M  V30 451 H 62.446 6.32557 -1.65702 0
M  V30 452 H 63.93 8.19355 -1.79097 0
M  V30 453 H 62.236 10.1294 -1.10029 0
M  V30 454 H 62.046 9.64276 -3.41316 0
M  V30 455 H 60.416 9.25417 -2.76357 0
M  V30 456 H 63.055 6.25267 1.07847 0
M  V30 457 P 64.9125 8.791 -3.55383e-14 0
M  V30 458 O 66.3345 9.31096 0.027933 0
M  V30 459 O 64.5525 7.77869 -1.04071 0
M  V30 460 O 64.5895 8.09533 1.41463 0
M  V30 461 C 64.4295 9.0349 2.53943 0
M  V30 462 C 64.9695 8.35226 3.79016 0
M  V30 463 O 63.9135 7.57992 4.15078 0
M  V30 464 C 66.1875 7.45087 3.67298 0
M  V30 465 O 66.9255 7.27796 4.85194 0
M  V30 466 C 65.5185 6.17323 3.12027 0
M  V30 467 O 66.3175 5.04231 3.47188 0
M  V30 468 C 64.1815 6.19961 3.81809 0
M  V30 469 H 64.2135 5.58218 4.73051 0
M  V30 470 H 65.3965 6.21726 2.02589 0
M  V30 471 H 66.8805 7.86112 2.9231 0
M  V30 472 H 65.1865 9.11627 4.55076 0
M  V30 473 H 64.9965 9.9573 2.34194 0
M  V30 474 H 63.3665 9.2792 2.67832 0
M  V30 475 H 66.0055 4.67702 4.28772 0
M  V30 476 P 67.8631 7.39546 4.75277 0
M  V30 477 O 69.2851 7.81777 5.05738 0
M  V30 478 O 67.5031 7.1065 3.32998 0
M  V30 479 O 67.5401 6.04542 5.56673 0
M  V30 480 C 67.3801 6.22772 7.02095 0
M  V30 481 C 67.9201 4.97725 7.70406 0
M  V30 482 O 66.8641 4.13256 7.58987 0
M  V30 483 C 69.1381 4.28231 7.11815 0
M  V30 484 O 69.8761 3.49945 8.01648 0
M  V30 485 C 68.4691 3.5063 5.96244 0
M  V30 486 O 69.2681 2.36482 5.64681 0
M  V30 487 C 67.1321 3.15122 6.56374 0
M  V30 488 H 67.1641 2.13853 6.99751 0
M  V30 489 H 68.3471 4.13501 5.06559 0
M  V30 490 H 69.8311 5.03285 6.70911 0
M  V30 491 H 68.1371 5.20877 8.75697 0
M  V30 492 H 67.9471 7.11046 7.35349 0
M  V30 493 H 66.3171 6.35815 7.26986 0
M  V30 494 H 68.9561 1.61644 6.13565 0
M  V30 495 P 70.8137 3.65191 7.99657 0
M  V30 496 O 72.2357 3.8425 8.48115 0
M  V30 497 O 70.4537 4.17805 6.64342 0
M  V30 498 O 70.4907 2.07613 7.95143 0
M  V30 499 C 70.3307 1.44328 9.27336 0
M  V30 500 C 70.8707 0.0220036 9.17197 0
M  V30 501 O 69.8147 -0.626867 8.61923 0
M  V30 502 C 72.0887 -0.24586 8.30336 0
M  V30 503 O 72.8267 -1.39011 8.63583 0
M  V30 504 C 71.4197 -0.273849 6.91158 0
M  V30 505 O 72.2187 -1.06348 6.02892 0
M  V30 506 C 70.0827 -0.897649 7.22545 0
M  V30 507 H 70.1147 -1.9841 7.04286 0
M  V30 508 H 71.2977 0.739928 6.497 0
M  V30 509 H 72.7817 0.60668 8.36503 0
M  V30 510 H 71.0877 -0.352479 10.1829 0
M  V30 511 H 70.8977 2.00611 10.0304 0
M  V30 512 H 69.2677 1.41843 9.55327 0
M  V30 513 H 71.9067 -1.95734 6.03555 0
M  V30 514 P 73.7642 -1.25109 8.70152 0
M  V30 515 O 75.1862 -1.35274 9.21221 0
M  V30 516 O 73.4042 -0.0769065 7.84762 0
M  V30 517 O 73.4412 -2.55232 7.81161 0
M  V30 518 C 73.2812 -3.79939 8.58154 0
M  V30 519 C 73.8212 -4.94023 7.72785 0
M  V30 520 O 72.7652 -5.18726 6.91205 0
M  V30 521 C 75.0392 -4.69597 6.85231 0
M  V30 522 O 75.7772 -5.83832 6.51337 0
M  V30 523 C 74.3702 -3.96706 5.66633 0
M  V30 524 O 75.1692 -4.15414 4.49689 0
M  V30 525 C 73.0332 -4.66153 5.59313 0
M  V30 526 H 73.0652 -5.47679 4.85214 0
M  V30 527 H 74.2482 -2.89008 5.86566 0
M  V30 528 H 75.7322 -4.0121 7.36511 0
M  V30 529 H 74.0382 -5.80182 8.37584 0
M  V30 530 H 73.8482 -3.73517 9.52265 0
M  V30 531 H 72.2182 -3.97163 8.80359 0
M  V30 532 H 74.8572 -4.90969 4.01921 0
M  V30 533 P 76.7148 -5.75688 6.64379 0
M  V30 534 O 78.1368 -6.11849 7.01846 0
M  V30 535 O 76.3548 -4.30744 6.56026 0
M  V30 536 O 76.3918 -6.37042 5.19165 0
M  V30 537 C 76.2318 -7.83578 5.16515 0
M  V30 538 C 76.7718 -8.33398 3.83019 0
M  V30 539 O 75.7158 -8.10074 3.01034 0
M  V30 540 C 77.9898 -7.65514 3.2257 0
M  V30 541 O 78.7278 -8.4329 2.32297 0
M  V30 542 C 77.3208 -6.40075 2.62207 0
M  V30 543 O 78.1198 -5.92589 1.53712 0
M  V30 544 C 75.9838 -6.9454 2.18503 0
M  V30 545 H 76.0158 -7.23063 1.12091 0
M  V30 546 H 77.1988 -5.6025 3.37201 0
M  V30 547 H 78.6828 -7.35707 4.02681 0
M  V30 548 H 76.9888 -9.40912 3.9095 0
M  V30 549 H 76.7988 -8.29056 5.99158 0
M  V30 550 H 75.1688 -8.10073 5.25882 0
M  V30 551 H 77.8078 -6.30324 0.726794 0
M  V30 552 P 79.6654 -8.4349 2.47671 0
M  V30 553 O 81.0874 -8.94167 2.5964 0
M  V30 554 O 79.3054 -7.1704 3.19006 0
M  V30 555 O 79.3424 -8.16596 0.923387 0
M  V30 556 C 79.1824 -9.38437 0.108857 0
M  V30 557 C 79.7224 -9.08175 -1.28353 0
M  V30 558 O 78.6664 -8.44229 -1.84713 0
M  V30 559 C 80.9404 -8.18386 -1.42505 0
M  V30 560 O 81.6784 -8.3501 -2.60497 0
M  V30 561 C 80.2714 -6.80225 -1.25468 0
M  V30 562 O 81.0704 -5.81621 -1.91066 0
M  V30 563 C 78.9344 -7.02416 -1.9168 0
M  V30 564 H 78.9664 -6.6888 -2.96621 0
M  V30 565 H 80.1494 -6.53617 -0.192223 0
M  V30 566 H 81.6334 -8.36622 -0.589963 0
M  V30 567 H 79.9394 -10.0291 -1.79807 0
M  V30 568 H 79.7494 -10.2138 0.558219 0
M  V30 569 H 78.1194 -9.6579 0.0444202 0
M  V30 570 H 80.7584 -5.69556 -2.79637 0
M  V30 571 P 82.616 -8.4349 -2.47671 0
M  V30 572 O 84.038 -8.92593 -2.65 0
M  V30 573 O 82.256 -7.7568 -1.19296 0
M  V30 574 O 82.293 -7.36886 -3.63805 0
M  V30 575 C 82.133 -7.95349 -4.982 0
M  V30 576 C 82.673 -6.94612 -5.98974 0
M  V30 577 O 81.617 -6.10347 -6.11815 0
M  V30 578 C 83.891 -6.11426 -5.62335 0
M  V30 579 O 84.629 -5.6162 -6.70584 0
M  V30 580 C 83.222 -5.04409 -4.73308 0
M  V30 581 O 84.021 -3.85992 -4.75183 0
M  V30 582 C 81.885 -4.8728 -5.41006 0
M  V30 583 H 81.917 -4.02333 -6.11157 0
M  V30 584 H 83.1 -5.39466 -3.69543 0
M  V30 585 H 84.584 -6.71916 -5.01943 0
M  V30 586 H 82.89 -7.4649 -6.93477 0
M  V30 587 H 82.7 -8.89416 -5.05237 0
M  V30 588 H 81.07 -8.14876 -5.18409 0
M  V30 589 H 83.709 -3.27957 -5.4317 0
M  V30 590 P 85.5665 -5.75688 -6.64379 0
M  V30 591 O 86.9885 -6.07627 -7.05504 0
M  V30 592 O 85.2065 -5.88047 -5.19722 0
M  V30 593 O 85.2435 -4.2322 -7.04443 0
M  V30 594 C 85.0835 -3.99743 -8.4911 0
M  V30 595 C 85.6235 -2.60516 -8.79425 0
M  V30 596 O 84.5675 -1.82684 -8.4467 0
M  V30 597 C 86.8415 -2.10343 -8.03628 0
M  V30 598 O 87.5795 -1.09919 -8.67766 0
M  V30 599 C 86.1725 -1.68446 -6.70876 0
M  V30 600 O 86.9715 -0.678137 -6.08433 0
M  V30 601 C 84.8355 -1.17436 -7.18567 0
M  V30 602 H 84.8675 -0.0804732 -7.31656 0
M  V30 603 H 86.0505 -2.54037 -6.02537 0
M  V30 604 H 87.5345 -2.93881 -7.85526 0
M  V30 605 H 85.8405 -2.53065 -9.86973 0
M  V30 606 H 85.6505 -4.75072 -9.05887 0
M  V30 607 H 84.0205 -4.05244 -8.76668 0
M  V30 608 H 86.6595 0.177647 -6.34251 0
M  V30 609 P 88.5171 -1.25109 -8.70152 0
M  V30 610 O 89.9181 -1.3516 -9.26897 0
M  V30 611 O 88.1391 -2.18141 -7.59181 0
M  V30 612 O 88.1941 0.248118 -8.21325 0
M  V30 613 C 88.0341 1.22779 -9.30434 0
M  V30 614 C 88.5741 2.56265 -8.80568 0
M  V30 615 O 87.5181 3.02944 -8.09255 0
M  V30 616 C 89.7911 2.57523 -7.89775 0
M  V30 617 O 90.5301 3.7668 -7.89438 0
M  V30 618 C 89.1241 2.20997 -6.55446 0
M  V30 619 O 89.9221 2.71851 -5.48419 0
M  V30 620 C 87.7861 2.89693 -6.67988 0
M  V30 621 N 86.7431 2.08895 -6.07487 0
M  V30 622 C 85.7081 2.72974 -5.43836 0
M  V30 623 O 85.7471 3.97779 -5.34036 0
M  V30 624 N 84.6961 2.0005 -4.91983 0
M  V30 625 C 84.7441 0.66501 -5.00098 0
M  V30 626 N 83.7341 -0.0305439 -4.4919 0
M  V30 627 C 85.8401 -0.0100979 -5.61099 0
M  V30 628 C 86.8061 0.74189 -6.14236 0
M  V30 629 H 87.8181 3.8874 -6.19774 0
M  V30 630 H 89.0011 1.12673 -6.44018 0
M  V30 631 H 90.4851 1.783 -8.19631 0
M  V30 632 H 88.7911 3.21673 -9.66791 0
M  V30 633 H 88.6001 0.901032 -10.1892 0
M  V30 634 H 86.9701 1.33036 -9.56493 0
M  V30 635 H 85.8881 -1.09591 -5.64358 0
M  V30 636 H 87.6521 0.260263 -6.6359 0
M  V30 637 H 82.9441 0.460194 -4.04793 0
M  V30 638 H 83.7391 -1.05716 -4.53953 0
M  V30 639 H 89.7061 3.62759 -5.33442 0
M  V30 640 P 91.4677 3.65191 -7.99657 0
M  V30 641 O 92.8897 3.89332 -8.45794 0
M  V30 642 O 91.1077 2.28472 -7.50807 0
M  V30 643 O 91.1447 4.64972 -6.77611 0
M  V30 644 C 90.9847 6.06319 -7.16352 0
M  V30 645 C 91.5247 6.91731 -6.02299 0
M  V30 646 O 90.4687 6.92449 -5.17064 0
M  V30 647 C 92.7427 6.43627 -5.25174 0
M  V30 648 O 93.4807 7.43686 -4.60469 0
M  V30 649 C 92.0737 5.40275 -4.31916 0
M  V30 650 O 92.8727 5.25279 -3.14438 0
M  V30 651 C 90.7367 6.04847 -4.05327 0
M  V30 652 H 90.7687 6.62195 -3.11261 0
M  V30 653 H 91.9517 4.42556 -4.81383 0
M  V30 654 H 93.4357 5.92458 -5.93643 0
M  V30 655 H 91.7417 7.92655 -6.402 0
M  V30 656 H 91.5517 6.26671 -8.0846 0
M  V30 657 H 89.9217 6.29101 -7.32804 0
M  V30 658 H 92.5607 5.84315 -2.47318 0
M  V30 659 P 94.4182 7.39546 -4.75277 0
M  V30 660 O 95.8402 7.84798 -5.01039 0
M  V30 661 O 94.0582 5.9812 -5.08098 0
M  V30 662 O 94.0952 7.57503 -3.1866 0
M  V30 663 C 93.9352 8.97357 -2.74833 0
M  V30 664 C 94.4752 9.07548 -1.32709 0
M  V30 665 O 93.4192 8.62072 -0.606159 0
M  V30 666 C 95.6932 8.25383 -0.938334 0
M  V30 667 O 96.4312 8.74577 0.146954 0
M  V30 668 C 95.0242 6.8802 -0.712559 0
M  V30 669 O 95.8232 6.1189 0.194655 0
M  V30 670 C 93.6872 7.27966 -0.139777 0
M  V30 671 H 93.7192 7.25354 0.961601 0
M  V30 672 H 94.9022 6.32557 -1.65702 0
M  V30 673 H 96.3862 8.19355 -1.79097 0
M  V30 674 H 94.6922 10.1294 -1.10029 0
M  V30 675 H 94.5022 9.64276 -3.41316 0
M  V30 676 H 92.8722 9.25417 -2.76357 0
M  V30 677 H 95.5112 6.25267 1.07847 0
M  V30 678 P 97.3688 8.791 -6.89233e-14 0
M  V30 679 O 98.7908 9.31296 0.027939 0
M  V30 680 O 97.0088 7.77869 -1.04071 0
M  V30 681 O 97.0458 8.09533 1.41463 0
M  V30 682 C 96.8858 9.0349 2.53943 0
M  V30 683 C 97.4258 8.35135 3.78975 0
M  V30 684 O 96.3708 7.57992 4.15078 0
M  V30 685 C 98.6438 7.45087 3.67298 0
M  V30 686 O 99.3818 7.27796 4.85194 0
M  V30 687 C 97.9758 6.17323 3.12027 0
M  V30 688 O 98.7738 5.04149 3.47132 0
M  V30 689 C 96.6378 6.19961 3.81809 0
M  V30 690 N 95.5948 5.71575 2.93223 0
M  V30 691 C 95.6568 5.97133 1.62693 0
M  V30 692 N 94.6118 5.44066 0.984414 0
M  V30 693 C 93.8778 4.87093 1.93987 0
M  V30 694 C 92.5718 4.26449 1.8738 0
M  V30 695 O 91.8388 4.1089 0.884377 0
M  V30 696 N 92.1418 3.82483 3.08036 0
M  V30 697 C 92.8908 3.95124 4.27727 0
M  V30 698 N 92.2938 3.4084 5.39089 0
M  V30 699 N 94.0438 4.55264 4.3706 0
M  V30 700 C 94.5008 5.00861 3.18217 0
M  V30 701 H 96.6698 5.58218 4.73051 0
M  V30 702 H 97.8528 6.21631 2.02558 0
M  V30 703 H 99.3378 7.85819 2.93096 0
M  V30 704 H 97.6428 9.11627 4.55076 0
M  V30 705 H 97.4528 9.9573 2.34194 0
M  V30 706 H 95.8218 9.2792 2.67832 0
M  V30 707 H 91.2458 3.38323 3.1329 0
M  V30 708 H 96.4528 6.53891 1.14265 0
M  V30 709 H 91.3828 2.93852 5.30559 0
M  V30 710 H 92.7588 3.47631 6.30632 0
M  V30 711 H 98.4628 4.67628 4.28704 0
M  V30 712 P 100.319 7.39546 4.75277 0
M  V30 713 O 101.741 7.81777 5.05738 0
M  V30 714 O 99.9594 7.1065 3.32998 0
M  V30 715 O 99.9964 6.04542 5.56673 0
M  V30 716 C 99.8364 6.22772 7.02095 0
M  V30 717 C 100.376 4.97725 7.70406 0
M  V30 718 O 99.3204 4.13256 7.58987 0
M  V30 719 C 101.594 4.28231 7.11815 0
M  V30 720 O 102.332 3.49945 8.01648 0
M  V30 721 C 100.925 3.5063 5.96244 0
M  V30 722 O 101.724 2.36482 5.64681 0
M  V30 723 C 99.5884 3.15122 6.56374 0
M  V30 724 H 99.6204 2.13853 6.99751 0
M  V30 725 H 100.803 4.13501 5.06559 0
M  V30 726 H 102.287 5.03285 6.70911 0
M  V30 727 H 100.593 5.20877 8.75697 0
M  V30 728 H 100.403 7.11046 7.35349 0
M  V30 729 H 98.7734 6.35815 7.26986 0
M  V30 730 H 101.412 1.61644 6.13565 0
M  V30 731 P 103.27 3.65191 7.99657 0
M  V30 732 O 104.692 3.84333 8.48297 0
M  V30 733 O 102.91 4.17805 6.64342 0
M  V30 734 O 102.947 2.07613 7.95143 0
M  V30 735 C 102.787 1.44328 9.27336 0
M  V30 736 C 103.327 0.0220012 9.17097 0
M  V30 737 O 102.272 -0.626867 8.61923 0
M  V30 738 C 104.545 -0.24586 8.30336 0
M  V30 739 O 105.283 -1.39011 8.63583 0
M  V30 740 C 103.877 -0.273849 6.91158 0
M  V30 741 O 104.675 -1.06331 6.02794 0
M  V30 742 C 102.539 -0.897649 7.22545 0
M  V30 743 N 101.496 -0.292839 6.41732 0
M  V30 744 C 101.558 1.00068 6.10757 0
M  V30 745 N 100.513 1.36468 5.35794 0
M  V30 746 C 99.7789 0.258894 5.2366 0
M  V30 747 C 98.4729 0.0670682 4.65752 0
M  V30 748 O 97.7399 0.902443 4.10497 0
M  V30 749 N 98.0429 -1.2131 4.75881 0
M  V30 750 C 98.7919 -2.24934 5.37101 0
M  V30 751 N 98.1949 -3.48783 5.33984 0
M  V30 752 N 99.9449 -2.0844 5.95684 0
M  V30 753 C 100.402 -0.81395 5.87791 0
M  V30 754 H 102.571 -1.9841 7.04286 0
M  V30 755 H 103.754 0.739815 6.49601 0
M  V30 756 H 105.239 0.598315 8.36563 0
M  V30 757 H 103.544 -0.352479 10.1829 0
M  V30 758 H 103.354 2.00611 10.0304 0
M  V30 759 H 101.723 1.41843 9.55327 0
M  V30 760 H 97.1469 -1.44434 4.37895 0
M  V30 761 H 102.354 1.67697 6.42268 0
M  V30 762 H 97.2839 -3.60543 4.87699 0
M  V30 763 H 98.6599 -4.29232 5.7819 0
M  V30 764 H 104.364 -1.95704 6.0346 0
M  V30 765 P 106.221 -1.25109 8.70152 0
M  V30 766 O 107.643 -1.35303 9.21419 0
M  V30 767 O 105.861 -0.0769065 7.84762 0
M  V30 768 O 105.898 -2.55232 7.81161 0
M  V30 769 C 105.738 -3.79939 8.58154 0
M  V30 770 C 106.278 -4.93969 7.72701 0
M  V30 771 O 105.223 -5.18726 6.91205 0
M  V30 772 C 107.496 -4.69597 6.85231 0
M  V30 773 O 108.234 -5.83832 6.51337 0
M  V30 774 C 106.828 -3.96706 5.66633 0
M  V30 775 O 107.626 -4.15346 4.49615 0
M  V30 776 C 105.49 -4.66153 5.59313 0
M  V30 777 N 104.447 -3.71582 5.24027 0
M  V30 778 C 104.509 -2.46018 5.67902 0
M  V30 779 N 103.464 -1.74868 5.24518 0
M  V30 780 C 102.73 -2.61333 4.54528 0
M  V30 781 C 101.424 -2.46162 3.95441 0
M  V30 782 O 100.691 -1.46013 3.94122 0
M  V30 783 N 100.994 -3.59334 3.34752 0
M  V30 784 C 101.743 -4.79605 3.3023 0
M  V30 785 N 101.146 -5.82109 2.6065 0
M  V30 786 N 102.896 -4.97402 3.8843 0
M  V30 787 C 103.353 -3.86258 4.50476 0
M  V30 788 H 105.522 -5.47679 4.85214 0
M  V30 789 H 106.705 -2.88964 5.86476 0
M  V30 790 H 108.19 -4.01947 7.36109 0
M  V30 791 H 106.495 -5.80182 8.37584 0
M  V30 792 H 106.305 -3.73517 9.52265 0
M  V30 793 H 104.674 -3.97163 8.80359 0
M  V30 794 H 100.098 -3.5825 2.90294 0
M  V30 795 H 105.305 -2.06161 6.30974 0
M  V30 796 H 100.235 -5.66979 2.15354 0
M  V30 797 H 101.611 -6.73686 2.54344 0
M  V30 798 H 107.315 -4.90891 4.01857 0
M  V30 799 P 109.171 -5.75688 6.64379 0
M  V30 800 O 110.593 -6.11849 7.01846 0
M  V30 801 O 108.811 -4.30744 6.56026 0
M  V30 802 O 108.848 -6.37042 5.19165 0
M  V30 803 C 108.688 -7.83578 5.16515 0
M  V30 804 C 109.228 -8.33398 3.83019 0
M  V30 805 O 108.172 -8.10074 3.01034 0
M  V30 806 C 110.446 -7.65514 3.2257 0
M  V30 807 O 111.184 -8.4329 2.32297 0
M  V30 808 C 109.777 -6.40075 2.62207 0
M  V30 809 O 110.576 -5.92589 1.53712 0
M  V30 810 C 108.44 -6.9454 2.18503 0
M  V30 811 H 108.472 -7.23063 1.12091 0
M  V30 812 H 109.655 -5.6025 3.37201 0
M  V30 813 H 111.139 -7.35707 4.02681 0
M  V30 814 H 109.445 -9.40912 3.9095 0
M  V30 815 H 109.255 -8.29056 5.99158 0
M  V30 816 H 107.625 -8.10073 5.25882 0
M  V30 817 H 110.264 -6.30324 0.726794 0
M  V30 818 P 112.122 -8.4349 2.47671 0
M  V30 819 O 113.544 -8.94167 2.5964 0
M  V30 820 O 111.762 -7.1704 3.19006 0
M  V30 821 O 111.799 -8.16596 0.923387 0
M  V30 822 C 111.639 -9.38437 0.108857 0
M  V30 823 C 112.179 -9.08175 -1.28353 0
M  V30 824 O 111.123 -8.44229 -1.84713 0
M  V30 825 C 113.397 -8.18386 -1.42505 0
M  V30 826 O 114.135 -8.3501 -2.60497 0
M  V30 827 C 112.728 -6.80225 -1.25468 0
M  V30 828 O 113.527 -5.81621 -1.91066 0
M  V30 829 C 111.391 -7.02416 -1.9168 0
M  V30 830 H 111.423 -6.6888 -2.96621 0
M  V30 831 H 112.606 -6.53617 -0.192223 0
M  V30 832 H 114.09 -8.36622 -0.589963 0
M  V30 833 H 112.396 -10.0291 -1.79807 0
M  V30 834 H 112.206 -10.2138 0.558219 0
M  V30 835 H 110.576 -9.6579 0.0444202 0
M  V30 836 H 113.215 -5.69556 -2.79637 0
M  V30 837 P 115.072 -8.4349 -2.47671 0
M  V30 838 O 116.493 -8.92689 -2.65029 0
M  V30 839 O 114.712 -7.7568 -1.19296 0
M  V30 840 O 114.749 -7.36886 -3.63805 0
M  V30 841 C 114.588 -7.95433 -4.98253 0
M  V30 842 C 115.129 -6.94612 -5.98974 0
M  V30 843 O 114.074 -6.10277 -6.11744 0
M  V30 844 C 116.347 -6.11426 -5.62335 0
M  V30 845 O 117.085 -5.6162 -6.70584 0
M  V30 846 C 115.679 -5.04409 -4.73308 0
M  V30 847 O 116.477 -3.86404 -4.74719 0
M  V30 848 C 114.341 -4.8728 -5.41006 0
M  V30 849 N 113.298 -4.65812 -4.42377 0
M  V30 850 C 113.467 -5.09132 -3.15382 0
M  V30 851 N 112.44 -4.84021 -2.3716 0
M  V30 852 C 111.555 -4.18386 -3.20441 0
M  V30 853 C 110.288 -3.6275 -2.94905 0
M  V30 854 N 109.723 -3.05008 -4.05243 0
M  V30 855 C 110.325 -2.98348 -5.28159 0
M  V30 856 N 111.502 -3.48171 -5.56333 0
M  V30 857 C 112.077 -4.06869 -4.47212 0
M  V30 858 H 115.556 -5.39013 -3.70026 0
M  V30 859 H 117.039 -6.71916 -5.01943 0
M  V30 860 H 115.345 -7.45796 -6.94223 0
M  V30 861 H 115.155 -8.89416 -5.05237 0
M  V30 862 H 113.525 -8.14876 -5.18409 0
M  V30 863 H 114.367 -5.59989 -2.81362 0
M  V30 864 H 116.165 -3.27906 -5.43085 0
M  V30 865 P 118.023 -5.75688 -6.64379 0
M  V30 866 O 119.444 -6.07692 -7.0558 0
M  V30 867 O 117.663 -5.88047 -5.19722 0
M  V30 868 O 117.7 -4.2322 -7.04443 0
M  V30 869 C 117.539 -3.99785 -8.49201 0
M  V30 870 C 118.08 -2.60516 -8.79425 0
M  V30 871 O 117.025 -1.82663 -8.44573 0
M  V30 872 C 119.298 -2.10343 -8.03628 0
M  V30 873 O 120.036 -1.09919 -8.67766 0
M  V30 874 C 118.63 -1.68446 -6.70876 0
M  V30 875 O 119.428 -0.684109 -6.08265 0
M  V30 876 C 117.292 -1.17436 -7.18567 0
M  V30 877 N 116.249 -1.52699 -6.23988 0
M  V30 878 C 116.418 -2.578 -5.40574 0
M  V30 879 N 115.391 -2.78966 -4.61193 0
M  V30 880 C 114.506 -1.78725 -4.95769 0
M  V30 881 C 113.239 -1.45727 -4.44207 0
M  V30 882 N 112.64 -2.13994 -3.43613 0
M  V30 883 N 112.674 -0.374977 -5.05812 0
M  V30 884 C 113.276 0.345585 -6.05615 0
M  V30 885 N 114.453 0.0787651 -6.56253 0
M  V30 886 C 115.028 -1.00499 -5.96189 0
M  V30 887 H 117.324 -0.0804622 -7.31556 0
M  V30 888 H 118.507 -2.53396 -6.02698 0
M  V30 889 H 119.99 -2.93881 -7.85526 0
M  V30 890 H 118.296 -2.52078 -9.87225 0
M  V30 891 H 118.106 -4.75072 -9.05887 0
M  V30 892 H 116.476 -4.05244 -8.76668 0
M  V30 893 H 112.74 1.20098 -6.4532 0
M  V30 894 H 117.318 -3.18977 -5.3945 0
M  V30 895 H 111.71 -1.84983 -3.10004 0
M  V30 896 H 113.114 -2.9465 -3.00843 0
M  V30 897 H 119.116 0.177619 -6.34151 0
M  V30 898 P 120.973 -1.25109 -8.70152 0
M  V30 899 O 122.395 -1.29744 -9.22016 0
M  V30 900 O 120.613 -2.13714 -7.55141 0
M  V30 901 O 120.65 0.248149 -8.21425 0
M  V30 902 C 120.49 1.22779 -9.30434 0
M  V30 903 C 121.03 2.56293 -8.80664 0
M  V30 904 O 119.974 3.02979 -8.09349 0
M  V30 905 C 122.248 2.57523 -7.89775 0
M  V30 906 O 122.986 3.7668 -7.89438 0
M  V30 907 C 121.579 2.20997 -6.55446 0
M  V30 908 O 122.378 2.71895 -5.48509 0
M  V30 909 C 120.242 2.89693 -6.67988 0
M  V30 910 H 120.274 3.88793 -6.19859 0
M  V30 911 H 121.457 1.12046 -6.44229 0
M  V30 912 H 122.941 1.7746 -8.19711 0
M  V30 913 H 121.247 3.20706 -9.67112 0
M  V30 914 H 121.057 0.901032 -10.1892 0
M  V30 915 H 119.427 1.33049 -9.56592 0
M  V30 916 H 122.066 3.57847 -5.23962 0
M  V30 917 P 123.924 3.65191 -7.99657 0
M  V30 918 O 125.346 3.89332 -8.45794 0
M  V30 919 O 123.564 2.28472 -7.50807 0
M  V30 920 O 123.601 4.64972 -6.77611 0
M  V30 921 C 123.441 6.06319 -7.16352 0
M  V30 922 C 123.981 6.91731 -6.02299 0
M  V30 923 O 122.925 6.92449 -5.17064 0
M  V30 924 C 125.199 6.43627 -5.25174 0
M  V30 925 O 125.937 7.43686 -4.60469 0
M  V30 926 C 124.53 5.40275 -4.31916 0
M  V30 927 O 125.329 5.25279 -3.14438 0
M  V30 928 C 123.193 6.04847 -4.05327 0
M  V30 929 H 123.225 6.62195 -3.11261 0
M  V30 930 H 124.408 4.42556 -4.81383 0
M  V30 931 H 125.892 5.92458 -5.93643 0
M  V30 932 H 124.198 7.92655 -6.402 0
M  V30 933 H 124.008 6.26671 -8.0846 0
M  V30 934 H 122.378 6.29101 -7.32804 0
M  V30 935 H 125.017 5.84315 -2.47318 0
M  V30 936 P 126.875 7.39546 -4.75277 0
M  V30 937 O 128.297 7.84798 -5.01039 0
M  V30 938 O 126.515 5.9812 -5.08098 0
M  V30 939 O 126.552 7.57503 -3.1866 0
M  V30 940 C 126.392 8.97357 -2.74833 0
M  V30 941 C 126.932 9.07548 -1.32709 0
M  V30 942 O 125.876 8.62072 -0.606159 0
M  V30 943 C 128.15 8.25383 -0.938334 0
M  V30 944 O 128.888 8.74577 0.146954 0
M  V30 945 C 127.481 6.8802 -0.712559 0
M  V30 946 O 128.28 6.1189 0.194655 0
M  V30 947 C 126.144 7.27966 -0.139777 0
M  V30 948 H 126.176 7.25354 0.961601 0
M  V30 949 H 127.359 6.32557 -1.65702 0
M  V30 950 H 128.843 8.19355 -1.79097 0
M  V30 951 H 127.149 10.1294 -1.10029 0
M  V30 952 H 126.959 9.64276 -3.41316 0
M  V30 953 H 125.329 9.25417 -2.76357 0
M  V30 954 H 127.968 6.25267 1.07847 0
M  V30 955 P 129.825 8.791 -1.02308e-13 0
M  V30 956 O 131.247 9.31096 0.027933 0
M  V30 957 O 129.465 7.77869 -1.04071 0
M  V30 958 O 129.502 8.09533 1.41463 0
M  V30 959 C 129.342 9.0349 2.53943 0
M  V30 960 C 129.882 8.35226 3.79016 0
M  V30 961 O 128.826 7.57992 4.15078 0
M  V30 962 C 131.1 7.45087 3.67298 0
M  V30 963 O 131.838 7.27796 4.85194 0
M  V30 964 C 130.431 6.17323 3.12027 0
M  V30 965 O 131.23 5.04231 3.47188 0
M  V30 966 C 129.094 6.19961 3.81809 0
M  V30 967 H 129.126 5.58218 4.73051 0
M  V30 968 H 130.309 6.21726 2.02589 0
M  V30 969 H 131.793 7.86112 2.9231 0
M  V30 970 H 130.099 9.11627 4.55076 0
M  V30 971 H 129.909 9.9573 2.34194 0
M  V30 972 H 128.279 9.2792 2.67832 0
M  V30 973 H 130.918 4.67702 4.28772 0
M  V30 974 P 132.776 7.39546 4.75277 0
M  V30 975 O 134.177 7.89013 5.04841 0
M  V30 976 O 132.398 7.16603 3.32298 0
M  V30 977 O 132.453 6.04468 5.56605 0
M  V30 978 C 132.293 6.22772 7.02095 0
M  V30 979 C 132.833 4.97671 7.70322 0
M  V30 980 O 131.777 4.13208 7.58899 0
M  V30 981 C 134.05 4.28231 7.11815 0
M  V30 982 O 134.789 3.49945 8.01648 0
M  V30 983 C 133.383 3.5063 5.96244 0
M  V30 984 O 134.181 2.36443 5.64589 0
M  V30 985 C 132.045 3.15122 6.56374 0
M  V30 986 N 131.002 3.22311 5.55692 0
M  V30 987 C 129.967 2.32244 5.62437 0
M  V30 988 O 130.006 1.43107 6.50341 0
M  V30 989 N 128.955 2.40811 4.73368 0
M  V30 990 C 129.003 3.344 3.77753 0
M  V30 991 N 127.993 3.41475 2.91848 0
M  V30 992 C 130.099 4.24712 3.66679 0
M  V30 993 C 131.065 4.15625 4.58307 0
M  V30 994 H 132.077 2.13823 6.99656 0
M  V30 995 H 133.26 4.12931 5.06895 0
M  V30 996 H 134.744 5.02674 6.71494 0
M  V30 997 H 133.05 5.20001 8.76217 0
M  V30 998 H 132.859 7.11046 7.35349 0
M  V30 999 H 131.229 6.35749 7.26911 0
M  V30 1000 H 130.147 4.9828 2.86753 0
M  V30 1001 H 131.911 4.84464 4.54228 0
M  V30 1002 H 127.203 2.75785 2.99862 0
M  V30 1003 H 127.998 4.12304 2.17382 0
M  V30 1004 H 133.965 1.65592 6.23485 0
M  V30 1005 P 135.726 3.65191 7.99657 0
M  V30 1006 O 137.148 3.8425 8.48115 0
M  V30 1007 O 135.366 4.17805 6.64342 0
M  V30 1008 O 135.403 2.07613 7.95143 0
M  V30 1009 C 135.243 1.44328 9.27336 0
M  V30 1010 C 135.783 0.0220036 9.17197 0
M  V30 1011 O 134.727 -0.626867 8.61923 0
M  V30 1012 C 137.001 -0.24586 8.30336 0
M  V30 1013 O 137.739 -1.39011 8.63583 0
M  V30 1014 C 136.332 -0.273849 6.91158 0
M  V30 1015 O 137.131 -1.06348 6.02892 0
M  V30 1016 C 134.995 -0.897649 7.22545 0
M  V30 1017 H 135.027 -1.9841 7.04286 0
M  V30 1018 H 136.21 0.739928 6.497 0
M  V30 1019 H 137.694 0.60668 8.36503 0
M  V30 1020 H 136 -0.352479 10.1829 0
M  V30 1021 H 135.81 2.00611 10.0304 0
M  V30 1022 H 134.18 1.41843 9.55327 0
M  V30 1023 H 136.819 -1.95734 6.03555 0
M  V30 1024 P 138.677 -1.25109 8.70152 0
M  V30 1025 O 140.099 -1.35303 9.21419 0
M  V30 1026 O 138.317 -0.0769065 7.84762 0
M  V30 1027 O 138.354 -2.55232 7.81161 0
M  V30 1028 C 138.194 -3.79939 8.58154 0
M  V30 1029 C 138.734 -4.93969 7.72701 0
M  V30 1030 O 137.679 -5.18726 6.91205 0
M  V30 1031 C 139.952 -4.69597 6.85231 0
M  V30 1032 O 140.69 -5.83832 6.51337 0
M  V30 1033 C 139.284 -3.96706 5.66633 0
M  V30 1034 O 140.082 -4.15346 4.49615 0
M  V30 1035 C 137.946 -4.66153 5.59313 0
M  V30 1036 N 136.903 -3.71582 5.24027 0
M  V30 1037 C 136.965 -2.46018 5.67902 0
M  V30 1038 N 135.92 -1.74868 5.24518 0
M  V30 1039 C 135.186 -2.61333 4.54528 0
M  V30 1040 C 133.88 -2.46162 3.95441 0
M  V30 1041 O 133.147 -1.46013 3.94122 0
M  V30 1042 N 133.45 -3.59334 3.34752 0
M  V30 1043 C 134.199 -4.79605 3.3023 0
M  V30 1044 N 133.602 -5.82109 2.6065 0
M  V30 1045 N 135.352 -4.97402 3.8843 0
M  V30 1046 C 135.809 -3.86258 4.50476 0
M  V30 1047 H 137.978 -5.47679 4.85214 0
M  V30 1048 H 139.161 -2.88964 5.86476 0
M  V30 1049 H 140.646 -4.01947 7.36109 0
M  V30 1050 H 138.951 -5.80182 8.37584 0
M  V30 1051 H 138.761 -3.73517 9.52265 0
M  V30 1052 H 137.13 -3.97163 8.80359 0
M  V30 1053 H 132.554 -3.5825 2.90294 0
M  V30 1054 H 137.761 -2.06161 6.30974 0
M  V30 1055 H 132.691 -5.66979 2.15354 0
M  V30 1056 H 134.067 -6.73686 2.54344 0
M  V30 1057 H 139.771 -4.90891 4.01857 0
M  V30 1058 P 141.627 -5.75688 6.64379 0
M  V30 1059 O 143.028 -6.11991 7.09136 0
M  V30 1060 O 141.249 -4.30899 6.62018 0
M  V30 1061 O 141.304 -6.36965 5.19102 0
M  V30 1062 C 141.144 -7.83578 5.16515 0
M  V30 1063 C 141.684 -8.33307 3.82977 0
M  V30 1064 O 140.628 -8.0998 3.00999 0
M  V30 1065 C 142.901 -7.65514 3.2257 0
M  V30 1066 O 143.64 -8.4329 2.32297 0
M  V30 1067 C 142.234 -6.40075 2.62207 0
M  V30 1068 O 143.032 -5.92492 1.53687 0
M  V30 1069 C 140.896 -6.9454 2.18503 0
M  V30 1070 N 139.853 -5.95905 2.39948 0
M  V30 1071 C 138.818 -5.89764 1.49837 0
M  V30 1072 O 138.857 -6.64088 0.490975 0
M  V30 1073 N 137.806 -5.02821 1.70992 0
M  V30 1074 C 137.854 -4.21498 2.77236 0
M  V30 1075 N 136.844 -3.37475 2.96465 0
M  V30 1076 C 138.95 -4.23389 3.68205 0
M  V30 1077 C 139.916 -5.12792 3.46171 0
M  V30 1078 H 140.928 -7.22964 1.12076 0
M  V30 1079 H 142.111 -5.60502 3.36589 0
M  V30 1080 H 143.595 -7.36197 4.01993 0
M  V30 1081 H 141.901 -9.41302 3.90009 0
M  V30 1082 H 141.71 -8.29056 5.99158 0
M  V30 1083 H 140.08 -8.09989 5.25828 0
M  V30 1084 H 138.998 -3.54747 4.52399 0
M  V30 1085 H 140.762 -5.18551 4.1489 0
M  V30 1086 H 136.054 -3.36058 2.30304 0
M  V30 1087 H 136.849 -2.73846 3.77171 0
M  V30 1088 H 142.816 -6.40705 0.751752 0
M  V30 1089 P 144.578 -8.4349 2.47671 0
M  V30 1090 O 145.999 -8.94263 2.59668 0
M  V30 1091 O 144.218 -7.1704 3.19006 0
M  V30 1092 O 144.255 -8.16596 0.923387 0
M  V30 1093 C 144.094 -9.38537 0.108869 0
M  V30 1094 C 144.635 -9.08175 -1.28353 0
M  V30 1095 O 143.58 -8.44131 -1.84692 0
M  V30 1096 C 145.853 -8.18386 -1.42505 0
M  V30 1097 O 146.591 -8.3501 -2.60497 0
M  V30 1098 C 145.185 -6.80225 -1.25468 0
M  V30 1099 O 145.983 -5.81716 -1.90454 0
M  V30 1100 C 143.847 -7.02416 -1.9168 0
M  V30 1101 N 142.804 -6.31033 -1.20314 0
M  V30 1102 C 142.973 -5.98817 0.0994088 0
M  V30 1103 N 141.946 -5.35403 0.621694 0
M  V30 1104 C 141.061 -5.25212 -0.43376 0
M  V30 1105 C 139.794 -4.64602 -0.519722 0
M  V30 1106 N 139.229 -4.7568 -1.76013 0
M  V30 1107 C 139.831 -5.3653 -2.83017 0
M  V30 1108 N 141.008 -5.93676 -2.79782 0
M  V30 1109 C 141.583 -5.84061 -1.56249 0
M  V30 1110 H 145.062 -6.53498 -0.198729 0
M  V30 1111 H 146.545 -8.36622 -0.589963 0
M  V30 1112 H 144.851 -10.0273 -1.8081 0
M  V30 1113 H 144.661 -10.2138 0.558219 0
M  V30 1114 H 143.031 -9.6579 0.0444202 0
M  V30 1115 H 143.873 -6.23209 0.660562 0
M  V30 1116 H 145.671 -5.69466 -2.79593 0
M  V30 1117 P 147.528 -8.4349 -2.47671 0
M  V30 1118 O 148.95 -8.92593 -2.65 0
M  V30 1119 O 147.168 -7.7568 -1.19296 0
M  V30 1120 O 147.205 -7.36886 -3.63805 0
M  V30 1121 C 147.045 -7.95349 -4.982 0
M  V30 1122 C 147.585 -6.94612 -5.98974 0
M  V30 1123 O 146.529 -6.10347 -6.11815 0
M  V30 1124 C 148.803 -6.11426 -5.62335 0
M  V30 1125 O 149.541 -5.6162 -6.70584 0
M  V30 1126 C 148.134 -5.04409 -4.73308 0
M  V30 1127 O 148.933 -3.85992 -4.75183 0
M  V30 1128 C 146.797 -4.8728 -5.41006 0
M  V30 1129 H 146.829 -4.02333 -6.11157 0
M  V30 1130 H 148.012 -5.39466 -3.69543 0
M  V30 1131 H 149.496 -6.71916 -5.01943 0
M  V30 1132 H 147.802 -7.4649 -6.93477 0
M  V30 1133 H 147.612 -8.89416 -5.05237 0
M  V30 1134 H 145.982 -8.14876 -5.18409 0
M  V30 1135 H 148.621 -3.27957 -5.4317 0
M  V30 1136 P 150.479 -5.75688 -6.64379 0
M  V30 1137 O 151.901 -6.07627 -7.05504 0
M  V30 1138 O 150.119 -5.88047 -5.19722 0
M  V30 1139 O 150.156 -4.2322 -7.04443 0
M  V30 1140 C 149.996 -3.99743 -8.4911 0
M  V30 1141 C 150.536 -2.60516 -8.79425 0
M  V30 1142 O 149.48 -1.82684 -8.4467 0
M  V30 1143 C 151.754 -2.10343 -8.03628 0
M  V30 1144 O 152.492 -1.09919 -8.67766 0
M  V30 1145 C 151.085 -1.68446 -6.70876 0
M  V30 1146 O 151.884 -0.678137 -6.08433 0
M  V30 1147 C 149.748 -1.17436 -7.18567 0
M  V30 1148 H 149.78 -0.0804732 -7.31656 0
M  V30 1149 H 150.963 -2.54037 -6.02537 0
M  V30 1150 H 152.447 -2.93881 -7.85526 0
M  V30 1151 H 150.753 -2.53065 -9.86973 0
M  V30 1152 H 150.563 -4.75072 -9.05887 0
M  V30 1153 H 148.933 -4.05244 -8.76668 0
M  V30 1154 H 151.572 0.177647 -6.34251 0
M  V30 1155 P 153.43 -1.25109 -8.70152 0
M  V30 1156 O 154.852 -1.29772 -9.22214 0
M  V30 1157 O 153.07 -2.13714 -7.55141 0
M  V30 1158 O 153.107 0.248149 -8.21425 0
M  V30 1159 C 152.947 1.22779 -9.30434 0
M  V30 1160 C 153.487 2.56265 -8.80568 0
M  V30 1161 O 152.432 3.02979 -8.09349 0
M  V30 1162 C 154.705 2.57523 -7.89775 0
M  V30 1163 O 155.443 3.7668 -7.89438 0
M  V30 1164 C 154.037 2.20997 -6.55446 0
M  V30 1165 O 154.835 2.71851 -5.48419 0
M  V30 1166 C 152.699 2.89693 -6.67988 0
M  V30 1167 N 151.656 2.08895 -6.07487 0
M  V30 1168 C 151.718 0.760559 -6.14209 0
M  V30 1169 N 150.673 0.200108 -5.52538 0
M  V30 1170 C 149.939 1.22692 -5.09742 0
M  V30 1171 C 148.633 1.24782 -4.48775 0
M  V30 1172 O 147.9 0.290617 -4.19294 0
M  V30 1173 N 148.203 2.50468 -4.22428 0
M  V30 1174 C 148.952 3.67142 -4.51974 0
M  V30 1175 N 148.355 4.85096 -4.14091 0
M  V30 1176 N 150.105 3.67821 -5.12831 0
M  V30 1177 C 150.562 2.43698 -5.4105 0
M  V30 1178 H 152.731 3.88793 -6.19859 0
M  V30 1179 H 153.914 1.12029 -6.4413 0
M  V30 1180 H 155.399 1.78279 -8.19533 0
M  V30 1181 H 153.704 3.20706 -9.67112 0
M  V30 1182 H 153.514 0.901032 -10.1892 0
M  V30 1183 H 151.883 1.33049 -9.56592 0
M  V30 1184 H 147.307 2.61953 -3.79465 0
M  V30 1185 H 152.514 0.200439 -6.63497 0
M  V30 1186 H 147.444 4.8334 -3.66367 0
M  V30 1187 H 148.82 5.7474 -4.33841 0
M  V30 1188 H 154.524 3.5779 -5.23879 0
M  V30 1189 P 156.38 3.65191 -7.99657 0
M  V30 1190 O 157.802 3.89332 -8.45794 0
M  V30 1191 O 156.02 2.28472 -7.50807 0
M  V30 1192 O 156.057 4.64972 -6.77611 0
M  V30 1193 C 155.897 6.06319 -7.16352 0
M  V30 1194 C 156.437 6.91731 -6.02299 0
M  V30 1195 O 155.381 6.92449 -5.17064 0
M  V30 1196 C 157.655 6.43627 -5.25174 0
M  V30 1197 O 158.393 7.43686 -4.60469 0
M  V30 1198 C 156.986 5.40275 -4.31916 0
M  V30 1199 O 157.785 5.25279 -3.14438 0
M  V30 1200 C 155.649 6.04847 -4.05327 0
M  V30 1201 H 155.681 6.62195 -3.11261 0
M  V30 1202 H 156.864 4.42556 -4.81383 0
M  V30 1203 H 158.348 5.92458 -5.93643 0
M  V30 1204 H 156.654 7.92655 -6.402 0
M  V30 1205 H 156.464 6.26671 -8.0846 0
M  V30 1206 H 154.834 6.29101 -7.32804 0
M  V30 1207 H 157.473 5.84315 -2.47318 0
M  V30 1208 P 159.331 7.39546 -4.75277 0
M  V30 1209 O 160.753 7.84798 -5.01039 0
M  V30 1210 O 158.971 5.9812 -5.08098 0
M  V30 1211 O 159.008 7.57503 -3.1866 0
M  V30 1212 C 158.848 8.97357 -2.74833 0
M  V30 1213 C 159.388 9.07548 -1.32709 0
M  V30 1214 O 158.332 8.62072 -0.606159 0
M  V30 1215 C 160.606 8.25383 -0.938334 0
M  V30 1216 O 161.344 8.74577 0.146954 0
M  V30 1217 C 159.937 6.8802 -0.712559 0
M  V30 1218 O 160.736 6.1189 0.194655 0
M  V30 1219 C 158.6 7.27966 -0.139777 0
M  V30 1220 H 158.632 7.25354 0.961601 0
M  V30 1221 H 159.815 6.32557 -1.65702 0
M  V30 1222 H 161.299 8.19355 -1.79097 0
M  V30 1223 H 159.605 10.1294 -1.10029 0
M  V30 1224 H 159.415 9.64276 -3.41316 0
M  V30 1225 H 157.785 9.25417 -2.76357 0
M  V30 1226 H 160.424 6.25267 1.07847 0
M  V30 1227 P 162.281 8.791 -1.35693e-13 0
M  V30 1228 O 163.703 9.31096 0.027933 0
M  V30 1229 O 161.921 7.77869 -1.04071 0
M  V30 1230 O 161.958 8.09533 1.41463 0
M  V30 1231 C 161.798 9.0349 2.53943 0
M  V30 1232 C 162.338 8.35226 3.79016 0
M  V30 1233 O 161.282 7.57992 4.15078 0
M  V30 1234 C 163.556 7.45087 3.67298 0
M  V30 1235 O 164.294 7.27796 4.85194 0
M  V30 1236 C 162.887 6.17323 3.12027 0
M  V30 1237 O 163.686 5.04231 3.47188 0
M  V30 1238 C 161.55 6.19961 3.81809 0
M  V30 1239 H 161.582 5.58218 4.73051 0
M  V30 1240 H 162.765 6.21726 2.02589 0
M  V30 1241 H 164.249 7.86112 2.9231 0
M  V30 1242 H 162.555 9.11627 4.55076 0
M  V30 1243 H 162.365 9.9573 2.34194 0
M  V30 1244 H 160.735 9.2792 2.67832 0
M  V30 1245 H 163.374 4.67702 4.28772 0
M  V30 1246 P 165.232 7.39546 4.75277 0
M  V30 1247 O 166.654 7.81777 5.05738 0
M  V30 1248 O 164.872 7.1065 3.32998 0
M  V30 1249 O 164.909 6.04542 5.56673 0
M  V30 1250 C 164.749 6.22772 7.02095 0
M  V30 1251 C 165.289 4.97725 7.70406 0
M  V30 1252 O 164.233 4.13256 7.58987 0
M  V30 1253 C 166.507 4.28231 7.11815 0
M  V30 1254 O 167.245 3.49945 8.01648 0
M  V30 1255 C 165.838 3.5063 5.96244 0
M  V30 1256 O 166.637 2.36482 5.64681 0
M  V30 1257 C 164.501 3.15122 6.56374 0
M  V30 1258 H 164.533 2.13853 6.99751 0
M  V30 1259 H 165.716 4.13501 5.06559 0
M  V30 1260 H 167.2 5.03285 6.70911 0
M  V30 1261 H 165.506 5.20877 8.75697 0
M  V30 1262 H 165.316 7.11046 7.35349 0
M  V30 1263 H 163.686 6.35815 7.26986 0
M  V30 1264 H 166.325 1.61644 6.13565 0
M  V30 1265 P 168.182 3.65191 7.99657 0
M  V30 1266 O 169.604 3.8425 8.48115 0
M  V30 1267 O 167.822 4.17805 6.64342 0
M  V30 1268 O 167.859 2.07613 7.95143 0
M  V30 1269 C 167.699 1.44328 9.27336 0
M  V30 1270 C 168.239 0.0220036 9.17197 0
M  V30 1271 O 167.183 -0.626867 8.61923 0
M  V30 1272 C 169.457 -0.24586 8.30336 0
M  V30 1273 O 170.195 -1.39011 8.63583 0
M  V30 1274 C 168.788 -0.273849 6.91158 0
M  V30 1275 O 169.587 -1.06348 6.02892 0
M  V30 1276 C 167.451 -0.897649 7.22545 0
M  V30 1277 H 167.483 -1.9841 7.04286 0
M  V30 1278 H 168.666 0.739928 6.497 0
M  V30 1279 H 170.15 0.60668 8.36503 0
M  V30 1280 H 168.456 -0.352479 10.1829 0
M  V30 1281 H 168.266 2.00611 10.0304 0
M  V30 1282 H 166.636 1.41843 9.55327 0
M  V30 1283 H 169.275 -1.95734 6.03555 0
M  V30 1284 P 171.133 -1.25109 8.70152 0
M  V30 1285 O 172.555 -1.35274 9.21221 0
M  V30 1286 O 170.773 -0.0769065 7.84762 0
M  V30 1287 O 170.81 -2.55232 7.81161 0
M  V30 1288 C 170.65 -3.79939 8.58154 0
M  V30 1289 C 171.19 -4.94023 7.72785 0
M  V30 1290 O 170.134 -5.18726 6.91205 0
M  V30 1291 C 172.408 -4.69597 6.85231 0
M  V30 1292 O 173.146 -5.83832 6.51337 0
M  V30 1293 C 171.739 -3.96706 5.66633 0
M  V30 1294 O 172.538 -4.15414 4.49689 0
M  V30 1295 C 170.402 -4.66153 5.59313 0
M  V30 1296 H 170.434 -5.47679 4.85214 0
M  V30 1297 H 171.617 -2.89008 5.86566 0
M  V30 1298 H 173.101 -4.0121 7.36511 0
M  V30 1299 H 171.407 -5.80182 8.37584 0
M  V30 1300 H 171.217 -3.73517 9.52265 0
M  V30 1301 H 169.587 -3.97163 8.80359 0
M  V30 1302 H 172.226 -4.90969 4.01921 0
M  V30 1303 P 174.084 -5.75688 6.64379 0
M  V30 1304 O 175.506 -6.11849 7.01846 0
M  V30 1305 O 173.724 -4.30744 6.56026 0
M  V30 1306 O 173.761 -6.37042 5.19165 0
M  V30 1307 C 173.601 -7.83578 5.16515 0
M  V30 1308 C 174.141 -8.33398 3.83019 0
M  V30 1309 O 173.085 -8.10074 3.01034 0
M  V30 1310 C 175.359 -7.65514 3.2257 0
M  V30 1311 O 176.097 -8.4329 2.32297 0
M  V30 1312 C 174.69 -6.40075 2.62207 0
M  V30 1313 O 175.489 -5.92589 1.53712 0
M  V30 1314 C 173.353 -6.9454 2.18503 0
M  V30 1315 H 173.385 -7.23063 1.12091 0
M  V30 1316 H 174.568 -5.6025 3.37201 0
M  V30 1317 H 176.052 -7.35707 4.02681 0
M  V30 1318 H 174.358 -9.40912 3.9095 0
M  V30 1319 H 174.168 -8.29056 5.99158 0
M  V30 1320 H 172.538 -8.10073 5.25882 0
M  V30 1321 H 175.177 -6.30324 0.726794 0
M  V30 1322 P 177.034 -8.4349 2.47671 0
M  V30 1323 O 178.456 -8.94167 2.5964 0
M  V30 1324 O 176.674 -7.1704 3.19006 0
M  V30 1325 O 176.711 -8.16596 0.923387 0
M  V30 1326 C 176.551 -9.38437 0.108857 0
M  V30 1327 C 177.091 -9.08175 -1.28353 0
M  V30 1328 O 176.035 -8.44229 -1.84713 0
M  V30 1329 C 178.309 -8.18386 -1.42505 0
M  V30 1330 O 179.047 -8.3501 -2.60497 0
M  V30 1331 C 177.64 -6.80225 -1.25468 0
M  V30 1332 O 178.439 -5.81621 -1.91066 0
M  V30 1333 C 176.303 -7.02416 -1.9168 0
M  V30 1334 H 176.335 -6.6888 -2.96621 0
M  V30 1335 H 177.518 -6.53617 -0.192223 0
M  V30 1336 H 179.002 -8.36622 -0.589963 0
M  V30 1337 H 177.308 -10.0291 -1.79807 0
M  V30 1338 H 177.118 -10.2138 0.558219 0
M  V30 1339 H 175.488 -9.6579 0.0444202 0
M  V30 1340 H 178.127 -5.69556 -2.79637 0
M  V30 1341 P 179.985 -8.4349 -2.47671 0
M  V30 1342 O 181.406 -8.92689 -2.65029 0
M  V30 1343 O 179.625 -7.7568 -1.19296 0
M  V30 1344 O 179.662 -7.36886 -3.63805 0
M  V30 1345 C 179.501 -7.95433 -4.98253 0
M  V30 1346 C 180.042 -6.94612 -5.98974 0
M  V30 1347 O 178.987 -6.10277 -6.11744 0
M  V30 1348 C 181.26 -6.11426 -5.62335 0
M  V30 1349 O 181.998 -5.6162 -6.70584 0
M  V30 1350 C 180.592 -5.04409 -4.73308 0
M  V30 1351 O 181.39 -3.86404 -4.74719 0
M  V30 1352 C 179.254 -4.8728 -5.41006 0
M  V30 1353 N 178.211 -4.65812 -4.42377 0
M  V30 1354 C 178.38 -5.09132 -3.15382 0
M  V30 1355 N 177.353 -4.84021 -2.3716 0
M  V30 1356 C 176.468 -4.18386 -3.20441 0
M  V30 1357 C 175.201 -3.6275 -2.94905 0
M  V30 1358 N 174.636 -3.05008 -4.05243 0
M  V30 1359 C 175.238 -2.98348 -5.28159 0
M  V30 1360 N 176.415 -3.48171 -5.56333 0
M  V30 1361 C 176.99 -4.06869 -4.47212 0
M  V30 1362 H 180.469 -5.39013 -3.70026 0
M  V30 1363 H 181.952 -6.71916 -5.01943 0
M  V30 1364 H 180.258 -7.45796 -6.94223 0
M  V30 1365 H 180.068 -8.89416 -5.05237 0
M  V30 1366 H 178.438 -8.14876 -5.18409 0
M  V30 1367 H 179.28 -5.59989 -2.81362 0
M  V30 1368 H 181.078 -3.27906 -5.43085 0
M  V30 1369 P 182.935 -5.75688 -6.64379 0
M  V30 1370 O 184.357 -6.07627 -7.05504 0
M  V30 1371 O 182.575 -5.88047 -5.19722 0
M  V30 1372 O 182.612 -4.2322 -7.04443 0
M  V30 1373 C 182.452 -3.99743 -8.4911 0
M  V30 1374 C 182.992 -2.60516 -8.79425 0
M  V30 1375 O 181.936 -1.82684 -8.4467 0
M  V30 1376 C 184.21 -2.10343 -8.03628 0
M  V30 1377 O 184.948 -1.09919 -8.67766 0
M  V30 1378 C 183.541 -1.68446 -6.70876 0
M  V30 1379 O 184.34 -0.678137 -6.08433 0
M  V30 1380 C 182.204 -1.17436 -7.18567 0
M  V30 1381 H 182.236 -0.0804732 -7.31656 0
M  V30 1382 H 183.419 -2.54037 -6.02537 0
M  V30 1383 H 184.903 -2.93881 -7.85526 0
M  V30 1384 H 183.209 -2.53065 -9.86973 0
M  V30 1385 H 183.019 -4.75072 -9.05887 0
M  V30 1386 H 181.389 -4.05244 -8.76668 0
M  V30 1387 H 184.028 0.177647 -6.34251 0
M  V30 1388 P 185.886 -1.25109 -8.70152 0
M  V30 1389 O 187.307 -1.29758 -9.22115 0
M  V30 1390 O 185.526 -2.13714 -7.55141 0
M  V30 1391 O 185.563 0.248149 -8.21425 0
M  V30 1392 C 185.402 1.22792 -9.30533 0
M  V30 1393 C 185.943 2.56293 -8.80664 0
M  V30 1394 O 184.888 3.02944 -8.09255 0
M  V30 1395 C 187.161 2.57523 -7.89775 0
M  V30 1396 O 187.899 3.7668 -7.89438 0
M  V30 1397 C 186.493 2.20997 -6.55446 0
M  V30 1398 O 187.291 2.71302 -5.48691 0
M  V30 1399 C 185.155 2.89693 -6.67988 0
M  V30 1400 N 184.112 2.08895 -6.07487 0
M  V30 1401 C 184.281 0.753809 -5.94137 0
M  V30 1402 N 183.254 0.146592 -5.38801 0
M  V30 1403 C 182.369 1.1768 -5.13693 0
M  V30 1404 C 181.102 1.17563 -4.52477 0
M  V30 1405 N 180.503 0.057481 -4.04759 0
M  V30 1406 N 180.537 2.41918 -4.45789 0
M  V30 1407 C 181.139 3.56493 -4.90792 0
M  V30 1408 N 182.316 3.61423 -5.47817 0
M  V30 1409 C 182.891 2.37779 -5.5588 0
M  V30 1410 H 185.187 3.8874 -6.19774 0
M  V30 1411 H 186.37 1.12673 -6.44018 0
M  V30 1412 H 187.853 1.7746 -8.19711 0
M  V30 1413 H 186.159 3.21673 -9.66791 0
M  V30 1414 H 185.969 0.901032 -10.1892 0
M  V30 1415 H 184.339 1.33049 -9.56592 0
M  V30 1416 H 180.603 4.49919 -4.77947 0
M  V30 1417 H 185.181 0.233081 -6.26266 0
M  V30 1418 H 179.573 0.119831 -3.60801 0
M  V30 1419 H 180.977 -0.852272 -4.12385 0
M  V30 1420 H 186.979 3.5779 -5.23879 0
M  V30 1421 P 188.836 3.65191 -7.99657 0
M  V30 1422 O 190.258 3.89332 -8.45794 0
M  V30 1423 O 188.476 2.28472 -7.50807 0
M  V30 1424 O 188.513 4.64972 -6.77611 0
M  V30 1425 C 188.353 6.06319 -7.16352 0
M  V30 1426 C 188.893 6.91731 -6.02299 0
M  V30 1427 O 187.837 6.92449 -5.17064 0
M  V30 1428 C 190.111 6.43627 -5.25174 0
M  V30 1429 O 190.849 7.43686 -4.60469 0
M  V30 1430 C 189.442 5.40275 -4.31916 0
M  V30 1431 O 190.241 5.25279 -3.14438 0
M  V30 1432 C 188.105 6.04847 -4.05327 0
M  V30 1433 H 188.137 6.62195 -3.11261 0
M  V30 1434 H 189.32 4.42556 -4.81383 0
M  V30 1435 H 190.804 5.92458 -5.93643 0
M  V30 1436 H 189.11 7.92655 -6.402 0
M  V30 1437 H 188.92 6.26671 -8.0846 0
M  V30 1438 H 187.29 6.29101 -7.32804 0
M  V30 1439 H 189.929 5.84315 -2.47318 0
M  V30 1440 P 191.787 7.39546 -4.75277 0
M  V30 1441 O 193.209 7.84798 -5.01039 0
M  V30 1442 O 191.427 5.9812 -5.08098 0
M  V30 1443 O 191.464 7.57503 -3.1866 0
M  V30 1444 C 191.304 8.97357 -2.74833 0
M  V30 1445 C 191.844 9.07548 -1.32709 0
M  V30 1446 O 190.788 8.62072 -0.606159 0
M  V30 1447 C 193.062 8.25383 -0.938334 0
M  V30 1448 O 193.8 8.74577 0.146954 0
M  V30 1449 C 192.393 6.8802 -0.712559 0
M  V30 1450 O 193.192 6.1189 0.194655 0
M  V30 1451 C 191.056 7.27966 -0.139777 0
M  V30 1452 H 191.088 7.25354 0.961601 0
M  V30 1453 H 192.271 6.32557 -1.65702 0
M  V30 1454 H 193.755 8.19355 -1.79097 0
M  V30 1455 H 192.061 10.1294 -1.10029 0
M  V30 1456 H 191.871 9.64276 -3.41316 0
M  V30 1457 H 190.241 9.25417 -2.76357 0
M  V30 1458 H 192.88 6.25267 1.07847 0
M  V30 1459 P 194.738 8.791 1.12009e-13 0
M  V30 1460 O 196.16 9.31096 0.027933 0
M  V30 1461 O 194.378 7.77869 -1.04071 0
M  V30 1462 O 194.415 8.09533 1.41463 0
M  V30 1463 C 194.255 9.0349 2.53943 0
M  V30 1464 C 194.795 8.35226 3.79016 0
M  V30 1465 O 193.739 7.57992 4.15078 0
M  V30 1466 C 196.013 7.45087 3.67298 0
M  V30 1467 O 196.751 7.27796 4.85194 0
M  V30 1468 C 195.344 6.17323 3.12027 0
M  V30 1469 O 196.143 5.04231 3.47188 0
M  V30 1470 C 194.007 6.19961 3.81809 0
M  V30 1471 H 194.039 5.58218 4.73051 0
M  V30 1472 H 195.222 6.21726 2.02589 0
M  V30 1473 H 196.706 7.86112 2.9231 0
M  V30 1474 H 195.012 9.11627 4.55076 0
M  V30 1475 H 194.822 9.9573 2.34194 0
M  V30 1476 H 193.192 9.2792 2.67832 0
M  V30 1477 H 195.831 4.67702 4.28772 0
M  V30 1478 P 197.688 7.39546 4.75277 0
M  V30 1479 O 199.11 7.81777 5.05738 0
M  V30 1480 O 197.328 7.1065 3.32998 0
M  V30 1481 O 197.365 6.04542 5.56673 0
M  V30 1482 C 197.205 6.22772 7.02095 0
M  V30 1483 C 197.745 4.97725 7.70406 0
M  V30 1484 O 196.689 4.13256 7.58987 0
M  V30 1485 C 198.963 4.28231 7.11815 0
M  V30 1486 O 199.701 3.49945 8.01648 0
M  V30 1487 C 198.294 3.5063 5.96244 0
M  V30 1488 O 199.093 2.36482 5.64681 0
M  V30 1489 C 196.957 3.15122 6.56374 0
M  V30 1490 H 196.989 2.13853 6.99751 0
M  V30 1491 H 198.172 4.13501 5.06559 0
M  V30 1492 H 199.656 5.03285 6.70911 0
M  V30 1493 H 197.962 5.20877 8.75697 0
M  V30 1494 H 197.772 7.11046 7.35349 0
M  V30 1495 H 196.142 6.35815 7.26986 0
M  V30 1496 H 198.781 1.61644 6.13565 0
M  V30 1497 P 200.639 3.65191 7.99657 0
M  V30 1498 O 202.061 3.8425 8.48115 0
M  V30 1499 O 200.279 4.17805 6.64342 0
M  V30 1500 O 200.316 2.07613 7.95143 0
M  V30 1501 C 200.156 1.44328 9.27336 0
M  V30 1502 C 200.696 0.0220036 9.17197 0
M  V30 1503 O 199.64 -0.626867 8.61923 0
M  V30 1504 C 201.914 -0.24586 8.30336 0
M  V30 1505 O 202.652 -1.39011 8.63583 0
M  V30 1506 C 201.245 -0.273849 6.91158 0
M  V30 1507 O 202.044 -1.06348 6.02892 0
M  V30 1508 C 199.908 -0.897649 7.22545 0
M  V30 1509 H 199.94 -1.9841 7.04286 0
M  V30 1510 H 201.123 0.739928 6.497 0
M  V30 1511 H 202.607 0.60668 8.36503 0
M  V30 1512 H 200.913 -0.352479 10.1829 0
M  V30 1513 H 200.723 2.00611 10.0304 0
M  V30 1514 H 199.093 1.41843 9.55327 0
M  V30 1515 H 201.732 -1.95734 6.03555 0
M  V30 1516 P 203.589 -1.25109 8.70152 0
M  V30 1517 O 205.011 -1.35274 9.21221 0
M  V30 1518 O 203.229 -0.0769065 7.84762 0
M  V30 1519 O 203.266 -2.55232 7.81161 0
M  V30 1520 C 203.106 -3.79939 8.58154 0
M  V30 1521 C 203.646 -4.94023 7.72785 0
M  V30 1522 O 202.59 -5.18726 6.91205 0
M  V30 1523 C 204.864 -4.69597 6.85231 0
M  V30 1524 O 205.602 -5.83832 6.51337 0
M  V30 1525 C 204.195 -3.96706 5.66633 0
M  V30 1526 O 204.994 -4.15414 4.49689 0
M  V30 1527 C 202.858 -4.66153 5.59313 0
M  V30 1528 H 202.89 -5.47679 4.85214 0
M  V30 1529 H 204.073 -2.89008 5.86566 0
M  V30 1530 H 205.557 -4.0121 7.36511 0
M  V30 1531 H 203.863 -5.80182 8.37584 0
M  V30 1532 H 203.673 -3.73517 9.52265 0
M  V30 1533 H 202.043 -3.97163 8.80359 0
M  V30 1534 H 204.682 -4.90969 4.01921 0
M  V30 1535 P 206.54 -5.75688 6.64379 0
M  V30 1536 O 207.962 -6.11849 7.01846 0
M  V30 1537 O 206.18 -4.30744 6.56026 0
M  V30 1538 O 206.217 -6.37042 5.19165 0
M  V30 1539 C 206.057 -7.83578 5.16515 0
M  V30 1540 C 206.597 -8.33398 3.83019 0
M  V30 1541 O 205.541 -8.10074 3.01034 0
M  V30 1542 C 207.815 -7.65514 3.2257 0
M  V30 1543 O 208.553 -8.4329 2.32297 0
M  V30 1544 C 207.146 -6.40075 2.62207 0
M  V30 1545 O 207.945 -5.92589 1.53712 0
M  V30 1546 C 205.809 -6.9454 2.18503 0
M  V30 1547 H 205.841 -7.23063 1.12091 0
M  V30 1548 H 207.024 -5.6025 3.37201 0
M  V30 1549 H 208.508 -7.35707 4.02681 0
M  V30 1550 H 206.814 -9.40912 3.9095 0
M  V30 1551 H 206.624 -8.29056 5.99158 0
M  V30 1552 H 204.994 -8.10073 5.25882 0
M  V30 1553 H 207.633 -6.30324 0.726794 0
M  V30 1554 P 209.49 -8.4349 2.47671 0
M  V30 1555 O 210.912 -8.94167 2.5964 0
M  V30 1556 O 209.13 -7.1704 3.19006 0
M  V30 1557 O 209.167 -8.16596 0.923387 0
M  V30 1558 C 209.007 -9.38437 0.108857 0
M  V30 1559 C 209.547 -9.08175 -1.28353 0
M  V30 1560 O 208.491 -8.44229 -1.84713 0
M  V30 1561 C 210.765 -8.18386 -1.42505 0
M  V30 1562 O 211.503 -8.3501 -2.60497 0
M  V30 1563 C 210.096 -6.80225 -1.25468 0
M  V30 1564 O 210.895 -5.81621 -1.91066 0
M  V30 1565 C 208.759 -7.02416 -1.9168 0
M  V30 1566 H 208.791 -6.6888 -2.96621 0
M  V30 1567 H 209.974 -6.53617 -0.192223 0
M  V30 1568 H 211.458 -8.36622 -0.589963 0
M  V30 1569 H 209.764 -10.0291 -1.79807 0
M  V30 1570 H 209.574 -10.2138 0.558219 0
M  V30 1571 H 207.944 -9.6579 0.0444202 0
M  V30 1572 H 210.583 -5.69556 -2.79637 0
M  V30 1573 P 212.441 -8.4349 -2.47671 0
M  V30 1574 O 213.863 -8.92593 -2.65 0
M  V30 1575 O 212.081 -7.7568 -1.19296 0
M  V30 1576 O 212.118 -7.36886 -3.63805 0
M  V30 1577 C 211.958 -7.95349 -4.982 0
M  V30 1578 C 212.498 -6.94612 -5.98974 0
M  V30 1579 O 211.442 -6.10347 -6.11815 0
M  V30 1580 C 213.716 -6.11426 -5.62335 0
M  V30 1581 O 214.454 -5.6162 -6.70584 0
M  V30 1582 C 213.047 -5.04409 -4.73308 0
M  V30 1583 O 213.846 -3.85992 -4.75183 0
M  V30 1584 C 211.71 -4.8728 -5.41006 0
M  V30 1585 H 211.742 -4.02333 -6.11157 0
M  V30 1586 H 212.925 -5.39466 -3.69543 0
M  V30 1587 H 214.409 -6.71916 -5.01943 0
M  V30 1588 H 212.715 -7.4649 -6.93477 0
M  V30 1589 H 212.525 -8.89416 -5.05237 0
M  V30 1590 H 210.895 -8.14876 -5.18409 0
M  V30 1591 H 213.534 -3.27957 -5.4317 0
M  V30 1592 P 215.392 -5.75688 -6.64379 0
M  V30 1593 O 216.813 -6.07692 -7.0558 0
M  V30 1594 O 215.032 -5.88047 -5.19722 0
M  V30 1595 O 215.069 -4.2322 -7.04443 0
M  V30 1596 C 214.908 -3.99785 -8.49201 0
M  V30 1597 C 215.449 -2.60516 -8.79425 0
M  V30 1598 O 214.394 -1.82663 -8.44573 0
M  V30 1599 C 216.667 -2.10343 -8.03628 0
M  V30 1600 O 217.405 -1.09919 -8.67766 0
M  V30 1601 C 215.999 -1.68446 -6.70876 0
M  V30 1602 O 216.797 -0.684109 -6.08265 0
M  V30 1603 C 214.661 -1.17436 -7.18567 0
M  V30 1604 N 213.618 -1.52699 -6.23988 0
M  V30 1605 C 213.787 -2.578 -5.40574 0
M  V30 1606 N 212.76 -2.78966 -4.61193 0
M  V30 1607 C 211.875 -1.78725 -4.95769 0
M  V30 1608 C 210.608 -1.45727 -4.44207 0
M  V30 1609 N 210.043 -0.374977 -5.05812 0
M  V30 1610 C 210.645 0.345585 -6.05615 0
M  V30 1611 N 211.822 0.0787651 -6.56253 0
M  V30 1612 C 212.397 -1.00499 -5.96189 0
M  V30 1613 H 215.876 -2.53396 -6.02698 0
M  V30 1614 H 217.359 -2.93881 -7.85526 0
M  V30 1615 H 215.665 -2.52078 -9.87225 0
M  V30 1616 H 215.475 -4.75072 -9.05887 0
M  V30 1617 H 213.845 -4.05244 -8.76668 0
M  V30 1618 H 214.687 -3.18977 -5.3945 0
M  V30 1619 H 216.485 0.177619 -6.34151 0
M  V30 1620 P 218.342 -1.25109 -8.70152 0
M  V30 1621 O 219.764 -1.29744 -9.22016 0
M  V30 1622 O 217.982 -2.13714 -7.55141 0
M  V30 1623 O 218.019 0.248149 -8.21425 0
M  V30 1624 C 217.859 1.22779 -9.30434 0
M  V30 1625 C 218.399 2.56293 -8.80664 0
M  V30 1626 O 217.343 3.02979 -8.09349 0
M  V30 1627 C 219.617 2.57523 -7.89775 0
M  V30 1628 O 220.355 3.7668 -7.89438 0
M  V30 1629 C 218.948 2.20997 -6.55446 0
M  V30 1630 O 219.747 2.71895 -5.48509 0
M  V30 1631 C 217.611 2.89693 -6.67988 0
M  V30 1632 H 217.643 3.88793 -6.19859 0
M  V30 1633 H 218.826 1.12046 -6.44229 0
M  V30 1634 H 220.31 1.7746 -8.19711 0
M  V30 1635 H 218.616 3.20706 -9.67112 0
M  V30 1636 H 218.426 0.901032 -10.1892 0
M  V30 1637 H 216.796 1.33049 -9.56592 0
M  V30 1638 H 219.435 3.57847 -5.23962 0
M  V30 1639 P 221.293 3.65191 -7.99657 0
M  V30 1640 O 222.715 3.89332 -8.45794 0
M  V30 1641 O 220.933 2.28472 -7.50807 0
M  V30 1642 O 220.97 4.64972 -6.77611 0
M  V30 1643 C 220.81 6.06319 -7.16352 0
M  V30 1644 C 221.35 6.91731 -6.02299 0
M  V30 1645 O 220.294 6.92449 -5.17064 0
M  V30 1646 C 222.568 6.43627 -5.25174 0
M  V30 1647 O 223.306 7.43686 -4.60469 0
M  V30 1648 C 221.899 5.40275 -4.31916 0
M  V30 1649 O 222.698 5.25279 -3.14438 0
M  V30 1650 C 220.562 6.04847 -4.05327 0
M  V30 1651 H 220.594 6.62195 -3.11261 0
M  V30 1652 H 221.777 4.42556 -4.81383 0
M  V30 1653 H 223.261 5.92458 -5.93643 0
M  V30 1654 H 221.567 7.92655 -6.402 0
M  V30 1655 H 221.377 6.26671 -8.0846 0
M  V30 1656 H 219.747 6.29101 -7.32804 0
M  V30 1657 H 222.386 5.84315 -2.47318 0
M  V30 1658 P 224.243 7.39546 -4.75277 0
M  V30 1659 O 225.665 7.84798 -5.01039 0
M  V30 1660 O 223.883 5.9812 -5.08098 0
M  V30 1661 O 223.92 7.57503 -3.1866 0
M  V30 1662 C 223.76 8.97357 -2.74833 0
M  V30 1663 C 224.3 9.07548 -1.32709 0
M  V30 1664 O 223.244 8.62072 -0.606159 0
M  V30 1665 C 225.518 8.25383 -0.938334 0
M  V30 1666 O 226.256 8.74577 0.146954 0
M  V30 1667 C 224.849 6.8802 -0.712559 0
M  V30 1668 O 225.648 6.1189 0.194655 0
M  V30 1669 C 223.512 7.27966 -0.139777 0
M  V30 1670 H 223.544 7.25354 0.961601 0
M  V30 1671 H 224.727 6.32557 -1.65702 0
M  V30 1672 H 226.211 8.19355 -1.79097 0
M  V30 1673 H 224.517 10.1294 -1.10029 0
M  V30 1674 H 224.327 9.64276 -3.41316 0
M  V30 1675 H 222.697 9.25417 -2.76357 0
M  V30 1676 H 225.336 6.25267 1.07847 0
M  V30 1677 P 227.194 8.791 4.22174e-13 0
M  V30 1678 O 228.616 9.31096 0.027933 0
M  V30 1679 O 226.834 7.77869 -1.04071 0
M  V30 1680 O 226.871 8.09533 1.41463 0
M  V30 1681 C 226.711 9.0349 2.53943 0
M  V30 1682 C 227.251 8.35226 3.79016 0
M  V30 1683 O 226.195 7.57992 4.15078 0
M  V30 1684 C 228.469 7.45087 3.67298 0
M  V30 1685 O 229.207 7.27796 4.85194 0
M  V30 1686 C 227.8 6.17323 3.12027 0
M  V30 1687 O 228.599 5.04231 3.47188 0
M  V30 1688 C 226.463 6.19961 3.81809 0
M  V30 1689 H 226.495 5.58218 4.73051 0
M  V30 1690 H 227.678 6.21726 2.02589 0
M  V30 1691 H 229.162 7.86112 2.9231 0
M  V30 1692 H 227.468 9.11627 4.55076 0
M  V30 1693 H 227.278 9.9573 2.34194 0
M  V30 1694 H 225.648 9.2792 2.67832 0
M  V30 1695 H 228.287 4.67702 4.28772 0
M  V30 1696 P 230.144 7.39546 4.75277 0
M  V30 1697 O 231.566 7.81777 5.05738 0
M  V30 1698 O 229.784 7.1065 3.32998 0
M  V30 1699 O 229.821 6.04542 5.56673 0
M  V30 1700 C 229.661 6.22772 7.02095 0
M  V30 1701 C 230.201 4.97725 7.70406 0
M  V30 1702 O 229.145 4.13256 7.58987 0
M  V30 1703 C 231.419 4.28231 7.11815 0
M  V30 1704 O 232.157 3.49945 8.01648 0
M  V30 1705 C 230.75 3.5063 5.96244 0
M  V30 1706 O 231.549 2.36482 5.64681 0
M  V30 1707 C 229.413 3.15122 6.56374 0
M  V30 1708 H 229.445 2.13853 6.99751 0
M  V30 1709 H 230.628 4.13501 5.06559 0
M  V30 1710 H 232.112 5.03285 6.70911 0
M  V30 1711 H 230.418 5.20877 8.75697 0
M  V30 1712 H 230.228 7.11046 7.35349 0
M  V30 1713 H 228.598 6.35815 7.26986 0
M  V30 1714 H 231.237 1.61644 6.13565 0
M  V30 1715 P 233.095 3.65191 7.99657 0
M  V30 1716 O 234.517 3.8425 8.48115 0
M  V30 1717 O 232.735 4.17805 6.64342 0
M  V30 1718 O 232.772 2.07613 7.95143 0
M  V30 1719 C 232.612 1.44328 9.27336 0
M  V30 1720 C 233.152 0.0220036 9.17197 0
M  V30 1721 O 232.096 -0.626867 8.61923 0
M  V30 1722 C 234.37 -0.24586 8.30336 0
M  V30 1723 O 235.108 -1.39011 8.63583 0
M  V30 1724 C 233.701 -0.273849 6.91158 0
M  V30 1725 O 234.5 -1.06348 6.02892 0
M  V30 1726 C 232.364 -0.897649 7.22545 0
M  V30 1727 H 232.396 -1.9841 7.04286 0
M  V30 1728 H 233.579 0.739928 6.497 0
M  V30 1729 H 235.063 0.60668 8.36503 0
M  V30 1730 H 233.369 -0.352479 10.1829 0
M  V30 1731 H 233.179 2.00611 10.0304 0
M  V30 1732 H 231.549 1.41843 9.55327 0
M  V30 1733 H 234.188 -1.95734 6.03555 0
M  V30 1734 P 236.046 -1.25109 8.70152 0
M  V30 1735 O 237.468 -1.35274 9.21221 0
M  V30 1736 O 235.686 -0.0769065 7.84762 0
M  V30 1737 O 235.723 -2.55232 7.81161 0
M  V30 1738 C 235.563 -3.79939 8.58154 0
M  V30 1739 C 236.103 -4.94023 7.72785 0
M  V30 1740 O 235.047 -5.18726 6.91205 0
M  V30 1741 C 237.321 -4.69597 6.85231 0
M  V30 1742 O 238.059 -5.83832 6.51337 0
M  V30 1743 C 236.652 -3.96706 5.66633 0
M  V30 1744 O 237.451 -4.15414 4.49689 0
M  V30 1745 C 235.315 -4.66153 5.59313 0
M  V30 1746 H 235.347 -5.47679 4.85214 0
M  V30 1747 H 236.53 -2.89008 5.86566 0
M  V30 1748 H 238.014 -4.0121 7.36511 0
M  V30 1749 H 236.32 -5.80182 8.37584 0
M  V30 1750 H 236.13 -3.73517 9.52265 0
M  V30 1751 H 234.5 -3.97163 8.80359 0
M  V30 1752 H 237.139 -4.90969 4.01921 0
M  V30 1753 P 238.996 -5.75688 6.64379 0
M  V30 1754 O 240.397 -6.11991 7.09136 0
M  V30 1755 O 238.618 -4.30899 6.62018 0
M  V30 1756 O 238.673 -6.36965 5.19102 0
M  V30 1757 C 238.513 -7.83578 5.16515 0
M  V30 1758 C 239.053 -8.33307 3.82977 0
M  V30 1759 O 237.997 -8.0998 3.00999 0
M  V30 1760 C 240.27 -7.65514 3.2257 0
M  V30 1761 O 241.009 -8.4329 2.32297 0
M  V30 1762 C 239.603 -6.40075 2.62207 0
M  V30 1763 O 240.401 -5.92492 1.53687 0
M  V30 1764 C 238.265 -6.9454 2.18503 0
M  V30 1765 N 237.222 -5.95905 2.39948 0
M  V30 1766 C 236.187 -5.89764 1.49837 0
M  V30 1767 O 236.226 -6.64088 0.490975 0
M  V30 1768 N 235.175 -5.02821 1.70992 0
M  V30 1769 C 235.223 -4.21498 2.77236 0
M  V30 1770 C 236.319 -4.23389 3.68205 0
M  V30 1771 C 237.285 -5.12792 3.46171 0
M  V30 1772 H 238.297 -7.22964 1.12076 0
M  V30 1773 H 239.48 -5.60502 3.36589 0
M  V30 1774 H 240.964 -7.36197 4.01993 0
M  V30 1775 H 239.27 -9.41302 3.90009 0
M  V30 1776 H 239.079 -8.29056 5.99158 0
M  V30 1777 H 237.449 -8.09989 5.25828 0
M  V30 1778 H 236.367 -3.54747 4.52399 0
M  V30 1779 H 238.131 -5.18551 4.1489 0
M  V30 1780 H 240.185 -6.40705 0.751752 0
M  V30 1781 P 241.947 -8.4349 2.47671 0
M  V30 1782 O 243.368 -8.94263 2.59668 0
M  V30 1783 O 241.587 -7.1704 3.19006 0
M  V30 1784 O 241.624 -8.16596 0.923387 0
M  V30 1785 C 241.463 -9.38537 0.108869 0
M  V30 1786 C 242.004 -9.08175 -1.28353 0
M  V30 1787 O 240.949 -8.44131 -1.84692 0
M  V30 1788 C 243.222 -8.18386 -1.42505 0
M  V30 1789 O 243.96 -8.3501 -2.60497 0
M  V30 1790 C 242.554 -6.80225 -1.25468 0
M  V30 1791 O 243.352 -5.81716 -1.90454 0
M  V30 1792 C 241.216 -7.02416 -1.9168 0
M  V30 1793 N 240.173 -6.31033 -1.20314 0
M  V30 1794 C 240.342 -5.98817 0.0994088 0
M  V30 1795 N 239.315 -5.35403 0.621694 0
M  V30 1796 C 238.43 -5.25212 -0.43376 0
M  V30 1797 C 237.163 -4.64602 -0.519722 0
M  V30 1798 N 236.598 -4.7568 -1.76013 0
M  V30 1799 C 237.2 -5.3653 -2.83017 0
M  V30 1800 N 238.377 -5.93676 -2.79782 0
M  V30 1801 C 238.952 -5.84061 -1.56249 0
M  V30 1802 H 242.431 -6.53498 -0.198729 0
M  V30 1803 H 243.914 -8.36622 -0.589963 0
M  V30 1804 H 242.22 -10.0273 -1.8081 0
M  V30 1805 H 242.03 -10.2138 0.558219 0
M  V30 1806 H 240.4 -9.6579 0.0444202 0
M  V30 1807 H 241.242 -6.23209 0.660562 0
M  V30 1808 H 243.04 -5.69466 -2.79593 0
M  V30 1809 P 244.897 -8.4349 -2.47671 0
M  V30 1810 O 246.319 -8.92593 -2.65 0
M  V30 1811 O 244.537 -7.7568 -1.19296 0
M  V30 1812 O 244.574 -7.36886 -3.63805 0
M  V30 1813 C 244.414 -7.95349 -4.982 0
M  V30 1814 C 244.954 -6.94612 -5.98974 0
M  V30 1815 O 243.898 -6.10347 -6.11815 0
M  V30 1816 C 246.172 -6.11426 -5.62335 0
M  V30 1817 O 246.91 -5.6162 -6.70584 0
M  V30 1818 C 245.503 -5.04409 -4.73308 0
M  V30 1819 O 246.302 -3.85992 -4.75183 0
M  V30 1820 C 244.166 -4.8728 -5.41006 0
M  V30 1821 H 244.198 -4.02333 -6.11157 0
M  V30 1822 H 245.381 -5.39466 -3.69543 0
M  V30 1823 H 246.865 -6.71916 -5.01943 0
M  V30 1824 H 245.171 -7.4649 -6.93477 0
M  V30 1825 H 244.981 -8.89416 -5.05237 0
M  V30 1826 H 243.351 -8.14876 -5.18409 0
M  V30 1827 H 245.99 -3.27957 -5.4317 0
M  V30 1828 P 247.848 -5.75688 -6.64379 0
M  V30 1829 O 249.269 -6.07692 -7.0558 0
M  V30 1830 O 247.488 -5.88047 -5.19722 0
M  V30 1831 O 247.525 -4.2322 -7.04443 0
M  V30 1832 C 247.364 -3.99785 -8.49201 0
M  V30 1833 C 247.905 -2.60516 -8.79425 0
M  V30 1834 O 246.85 -1.82663 -8.44573 0
M  V30 1835 C 249.123 -2.10343 -8.03628 0
M  V30 1836 O 249.861 -1.09919 -8.67766 0
M  V30 1837 C 248.455 -1.68446 -6.70876 0
M  V30 1838 O 249.253 -0.684109 -6.08265 0
M  V30 1839 C 247.117 -1.17436 -7.18567 0
M  V30 1840 N 246.074 -1.52699 -6.23988 0
M  V30 1841 C 246.243 -2.578 -5.40574 0
M  V30 1842 N 245.216 -2.78966 -4.61193 0
M  V30 1843 C 244.331 -1.78725 -4.95769 0
M  V30 1844 C 243.064 -1.45727 -4.44207 0
M  V30 1845 N 242.465 -2.13994 -3.43613 0
M  V30 1846 N 242.499 -0.374977 -5.05812 0
M  V30 1847 C 243.101 0.345585 -6.05615 0
M  V30 1848 N 244.278 0.0787651 -6.56253 0
M  V30 1849 C 244.853 -1.00499 -5.96189 0
M  V30 1850 H 247.149 -0.0804622 -7.31556 0
M  V30 1851 H 248.332 -2.53396 -6.02698 0
M  V30 1852 H 249.815 -2.93881 -7.85526 0
M  V30 1853 H 248.121 -2.52078 -9.87225 0
M  V30 1854 H 247.931 -4.75072 -9.05887 0
M  V30 1855 H 246.301 -4.05244 -8.76668 0
M  V30 1856 H 242.565 1.20098 -6.4532 0
M  V30 1857 H 247.143 -3.18977 -5.3945 0
M  V30 1858 H 241.535 -1.84983 -3.10004 0
M  V30 1859 H 242.939 -2.9465 -3.00843 0
M  V30 1860 H 248.941 0.177619 -6.34151 0
M  V30 1861 P 250.798 -1.25109 -8.70152 0
M  V30 1862 O 252.22 -1.29744 -9.22016 0
M  V30 1863 O 250.438 -2.13714 -7.55141 0
M  V30 1864 O 250.475 0.248149 -8.21425 0
M  V30 1865 C 250.315 1.22779 -9.30434 0
M  V30 1866 C 250.855 2.56293 -8.80664 0
M  V30 1867 O 249.799 3.02979 -8.09349 0
M  V30 1868 C 252.073 2.57523 -7.89775 0
M  V30 1869 O 252.811 3.7668 -7.89438 0
M  V30 1870 C 251.404 2.20997 -6.55446 0
M  V30 1871 O 252.203 2.71895 -5.48509 0
M  V30 1872 C 250.067 2.89693 -6.67988 0
M  V30 1873 H 250.099 3.88793 -6.19859 0
M  V30 1874 H 251.282 1.12046 -6.44229 0
M  V30 1875 H 252.766 1.7746 -8.19711 0
M  V30 1876 H 251.072 3.20706 -9.67112 0
M  V30 1877 H 250.882 0.901032 -10.1892 0
M  V30 1878 H 249.252 1.33049 -9.56592 0
M  V30 1879 H 251.891 3.57847 -5.23962 0
M  V30 1880 P 253.749 3.65191 -7.99657 0
M  V30 1881 O 255.171 3.89332 -8.45794 0
M  V30 1882 O 253.389 2.28472 -7.50807 0
M  V30 1883 O 253.426 4.64972 -6.77611 0
M  V30 1884 C 253.266 6.06319 -7.16352 0
M  V30 1885 C 253.806 6.91731 -6.02299 0
M  V30 1886 O 252.75 6.92449 -5.17064 0
M  V30 1887 C 255.024 6.43627 -5.25174 0
M  V30 1888 O 255.762 7.43686 -4.60469 0
M  V30 1889 C 254.355 5.40275 -4.31916 0
M  V30 1890 O 255.154 5.25279 -3.14438 0
M  V30 1891 C 253.018 6.04847 -4.05327 0
M  V30 1892 H 253.05 6.62195 -3.11261 0
M  V30 1893 H 254.233 4.42556 -4.81383 0
M  V30 1894 H 255.717 5.92458 -5.93643 0
M  V30 1895 H 254.023 7.92655 -6.402 0
M  V30 1896 H 253.833 6.26671 -8.0846 0
M  V30 1897 H 252.203 6.29101 -7.32804 0
M  V30 1898 H 254.842 5.84315 -2.47318 0
M  V30 1899 P 256.7 7.39546 -4.75277 0
M  V30 1900 O 258.122 7.84798 -5.01039 0
M  V30 1901 O 256.34 5.9812 -5.08098 0
M  V30 1902 O 256.377 7.57503 -3.1866 0
M  V30 1903 C 256.217 8.97357 -2.74833 0
M  V30 1904 C 256.757 9.07548 -1.32709 0
M  V30 1905 O 255.701 8.62072 -0.606159 0
M  V30 1906 C 257.975 8.25383 -0.938334 0
M  V30 1907 O 258.713 8.74577 0.146954 0
M  V30 1908 C 257.306 6.8802 -0.712559 0
M  V30 1909 O 258.105 6.1189 0.194655 0
M  V30 1910 C 255.969 7.27966 -0.139777 0
M  V30 1911 H 256.001 7.25354 0.961601 0
M  V30 1912 H 257.184 6.32557 -1.65702 0
M  V30 1913 H 258.668 8.19355 -1.79097 0
M  V30 1914 H 256.974 10.1294 -1.10029 0
M  V30 1915 H 256.784 9.64276 -3.41316 0
M  V30 1916 H 255.154 9.25417 -2.76357 0
M  V30 1917 H 257.793 6.25267 1.07847 0
M  V30 1918 P 259.65 8.791 7.3234e-13 0
M  V30 1919 O 261.072 9.31096 0.027933 0
M  V30 1920 O 259.29 7.77869 -1.04071 0
M  V30 1921 O 259.327 8.09533 1.41463 0
M  V30 1922 C 259.167 9.0349 2.53943 0
M  V30 1923 C 259.707 8.35226 3.79016 0
M  V30 1924 O 258.651 7.57992 4.15078 0
M  V30 1925 C 260.925 7.45087 3.67298 0
M  V30 1926 O 261.663 7.27796 4.85194 0
M  V30 1927 C 260.256 6.17323 3.12027 0
M  V30 1928 O 261.055 5.04231 3.47188 0
M  V30 1929 C 258.919 6.19961 3.81809 0
M  V30 1930 H 258.951 5.58218 4.73051 0
M  V30 1931 H 260.134 6.21726 2.02589 0
M  V30 1932 H 261.618 7.86112 2.9231 0
M  V30 1933 H 259.924 9.11627 4.55076 0
M  V30 1934 H 259.734 9.9573 2.34194 0
M  V30 1935 H 258.104 9.2792 2.67832 0
M  V30 1936 H 260.743 4.67702 4.28772 0
M  V30 1937 P 262.601 7.39546 4.75277 0
M  V30 1938 O 264.023 7.81777 5.05738 0
M  V30 1939 O 262.241 7.1065 3.32998 0
M  V30 1940 O 262.278 6.04542 5.56673 0
M  V30 1941 C 262.118 6.22772 7.02095 0
M  V30 1942 C 262.658 4.97725 7.70406 0
M  V30 1943 O 261.602 4.13256 7.58987 0
M  V30 1944 C 263.876 4.28231 7.11815 0
M  V30 1945 O 264.614 3.49945 8.01648 0
M  V30 1946 C 263.207 3.5063 5.96244 0
M  V30 1947 O 264.006 2.36482 5.64681 0
M  V30 1948 C 261.87 3.15122 6.56374 0
M  V30 1949 H 261.902 2.13853 6.99751 0
M  V30 1950 H 263.085 4.13501 5.06559 0
M  V30 1951 H 264.569 5.03285 6.70911 0
M  V30 1952 H 262.875 5.20877 8.75697 0
M  V30 1953 H 262.685 7.11046 7.35349 0
M  V30 1954 H 261.055 6.35815 7.26986 0
M  V30 1955 H 263.694 1.61644 6.13565 0
M  V30 1956 P 265.551 3.65191 7.99657 0
M  V30 1957 O 266.973 3.8425 8.48115 0
M  V30 1958 O 265.191 4.17805 6.64342 0
M  V30 1959 O 265.228 2.07613 7.95143 0
M  V30 1960 C 265.068 1.44328 9.27336 0
M  V30 1961 C 265.608 0.0220036 9.17197 0
M  V30 1962 O 264.552 -0.626867 8.61923 0
M  V30 1963 C 266.826 -0.24586 8.30336 0
M  V30 1964 O 267.564 -1.39011 8.63583 0
M  V30 1965 C 266.157 -0.273849 6.91158 0
M  V30 1966 O 266.956 -1.06348 6.02892 0
M  V30 1967 C 264.82 -0.897649 7.22545 0
M  V30 1968 H 264.852 -1.9841 7.04286 0
M  V30 1969 H 266.035 0.739928 6.497 0
M  V30 1970 H 267.519 0.60668 8.36503 0
M  V30 1971 H 265.825 -0.352479 10.1829 0
M  V30 1972 H 265.635 2.00611 10.0304 0
M  V30 1973 H 264.005 1.41843 9.55327 0
M  V30 1974 H 266.644 -1.95734 6.03555 0
M  V30 1975 P 268.502 -1.25109 8.70152 0
M  V30 1976 O 269.924 -1.35274 9.21221 0
M  V30 1977 O 268.142 -0.0769065 7.84762 0
M  V30 1978 O 268.179 -2.55232 7.81161 0
M  V30 1979 C 268.019 -3.79939 8.58154 0
M  V30 1980 C 268.559 -4.94023 7.72785 0
M  V30 1981 O 267.503 -5.18726 6.91205 0
M  V30 1982 C 269.777 -4.69597 6.85231 0
M  V30 1983 O 270.515 -5.83832 6.51337 0
M  V30 1984 C 269.108 -3.96706 5.66633 0
M  V30 1985 O 269.907 -4.15414 4.49689 0
M  V30 1986 C 267.771 -4.66153 5.59313 0
M  V30 1987 H 267.803 -5.47679 4.85214 0
M  V30 1988 H 268.986 -2.89008 5.86566 0
M  V30 1989 H 270.47 -4.0121 7.36511 0
M  V30 1990 H 268.776 -5.80182 8.37584 0
M  V30 1991 H 268.586 -3.73517 9.52265 0
M  V30 1992 H 266.956 -3.97163 8.80359 0
M  V30 1993 H 269.595 -4.90969 4.01921 0
M  V30 1994 P 271.452 -5.75688 6.64379 0
M  V30 1995 O 272.874 -6.11981 7.01997 0
M  V30 1996 O 271.092 -4.30744 6.56026 0
M  V30 1997 O 271.129 -6.37042 5.19165 0
M  V30 1998 C 270.969 -7.83578 5.16515 0
M  V30 1999 C 271.509 -8.33307 3.82977 0
M  V30 2000 O 270.454 -8.10074 3.01034 0
M  V30 2001 C 272.727 -7.65514 3.2257 0
M  V30 2002 O 273.465 -8.4329 2.32297 0
M  V30 2003 C 272.059 -6.40075 2.62207 0
M  V30 2004 O 272.857 -5.92492 1.53687 0
M  V30 2005 C 270.721 -6.9454 2.18503 0
M  V30 2006 N 269.678 -5.95905 2.39948 0
M  V30 2007 C 269.74 -5.13994 3.44742 0
M  V30 2008 N 268.695 -4.30684 3.46712 0
M  V30 2009 C 267.961 -4.65583 2.41086 0
M  V30 2010 C 266.655 -4.20877 1.99581 0
M  V30 2011 O 265.922 -3.35913 2.52616 0
M  V30 2012 N 266.225 -4.83271 0.873406 0
M  V30 2013 C 266.974 -5.82006 0.185129 0
M  V30 2014 N 266.377 -6.30619 -0.95439 0
M  V30 2015 N 268.127 -6.28443 0.578524 0
M  V30 2016 C 268.584 -5.68486 1.70138 0
M  V30 2017 H 270.753 -7.23063 1.12091 0
M  V30 2018 H 271.936 -5.60165 3.3715 0
M  V30 2019 H 273.421 -7.3611 4.01946 0
M  V30 2020 H 271.726 -9.40912 3.9095 0
M  V30 2021 H 271.536 -8.29056 5.99158 0
M  V30 2022 H 269.905 -8.10073 5.25882 0
M  V30 2023 H 265.329 -4.58323 0.505262 0
M  V30 2024 H 270.536 -5.14564 4.1935 0
M  V30 2025 H 265.466 -5.93402 -1.25364 0
M  V30 2026 H 266.842 -7.0425 -1.50254 0
M  V30 2027 H 272.546 -6.30224 0.72668 0
M  V30 2028 P 274.403 -8.4349 2.47671 0
M  V30 2029 O 275.825 -8.94167 2.5964 0
M  V30 2030 O 274.043 -7.1704 3.19006 0
M  V30 2031 O 274.08 -8.16596 0.923387 0
M  V30 2032 C 273.92 -9.38437 0.108857 0
M  V30 2033 C 274.46 -9.08175 -1.28353 0
M  V30 2034 O 273.404 -8.44229 -1.84713 0
M  V30 2035 C 275.678 -8.18386 -1.42505 0
M  V30 2036 O 276.416 -8.3501 -2.60497 0
M  V30 2037 C 275.009 -6.80225 -1.25468 0
M  V30 2038 O 275.808 -5.81621 -1.91066 0
M  V30 2039 C 273.672 -7.02416 -1.9168 0
M  V30 2040 H 273.704 -6.6888 -2.96621 0
M  V30 2041 H 274.887 -6.53617 -0.192223 0
M  V30 2042 H 276.371 -8.36622 -0.589963 0
M  V30 2043 H 274.677 -10.0291 -1.79807 0
M  V30 2044 H 274.487 -10.2138 0.558219 0
M  V30 2045 H 272.857 -9.6579 0.0444202 0
M  V30 2046 H 275.496 -5.69556 -2.79637 0
M  V30 2047 P 277.354 -8.4349 -2.47671 0
M  V30 2048 O 278.776 -8.92593 -2.65 0
M  V30 2049 O 276.994 -7.7568 -1.19296 0
M  V30 2050 O 277.031 -7.36886 -3.63805 0
M  V30 2051 C 276.871 -7.95349 -4.982 0
M  V30 2052 C 277.411 -6.94612 -5.98974 0
M  V30 2053 O 276.355 -6.10347 -6.11815 0
M  V30 2054 C 278.629 -6.11426 -5.62335 0
M  V30 2055 O 279.367 -5.6162 -6.70584 0
M  V30 2056 C 277.96 -5.04409 -4.73308 0
M  V30 2057 O 278.759 -3.85992 -4.75183 0
M  V30 2058 C 276.623 -4.8728 -5.41006 0
M  V30 2059 H 276.655 -4.02333 -6.11157 0
M  V30 2060 H 277.838 -5.39466 -3.69543 0
M  V30 2061 H 279.322 -6.71916 -5.01943 0
M  V30 2062 H 277.628 -7.4649 -6.93477 0
M  V30 2063 H 277.438 -8.89416 -5.05237 0
M  V30 2064 H 275.808 -8.14876 -5.18409 0
M  V30 2065 H 278.447 -3.27957 -5.4317 0
M  V30 2066 P 280.304 -5.75688 -6.64379 0
M  V30 2067 O 281.726 -6.07627 -7.05504 0
M  V30 2068 O 279.944 -5.88047 -5.19722 0
M  V30 2069 O 279.981 -4.2322 -7.04443 0
M  V30 2070 C 279.821 -3.99743 -8.4911 0
M  V30 2071 C 280.361 -2.60516 -8.79425 0
M  V30 2072 O 279.305 -1.82684 -8.4467 0
M  V30 2073 C 281.579 -2.10343 -8.03628 0
M  V30 2074 O 282.317 -1.09919 -8.67766 0
M  V30 2075 C 280.91 -1.68446 -6.70876 0
M  V30 2076 O 281.709 -0.678137 -6.08433 0
M  V30 2077 C 279.573 -1.17436 -7.18567 0
M  V30 2078 H 279.605 -0.0804732 -7.31656 0
M  V30 2079 H 280.788 -2.54037 -6.02537 0
M  V30 2080 H 282.272 -2.93881 -7.85526 0
M  V30 2081 H 280.578 -2.53065 -9.86973 0
M  V30 2082 H 280.388 -4.75072 -9.05887 0
M  V30 2083 H 278.758 -4.05244 -8.76668 0
M  V30 2084 H 281.397 0.177647 -6.34251 0
M  V30 2085 P 283.255 -1.25109 -8.70152 0
M  V30 2086 O 284.677 -1.29744 -9.22016 0
M  V30 2087 O 282.895 -2.13714 -7.55141 0
M  V30 2088 O 282.932 0.248149 -8.21425 0
M  V30 2089 C 282.772 1.22779 -9.30434 0
M  V30 2090 C 283.312 2.56293 -8.80664 0
M  V30 2091 O 282.256 3.02979 -8.09349 0
M  V30 2092 C 284.53 2.57523 -7.89775 0
M  V30 2093 O 285.268 3.7668 -7.89438 0
M  V30 2094 C 283.861 2.20997 -6.55446 0
M  V30 2095 O 284.66 2.71895 -5.48509 0
M  V30 2096 C 282.524 2.89693 -6.67988 0
M  V30 2097 H 282.556 3.88793 -6.19859 0
M  V30 2098 H 283.739 1.12046 -6.44229 0
M  V30 2099 H 285.223 1.7746 -8.19711 0
M  V30 2100 H 283.529 3.20706 -9.67112 0
M  V30 2101 H 283.339 0.901032 -10.1892 0
M  V30 2102 H 281.709 1.33049 -9.56592 0
M  V30 2103 H 284.348 3.57847 -5.23962 0
M  V30 2104 P 286.205 3.65191 -7.99657 0
M  V30 2105 O 287.627 3.89332 -8.45794 0
M  V30 2106 O 285.845 2.28472 -7.50807 0
M  V30 2107 O 285.882 4.64972 -6.77611 0
M  V30 2108 C 285.722 6.06319 -7.16352 0
M  V30 2109 C 286.262 6.91731 -6.02299 0
M  V30 2110 O 285.206 6.92449 -5.17064 0
M  V30 2111 C 287.48 6.43627 -5.25174 0
M  V30 2112 O 288.218 7.43686 -4.60469 0
M  V30 2113 C 286.811 5.40275 -4.31916 0
M  V30 2114 O 287.61 5.25279 -3.14438 0
M  V30 2115 C 285.474 6.04847 -4.05327 0
M  V30 2116 H 285.506 6.62195 -3.11261 0
M  V30 2117 H 286.689 4.42556 -4.81383 0
M  V30 2118 H 288.173 5.92458 -5.93643 0
M  V30 2119 H 286.479 7.92655 -6.402 0
M  V30 2120 H 286.289 6.26671 -8.0846 0
M  V30 2121 H 284.659 6.29101 -7.32804 0
M  V30 2122 H 287.298 5.84315 -2.47318 0
M  V30 2123 P 289.156 7.39546 -4.75277 0
M  V30 2124 O 290.578 7.84966 -5.01146 0
M  V30 2125 O 288.796 5.9812 -5.08098 0
M  V30 2126 O 288.833 7.57503 -3.1866 0
M  V30 2127 C 288.673 8.97357 -2.74833 0
M  V30 2128 C 289.213 9.0745 -1.32694 0
M  V30 2129 O 288.158 8.62072 -0.606159 0
M  V30 2130 C 290.431 8.25383 -0.938334 0
M  V30 2131 O 291.169 8.74577 0.146954 0
M  V30 2132 C 289.763 6.8802 -0.712559 0
M  V30 2133 O 290.561 6.11791 0.194623 0
M  V30 2134 C 288.425 7.27966 -0.139777 0
M  V30 2135 N 287.382 6.39368 -0.623421 0
M  V30 2136 C 287.444 5.90299 -1.85969 0
M  V30 2137 N 286.399 5.10919 -2.1133 0
M  V30 2138 C 285.665 5.14646 -1.0015 0
M  V30 2139 C 284.359 4.60057 -0.729219 0
M  V30 2140 O 283.626 3.93476 -1.47746 0
M  V30 2141 N 283.929 4.88302 0.523505 0
M  V30 2142 C 284.678 5.63646 1.46207 0
M  V30 2143 N 284.081 5.78186 2.69239 0
M  V30 2144 N 285.831 6.19285 1.21544 0
M  V30 2145 C 286.288 5.93392 -0.0308487 0
M  V30 2146 H 288.457 7.25354 0.961601 0
M  V30 2147 H 289.64 6.3246 -1.65676 0
M  V30 2148 H 291.125 8.19533 -1.78278 0
M  V30 2149 H 289.43 10.1294 -1.10029 0
M  V30 2150 H 289.24 9.64276 -3.41316 0
M  V30 2151 H 287.609 9.25417 -2.76357 0
M  V30 2152 H 283.033 4.53993 0.806451 0
M  V30 2153 H 288.24 6.11865 -2.57394 0
M  V30 2154 H 283.17 5.34046 2.87467 0
M  V30 2155 H 284.546 6.33391 3.42578 0
M  V30 2156 H 290.25 6.25169 1.0783 0
M  V30 2157 P 292.106 8.791 1.04251e-12 0
M  V30 2158 O 293.528 9.31096 0.027933 0
M  V30 2159 O 291.746 7.77869 -1.04071 0
M  V30 2160 O 291.783 8.09533 1.41463 0
M  V30 2161 C 291.623 9.0349 2.53943 0
M  V30 2162 C 292.163 8.35226 3.79016 0
M  V30 2163 O 291.107 7.57992 4.15078 0
M  V30 2164 C 293.381 7.45087 3.67298 0
M  V30 2165 O 294.119 7.27796 4.85194 0
M  V30 2166 C 292.712 6.17323 3.12027 0
M  V30 2167 O 293.511 5.04231 3.47188 0
M  V30 2168 C 291.375 6.19961 3.81809 0
M  V30 2169 H 291.407 5.58218 4.73051 0
M  V30 2170 H 292.59 6.21726 2.02589 0
M  V30 2171 H 294.074 7.86112 2.9231 0
M  V30 2172 H 292.38 9.11627 4.55076 0
M  V30 2173 H 292.19 9.9573 2.34194 0
M  V30 2174 H 290.56 9.2792 2.67832 0
M  V30 2175 H 293.199 4.67702 4.28772 0
M  V30 2176 P 295.057 7.39546 4.75277 0
M  V30 2177 O 296.479 7.81777 5.05738 0
M  V30 2178 O 294.697 7.1065 3.32998 0
M  V30 2179 O 294.734 6.04542 5.56673 0
M  V30 2180 C 294.574 6.22772 7.02095 0
M  V30 2181 C 295.114 4.97725 7.70406 0
M  V30 2182 O 294.058 4.13256 7.58987 0
M  V30 2183 C 296.332 4.28231 7.11815 0
M  V30 2184 O 297.07 3.49945 8.01648 0
M  V30 2185 C 295.663 3.5063 5.96244 0
M  V30 2186 O 296.462 2.36482 5.64681 0
M  V30 2187 C 294.326 3.15122 6.56374 0
M  V30 2188 H 294.358 2.13853 6.99751 0
M  V30 2189 H 295.541 4.13501 5.06559 0
M  V30 2190 H 297.025 5.03285 6.70911 0
M  V30 2191 H 295.331 5.20877 8.75697 0
M  V30 2192 H 295.141 7.11046 7.35349 0
M  V30 2193 H 293.511 6.35815 7.26986 0
M  V30 2194 H 296.15 1.61644 6.13565 0
M  V30 2195 P 298.008 3.65191 7.99657 0
M  V30 2196 O 299.43 3.8425 8.48115 0
M  V30 2197 O 297.648 4.17805 6.64342 0
M  V30 2198 O 297.685 2.07613 7.95143 0
M  V30 2199 C 297.525 1.44328 9.27336 0
M  V30 2200 C 298.065 0.0220036 9.17197 0
M  V30 2201 O 297.009 -0.626867 8.61923 0
M  V30 2202 C 299.283 -0.24586 8.30336 0
M  V30 2203 O 300.021 -1.39011 8.63583 0
M  V30 2204 C 298.614 -0.273849 6.91158 0
M  V30 2205 O 299.413 -1.06348 6.02892 0
M  V30 2206 C 297.277 -0.897649 7.22545 0
M  V30 2207 H 297.309 -1.9841 7.04286 0
M  V30 2208 H 298.492 0.739928 6.497 0
M  V30 2209 H 299.976 0.60668 8.36503 0
M  V30 2210 H 298.282 -0.352479 10.1829 0
M  V30 2211 H 298.092 2.00611 10.0304 0
M  V30 2212 H 296.462 1.41843 9.55327 0
M  V30 2213 H 299.101 -1.95734 6.03555 0
M  V30 2214 P 300.958 -1.25109 8.70152 0
M  V30 2215 O 302.38 -1.35274 9.21221 0
M  V30 2216 O 300.598 -0.0769065 7.84762 0
M  V30 2217 O 300.635 -2.55232 7.81161 0
M  V30 2218 C 300.475 -3.79939 8.58154 0
M  V30 2219 C 301.015 -4.94023 7.72785 0
M  V30 2220 O 299.959 -5.18726 6.91205 0
M  V30 2221 C 302.233 -4.69597 6.85231 0
M  V30 2222 O 302.971 -5.83832 6.51337 0
M  V30 2223 C 301.564 -3.96706 5.66633 0
M  V30 2224 O 302.363 -4.15414 4.49689 0
M  V30 2225 C 300.227 -4.66153 5.59313 0
M  V30 2226 H 300.259 -5.47679 4.85214 0
M  V30 2227 H 301.442 -2.89008 5.86566 0
M  V30 2228 H 302.926 -4.0121 7.36511 0
M  V30 2229 H 301.232 -5.80182 8.37584 0
M  V30 2230 H 301.042 -3.73517 9.52265 0
M  V30 2231 H 299.412 -3.97163 8.80359 0
M  V30 2232 H 302.051 -4.90969 4.01921 0
M  V30 2233 P 303.909 -5.75688 6.64379 0
M  V30 2234 O 305.331 -6.11849 7.01846 0
M  V30 2235 O 303.549 -4.30744 6.56026 0
M  V30 2236 O 303.586 -6.37042 5.19165 0
M  V30 2237 C 303.426 -7.83578 5.16515 0
M  V30 2238 C 303.966 -8.33398 3.83019 0
M  V30 2239 O 302.91 -8.10074 3.01034 0
M  V30 2240 C 305.184 -7.65514 3.2257 0
M  V30 2241 O 305.922 -8.4329 2.32297 0
M  V30 2242 C 304.515 -6.40075 2.62207 0
M  V30 2243 O 305.314 -5.92589 1.53712 0
M  V30 2244 C 303.178 -6.9454 2.18503 0
M  V30 2245 H 303.21 -7.23063 1.12091 0
M  V30 2246 H 304.393 -5.6025 3.37201 0
M  V30 2247 H 305.877 -7.35707 4.02681 0
M  V30 2248 H 304.183 -9.40912 3.9095 0
M  V30 2249 H 303.993 -8.29056 5.99158 0
M  V30 2250 H 302.363 -8.10073 5.25882 0
M  V30 2251 H 305.002 -6.30324 0.726794 0
M  V30 2252 P 306.859 -8.4349 2.47671 0
M  V30 2253 O 308.281 -8.94359 2.59696 0
M  V30 2254 O 306.499 -7.1704 3.19006 0
M  V30 2255 O 306.536 -8.16596 0.923387 0
M  V30 2256 C 306.376 -9.38437 0.108857 0
M  V30 2257 C 306.916 -9.08076 -1.28339 0
M  V30 2258 O 305.861 -8.44229 -1.84713 0
M  V30 2259 C 308.134 -8.18386 -1.42505 0
M  V30 2260 O 308.872 -8.3501 -2.60497 0
M  V30 2261 C 307.466 -6.80225 -1.25468 0
M  V30 2262 O 308.264 -5.81526 -1.91035 0
M  V30 2263 C 306.128 -7.02416 -1.9168 0
M  V30 2264 N 305.085 -6.31033 -1.20314 0
M  V30 2265 C 305.147 -6.18781 0.121293 0
M  V30 2266 N 304.102 -5.49762 0.588272 0
M  V30 2267 C 303.368 -5.22015 -0.488988 0
M  V30 2268 C 302.062 -4.61966 -0.596448 0
M  V30 2269 O 301.329 -4.19162 0.309059 0
M  V30 2270 N 301.632 -4.53773 -1.878 0
M  V30 2271 C 302.381 -4.99623 -2.99082 0
M  V30 2272 N 301.784 -4.78912 -4.21227 0
M  V30 2273 N 303.534 -5.59957 -2.91093 0
M  V30 2274 C 303.991 -5.70225 -1.64218 0
M  V30 2275 H 306.16 -6.6888 -2.96621 0
M  V30 2276 H 307.343 -6.53517 -0.192194 0
M  V30 2277 H 308.828 -8.36563 -0.598329 0
M  V30 2278 H 307.133 -10.0291 -1.79807 0
M  V30 2279 H 306.943 -10.2138 0.558219 0
M  V30 2280 H 305.312 -9.6579 0.0444202 0
M  V30 2281 H 300.736 -4.12883 -2.05283 0
M  V30 2282 H 305.943 -6.59596 0.745856 0
M  V30 2283 H 300.873 -4.31425 -4.2628 0
M  V30 2284 H 302.249 -5.11219 -5.07148 0
M  V30 2285 H 307.953 -5.69466 -2.79593 0
M  V30 2286 P 309.81 -8.4349 -2.47671 0
M  V30 2287 O 311.232 -8.92593 -2.65 0
M  V30 2288 O 309.45 -7.7568 -1.19296 0
M  V30 2289 O 309.487 -7.36886 -3.63805 0
M  V30 2290 C 309.327 -7.95349 -4.982 0
M  V30 2291 C 309.867 -6.94612 -5.98974 0
M  V30 2292 O 308.811 -6.10347 -6.11815 0
M  V30 2293 C 311.085 -6.11426 -5.62335 0
M  V30 2294 O 311.823 -5.6162 -6.70584 0
M  V30 2295 C 310.416 -5.04409 -4.73308 0
M  V30 2296 O 311.215 -3.85992 -4.75183 0
M  V30 2297 C 309.079 -4.8728 -5.41006 0
M  V30 2298 H 309.111 -4.02333 -6.11157 0
M  V30 2299 H 310.294 -5.39466 -3.69543 0
M  V30 2300 H 311.778 -6.71916 -5.01943 0
M  V30 2301 H 310.084 -7.4649 -6.93477 0
M  V30 2302 H 309.894 -8.89416 -5.05237 0
M  V30 2303 H 308.264 -8.14876 -5.18409 0
M  V30 2304 H 310.903 -3.27957 -5.4317 0
M  V30 2305 P 312.76 -5.75688 -6.64379 0
M  V30 2306 O 314.182 -6.07627 -7.05504 0
M  V30 2307 O 312.4 -5.88047 -5.19722 0
M  V30 2308 O 312.437 -4.2322 -7.04443 0
M  V30 2309 C 312.277 -3.99743 -8.4911 0
M  V30 2310 C 312.817 -2.60516 -8.79425 0
M  V30 2311 O 311.761 -1.82684 -8.4467 0
M  V30 2312 C 314.035 -2.10343 -8.03628 0
M  V30 2313 O 314.773 -1.09919 -8.67766 0
M  V30 2314 C 313.366 -1.68446 -6.70876 0
M  V30 2315 O 314.165 -0.678137 -6.08433 0
M  V30 2316 C 312.029 -1.17436 -7.18567 0
M  V30 2317 H 312.061 -0.0804732 -7.31656 0
M  V30 2318 H 313.244 -2.54037 -6.02537 0
M  V30 2319 H 314.728 -2.93881 -7.85526 0
M  V30 2320 H 313.034 -2.53065 -9.86973 0
M  V30 2321 H 312.844 -4.75072 -9.05887 0
M  V30 2322 H 311.214 -4.05244 -8.76668 0
M  V30 2323 H 313.853 0.177647 -6.34251 0
M  V30 2324 P 315.711 -1.25109 -8.70152 0
M  V30 2325 O 317.133 -1.29744 -9.22016 0
M  V30 2326 O 315.351 -2.13714 -7.55141 0
M  V30 2327 O 315.388 0.248149 -8.21425 0
M  V30 2328 C 315.228 1.22779 -9.30434 0
M  V30 2329 C 315.768 2.56293 -8.80664 0
M  V30 2330 O 314.712 3.02979 -8.09349 0
M  V30 2331 C 316.986 2.57523 -7.89775 0
M  V30 2332 O 317.724 3.7668 -7.89438 0
M  V30 2333 C 316.317 2.20997 -6.55446 0
M  V30 2334 O 317.116 2.71895 -5.48509 0
M  V30 2335 C 314.98 2.89693 -6.67988 0
M  V30 2336 H 315.012 3.88793 -6.19859 0
M  V30 2337 H 316.195 1.12046 -6.44229 0
M  V30 2338 H 317.679 1.7746 -8.19711 0
M  V30 2339 H 315.985 3.20706 -9.67112 0
M  V30 2340 H 315.795 0.901032 -10.1892 0
M  V30 2341 H 314.165 1.33049 -9.56592 0
M  V30 2342 H 316.804 3.57847 -5.23962 0
M  V30 2343 P 318.662 3.65191 -7.99657 0
M  V30 2344 O 320.063 3.87414 -8.52829 0
M  V30 2345 O 318.284 2.26932 -7.566 0
M  V30 2346 O 318.339 4.64915 -6.77529 0
M  V30 2347 C 318.179 6.06319 -7.16352 0
M  V30 2348 C 318.719 6.91655 -6.02234 0
M  V30 2349 O 317.663 6.92369 -5.17005 0
M  V30 2350 C 319.936 6.43627 -5.25174 0
M  V30 2351 O 320.675 7.43686 -4.60469 0
M  V30 2352 C 319.269 5.40275 -4.31916 0
M  V30 2353 O 320.067 5.25193 -3.14386 0
M  V30 2354 C 317.931 6.04847 -4.05327 0
M  V30 2355 N 316.888 5.04166 -3.98114 0
M  V30 2356 C 315.853 5.2366 -3.09923 0
M  V30 2357 O 315.892 6.23355 -2.34204 0
M  V30 2358 N 314.841 4.34279 -3.05727 0
M  V30 2359 C 314.889 3.26317 -3.84756 0
M  V30 2360 C 315.985 3.02504 -4.72573 0
M  V30 2361 C 316.951 3.94493 -4.76618 0
M  V30 2362 H 317.963 6.62104 -3.11218 0
M  V30 2363 H 319.146 4.42969 -4.80867 0
M  V30 2364 H 320.63 5.93122 -5.93121 0
M  V30 2365 H 318.936 7.93295 -6.39407 0
M  V30 2366 H 318.745 6.26671 -8.0846 0
M  V30 2367 H 317.115 6.29036 -7.32728 0
M  V30 2368 H 316.033 2.12921 -5.34017 0
M  V30 2369 H 317.797 3.80658 -5.44176 0
M  V30 2370 H 319.851 5.93572 -2.52637 0
M  V30 2371 P 321.612 7.39546 -4.75277 0
M  V30 2372 O 323.034 7.84798 -5.01039 0
M  V30 2373 O 321.252 5.9812 -5.08098 0
M  V30 2374 O 321.289 7.57503 -3.1866 0
M  V30 2375 C 321.129 8.97357 -2.74833 0
M  V30 2376 C 321.669 9.07548 -1.32709 0
M  V30 2377 O 320.613 8.62072 -0.606159 0
M  V30 2378 C 322.887 8.25383 -0.938334 0
M  V30 2379 O 323.625 8.74577 0.146954 0
M  V30 2380 C 322.218 6.8802 -0.712559 0
M  V30 2381 O 323.017 6.1189 0.194655 0
M  V30 2382 C 320.881 7.27966 -0.139777 0
M  V30 2383 H 320.913 7.25354 0.961601 0
M  V30 2384 H 322.096 6.32557 -1.65702 0
M  V30 2385 H 323.58 8.19355 -1.79097 0
M  V30 2386 H 321.886 10.1294 -1.10029 0
M  V30 2387 H 321.696 9.64276 -3.41316 0
M  V30 2388 H 320.066 9.25417 -2.76357 0
M  V30 2389 H 322.705 6.25267 1.07847 0
M  V30 2390 P 324.563 8.791 1.35267e-12 0
M  V30 2391 O 325.985 9.31096 0.027933 0
M  V30 2392 O 324.203 7.77869 -1.04071 0
M  V30 2393 O 324.24 8.09533 1.41463 0
M  V30 2394 C 324.08 9.0349 2.53943 0
M  V30 2395 C 324.62 8.35226 3.79016 0
M  V30 2396 O 323.564 7.57992 4.15078 0
M  V30 2397 C 325.838 7.45087 3.67298 0
M  V30 2398 O 326.576 7.27796 4.85194 0
M  V30 2399 C 325.169 6.17323 3.12027 0
M  V30 2400 O 325.968 5.04231 3.47188 0
M  V30 2401 C 323.832 6.19961 3.81809 0
M  V30 2402 H 323.864 5.58218 4.73051 0
M  V30 2403 H 325.047 6.21726 2.02589 0
M  V30 2404 H 326.531 7.86112 2.9231 0
M  V30 2405 H 324.837 9.11627 4.55076 0
M  V30 2406 H 324.647 9.9573 2.34194 0
M  V30 2407 H 323.017 9.2792 2.67832 0
M  V30 2408 H 325.656 4.67702 4.28772 0
M  V30 2409 P 327.513 7.39546 4.75277 0
M  V30 2410 O 328.935 7.81777 5.05738 0
M  V30 2411 O 327.153 7.1065 3.32998 0
M  V30 2412 O 327.19 6.04542 5.56673 0
M  V30 2413 C 327.03 6.22772 7.02095 0
M  V30 2414 C 327.57 4.97725 7.70406 0
M  V30 2415 O 326.514 4.13256 7.58987 0
M  V30 2416 C 328.788 4.28231 7.11815 0
M  V30 2417 O 329.526 3.49945 8.01648 0
M  V30 2418 C 328.119 3.5063 5.96244 0
M  V30 2419 O 328.918 2.36482 5.64681 0
M  V30 2420 C 326.782 3.15122 6.56374 0
M  V30 2421 H 326.814 2.13853 6.99751 0
M  V30 2422 H 327.997 4.13501 5.06559 0
M  V30 2423 H 329.481 5.03285 6.70911 0
M  V30 2424 H 327.787 5.20877 8.75697 0
M  V30 2425 H 327.597 7.11046 7.35349 0
M  V30 2426 H 325.967 6.35815 7.26986 0
M  V30 2427 H 328.606 1.61644 6.13565 0
M  V30 2428 P 330.464 3.65191 7.99657 0
M  V30 2429 O 331.886 3.84333 8.48297 0
M  V30 2430 O 330.104 4.17805 6.64342 0
M  V30 2431 O 330.141 2.07613 7.95143 0
M  V30 2432 C 329.981 1.44328 9.27336 0
M  V30 2433 C 330.521 0.0220012 9.17097 0
M  V30 2434 O 329.466 -0.626867 8.61923 0
M  V30 2435 C 331.739 -0.24586 8.30336 0
M  V30 2436 O 332.477 -1.39011 8.63583 0
M  V30 2437 C 331.071 -0.273849 6.91158 0
M  V30 2438 O 331.869 -1.06331 6.02794 0
M  V30 2439 C 329.733 -0.897649 7.22545 0
M  V30 2440 N 328.69 -0.292839 6.41732 0
M  V30 2441 C 328.752 1.00068 6.10757 0
M  V30 2442 N 327.707 1.36468 5.35794 0
M  V30 2443 C 326.973 0.258894 5.2366 0
M  V30 2444 C 325.667 0.0670682 4.65752 0
M  V30 2445 O 324.934 0.902443 4.10497 0
M  V30 2446 N 325.237 -1.2131 4.75881 0
M  V30 2447 C 325.986 -2.24934 5.37101 0
M  V30 2448 N 325.389 -3.48783 5.33984 0
M  V30 2449 N 327.139 -2.0844 5.95684 0
M  V30 2450 C 327.596 -0.81395 5.87791 0
M  V30 2451 H 329.765 -1.9841 7.04286 0
M  V30 2452 H 330.948 0.739815 6.49601 0
M  V30 2453 H 332.433 0.598315 8.36563 0
M  V30 2454 H 330.738 -0.352479 10.1829 0
M  V30 2455 H 330.548 2.00611 10.0304 0
M  V30 2456 H 328.917 1.41843 9.55327 0
M  V30 2457 H 324.341 -1.44434 4.37895 0
M  V30 2458 H 329.548 1.67697 6.42268 0
M  V30 2459 H 324.478 -3.60543 4.87699 0
M  V30 2460 H 325.854 -4.29232 5.7819 0
M  V30 2461 H 331.558 -1.95704 6.0346 0
M  V30 2462 P 333.414 -1.25109 8.70152 0
M  V30 2463 O 334.836 -1.35274 9.21221 0
M  V30 2464 O 333.054 -0.0769065 7.84762 0
M  V30 2465 O 333.091 -2.55232 7.81161 0
M  V30 2466 C 332.931 -3.79939 8.58154 0
M  V30 2467 C 333.471 -4.94023 7.72785 0
M  V30 2468 O 332.415 -5.18726 6.91205 0
M  V30 2469 C 334.689 -4.69597 6.85231 0
M  V30 2470 O 335.427 -5.83832 6.51337 0
M  V30 2471 C 334.02 -3.96706 5.66633 0
M  V30 2472 O 334.819 -4.15414 4.49689 0
M  V30 2473 C 332.683 -4.66153 5.59313 0
M  V30 2474 H 332.715 -5.47679 4.85214 0
M  V30 2475 H 333.898 -2.89008 5.86566 0
M  V30 2476 H 335.382 -4.0121 7.36511 0
M  V30 2477 H 333.688 -5.80182 8.37584 0
M  V30 2478 H 333.498 -3.73517 9.52265 0
M  V30 2479 H 331.868 -3.97163 8.80359 0
M  V30 2480 H 334.507 -4.90969 4.01921 0
M  V30 2481 P 336.365 -5.75688 6.64379 0
M  V30 2482 O 337.787 -6.11849 7.01846 0
M  V30 2483 O 336.005 -4.30744 6.56026 0
M  V30 2484 O 336.042 -6.37042 5.19165 0
M  V30 2485 C 335.882 -7.83578 5.16515 0
M  V30 2486 C 336.422 -8.33398 3.83019 0
M  V30 2487 O 335.366 -8.10074 3.01034 0
M  V30 2488 C 337.64 -7.65514 3.2257 0
M  V30 2489 O 338.378 -8.4329 2.32297 0
M  V30 2490 C 336.971 -6.40075 2.62207 0
M  V30 2491 O 337.77 -5.92589 1.53712 0
M  V30 2492 C 335.634 -6.9454 2.18503 0
M  V30 2493 H 335.666 -7.23063 1.12091 0
M  V30 2494 H 336.849 -5.6025 3.37201 0
M  V30 2495 H 338.333 -7.35707 4.02681 0
M  V30 2496 H 336.639 -9.40912 3.9095 0
M  V30 2497 H 336.449 -8.29056 5.99158 0
M  V30 2498 H 334.819 -8.10073 5.25882 0
M  V30 2499 H 337.458 -6.30324 0.726794 0
M  V30 2500 P 339.316 -8.4349 2.47671 0
M  V30 2501 O 340.737 -8.94263 2.59668 0
M  V30 2502 O 338.956 -7.1704 3.19006 0
M  V30 2503 O 338.993 -8.16596 0.923387 0
M  V30 2504 C 338.832 -9.38537 0.108869 0
M  V30 2505 C 339.373 -9.08175 -1.28353 0
M  V30 2506 O 338.318 -8.44131 -1.84692 0
M  V30 2507 C 340.591 -8.18386 -1.42505 0
M  V30 2508 O 341.329 -8.3501 -2.60497 0
M  V30 2509 C 339.923 -6.80225 -1.25468 0
M  V30 2510 O 340.721 -5.81716 -1.90454 0
M  V30 2511 C 338.585 -7.02416 -1.9168 0
M  V30 2512 N 337.542 -6.31033 -1.20314 0
M  V30 2513 C 337.711 -5.98817 0.0994088 0
M  V30 2514 N 336.684 -5.35403 0.621694 0
M  V30 2515 C 335.799 -5.25212 -0.43376 0
M  V30 2516 C 334.532 -4.64602 -0.519722 0
M  V30 2517 N 333.967 -4.7568 -1.76013 0
M  V30 2518 C 334.569 -5.3653 -2.83017 0
M  V30 2519 N 335.746 -5.93676 -2.79782 0
M  V30 2520 C 336.321 -5.84061 -1.56249 0
M  V30 2521 H 339.8 -6.53498 -0.198729 0
M  V30 2522 H 341.283 -8.36622 -0.589963 0
M  V30 2523 H 339.589 -10.0273 -1.8081 0
M  V30 2524 H 339.399 -10.2138 0.558219 0
M  V30 2525 H 337.769 -9.6579 0.0444202 0
M  V30 2526 H 338.611 -6.23209 0.660562 0
M  V30 2527 H 340.409 -5.69466 -2.79593 0
M  V30 2528 P 342.266 -8.4349 -2.47671 0
M  V30 2529 O 343.688 -8.92785 -2.65057 0
M  V30 2530 O 341.906 -7.7568 -1.19296 0
M  V30 2531 O 341.943 -7.36886 -3.63805 0
M  V30 2532 C 341.783 -7.95349 -4.982 0
M  V30 2533 C 342.323 -6.94537 -5.98908 0
M  V30 2534 O 341.268 -6.10347 -6.11815 0
M  V30 2535 C 343.541 -6.11426 -5.62335 0
M  V30 2536 O 344.279 -5.6162 -6.70584 0
M  V30 2537 C 342.873 -5.04409 -4.73308 0
M  V30 2538 O 343.671 -3.85929 -4.75106 0
M  V30 2539 C 341.535 -4.8728 -5.41006 0
M  V30 2540 N 340.492 -4.65812 -4.42377 0
M  V30 2541 C 340.554 -5.27109 -3.24335 0
M  V30 2542 N 339.509 -4.94293 -2.47735 0
M  V30 2543 C 338.775 -4.1271 -3.23359 0
M  V30 2544 C 337.469 -3.56384 -2.99934 0
M  V30 2545 O 336.736 -3.69331 -2.00616 0
M  V30 2546 N 337.039 -2.80206 -4.03316 0
M  V30 2547 C 337.788 -2.58614 -5.2172 0
M  V30 2548 N 337.191 -1.75154 -6.13278 0
M  V30 2549 N 338.941 -3.13689 -5.47619 0
M  V30 2550 C 339.398 -3.90921 -4.46436 0
M  V30 2551 H 341.567 -4.02333 -6.11157 0
M  V30 2552 H 342.75 -5.39383 -3.69487 0
M  V30 2553 H 344.235 -6.71414 -5.02615 0
M  V30 2554 H 342.54 -7.4649 -6.93477 0
M  V30 2555 H 342.35 -8.89416 -5.05237 0
M  V30 2556 H 340.719 -8.14876 -5.18409 0
M  V30 2557 H 336.143 -2.36355 -3.95916 0
M  V30 2558 H 341.35 -5.95212 -2.93859 0
M  V30 2559 H 336.28 -1.32473 -5.91856 0
M  V30 2560 H 337.656 -1.5588 -7.03026 0
M  V30 2561 H 343.36 -3.27906 -5.43085 0
M  V30 2562 P 345.217 -5.75688 -6.64379 0
M  V30 2563 O 346.639 -6.07627 -7.05504 0
M  V30 2564 O 344.857 -5.88047 -5.19722 0
M  V30 2565 O 344.894 -4.2322 -7.04443 0
M  V30 2566 C 344.734 -3.99743 -8.4911 0
M  V30 2567 C 345.274 -2.60516 -8.79425 0
M  V30 2568 O 344.218 -1.82684 -8.4467 0
M  V30 2569 C 346.492 -2.10343 -8.03628 0
M  V30 2570 O 347.23 -1.09919 -8.67766 0
M  V30 2571 C 345.823 -1.68446 -6.70876 0
M  V30 2572 O 346.622 -0.678137 -6.08433 0
M  V30 2573 C 344.486 -1.17436 -7.18567 0
M  V30 2574 H 344.518 -0.0804732 -7.31656 0
M  V30 2575 H 345.701 -2.54037 -6.02537 0
M  V30 2576 H 347.185 -2.93881 -7.85526 0
M  V30 2577 H 345.491 -2.53065 -9.86973 0
M  V30 2578 H 345.301 -4.75072 -9.05887 0
M  V30 2579 H 343.671 -4.05244 -8.76668 0
M  V30 2580 H 346.31 0.177647 -6.34251 0
M  V30 2581 P 348.167 -1.25109 -8.70152 0
M  V30 2582 O 349.589 -1.29744 -9.22016 0
M  V30 2583 O 347.807 -2.13714 -7.55141 0
M  V30 2584 O 347.844 0.248149 -8.21425 0
M  V30 2585 C 347.684 1.22779 -9.30434 0
M  V30 2586 C 348.224 2.56293 -8.80664 0
M  V30 2587 O 347.168 3.02979 -8.09349 0
M  V30 2588 C 349.442 2.57523 -7.89775 0
M  V30 2589 O 350.18 3.7668 -7.89438 0
M  V30 2590 C 348.773 2.20997 -6.55446 0
M  V30 2591 O 349.572 2.71895 -5.48509 0
M  V30 2592 C 347.436 2.89693 -6.67988 0
M  V30 2593 H 347.468 3.88793 -6.19859 0
M  V30 2594 H 348.651 1.12046 -6.44229 0
M  V30 2595 H 350.135 1.7746 -8.19711 0
M  V30 2596 H 348.441 3.20706 -9.67112 0
M  V30 2597 H 348.251 0.901032 -10.1892 0
M  V30 2598 H 346.621 1.33049 -9.56592 0
M  V30 2599 H 349.26 3.57847 -5.23962 0
M  V30 2600 P 351.118 3.65191 -7.99657 0
M  V30 2601 O 352.54 3.89332 -8.45794 0
M  V30 2602 O 350.758 2.28472 -7.50807 0
M  V30 2603 O 350.795 4.64972 -6.77611 0
M  V30 2604 C 350.635 6.06319 -7.16352 0
M  V30 2605 C 351.175 6.91731 -6.02299 0
M  V30 2606 O 350.119 6.92449 -5.17064 0
M  V30 2607 C 352.393 6.43627 -5.25174 0
M  V30 2608 O 353.131 7.43686 -4.60469 0
M  V30 2609 C 351.724 5.40275 -4.31916 0
M  V30 2610 O 352.523 5.25279 -3.14438 0
M  V30 2611 C 350.387 6.04847 -4.05327 0
M  V30 2612 H 350.419 6.62195 -3.11261 0
M  V30 2613 H 351.602 4.42556 -4.81383 0
M  V30 2614 H 353.086 5.92458 -5.93643 0
M  V30 2615 H 351.392 7.92655 -6.402 0
M  V30 2616 H 351.202 6.26671 -8.0846 0
M  V30 2617 H 349.572 6.29101 -7.32804 0
M  V30 2618 H 352.211 5.84315 -2.47318 0
M  V30 2619 P 354.068 7.39546 -4.75277 0
M  V30 2620 O 355.49 7.84798 -5.01039 0
M  V30 2621 O 353.708 5.9812 -5.08098 0
M  V30 2622 O 353.745 7.57503 -3.1866 0
M  V30 2623 C 353.585 8.97357 -2.74833 0
M  V30 2624 C 354.125 9.07548 -1.32709 0
M  V30 2625 O 353.069 8.62072 -0.606159 0
M  V30 2626 C 355.343 8.25383 -0.938334 0
M  V30 2627 O 356.081 8.74577 0.146954 0
M  V30 2628 C 354.674 6.8802 -0.712559 0
M  V30 2629 O 355.473 6.1189 0.194655 0
M  V30 2630 C 353.337 7.27966 -0.139777 0
M  V30 2631 H 353.369 7.25354 0.961601 0
M  V30 2632 H 354.552 6.32557 -1.65702 0
M  V30 2633 H 356.036 8.19355 -1.79097 0
M  V30 2634 H 354.342 10.1294 -1.10029 0
M  V30 2635 H 354.152 9.64276 -3.41316 0
M  V30 2636 H 352.522 9.25417 -2.76357 0
M  V30 2637 H 355.161 6.25267 1.07847 0
M  V30 2638 P 357.019 8.791 1.66284e-12 0
M  V30 2639 O 358.44 9.31196 0.027936 0
M  V30 2640 O 356.659 7.77869 -1.04071 0
M  V30 2641 O 356.696 8.09533 1.41463 0
M  V30 2642 C 356.535 9.03587 2.5397 0
M  V30 2643 C 357.076 8.35226 3.79016 0
M  V30 2644 O 356.021 7.57904 4.1503 0
M  V30 2645 C 358.294 7.45087 3.67298 0
M  V30 2646 O 359.032 7.27796 4.85194 0
M  V30 2647 C 357.626 6.17323 3.12027 0
M  V30 2648 O 358.424 5.04496 3.46627 0
M  V30 2649 C 356.288 6.19961 3.81809 0
M  V30 2650 N 355.245 5.71575 2.93223 0
M  V30 2651 C 355.414 5.77362 1.59168 0
M  V30 2652 N 354.387 5.3123 0.911893 0
M  V30 2653 C 353.502 4.91717 1.89588 0
M  V30 2654 C 352.235 4.3114 1.8076 0
M  V30 2655 N 351.67 4.06823 3.02898 0
M  V30 2656 C 352.272 4.35062 4.22711 0
M  V30 2657 N 353.449 4.90805 4.35707 0
M  V30 2658 C 354.024 5.16382 3.14469 0
M  V30 2659 H 357.503 6.21428 2.0318 0
M  V30 2660 H 358.986 7.86112 2.9231 0
M  V30 2661 H 357.292 9.11171 4.55987 0
M  V30 2662 H 357.102 9.9573 2.34194 0
M  V30 2663 H 355.472 9.2792 2.67832 0
M  V30 2664 H 356.314 6.16575 1.12198 0
M  V30 2665 H 358.112 4.67628 4.28704 0
M  V30 2666 P 359.97 7.39546 4.75277 0
M  V30 2667 O 361.392 7.81777 5.05738 0
M  V30 2668 O 359.61 7.1065 3.32998 0
M  V30 2669 O 359.647 6.04542 5.56673 0
M  V30 2670 C 359.487 6.22772 7.02095 0
M  V30 2671 C 360.027 4.97725 7.70406 0
M  V30 2672 O 358.971 4.13256 7.58987 0
M  V30 2673 C 361.245 4.28231 7.11815 0
M  V30 2674 O 361.983 3.49945 8.01648 0
M  V30 2675 C 360.576 3.5063 5.96244 0
M  V30 2676 O 361.375 2.36482 5.64681 0
M  V30 2677 C 359.239 3.15122 6.56374 0
M  V30 2678 H 359.271 2.13853 6.99751 0
M  V30 2679 H 360.454 4.13501 5.06559 0
M  V30 2680 H 361.938 5.03285 6.70911 0
M  V30 2681 H 360.244 5.20877 8.75697 0
M  V30 2682 H 360.054 7.11046 7.35349 0
M  V30 2683 H 358.424 6.35815 7.26986 0
M  V30 2684 H 361.063 1.61644 6.13565 0
M  V30 2685 P 362.92 3.65191 7.99657 0
M  V30 2686 O 364.342 3.8425 8.48115 0
M  V30 2687 O 362.56 4.17805 6.64342 0
M  V30 2688 O 362.597 2.07613 7.95143 0
M  V30 2689 C 362.437 1.44328 9.27336 0
M  V30 2690 C 362.977 0.0220036 9.17197 0
M  V30 2691 O 361.921 -0.626867 8.61923 0
M  V30 2692 C 364.195 -0.24586 8.30336 0
M  V30 2693 O 364.933 -1.39011 8.63583 0
M  V30 2694 C 363.526 -0.273849 6.91158 0
M  V30 2695 O 364.325 -1.06348 6.02892 0
M  V30 2696 C 362.189 -0.897649 7.22545 0
M  V30 2697 H 362.221 -1.9841 7.04286 0
M  V30 2698 H 363.404 0.739928 6.497 0
M  V30 2699 H 364.888 0.60668 8.36503 0
M  V30 2700 H 363.194 -0.352479 10.1829 0
M  V30 2701 H 363.004 2.00611 10.0304 0
M  V30 2702 H 361.374 1.41843 9.55327 0
M  V30 2703 H 364.013 -1.95734 6.03555 0
M  V30 2704 P 365.871 -1.25109 8.70152 0
M  V30 2705 O 367.293 -1.35274 9.21221 0
M  V30 2706 O 365.511 -0.0769065 7.84762 0
M  V30 2707 O 365.548 -2.55232 7.81161 0
M  V30 2708 C 365.388 -3.79939 8.58154 0
M  V30 2709 C 365.928 -4.94023 7.72785 0
M  V30 2710 O 364.872 -5.18726 6.91205 0
M  V30 2711 C 367.146 -4.69597 6.85231 0
M  V30 2712 O 367.884 -5.83832 6.51337 0
M  V30 2713 C 366.477 -3.96706 5.66633 0
M  V30 2714 O 367.276 -4.15414 4.49689 0
M  V30 2715 C 365.14 -4.66153 5.59313 0
M  V30 2716 H 365.172 -5.47679 4.85214 0
M  V30 2717 H 366.355 -2.89008 5.86566 0
M  V30 2718 H 367.839 -4.0121 7.36511 0
M  V30 2719 H 366.145 -5.80182 8.37584 0
M  V30 2720 H 365.955 -3.73517 9.52265 0
M  V30 2721 H 364.325 -3.97163 8.80359 0
M  V30 2722 H 366.964 -4.90969 4.01921 0
M  V30 2723 P 368.821 -5.75688 6.64379 0
M  V30 2724 O 370.243 -6.11849 7.01846 0
M  V30 2725 O 368.461 -4.30744 6.56026 0
M  V30 2726 O 368.498 -6.37042 5.19165 0
M  V30 2727 C 368.338 -7.83578 5.16515 0
M  V30 2728 C 368.878 -8.33398 3.83019 0
M  V30 2729 O 367.822 -8.10074 3.01034 0
M  V30 2730 C 370.096 -7.65514 3.2257 0
M  V30 2731 O 370.834 -8.4329 2.32297 0
M  V30 2732 C 369.427 -6.40075 2.62207 0
M  V30 2733 O 370.226 -5.92589 1.53712 0
M  V30 2734 C 368.09 -6.9454 2.18503 0
M  V30 2735 H 368.122 -7.23063 1.12091 0
M  V30 2736 H 369.305 -5.6025 3.37201 0
M  V30 2737 H 370.789 -7.35707 4.02681 0
M  V30 2738 H 369.095 -9.40912 3.9095 0
M  V30 2739 H 368.905 -8.29056 5.99158 0
M  V30 2740 H 367.275 -8.10073 5.25882 0
M  V30 2741 H 369.914 -6.30324 0.726794 0
M  V30 2742 P 371.772 -8.4349 2.47671 0
M  V30 2743 O 373.194 -8.94167 2.5964 0
M  V30 2744 O 371.412 -7.1704 3.19006 0
M  V30 2745 O 371.449 -8.16596 0.923387 0
M  V30 2746 C 371.289 -9.38437 0.108857 0
M  V30 2747 C 371.829 -9.08175 -1.28353 0
M  V30 2748 O 370.773 -8.44229 -1.84713 0
M  V30 2749 C 373.047 -8.18386 -1.42505 0
M  V30 2750 O 373.785 -8.3501 -2.60497 0
M  V30 2751 C 372.378 -6.80225 -1.25468 0
M  V30 2752 O 373.177 -5.81621 -1.91066 0
M  V30 2753 C 371.041 -7.02416 -1.9168 0
M  V30 2754 H 371.073 -6.6888 -2.96621 0
M  V30 2755 H 372.256 -6.53617 -0.192223 0
M  V30 2756 H 373.74 -8.36622 -0.589963 0
M  V30 2757 H 372.046 -10.0291 -1.79807 0
M  V30 2758 H 371.856 -10.2138 0.558219 0
M  V30 2759 H 370.226 -9.6579 0.0444202 0
M  V30 2760 H 372.865 -5.69556 -2.79637 0
M  V30 2761 P 374.722 -8.4349 -2.47671 0
M  V30 2762 O 376.144 -8.92593 -2.65 0
M  V30 2763 O 374.362 -7.7568 -1.19296 0
M  V30 2764 O 374.399 -7.36886 -3.63805 0
M  V30 2765 C 374.239 -7.95349 -4.982 0
M  V30 2766 C 374.779 -6.94612 -5.98974 0
M  V30 2767 O 373.723 -6.10347 -6.11815 0
M  V30 2768 C 375.997 -6.11426 -5.62335 0
M  V30 2769 O 376.735 -5.6162 -6.70584 0
M  V30 2770 C 375.328 -5.04409 -4.73308 0
M  V30 2771 O 376.127 -3.85992 -4.75183 0
M  V30 2772 C 373.991 -4.8728 -5.41006 0
M  V30 2773 H 374.023 -4.02333 -6.11157 0
M  V30 2774 H 375.206 -5.39466 -3.69543 0
M  V30 2775 H 376.69 -6.71916 -5.01943 0
M  V30 2776 H 374.996 -7.4649 -6.93477 0
M  V30 2777 H 374.806 -8.89416 -5.05237 0
M  V30 2778 H 373.176 -8.14876 -5.18409 0
M  V30 2779 H 375.815 -3.27957 -5.4317 0
M  V30 2780 P 377.673 -5.75688 -6.64379 0
M  V30 2781 O 379.094 -6.07692 -7.0558 0
M  V30 2782 O 377.313 -5.88047 -5.19722 0
M  V30 2783 O 377.35 -4.2322 -7.04443 0
M  V30 2784 C 377.189 -3.99785 -8.49201 0
M  V30 2785 C 377.73 -2.60516 -8.79425 0
M  V30 2786 O 376.675 -1.82663 -8.44573 0
M  V30 2787 C 378.948 -2.10343 -8.03628 0
M  V30 2788 O 379.686 -1.09919 -8.67766 0
M  V30 2789 C 378.28 -1.68446 -6.70876 0
M  V30 2790 O 379.078 -0.684109 -6.08265 0
M  V30 2791 C 376.942 -1.17436 -7.18567 0
M  V30 2792 N 375.899 -1.52699 -6.23988 0
M  V30 2793 C 376.068 -2.578 -5.40574 0
M  V30 2794 N 375.041 -2.78966 -4.61193 0
M  V30 2795 C 374.156 -1.78725 -4.95769 0
M  V30 2796 C 372.889 -1.45727 -4.44207 0
M  V30 2797 N 372.324 -0.374977 -5.05812 0
M  V30 2798 C 372.926 0.345585 -6.05615 0
M  V30 2799 N 374.103 0.0787651 -6.56253 0
M  V30 2800 C 374.678 -1.00499 -5.96189 0
M  V30 2801 H 378.157 -2.53396 -6.02698 0
M  V30 2802 H 379.64 -2.93881 -7.85526 0
M  V30 2803 H 377.946 -2.52078 -9.87225 0
M  V30 2804 H 377.756 -4.75072 -9.05887 0
M  V30 2805 H 376.126 -4.05244 -8.76668 0
M  V30 2806 H 376.968 -3.18977 -5.3945 0
M  V30 2807 H 378.766 0.177619 -6.34151 0
M  V30 2808 P 380.624 -1.25109 -8.70152 0
M  V30 2809 O 382.046 -1.29744 -9.22016 0
M  V30 2810 O 380.264 -2.13714 -7.55141 0
M  V30 2811 O 380.301 0.248149 -8.21425 0
M  V30 2812 C 380.141 1.22779 -9.30434 0
M  V30 2813 C 380.681 2.56293 -8.80664 0
M  V30 2814 O 379.625 3.02979 -8.09349 0
M  V30 2815 C 381.899 2.57523 -7.89775 0
M  V30 2816 O 382.637 3.7668 -7.89438 0
M  V30 2817 C 381.23 2.20997 -6.55446 0
M  V30 2818 O 382.029 2.71895 -5.48509 0
M  V30 2819 C 379.893 2.89693 -6.67988 0
M  V30 2820 H 379.925 3.88793 -6.19859 0
M  V30 2821 H 381.108 1.12046 -6.44229 0
M  V30 2822 H 382.592 1.7746 -8.19711 0
M  V30 2823 H 380.898 3.20706 -9.67112 0
M  V30 2824 H 380.708 0.901032 -10.1892 0
M  V30 2825 H 379.078 1.33049 -9.56592 0
M  V30 2826 H 381.717 3.57847 -5.23962 0
M  V30 2827 P 383.574 3.65191 -7.99657 0
M  V30 2828 O 384.996 3.89332 -8.45794 0
M  V30 2829 O 383.214 2.28472 -7.50807 0
M  V30 2830 O 383.251 4.64972 -6.77611 0
M  V30 2831 C 383.091 6.06319 -7.16352 0
M  V30 2832 C 383.631 6.91731 -6.02299 0
M  V30 2833 O 382.575 6.92449 -5.17064 0
M  V30 2834 C 384.849 6.43627 -5.25174 0
M  V30 2835 O 385.587 7.43686 -4.60469 0
M  V30 2836 C 384.18 5.40275 -4.31916 0
M  V30 2837 O 384.979 5.25279 -3.14438 0
M  V30 2838 C 382.843 6.04847 -4.05327 0
M  V30 2839 H 382.875 6.62195 -3.11261 0
M  V30 2840 H 384.058 4.42556 -4.81383 0
M  V30 2841 H 385.542 5.92458 -5.93643 0
M  V30 2842 H 383.848 7.92655 -6.402 0
M  V30 2843 H 383.658 6.26671 -8.0846 0
M  V30 2844 H 382.028 6.29101 -7.32804 0
M  V30 2845 H 384.667 5.84315 -2.47318 0
M  V30 2846 P 386.525 7.39546 -4.75277 0
M  V30 2847 O 387.947 7.84798 -5.01039 0
M  V30 2848 O 386.165 5.9812 -5.08098 0
M  V30 2849 O 386.202 7.57503 -3.1866 0
M  V30 2850 C 386.042 8.97357 -2.74833 0
M  V30 2851 C 386.582 9.07548 -1.32709 0
M  V30 2852 O 385.526 8.62072 -0.606159 0
M  V30 2853 C 387.8 8.25383 -0.938334 0
M  V30 2854 O 388.538 8.74577 0.146954 0
M  V30 2855 C 387.131 6.8802 -0.712559 0
M  V30 2856 O 387.93 6.1189 0.194655 0
M  V30 2857 C 385.794 7.27966 -0.139777 0
M  V30 2858 H 385.826 7.25354 0.961601 0
M  V30 2859 H 387.009 6.32557 -1.65702 0
M  V30 2860 H 388.493 8.19355 -1.79097 0
M  V30 2861 H 386.799 10.1294 -1.10029 0
M  V30 2862 H 386.609 9.64276 -3.41316 0
M  V30 2863 H 384.979 9.25417 -2.76357 0
M  V30 2864 H 387.618 6.25267 1.07847 0
M  V30 2865 P 389.475 8.791 1.973e-12 0
M  V30 2866 O 390.897 9.31096 0.027933 0
M  V30 2867 O 389.115 7.77869 -1.04071 0
M  V30 2868 O 389.152 8.09533 1.41463 0
M  V30 2869 C 388.992 9.0349 2.53943 0
M  V30 2870 C 389.532 8.35226 3.79016 0
M  V30 2871 O 388.476 7.57992 4.15078 0
M  V30 2872 C 390.75 7.45087 3.67298 0
M  V30 2873 O 391.488 7.27796 4.85194 0
M  V30 2874 C 390.081 6.17323 3.12027 0
M  V30 2875 O 390.88 5.04231 3.47188 0
M  V30 2876 C 388.744 6.19961 3.81809 0
M  V30 2877 H 388.776 5.58218 4.73051 0
M  V30 2878 H 389.959 6.21726 2.02589 0
M  V30 2879 H 391.443 7.86112 2.9231 0
M  V30 2880 H 389.749 9.11627 4.55076 0
M  V30 2881 H 389.559 9.9573 2.34194 0
M  V30 2882 H 387.929 9.2792 2.67832 0
M  V30 2883 H 390.568 4.67702 4.28772 0
M  V30 2884 P 392.426 7.39546 4.75277 0
M  V30 2885 O 393.848 7.81777 5.05738 0
M  V30 2886 O 392.066 7.1065 3.32998 0
M  V30 2887 O 392.103 6.04542 5.56673 0
M  V30 2888 C 391.943 6.22772 7.02095 0
M  V30 2889 C 392.483 4.97725 7.70406 0
M  V30 2890 O 391.427 4.13256 7.58987 0
M  V30 2891 C 393.701 4.28231 7.11815 0
M  V30 2892 O 394.439 3.49945 8.01648 0
M  V30 2893 C 393.032 3.5063 5.96244 0
M  V30 2894 O 393.831 2.36482 5.64681 0
M  V30 2895 C 391.695 3.15122 6.56374 0
M  V30 2896 H 391.727 2.13853 6.99751 0
M  V30 2897 H 392.91 4.13501 5.06559 0
M  V30 2898 H 394.394 5.03285 6.70911 0
M  V30 2899 H 392.7 5.20877 8.75697 0
M  V30 2900 H 392.51 7.11046 7.35349 0
M  V30 2901 H 390.88 6.35815 7.26986 0
M  V30 2902 H 393.519 1.61644 6.13565 0
M  V30 2903 P 395.376 3.65191 7.99657 0
M  V30 2904 O 396.798 3.8425 8.48115 0
M  V30 2905 O 395.016 4.17805 6.64342 0
M  V30 2906 O 395.053 2.07613 7.95143 0
M  V30 2907 C 394.893 1.44328 9.27336 0
M  V30 2908 C 395.433 0.0220036 9.17197 0
M  V30 2909 O 394.377 -0.626867 8.61923 0
M  V30 2910 C 396.651 -0.24586 8.30336 0
M  V30 2911 O 397.389 -1.39011 8.63583 0
M  V30 2912 C 395.982 -0.273849 6.91158 0
M  V30 2913 O 396.781 -1.06348 6.02892 0
M  V30 2914 C 394.645 -0.897649 7.22545 0
M  V30 2915 H 394.677 -1.9841 7.04286 0
M  V30 2916 H 395.86 0.739928 6.497 0
M  V30 2917 H 397.344 0.60668 8.36503 0
M  V30 2918 H 395.65 -0.352479 10.1829 0
M  V30 2919 H 395.46 2.00611 10.0304 0
M  V30 2920 H 393.83 1.41843 9.55327 0
M  V30 2921 H 396.469 -1.95734 6.03555 0
M  V30 2922 P 398.327 -1.25109 8.70152 0
M  V30 2923 O 399.749 -1.35274 9.21221 0
M  V30 2924 O 397.967 -0.0769065 7.84762 0
M  V30 2925 O 398.004 -2.55232 7.81161 0
M  V30 2926 C 397.844 -3.79939 8.58154 0
M  V30 2927 C 398.384 -4.94023 7.72785 0
M  V30 2928 O 397.328 -5.18726 6.91205 0
M  V30 2929 C 399.602 -4.69597 6.85231 0
M  V30 2930 O 400.34 -5.83832 6.51337 0
M  V30 2931 C 398.933 -3.96706 5.66633 0
M  V30 2932 O 399.732 -4.15414 4.49689 0
M  V30 2933 C 397.596 -4.66153 5.59313 0
M  V30 2934 H 397.628 -5.47679 4.85214 0
M  V30 2935 H 398.811 -2.89008 5.86566 0
M  V30 2936 H 400.295 -4.0121 7.36511 0
M  V30 2937 H 398.601 -5.80182 8.37584 0
M  V30 2938 H 398.411 -3.73517 9.52265 0
M  V30 2939 H 396.781 -3.97163 8.80359 0
M  V30 2940 H 399.42 -4.90969 4.01921 0
M  V30 2941 P 401.278 -5.75688 6.64379 0
M  V30 2942 O 402.7 -6.11849 7.01846 0
M  V30 2943 O 400.918 -4.30744 6.56026 0
M  V30 2944 O 400.955 -6.37042 5.19165 0
M  V30 2945 C 400.795 -7.83578 5.16515 0
M  V30 2946 C 401.335 -8.33398 3.83019 0
M  V30 2947 O 400.279 -8.10074 3.01034 0
M  V30 2948 C 402.553 -7.65514 3.2257 0
M  V30 2949 O 403.291 -8.4329 2.32297 0
M  V30 2950 C 401.884 -6.40075 2.62207 0
M  V30 2951 O 402.683 -5.92589 1.53712 0
M  V30 2952 C 400.547 -6.9454 2.18503 0
M  V30 2953 H 400.579 -7.23063 1.12091 0
M  V30 2954 H 401.762 -5.6025 3.37201 0
M  V30 2955 H 403.246 -7.35707 4.02681 0
M  V30 2956 H 401.552 -9.40912 3.9095 0
M  V30 2957 H 401.362 -8.29056 5.99158 0
M  V30 2958 H 399.732 -8.10073 5.25882 0
M  V30 2959 H 402.371 -6.30324 0.726794 0
M  V30 2960 P 404.228 -8.4349 2.47671 0
M  V30 2961 O 405.649 -8.94263 2.59668 0
M  V30 2962 O 403.868 -7.1704 3.19006 0
M  V30 2963 O 403.905 -8.16596 0.923387 0
M  V30 2964 C 403.744 -9.38537 0.108869 0
M  V30 2965 C 404.285 -9.08175 -1.28353 0
M  V30 2966 O 403.23 -8.44131 -1.84692 0
M  V30 2967 C 405.503 -8.18386 -1.42505 0
M  V30 2968 O 406.241 -8.3501 -2.60497 0
M  V30 2969 C 404.835 -6.80225 -1.25468 0
M  V30 2970 O 405.633 -5.81716 -1.90454 0
M  V30 2971 C 403.497 -7.02416 -1.9168 0
M  V30 2972 N 402.454 -6.31033 -1.20314 0
M  V30 2973 C 402.623 -5.98817 0.0994088 0
M  V30 2974 N 401.596 -5.35403 0.621694 0
M  V30 2975 C 400.711 -5.25212 -0.43376 0
M  V30 2976 C 399.444 -4.64602 -0.519722 0
M  V30 2977 N 398.845 -4.01457 0.519136 0
M  V30 2978 N 398.879 -4.7568 -1.76013 0
M  V30 2979 C 399.481 -5.3653 -2.83017 0
M  V30 2980 N 400.658 -5.93676 -2.79782 0
M  V30 2981 C 401.233 -5.84061 -1.56249 0
M  V30 2982 H 403.529 -6.68789 -2.9658 0
M  V30 2983 H 404.712 -6.53498 -0.198729 0
M  V30 2984 H 406.195 -8.36622 -0.589963 0
M  V30 2985 H 404.501 -10.0273 -1.8081 0
M  V30 2986 H 404.311 -10.2138 0.558219 0
M  V30 2987 H 402.681 -9.6579 0.0444202 0
M  V30 2988 H 398.945 -5.37113 -3.77321 0
M  V30 2989 H 403.523 -6.23209 0.660562 0
M  V30 2990 H 397.915 -3.58834 0.394862 0
M  V30 2991 H 399.319 -3.96059 1.43048 0
M  V30 2992 H 405.321 -5.69466 -2.79593 0
M  V30 2993 P 407.179 -8.4349 -2.47671 0
M  V30 2994 O 408.601 -8.92593 -2.65 0
M  V30 2995 O 406.819 -7.7568 -1.19296 0
M  V30 2996 O 406.856 -7.36886 -3.63805 0
M  V30 2997 C 406.696 -7.95349 -4.982 0
M  V30 2998 C 407.236 -6.94612 -5.98974 0
M  V30 2999 O 406.18 -6.10347 -6.11815 0
M  V30 3000 C 408.454 -6.11426 -5.62335 0
M  V30 3001 O 409.192 -5.6162 -6.70584 0
M  V30 3002 C 407.785 -5.04409 -4.73308 0
M  V30 3003 O 408.584 -3.85992 -4.75183 0
M  V30 3004 C 406.448 -4.8728 -5.41006 0
M  V30 3005 H 406.48 -4.02333 -6.11157 0
M  V30 3006 H 407.663 -5.39466 -3.69543 0
M  V30 3007 H 409.147 -6.71916 -5.01943 0
M  V30 3008 H 407.453 -7.4649 -6.93477 0
M  V30 3009 H 407.263 -8.89416 -5.05237 0
M  V30 3010 H 405.633 -8.14876 -5.18409 0
M  V30 3011 H 408.272 -3.27957 -5.4317 0
M  V30 3012 P 410.129 -5.75688 -6.64379 0
M  V30 3013 O 411.551 -6.07627 -7.05504 0
M  V30 3014 O 409.769 -5.88047 -5.19722 0
M  V30 3015 O 409.806 -4.2322 -7.04443 0
M  V30 3016 C 409.646 -3.99743 -8.4911 0
M  V30 3017 C 410.186 -2.60516 -8.79425 0
M  V30 3018 O 409.13 -1.82684 -8.4467 0
M  V30 3019 C 411.404 -2.10343 -8.03628 0
M  V30 3020 O 412.142 -1.09919 -8.67766 0
M  V30 3021 C 410.735 -1.68446 -6.70876 0
M  V30 3022 O 411.534 -0.678137 -6.08433 0
M  V30 3023 C 409.398 -1.17436 -7.18567 0
M  V30 3024 H 409.43 -0.0804732 -7.31656 0
M  V30 3025 H 410.613 -2.54037 -6.02537 0
M  V30 3026 H 412.097 -2.93881 -7.85526 0
M  V30 3027 H 410.403 -2.53065 -9.86973 0
M  V30 3028 H 410.213 -4.75072 -9.05887 0
M  V30 3029 H 408.583 -4.05244 -8.76668 0
M  V30 3030 H 411.222 0.177647 -6.34251 0
M  V30 3031 P 413.08 -1.25109 -8.70152 0
M  V30 3032 O 414.502 -1.29744 -9.22016 0
M  V30 3033 O 412.72 -2.13714 -7.55141 0
M  V30 3034 O 412.757 0.248149 -8.21425 0
M  V30 3035 C 412.597 1.22779 -9.30434 0
M  V30 3036 C 413.137 2.56293 -8.80664 0
M  V30 3037 O 412.081 3.02979 -8.09349 0
M  V30 3038 C 414.355 2.57523 -7.89775 0
M  V30 3039 O 415.093 3.7668 -7.89438 0
M  V30 3040 C 413.686 2.20997 -6.55446 0
M  V30 3041 O 414.485 2.71895 -5.48509 0
M  V30 3042 C 412.349 2.89693 -6.67988 0
M  V30 3043 H 412.381 3.88793 -6.19859 0
M  V30 3044 H 413.564 1.12046 -6.44229 0
M  V30 3045 H 415.048 1.7746 -8.19711 0
M  V30 3046 H 413.354 3.20706 -9.67112 0
M  V30 3047 H 413.164 0.901032 -10.1892 0
M  V30 3048 H 411.534 1.33049 -9.56592 0
M  V30 3049 H 414.173 3.57847 -5.23962 0
M  V30 3050 P 416.03 3.65191 -7.99657 0
M  V30 3051 O 417.452 3.89332 -8.45794 0
M  V30 3052 O 415.67 2.28472 -7.50807 0
M  V30 3053 O 415.707 4.64972 -6.77611 0
M  V30 3054 C 415.547 6.06319 -7.16352 0
M  V30 3055 C 416.087 6.91731 -6.02299 0
M  V30 3056 O 415.031 6.92449 -5.17064 0
M  V30 3057 C 417.305 6.43627 -5.25174 0
M  V30 3058 O 418.043 7.43686 -4.60469 0
M  V30 3059 C 416.636 5.40275 -4.31916 0
M  V30 3060 O 417.435 5.25279 -3.14438 0
M  V30 3061 C 415.299 6.04847 -4.05327 0
M  V30 3062 H 415.331 6.62195 -3.11261 0
M  V30 3063 H 416.514 4.42556 -4.81383 0
M  V30 3064 H 417.998 5.92458 -5.93643 0
M  V30 3065 H 416.304 7.92655 -6.402 0
M  V30 3066 H 416.114 6.26671 -8.0846 0
M  V30 3067 H 414.484 6.29101 -7.32804 0
M  V30 3068 H 417.123 5.84315 -2.47318 0
M  V30 3069 P 418.981 7.39546 -4.75277 0
M  V30 3070 O 420.403 7.84798 -5.01039 0
M  V30 3071 O 418.621 5.9812 -5.08098 0
M  V30 3072 O 418.658 7.57503 -3.1866 0
M  V30 3073 C 418.498 8.97357 -2.74833 0
M  V30 3074 C 419.038 9.07548 -1.32709 0
M  V30 3075 O 417.982 8.62072 -0.606159 0
M  V30 3076 C 420.256 8.25383 -0.938334 0
M  V30 3077 O 420.994 8.74577 0.146954 0
M  V30 3078 C 419.587 6.8802 -0.712559 0
M  V30 3079 O 420.386 6.1189 0.194655 0
M  V30 3080 C 418.25 7.27966 -0.139777 0
M  V30 3081 H 418.282 7.25354 0.961601 0
M  V30 3082 H 419.465 6.32557 -1.65702 0
M  V30 3083 H 420.949 8.19355 -1.79097 0
M  V30 3084 H 419.255 10.1294 -1.10029 0
M  V30 3085 H 419.065 9.64276 -3.41316 0
M  V30 3086 H 417.435 9.25417 -2.76357 0
M  V30 3087 H 420.074 6.25267 1.07847 0
M  V30 3088 P 421.932 8.791 2.28317e-12 0
M  V30 3089 O 423.354 9.31096 0.027933 0
M  V30 3090 O 421.572 7.77869 -1.04071 0
M  V30 3091 O 421.609 8.09533 1.41463 0
M  V30 3092 C 421.449 9.0349 2.53943 0
M  V30 3093 C 421.989 8.35226 3.79016 0
M  V30 3094 O 420.933 7.57992 4.15078 0
M  V30 3095 C 423.207 7.45087 3.67298 0
M  V30 3096 O 423.945 7.27796 4.85194 0
M  V30 3097 C 422.538 6.17323 3.12027 0
M  V30 3098 O 423.337 5.04231 3.47188 0
M  V30 3099 C 421.201 6.19961 3.81809 0
M  V30 3100 H 421.233 5.58218 4.73051 0
M  V30 3101 H 422.416 6.21726 2.02589 0
M  V30 3102 H 423.9 7.86112 2.9231 0
M  V30 3103 H 422.206 9.11627 4.55076 0
M  V30 3104 H 422.016 9.9573 2.34194 0
M  V30 3105 H 420.386 9.2792 2.67832 0
M  V30 3106 H 423.025 4.67702 4.28772 0
M  V30 3107 P 424.882 7.39546 4.75277 0
M  V30 3108 O 426.304 7.81777 5.05738 0
M  V30 3109 O 424.522 7.1065 3.32998 0
M  V30 3110 O 424.559 6.04542 5.56673 0
M  V30 3111 C 424.399 6.22772 7.02095 0
M  V30 3112 C 424.939 4.97725 7.70406 0
M  V30 3113 O 423.883 4.13256 7.58987 0
M  V30 3114 C 426.157 4.28231 7.11815 0
M  V30 3115 O 426.895 3.49945 8.01648 0
M  V30 3116 C 425.488 3.5063 5.96244 0
M  V30 3117 O 426.287 2.36482 5.64681 0
M  V30 3118 C 424.151 3.15122 6.56374 0
M  V30 3119 H 424.183 2.13853 6.99751 0
M  V30 3120 H 425.366 4.13501 5.06559 0
M  V30 3121 H 426.85 5.03285 6.70911 0
M  V30 3122 H 425.156 5.20877 8.75697 0
M  V30 3123 H 424.966 7.11046 7.35349 0
M  V30 3124 H 423.336 6.35815 7.26986 0
M  V30 3125 H 425.975 1.61644 6.13565 0
M  V30 3126 P 427.833 3.65191 7.99657 0
M  V30 3127 O 429.255 3.8425 8.48115 0
M  V30 3128 O 427.473 4.17805 6.64342 0
M  V30 3129 O 427.51 2.07613 7.95143 0
M  V30 3130 C 427.35 1.44328 9.27336 0
M  V30 3131 C 427.89 0.0220036 9.17197 0
M  V30 3132 O 426.834 -0.626867 8.61923 0
M  V30 3133 C 429.108 -0.24586 8.30336 0
M  V30 3134 O 429.846 -1.39011 8.63583 0
M  V30 3135 C 428.439 -0.273849 6.91158 0
M  V30 3136 O 429.238 -1.06348 6.02892 0
M  V30 3137 C 427.102 -0.897649 7.22545 0
M  V30 3138 H 427.134 -1.9841 7.04286 0
M  V30 3139 H 428.317 0.739928 6.497 0
M  V30 3140 H 429.801 0.60668 8.36503 0
M  V30 3141 H 428.107 -0.352479 10.1829 0
M  V30 3142 H 427.917 2.00611 10.0304 0
M  V30 3143 H 426.287 1.41843 9.55327 0
M  V30 3144 H 428.926 -1.95734 6.03555 0
M  V30 3145 P 430.783 -1.25109 8.70152 0
M  V30 3146 O 432.205 -1.35274 9.21221 0
M  V30 3147 O 430.423 -0.0769065 7.84762 0
M  V30 3148 O 430.46 -2.55232 7.81161 0
M  V30 3149 C 430.3 -3.79939 8.58154 0
M  V30 3150 C 430.84 -4.94023 7.72785 0
M  V30 3151 O 429.784 -5.18726 6.91205 0
M  V30 3152 C 432.058 -4.69597 6.85231 0
M  V30 3153 O 432.796 -5.83832 6.51337 0
M  V30 3154 C 431.389 -3.96706 5.66633 0
M  V30 3155 O 432.188 -4.15414 4.49689 0
M  V30 3156 C 430.052 -4.66153 5.59313 0
M  V30 3157 H 430.084 -5.47679 4.85214 0
M  V30 3158 H 431.267 -2.89008 5.86566 0
M  V30 3159 H 432.751 -4.0121 7.36511 0
M  V30 3160 H 431.057 -5.80182 8.37584 0
M  V30 3161 H 430.867 -3.73517 9.52265 0
M  V30 3162 H 429.237 -3.97163 8.80359 0
M  V30 3163 H 431.876 -4.90969 4.01921 0
M  V30 3164 P 433.734 -5.75688 6.64379 0
M  V30 3165 O 435.156 -6.11849 7.01846 0
M  V30 3166 O 433.374 -4.30744 6.56026 0
M  V30 3167 O 433.411 -6.37042 5.19165 0
M  V30 3168 C 433.251 -7.83578 5.16515 0
M  V30 3169 C 433.791 -8.33398 3.83019 0
M  V30 3170 O 432.735 -8.10074 3.01034 0
M  V30 3171 C 435.009 -7.65514 3.2257 0
M  V30 3172 O 435.747 -8.4329 2.32297 0
M  V30 3173 C 434.34 -6.40075 2.62207 0
M  V30 3174 O 435.139 -5.92589 1.53712 0
M  V30 3175 C 433.003 -6.9454 2.18503 0
M  V30 3176 H 433.035 -7.23063 1.12091 0
M  V30 3177 H 434.218 -5.6025 3.37201 0
M  V30 3178 H 435.702 -7.35707 4.02681 0
M  V30 3179 H 434.008 -9.40912 3.9095 0
M  V30 3180 H 433.818 -8.29056 5.99158 0
M  V30 3181 H 432.188 -8.10073 5.25882 0
M  V30 3182 H 434.827 -6.30324 0.726794 0
M  V30 3183 P 436.684 -8.4349 2.47671 0
M  V30 3184 O 438.106 -8.94167 2.5964 0
M  V30 3185 O 436.324 -7.1704 3.19006 0
M  V30 3186 O 436.361 -8.16596 0.923387 0
M  V30 3187 C 436.201 -9.38437 0.108857 0
M  V30 3188 C 436.741 -9.08175 -1.28353 0
M  V30 3189 O 435.685 -8.44229 -1.84713 0
M  V30 3190 C 437.959 -8.18386 -1.42505 0
M  V30 3191 O 438.697 -8.3501 -2.60497 0
M  V30 3192 C 437.29 -6.80225 -1.25468 0
M  V30 3193 O 438.089 -5.81621 -1.91066 0
M  V30 3194 C 435.953 -7.02416 -1.9168 0
M  V30 3195 H 435.985 -6.6888 -2.96621 0
M  V30 3196 H 437.168 -6.53617 -0.192223 0
M  V30 3197 H 438.652 -8.36622 -0.589963 0
M  V30 3198 H 436.958 -10.0291 -1.79807 0
M  V30 3199 H 436.768 -10.2138 0.558219 0
M  V30 3200 H 435.138 -9.6579 0.0444202 0
M  V30 3201 H 437.777 -5.69556 -2.79637 0
M  V30 3202 P 439.635 -8.4349 -2.47671 0
M  V30 3203 O 441.057 -8.92593 -2.65 0
M  V30 3204 O 439.275 -7.7568 -1.19296 0
M  V30 3205 O 439.312 -7.36886 -3.63805 0
M  V30 3206 C 439.152 -7.95349 -4.982 0
M  V30 3207 C 439.692 -6.94612 -5.98974 0
M  V30 3208 O 438.636 -6.10347 -6.11815 0
M  V30 3209 C 440.91 -6.11426 -5.62335 0
M  V30 3210 O 441.648 -5.6162 -6.70584 0
M  V30 3211 C 440.241 -5.04409 -4.73308 0
M  V30 3212 O 441.04 -3.85992 -4.75183 0
M  V30 3213 C 438.904 -4.8728 -5.41006 0
M  V30 3214 H 438.936 -4.02333 -6.11157 0
M  V30 3215 H 440.119 -5.39466 -3.69543 0
M  V30 3216 H 441.603 -6.71916 -5.01943 0
M  V30 3217 H 439.909 -7.4649 -6.93477 0
M  V30 3218 H 439.719 -8.89416 -5.05237 0
M  V30 3219 H 438.089 -8.14876 -5.18409 0
M  V30 3220 H 440.728 -3.27957 -5.4317 0
M  V30 3221 P 442.586 -5.75688 -6.64379 0
M  V30 3222 O 444.007 -6.07692 -7.0558 0
M  V30 3223 O 442.226 -5.88047 -5.19722 0
M  V30 3224 O 442.263 -4.2322 -7.04443 0
M  V30 3225 C 442.102 -3.99785 -8.49201 0
M  V30 3226 C 442.643 -2.60516 -8.79425 0
M  V30 3227 O 441.588 -1.82663 -8.44573 0
M  V30 3228 C 443.861 -2.10343 -8.03628 0
M  V30 3229 O 444.599 -1.09919 -8.67766 0
M  V30 3230 C 443.193 -1.68446 -6.70876 0
M  V30 3231 O 443.991 -0.684109 -6.08265 0
M  V30 3232 C 441.855 -1.17436 -7.18567 0
M  V30 3233 N 440.812 -1.52699 -6.23988 0
M  V30 3234 C 440.981 -2.578 -5.40574 0
M  V30 3235 N 439.954 -2.78966 -4.61193 0
M  V30 3236 C 439.069 -1.78725 -4.95769 0
M  V30 3237 C 437.802 -1.45727 -4.44207 0
M  V30 3238 N 437.203 -2.13994 -3.43613 0
M  V30 3239 N 437.237 -0.374977 -5.05812 0
M  V30 3240 C 437.839 0.345585 -6.05615 0
M  V30 3241 N 439.016 0.0787651 -6.56253 0
M  V30 3242 C 439.591 -1.00499 -5.96189 0
M  V30 3243 H 441.887 -0.0804622 -7.31556 0
M  V30 3244 H 443.07 -2.53396 -6.02698 0
M  V30 3245 H 444.553 -2.93881 -7.85526 0
M  V30 3246 H 442.859 -2.52078 -9.87225 0
M  V30 3247 H 442.669 -4.75072 -9.05887 0
M  V30 3248 H 441.039 -4.05244 -8.76668 0
M  V30 3249 H 437.303 1.20098 -6.4532 0
M  V30 3250 H 441.881 -3.18977 -5.3945 0
M  V30 3251 H 436.273 -1.84983 -3.10004 0
M  V30 3252 H 437.677 -2.9465 -3.00843 0
M  V30 3253 H 443.679 0.177619 -6.34151 0
M  V30 3254 P 445.536 -1.25109 -8.70152 0
M  V30 3255 O 446.957 -1.29758 -9.22115 0
M  V30 3256 O 445.176 -2.13714 -7.55141 0
M  V30 3257 O 445.213 0.248149 -8.21425 0
M  V30 3258 C 445.052 1.22792 -9.30533 0
M  V30 3259 C 445.593 2.56293 -8.80664 0
M  V30 3260 O 444.538 3.02944 -8.09255 0
M  V30 3261 C 446.811 2.57523 -7.89775 0
M  V30 3262 O 447.549 3.7668 -7.89438 0
M  V30 3263 C 446.143 2.20997 -6.55446 0
M  V30 3264 O 446.941 2.71302 -5.48691 0
M  V30 3265 C 444.805 2.89693 -6.67988 0
M  V30 3266 N 443.762 2.08895 -6.07487 0
M  V30 3267 C 443.931 0.753809 -5.94137 0
M  V30 3268 N 442.904 0.146592 -5.38801 0
M  V30 3269 C 442.019 1.1768 -5.13693 0
M  V30 3270 C 440.752 1.17563 -4.52477 0
M  V30 3271 N 440.187 2.41918 -4.45789 0
M  V30 3272 C 440.789 3.56493 -4.90792 0
M  V30 3273 N 441.966 3.61423 -5.47817 0
M  V30 3274 C 442.541 2.37779 -5.5588 0
M  V30 3275 H 446.02 1.12673 -6.44018 0
M  V30 3276 H 447.503 1.7746 -8.19711 0
M  V30 3277 H 445.809 3.21673 -9.66791 0
M  V30 3278 H 445.619 0.901032 -10.1892 0
M  V30 3279 H 443.989 1.33049 -9.56592 0
M  V30 3280 H 444.831 0.233081 -6.26266 0
M  V30 3281 H 446.629 3.5779 -5.23879 0
M  V30 3282 P 448.487 3.65191 -7.99657 0
M  V30 3283 O 449.909 3.89332 -8.45794 0
M  V30 3284 O 448.127 2.28472 -7.50807 0
M  V30 3285 O 448.164 4.64972 -6.77611 0
M  V30 3286 C 448.004 6.06319 -7.16352 0
M  V30 3287 C 448.544 6.91731 -6.02299 0
M  V30 3288 O 447.488 6.92449 -5.17064 0
M  V30 3289 C 449.762 6.43627 -5.25174 0
M  V30 3290 O 450.5 7.43686 -4.60469 0
M  V30 3291 C 449.093 5.40275 -4.31916 0
M  V30 3292 O 449.892 5.25279 -3.14438 0
M  V30 3293 C 447.756 6.04847 -4.05327 0
M  V30 3294 H 447.788 6.62195 -3.11261 0
M  V30 3295 H 448.971 4.42556 -4.81383 0
M  V30 3296 H 450.455 5.92458 -5.93643 0
M  V30 3297 H 448.761 7.92655 -6.402 0
M  V30 3298 H 448.571 6.26671 -8.0846 0
M  V30 3299 H 446.941 6.29101 -7.32804 0
M  V30 3300 H 449.58 5.84315 -2.47318 0
M  V30 3301 P 451.437 7.39546 -4.75277 0
M  V30 3302 O 452.859 7.84798 -5.01039 0
M  V30 3303 O 451.077 5.9812 -5.08098 0
M  V30 3304 O 451.114 7.57503 -3.1866 0
M  V30 3305 C 450.954 8.97357 -2.74833 0
M  V30 3306 C 451.494 9.07548 -1.32709 0
M  V30 3307 O 450.438 8.62072 -0.606159 0
M  V30 3308 C 452.712 8.25383 -0.938334 0
M  V30 3309 O 453.45 8.74577 0.146954 0
M  V30 3310 C 452.043 6.8802 -0.712559 0
M  V30 3311 O 452.842 6.1189 0.194655 0
M  V30 3312 C 450.706 7.27966 -0.139777 0
M  V30 3313 H 450.738 7.25354 0.961601 0
M  V30 3314 H 451.921 6.32557 -1.65702 0
M  V30 3315 H 453.405 8.19355 -1.79097 0
M  V30 3316 H 451.711 10.1294 -1.10029 0
M  V30 3317 H 451.521 9.64276 -3.41316 0
M  V30 3318 H 449.891 9.25417 -2.76357 0
M  V30 3319 H 452.53 6.25267 1.07847 0
M  V30 3320 P 454.388 8.791 2.59334e-12 0
M  V30 3321 O 455.81 9.31096 0.027933 0
M  V30 3322 O 454.028 7.77869 -1.04071 0
M  V30 3323 O 454.065 8.09533 1.41463 0
M  V30 3324 C 453.905 9.0349 2.53943 0
M  V30 3325 C 454.445 8.35226 3.79016 0
M  V30 3326 O 453.389 7.57992 4.15078 0
M  V30 3327 C 455.663 7.45087 3.67298 0
M  V30 3328 O 456.401 7.27796 4.85194 0
M  V30 3329 C 454.994 6.17323 3.12027 0
M  V30 3330 O 455.793 5.04231 3.47188 0
M  V30 3331 C 453.657 6.19961 3.81809 0
M  V30 3332 H 453.689 5.58218 4.73051 0
M  V30 3333 H 454.872 6.21726 2.02589 0
M  V30 3334 H 456.356 7.86112 2.9231 0
M  V30 3335 H 454.662 9.11627 4.55076 0
M  V30 3336 H 454.472 9.9573 2.34194 0
M  V30 3337 H 452.842 9.2792 2.67832 0
M  V30 3338 H 455.481 4.67702 4.28772 0
M  V30 3339 P 457.338 7.39546 4.75277 0
M  V30 3340 O 458.76 7.81777 5.05738 0
M  V30 3341 O 456.978 7.1065 3.32998 0
M  V30 3342 O 457.015 6.04542 5.56673 0
M  V30 3343 C 456.855 6.22772 7.02095 0
M  V30 3344 C 457.395 4.97725 7.70406 0
M  V30 3345 O 456.339 4.13256 7.58987 0
M  V30 3346 C 458.613 4.28231 7.11815 0
M  V30 3347 O 459.351 3.49945 8.01648 0
M  V30 3348 C 457.944 3.5063 5.96244 0
M  V30 3349 O 458.743 2.36482 5.64681 0
M  V30 3350 C 456.607 3.15122 6.56374 0
M  V30 3351 H 456.639 2.13853 6.99751 0
M  V30 3352 H 457.822 4.13501 5.06559 0
M  V30 3353 H 459.306 5.03285 6.70911 0
M  V30 3354 H 457.612 5.20877 8.75697 0
M  V30 3355 H 457.422 7.11046 7.35349 0
M  V30 3356 H 455.792 6.35815 7.26986 0
M  V30 3357 H 458.431 1.61644 6.13565 0
M  V30 3358 P 460.289 3.65191 7.99657 0
M  V30 3359 O 461.69 3.90823 8.51272 0
M  V30 3360 O 459.911 4.23191 6.66972 0
M  V30 3361 O 459.966 2.07587 7.95046 0
M  V30 3362 C 459.806 1.44328 9.27336 0
M  V30 3363 C 460.346 0.0220012 9.17097 0
M  V30 3364 O 459.29 -0.626794 8.61824 0
M  V30 3365 C 461.563 -0.24586 8.30336 0
M  V30 3366 O 462.302 -1.39011 8.63583 0
M  V30 3367 C 460.896 -0.273849 6.91158 0
M  V30 3368 O 461.694 -1.06331 6.02794 0
M  V30 3369 C 459.558 -0.897649 7.22545 0
M  V30 3370 N 458.515 -0.292839 6.41732 0
M  V30 3371 C 457.48 -1.08701 5.98712 0
M  V30 3372 O 457.519 -2.31211 6.24471 0
M  V30 3373 N 456.468 -0.533391 5.28415 0
M  V30 3374 C 456.516 0.770866 4.98576 0
M  V30 3375 C 457.612 1.59049 5.38086 0
M  V30 3376 C 458.578 1.01866 6.10256 0
M  V30 3377 H 459.59 -1.98383 7.04189 0
M  V30 3378 H 460.773 0.733318 6.49674 0
M  V30 3379 H 462.257 0.598386 8.36663 0
M  V30 3380 H 460.563 -0.362662 10.1825 0
M  V30 3381 H 460.372 2.00611 10.0304 0
M  V30 3382 H 458.742 1.41828 9.55228 0
M  V30 3383 H 457.66 2.6415 5.10622 0
M  V30 3384 H 459.424 1.61983 6.44042 0
M  V30 3385 H 461.478 -1.97777 6.14035 0
M  V30 3386 P 463.239 -1.25109 8.70152 0
M  V30 3387 O 464.661 -1.35303 9.21419 0
M  V30 3388 O 462.879 -0.0769065 7.84762 0
M  V30 3389 O 462.916 -2.55232 7.81161 0
M  V30 3390 C 462.756 -3.79939 8.58154 0
M  V30 3391 C 463.296 -4.93969 7.72701 0
M  V30 3392 O 462.241 -5.18726 6.91205 0
M  V30 3393 C 464.514 -4.69597 6.85231 0
M  V30 3394 O 465.252 -5.83832 6.51337 0
M  V30 3395 C 463.846 -3.96706 5.66633 0
M  V30 3396 O 464.644 -4.15346 4.49615 0
M  V30 3397 C 462.508 -4.66153 5.59313 0
M  V30 3398 N 461.465 -3.71582 5.24027 0
M  V30 3399 C 461.527 -2.46018 5.67902 0
M  V30 3400 N 460.482 -1.74868 5.24518 0
M  V30 3401 C 459.748 -2.61333 4.54528 0
M  V30 3402 C 458.442 -2.46162 3.95441 0
M  V30 3403 O 457.709 -1.46013 3.94122 0
M  V30 3404 N 458.012 -3.59334 3.34752 0
M  V30 3405 C 458.761 -4.79605 3.3023 0
M  V30 3406 N 458.164 -5.82109 2.6065 0
M  V30 3407 N 459.914 -4.97402 3.8843 0
M  V30 3408 C 460.371 -3.86258 4.50476 0
M  V30 3409 H 462.54 -5.47679 4.85214 0
M  V30 3410 H 463.723 -2.88964 5.86476 0
M  V30 3411 H 465.208 -4.01947 7.36109 0
M  V30 3412 H 463.513 -5.80182 8.37584 0
M  V30 3413 H 463.323 -3.73517 9.52265 0
M  V30 3414 H 461.692 -3.97163 8.80359 0
M  V30 3415 H 457.116 -3.5825 2.90294 0
M  V30 3416 H 462.323 -2.06161 6.30974 0
M  V30 3417 H 457.253 -5.66979 2.15354 0
M  V30 3418 H 458.629 -6.73686 2.54344 0
M  V30 3419 H 464.333 -4.90891 4.01857 0
M  V30 3420 P 466.19 -5.75688 6.64379 0
M  V30 3421 O 467.612 -6.11849 7.01846 0
M  V30 3422 O 465.83 -4.30744 6.56026 0
M  V30 3423 O 465.867 -6.37042 5.19165 0
M  V30 3424 C 465.707 -7.83578 5.16515 0
M  V30 3425 C 466.247 -8.33398 3.83019 0
M  V30 3426 O 465.191 -8.10074 3.01034 0
M  V30 3427 C 467.465 -7.65514 3.2257 0
M  V30 3428 O 468.203 -8.4329 2.32297 0
M  V30 3429 C 466.796 -6.40075 2.62207 0
M  V30 3430 O 467.595 -5.92589 1.53712 0
M  V30 3431 C 465.459 -6.9454 2.18503 0
M  V30 3432 H 465.491 -7.23063 1.12091 0
M  V30 3433 H 466.674 -5.6025 3.37201 0
M  V30 3434 H 468.158 -7.35707 4.02681 0
M  V30 3435 H 466.464 -9.40912 3.9095 0
M  V30 3436 H 466.274 -8.29056 5.99158 0
M  V30 3437 H 464.644 -8.10073 5.25882 0
M  V30 3438 H 467.283 -6.30324 0.726794 0
M  V30 3439 P 469.141 -8.4349 2.47671 0
M  V30 3440 O 470.563 -8.94167 2.5964 0
M  V30 3441 O 468.781 -7.1704 3.19006 0
M  V30 3442 O 468.818 -8.16596 0.923387 0
M  V30 3443 C 468.658 -9.38437 0.108857 0
M  V30 3444 C 469.198 -9.08175 -1.28353 0
M  V30 3445 O 468.142 -8.44229 -1.84713 0
M  V30 3446 C 470.416 -8.18386 -1.42505 0
M  V30 3447 O 471.154 -8.3501 -2.60497 0
M  V30 3448 C 469.747 -6.80225 -1.25468 0
M  V30 3449 O 470.546 -5.81621 -1.91066 0
M  V30 3450 C 468.41 -7.02416 -1.9168 0
M  V30 3451 H 468.442 -6.6888 -2.96621 0
M  V30 3452 H 469.625 -6.53617 -0.192223 0
M  V30 3453 H 471.109 -8.36622 -0.589963 0
M  V30 3454 H 469.415 -10.0291 -1.79807 0
M  V30 3455 H 469.225 -10.2138 0.558219 0
M  V30 3456 H 467.595 -9.6579 0.0444202 0
M  V30 3457 H 470.234 -5.69556 -2.79637 0
M  V30 3458 P 472.091 -8.4349 -2.47671 0
M  V30 3459 O 473.513 -8.92593 -2.65 0
M  V30 3460 O 471.731 -7.7568 -1.19296 0
M  V30 3461 O 471.768 -7.36886 -3.63805 0
M  V30 3462 C 471.608 -7.95349 -4.982 0
M  V30 3463 C 472.148 -6.94612 -5.98974 0
M  V30 3464 O 471.092 -6.10347 -6.11815 0
M  V30 3465 C 473.366 -6.11426 -5.62335 0
M  V30 3466 O 474.104 -5.6162 -6.70584 0
M  V30 3467 C 472.697 -5.04409 -4.73308 0
M  V30 3468 O 473.496 -3.85992 -4.75183 0
M  V30 3469 C 471.36 -4.8728 -5.41006 0
M  V30 3470 H 471.392 -4.02333 -6.11157 0
M  V30 3471 H 472.575 -5.39466 -3.69543 0
M  V30 3472 H 474.059 -6.71916 -5.01943 0
M  V30 3473 H 472.365 -7.4649 -6.93477 0
M  V30 3474 H 472.175 -8.89416 -5.05237 0
M  V30 3475 H 470.545 -8.14876 -5.18409 0
M  V30 3476 H 473.184 -3.27957 -5.4317 0
M  V30 3477 P 475.042 -5.75688 -6.64379 0
M  V30 3478 O 476.463 -6.07692 -7.0558 0
M  V30 3479 O 474.682 -5.88047 -5.19722 0
M  V30 3480 O 474.719 -4.2322 -7.04443 0
M  V30 3481 C 474.558 -3.99785 -8.49201 0
M  V30 3482 C 475.099 -2.60516 -8.79425 0
M  V30 3483 O 474.044 -1.82663 -8.44573 0
M  V30 3484 C 476.317 -2.10343 -8.03628 0
M  V30 3485 O 477.055 -1.09919 -8.67766 0
M  V30 3486 C 475.649 -1.68446 -6.70876 0
M  V30 3487 O 476.447 -0.684109 -6.08265 0
M  V30 3488 C 474.311 -1.17436 -7.18567 0
M  V30 3489 N 473.268 -1.52699 -6.23988 0
M  V30 3490 C 473.437 -2.578 -5.40574 0
M  V30 3491 N 472.41 -2.78966 -4.61193 0
M  V30 3492 C 471.525 -1.78725 -4.95769 0
M  V30 3493 C 470.258 -1.45727 -4.44207 0
M  V30 3494 N 469.693 -0.374977 -5.05812 0
M  V30 3495 C 470.295 0.345585 -6.05615 0
M  V30 3496 N 471.472 0.0787651 -6.56253 0
M  V30 3497 C 472.047 -1.00499 -5.96189 0
M  V30 3498 H 475.526 -2.53396 -6.02698 0
M  V30 3499 H 477.009 -2.93881 -7.85526 0
M  V30 3500 H 475.315 -2.52078 -9.87225 0
M  V30 3501 H 475.125 -4.75072 -9.05887 0
M  V30 3502 H 473.495 -4.05244 -8.76668 0
M  V30 3503 H 474.337 -3.18977 -5.3945 0
M  V30 3504 H 476.135 0.177619 -6.34151 0
M  V30 3505 P 477.992 -1.25109 -8.70152 0
M  V30 3506 O 479.414 -1.29744 -9.22016 0
M  V30 3507 O 477.632 -2.13714 -7.55141 0
M  V30 3508 O 477.669 0.248149 -8.21425 0
M  V30 3509 C 477.509 1.22779 -9.30434 0
M  V30 3510 C 478.049 2.56293 -8.80664 0
M  V30 3511 O 476.993 3.02979 -8.09349 0
M  V30 3512 C 479.267 2.57523 -7.89775 0
M  V30 3513 O 480.005 3.7668 -7.89438 0
M  V30 3514 C 478.598 2.20997 -6.55446 0
M  V30 3515 O 479.397 2.71895 -5.48509 0
M  V30 3516 C 477.261 2.89693 -6.67988 0
M  V30 3517 H 477.293 3.88793 -6.19859 0
M  V30 3518 H 478.476 1.12046 -6.44229 0
M  V30 3519 H 479.96 1.7746 -8.19711 0
M  V30 3520 H 478.266 3.20706 -9.67112 0
M  V30 3521 H 478.076 0.901032 -10.1892 0
M  V30 3522 H 476.446 1.33049 -9.56592 0
M  V30 3523 H 479.085 3.57847 -5.23962 0
M  V30 3524 P 480.943 3.65191 -7.99657 0
M  V30 3525 O 482.364 3.89374 -8.45885 0
M  V30 3526 O 480.583 2.28472 -7.50807 0
M  V30 3527 O 480.62 4.64972 -6.77611 0
M  V30 3528 C 480.459 6.06383 -7.16428 0
M  V30 3529 C 481 6.91731 -6.02299 0
M  V30 3530 O 479.945 6.92369 -5.17005 0
M  V30 3531 C 482.218 6.43627 -5.25174 0
M  V30 3532 O 482.956 7.43686 -4.60469 0
M  V30 3533 C 481.55 5.40275 -4.31916 0
M  V30 3534 O 482.348 5.24878 -3.14911 0
M  V30 3535 C 480.212 6.04847 -4.05327 0
M  V30 3536 N 479.169 5.04166 -3.98114 0
M  V30 3537 C 479.338 3.84629 -4.59066 0
M  V30 3538 N 478.311 3.0363 -4.45343 0
M  V30 3539 C 477.426 3.76722 -3.68523 0
M  V30 3540 C 476.159 3.43528 -3.17088 0
M  V30 3541 N 475.56 2.23665 -3.37397 0
M  V30 3542 N 475.594 4.44526 -2.44231 0
M  V30 3543 C 476.196 5.65243 -2.20146 0
M  V30 3544 N 477.373 6.00221 -2.65453 0
M  V30 3545 C 477.948 5.00564 -3.39083 0
M  V30 3546 H 480.244 6.62104 -3.11218 0
M  V30 3547 H 481.427 4.42969 -4.80867 0
M  V30 3548 H 482.91 5.92458 -5.93643 0
M  V30 3549 H 481.216 7.93295 -6.39407 0
M  V30 3550 H 481.026 6.26671 -8.0846 0
M  V30 3551 H 479.396 6.29101 -7.32804 0
M  V30 3552 H 475.66 6.36894 -1.5883 0
M  V30 3553 H 480.238 3.58193 -5.14248 0
M  V30 3554 H 474.63 2.05145 -2.97047 0
M  V30 3555 H 476.034 1.51255 -3.92998 0
M  V30 3556 H 482.036 5.84223 -2.47279 0
M  V30 3557 P 483.893 7.39546 -4.75277 0
M  V30 3558 O 485.314 7.84882 -5.01092 0
M  V30 3559 O 483.533 5.9812 -5.08098 0
M  V30 3560 O 483.57 7.57503 -3.1866 0
M  V30 3561 C 483.409 8.97452 -2.74862 0
M  V30 3562 C 483.95 9.07548 -1.32709 0
M  V30 3563 O 482.895 8.61972 -0.606089 0
M  V30 3564 C 485.168 8.25383 -0.938334 0
M  V30 3565 O 485.906 8.74577 0.146954 0
M  V30 3566 C 484.5 6.8802 -0.712559 0
M  V30 3567 O 485.298 6.1181 0.188505 0
M  V30 3568 C 483.162 7.27966 -0.139777 0
M  V30 3569 N 482.119 6.39368 -0.623421 0
M  V30 3570 C 482.288 5.71761 -1.78245 0
M  V30 3571 N 481.261 4.962 -2.10491 0
M  V30 3572 C 480.376 5.16158 -1.0635 0
M  V30 3573 C 479.109 4.60425 -0.810266 0
M  V30 3574 N 478.544 5.06 0.348685 0
M  V30 3575 C 479.146 5.94532 1.20395 0
M  V30 3576 N 480.323 6.48452 1.01191 0
M  V30 3577 C 480.898 6.04423 -0.146291 0
M  V30 3578 H 484.377 6.32625 -1.65044 0
M  V30 3579 H 485.86 8.19355 -1.79097 0
M  V30 3580 H 484.166 10.1305 -1.09016 0
M  V30 3581 H 483.976 9.64276 -3.41316 0
M  V30 3582 H 482.346 9.25417 -2.76357 0
M  V30 3583 H 483.188 5.79354 -2.38959 0
M  V30 3584 H 484.986 6.25169 1.0783 0
M  V30 3585 P 486.844 8.791 2.9035e-12 0
M  V30 3586 O 488.265 9.31196 0.027936 0
M  V30 3587 O 486.484 7.77869 -1.04071 0
M  V30 3588 O 486.521 8.09533 1.41463 0
M  V30 3589 C 486.36 9.03587 2.5397 0
M  V30 3590 C 486.901 8.35226 3.79016 0
M  V30 3591 O 485.846 7.57904 4.1503 0
M  V30 3592 C 488.119 7.45087 3.67298 0
M  V30 3593 O 488.857 7.27796 4.85194 0
M  V30 3594 C 487.451 6.17323 3.12027 0
M  V30 3595 O 488.249 5.04496 3.46627 0
M  V30 3596 C 486.113 6.19961 3.81809 0
M  V30 3597 N 485.07 5.71575 2.93223 0
M  V30 3598 C 485.239 5.77362 1.59168 0
M  V30 3599 N 484.212 5.3123 0.911893 0
M  V30 3600 C 483.327 4.91717 1.89588 0
M  V30 3601 C 482.06 4.3114 1.8076 0
M  V30 3602 N 481.495 4.06823 3.02898 0
M  V30 3603 C 482.097 4.35062 4.22711 0
M  V30 3604 N 483.274 4.90805 4.35707 0
M  V30 3605 C 483.849 5.16382 3.14469 0
M  V30 3606 H 487.328 6.21428 2.0318 0
M  V30 3607 H 488.811 7.86112 2.9231 0
M  V30 3608 H 487.117 9.11171 4.55987 0
M  V30 3609 H 486.927 9.9573 2.34194 0
M  V30 3610 H 485.297 9.2792 2.67832 0
M  V30 3611 H 486.139 6.16575 1.12198 0
M  V30 3612 H 487.937 4.67628 4.28704 0
M  V30 3613 P 489.795 7.39546 4.75277 0
M  V30 3614 O 491.217 7.81777 5.05738 0
M  V30 3615 O 489.435 7.1065 3.32998 0
M  V30 3616 O 489.472 6.04542 5.56673 0
M  V30 3617 C 489.312 6.22772 7.02095 0
M  V30 3618 C 489.852 4.97725 7.70406 0
M  V30 3619 O 488.796 4.13256 7.58987 0
M  V30 3620 C 491.07 4.28231 7.11815 0
M  V30 3621 O 491.808 3.49945 8.01648 0
M  V30 3622 C 490.401 3.5063 5.96244 0
M  V30 3623 O 491.2 2.36482 5.64681 0
M  V30 3624 C 489.064 3.15122 6.56374 0
M  V30 3625 H 489.096 2.13853 6.99751 0
M  V30 3626 H 490.279 4.13501 5.06559 0
M  V30 3627 H 491.763 5.03285 6.70911 0
M  V30 3628 H 490.069 5.20877 8.75697 0
M  V30 3629 H 489.879 7.11046 7.35349 0
M  V30 3630 H 488.249 6.35815 7.26986 0
M  V30 3631 H 490.888 1.61644 6.13565 0
M  V30 3632 P 492.745 3.65191 7.99657 0
M  V30 3633 O 494.166 3.84292 8.48206 0
M  V30 3634 O 492.385 4.17805 6.64342 0
M  V30 3635 O 492.422 2.07613 7.95143 0
M  V30 3636 C 492.261 1.44344 9.27435 0
M  V30 3637 C 492.802 0.0220036 9.17197 0
M  V30 3638 O 491.747 -0.626794 8.61824 0
M  V30 3639 C 494.02 -0.24586 8.30336 0
M  V30 3640 O 494.758 -1.39011 8.63583 0
M  V30 3641 C 493.352 -0.273849 6.91158 0
M  V30 3642 O 494.15 -1.05728 6.029 0
M  V30 3643 C 492.014 -0.897649 7.22545 0
M  V30 3644 N 490.971 -0.292839 6.41732 0
M  V30 3645 C 491.14 0.950603 5.91308 0
M  V30 3646 N 490.113 1.37732 5.21105 0
M  V30 3647 C 489.228 0.318109 5.26039 0
M  V30 3648 C 487.961 0.146766 4.6727 0
M  V30 3649 N 487.362 1.08519 3.89983 0
M  V30 3650 N 487.396 -1.06525 4.95887 0
M  V30 3651 C 487.998 -2.0378 5.71347 0
M  V30 3652 N 489.175 -1.92445 6.27451 0
M  V30 3653 C 489.75 -0.715382 6.00353 0
M  V30 3654 H 492.046 -1.98383 7.04189 0
M  V30 3655 H 493.229 0.733318 6.49674 0
M  V30 3656 H 494.712 0.60668 8.36503 0
M  V30 3657 H 493.018 -0.362662 10.1825 0
M  V30 3658 H 492.828 2.00611 10.0304 0
M  V30 3659 H 491.198 1.41843 9.55327 0
M  V30 3660 H 487.462 -2.97041 5.85344 0
M  V30 3661 H 492.04 1.54076 6.07465 0
M  V30 3662 H 486.432 0.901517 3.49562 0
M  V30 3663 H 487.836 1.97957 3.71669 0
M  V30 3664 H 493.838 -1.95704 6.0346 0
M  V30 3665 P 495.696 -1.25109 8.70152 0
M  V30 3666 O 497.117 -1.35288 9.2132 0
M  V30 3667 O 495.336 -0.0769065 7.84762 0
M  V30 3668 O 495.373 -2.55232 7.81161 0
M  V30 3669 C 495.212 -3.79979 8.58246 0
M  V30 3670 C 495.753 -4.94023 7.72785 0
M  V30 3671 O 494.698 -5.18666 6.91125 0
M  V30 3672 C 496.971 -4.69597 6.85231 0
M  V30 3673 O 497.709 -5.83832 6.51337 0
M  V30 3674 C 496.303 -3.96706 5.66633 0
M  V30 3675 O 497.101 -4.14896 4.5003 0
M  V30 3676 C 494.965 -4.66153 5.59313 0
M  V30 3677 N 493.922 -3.71582 5.24027 0
M  V30 3678 C 494.091 -2.39715 5.48833 0
M  V30 3679 N 493.064 -1.65863 5.12845 0
M  V30 3680 C 492.179 -2.57637 4.5973 0
M  V30 3681 C 490.912 -2.40278 4.01027 0
M  V30 3682 N 490.347 -3.57711 3.59575 0
M  V30 3683 C 490.949 -4.80324 3.70476 0
M  V30 3684 N 492.126 -5.01121 4.23801 0
M  V30 3685 C 492.701 -3.84757 4.66372 0
M  V30 3686 H 496.18 -2.8955 5.86187 0
M  V30 3687 H 497.663 -4.0121 7.36511 0
M  V30 3688 H 495.969 -5.81019 8.37003 0
M  V30 3689 H 495.779 -3.73517 9.52265 0
M  V30 3690 H 494.149 -3.97163 8.80359 0
M  V30 3691 H 494.991 -1.98804 5.94332 0
M  V30 3692 H 496.789 -4.90891 4.01857 0
M  V30 3693 P 498.646 -5.75688 6.64379 0
M  V30 3694 O 500.068 -6.11849 7.01846 0
M  V30 3695 O 498.286 -4.30744 6.56026 0
M  V30 3696 O 498.323 -6.37042 5.19165 0
M  V30 3697 C 498.163 -7.83578 5.16515 0
M  V30 3698 C 498.703 -8.33398 3.83019 0
M  V30 3699 O 497.647 -8.10074 3.01034 0
M  V30 3700 C 499.921 -7.65514 3.2257 0
M  V30 3701 O 500.659 -8.4329 2.32297 0
M  V30 3702 C 499.252 -6.40075 2.62207 0
M  V30 3703 O 500.051 -5.92589 1.53712 0
M  V30 3704 C 497.915 -6.9454 2.18503 0
M  V30 3705 H 497.947 -7.23063 1.12091 0
M  V30 3706 H 499.13 -5.6025 3.37201 0
M  V30 3707 H 500.614 -7.35707 4.02681 0
M  V30 3708 H 498.92 -9.40912 3.9095 0
M  V30 3709 H 498.73 -8.29056 5.99158 0
M  V30 3710 H 497.1 -8.10073 5.25882 0
M  V30 3711 H 499.739 -6.30324 0.726794 0
M  V30 3712 P 501.597 -8.4349 2.47671 0
M  V30 3713 O 503.019 -8.94167 2.5964 0
M  V30 3714 O 501.237 -7.1704 3.19006 0
M  V30 3715 O 501.274 -8.16596 0.923387 0
M  V30 3716 C 501.114 -9.38437 0.108857 0
M  V30 3717 C 501.654 -9.08175 -1.28353 0
M  V30 3718 O 500.598 -8.44229 -1.84713 0
M  V30 3719 C 502.872 -8.18386 -1.42505 0
M  V30 3720 O 503.61 -8.3501 -2.60497 0
M  V30 3721 C 502.203 -6.80225 -1.25468 0
M  V30 3722 O 503.002 -5.81621 -1.91066 0
M  V30 3723 C 500.866 -7.02416 -1.9168 0
M  V30 3724 H 500.898 -6.6888 -2.96621 0
M  V30 3725 H 502.081 -6.53617 -0.192223 0
M  V30 3726 H 503.565 -8.36622 -0.589963 0
M  V30 3727 H 501.871 -10.0291 -1.79807 0
M  V30 3728 H 501.681 -10.2138 0.558219 0
M  V30 3729 H 500.051 -9.6579 0.0444202 0
M  V30 3730 H 502.69 -5.69556 -2.79637 0
M  V30 3731 P 504.547 -8.4349 -2.47671 0
M  V30 3732 O 505.969 -8.92593 -2.65 0
M  V30 3733 O 504.187 -7.7568 -1.19296 0
M  V30 3734 O 504.224 -7.36886 -3.63805 0
M  V30 3735 C 504.064 -7.95349 -4.982 0
M  V30 3736 C 504.604 -6.94612 -5.98974 0
M  V30 3737 O 503.548 -6.10347 -6.11815 0
M  V30 3738 C 505.822 -6.11426 -5.62335 0
M  V30 3739 O 506.56 -5.6162 -6.70584 0
M  V30 3740 C 505.153 -5.04409 -4.73308 0
M  V30 3741 O 505.952 -3.85992 -4.75183 0
M  V30 3742 C 503.816 -4.8728 -5.41006 0
M  V30 3743 H 503.848 -4.02333 -6.11157 0
M  V30 3744 H 505.031 -5.39466 -3.69543 0
M  V30 3745 H 506.515 -6.71916 -5.01943 0
M  V30 3746 H 504.821 -7.4649 -6.93477 0
M  V30 3747 H 504.631 -8.89416 -5.05237 0
M  V30 3748 H 503.001 -8.14876 -5.18409 0
M  V30 3749 H 505.64 -3.27957 -5.4317 0
M  V30 3750 P 507.498 -5.75688 -6.64379 0
M  V30 3751 O 508.92 -6.07627 -7.05504 0
M  V30 3752 O 507.138 -5.88047 -5.19722 0
M  V30 3753 O 507.175 -4.2322 -7.04443 0
M  V30 3754 C 507.015 -3.99743 -8.4911 0
M  V30 3755 C 507.555 -2.60516 -8.79425 0
M  V30 3756 O 506.499 -1.82684 -8.4467 0
M  V30 3757 C 508.773 -2.10343 -8.03628 0
M  V30 3758 O 509.511 -1.09919 -8.67766 0
M  V30 3759 C 508.104 -1.68446 -6.70876 0
M  V30 3760 O 508.903 -0.678137 -6.08433 0
M  V30 3761 C 506.767 -1.17436 -7.18567 0
M  V30 3762 H 506.799 -0.0804732 -7.31656 0
M  V30 3763 H 507.982 -2.54037 -6.02537 0
M  V30 3764 H 509.466 -2.93881 -7.85526 0
M  V30 3765 H 507.772 -2.53065 -9.86973 0
M  V30 3766 H 507.582 -4.75072 -9.05887 0
M  V30 3767 H 505.952 -4.05244 -8.76668 0
M  V30 3768 H 508.591 0.177647 -6.34251 0
M  V30 3769 P 510.449 -1.25109 -8.70152 0
M  V30 3770 O 511.871 -1.29744 -9.22016 0
M  V30 3771 O 510.089 -2.13714 -7.55141 0
M  V30 3772 O 510.126 0.248149 -8.21425 0
M  V30 3773 C 509.966 1.22779 -9.30434 0
M  V30 3774 C 510.506 2.56293 -8.80664 0
M  V30 3775 O 509.45 3.02979 -8.09349 0
M  V30 3776 C 511.724 2.57523 -7.89775 0
M  V30 3777 O 512.462 3.7668 -7.89438 0
M  V30 3778 C 511.055 2.20997 -6.55446 0
M  V30 3779 O 511.854 2.71895 -5.48509 0
M  V30 3780 C 509.718 2.89693 -6.67988 0
M  V30 3781 H 509.75 3.88793 -6.19859 0
M  V30 3782 H 510.933 1.12046 -6.44229 0
M  V30 3783 H 512.417 1.7746 -8.19711 0
M  V30 3784 H 510.723 3.20706 -9.67112 0
M  V30 3785 H 510.533 0.901032 -10.1892 0
M  V30 3786 H 508.903 1.33049 -9.56592 0
M  V30 3787 H 511.542 3.57847 -5.23962 0
M  V30 3788 P 513.399 3.65191 -7.99657 0
M  V30 3789 O 514.82 3.89374 -8.45885 0
M  V30 3790 O 513.039 2.28472 -7.50807 0
M  V30 3791 O 513.076 4.64972 -6.77611 0
M  V30 3792 C 512.915 6.06383 -7.16428 0
M  V30 3793 C 513.456 6.91731 -6.02299 0
M  V30 3794 O 512.401 6.92369 -5.17005 0
M  V30 3795 C 514.674 6.43627 -5.25174 0
M  V30 3796 O 515.412 7.43686 -4.60469 0
M  V30 3797 C 514.006 5.40275 -4.31916 0
M  V30 3798 O 514.804 5.24878 -3.14911 0
M  V30 3799 C 512.668 6.04847 -4.05327 0
M  V30 3800 N 511.625 5.04166 -3.98114 0
M  V30 3801 C 511.794 3.84629 -4.59066 0
M  V30 3802 N 510.767 3.0363 -4.45343 0
M  V30 3803 C 509.882 3.76722 -3.68523 0
M  V30 3804 C 508.615 3.43528 -3.17088 0
M  V30 3805 N 508.05 4.44526 -2.44231 0
M  V30 3806 C 508.652 5.65243 -2.20146 0
M  V30 3807 N 509.829 6.00221 -2.65453 0
M  V30 3808 C 510.404 5.00564 -3.39083 0
M  V30 3809 H 513.883 4.42969 -4.80867 0
M  V30 3810 H 515.366 5.92458 -5.93643 0
M  V30 3811 H 513.672 7.93295 -6.39407 0
M  V30 3812 H 513.482 6.26671 -8.0846 0
M  V30 3813 H 511.852 6.29101 -7.32804 0
M  V30 3814 H 512.694 3.58193 -5.14248 0
M  V30 3815 H 514.492 5.84223 -2.47279 0
M  V30 3816 P 516.35 7.39546 -4.75277 0
M  V30 3817 O 517.772 7.84798 -5.01039 0
M  V30 3818 O 515.99 5.9812 -5.08098 0
M  V30 3819 O 516.027 7.57503 -3.1866 0
M  V30 3820 C 515.867 8.97357 -2.74833 0
M  V30 3821 C 516.407 9.07548 -1.32709 0
M  V30 3822 O 515.351 8.62072 -0.606159 0
M  V30 3823 C 517.625 8.25383 -0.938334 0
M  V30 3824 O 518.363 8.74577 0.146954 0
M  V30 3825 C 516.956 6.8802 -0.712559 0
M  V30 3826 O 517.755 6.1189 0.194655 0
M  V30 3827 C 515.619 7.27966 -0.139777 0
M  V30 3828 H 515.651 7.25354 0.961601 0
M  V30 3829 H 516.834 6.32557 -1.65702 0
M  V30 3830 H 518.318 8.19355 -1.79097 0
M  V30 3831 H 516.624 10.1294 -1.10029 0
M  V30 3832 H 516.434 9.64276 -3.41316 0
M  V30 3833 H 514.804 9.25417 -2.76357 0
M  V30 3834 H 517.443 6.25267 1.07847 0
M  V30 3835 P 519.3 8.791 3.21367e-12 0
M  V30 3836 O 520.722 9.31096 0.027933 0
M  V30 3837 O 518.94 7.77869 -1.04071 0
M  V30 3838 O 518.977 8.09533 1.41463 0
M  V30 3839 C 518.817 9.0349 2.53943 0
M  V30 3840 C 519.357 8.35226 3.79016 0
M  V30 3841 O 518.301 7.57992 4.15078 0
M  V30 3842 C 520.575 7.45087 3.67298 0
M  V30 3843 O 521.313 7.27796 4.85194 0
M  V30 3844 C 519.906 6.17323 3.12027 0
M  V30 3845 O 520.705 5.04231 3.47188 0
M  V30 3846 C 518.569 6.19961 3.81809 0
M  V30 3847 H 518.601 5.58218 4.73051 0
M  V30 3848 H 519.784 6.21726 2.02589 0
M  V30 3849 H 521.268 7.86112 2.9231 0
M  V30 3850 H 519.574 9.11627 4.55076 0
M  V30 3851 H 519.384 9.9573 2.34194 0
M  V30 3852 H 517.754 9.2792 2.67832 0
M  V30 3853 H 520.393 4.67702 4.28772 0
M  V30 3854 P 522.251 7.39546 4.75277 0
M  V30 3855 O 523.673 7.81777 5.05738 0
M  V30 3856 O 521.891 7.1065 3.32998 0
M  V30 3857 O 521.928 6.04542 5.56673 0
M  V30 3858 C 521.768 6.22772 7.02095 0
M  V30 3859 C 522.308 4.97725 7.70406 0
M  V30 3860 O 521.252 4.13256 7.58987 0
M  V30 3861 C 523.526 4.28231 7.11815 0
M  V30 3862 O 524.264 3.49945 8.01648 0
M  V30 3863 C 522.857 3.5063 5.96244 0
M  V30 3864 O 523.656 2.36482 5.64681 0
M  V30 3865 C 521.52 3.15122 6.56374 0
M  V30 3866 H 521.552 2.13853 6.99751 0
M  V30 3867 H 522.735 4.13501 5.06559 0
M  V30 3868 H 524.219 5.03285 6.70911 0
M  V30 3869 H 522.525 5.20877 8.75697 0
M  V30 3870 H 522.335 7.11046 7.35349 0
M  V30 3871 H 520.705 6.35815 7.26986 0
M  V30 3872 H 523.344 1.61644 6.13565 0
M  V30 3873 P 525.201 3.65191 7.99657 0
M  V30 3874 O 526.623 3.8425 8.48115 0
M  V30 3875 O 524.841 4.17805 6.64342 0
M  V30 3876 O 524.878 2.07613 7.95143 0
M  V30 3877 C 524.718 1.44328 9.27336 0
M  V30 3878 C 525.258 0.0220036 9.17197 0
M  V30 3879 O 524.202 -0.626867 8.61923 0
M  V30 3880 C 526.476 -0.24586 8.30336 0
M  V30 3881 O 527.214 -1.39011 8.63583 0
M  V30 3882 C 525.807 -0.273849 6.91158 0
M  V30 3883 O 526.606 -1.06348 6.02892 0
M  V30 3884 C 524.47 -0.897649 7.22545 0
M  V30 3885 H 524.502 -1.9841 7.04286 0
M  V30 3886 H 525.685 0.739928 6.497 0
M  V30 3887 H 527.169 0.60668 8.36503 0
M  V30 3888 H 525.475 -0.352479 10.1829 0
M  V30 3889 H 525.285 2.00611 10.0304 0
M  V30 3890 H 523.655 1.41843 9.55327 0
M  V30 3891 H 526.294 -1.95734 6.03555 0
M  V30 3892 P 528.152 -1.25109 8.70152 0
M  V30 3893 O 529.574 -1.35274 9.21221 0
M  V30 3894 O 527.792 -0.0769065 7.84762 0
M  V30 3895 O 527.829 -2.55232 7.81161 0
M  V30 3896 C 527.669 -3.79939 8.58154 0
M  V30 3897 C 528.209 -4.94023 7.72785 0
M  V30 3898 O 527.153 -5.18726 6.91205 0
M  V30 3899 C 529.427 -4.69597 6.85231 0
M  V30 3900 O 530.165 -5.83832 6.51337 0
M  V30 3901 C 528.758 -3.96706 5.66633 0
M  V30 3902 O 529.557 -4.15414 4.49689 0
M  V30 3903 C 527.421 -4.66153 5.59313 0
M  V30 3904 H 527.453 -5.47679 4.85214 0
M  V30 3905 H 528.636 -2.89008 5.86566 0
M  V30 3906 H 530.12 -4.0121 7.36511 0
M  V30 3907 H 528.426 -5.80182 8.37584 0
M  V30 3908 H 528.236 -3.73517 9.52265 0
M  V30 3909 H 526.606 -3.97163 8.80359 0
M  V30 3910 H 529.245 -4.90969 4.01921 0
M  V30 3911 P 531.103 -5.75688 6.64379 0
M  V30 3912 O 532.525 -6.11849 7.01846 0
M  V30 3913 O 530.743 -4.30744 6.56026 0
M  V30 3914 O 530.78 -6.37042 5.19165 0
M  V30 3915 C 530.62 -7.83578 5.16515 0
M  V30 3916 C 531.16 -8.33398 3.83019 0
M  V30 3917 O 530.104 -8.10074 3.01034 0
M  V30 3918 C 532.378 -7.65514 3.2257 0
M  V30 3919 O 533.116 -8.4329 2.32297 0
M  V30 3920 C 531.709 -6.40075 2.62207 0
M  V30 3921 O 532.508 -5.92589 1.53712 0
M  V30 3922 C 530.372 -6.9454 2.18503 0
M  V30 3923 H 530.404 -7.23063 1.12091 0
M  V30 3924 H 531.587 -5.6025 3.37201 0
M  V30 3925 H 533.071 -7.35707 4.02681 0
M  V30 3926 H 531.377 -9.40912 3.9095 0
M  V30 3927 H 531.187 -8.29056 5.99158 0
M  V30 3928 H 529.557 -8.10073 5.25882 0
M  V30 3929 H 532.196 -6.30324 0.726794 0
M  V30 3930 P 534.053 -8.4349 2.47671 0
M  V30 3931 O 535.475 -8.94167 2.5964 0
M  V30 3932 O 533.693 -7.1704 3.19006 0
M  V30 3933 O 533.73 -8.16596 0.923387 0
M  V30 3934 C 533.57 -9.38437 0.108857 0
M  V30 3935 C 534.11 -9.08175 -1.28353 0
M  V30 3936 O 533.054 -8.44229 -1.84713 0
M  V30 3937 C 535.328 -8.18386 -1.42505 0
M  V30 3938 O 536.066 -8.3501 -2.60497 0
M  V30 3939 C 534.659 -6.80225 -1.25468 0
M  V30 3940 O 535.458 -5.81621 -1.91066 0
M  V30 3941 C 533.322 -7.02416 -1.9168 0
M  V30 3942 H 533.354 -6.6888 -2.96621 0
M  V30 3943 H 534.537 -6.53617 -0.192223 0
M  V30 3944 H 536.021 -8.36622 -0.589963 0
M  V30 3945 H 534.327 -10.0291 -1.79807 0
M  V30 3946 H 534.137 -10.2138 0.558219 0
M  V30 3947 H 532.507 -9.6579 0.0444202 0
M  V30 3948 H 535.146 -5.69556 -2.79637 0
M  V30 3949 P 537.004 -8.4349 -2.47671 0
M  V30 3950 O 538.426 -8.92593 -2.65 0
M  V30 3951 O 536.644 -7.7568 -1.19296 0
M  V30 3952 O 536.681 -7.36886 -3.63805 0
M  V30 3953 C 536.521 -7.95349 -4.982 0
M  V30 3954 C 537.061 -6.94612 -5.98974 0
M  V30 3955 O 536.005 -6.10347 -6.11815 0
M  V30 3956 C 538.279 -6.11426 -5.62335 0
M  V30 3957 O 539.017 -5.6162 -6.70584 0
M  V30 3958 C 537.61 -5.04409 -4.73308 0
M  V30 3959 O 538.409 -3.85992 -4.75183 0
M  V30 3960 C 536.273 -4.8728 -5.41006 0
M  V30 3961 H 536.305 -4.02333 -6.11157 0
M  V30 3962 H 537.488 -5.39466 -3.69543 0
M  V30 3963 H 538.972 -6.71916 -5.01943 0
M  V30 3964 H 537.278 -7.4649 -6.93477 0
M  V30 3965 H 537.088 -8.89416 -5.05237 0
M  V30 3966 H 535.458 -8.14876 -5.18409 0
M  V30 3967 H 538.097 -3.27957 -5.4317 0
M  V30 3968 P 539.954 -5.75688 -6.64379 0
M  V30 3969 O 541.376 -6.07627 -7.05504 0
M  V30 3970 O 539.594 -5.88047 -5.19722 0
M  V30 3971 O 539.631 -4.2322 -7.04443 0
M  V30 3972 C 539.471 -3.99743 -8.4911 0
M  V30 3973 C 540.011 -2.60516 -8.79425 0
M  V30 3974 O 538.955 -1.82684 -8.4467 0
M  V30 3975 C 541.229 -2.10343 -8.03628 0
M  V30 3976 O 541.967 -1.09919 -8.67766 0
M  V30 3977 C 540.56 -1.68446 -6.70876 0
M  V30 3978 O 541.359 -0.678137 -6.08433 0
M  V30 3979 C 539.223 -1.17436 -7.18567 0
M  V30 3980 H 539.255 -0.0804732 -7.31656 0
M  V30 3981 H 540.438 -2.54037 -6.02537 0
M  V30 3982 H 541.922 -2.93881 -7.85526 0
M  V30 3983 H 540.228 -2.53065 -9.86973 0
M  V30 3984 H 540.038 -4.75072 -9.05887 0
M  V30 3985 H 538.408 -4.05244 -8.76668 0
M  V30 3986 H 541.047 0.177647 -6.34251 0
M  V30 3987 P 542.905 -1.25109 -8.70152 0
M  V30 3988 O 544.327 -1.29744 -9.22016 0
M  V30 3989 O 542.545 -2.13714 -7.55141 0
M  V30 3990 O 542.582 0.248149 -8.21425 0
M  V30 3991 C 542.422 1.22779 -9.30434 0
M  V30 3992 C 542.962 2.56293 -8.80664 0
M  V30 3993 O 541.906 3.02979 -8.09349 0
M  V30 3994 C 544.18 2.57523 -7.89775 0
M  V30 3995 O 544.918 3.7668 -7.89438 0
M  V30 3996 C 543.511 2.20997 -6.55446 0
M  V30 3997 O 544.31 2.71895 -5.48509 0
M  V30 3998 C 542.174 2.89693 -6.67988 0
M  V30 3999 H 542.206 3.88793 -6.19859 0
M  V30 4000 H 543.389 1.12046 -6.44229 0
M  V30 4001 H 544.873 1.7746 -8.19711 0
M  V30 4002 H 543.179 3.20706 -9.67112 0
M  V30 4003 H 542.989 0.901032 -10.1892 0
M  V30 4004 H 541.359 1.33049 -9.56592 0
M  V30 4005 H 543.998 3.57847 -5.23962 0
M  V30 4006 P 545.855 3.65191 -7.99657 0
M  V30 4007 O 547.276 3.89374 -8.45885 0
M  V30 4008 O 545.495 2.28472 -7.50807 0
M  V30 4009 O 545.532 4.64972 -6.77611 0
M  V30 4010 C 545.371 6.06383 -7.16428 0
M  V30 4011 C 545.912 6.91731 -6.02299 0
M  V30 4012 O 544.857 6.92369 -5.17005 0
M  V30 4013 C 547.13 6.43627 -5.25174 0
M  V30 4014 O 547.868 7.43686 -4.60469 0
M  V30 4015 C 546.462 5.40275 -4.31916 0
M  V30 4016 O 547.26 5.24878 -3.14911 0
M  V30 4017 C 545.124 6.04847 -4.05327 0
M  V30 4018 N 544.081 5.04166 -3.98114 0
M  V30 4019 C 544.25 3.84629 -4.59066 0
M  V30 4020 N 543.223 3.0363 -4.45343 0
M  V30 4021 C 542.338 3.76722 -3.68523 0
M  V30 4022 C 541.071 3.43528 -3.17088 0
M  V30 4023 N 540.472 2.23665 -3.37397 0
M  V30 4024 N 540.506 4.44526 -2.44231 0
M  V30 4025 C 541.108 5.65243 -2.20146 0
M  V30 4026 N 542.285 6.00221 -2.65453 0
M  V30 4027 C 542.86 5.00564 -3.39083 0
M  V30 4028 H 545.156 6.62104 -3.11218 0
M  V30 4029 H 546.339 4.42969 -4.80867 0
M  V30 4030 H 547.822 5.92458 -5.93643 0
M  V30 4031 H 546.128 7.93295 -6.39407 0
M  V30 4032 H 545.938 6.26671 -8.0846 0
M  V30 4033 H 544.308 6.29101 -7.32804 0
M  V30 4034 H 540.572 6.36894 -1.5883 0
M  V30 4035 H 545.15 3.58193 -5.14248 0
M  V30 4036 H 539.542 2.05145 -2.97047 0
M  V30 4037 H 540.946 1.51255 -3.92998 0
M  V30 4038 H 546.948 5.84223 -2.47279 0
M  V30 4039 P 548.806 7.39546 -4.75277 0
M  V30 4040 O 550.228 7.84798 -5.01039 0
M  V30 4041 O 548.446 5.9812 -5.08098 0
M  V30 4042 O 548.483 7.57503 -3.1866 0
M  V30 4043 C 548.323 8.97357 -2.74833 0
M  V30 4044 C 548.863 9.07548 -1.32709 0
M  V30 4045 O 547.807 8.62072 -0.606159 0
M  V30 4046 C 550.081 8.25383 -0.938334 0
M  V30 4047 O 550.819 8.74577 0.146954 0
M  V30 4048 C 549.412 6.8802 -0.712559 0
M  V30 4049 O 550.211 6.1189 0.194655 0
M  V30 4050 C 548.075 7.27966 -0.139777 0
M  V30 4051 H 548.107 7.25354 0.961601 0
M  V30 4052 H 549.29 6.32557 -1.65702 0
M  V30 4053 H 550.774 8.19355 -1.79097 0
M  V30 4054 H 549.08 10.1294 -1.10029 0
M  V30 4055 H 548.89 9.64276 -3.41316 0
M  V30 4056 H 547.26 9.25417 -2.76357 0
M  V30 4057 H 549.899 6.25267 1.07847 0
M  V30 4058 P 551.757 8.791 3.52383e-12 0
M  V30 4059 O 553.178 9.31196 0.027936 0
M  V30 4060 O 551.397 7.77869 -1.04071 0
M  V30 4061 O 551.434 8.09533 1.41463 0
M  V30 4062 C 551.273 9.03587 2.5397 0
M  V30 4063 C 551.814 8.35226 3.79016 0
M  V30 4064 O 550.759 7.57904 4.1503 0
M  V30 4065 C 553.032 7.45087 3.67298 0
M  V30 4066 O 553.77 7.27796 4.85194 0
M  V30 4067 C 552.364 6.17323 3.12027 0
M  V30 4068 O 553.162 5.04496 3.46627 0
M  V30 4069 C 551.026 6.19961 3.81809 0
M  V30 4070 N 549.983 5.71575 2.93223 0
M  V30 4071 C 550.152 5.77362 1.59168 0
M  V30 4072 N 549.125 5.3123 0.911893 0
M  V30 4073 C 548.24 4.91717 1.89588 0
M  V30 4074 C 546.973 4.3114 1.8076 0
M  V30 4075 N 546.408 4.06823 3.02898 0
M  V30 4076 C 547.01 4.35062 4.22711 0
M  V30 4077 N 548.187 4.90805 4.35707 0
M  V30 4078 C 548.762 5.16382 3.14469 0
M  V30 4079 H 552.241 6.21428 2.0318 0
M  V30 4080 H 553.724 7.86112 2.9231 0
M  V30 4081 H 552.03 9.11171 4.55987 0
M  V30 4082 H 551.84 9.9573 2.34194 0
M  V30 4083 H 550.21 9.2792 2.67832 0
M  V30 4084 H 551.052 6.16575 1.12198 0
M  V30 4085 H 552.85 4.67628 4.28704 0
M  V30 4086 P 554.707 7.39546 4.75277 0
M  V30 4087 O 556.129 7.81777 5.05738 0
M  V30 4088 O 554.347 7.1065 3.32998 0
M  V30 4089 O 554.384 6.04542 5.56673 0
M  V30 4090 C 554.224 6.22772 7.02095 0
M  V30 4091 C 554.764 4.97725 7.70406 0
M  V30 4092 O 553.708 4.13256 7.58987 0
M  V30 4093 C 555.982 4.28231 7.11815 0
M  V30 4094 O 556.72 3.49945 8.01648 0
M  V30 4095 C 555.313 3.5063 5.96244 0
M  V30 4096 O 556.112 2.36482 5.64681 0
M  V30 4097 C 553.976 3.15122 6.56374 0
M  V30 4098 H 554.008 2.13853 6.99751 0
M  V30 4099 H 555.191 4.13501 5.06559 0
M  V30 4100 H 556.675 5.03285 6.70911 0
M  V30 4101 H 554.981 5.20877 8.75697 0
M  V30 4102 H 554.791 7.11046 7.35349 0
M  V30 4103 H 553.161 6.35815 7.26986 0
M  V30 4104 H 555.8 1.61644 6.13565 0
M  V30 4105 P 557.658 3.65191 7.99657 0
M  V30 4106 O 559.079 3.84292 8.48206 0
M  V30 4107 O 557.298 4.17805 6.64342 0
M  V30 4108 O 557.335 2.07613 7.95143 0
M  V30 4109 C 557.174 1.44344 9.27435 0
M  V30 4110 C 557.715 0.0220036 9.17197 0
M  V30 4111 O 556.66 -0.626794 8.61824 0
M  V30 4112 C 558.933 -0.24586 8.30336 0
M  V30 4113 O 559.671 -1.39011 8.63583 0
M  V30 4114 C 558.265 -0.273849 6.91158 0
M  V30 4115 O 559.063 -1.05728 6.029 0
M  V30 4116 C 556.927 -0.897649 7.22545 0
M  V30 4117 N 555.884 -0.292839 6.41732 0
M  V30 4118 C 556.053 0.950603 5.91308 0
M  V30 4119 N 555.026 1.37732 5.21105 0
M  V30 4120 C 554.141 0.318109 5.26039 0
M  V30 4121 C 552.874 0.146766 4.6727 0
M  V30 4122 N 552.275 1.08519 3.89983 0
M  V30 4123 N 552.309 -1.06525 4.95887 0
M  V30 4124 C 552.911 -2.0378 5.71347 0
M  V30 4125 N 554.088 -1.92445 6.27451 0
M  V30 4126 C 554.663 -0.715382 6.00353 0
M  V30 4127 H 556.959 -1.98383 7.04189 0
M  V30 4128 H 558.142 0.733318 6.49674 0
M  V30 4129 H 559.625 0.60668 8.36503 0
M  V30 4130 H 557.931 -0.362662 10.1825 0
M  V30 4131 H 557.741 2.00611 10.0304 0
M  V30 4132 H 556.111 1.41843 9.55327 0
M  V30 4133 H 552.375 -2.97041 5.85344 0
M  V30 4134 H 556.953 1.54076 6.07465 0
M  V30 4135 H 551.345 0.901517 3.49562 0
M  V30 4136 H 552.749 1.97957 3.71669 0
M  V30 4137 H 558.751 -1.95704 6.0346 0
M  V30 4138 P 560.608 -1.25109 8.70152 0
M  V30 4139 O 562.03 -1.35274 9.21221 0
M  V30 4140 O 560.248 -0.0769065 7.84762 0
M  V30 4141 O 560.285 -2.55232 7.81161 0
M  V30 4142 C 560.125 -3.79939 8.58154 0
M  V30 4143 C 560.665 -4.94023 7.72785 0
M  V30 4144 O 559.609 -5.18726 6.91205 0
M  V30 4145 C 561.883 -4.69597 6.85231 0
M  V30 4146 O 562.621 -5.83832 6.51337 0
M  V30 4147 C 561.214 -3.96706 5.66633 0
M  V30 4148 O 562.013 -4.15414 4.49689 0
M  V30 4149 C 559.877 -4.66153 5.59313 0
M  V30 4150 H 559.909 -5.47679 4.85214 0
M  V30 4151 H 561.092 -2.89008 5.86566 0
M  V30 4152 H 562.576 -4.0121 7.36511 0
M  V30 4153 H 560.882 -5.80182 8.37584 0
M  V30 4154 H 560.692 -3.73517 9.52265 0
M  V30 4155 H 559.062 -3.97163 8.80359 0
M  V30 4156 H 561.701 -4.90969 4.01921 0
M  V30 4157 P 563.559 -5.75688 6.64379 0
M  V30 4158 O 564.981 -6.11849 7.01846 0
M  V30 4159 O 563.199 -4.30744 6.56026 0
M  V30 4160 O 563.236 -6.37042 5.19165 0
M  V30 4161 C 563.076 -7.83578 5.16515 0
M  V30 4162 C 563.616 -8.33398 3.83019 0
M  V30 4163 O 562.56 -8.10074 3.01034 0
M  V30 4164 C 564.834 -7.65514 3.2257 0
M  V30 4165 O 565.572 -8.4329 2.32297 0
M  V30 4166 C 564.165 -6.40075 2.62207 0
M  V30 4167 O 564.964 -5.92589 1.53712 0
M  V30 4168 C 562.828 -6.9454 2.18503 0
M  V30 4169 H 562.86 -7.23063 1.12091 0
M  V30 4170 H 564.043 -5.6025 3.37201 0
M  V30 4171 H 565.527 -7.35707 4.02681 0
M  V30 4172 H 563.833 -9.40912 3.9095 0
M  V30 4173 H 563.643 -8.29056 5.99158 0
M  V30 4174 H 562.013 -8.10073 5.25882 0
M  V30 4175 H 564.652 -6.30324 0.726794 0
M  V30 4176 P 566.509 -8.4349 2.47671 0
M  V30 4177 O 567.931 -8.94167 2.5964 0
M  V30 4178 O 566.149 -7.1704 3.19006 0
M  V30 4179 O 566.186 -8.16596 0.923387 0
M  V30 4180 C 566.026 -9.38437 0.108857 0
M  V30 4181 C 566.566 -9.08175 -1.28353 0
M  V30 4182 O 565.51 -8.44229 -1.84713 0
M  V30 4183 C 567.784 -8.18386 -1.42505 0
M  V30 4184 O 568.522 -8.3501 -2.60497 0
M  V30 4185 C 567.115 -6.80225 -1.25468 0
M  V30 4186 O 567.914 -5.81621 -1.91066 0
M  V30 4187 C 565.778 -7.02416 -1.9168 0
M  V30 4188 H 565.81 -6.6888 -2.96621 0
M  V30 4189 H 566.993 -6.53617 -0.192223 0
M  V30 4190 H 568.477 -8.36622 -0.589963 0
M  V30 4191 H 566.783 -10.0291 -1.79807 0
M  V30 4192 H 566.593 -10.2138 0.558219 0
M  V30 4193 H 564.963 -9.6579 0.0444202 0
M  V30 4194 H 567.602 -5.69556 -2.79637 0
M  V30 4195 P 569.46 -8.4349 -2.47671 0
M  V30 4196 O 570.861 -8.99283 -2.62101 0
M  V30 4197 O 569.082 -7.81195 -1.16947 0
M  V30 4198 O 569.137 -7.36797 -3.63761 0
M  V30 4199 C 568.977 -7.95349 -4.982 0
M  V30 4200 C 569.517 -6.94537 -5.98908 0
M  V30 4201 O 568.461 -6.10277 -6.11744 0
M  V30 4202 C 570.734 -6.11426 -5.62335 0
M  V30 4203 O 571.473 -5.6162 -6.70584 0
M  V30 4204 C 570.067 -5.04409 -4.73308 0
M  V30 4205 O 570.865 -3.85929 -4.75106 0
M  V30 4206 C 568.729 -4.8728 -5.41006 0
M  V30 4207 N 567.686 -4.65812 -4.42377 0
M  V30 4208 C 566.651 -3.81293 -4.74224 0
M  V30 4209 O 566.69 -3.20533 -5.83679 0
M  V30 4210 N 565.639 -3.6442 -3.86349 0
M  V30 4211 C 565.687 -4.2728 -2.6824 0
M  V30 4212 C 566.783 -5.10813 -2.3217 0
M  V30 4213 C 567.749 -5.27909 -3.22647 0
M  V30 4214 H 568.761 -4.02278 -6.11074 0
M  V30 4215 H 569.944 -5.39013 -3.70026 0
M  V30 4216 H 571.428 -6.71494 -5.02675 0
M  V30 4217 H 569.734 -7.45796 -6.94223 0
M  V30 4218 H 569.543 -8.89416 -5.05237 0
M  V30 4219 H 567.913 -8.14791 -5.18355 0
M  V30 4220 H 566.831 -5.58884 -1.34755 0
M  V30 4221 H 568.595 -5.92811 -2.9934 0
M  V30 4222 H 570.649 -3.3454 -5.51577 0
M  V30 4223 P 572.411 -5.75688 -6.64379 0
M  V30 4224 O 573.833 -6.07627 -7.05504 0
M  V30 4225 O 572.051 -5.88047 -5.19722 0
M  V30 4226 O 572.088 -4.2322 -7.04443 0
M  V30 4227 C 571.928 -3.99743 -8.4911 0
M  V30 4228 C 572.468 -2.60516 -8.79425 0
M  V30 4229 O 571.412 -1.82684 -8.4467 0
M  V30 4230 C 573.686 -2.10343 -8.03628 0
M  V30 4231 O 574.424 -1.09919 -8.67766 0
M  V30 4232 C 573.017 -1.68446 -6.70876 0
M  V30 4233 O 573.816 -0.678137 -6.08433 0
M  V30 4234 C 571.68 -1.17436 -7.18567 0
M  V30 4235 H 571.712 -0.0804732 -7.31656 0
M  V30 4236 H 572.895 -2.54037 -6.02537 0
M  V30 4237 H 574.379 -2.93881 -7.85526 0
M  V30 4238 H 572.685 -2.53065 -9.86973 0
M  V30 4239 H 572.495 -4.75072 -9.05887 0
M  V30 4240 H 570.865 -4.05244 -8.76668 0
M  V30 4241 H 573.504 0.177647 -6.34251 0
M  V30 4242 P 575.361 -1.25109 -8.70152 0
M  V30 4243 O 576.783 -1.29744 -9.22016 0
M  V30 4244 O 575.001 -2.13714 -7.55141 0
M  V30 4245 O 575.038 0.248149 -8.21425 0
M  V30 4246 C 574.878 1.22779 -9.30434 0
M  V30 4247 C 575.418 2.56293 -8.80664 0
M  V30 4248 O 574.362 3.02979 -8.09349 0
M  V30 4249 C 576.636 2.57523 -7.89775 0
M  V30 4250 O 577.374 3.7668 -7.89438 0
M  V30 4251 C 575.967 2.20997 -6.55446 0
M  V30 4252 O 576.766 2.71895 -5.48509 0
M  V30 4253 C 574.63 2.89693 -6.67988 0
M  V30 4254 H 574.662 3.88793 -6.19859 0
M  V30 4255 H 575.845 1.12046 -6.44229 0
M  V30 4256 H 577.329 1.7746 -8.19711 0
M  V30 4257 H 575.635 3.20706 -9.67112 0
M  V30 4258 H 575.445 0.901032 -10.1892 0
M  V30 4259 H 573.815 1.33049 -9.56592 0
M  V30 4260 H 576.454 3.57847 -5.23962 0
M  V30 4261 P 578.312 3.65191 -7.99657 0
M  V30 4262 O 579.733 3.89374 -8.45885 0
M  V30 4263 O 577.952 2.28472 -7.50807 0
M  V30 4264 O 577.989 4.64972 -6.77611 0
M  V30 4265 C 577.828 6.06383 -7.16428 0
M  V30 4266 C 578.369 6.91731 -6.02299 0
M  V30 4267 O 577.314 6.92369 -5.17005 0
M  V30 4268 C 579.587 6.43627 -5.25174 0
M  V30 4269 O 580.325 7.43686 -4.60469 0
M  V30 4270 C 578.919 5.40275 -4.31916 0
M  V30 4271 O 579.717 5.24878 -3.14911 0
M  V30 4272 C 577.581 6.04847 -4.05327 0
M  V30 4273 N 576.538 5.04166 -3.98114 0
M  V30 4274 C 576.707 3.84629 -4.59066 0
M  V30 4275 N 575.68 3.0363 -4.45343 0
M  V30 4276 C 574.795 3.76722 -3.68523 0
M  V30 4277 C 573.528 3.43528 -3.17088 0
M  V30 4278 N 572.963 4.44526 -2.44231 0
M  V30 4279 C 573.565 5.65243 -2.20146 0
M  V30 4280 N 574.742 6.00221 -2.65453 0
M  V30 4281 C 575.317 5.00564 -3.39083 0
M  V30 4282 H 578.796 4.42969 -4.80867 0
M  V30 4283 H 580.279 5.92458 -5.93643 0
M  V30 4284 H 578.585 7.93295 -6.39407 0
M  V30 4285 H 578.395 6.26671 -8.0846 0
M  V30 4286 H 576.765 6.29101 -7.32804 0
M  V30 4287 H 577.607 3.58193 -5.14248 0
M  V30 4288 H 579.405 5.84223 -2.47279 0
M  V30 4289 P 581.262 7.39546 -4.75277 0
M  V30 4290 O 582.683 7.84882 -5.01092 0
M  V30 4291 O 580.902 5.9812 -5.08098 0
M  V30 4292 O 580.939 7.57503 -3.1866 0
M  V30 4293 C 580.778 8.97452 -2.74862 0
M  V30 4294 C 581.319 9.07548 -1.32709 0
M  V30 4295 O 580.264 8.61972 -0.606089 0
M  V30 4296 C 582.537 8.25383 -0.938334 0
M  V30 4297 O 583.275 8.74577 0.146954 0
M  V30 4298 C 581.869 6.8802 -0.712559 0
M  V30 4299 O 582.667 6.1181 0.188505 0
M  V30 4300 C 580.531 7.27966 -0.139777 0
M  V30 4301 N 579.488 6.39368 -0.623421 0
M  V30 4302 C 579.657 5.71761 -1.78245 0
M  V30 4303 N 578.63 4.962 -2.10491 0
M  V30 4304 C 577.745 5.16158 -1.0635 0
M  V30 4305 C 576.478 4.60425 -0.810266 0
M  V30 4306 N 575.913 5.06 0.348685 0
M  V30 4307 C 576.515 5.94532 1.20395 0
M  V30 4308 N 577.692 6.48452 1.01191 0
M  V30 4309 C 578.267 6.04423 -0.146291 0
M  V30 4310 H 581.746 6.32625 -1.65044 0
M  V30 4311 H 583.229 8.19355 -1.79097 0
M  V30 4312 H 581.535 10.1305 -1.09016 0
M  V30 4313 H 581.345 9.64276 -3.41316 0
M  V30 4314 H 579.715 9.25417 -2.76357 0
M  V30 4315 H 580.557 5.79354 -2.38959 0
M  V30 4316 H 582.355 6.25169 1.0783 0
M  V30 4317 P 584.213 8.791 3.834e-12 0
M  V30 4318 O 585.634 9.31196 0.027936 0
M  V30 4319 O 583.853 7.77869 -1.04071 0
M  V30 4320 O 583.89 8.09533 1.41463 0
M  V30 4321 C 583.729 9.03587 2.5397 0
M  V30 4322 C 584.27 8.35226 3.79016 0
M  V30 4323 O 583.215 7.57904 4.1503 0
M  V30 4324 C 585.488 7.45087 3.67298 0
M  V30 4325 O 586.226 7.27796 4.85194 0
M  V30 4326 C 584.82 6.17323 3.12027 0
M  V30 4327 O 585.618 5.04496 3.46627 0
M  V30 4328 C 583.482 6.19961 3.81809 0
M  V30 4329 N 582.439 5.71575 2.93223 0
M  V30 4330 C 582.608 5.77362 1.59168 0
M  V30 4331 N 581.581 5.3123 0.911893 0
M  V30 4332 C 580.696 4.91717 1.89588 0
M  V30 4333 C 579.429 4.3114 1.8076 0
M  V30 4334 N 578.864 4.06823 3.02898 0
M  V30 4335 C 579.466 4.35062 4.22711 0
M  V30 4336 N 580.643 4.90805 4.35707 0
M  V30 4337 C 581.218 5.16382 3.14469 0
M  V30 4338 H 584.697 6.21428 2.0318 0
M  V30 4339 H 586.18 7.86112 2.9231 0
M  V30 4340 H 584.486 9.11171 4.55987 0
M  V30 4341 H 584.296 9.9573 2.34194 0
M  V30 4342 H 582.666 9.2792 2.67832 0
M  V30 4343 H 583.508 6.16575 1.12198 0
M  V30 4344 H 585.306 4.67628 4.28704 0
M  V30 4345 P 587.163 7.39546 4.75277 0
M  V30 4346 O 588.585 7.81777 5.05738 0
M  V30 4347 O 586.803 7.1065 3.32998 0
M  V30 4348 O 586.84 6.04542 5.56673 0
M  V30 4349 C 586.68 6.22772 7.02095 0
M  V30 4350 C 587.22 4.97725 7.70406 0
M  V30 4351 O 586.164 4.13256 7.58987 0
M  V30 4352 C 588.438 4.28231 7.11815 0
M  V30 4353 O 589.176 3.49945 8.01648 0
M  V30 4354 C 587.769 3.5063 5.96244 0
M  V30 4355 O 588.568 2.36482 5.64681 0
M  V30 4356 C 586.432 3.15122 6.56374 0
M  V30 4357 H 586.464 2.13853 6.99751 0
M  V30 4358 H 587.647 4.13501 5.06559 0
M  V30 4359 H 589.131 5.03285 6.70911 0
M  V30 4360 H 587.437 5.20877 8.75697 0
M  V30 4361 H 587.247 7.11046 7.35349 0
M  V30 4362 H 585.617 6.35815 7.26986 0
M  V30 4363 H 588.256 1.61644 6.13565 0
M  V30 4364 P 590.114 3.65191 7.99657 0
M  V30 4365 O 591.535 3.84292 8.48206 0
M  V30 4366 O 589.754 4.17805 6.64342 0
M  V30 4367 O 589.791 2.07613 7.95143 0
M  V30 4368 C 589.63 1.44344 9.27435 0
M  V30 4369 C 590.171 0.0220036 9.17197 0
M  V30 4370 O 589.116 -0.626794 8.61824 0
M  V30 4371 C 591.389 -0.24586 8.30336 0
M  V30 4372 O 592.127 -1.39011 8.63583 0
M  V30 4373 C 590.721 -0.273849 6.91158 0
M  V30 4374 O 591.519 -1.05728 6.029 0
M  V30 4375 C 589.383 -0.897649 7.22545 0
M  V30 4376 N 588.34 -0.292839 6.41732 0
M  V30 4377 C 588.509 0.950603 5.91308 0
M  V30 4378 N 587.482 1.37732 5.21105 0
M  V30 4379 C 586.597 0.318109 5.26039 0
M  V30 4380 C 585.33 0.146766 4.6727 0
M  V30 4381 N 584.765 -1.06525 4.95887 0
M  V30 4382 C 585.367 -2.0378 5.71347 0
M  V30 4383 N 586.544 -1.92445 6.27451 0
M  V30 4384 C 587.119 -0.715382 6.00353 0
M  V30 4385 H 590.598 0.733318 6.49674 0
M  V30 4386 H 592.081 0.60668 8.36503 0
M  V30 4387 H 590.387 -0.362662 10.1825 0
M  V30 4388 H 590.197 2.00611 10.0304 0
M  V30 4389 H 588.567 1.41843 9.55327 0
M  V30 4390 H 589.409 1.54076 6.07465 0
M  V30 4391 H 591.207 -1.95704 6.0346 0
M  V30 4392 P 593.065 -1.25109 8.70152 0
M  V30 4393 O 594.487 -1.35274 9.21221 0
M  V30 4394 O 592.705 -0.0769065 7.84762 0
M  V30 4395 O 592.742 -2.55232 7.81161 0
M  V30 4396 C 592.582 -3.79939 8.58154 0
M  V30 4397 C 593.122 -4.94023 7.72785 0
M  V30 4398 O 592.066 -5.18726 6.91205 0
M  V30 4399 C 594.34 -4.69597 6.85231 0
M  V30 4400 O 595.078 -5.83832 6.51337 0
M  V30 4401 C 593.671 -3.96706 5.66633 0
M  V30 4402 O 594.47 -4.15414 4.49689 0
M  V30 4403 C 592.334 -4.66153 5.59313 0
M  V30 4404 H 592.366 -5.47679 4.85214 0
M  V30 4405 H 593.549 -2.89008 5.86566 0
M  V30 4406 H 595.033 -4.0121 7.36511 0
M  V30 4407 H 593.339 -5.80182 8.37584 0
M  V30 4408 H 593.149 -3.73517 9.52265 0
M  V30 4409 H 591.519 -3.97163 8.80359 0
M  V30 4410 H 594.158 -4.90969 4.01921 0
M  V30 4411 P 596.015 -5.75688 6.64379 0
M  V30 4412 O 597.437 -6.11849 7.01846 0
M  V30 4413 O 595.655 -4.30744 6.56026 0
M  V30 4414 O 595.692 -6.37042 5.19165 0
M  V30 4415 C 595.532 -7.83578 5.16515 0
M  V30 4416 C 596.072 -8.33398 3.83019 0
M  V30 4417 O 595.016 -8.10074 3.01034 0
M  V30 4418 C 597.29 -7.65514 3.2257 0
M  V30 4419 O 598.028 -8.4329 2.32297 0
M  V30 4420 C 596.621 -6.40075 2.62207 0
M  V30 4421 O 597.42 -5.92589 1.53712 0
M  V30 4422 C 595.284 -6.9454 2.18503 0
M  V30 4423 H 595.316 -7.23063 1.12091 0
M  V30 4424 H 596.499 -5.6025 3.37201 0
M  V30 4425 H 597.983 -7.35707 4.02681 0
M  V30 4426 H 596.289 -9.40912 3.9095 0
M  V30 4427 H 596.099 -8.29056 5.99158 0
M  V30 4428 H 594.469 -8.10073 5.25882 0
M  V30 4429 H 597.108 -6.30324 0.726794 0
M  V30 4430 P 598.966 -8.4349 2.47671 0
M  V30 4431 O 600.387 -8.94263 2.59668 0
M  V30 4432 O 598.606 -7.1704 3.19006 0
M  V30 4433 O 598.643 -8.16596 0.923387 0
M  V30 4434 C 598.482 -9.38537 0.108869 0
M  V30 4435 C 599.023 -9.08175 -1.28353 0
M  V30 4436 O 597.968 -8.44131 -1.84692 0
M  V30 4437 C 600.241 -8.18386 -1.42505 0
M  V30 4438 O 600.979 -8.3501 -2.60497 0
M  V30 4439 C 599.573 -6.80225 -1.25468 0
M  V30 4440 O 600.371 -5.81716 -1.90454 0
M  V30 4441 C 598.235 -7.02416 -1.9168 0
M  V30 4442 N 597.192 -6.31033 -1.20314 0
M  V30 4443 C 597.361 -5.98817 0.0994088 0
M  V30 4444 N 596.334 -5.35403 0.621694 0
M  V30 4445 C 595.449 -5.25212 -0.43376 0
M  V30 4446 C 594.182 -4.64602 -0.519722 0
M  V30 4447 N 593.583 -4.01457 0.519136 0
M  V30 4448 N 593.617 -4.7568 -1.76013 0
M  V30 4449 C 594.219 -5.3653 -2.83017 0
M  V30 4450 N 595.396 -5.93676 -2.79782 0
M  V30 4451 C 595.971 -5.84061 -1.56249 0
M  V30 4452 H 598.267 -6.68789 -2.9658 0
M  V30 4453 H 599.45 -6.53498 -0.198729 0
M  V30 4454 H 600.933 -8.36622 -0.589963 0
M  V30 4455 H 599.239 -10.0273 -1.8081 0
M  V30 4456 H 599.049 -10.2138 0.558219 0
M  V30 4457 H 597.419 -9.6579 0.0444202 0
M  V30 4458 H 593.683 -5.37113 -3.77321 0
M  V30 4459 H 598.261 -6.23209 0.660562 0
M  V30 4460 H 592.653 -3.58834 0.394862 0
M  V30 4461 H 594.057 -3.96059 1.43048 0
M  V30 4462 H 600.059 -5.69466 -2.79593 0
M  V30 4463 P 601.916 -8.4349 -2.47671 0
M  V30 4464 O 603.338 -8.92593 -2.65 0
M  V30 4465 O 601.556 -7.7568 -1.19296 0
M  V30 4466 O 601.593 -7.36886 -3.63805 0
M  V30 4467 C 601.433 -7.95349 -4.982 0
M  V30 4468 C 601.973 -6.94612 -5.98974 0
M  V30 4469 O 600.917 -6.10347 -6.11815 0
M  V30 4470 C 603.191 -6.11426 -5.62335 0
M  V30 4471 O 603.929 -5.6162 -6.70584 0
M  V30 4472 C 602.522 -5.04409 -4.73308 0
M  V30 4473 O 603.321 -3.85992 -4.75183 0
M  V30 4474 C 601.185 -4.8728 -5.41006 0
M  V30 4475 H 601.217 -4.02333 -6.11157 0
M  V30 4476 H 602.4 -5.39466 -3.69543 0
M  V30 4477 H 603.884 -6.71916 -5.01943 0
M  V30 4478 H 602.19 -7.4649 -6.93477 0
M  V30 4479 H 602 -8.89416 -5.05237 0
M  V30 4480 H 600.37 -8.14876 -5.18409 0
M  V30 4481 H 603.009 -3.27957 -5.4317 0
M  V30 4482 P 604.867 -5.75688 -6.64379 0
M  V30 4483 O 606.289 -6.07627 -7.05504 0
M  V30 4484 O 604.507 -5.88047 -5.19722 0
M  V30 4485 O 604.544 -4.2322 -7.04443 0
M  V30 4486 C 604.384 -3.99743 -8.4911 0
M  V30 4487 C 604.924 -2.60516 -8.79425 0
M  V30 4488 O 603.868 -1.82684 -8.4467 0
M  V30 4489 C 606.142 -2.10343 -8.03628 0
M  V30 4490 O 606.88 -1.09919 -8.67766 0
M  V30 4491 C 605.473 -1.68446 -6.70876 0
M  V30 4492 O 606.272 -0.678137 -6.08433 0
M  V30 4493 C 604.136 -1.17436 -7.18567 0
M  V30 4494 H 604.168 -0.0804732 -7.31656 0
M  V30 4495 H 605.351 -2.54037 -6.02537 0
M  V30 4496 H 606.835 -2.93881 -7.85526 0
M  V30 4497 H 605.141 -2.53065 -9.86973 0
M  V30 4498 H 604.951 -4.75072 -9.05887 0
M  V30 4499 H 603.321 -4.05244 -8.76668 0
M  V30 4500 H 605.96 0.177647 -6.34251 0
M  V30 4501 P 607.817 -1.25109 -8.70152 0
M  V30 4502 O 609.239 -1.29744 -9.22016 0
M  V30 4503 O 607.457 -2.13714 -7.55141 0
M  V30 4504 O 607.494 0.248149 -8.21425 0
M  V30 4505 C 607.334 1.22779 -9.30434 0
M  V30 4506 C 607.874 2.56293 -8.80664 0
M  V30 4507 O 606.818 3.02979 -8.09349 0
M  V30 4508 C 609.092 2.57523 -7.89775 0
M  V30 4509 O 609.83 3.7668 -7.89438 0
M  V30 4510 C 608.423 2.20997 -6.55446 0
M  V30 4511 O 609.222 2.71895 -5.48509 0
M  V30 4512 C 607.086 2.89693 -6.67988 0
M  V30 4513 H 607.118 3.88793 -6.19859 0
M  V30 4514 H 608.301 1.12046 -6.44229 0
M  V30 4515 H 609.785 1.7746 -8.19711 0
M  V30 4516 H 608.091 3.20706 -9.67112 0
M  V30 4517 H 607.901 0.901032 -10.1892 0
M  V30 4518 H 606.271 1.33049 -9.56592 0
M  V30 4519 H 608.91 3.57847 -5.23962 0
M  V30 4520 P 610.768 3.65191 -7.99657 0
M  V30 4521 O 612.19 3.89332 -8.45794 0
M  V30 4522 O 610.408 2.28472 -7.50807 0
M  V30 4523 O 610.445 4.64972 -6.77611 0
M  V30 4524 C 610.285 6.06319 -7.16352 0
M  V30 4525 C 610.825 6.91731 -6.02299 0
M  V30 4526 O 609.769 6.92449 -5.17064 0
M  V30 4527 C 612.043 6.43627 -5.25174 0
M  V30 4528 O 612.781 7.43686 -4.60469 0
M  V30 4529 C 611.374 5.40275 -4.31916 0
M  V30 4530 O 612.173 5.25279 -3.14438 0
M  V30 4531 C 610.037 6.04847 -4.05327 0
M  V30 4532 H 610.069 6.62195 -3.11261 0
M  V30 4533 H 611.252 4.42556 -4.81383 0
M  V30 4534 H 612.736 5.92458 -5.93643 0
M  V30 4535 H 611.042 7.92655 -6.402 0
M  V30 4536 H 610.852 6.26671 -8.0846 0
M  V30 4537 H 609.222 6.29101 -7.32804 0
M  V30 4538 H 611.861 5.84315 -2.47318 0
M  V30 4539 P 613.719 7.39546 -4.75277 0
M  V30 4540 O 615.141 7.84798 -5.01039 0
M  V30 4541 O 613.359 5.9812 -5.08098 0
M  V30 4542 O 613.396 7.57503 -3.1866 0
M  V30 4543 C 613.236 8.97357 -2.74833 0
M  V30 4544 C 613.776 9.07548 -1.32709 0
M  V30 4545 O 612.72 8.62072 -0.606159 0
M  V30 4546 C 614.994 8.25383 -0.938334 0
M  V30 4547 O 615.732 8.74577 0.146954 0
M  V30 4548 C 614.325 6.8802 -0.712559 0
M  V30 4549 O 615.124 6.1189 0.194655 0
M  V30 4550 C 612.988 7.27966 -0.139777 0
M  V30 4551 H 613.02 7.25354 0.961601 0
M  V30 4552 H 614.203 6.32557 -1.65702 0
M  V30 4553 H 615.687 8.19355 -1.79097 0
M  V30 4554 H 613.993 10.1294 -1.10029 0
M  V30 4555 H 613.803 9.64276 -3.41316 0
M  V30 4556 H 612.173 9.25417 -2.76357 0
M  V30 4557 H 614.812 6.25267 1.07847 0
M  V30 4558 P 616.669 8.791 4.14417e-12 0
M  V30 4559 O 618.09 9.31196 0.027936 0
M  V30 4560 O 616.309 7.77869 -1.04071 0
M  V30 4561 O 616.346 8.09533 1.41463 0
M  V30 4562 C 616.185 9.03587 2.5397 0
M  V30 4563 C 616.726 8.35226 3.79016 0
M  V30 4564 O 615.671 7.57904 4.1503 0
M  V30 4565 C 617.944 7.45087 3.67298 0
M  V30 4566 O 618.682 7.27796 4.85194 0
M  V30 4567 C 617.276 6.17323 3.12027 0
M  V30 4568 O 618.074 5.04496 3.46627 0
M  V30 4569 C 615.938 6.19961 3.81809 0
M  V30 4570 N 614.895 5.71575 2.93223 0
M  V30 4571 C 615.064 5.77362 1.59168 0
M  V30 4572 N 614.037 5.3123 0.911893 0
M  V30 4573 C 613.152 4.91717 1.89588 0
M  V30 4574 C 611.885 4.3114 1.8076 0
M  V30 4575 N 611.286 3.99821 0.632928 0
M  V30 4576 N 611.32 4.06823 3.02898 0
M  V30 4577 C 611.922 4.35062 4.22711 0
M  V30 4578 N 613.099 4.90805 4.35707 0
M  V30 4579 C 613.674 5.16382 3.14469 0
M  V30 4580 H 615.97 5.58142 4.72986 0
M  V30 4581 H 617.153 6.21428 2.0318 0
M  V30 4582 H 618.636 7.86112 2.9231 0
M  V30 4583 H 616.942 9.11171 4.55987 0
M  V30 4584 H 616.752 9.9573 2.34194 0
M  V30 4585 H 615.122 9.2792 2.67832 0
M  V30 4586 H 611.386 4.09052 5.13359 0
M  V30 4587 H 615.964 6.16575 1.12198 0
M  V30 4588 H 610.356 3.55423 0.632085 0
M  V30 4589 H 611.76 4.20317 -0.256712 0
M  V30 4590 H 617.762 4.67628 4.28704 0
M  V30 4591 P 619.62 7.39546 4.75277 0
M  V30 4592 O 621.042 7.81777 5.05738 0
M  V30 4593 O 619.26 7.1065 3.32998 0
M  V30 4594 O 619.297 6.04542 5.56673 0
M  V30 4595 C 619.137 6.22772 7.02095 0
M  V30 4596 C 619.677 4.97725 7.70406 0
M  V30 4597 O 618.621 4.13256 7.58987 0
M  V30 4598 C 620.895 4.28231 7.11815 0
M  V30 4599 O 621.633 3.49945 8.01648 0
M  V30 4600 C 620.226 3.5063 5.96244 0
M  V30 4601 O 621.025 2.36482 5.64681 0
M  V30 4602 C 618.889 3.15122 6.56374 0
M  V30 4603 H 618.921 2.13853 6.99751 0
M  V30 4604 H 620.104 4.13501 5.06559 0
M  V30 4605 H 621.588 5.03285 6.70911 0
M  V30 4606 H 619.894 5.20877 8.75697 0
M  V30 4607 H 619.704 7.11046 7.35349 0
M  V30 4608 H 618.074 6.35815 7.26986 0
M  V30 4609 H 620.713 1.61644 6.13565 0
M  V30 4610 P 622.57 3.65191 7.99657 0
M  V30 4611 O 623.991 3.84292 8.48206 0
M  V30 4612 O 622.21 4.17805 6.64342 0
M  V30 4613 O 622.247 2.07613 7.95143 0
M  V30 4614 C 622.086 1.44344 9.27435 0
M  V30 4615 C 622.627 0.0220036 9.17197 0
M  V30 4616 O 621.572 -0.626794 8.61824 0
M  V30 4617 C 623.845 -0.24586 8.30336 0
M  V30 4618 O 624.583 -1.39011 8.63583 0
M  V30 4619 C 623.177 -0.273849 6.91158 0
M  V30 4620 O 623.975 -1.05728 6.029 0
M  V30 4621 C 621.839 -0.897649 7.22545 0
M  V30 4622 N 620.796 -0.292839 6.41732 0
M  V30 4623 C 620.965 0.950603 5.91308 0
M  V30 4624 N 619.938 1.37732 5.21105 0
M  V30 4625 C 619.053 0.318109 5.26039 0
M  V30 4626 C 617.786 0.146766 4.6727 0
M  V30 4627 N 617.221 -1.06525 4.95887 0
M  V30 4628 C 617.823 -2.0378 5.71347 0
M  V30 4629 N 619 -1.92445 6.27451 0
M  V30 4630 C 619.575 -0.715382 6.00353 0
M  V30 4631 H 623.054 0.733318 6.49674 0
M  V30 4632 H 624.537 0.60668 8.36503 0
M  V30 4633 H 622.843 -0.362662 10.1825 0
M  V30 4634 H 622.653 2.00611 10.0304 0
M  V30 4635 H 621.023 1.41843 9.55327 0
M  V30 4636 H 621.865 1.54076 6.07465 0
M  V30 4637 H 623.663 -1.95704 6.0346 0
M  V30 4638 P 625.521 -1.25109 8.70152 0
M  V30 4639 O 626.943 -1.35274 9.21221 0
M  V30 4640 O 625.161 -0.0769065 7.84762 0
M  V30 4641 O 625.198 -2.55232 7.81161 0
M  V30 4642 C 625.038 -3.79939 8.58154 0
M  V30 4643 C 625.578 -4.94023 7.72785 0
M  V30 4644 O 624.522 -5.18726 6.91205 0
M  V30 4645 C 626.796 -4.69597 6.85231 0
M  V30 4646 O 627.534 -5.83832 6.51337 0
M  V30 4647 C 626.127 -3.96706 5.66633 0
M  V30 4648 O 626.926 -4.15414 4.49689 0
M  V30 4649 C 624.79 -4.66153 5.59313 0
M  V30 4650 H 624.822 -5.47679 4.85214 0
M  V30 4651 H 626.005 -2.89008 5.86566 0
M  V30 4652 H 627.489 -4.0121 7.36511 0
M  V30 4653 H 625.795 -5.80182 8.37584 0
M  V30 4654 H 625.605 -3.73517 9.52265 0
M  V30 4655 H 623.975 -3.97163 8.80359 0
M  V30 4656 H 626.614 -4.90969 4.01921 0
M  V30 4657 P 628.471 -5.75688 6.64379 0
M  V30 4658 O 629.872 -6.11991 7.09136 0
M  V30 4659 O 628.093 -4.30899 6.62018 0
M  V30 4660 O 628.148 -6.36965 5.19102 0
M  V30 4661 C 627.988 -7.83578 5.16515 0
M  V30 4662 C 628.528 -8.33307 3.82977 0
M  V30 4663 O 627.472 -8.0998 3.00999 0
M  V30 4664 C 629.745 -7.65514 3.2257 0
M  V30 4665 O 630.484 -8.4329 2.32297 0
M  V30 4666 C 629.078 -6.40075 2.62207 0
M  V30 4667 O 629.876 -5.92492 1.53687 0
M  V30 4668 C 627.74 -6.9454 2.18503 0
M  V30 4669 N 626.697 -5.95905 2.39948 0
M  V30 4670 C 625.662 -5.89764 1.49837 0
M  V30 4671 O 625.701 -6.64088 0.490975 0
M  V30 4672 N 624.65 -5.02821 1.70992 0
M  V30 4673 C 624.698 -4.21498 2.77236 0
M  V30 4674 C 625.794 -4.23389 3.68205 0
M  V30 4675 C 626.76 -5.12792 3.46171 0
M  V30 4676 H 627.772 -7.22964 1.12076 0
M  V30 4677 H 628.955 -5.60502 3.36589 0
M  V30 4678 H 630.439 -7.36197 4.01993 0
M  V30 4679 H 628.745 -9.41302 3.90009 0
M  V30 4680 H 628.554 -8.29056 5.99158 0
M  V30 4681 H 626.924 -8.09989 5.25828 0
M  V30 4682 H 625.842 -3.54747 4.52399 0
M  V30 4683 H 627.606 -5.18551 4.1489 0
M  V30 4684 H 629.66 -6.40705 0.751752 0
M  V30 4685 P 631.422 -8.4349 2.47671 0
M  V30 4686 O 632.844 -8.94167 2.5964 0
M  V30 4687 O 631.062 -7.1704 3.19006 0
M  V30 4688 O 631.099 -8.16596 0.923387 0
M  V30 4689 C 630.939 -9.38437 0.108857 0
M  V30 4690 C 631.479 -9.08175 -1.28353 0
M  V30 4691 O 630.423 -8.44229 -1.84713 0
M  V30 4692 C 632.697 -8.18386 -1.42505 0
M  V30 4693 O 633.435 -8.3501 -2.60497 0
M  V30 4694 C 632.028 -6.80225 -1.25468 0
M  V30 4695 O 632.827 -5.81621 -1.91066 0
M  V30 4696 C 630.691 -7.02416 -1.9168 0
M  V30 4697 H 630.723 -6.6888 -2.96621 0
M  V30 4698 H 631.906 -6.53617 -0.192223 0
M  V30 4699 H 633.39 -8.36622 -0.589963 0
M  V30 4700 H 631.696 -10.0291 -1.79807 0
M  V30 4701 H 631.506 -10.2138 0.558219 0
M  V30 4702 H 629.876 -9.6579 0.0444202 0
M  V30 4703 H 632.515 -5.69556 -2.79637 0
M  V30 4704 P 634.373 -8.4349 -2.47671 0
M  V30 4705 O 635.795 -8.92593 -2.65 0
M  V30 4706 O 634.013 -7.7568 -1.19296 0
M  V30 4707 O 634.05 -7.36886 -3.63805 0
M  V30 4708 C 633.89 -7.95349 -4.982 0
M  V30 4709 C 634.43 -6.94612 -5.98974 0
M  V30 4710 O 633.374 -6.10347 -6.11815 0
M  V30 4711 C 635.648 -6.11426 -5.62335 0
M  V30 4712 O 636.386 -5.6162 -6.70584 0
M  V30 4713 C 634.979 -5.04409 -4.73308 0
M  V30 4714 O 635.778 -3.85992 -4.75183 0
M  V30 4715 C 633.642 -4.8728 -5.41006 0
M  V30 4716 H 633.674 -4.02333 -6.11157 0
M  V30 4717 H 634.857 -5.39466 -3.69543 0
M  V30 4718 H 636.341 -6.71916 -5.01943 0
M  V30 4719 H 634.647 -7.4649 -6.93477 0
M  V30 4720 H 634.457 -8.89416 -5.05237 0
M  V30 4721 H 632.827 -8.14876 -5.18409 0
M  V30 4722 H 635.466 -3.27957 -5.4317 0
M  V30 4723 P 637.323 -5.75688 -6.64379 0
M  V30 4724 O 638.744 -6.07692 -7.0558 0
M  V30 4725 O 636.963 -5.88047 -5.19722 0
M  V30 4726 O 637 -4.2322 -7.04443 0
M  V30 4727 C 636.839 -3.99785 -8.49201 0
M  V30 4728 C 637.38 -2.60516 -8.79425 0
M  V30 4729 O 636.325 -1.82663 -8.44573 0
M  V30 4730 C 638.598 -2.10343 -8.03628 0
M  V30 4731 O 639.336 -1.09919 -8.67766 0
M  V30 4732 C 637.93 -1.68446 -6.70876 0
M  V30 4733 O 638.728 -0.684109 -6.08265 0
M  V30 4734 C 636.592 -1.17436 -7.18567 0
M  V30 4735 N 635.549 -1.52699 -6.23988 0
M  V30 4736 C 635.718 -2.578 -5.40574 0
M  V30 4737 N 634.691 -2.78966 -4.61193 0
M  V30 4738 C 633.806 -1.78725 -4.95769 0
M  V30 4739 C 632.539 -1.45727 -4.44207 0
M  V30 4740 N 631.974 -0.374977 -5.05812 0
M  V30 4741 C 632.576 0.345585 -6.05615 0
M  V30 4742 N 633.753 0.0787651 -6.56253 0
M  V30 4743 C 634.328 -1.00499 -5.96189 0
M  V30 4744 H 637.807 -2.53396 -6.02698 0
M  V30 4745 H 639.29 -2.93881 -7.85526 0
M  V30 4746 H 637.596 -2.52078 -9.87225 0
M  V30 4747 H 637.406 -4.75072 -9.05887 0
M  V30 4748 H 635.776 -4.05244 -8.76668 0
M  V30 4749 H 636.618 -3.18977 -5.3945 0
M  V30 4750 H 638.416 0.177619 -6.34151 0
M  V30 4751 P 640.274 -1.25109 -8.70152 0
M  V30 4752 O 641.696 -1.29744 -9.22016 0
M  V30 4753 O 639.914 -2.13714 -7.55141 0
M  V30 4754 O 639.951 0.248149 -8.21425 0
M  V30 4755 C 639.791 1.22779 -9.30434 0
M  V30 4756 C 640.331 2.56293 -8.80664 0
M  V30 4757 O 639.275 3.02979 -8.09349 0
M  V30 4758 C 641.549 2.57523 -7.89775 0
M  V30 4759 O 642.287 3.7668 -7.89438 0
M  V30 4760 C 640.88 2.20997 -6.55446 0
M  V30 4761 O 641.679 2.71895 -5.48509 0
M  V30 4762 C 639.543 2.89693 -6.67988 0
M  V30 4763 H 639.575 3.88793 -6.19859 0
M  V30 4764 H 640.758 1.12046 -6.44229 0
M  V30 4765 H 642.242 1.7746 -8.19711 0
M  V30 4766 H 640.548 3.20706 -9.67112 0
M  V30 4767 H 640.358 0.901032 -10.1892 0
M  V30 4768 H 638.728 1.33049 -9.56592 0
M  V30 4769 H 641.367 3.57847 -5.23962 0
M  V30 4770 P 643.224 3.65191 -7.99657 0
M  V30 4771 O 644.646 3.89332 -8.45794 0
M  V30 4772 O 642.864 2.28472 -7.50807 0
M  V30 4773 O 642.901 4.64972 -6.77611 0
M  V30 4774 C 642.741 6.06319 -7.16352 0
M  V30 4775 C 643.281 6.91731 -6.02299 0
M  V30 4776 O 642.225 6.92449 -5.17064 0
M  V30 4777 C 644.499 6.43627 -5.25174 0
M  V30 4778 O 645.237 7.43686 -4.60469 0
M  V30 4779 C 643.83 5.40275 -4.31916 0
M  V30 4780 O 644.629 5.25279 -3.14438 0
M  V30 4781 C 642.493 6.04847 -4.05327 0
M  V30 4782 H 642.525 6.62195 -3.11261 0
M  V30 4783 H 643.708 4.42556 -4.81383 0
M  V30 4784 H 645.192 5.92458 -5.93643 0
M  V30 4785 H 643.498 7.92655 -6.402 0
M  V30 4786 H 643.308 6.26671 -8.0846 0
M  V30 4787 H 641.678 6.29101 -7.32804 0
M  V30 4788 H 644.317 5.84315 -2.47318 0
M  V30 4789 P 646.175 7.39546 -4.75277 0
M  V30 4790 O 647.597 7.84798 -5.01039 0
M  V30 4791 O 645.815 5.9812 -5.08098 0
M  V30 4792 O 645.852 7.57503 -3.1866 0
M  V30 4793 C 645.692 8.97357 -2.74833 0
M  V30 4794 C 646.232 9.07548 -1.32709 0
M  V30 4795 O 645.176 8.62072 -0.606159 0
M  V30 4796 C 647.45 8.25383 -0.938334 0
M  V30 4797 O 648.188 8.74577 0.146954 0
M  V30 4798 C 646.781 6.8802 -0.712559 0
M  V30 4799 O 647.58 6.1189 0.194655 0
M  V30 4800 C 645.444 7.27966 -0.139777 0
M  V30 4801 H 645.476 7.25354 0.961601 0
M  V30 4802 H 646.659 6.32557 -1.65702 0
M  V30 4803 H 648.143 8.19355 -1.79097 0
M  V30 4804 H 646.449 10.1294 -1.10029 0
M  V30 4805 H 646.259 9.64276 -3.41316 0
M  V30 4806 H 644.629 9.25417 -2.76357 0
M  V30 4807 H 647.268 6.25267 1.07847 0
M  V30 4808 P 649.125 8.791 4.45433e-12 0
M  V30 4809 O 650.547 9.31096 0.027933 0
M  V30 4810 O 648.765 7.77869 -1.04071 0
M  V30 4811 O 648.802 8.09533 1.41463 0
M  V30 4812 C 648.642 9.0349 2.53943 0
M  V30 4813 C 649.182 8.35226 3.79016 0
M  V30 4814 O 648.126 7.57992 4.15078 0
M  V30 4815 C 650.4 7.45087 3.67298 0
M  V30 4816 O 651.138 7.27796 4.85194 0
M  V30 4817 C 649.731 6.17323 3.12027 0
M  V30 4818 O 650.53 5.04231 3.47188 0
M  V30 4819 C 648.394 6.19961 3.81809 0
M  V30 4820 H 648.426 5.58218 4.73051 0
M  V30 4821 H 649.609 6.21726 2.02589 0
M  V30 4822 H 651.093 7.86112 2.9231 0
M  V30 4823 H 649.399 9.11627 4.55076 0
M  V30 4824 H 649.209 9.9573 2.34194 0
M  V30 4825 H 647.579 9.2792 2.67832 0
M  V30 4826 H 650.218 4.67702 4.28772 0
M  V30 4827 P 652.076 7.39546 4.75277 0
M  V30 4828 O 653.498 7.81777 5.05738 0
M  V30 4829 O 651.716 7.1065 3.32998 0
M  V30 4830 O 651.753 6.04542 5.56673 0
M  V30 4831 C 651.593 6.22772 7.02095 0
M  V30 4832 C 652.133 4.97725 7.70406 0
M  V30 4833 O 651.077 4.13256 7.58987 0
M  V30 4834 C 653.351 4.28231 7.11815 0
M  V30 4835 O 654.089 3.49945 8.01648 0
M  V30 4836 C 652.682 3.5063 5.96244 0
M  V30 4837 O 653.481 2.36482 5.64681 0
M  V30 4838 C 651.345 3.15122 6.56374 0
M  V30 4839 H 651.377 2.13853 6.99751 0
M  V30 4840 H 652.56 4.13501 5.06559 0
M  V30 4841 H 654.044 5.03285 6.70911 0
M  V30 4842 H 652.35 5.20877 8.75697 0
M  V30 4843 H 652.16 7.11046 7.35349 0
M  V30 4844 H 650.53 6.35815 7.26986 0
M  V30 4845 H 653.169 1.61644 6.13565 0
M  V30 4846 P 655.027 3.65191 7.99657 0
M  V30 4847 O 656.449 3.8425 8.48115 0
M  V30 4848 O 654.667 4.17805 6.64342 0
M  V30 4849 O 654.704 2.07613 7.95143 0
M  V30 4850 C 654.544 1.44328 9.27336 0
M  V30 4851 C 655.084 0.0220036 9.17197 0
M  V30 4852 O 654.028 -0.626867 8.61923 0
M  V30 4853 C 656.302 -0.24586 8.30336 0
M  V30 4854 O 657.04 -1.39011 8.63583 0
M  V30 4855 C 655.633 -0.273849 6.91158 0
M  V30 4856 O 656.432 -1.06348 6.02892 0
M  V30 4857 C 654.296 -0.897649 7.22545 0
M  V30 4858 H 654.328 -1.9841 7.04286 0
M  V30 4859 H 655.511 0.739928 6.497 0
M  V30 4860 H 656.995 0.60668 8.36503 0
M  V30 4861 H 655.301 -0.352479 10.1829 0
M  V30 4862 H 655.111 2.00611 10.0304 0
M  V30 4863 H 653.481 1.41843 9.55327 0
M  V30 4864 H 656.12 -1.95734 6.03555 0
M  V30 4865 P 657.977 -1.25109 8.70152 0
M  V30 4866 O 659.399 -1.35274 9.21221 0
M  V30 4867 O 657.617 -0.0769065 7.84762 0
M  V30 4868 O 657.654 -2.55232 7.81161 0
M  V30 4869 C 657.494 -3.79939 8.58154 0
M  V30 4870 C 658.034 -4.94023 7.72785 0
M  V30 4871 O 656.978 -5.18726 6.91205 0
M  V30 4872 C 659.252 -4.69597 6.85231 0
M  V30 4873 O 659.99 -5.83832 6.51337 0
M  V30 4874 C 658.583 -3.96706 5.66633 0
M  V30 4875 O 659.382 -4.15414 4.49689 0
M  V30 4876 C 657.246 -4.66153 5.59313 0
M  V30 4877 H 657.278 -5.47679 4.85214 0
M  V30 4878 H 658.461 -2.89008 5.86566 0
M  V30 4879 H 659.945 -4.0121 7.36511 0
M  V30 4880 H 658.251 -5.80182 8.37584 0
M  V30 4881 H 658.061 -3.73517 9.52265 0
M  V30 4882 H 656.431 -3.97163 8.80359 0
M  V30 4883 H 659.07 -4.90969 4.01921 0
M  V30 4884 P 660.928 -5.75688 6.64379 0
M  V30 4885 O 662.35 -6.11849 7.01846 0
M  V30 4886 O 660.568 -4.30744 6.56026 0
M  V30 4887 O 660.605 -6.37042 5.19165 0
M  V30 4888 C 660.445 -7.83578 5.16515 0
M  V30 4889 C 660.985 -8.33398 3.83019 0
M  V30 4890 O 659.929 -8.10074 3.01034 0
M  V30 4891 C 662.203 -7.65514 3.2257 0
M  V30 4892 O 662.941 -8.4329 2.32297 0
M  V30 4893 C 661.534 -6.40075 2.62207 0
M  V30 4894 O 662.333 -5.92589 1.53712 0
M  V30 4895 C 660.197 -6.9454 2.18503 0
M  V30 4896 H 660.229 -7.23063 1.12091 0
M  V30 4897 H 661.412 -5.6025 3.37201 0
M  V30 4898 H 662.896 -7.35707 4.02681 0
M  V30 4899 H 661.202 -9.40912 3.9095 0
M  V30 4900 H 661.012 -8.29056 5.99158 0
M  V30 4901 H 659.382 -8.10073 5.25882 0
M  V30 4902 H 662.021 -6.30324 0.726794 0
M  V30 4903 P 663.878 -8.4349 2.47671 0
M  V30 4904 O 665.3 -8.94167 2.5964 0
M  V30 4905 O 663.518 -7.1704 3.19006 0
M  V30 4906 O 663.555 -8.16596 0.923387 0
M  V30 4907 C 663.395 -9.38437 0.108857 0
M  V30 4908 C 663.935 -9.08175 -1.28353 0
M  V30 4909 O 662.879 -8.44229 -1.84713 0
M  V30 4910 C 665.153 -8.18386 -1.42505 0
M  V30 4911 O 665.891 -8.3501 -2.60497 0
M  V30 4912 C 664.484 -6.80225 -1.25468 0
M  V30 4913 O 665.283 -5.81621 -1.91066 0
M  V30 4914 C 663.147 -7.02416 -1.9168 0
M  V30 4915 H 663.179 -6.6888 -2.96621 0
M  V30 4916 H 664.362 -6.53617 -0.192223 0
M  V30 4917 H 665.846 -8.36622 -0.589963 0
M  V30 4918 H 664.152 -10.0291 -1.79807 0
M  V30 4919 H 663.962 -10.2138 0.558219 0
M  V30 4920 H 662.332 -9.6579 0.0444202 0
M  V30 4921 H 664.971 -5.69556 -2.79637 0
M  V30 4922 P 666.829 -8.4349 -2.47671 0
M  V30 4923 O 668.251 -8.92593 -2.65 0
M  V30 4924 O 666.469 -7.7568 -1.19296 0
M  V30 4925 O 666.506 -7.36886 -3.63805 0
M  V30 4926 C 666.346 -7.95349 -4.982 0
M  V30 4927 C 666.886 -6.94612 -5.98974 0
M  V30 4928 O 665.83 -6.10347 -6.11815 0
M  V30 4929 C 668.104 -6.11426 -5.62335 0
M  V30 4930 O 668.842 -5.6162 -6.70584 0
M  V30 4931 C 667.435 -5.04409 -4.73308 0
M  V30 4932 O 668.234 -3.85992 -4.75183 0
M  V30 4933 C 666.098 -4.8728 -5.41006 0
M  V30 4934 H 666.13 -4.02333 -6.11157 0
M  V30 4935 H 667.313 -5.39466 -3.69543 0
M  V30 4936 H 668.797 -6.71916 -5.01943 0
M  V30 4937 H 667.103 -7.4649 -6.93477 0
M  V30 4938 H 666.913 -8.89416 -5.05237 0
M  V30 4939 H 665.283 -8.14876 -5.18409 0
M  V30 4940 H 667.922 -3.27957 -5.4317 0
M  V30 4941 P 669.779 -5.75688 -6.64379 0
M  V30 4942 O 671.201 -6.07627 -7.05504 0
M  V30 4943 O 669.419 -5.88047 -5.19722 0
M  V30 4944 O 669.456 -4.2322 -7.04443 0
M  V30 4945 C 669.296 -3.99743 -8.4911 0
M  V30 4946 C 669.836 -2.60516 -8.79425 0
M  V30 4947 O 668.78 -1.82684 -8.4467 0
M  V30 4948 C 671.054 -2.10343 -8.03628 0
M  V30 4949 O 671.792 -1.09919 -8.67766 0
M  V30 4950 C 670.385 -1.68446 -6.70876 0
M  V30 4951 O 671.184 -0.678137 -6.08433 0
M  V30 4952 C 669.048 -1.17436 -7.18567 0
M  V30 4953 H 669.08 -0.0804732 -7.31656 0
M  V30 4954 H 670.263 -2.54037 -6.02537 0
M  V30 4955 H 671.747 -2.93881 -7.85526 0
M  V30 4956 H 670.053 -2.53065 -9.86973 0
M  V30 4957 H 669.863 -4.75072 -9.05887 0
M  V30 4958 H 668.233 -4.05244 -8.76668 0
M  V30 4959 H 670.872 0.177647 -6.34251 0
M  V30 4960 P 672.73 -1.25109 -8.70152 0
M  V30 4961 O 674.151 -1.29758 -9.22115 0
M  V30 4962 O 672.37 -2.13714 -7.55141 0
M  V30 4963 O 672.407 0.248149 -8.21425 0
M  V30 4964 C 672.246 1.22792 -9.30533 0
M  V30 4965 C 672.787 2.56293 -8.80664 0
M  V30 4966 O 671.732 3.02944 -8.09255 0
M  V30 4967 C 674.005 2.57523 -7.89775 0
M  V30 4968 O 674.743 3.7668 -7.89438 0
M  V30 4969 C 673.337 2.20997 -6.55446 0
M  V30 4970 O 674.135 2.71302 -5.48691 0
M  V30 4971 C 671.999 2.89693 -6.67988 0
M  V30 4972 N 670.956 2.08895 -6.07487 0
M  V30 4973 C 671.125 0.753809 -5.94137 0
M  V30 4974 N 670.098 0.146592 -5.38801 0
M  V30 4975 C 669.213 1.1768 -5.13693 0
M  V30 4976 C 667.946 1.17563 -4.52477 0
M  V30 4977 N 667.347 0.057481 -4.04759 0
M  V30 4978 N 667.381 2.41918 -4.45789 0
M  V30 4979 C 667.983 3.56493 -4.90792 0
M  V30 4980 N 669.16 3.61423 -5.47817 0
M  V30 4981 C 669.735 2.37779 -5.5588 0
M  V30 4982 H 672.031 3.8874 -6.19774 0
M  V30 4983 H 673.214 1.12673 -6.44018 0
M  V30 4984 H 674.697 1.7746 -8.19711 0
M  V30 4985 H 673.003 3.21673 -9.66791 0
M  V30 4986 H 672.813 0.901032 -10.1892 0
M  V30 4987 H 671.183 1.33049 -9.56592 0
M  V30 4988 H 667.447 4.49919 -4.77947 0
M  V30 4989 H 672.025 0.233081 -6.26266 0
M  V30 4990 H 666.417 0.119831 -3.60801 0
M  V30 4991 H 667.821 -0.852272 -4.12385 0
M  V30 4992 H 673.823 3.5779 -5.23879 0
M  V30 4993 P 675.681 3.65191 -7.99657 0
M  V30 4994 O 677.103 3.89332 -8.45794 0
M  V30 4995 O 675.321 2.28472 -7.50807 0
M  V30 4996 O 675.358 4.64972 -6.77611 0
M  V30 4997 C 675.198 6.06319 -7.16352 0
M  V30 4998 C 675.738 6.91731 -6.02299 0
M  V30 4999 O 674.682 6.92449 -5.17064 0
M  V30 5000 C 676.956 6.43627 -5.25174 0
M  V30 5001 O 677.694 7.43686 -4.60469 0
M  V30 5002 C 676.287 5.40275 -4.31916 0
M  V30 5003 O 677.086 5.25279 -3.14438 0
M  V30 5004 C 674.95 6.04847 -4.05327 0
M  V30 5005 H 674.982 6.62195 -3.11261 0
M  V30 5006 H 676.165 4.42556 -4.81383 0
M  V30 5007 H 677.649 5.92458 -5.93643 0
M  V30 5008 H 675.955 7.92655 -6.402 0
M  V30 5009 H 675.765 6.26671 -8.0846 0
M  V30 5010 H 674.135 6.29101 -7.32804 0
M  V30 5011 H 676.774 5.84315 -2.47318 0
M  V30 5012 P 678.631 7.39546 -4.75277 0
M  V30 5013 O 680.053 7.84798 -5.01039 0
M  V30 5014 O 678.271 5.9812 -5.08098 0
M  V30 5015 O 678.308 7.57503 -3.1866 0
M  V30 5016 C 678.148 8.97357 -2.74833 0
M  V30 5017 C 678.688 9.07548 -1.32709 0
M  V30 5018 O 677.632 8.62072 -0.606159 0
M  V30 5019 C 679.906 8.25383 -0.938334 0
M  V30 5020 O 680.644 8.74577 0.146954 0
M  V30 5021 C 679.237 6.8802 -0.712559 0
M  V30 5022 O 680.036 6.1189 0.194655 0
M  V30 5023 C 677.9 7.27966 -0.139777 0
M  V30 5024 H 677.932 7.25354 0.961601 0
M  V30 5025 H 679.115 6.32557 -1.65702 0
M  V30 5026 H 680.599 8.19355 -1.79097 0
M  V30 5027 H 678.905 10.1294 -1.10029 0
M  V30 5028 H 678.715 9.64276 -3.41316 0
M  V30 5029 H 677.085 9.25417 -2.76357 0
M  V30 5030 H 679.724 6.25267 1.07847 0
M  V30 5031 P 681.582 8.791 4.7645e-12 0
M  V30 5032 O 683.004 9.31096 0.027933 0
M  V30 5033 O 681.222 7.77869 -1.04071 0
M  V30 5034 O 681.259 8.09533 1.41463 0
M  V30 5035 C 681.099 9.0349 2.53943 0
M  V30 5036 C 681.639 8.35226 3.79016 0
M  V30 5037 O 680.583 7.57992 4.15078 0
M  V30 5038 C 682.857 7.45087 3.67298 0
M  V30 5039 O 683.595 7.27796 4.85194 0
M  V30 5040 C 682.188 6.17323 3.12027 0
M  V30 5041 O 682.987 5.04231 3.47188 0
M  V30 5042 C 680.851 6.19961 3.81809 0
M  V30 5043 H 680.883 5.58218 4.73051 0
M  V30 5044 H 682.066 6.21726 2.02589 0
M  V30 5045 H 683.55 7.86112 2.9231 0
M  V30 5046 H 681.856 9.11627 4.55076 0
M  V30 5047 H 681.666 9.9573 2.34194 0
M  V30 5048 H 680.036 9.2792 2.67832 0
M  V30 5049 H 682.675 4.67702 4.28772 0
M  V30 5050 P 684.532 7.39546 4.75277 0
M  V30 5051 O 685.954 7.81777 5.05738 0
M  V30 5052 O 684.172 7.1065 3.32998 0
M  V30 5053 O 684.209 6.04542 5.56673 0
M  V30 5054 C 684.049 6.22772 7.02095 0
M  V30 5055 C 684.589 4.97725 7.70406 0
M  V30 5056 O 683.533 4.13256 7.58987 0
M  V30 5057 C 685.807 4.28231 7.11815 0
M  V30 5058 O 686.545 3.49945 8.01648 0
M  V30 5059 C 685.138 3.5063 5.96244 0
M  V30 5060 O 685.937 2.36482 5.64681 0
M  V30 5061 C 683.801 3.15122 6.56374 0
M  V30 5062 H 683.833 2.13853 6.99751 0
M  V30 5063 H 685.016 4.13501 5.06559 0
M  V30 5064 H 686.5 5.03285 6.70911 0
M  V30 5065 H 684.806 5.20877 8.75697 0
M  V30 5066 H 684.616 7.11046 7.35349 0
M  V30 5067 H 682.986 6.35815 7.26986 0
M  V30 5068 H 685.625 1.61644 6.13565 0
M  V30 5069 P 687.483 3.65191 7.99657 0
M  V30 5070 O 688.905 3.8425 8.48115 0
M  V30 5071 O 687.123 4.17805 6.64342 0
M  V30 5072 O 687.16 2.07613 7.95143 0
M  V30 5073 C 687 1.44328 9.27336 0
M  V30 5074 C 687.54 0.0220036 9.17197 0
M  V30 5075 O 686.484 -0.626867 8.61923 0
M  V30 5076 C 688.758 -0.24586 8.30336 0
M  V30 5077 O 689.496 -1.39011 8.63583 0
M  V30 5078 C 688.089 -0.273849 6.91158 0
M  V30 5079 O 688.888 -1.06348 6.02892 0
M  V30 5080 C 686.752 -0.897649 7.22545 0
M  V30 5081 H 686.784 -1.9841 7.04286 0
M  V30 5082 H 687.967 0.739928 6.497 0
M  V30 5083 H 689.451 0.60668 8.36503 0
M  V30 5084 H 687.757 -0.352479 10.1829 0
M  V30 5085 H 687.567 2.00611 10.0304 0
M  V30 5086 H 685.937 1.41843 9.55327 0
M  V30 5087 H 688.576 -1.95734 6.03555 0
M  V30 5088 P 690.433 -1.25109 8.70152 0
M  V30 5089 O 691.855 -1.35274 9.21221 0
M  V30 5090 O 690.073 -0.0769065 7.84762 0
M  V30 5091 O 690.11 -2.55232 7.81161 0
M  V30 5092 C 689.95 -3.79939 8.58154 0
M  V30 5093 C 690.49 -4.94023 7.72785 0
M  V30 5094 O 689.434 -5.18726 6.91205 0
M  V30 5095 C 691.708 -4.69597 6.85231 0
M  V30 5096 O 692.446 -5.83832 6.51337 0
M  V30 5097 C 691.039 -3.96706 5.66633 0
M  V30 5098 O 691.838 -4.15414 4.49689 0
M  V30 5099 C 689.702 -4.66153 5.59313 0
M  V30 5100 H 689.734 -5.47679 4.85214 0
M  V30 5101 H 690.917 -2.89008 5.86566 0
M  V30 5102 H 692.401 -4.0121 7.36511 0
M  V30 5103 H 690.707 -5.80182 8.37584 0
M  V30 5104 H 690.517 -3.73517 9.52265 0
M  V30 5105 H 688.887 -3.97163 8.80359 0
M  V30 5106 H 691.526 -4.90969 4.01921 0
M  V30 5107 P 693.384 -5.75688 6.64379 0
M  V30 5108 O 694.806 -6.11981 7.01997 0
M  V30 5109 O 693.024 -4.30744 6.56026 0
M  V30 5110 O 693.061 -6.37042 5.19165 0
M  V30 5111 C 692.901 -7.83578 5.16515 0
M  V30 5112 C 693.441 -8.33307 3.82977 0
M  V30 5113 O 692.386 -8.10074 3.01034 0
M  V30 5114 C 694.659 -7.65514 3.2257 0
M  V30 5115 O 695.397 -8.4329 2.32297 0
M  V30 5116 C 693.991 -6.40075 2.62207 0
M  V30 5117 O 694.789 -5.92492 1.53687 0
M  V30 5118 C 692.653 -6.9454 2.18503 0
M  V30 5119 N 691.61 -5.95905 2.39948 0
M  V30 5120 C 691.672 -5.13994 3.44742 0
M  V30 5121 N 690.627 -4.30684 3.46712 0
M  V30 5122 C 689.893 -4.65583 2.41086 0
M  V30 5123 C 688.587 -4.20877 1.99581 0
M  V30 5124 O 687.854 -3.35913 2.52616 0
M  V30 5125 N 688.157 -4.83271 0.873406 0
M  V30 5126 C 688.906 -5.82006 0.185129 0
M  V30 5127 N 688.309 -6.30619 -0.95439 0
M  V30 5128 N 690.059 -6.28443 0.578524 0
M  V30 5129 C 690.516 -5.68486 1.70138 0
M  V30 5130 H 692.685 -7.23063 1.12091 0
M  V30 5131 H 693.868 -5.60165 3.3715 0
M  V30 5132 H 695.353 -7.3611 4.01946 0
M  V30 5133 H 693.658 -9.40912 3.9095 0
M  V30 5134 H 693.468 -8.29056 5.99158 0
M  V30 5135 H 691.837 -8.10073 5.25882 0
M  V30 5136 H 687.261 -4.58323 0.505262 0
M  V30 5137 H 692.468 -5.14564 4.1935 0
M  V30 5138 H 687.398 -5.93402 -1.25364 0
M  V30 5139 H 688.774 -7.0425 -1.50254 0
M  V30 5140 H 694.478 -6.30224 0.72668 0
M  V30 5141 P 696.335 -8.4349 2.47671 0
M  V30 5142 O 697.757 -8.94359 2.59696 0
M  V30 5143 O 695.975 -7.1704 3.19006 0
M  V30 5144 O 696.012 -8.16596 0.923387 0
M  V30 5145 C 695.852 -9.38437 0.108857 0
M  V30 5146 C 696.392 -9.08076 -1.28339 0
M  V30 5147 O 695.337 -8.44229 -1.84713 0
M  V30 5148 C 697.61 -8.18386 -1.42505 0
M  V30 5149 O 698.348 -8.3501 -2.60497 0
M  V30 5150 C 696.942 -6.80225 -1.25468 0
M  V30 5151 O 697.74 -5.81526 -1.91035 0
M  V30 5152 C 695.604 -7.02416 -1.9168 0
M  V30 5153 N 694.561 -6.31033 -1.20314 0
M  V30 5154 C 694.623 -6.18781 0.121293 0
M  V30 5155 N 693.578 -5.49762 0.588272 0
M  V30 5156 C 692.844 -5.22015 -0.488988 0
M  V30 5157 C 691.538 -4.61966 -0.596448 0
M  V30 5158 O 690.805 -4.19162 0.309059 0
M  V30 5159 N 691.108 -4.53773 -1.878 0
M  V30 5160 C 691.857 -4.99623 -2.99082 0
M  V30 5161 N 691.26 -4.78912 -4.21227 0
M  V30 5162 N 693.01 -5.59957 -2.91093 0
M  V30 5163 C 693.467 -5.70225 -1.64218 0
M  V30 5164 H 695.636 -6.6888 -2.96621 0
M  V30 5165 H 696.819 -6.53517 -0.192194 0
M  V30 5166 H 698.304 -8.36563 -0.598329 0
M  V30 5167 H 696.609 -10.0291 -1.79807 0
M  V30 5168 H 696.419 -10.2138 0.558219 0
M  V30 5169 H 694.788 -9.6579 0.0444202 0
M  V30 5170 H 690.212 -4.12883 -2.05283 0
M  V30 5171 H 695.419 -6.59596 0.745856 0
M  V30 5172 H 690.349 -4.31425 -4.2628 0
M  V30 5173 H 691.725 -5.11219 -5.07148 0
M  V30 5174 H 697.429 -5.69466 -2.79593 0
M  V30 5175 P 699.285 -8.4349 -2.47671 0
M  V30 5176 O 700.706 -8.92689 -2.65029 0
M  V30 5177 O 698.925 -7.7568 -1.19296 0
M  V30 5178 O 698.962 -7.36886 -3.63805 0
M  V30 5179 C 698.801 -7.95433 -4.98253 0
M  V30 5180 C 699.342 -6.94612 -5.98974 0
M  V30 5181 O 698.287 -6.10277 -6.11744 0
M  V30 5182 C 700.56 -6.11426 -5.62335 0
M  V30 5183 O 701.298 -5.6162 -6.70584 0
M  V30 5184 C 699.892 -5.04409 -4.73308 0
M  V30 5185 O 700.69 -3.86404 -4.74719 0
M  V30 5186 C 698.554 -4.8728 -5.41006 0
M  V30 5187 N 697.511 -4.65812 -4.42377 0
M  V30 5188 C 697.68 -5.09132 -3.15382 0
M  V30 5189 N 696.653 -4.84021 -2.3716 0
M  V30 5190 C 695.768 -4.18386 -3.20441 0
M  V30 5191 C 694.501 -3.6275 -2.94905 0
M  V30 5192 N 693.936 -3.05008 -4.05243 0
M  V30 5193 C 694.538 -2.98348 -5.28159 0
M  V30 5194 N 695.715 -3.48171 -5.56333 0
M  V30 5195 C 696.29 -4.06869 -4.47212 0
M  V30 5196 H 699.769 -5.39013 -3.70026 0
M  V30 5197 H 701.252 -6.71916 -5.01943 0
M  V30 5198 H 699.558 -7.45796 -6.94223 0
M  V30 5199 H 699.368 -8.89416 -5.05237 0
M  V30 5200 H 697.738 -8.14876 -5.18409 0
M  V30 5201 H 698.58 -5.59989 -2.81362 0
M  V30 5202 H 700.378 -3.27906 -5.43085 0
M  V30 5203 P 702.236 -5.75688 -6.64379 0
M  V30 5204 O 703.658 -6.07627 -7.05504 0
M  V30 5205 O 701.876 -5.88047 -5.19722 0
M  V30 5206 O 701.913 -4.2322 -7.04443 0
M  V30 5207 C 701.753 -3.99743 -8.4911 0
M  V30 5208 C 702.293 -2.60516 -8.79425 0
M  V30 5209 O 701.237 -1.82684 -8.4467 0
M  V30 5210 C 703.511 -2.10343 -8.03628 0
M  V30 5211 O 704.249 -1.09919 -8.67766 0
M  V30 5212 C 702.842 -1.68446 -6.70876 0
M  V30 5213 O 703.641 -0.678137 -6.08433 0
M  V30 5214 C 701.505 -1.17436 -7.18567 0
M  V30 5215 H 701.537 -0.0804732 -7.31656 0
M  V30 5216 H 702.72 -2.54037 -6.02537 0
M  V30 5217 H 704.204 -2.93881 -7.85526 0
M  V30 5218 H 702.51 -2.53065 -9.86973 0
M  V30 5219 H 702.32 -4.75072 -9.05887 0
M  V30 5220 H 700.69 -4.05244 -8.76668 0
M  V30 5221 H 703.329 0.177647 -6.34251 0
M  V30 5222 P 705.186 -1.25109 -8.70152 0
M  V30 5223 O 706.608 -1.29744 -9.22016 0
M  V30 5224 O 704.826 -2.13714 -7.55141 0
M  V30 5225 O 704.863 0.248149 -8.21425 0
M  V30 5226 C 704.703 1.22779 -9.30434 0
M  V30 5227 C 705.243 2.56293 -8.80664 0
M  V30 5228 O 704.187 3.02979 -8.09349 0
M  V30 5229 C 706.461 2.57523 -7.89775 0
M  V30 5230 O 707.199 3.7668 -7.89438 0
M  V30 5231 C 705.792 2.20997 -6.55446 0
M  V30 5232 O 706.591 2.71895 -5.48509 0
M  V30 5233 C 704.455 2.89693 -6.67988 0
M  V30 5234 H 704.487 3.88793 -6.19859 0
M  V30 5235 H 705.67 1.12046 -6.44229 0
M  V30 5236 H 707.154 1.7746 -8.19711 0
M  V30 5237 H 705.46 3.20706 -9.67112 0
M  V30 5238 H 705.27 0.901032 -10.1892 0
M  V30 5239 H 703.64 1.33049 -9.56592 0
M  V30 5240 H 706.279 3.57847 -5.23962 0
M  V30 5241 P 708.137 3.65191 -7.99657 0
M  V30 5242 O 709.559 3.89332 -8.45794 0
M  V30 5243 O 707.777 2.28472 -7.50807 0
M  V30 5244 O 707.814 4.64972 -6.77611 0
M  V30 5245 C 707.654 6.06319 -7.16352 0
M  V30 5246 C 708.194 6.91731 -6.02299 0
M  V30 5247 O 707.138 6.92449 -5.17064 0
M  V30 5248 C 709.412 6.43627 -5.25174 0
M  V30 5249 O 710.15 7.43686 -4.60469 0
M  V30 5250 C 708.743 5.40275 -4.31916 0
M  V30 5251 O 709.542 5.25279 -3.14438 0
M  V30 5252 C 707.406 6.04847 -4.05327 0
M  V30 5253 H 707.438 6.62195 -3.11261 0
M  V30 5254 H 708.621 4.42556 -4.81383 0
M  V30 5255 H 710.105 5.92458 -5.93643 0
M  V30 5256 H 708.411 7.92655 -6.402 0
M  V30 5257 H 708.221 6.26671 -8.0846 0
M  V30 5258 H 706.591 6.29101 -7.32804 0
M  V30 5259 H 709.23 5.84315 -2.47318 0
M  V30 5260 P 711.087 7.39546 -4.75277 0
M  V30 5261 O 712.509 7.84798 -5.01039 0
M  V30 5262 O 710.727 5.9812 -5.08098 0
M  V30 5263 O 710.764 7.57503 -3.1866 0
M  V30 5264 C 710.604 8.97357 -2.74833 0
M  V30 5265 C 711.144 9.07548 -1.32709 0
M  V30 5266 O 710.088 8.62072 -0.606159 0
M  V30 5267 C 712.362 8.25383 -0.938334 0
M  V30 5268 O 713.1 8.74577 0.146954 0
M  V30 5269 C 711.693 6.8802 -0.712559 0
M  V30 5270 O 712.492 6.1189 0.194655 0
M  V30 5271 C 710.356 7.27966 -0.139777 0
M  V30 5272 H 710.388 7.25354 0.961601 0
M  V30 5273 H 711.571 6.32557 -1.65702 0
M  V30 5274 H 713.055 8.19355 -1.79097 0
M  V30 5275 H 711.361 10.1294 -1.10029 0
M  V30 5276 H 711.171 9.64276 -3.41316 0
M  V30 5277 H 709.541 9.25417 -2.76357 0
M  V30 5278 H 712.18 6.25267 1.07847 0
M  V30 5279 P 714.038 8.791 5.07466e-12 0
M  V30 5280 O 715.46 9.31096 0.027933 0
M  V30 5281 O 713.678 7.77869 -1.04071 0
M  V30 5282 O 713.715 8.09533 1.41463 0
M  V30 5283 C 713.555 9.0349 2.53943 0
M  V30 5284 C 714.095 8.35226 3.79016 0
M  V30 5285 O 713.039 7.57992 4.15078 0
M  V30 5286 C 715.313 7.45087 3.67298 0
M  V30 5287 O 716.051 7.27796 4.85194 0
M  V30 5288 C 714.644 6.17323 3.12027 0
M  V30 5289 O 715.443 5.04231 3.47188 0
M  V30 5290 C 713.307 6.19961 3.81809 0
M  V30 5291 H 713.339 5.58218 4.73051 0
M  V30 5292 H 714.522 6.21726 2.02589 0
M  V30 5293 H 716.006 7.86112 2.9231 0
M  V30 5294 H 714.312 9.11627 4.55076 0
M  V30 5295 H 714.122 9.9573 2.34194 0
M  V30 5296 H 712.492 9.2792 2.67832 0
M  V30 5297 H 715.131 4.67702 4.28772 0
M  V30 5298 P 716.989 7.39546 4.75277 0
M  V30 5299 O 718.411 7.81777 5.05738 0
M  V30 5300 O 716.629 7.1065 3.32998 0
M  V30 5301 O 716.666 6.04542 5.56673 0
M  V30 5302 C 716.506 6.22772 7.02095 0
M  V30 5303 C 717.046 4.97725 7.70406 0
M  V30 5304 O 715.99 4.13256 7.58987 0
M  V30 5305 C 718.264 4.28231 7.11815 0
M  V30 5306 O 719.002 3.49945 8.01648 0
M  V30 5307 C 717.595 3.5063 5.96244 0
M  V30 5308 O 718.394 2.36482 5.64681 0
M  V30 5309 C 716.258 3.15122 6.56374 0
M  V30 5310 H 716.29 2.13853 6.99751 0
M  V30 5311 H 717.473 4.13501 5.06559 0
M  V30 5312 H 718.957 5.03285 6.70911 0
M  V30 5313 H 717.263 5.20877 8.75697 0
M  V30 5314 H 717.073 7.11046 7.35349 0
M  V30 5315 H 715.443 6.35815 7.26986 0
M  V30 5316 H 718.082 1.61644 6.13565 0
M  V30 5317 P 719.939 3.65191 7.99657 0
M  V30 5318 O 721.361 3.8425 8.48115 0
M  V30 5319 O 719.579 4.17805 6.64342 0
M  V30 5320 O 719.616 2.07613 7.95143 0
M  V30 5321 C 719.456 1.44328 9.27336 0
M  V30 5322 C 719.996 0.0220036 9.17197 0
M  V30 5323 O 718.94 -0.626867 8.61923 0
M  V30 5324 C 721.214 -0.24586 8.30336 0
M  V30 5325 O 721.952 -1.39011 8.63583 0
M  V30 5326 C 720.545 -0.273849 6.91158 0
M  V30 5327 O 721.344 -1.06348 6.02892 0
M  V30 5328 C 719.208 -0.897649 7.22545 0
M  V30 5329 H 719.24 -1.9841 7.04286 0
M  V30 5330 H 720.423 0.739928 6.497 0
M  V30 5331 H 721.907 0.60668 8.36503 0
M  V30 5332 H 720.213 -0.352479 10.1829 0
M  V30 5333 H 720.023 2.00611 10.0304 0
M  V30 5334 H 718.393 1.41843 9.55327 0
M  V30 5335 H 721.032 -1.95734 6.03555 0
M  V30 5336 P 722.89 -1.25109 8.70152 0
M  V30 5337 O 724.312 -1.35274 9.21221 0
M  V30 5338 O 722.53 -0.0769065 7.84762 0
M  V30 5339 O 722.567 -2.55232 7.81161 0
M  V30 5340 C 722.407 -3.79939 8.58154 0
M  V30 5341 C 722.947 -4.94023 7.72785 0
M  V30 5342 O 721.891 -5.18726 6.91205 0
M  V30 5343 C 724.165 -4.69597 6.85231 0
M  V30 5344 O 724.903 -5.83832 6.51337 0
M  V30 5345 C 723.496 -3.96706 5.66633 0
M  V30 5346 O 724.295 -4.15414 4.49689 0
M  V30 5347 C 722.159 -4.66153 5.59313 0
M  V30 5348 H 722.191 -5.47679 4.85214 0
M  V30 5349 H 723.374 -2.89008 5.86566 0
M  V30 5350 H 724.858 -4.0121 7.36511 0
M  V30 5351 H 723.164 -5.80182 8.37584 0
M  V30 5352 H 722.974 -3.73517 9.52265 0
M  V30 5353 H 721.344 -3.97163 8.80359 0
M  V30 5354 H 723.983 -4.90969 4.01921 0
M  V30 5355 P 725.84 -5.75688 6.64379 0
M  V30 5356 O 727.262 -6.11849 7.01846 0
M  V30 5357 O 725.48 -4.30744 6.56026 0
M  V30 5358 O 725.517 -6.37042 5.19165 0
M  V30 5359 C 725.357 -7.83578 5.16515 0
M  V30 5360 C 725.897 -8.33398 3.83019 0
M  V30 5361 O 724.841 -8.10074 3.01034 0
M  V30 5362 C 727.115 -7.65514 3.2257 0
M  V30 5363 O 727.853 -8.4329 2.32297 0
M  V30 5364 C 726.446 -6.40075 2.62207 0
M  V30 5365 O 727.245 -5.92589 1.53712 0
M  V30 5366 C 725.109 -6.9454 2.18503 0
M  V30 5367 H 725.141 -7.23063 1.12091 0
M  V30 5368 H 726.324 -5.6025 3.37201 0
M  V30 5369 H 727.808 -7.35707 4.02681 0
M  V30 5370 H 726.114 -9.40912 3.9095 0
M  V30 5371 H 725.924 -8.29056 5.99158 0
M  V30 5372 H 724.294 -8.10073 5.25882 0
M  V30 5373 H 726.933 -6.30324 0.726794 0
M  V30 5374 P 728.791 -8.4349 2.47671 0
M  V30 5375 O 730.213 -8.94167 2.5964 0
M  V30 5376 O 728.431 -7.1704 3.19006 0
M  V30 5377 O 728.468 -8.16596 0.923387 0
M  V30 5378 C 728.308 -9.38437 0.108857 0
M  V30 5379 C 728.848 -9.08175 -1.28353 0
M  V30 5380 O 727.792 -8.44229 -1.84713 0
M  V30 5381 C 730.066 -8.18386 -1.42505 0
M  V30 5382 O 730.804 -8.3501 -2.60497 0
M  V30 5383 C 729.397 -6.80225 -1.25468 0
M  V30 5384 O 730.196 -5.81621 -1.91066 0
M  V30 5385 C 728.06 -7.02416 -1.9168 0
M  V30 5386 H 728.092 -6.6888 -2.96621 0
M  V30 5387 H 729.275 -6.53617 -0.192223 0
M  V30 5388 H 730.759 -8.36622 -0.589963 0
M  V30 5389 H 729.065 -10.0291 -1.79807 0
M  V30 5390 H 728.875 -10.2138 0.558219 0
M  V30 5391 H 727.245 -9.6579 0.0444202 0
M  V30 5392 H 729.884 -5.69556 -2.79637 0
M  V30 5393 P 731.741 -8.4349 -2.47671 0
M  V30 5394 O 733.163 -8.92593 -2.65 0
M  V30 5395 O 731.381 -7.7568 -1.19296 0
M  V30 5396 O 731.418 -7.36886 -3.63805 0
M  V30 5397 C 731.258 -7.95349 -4.982 0
M  V30 5398 C 731.798 -6.94612 -5.98974 0
M  V30 5399 O 730.742 -6.10347 -6.11815 0
M  V30 5400 C 733.016 -6.11426 -5.62335 0
M  V30 5401 O 733.754 -5.6162 -6.70584 0
M  V30 5402 C 732.347 -5.04409 -4.73308 0
M  V30 5403 O 733.146 -3.85992 -4.75183 0
M  V30 5404 C 731.01 -4.8728 -5.41006 0
M  V30 5405 H 731.042 -4.02333 -6.11157 0
M  V30 5406 H 732.225 -5.39466 -3.69543 0
M  V30 5407 H 733.709 -6.71916 -5.01943 0
M  V30 5408 H 732.015 -7.4649 -6.93477 0
M  V30 5409 H 731.825 -8.89416 -5.05237 0
M  V30 5410 H 730.195 -8.14876 -5.18409 0
M  V30 5411 H 732.834 -3.27957 -5.4317 0
M  V30 5412 P 734.692 -5.75688 -6.64379 0
M  V30 5413 O 736.113 -6.07692 -7.0558 0
M  V30 5414 O 734.332 -5.88047 -5.19722 0
M  V30 5415 O 734.369 -4.2322 -7.04443 0
M  V30 5416 C 734.208 -3.99785 -8.49201 0
M  V30 5417 C 734.749 -2.60516 -8.79425 0
M  V30 5418 O 733.694 -1.82663 -8.44573 0
M  V30 5419 C 735.967 -2.10343 -8.03628 0
M  V30 5420 O 736.705 -1.09919 -8.67766 0
M  V30 5421 C 735.299 -1.68446 -6.70876 0
M  V30 5422 O 736.097 -0.684109 -6.08265 0
M  V30 5423 C 733.961 -1.17436 -7.18567 0
M  V30 5424 N 732.918 -1.52699 -6.23988 0
M  V30 5425 C 733.087 -2.578 -5.40574 0
M  V30 5426 N 732.06 -2.78966 -4.61193 0
M  V30 5427 C 731.175 -1.78725 -4.95769 0
M  V30 5428 C 729.908 -1.45727 -4.44207 0
M  V30 5429 N 729.343 -0.374977 -5.05812 0
M  V30 5430 C 729.945 0.345585 -6.05615 0
M  V30 5431 N 731.122 0.0787651 -6.56253 0
M  V30 5432 C 731.697 -1.00499 -5.96189 0
M  V30 5433 H 735.176 -2.53396 -6.02698 0
M  V30 5434 H 736.659 -2.93881 -7.85526 0
M  V30 5435 H 734.965 -2.52078 -9.87225 0
M  V30 5436 H 734.775 -4.75072 -9.05887 0
M  V30 5437 H 733.145 -4.05244 -8.76668 0
M  V30 5438 H 733.987 -3.18977 -5.3945 0
M  V30 5439 H 735.785 0.177619 -6.34151 0
M  V30 5440 P 737.643 -1.25109 -8.70152 0
M  V30 5441 O 739.065 -1.29744 -9.22016 0
M  V30 5442 O 737.283 -2.13714 -7.55141 0
M  V30 5443 O 737.32 0.248149 -8.21425 0
M  V30 5444 C 737.16 1.22779 -9.30434 0
M  V30 5445 C 737.7 2.56293 -8.80664 0
M  V30 5446 O 736.644 3.02979 -8.09349 0
M  V30 5447 C 738.918 2.57523 -7.89775 0
M  V30 5448 O 739.656 3.7668 -7.89438 0
M  V30 5449 C 738.249 2.20997 -6.55446 0
M  V30 5450 O 739.048 2.71895 -5.48509 0
M  V30 5451 C 736.912 2.89693 -6.67988 0
M  V30 5452 H 736.944 3.88793 -6.19859 0
M  V30 5453 H 738.127 1.12046 -6.44229 0
M  V30 5454 H 739.611 1.7746 -8.19711 0
M  V30 5455 H 737.917 3.20706 -9.67112 0
M  V30 5456 H 737.726 0.901032 -10.1892 0
M  V30 5457 H 736.096 1.33049 -9.56592 0
M  V30 5458 H 738.736 3.57847 -5.23962 0
M  V30 5459 P 740.593 3.65191 -7.99657 0
M  V30 5460 O 742.015 3.89332 -8.45794 0
M  V30 5461 O 740.233 2.28472 -7.50807 0
M  V30 5462 O 740.27 4.64972 -6.77611 0
M  V30 5463 C 740.11 6.06319 -7.16352 0
M  V30 5464 C 740.65 6.91731 -6.02299 0
M  V30 5465 O 739.594 6.92449 -5.17064 0
M  V30 5466 C 741.868 6.43627 -5.25174 0
M  V30 5467 O 742.606 7.43686 -4.60469 0
M  V30 5468 C 741.199 5.40275 -4.31916 0
M  V30 5469 O 741.998 5.25279 -3.14438 0
M  V30 5470 C 739.862 6.04847 -4.05327 0
M  V30 5471 H 739.894 6.62195 -3.11261 0
M  V30 5472 H 741.077 4.42556 -4.81383 0
M  V30 5473 H 742.561 5.92458 -5.93643 0
M  V30 5474 H 740.867 7.92655 -6.402 0
M  V30 5475 H 740.677 6.26671 -8.0846 0
M  V30 5476 H 739.047 6.29101 -7.32804 0
M  V30 5477 H 741.686 5.84315 -2.47318 0
M  V30 5478 P 743.544 7.39546 -4.75277 0
M  V30 5479 O 744.966 7.84798 -5.01039 0
M  V30 5480 O 743.184 5.9812 -5.08098 0
M  V30 5481 O 743.221 7.57503 -3.1866 0
M  V30 5482 C 743.061 8.97357 -2.74833 0
M  V30 5483 C 743.601 9.07548 -1.32709 0
M  V30 5484 O 742.545 8.62072 -0.606159 0
M  V30 5485 C 744.819 8.25383 -0.938334 0
M  V30 5486 O 745.557 8.74577 0.146954 0
M  V30 5487 C 744.15 6.8802 -0.712559 0
M  V30 5488 O 744.949 6.1189 0.194655 0
M  V30 5489 C 742.813 7.27966 -0.139777 0
M  V30 5490 H 742.845 7.25354 0.961601 0
M  V30 5491 H 744.028 6.32557 -1.65702 0
M  V30 5492 H 745.512 8.19355 -1.79097 0
M  V30 5493 H 743.818 10.1294 -1.10029 0
M  V30 5494 H 743.628 9.64276 -3.41316 0
M  V30 5495 H 741.998 9.25417 -2.76357 0
M  V30 5496 H 744.637 6.25267 1.07847 0
M  V30 5497 P 746.494 8.791 5.38483e-12 0
M  V30 5498 O 747.916 9.31096 0.027933 0
M  V30 5499 O 746.134 7.77869 -1.04071 0
M  V30 5500 O 746.171 8.09533 1.41463 0
M  V30 5501 C 746.011 9.0349 2.53943 0
M  V30 5502 C 746.551 8.35226 3.79016 0
M  V30 5503 O 745.495 7.57992 4.15078 0
M  V30 5504 C 747.769 7.45087 3.67298 0
M  V30 5505 O 748.507 7.27796 4.85194 0
M  V30 5506 C 747.1 6.17323 3.12027 0
M  V30 5507 O 747.899 5.04231 3.47188 0
M  V30 5508 C 745.763 6.19961 3.81809 0
M  V30 5509 H 745.795 5.58218 4.73051 0
M  V30 5510 H 746.978 6.21726 2.02589 0
M  V30 5511 H 748.462 7.86112 2.9231 0
M  V30 5512 H 746.768 9.11627 4.55076 0
M  V30 5513 H 746.578 9.9573 2.34194 0
M  V30 5514 H 744.948 9.2792 2.67832 0
M  V30 5515 H 747.587 4.67702 4.28772 0
M  V30 5516 P 749.445 7.39546 4.75277 0
M  V30 5517 O 750.867 7.81777 5.05738 0
M  V30 5518 O 749.085 7.1065 3.32998 0
M  V30 5519 O 749.122 6.04542 5.56673 0
M  V30 5520 C 748.962 6.22772 7.02095 0
M  V30 5521 C 749.502 4.97725 7.70406 0
M  V30 5522 O 748.446 4.13256 7.58987 0
M  V30 5523 C 750.72 4.28231 7.11815 0
M  V30 5524 O 751.458 3.49945 8.01648 0
M  V30 5525 C 750.051 3.5063 5.96244 0
M  V30 5526 O 750.85 2.36482 5.64681 0
M  V30 5527 C 748.714 3.15122 6.56374 0
M  V30 5528 H 748.746 2.13853 6.99751 0
M  V30 5529 H 749.929 4.13501 5.06559 0
M  V30 5530 H 751.413 5.03285 6.70911 0
M  V30 5531 H 749.719 5.20877 8.75697 0
M  V30 5532 H 749.529 7.11046 7.35349 0
M  V30 5533 H 747.899 6.35815 7.26986 0
M  V30 5534 H 750.538 1.61644 6.13565 0
M  V30 5535 P 752.395 3.65191 7.99657 0
M  V30 5536 O 753.817 3.8425 8.48115 0
M  V30 5537 O 752.035 4.17805 6.64342 0
M  V30 5538 O 752.072 2.07613 7.95143 0
M  V30 5539 C 751.912 1.44328 9.27336 0
M  V30 5540 C 752.452 0.0220036 9.17197 0
M  V30 5541 O 751.396 -0.626867 8.61923 0
M  V30 5542 C 753.67 -0.24586 8.30336 0
M  V30 5543 O 754.408 -1.39011 8.63583 0
M  V30 5544 C 753.001 -0.273849 6.91158 0
M  V30 5545 O 753.8 -1.06348 6.02892 0
M  V30 5546 C 751.664 -0.897649 7.22545 0
M  V30 5547 H 751.696 -1.9841 7.04286 0
M  V30 5548 H 752.879 0.739928 6.497 0
M  V30 5549 H 754.363 0.60668 8.36503 0
M  V30 5550 H 752.669 -0.352479 10.1829 0
M  V30 5551 H 752.479 2.00611 10.0304 0
M  V30 5552 H 750.849 1.41843 9.55327 0
M  V30 5553 H 753.488 -1.95734 6.03555 0
M  V30 5554 P 755.346 -1.25109 8.70152 0
M  V30 5555 O 756.767 -1.35288 9.2132 0
M  V30 5556 O 754.986 -0.0769065 7.84762 0
M  V30 5557 O 755.023 -2.55232 7.81161 0
M  V30 5558 C 754.862 -3.79979 8.58246 0
M  V30 5559 C 755.403 -4.94023 7.72785 0
M  V30 5560 O 754.348 -5.18666 6.91125 0
M  V30 5561 C 756.621 -4.69597 6.85231 0
M  V30 5562 O 757.359 -5.83832 6.51337 0
M  V30 5563 C 755.953 -3.96706 5.66633 0
M  V30 5564 O 756.751 -4.14896 4.5003 0
M  V30 5565 C 754.615 -4.66153 5.59313 0
M  V30 5566 N 753.572 -3.71582 5.24027 0
M  V30 5567 C 753.741 -2.39715 5.48833 0
M  V30 5568 N 752.714 -1.65863 5.12845 0
M  V30 5569 C 751.829 -2.57637 4.5973 0
M  V30 5570 C 750.562 -2.40278 4.01027 0
M  V30 5571 N 749.997 -3.57711 3.59575 0
M  V30 5572 C 750.599 -4.80324 3.70476 0
M  V30 5573 N 751.776 -5.01121 4.23801 0
M  V30 5574 C 752.351 -3.84757 4.66372 0
M  V30 5575 H 755.83 -2.8955 5.86187 0
M  V30 5576 H 757.313 -4.0121 7.36511 0
M  V30 5577 H 755.619 -5.81019 8.37003 0
M  V30 5578 H 755.429 -3.73517 9.52265 0
M  V30 5579 H 753.799 -3.97163 8.80359 0
M  V30 5580 H 754.641 -1.98804 5.94332 0
M  V30 5581 H 756.439 -4.90891 4.01857 0
M  V30 5582 P 758.296 -5.75688 6.64379 0
M  V30 5583 O 759.718 -6.11849 7.01846 0
M  V30 5584 O 757.936 -4.30744 6.56026 0
M  V30 5585 O 757.973 -6.37042 5.19165 0
M  V30 5586 C 757.813 -7.83578 5.16515 0
M  V30 5587 C 758.353 -8.33398 3.83019 0
M  V30 5588 O 757.297 -8.10074 3.01034 0
M  V30 5589 C 759.571 -7.65514 3.2257 0
M  V30 5590 O 760.309 -8.4329 2.32297 0
M  V30 5591 C 758.902 -6.40075 2.62207 0
M  V30 5592 O 759.701 -5.92589 1.53712 0
M  V30 5593 C 757.565 -6.9454 2.18503 0
M  V30 5594 H 757.597 -7.23063 1.12091 0
M  V30 5595 H 758.78 -5.6025 3.37201 0
M  V30 5596 H 760.264 -7.35707 4.02681 0
M  V30 5597 H 758.57 -9.40912 3.9095 0
M  V30 5598 H 758.38 -8.29056 5.99158 0
M  V30 5599 H 756.75 -8.10073 5.25882 0
M  V30 5600 H 759.389 -6.30324 0.726794 0
M  V30 5601 P 761.247 -8.4349 2.47671 0
M  V30 5602 O 762.669 -8.94167 2.5964 0
M  V30 5603 O 760.887 -7.1704 3.19006 0
M  V30 5604 O 760.924 -8.16596 0.923387 0
M  V30 5605 C 760.764 -9.38437 0.108857 0
M  V30 5606 C 761.304 -9.08175 -1.28353 0
M  V30 5607 O 760.248 -8.44229 -1.84713 0
M  V30 5608 C 762.522 -8.18386 -1.42505 0
M  V30 5609 O 763.26 -8.3501 -2.60497 0
M  V30 5610 C 761.853 -6.80225 -1.25468 0
M  V30 5611 O 762.652 -5.81621 -1.91066 0
M  V30 5612 C 760.516 -7.02416 -1.9168 0
M  V30 5613 H 760.548 -6.6888 -2.96621 0
M  V30 5614 H 761.731 -6.53617 -0.192223 0
M  V30 5615 H 763.215 -8.36622 -0.589963 0
M  V30 5616 H 761.521 -10.0291 -1.79807 0
M  V30 5617 H 761.331 -10.2138 0.558219 0
M  V30 5618 H 759.701 -9.6579 0.0444202 0
M  V30 5619 H 762.34 -5.69556 -2.79637 0
M  V30 5620 P 764.198 -8.4349 -2.47671 0
M  V30 5621 O 765.62 -8.92593 -2.65 0
M  V30 5622 O 763.838 -7.7568 -1.19296 0
M  V30 5623 O 763.875 -7.36886 -3.63805 0
M  V30 5624 C 763.715 -7.95349 -4.982 0
M  V30 5625 C 764.255 -6.94612 -5.98974 0
M  V30 5626 O 763.199 -6.10347 -6.11815 0
M  V30 5627 C 765.473 -6.11426 -5.62335 0
M  V30 5628 O 766.211 -5.6162 -6.70584 0
M  V30 5629 C 764.804 -5.04409 -4.73308 0
M  V30 5630 O 765.603 -3.85992 -4.75183 0
M  V30 5631 C 763.467 -4.8728 -5.41006 0
M  V30 5632 H 763.499 -4.02333 -6.11157 0
M  V30 5633 H 764.682 -5.39466 -3.69543 0
M  V30 5634 H 766.166 -6.71916 -5.01943 0
M  V30 5635 H 764.472 -7.4649 -6.93477 0
M  V30 5636 H 764.282 -8.89416 -5.05237 0
M  V30 5637 H 762.652 -8.14876 -5.18409 0
M  V30 5638 H 765.291 -3.27957 -5.4317 0
M  V30 5639 P 767.148 -5.75688 -6.64379 0
M  V30 5640 O 768.57 -6.07627 -7.05504 0
M  V30 5641 O 766.788 -5.88047 -5.19722 0
M  V30 5642 O 766.825 -4.2322 -7.04443 0
M  V30 5643 C 766.665 -3.99743 -8.4911 0
M  V30 5644 C 767.205 -2.60516 -8.79425 0
M  V30 5645 O 766.149 -1.82684 -8.4467 0
M  V30 5646 C 768.423 -2.10343 -8.03628 0
M  V30 5647 O 769.161 -1.09919 -8.67766 0
M  V30 5648 C 767.754 -1.68446 -6.70876 0
M  V30 5649 O 768.553 -0.678137 -6.08433 0
M  V30 5650 C 766.417 -1.17436 -7.18567 0
M  V30 5651 H 766.449 -0.0804732 -7.31656 0
M  V30 5652 H 767.632 -2.54037 -6.02537 0
M  V30 5653 H 769.116 -2.93881 -7.85526 0
M  V30 5654 H 767.422 -2.53065 -9.86973 0
M  V30 5655 H 767.232 -4.75072 -9.05887 0
M  V30 5656 H 765.602 -4.05244 -8.76668 0
M  V30 5657 H 768.241 0.177647 -6.34251 0
M  V30 5658 P 770.099 -1.25109 -8.70152 0
M  V30 5659 O 771.521 -1.29744 -9.22016 0
M  V30 5660 O 769.739 -2.13714 -7.55141 0
M  V30 5661 O 769.776 0.248149 -8.21425 0
M  V30 5662 C 769.616 1.22779 -9.30434 0
M  V30 5663 C 770.156 2.56293 -8.80664 0
M  V30 5664 O 769.1 3.02979 -8.09349 0
M  V30 5665 C 771.374 2.57523 -7.89775 0
M  V30 5666 O 772.112 3.7668 -7.89438 0
M  V30 5667 C 770.705 2.20997 -6.55446 0
M  V30 5668 O 771.504 2.71895 -5.48509 0
M  V30 5669 C 769.368 2.89693 -6.67988 0
M  V30 5670 H 769.4 3.88793 -6.19859 0
M  V30 5671 H 770.583 1.12046 -6.44229 0
M  V30 5672 H 772.067 1.7746 -8.19711 0
M  V30 5673 H 770.373 3.20706 -9.67112 0
M  V30 5674 H 770.183 0.901032 -10.1892 0
M  V30 5675 H 768.553 1.33049 -9.56592 0
M  V30 5676 H 771.192 3.57847 -5.23962 0
M  V30 5677 P 773.049 3.65191 -7.99657 0
M  V30 5678 O 774.47 3.89374 -8.45885 0
M  V30 5679 O 772.689 2.28472 -7.50807 0
M  V30 5680 O 772.726 4.64972 -6.77611 0
M  V30 5681 C 772.565 6.06383 -7.16428 0
M  V30 5682 C 773.106 6.91731 -6.02299 0
M  V30 5683 O 772.051 6.92369 -5.17005 0
M  V30 5684 C 774.324 6.43627 -5.25174 0
M  V30 5685 O 775.062 7.43686 -4.60469 0
M  V30 5686 C 773.656 5.40275 -4.31916 0
M  V30 5687 O 774.454 5.24878 -3.14911 0
M  V30 5688 C 772.318 6.04847 -4.05327 0
M  V30 5689 N 771.275 5.04166 -3.98114 0
M  V30 5690 C 771.444 3.84629 -4.59066 0
M  V30 5691 N 770.417 3.0363 -4.45343 0
M  V30 5692 C 769.532 3.76722 -3.68523 0
M  V30 5693 C 768.265 3.43528 -3.17088 0
M  V30 5694 N 767.7 4.44526 -2.44231 0
M  V30 5695 C 768.302 5.65243 -2.20146 0
M  V30 5696 N 769.479 6.00221 -2.65453 0
M  V30 5697 C 770.054 5.00564 -3.39083 0
M  V30 5698 H 773.533 4.42969 -4.80867 0
M  V30 5699 H 775.016 5.92458 -5.93643 0
M  V30 5700 H 773.322 7.93295 -6.39407 0
M  V30 5701 H 773.132 6.26671 -8.0846 0
M  V30 5702 H 771.502 6.29101 -7.32804 0
M  V30 5703 H 772.344 3.58193 -5.14248 0
M  V30 5704 H 774.142 5.84223 -2.47279 0
M  V30 5705 P 776 7.39546 -4.75277 0
M  V30 5706 O 777.422 7.84798 -5.01039 0
M  V30 5707 O 775.64 5.9812 -5.08098 0
M  V30 5708 O 775.677 7.57503 -3.1866 0
M  V30 5709 C 775.517 8.97357 -2.74833 0
M  V30 5710 C 776.057 9.07548 -1.32709 0
M  V30 5711 O 775.001 8.62072 -0.606159 0
M  V30 5712 C 777.275 8.25383 -0.938334 0
M  V30 5713 O 778.013 8.74577 0.146954 0
M  V30 5714 C 776.606 6.8802 -0.712559 0
M  V30 5715 O 777.405 6.1189 0.194655 0
M  V30 5716 C 775.269 7.27966 -0.139777 0
M  V30 5717 H 775.301 7.25354 0.961601 0
M  V30 5718 H 776.484 6.32557 -1.65702 0
M  V30 5719 H 777.968 8.19355 -1.79097 0
M  V30 5720 H 776.274 10.1294 -1.10029 0
M  V30 5721 H 776.084 9.64276 -3.41316 0
M  V30 5722 H 774.454 9.25417 -2.76357 0
M  V30 5723 H 777.093 6.25267 1.07847 0
M  V30 5724 P 778.95 8.791 5.69499e-12 0
M  V30 5725 O 780.372 9.31096 0.027933 0
M  V30 5726 O 778.59 7.77869 -1.04071 0
M  V30 5727 O 778.627 8.09533 1.41463 0
M  V30 5728 C 778.467 9.0349 2.53943 0
M  V30 5729 C 779.007 8.35226 3.79016 0
M  V30 5730 O 777.951 7.57992 4.15078 0
M  V30 5731 C 780.225 7.45087 3.67298 0
M  V30 5732 O 780.963 7.27796 4.85194 0
M  V30 5733 C 779.556 6.17323 3.12027 0
M  V30 5734 O 780.355 5.04231 3.47188 0
M  V30 5735 C 778.219 6.19961 3.81809 0
M  V30 5736 H 778.251 5.58218 4.73051 0
M  V30 5737 H 779.434 6.21726 2.02589 0
M  V30 5738 H 780.918 7.86112 2.9231 0
M  V30 5739 H 779.224 9.11627 4.55076 0
M  V30 5740 H 779.034 9.9573 2.34194 0
M  V30 5741 H 777.404 9.2792 2.67832 0
M  V30 5742 H 780.043 4.67702 4.28772 0
M  V30 5743 P 781.901 7.39546 4.75277 0
M  V30 5744 O 783.323 7.81777 5.05738 0
M  V30 5745 O 781.541 7.1065 3.32998 0
M  V30 5746 O 781.578 6.04542 5.56673 0
M  V30 5747 C 781.418 6.22772 7.02095 0
M  V30 5748 C 781.958 4.97725 7.70406 0
M  V30 5749 O 780.902 4.13256 7.58987 0
M  V30 5750 C 783.176 4.28231 7.11815 0
M  V30 5751 O 783.914 3.49945 8.01648 0
M  V30 5752 C 782.507 3.5063 5.96244 0
M  V30 5753 O 783.306 2.36482 5.64681 0
M  V30 5754 C 781.17 3.15122 6.56374 0
M  V30 5755 H 781.202 2.13853 6.99751 0
M  V30 5756 H 782.385 4.13501 5.06559 0
M  V30 5757 H 783.869 5.03285 6.70911 0
M  V30 5758 H 782.175 5.20877 8.75697 0
M  V30 5759 H 781.985 7.11046 7.35349 0
M  V30 5760 H 780.355 6.35815 7.26986 0
M  V30 5761 H 782.994 1.61644 6.13565 0
M  V30 5762 P 784.852 3.65191 7.99657 0
M  V30 5763 O 786.274 3.8425 8.48115 0
M  V30 5764 O 784.492 4.17805 6.64342 0
M  V30 5765 O 784.529 2.07613 7.95143 0
M  V30 5766 C 784.369 1.44328 9.27336 0
M  V30 5767 C 784.909 0.0220036 9.17197 0
M  V30 5768 O 783.853 -0.626867 8.61923 0
M  V30 5769 C 786.127 -0.24586 8.30336 0
M  V30 5770 O 786.865 -1.39011 8.63583 0
M  V30 5771 C 785.458 -0.273849 6.91158 0
M  V30 5772 O 786.257 -1.06348 6.02892 0
M  V30 5773 C 784.121 -0.897649 7.22545 0
M  V30 5774 H 784.153 -1.9841 7.04286 0
M  V30 5775 H 785.336 0.739928 6.497 0
M  V30 5776 H 786.82 0.60668 8.36503 0
M  V30 5777 H 785.126 -0.352479 10.1829 0
M  V30 5778 H 784.936 2.00611 10.0304 0
M  V30 5779 H 783.306 1.41843 9.55327 0
M  V30 5780 H 785.945 -1.95734 6.03555 0
M  V30 5781 P 787.802 -1.25109 8.70152 0
M  V30 5782 O 789.224 -1.35274 9.21221 0
M  V30 5783 O 787.442 -0.0769065 7.84762 0
M  V30 5784 O 787.479 -2.55232 7.81161 0
M  V30 5785 C 787.319 -3.79939 8.58154 0
M  V30 5786 C 787.859 -4.94023 7.72785 0
M  V30 5787 O 786.803 -5.18726 6.91205 0
M  V30 5788 C 789.077 -4.69597 6.85231 0
M  V30 5789 O 789.815 -5.83832 6.51337 0
M  V30 5790 C 788.408 -3.96706 5.66633 0
M  V30 5791 O 789.207 -4.15414 4.49689 0
M  V30 5792 C 787.071 -4.66153 5.59313 0
M  V30 5793 H 787.103 -5.47679 4.85214 0
M  V30 5794 H 788.286 -2.89008 5.86566 0
M  V30 5795 H 789.77 -4.0121 7.36511 0
M  V30 5796 H 788.076 -5.80182 8.37584 0
M  V30 5797 H 787.886 -3.73517 9.52265 0
M  V30 5798 H 786.256 -3.97163 8.80359 0
M  V30 5799 H 788.895 -4.90969 4.01921 0
M  V30 5800 P 790.753 -5.75688 6.64379 0
M  V30 5801 O 792.175 -6.11849 7.01846 0
M  V30 5802 O 790.393 -4.30744 6.56026 0
M  V30 5803 O 790.43 -6.37042 5.19165 0
M  V30 5804 C 790.27 -7.83578 5.16515 0
M  V30 5805 C 790.81 -8.33398 3.83019 0
M  V30 5806 O 789.754 -8.10074 3.01034 0
M  V30 5807 C 792.028 -7.65514 3.2257 0
M  V30 5808 O 792.766 -8.4329 2.32297 0
M  V30 5809 C 791.359 -6.40075 2.62207 0
M  V30 5810 O 792.158 -5.92589 1.53712 0
M  V30 5811 C 790.022 -6.9454 2.18503 0
M  V30 5812 H 790.054 -7.23063 1.12091 0
M  V30 5813 H 791.237 -5.6025 3.37201 0
M  V30 5814 H 792.721 -7.35707 4.02681 0
M  V30 5815 H 791.027 -9.40912 3.9095 0
M  V30 5816 H 790.837 -8.29056 5.99158 0
M  V30 5817 H 789.207 -8.10073 5.25882 0
M  V30 5818 H 791.846 -6.30324 0.726794 0
M  V30 5819 P 793.703 -8.4349 2.47671 0
M  V30 5820 O 795.125 -8.94167 2.5964 0
M  V30 5821 O 793.343 -7.1704 3.19006 0
M  V30 5822 O 793.38 -8.16596 0.923387 0
M  V30 5823 C 793.22 -9.38437 0.108857 0
M  V30 5824 C 793.76 -9.08175 -1.28353 0
M  V30 5825 O 792.704 -8.44229 -1.84713 0
M  V30 5826 C 794.978 -8.18386 -1.42505 0
M  V30 5827 O 795.716 -8.3501 -2.60497 0
M  V30 5828 C 794.309 -6.80225 -1.25468 0
M  V30 5829 O 795.108 -5.81621 -1.91066 0
M  V30 5830 C 792.972 -7.02416 -1.9168 0
M  V30 5831 H 793.004 -6.6888 -2.96621 0
M  V30 5832 H 794.187 -6.53617 -0.192223 0
M  V30 5833 H 795.671 -8.36622 -0.589963 0
M  V30 5834 H 793.977 -10.0291 -1.79807 0
M  V30 5835 H 793.787 -10.2138 0.558219 0
M  V30 5836 H 792.157 -9.6579 0.0444202 0
M  V30 5837 H 794.796 -5.69556 -2.79637 0
M  V30 5838 P 796.654 -8.4349 -2.47671 0
M  V30 5839 O 798.075 -8.92689 -2.65029 0
M  V30 5840 O 796.294 -7.7568 -1.19296 0
M  V30 5841 O 796.331 -7.36886 -3.63805 0
M  V30 5842 C 796.17 -7.95433 -4.98253 0
M  V30 5843 C 796.711 -6.94612 -5.98974 0
M  V30 5844 O 795.656 -6.10277 -6.11744 0
M  V30 5845 C 797.929 -6.11426 -5.62335 0
M  V30 5846 O 798.667 -5.6162 -6.70584 0
M  V30 5847 C 797.261 -5.04409 -4.73308 0
M  V30 5848 O 798.059 -3.86404 -4.74719 0
M  V30 5849 C 795.923 -4.8728 -5.41006 0
M  V30 5850 N 794.88 -4.65812 -4.42377 0
M  V30 5851 C 795.049 -5.09132 -3.15382 0
M  V30 5852 N 794.022 -4.84021 -2.3716 0
M  V30 5853 C 793.137 -4.18386 -3.20441 0
M  V30 5854 C 791.87 -3.6275 -2.94905 0
M  V30 5855 N 791.305 -3.05008 -4.05243 0
M  V30 5856 C 791.907 -2.98348 -5.28159 0
M  V30 5857 N 793.084 -3.48171 -5.56333 0
M  V30 5858 C 793.659 -4.06869 -4.47212 0
M  V30 5859 H 797.138 -5.39013 -3.70026 0
M  V30 5860 H 798.621 -6.71916 -5.01943 0
M  V30 5861 H 796.927 -7.45796 -6.94223 0
M  V30 5862 H 796.737 -8.89416 -5.05237 0
M  V30 5863 H 795.107 -8.14876 -5.18409 0
M  V30 5864 H 795.949 -5.59989 -2.81362 0
M  V30 5865 H 797.747 -3.27906 -5.43085 0
M  V30 5866 P 799.604 -5.75688 -6.64379 0
M  V30 5867 O 801.026 -6.07627 -7.05504 0
M  V30 5868 O 799.244 -5.88047 -5.19722 0
M  V30 5869 O 799.281 -4.2322 -7.04443 0
M  V30 5870 C 799.121 -3.99743 -8.4911 0
M  V30 5871 C 799.661 -2.60516 -8.79425 0
M  V30 5872 O 798.605 -1.82684 -8.4467 0
M  V30 5873 C 800.879 -2.10343 -8.03628 0
M  V30 5874 O 801.617 -1.09919 -8.67766 0
M  V30 5875 C 800.21 -1.68446 -6.70876 0
M  V30 5876 O 801.009 -0.678137 -6.08433 0
M  V30 5877 C 798.873 -1.17436 -7.18567 0
M  V30 5878 H 798.905 -0.0804732 -7.31656 0
M  V30 5879 H 800.088 -2.54037 -6.02537 0
M  V30 5880 H 801.572 -2.93881 -7.85526 0
M  V30 5881 H 799.878 -2.53065 -9.86973 0
M  V30 5882 H 799.688 -4.75072 -9.05887 0
M  V30 5883 H 798.058 -4.05244 -8.76668 0
M  V30 5884 H 800.697 0.177647 -6.34251 0
M  V30 5885 P 802.555 -1.25109 -8.70152 0
M  V30 5886 O 803.977 -1.29744 -9.22016 0
M  V30 5887 O 802.195 -2.13714 -7.55141 0
M  V30 5888 O 802.232 0.248149 -8.21425 0
M  V30 5889 C 802.072 1.22779 -9.30434 0
M  V30 5890 C 802.612 2.56293 -8.80664 0
M  V30 5891 O 801.556 3.02979 -8.09349 0
M  V30 5892 C 803.83 2.57523 -7.89775 0
M  V30 5893 O 804.568 3.7668 -7.89438 0
M  V30 5894 C 803.161 2.20997 -6.55446 0
M  V30 5895 O 803.96 2.71895 -5.48509 0
M  V30 5896 C 801.824 2.89693 -6.67988 0
M  V30 5897 H 801.856 3.88793 -6.19859 0
M  V30 5898 H 803.039 1.12046 -6.44229 0
M  V30 5899 H 804.523 1.7746 -8.19711 0
M  V30 5900 H 802.829 3.20706 -9.67112 0
M  V30 5901 H 802.639 0.901032 -10.1892 0
M  V30 5902 H 801.009 1.33049 -9.56592 0
M  V30 5903 H 803.648 3.57847 -5.23962 0
M  V30 5904 P 805.506 3.65191 -7.99657 0
M  V30 5905 O 806.928 3.89332 -8.45794 0
M  V30 5906 O 805.146 2.28472 -7.50807 0
M  V30 5907 O 805.183 4.64972 -6.77611 0
M  V30 5908 C 805.023 6.06319 -7.16352 0
M  V30 5909 C 805.563 6.91731 -6.02299 0
M  V30 5910 O 804.507 6.92449 -5.17064 0
M  V30 5911 C 806.781 6.43627 -5.25174 0
M  V30 5912 O 807.519 7.43686 -4.60469 0
M  V30 5913 C 806.112 5.40275 -4.31916 0
M  V30 5914 O 806.911 5.25279 -3.14438 0
M  V30 5915 C 804.775 6.04847 -4.05327 0
M  V30 5916 H 804.807 6.62195 -3.11261 0
M  V30 5917 H 805.99 4.42556 -4.81383 0
M  V30 5918 H 807.474 5.92458 -5.93643 0
M  V30 5919 H 805.78 7.92655 -6.402 0
M  V30 5920 H 805.59 6.26671 -8.0846 0
M  V30 5921 H 803.96 6.29101 -7.32804 0
M  V30 5922 H 806.599 5.84315 -2.47318 0
M  V30 5923 P 808.456 7.39546 -4.75277 0
M  V30 5924 O 809.878 7.84798 -5.01039 0
M  V30 5925 O 808.096 5.9812 -5.08098 0
M  V30 5926 O 808.133 7.57503 -3.1866 0
M  V30 5927 C 807.973 8.97357 -2.74833 0
M  V30 5928 C 808.513 9.07548 -1.32709 0
M  V30 5929 O 807.457 8.62072 -0.606159 0
M  V30 5930 C 809.731 8.25383 -0.938334 0
M  V30 5931 O 810.469 8.74577 0.146954 0
M  V30 5932 C 809.062 6.8802 -0.712559 0
M  V30 5933 O 809.861 6.1189 0.194655 0
M  V30 5934 C 807.725 7.27966 -0.139777 0
M  V30 5935 H 807.757 7.25354 0.961601 0
M  V30 5936 H 808.94 6.32557 -1.65702 0
M  V30 5937 H 810.424 8.19355 -1.79097 0
M  V30 5938 H 808.73 10.1294 -1.10029 0
M  V30 5939 H 808.54 9.64276 -3.41316 0
M  V30 5940 H 806.91 9.25417 -2.76357 0
M  V30 5941 H 809.549 6.25267 1.07847 0
M  V30 5942 P 811.407 8.791 6.00516e-12 0
M  V30 5943 O 812.829 9.31096 0.027933 0
M  V30 5944 O 811.047 7.77869 -1.04071 0
M  V30 5945 O 811.084 8.09533 1.41463 0
M  V30 5946 C 810.924 9.0349 2.53943 0
M  V30 5947 C 811.464 8.35226 3.79016 0
M  V30 5948 O 810.408 7.57992 4.15078 0
M  V30 5949 C 812.682 7.45087 3.67298 0
M  V30 5950 O 813.42 7.27796 4.85194 0
M  V30 5951 C 812.013 6.17323 3.12027 0
M  V30 5952 O 812.812 5.04231 3.47188 0
M  V30 5953 C 810.676 6.19961 3.81809 0
M  V30 5954 H 810.708 5.58218 4.73051 0
M  V30 5955 H 811.891 6.21726 2.02589 0
M  V30 5956 H 813.375 7.86112 2.9231 0
M  V30 5957 H 811.681 9.11627 4.55076 0
M  V30 5958 H 811.491 9.9573 2.34194 0
M  V30 5959 H 809.861 9.2792 2.67832 0
M  V30 5960 H 812.5 4.67702 4.28772 0
M  V30 5961 P 814.357 7.39546 4.75277 0
M  V30 5962 O 815.779 7.81777 5.05738 0
M  V30 5963 O 813.997 7.1065 3.32998 0
M  V30 5964 O 814.034 6.04542 5.56673 0
M  V30 5965 C 813.874 6.22772 7.02095 0
M  V30 5966 C 814.414 4.97725 7.70406 0
M  V30 5967 O 813.358 4.13256 7.58987 0
M  V30 5968 C 815.632 4.28231 7.11815 0
M  V30 5969 O 816.37 3.49945 8.01648 0
M  V30 5970 C 814.963 3.5063 5.96244 0
M  V30 5971 O 815.762 2.36482 5.64681 0
M  V30 5972 C 813.626 3.15122 6.56374 0
M  V30 5973 H 813.658 2.13853 6.99751 0
M  V30 5974 H 814.841 4.13501 5.06559 0
M  V30 5975 H 816.325 5.03285 6.70911 0
M  V30 5976 H 814.631 5.20877 8.75697 0
M  V30 5977 H 814.441 7.11046 7.35349 0
M  V30 5978 H 812.811 6.35815 7.26986 0
M  V30 5979 H 815.45 1.61644 6.13565 0
M  V30 5980 P 817.308 3.65191 7.99657 0
M  V30 5981 O 818.729 3.84292 8.48206 0
M  V30 5982 O 816.948 4.17805 6.64342 0
M  V30 5983 O 816.985 2.07613 7.95143 0
M  V30 5984 C 816.824 1.44344 9.27435 0
M  V30 5985 C 817.365 0.0220036 9.17197 0
M  V30 5986 O 816.31 -0.626794 8.61824 0
M  V30 5987 C 818.583 -0.24586 8.30336 0
M  V30 5988 O 819.321 -1.39011 8.63583 0
M  V30 5989 C 817.915 -0.273849 6.91158 0
M  V30 5990 O 818.713 -1.05728 6.029 0
M  V30 5991 C 816.577 -0.897649 7.22545 0
M  V30 5992 N 815.534 -0.292839 6.41732 0
M  V30 5993 C 815.703 0.950603 5.91308 0
M  V30 5994 N 814.676 1.37732 5.21105 0
M  V30 5995 C 813.791 0.318109 5.26039 0
M  V30 5996 C 812.524 0.146766 4.6727 0
M  V30 5997 N 811.959 -1.06525 4.95887 0
M  V30 5998 C 812.561 -2.0378 5.71347 0
M  V30 5999 N 813.738 -1.92445 6.27451 0
M  V30 6000 C 814.313 -0.715382 6.00353 0
M  V30 6001 H 817.792 0.733318 6.49674 0
M  V30 6002 H 819.275 0.60668 8.36503 0
M  V30 6003 H 817.581 -0.362662 10.1825 0
M  V30 6004 H 817.391 2.00611 10.0304 0
M  V30 6005 H 815.761 1.41843 9.55327 0
M  V30 6006 H 816.603 1.54076 6.07465 0
M  V30 6007 H 818.401 -1.95704 6.0346 0
M  V30 6008 P 820.258 -1.25109 8.70152 0
M  V30 6009 O 821.68 -1.35274 9.21221 0
M  V30 6010 O 819.898 -0.0769065 7.84762 0
M  V30 6011 O 819.935 -2.55232 7.81161 0
M  V30 6012 C 819.775 -3.79939 8.58154 0
M  V30 6013 C 820.315 -4.94023 7.72785 0
M  V30 6014 O 819.259 -5.18726 6.91205 0
M  V30 6015 C 821.533 -4.69597 6.85231 0
M  V30 6016 O 822.271 -5.83832 6.51337 0
M  V30 6017 C 820.864 -3.96706 5.66633 0
M  V30 6018 O 821.663 -4.15414 4.49689 0
M  V30 6019 C 819.527 -4.66153 5.59313 0
M  V30 6020 H 819.559 -5.47679 4.85214 0
M  V30 6021 H 820.742 -2.89008 5.86566 0
M  V30 6022 H 822.226 -4.0121 7.36511 0
M  V30 6023 H 820.532 -5.80182 8.37584 0
M  V30 6024 H 820.342 -3.73517 9.52265 0
M  V30 6025 H 818.712 -3.97163 8.80359 0
M  V30 6026 H 821.351 -4.90969 4.01921 0
M  V30 6027 P 823.209 -5.75688 6.64379 0
M  V30 6028 O 824.631 -6.11849 7.01846 0
M  V30 6029 O 822.849 -4.30744 6.56026 0
M  V30 6030 O 822.886 -6.37042 5.19165 0
M  V30 6031 C 822.726 -7.83578 5.16515 0
M  V30 6032 C 823.266 -8.33398 3.83019 0
M  V30 6033 O 822.21 -8.10074 3.01034 0
M  V30 6034 C 824.484 -7.65514 3.2257 0
M  V30 6035 O 825.222 -8.4329 2.32297 0
M  V30 6036 C 823.815 -6.40075 2.62207 0
M  V30 6037 O 824.614 -5.92589 1.53712 0
M  V30 6038 C 822.478 -6.9454 2.18503 0
M  V30 6039 H 822.51 -7.23063 1.12091 0
M  V30 6040 H 823.693 -5.6025 3.37201 0
M  V30 6041 H 825.177 -7.35707 4.02681 0
M  V30 6042 H 823.483 -9.40912 3.9095 0
M  V30 6043 H 823.293 -8.29056 5.99158 0
M  V30 6044 H 821.663 -8.10073 5.25882 0
M  V30 6045 H 824.302 -6.30324 0.726794 0
M  V30 6046 P 826.16 -8.4349 2.47671 0
M  V30 6047 O 827.582 -8.94167 2.5964 0
M  V30 6048 O 825.8 -7.1704 3.19006 0
M  V30 6049 O 825.837 -8.16596 0.923387 0
M  V30 6050 C 825.677 -9.38437 0.108857 0
M  V30 6051 C 826.217 -9.08175 -1.28353 0
M  V30 6052 O 825.161 -8.44229 -1.84713 0
M  V30 6053 C 827.435 -8.18386 -1.42505 0
M  V30 6054 O 828.173 -8.3501 -2.60497 0
M  V30 6055 C 826.766 -6.80225 -1.25468 0
M  V30 6056 O 827.565 -5.81621 -1.91066 0
M  V30 6057 C 825.429 -7.02416 -1.9168 0
M  V30 6058 H 825.461 -6.6888 -2.96621 0
M  V30 6059 H 826.644 -6.53617 -0.192223 0
M  V30 6060 H 828.128 -8.36622 -0.589963 0
M  V30 6061 H 826.434 -10.0291 -1.79807 0
M  V30 6062 H 826.244 -10.2138 0.558219 0
M  V30 6063 H 824.614 -9.6579 0.0444202 0
M  V30 6064 H 827.253 -5.69556 -2.79637 0
M  V30 6065 P 829.11 -8.4349 -2.47671 0
M  V30 6066 O 830.531 -8.92689 -2.65029 0
M  V30 6067 O 828.75 -7.7568 -1.19296 0
M  V30 6068 O 828.787 -7.36886 -3.63805 0
M  V30 6069 C 828.626 -7.95433 -4.98253 0
M  V30 6070 C 829.167 -6.94612 -5.98974 0
M  V30 6071 O 828.112 -6.10277 -6.11744 0
M  V30 6072 C 830.385 -6.11426 -5.62335 0
M  V30 6073 O 831.123 -5.6162 -6.70584 0
M  V30 6074 C 829.717 -5.04409 -4.73308 0
M  V30 6075 O 830.515 -3.86404 -4.74719 0
M  V30 6076 C 828.379 -4.8728 -5.41006 0
M  V30 6077 N 827.336 -4.65812 -4.42377 0
M  V30 6078 C 827.505 -5.09132 -3.15382 0
M  V30 6079 N 826.478 -4.84021 -2.3716 0
M  V30 6080 C 825.593 -4.18386 -3.20441 0
M  V30 6081 C 824.326 -3.6275 -2.94905 0
M  V30 6082 N 823.761 -3.05008 -4.05243 0
M  V30 6083 C 824.363 -2.98348 -5.28159 0
M  V30 6084 N 825.54 -3.48171 -5.56333 0
M  V30 6085 C 826.115 -4.06869 -4.47212 0
M  V30 6086 H 829.594 -5.39013 -3.70026 0
M  V30 6087 H 831.077 -6.71916 -5.01943 0
M  V30 6088 H 829.383 -7.45796 -6.94223 0
M  V30 6089 H 829.193 -8.89416 -5.05237 0
M  V30 6090 H 827.563 -8.14876 -5.18409 0
M  V30 6091 H 828.405 -5.59989 -2.81362 0
M  V30 6092 H 830.203 -3.27906 -5.43085 0
M  V30 6093 P 832.061 -5.75688 -6.64379 0
M  V30 6094 O 833.482 -6.07692 -7.0558 0
M  V30 6095 O 831.701 -5.88047 -5.19722 0
M  V30 6096 O 831.738 -4.2322 -7.04443 0
M  V30 6097 C 831.577 -3.99785 -8.49201 0
M  V30 6098 C 832.118 -2.60516 -8.79425 0
M  V30 6099 O 831.063 -1.82663 -8.44573 0
M  V30 6100 C 833.336 -2.10343 -8.03628 0
M  V30 6101 O 834.074 -1.09919 -8.67766 0
M  V30 6102 C 832.668 -1.68446 -6.70876 0
M  V30 6103 O 833.466 -0.684109 -6.08265 0
M  V30 6104 C 831.33 -1.17436 -7.18567 0
M  V30 6105 N 830.287 -1.52699 -6.23988 0
M  V30 6106 C 830.456 -2.578 -5.40574 0
M  V30 6107 N 829.429 -2.78966 -4.61193 0
M  V30 6108 C 828.544 -1.78725 -4.95769 0
M  V30 6109 C 827.277 -1.45727 -4.44207 0
M  V30 6110 N 826.678 -2.13994 -3.43613 0
M  V30 6111 N 826.712 -0.374977 -5.05812 0
M  V30 6112 C 827.314 0.345585 -6.05615 0
M  V30 6113 N 828.491 0.0787651 -6.56253 0
M  V30 6114 C 829.066 -1.00499 -5.96189 0
M  V30 6115 H 831.362 -0.0804622 -7.31556 0
M  V30 6116 H 832.545 -2.53396 -6.02698 0
M  V30 6117 H 834.028 -2.93881 -7.85526 0
M  V30 6118 H 832.334 -2.52078 -9.87225 0
M  V30 6119 H 832.144 -4.75072 -9.05887 0
M  V30 6120 H 830.514 -4.05244 -8.76668 0
M  V30 6121 H 826.778 1.20098 -6.4532 0
M  V30 6122 H 831.356 -3.18977 -5.3945 0
M  V30 6123 H 825.748 -1.84983 -3.10004 0
M  V30 6124 H 827.152 -2.9465 -3.00843 0
M  V30 6125 H 833.154 0.177619 -6.34151 0
M  V30 6126 P 835.011 -1.25109 -8.70152 0
M  V30 6127 O 836.432 -1.29758 -9.22115 0
M  V30 6128 O 834.651 -2.13714 -7.55141 0
M  V30 6129 O 834.688 0.248149 -8.21425 0
M  V30 6130 C 834.527 1.22792 -9.30533 0
M  V30 6131 C 835.068 2.56293 -8.80664 0
M  V30 6132 O 834.013 3.02944 -8.09255 0
M  V30 6133 C 836.286 2.57523 -7.89775 0
M  V30 6134 O 837.024 3.7668 -7.89438 0
M  V30 6135 C 835.618 2.20997 -6.55446 0
M  V30 6136 O 836.416 2.71302 -5.48691 0
M  V30 6137 C 834.28 2.89693 -6.67988 0
M  V30 6138 N 833.237 2.08895 -6.07487 0
M  V30 6139 C 833.406 0.753809 -5.94137 0
M  V30 6140 N 832.379 0.146592 -5.38801 0
M  V30 6141 C 831.494 1.1768 -5.13693 0
M  V30 6142 C 830.227 1.17563 -4.52477 0
M  V30 6143 N 829.662 2.41918 -4.45789 0
M  V30 6144 C 830.264 3.56493 -4.90792 0
M  V30 6145 N 831.441 3.61423 -5.47817 0
M  V30 6146 C 832.016 2.37779 -5.5588 0
M  V30 6147 H 835.495 1.12673 -6.44018 0
M  V30 6148 H 836.978 1.7746 -8.19711 0
M  V30 6149 H 835.284 3.21673 -9.66791 0
M  V30 6150 H 835.094 0.901032 -10.1892 0
M  V30 6151 H 833.464 1.33049 -9.56592 0
M  V30 6152 H 834.306 0.233081 -6.26266 0
M  V30 6153 H 836.104 3.5779 -5.23879 0
M  V30 6154 P 837.962 3.65191 -7.99657 0
M  V30 6155 O 839.384 3.89332 -8.45794 0
M  V30 6156 O 837.602 2.28472 -7.50807 0
M  V30 6157 O 837.639 4.64972 -6.77611 0
M  V30 6158 C 837.479 6.06319 -7.16352 0
M  V30 6159 C 838.019 6.91731 -6.02299 0
M  V30 6160 O 836.963 6.92449 -5.17064 0
M  V30 6161 C 839.237 6.43627 -5.25174 0
M  V30 6162 O 839.975 7.43686 -4.60469 0
M  V30 6163 C 838.568 5.40275 -4.31916 0
M  V30 6164 O 839.367 5.25279 -3.14438 0
M  V30 6165 C 837.231 6.04847 -4.05327 0
M  V30 6166 H 837.263 6.62195 -3.11261 0
M  V30 6167 H 838.446 4.42556 -4.81383 0
M  V30 6168 H 839.93 5.92458 -5.93643 0
M  V30 6169 H 838.236 7.92655 -6.402 0
M  V30 6170 H 838.046 6.26671 -8.0846 0
M  V30 6171 H 836.416 6.29101 -7.32804 0
M  V30 6172 H 839.055 5.84315 -2.47318 0
M  V30 6173 P 840.912 7.39546 -4.75277 0
M  V30 6174 O 842.334 7.84966 -5.01146 0
M  V30 6175 O 840.552 5.9812 -5.08098 0
M  V30 6176 O 840.589 7.57503 -3.1866 0
M  V30 6177 C 840.429 8.97357 -2.74833 0
M  V30 6178 C 840.969 9.0745 -1.32694 0
M  V30 6179 O 839.914 8.62072 -0.606159 0
M  V30 6180 C 842.187 8.25383 -0.938334 0
M  V30 6181 O 842.925 8.74577 0.146954 0
M  V30 6182 C 841.519 6.8802 -0.712559 0
M  V30 6183 O 842.317 6.11791 0.194623 0
M  V30 6184 C 840.181 7.27966 -0.139777 0
M  V30 6185 N 839.138 6.39368 -0.623421 0
M  V30 6186 C 839.2 5.90299 -1.85969 0
M  V30 6187 N 838.155 5.10919 -2.1133 0
M  V30 6188 C 837.421 5.14646 -1.0015 0
M  V30 6189 C 836.115 4.60057 -0.729219 0
M  V30 6190 O 835.382 3.93476 -1.47746 0
M  V30 6191 N 835.685 4.88302 0.523505 0
M  V30 6192 C 836.434 5.63646 1.46207 0
M  V30 6193 N 835.837 5.78186 2.69239 0
M  V30 6194 N 837.587 6.19285 1.21544 0
M  V30 6195 C 838.044 5.93392 -0.0308487 0
M  V30 6196 H 840.213 7.25354 0.961601 0
M  V30 6197 H 841.396 6.3246 -1.65676 0
M  V30 6198 H 842.881 8.19533 -1.78278 0
M  V30 6199 H 841.186 10.1294 -1.10029 0
M  V30 6200 H 840.996 9.64276 -3.41316 0
M  V30 6201 H 839.365 9.25417 -2.76357 0
M  V30 6202 H 834.789 4.53993 0.806451 0
M  V30 6203 H 839.996 6.11865 -2.57394 0
M  V30 6204 H 834.926 5.34046 2.87467 0
M  V30 6205 H 836.302 6.33391 3.42578 0
M  V30 6206 H 842.006 6.25169 1.0783 0
M  V30 6207 P 843.863 8.791 6.31533e-12 0
M  V30 6208 O 845.284 9.31196 0.027936 0
M  V30 6209 O 843.503 7.77869 -1.04071 0
M  V30 6210 O 843.54 8.09533 1.41463 0
M  V30 6211 C 843.379 9.03587 2.5397 0
M  V30 6212 C 843.92 8.35226 3.79016 0
M  V30 6213 O 842.865 7.57904 4.1503 0
M  V30 6214 C 845.138 7.45087 3.67298 0
M  V30 6215 O 845.876 7.27796 4.85194 0
M  V30 6216 C 844.47 6.17323 3.12027 0
M  V30 6217 O 845.268 5.04496 3.46627 0
M  V30 6218 C 843.132 6.19961 3.81809 0
M  V30 6219 N 842.089 5.71575 2.93223 0
M  V30 6220 C 842.258 5.77362 1.59168 0
M  V30 6221 N 841.231 5.3123 0.911893 0
M  V30 6222 C 840.346 4.91717 1.89588 0
M  V30 6223 C 839.079 4.3114 1.8076 0
M  V30 6224 N 838.514 4.06823 3.02898 0
M  V30 6225 C 839.116 4.35062 4.22711 0
M  V30 6226 N 840.293 4.90805 4.35707 0
M  V30 6227 C 840.868 5.16382 3.14469 0
M  V30 6228 H 844.347 6.21428 2.0318 0
M  V30 6229 H 845.83 7.86112 2.9231 0
M  V30 6230 H 844.136 9.11171 4.55987 0
M  V30 6231 H 843.946 9.9573 2.34194 0
M  V30 6232 H 842.316 9.2792 2.67832 0
M  V30 6233 H 843.158 6.16575 1.12198 0
M  V30 6234 H 844.956 4.67628 4.28704 0
M  V30 6235 P 846.814 7.39546 4.75277 0
M  V30 6236 O 848.236 7.81777 5.05738 0
M  V30 6237 O 846.454 7.1065 3.32998 0
M  V30 6238 O 846.491 6.04542 5.56673 0
M  V30 6239 C 846.331 6.22772 7.02095 0
M  V30 6240 C 846.871 4.97725 7.70406 0
M  V30 6241 O 845.815 4.13256 7.58987 0
M  V30 6242 C 848.089 4.28231 7.11815 0
M  V30 6243 O 848.827 3.49945 8.01648 0
M  V30 6244 C 847.42 3.5063 5.96244 0
M  V30 6245 O 848.219 2.36482 5.64681 0
M  V30 6246 C 846.083 3.15122 6.56374 0
M  V30 6247 H 846.115 2.13853 6.99751 0
M  V30 6248 H 847.298 4.13501 5.06559 0
M  V30 6249 H 848.782 5.03285 6.70911 0
M  V30 6250 H 847.088 5.20877 8.75697 0
M  V30 6251 H 846.898 7.11046 7.35349 0
M  V30 6252 H 845.268 6.35815 7.26986 0
M  V30 6253 H 847.907 1.61644 6.13565 0
M  V30 6254 P 849.764 3.65191 7.99657 0
M  V30 6255 O 851.185 3.84292 8.48206 0
M  V30 6256 O 849.404 4.17805 6.64342 0
M  V30 6257 O 849.441 2.07613 7.95143 0
M  V30 6258 C 849.28 1.44344 9.27435 0
M  V30 6259 C 849.821 0.0220036 9.17197 0
M  V30 6260 O 848.766 -0.626794 8.61824 0
M  V30 6261 C 851.039 -0.24586 8.30336 0
M  V30 6262 O 851.777 -1.39011 8.63583 0
M  V30 6263 C 850.371 -0.273849 6.91158 0
M  V30 6264 O 851.169 -1.05728 6.029 0
M  V30 6265 C 849.033 -0.897649 7.22545 0
M  V30 6266 N 847.99 -0.292839 6.41732 0
M  V30 6267 C 848.159 0.950603 5.91308 0
M  V30 6268 N 847.132 1.37732 5.21105 0
M  V30 6269 C 846.247 0.318109 5.26039 0
M  V30 6270 C 844.98 0.146766 4.6727 0
M  V30 6271 N 844.415 -1.06525 4.95887 0
M  V30 6272 C 845.017 -2.0378 5.71347 0
M  V30 6273 N 846.194 -1.92445 6.27451 0
M  V30 6274 C 846.769 -0.715382 6.00353 0
M  V30 6275 H 850.248 0.733318 6.49674 0
M  V30 6276 H 851.731 0.60668 8.36503 0
M  V30 6277 H 850.037 -0.362662 10.1825 0
M  V30 6278 H 849.847 2.00611 10.0304 0
M  V30 6279 H 848.217 1.41843 9.55327 0
M  V30 6280 H 849.059 1.54076 6.07465 0
M  V30 6281 H 850.857 -1.95704 6.0346 0
M  V30 6282 P 852.715 -1.25109 8.70152 0
M  V30 6283 O 854.136 -1.35288 9.2132 0
M  V30 6284 O 852.355 -0.0769065 7.84762 0
M  V30 6285 O 852.392 -2.55232 7.81161 0
M  V30 6286 C 852.231 -3.79979 8.58246 0
M  V30 6287 C 852.772 -4.94023 7.72785 0
M  V30 6288 O 851.717 -5.18666 6.91125 0
M  V30 6289 C 853.99 -4.69597 6.85231 0
M  V30 6290 O 854.728 -5.83832 6.51337 0
M  V30 6291 C 853.322 -3.96706 5.66633 0
M  V30 6292 O 854.12 -4.14896 4.5003 0
M  V30 6293 C 851.984 -4.66153 5.59313 0
M  V30 6294 N 850.941 -3.71582 5.24027 0
M  V30 6295 C 851.11 -2.39715 5.48833 0
M  V30 6296 N 850.083 -1.65863 5.12845 0
M  V30 6297 C 849.198 -2.57637 4.5973 0
M  V30 6298 C 847.931 -2.40278 4.01027 0
M  V30 6299 N 847.332 -1.19549 3.86744 0
M  V30 6300 N 847.366 -3.57711 3.59575 0
M  V30 6301 C 847.968 -4.80324 3.70476 0
M  V30 6302 N 849.145 -5.01121 4.23801 0
M  V30 6303 C 849.72 -3.84757 4.66372 0
M  V30 6304 H 852.016 -5.47604 4.85148 0
M  V30 6305 H 853.199 -2.8955 5.86187 0
M  V30 6306 H 854.682 -4.0121 7.36511 0
M  V30 6307 H 852.988 -5.81019 8.37003 0
M  V30 6308 H 852.798 -3.73517 9.52265 0
M  V30 6309 H 851.168 -3.97163 8.80359 0
M  V30 6310 H 847.432 -5.66348 3.3183 0
M  V30 6311 H 852.01 -1.98804 5.94332 0
M  V30 6312 H 846.402 -1.13147 3.4281 0
M  V30 6313 H 847.806 -0.344074 4.19692 0
M  V30 6314 H 853.808 -4.90891 4.01857 0
M  V30 6315 P 855.665 -5.75688 6.64379 0
M  V30 6316 O 857.086 -6.11915 7.01921 0
M  V30 6317 O 855.305 -4.30744 6.56026 0
M  V30 6318 O 855.342 -6.37042 5.19165 0
M  V30 6319 C 855.181 -7.83662 5.1657 0
M  V30 6320 C 855.722 -8.33398 3.83019 0
M  V30 6321 O 854.667 -8.0998 3.00999 0
M  V30 6322 C 856.94 -7.65514 3.2257 0
M  V30 6323 O 857.678 -8.4329 2.32297 0
M  V30 6324 C 856.272 -6.40075 2.62207 0
M  V30 6325 O 857.07 -5.92338 1.5428 0
M  V30 6326 C 854.934 -6.9454 2.18503 0
M  V30 6327 N 853.891 -5.95905 2.39948 0
M  V30 6328 C 854.06 -4.98383 3.32108 0
M  V30 6329 N 853.033 -4.16798 3.41761 0
M  V30 6330 C 852.148 -4.65287 2.47461 0
M  V30 6331 C 850.881 -4.18946 2.07461 0
M  V30 6332 N 850.282 -3.09661 2.60717 0
M  V30 6333 N 850.316 -4.95327 1.09101 0
M  V30 6334 C 850.918 -6.04369 0.519812 0
M  V30 6335 N 852.095 -6.50694 0.855982 0
M  V30 6336 C 852.67 -5.75818 1.84322 0
M  V30 6337 H 854.966 -7.22964 1.12076 0
M  V30 6338 H 856.149 -5.60502 3.36589 0
M  V30 6339 H 857.632 -7.35707 4.02681 0
M  V30 6340 H 855.938 -9.41302 3.90009 0
M  V30 6341 H 855.748 -8.29056 5.99158 0
M  V30 6342 H 854.118 -8.10073 5.25882 0
M  V30 6343 H 850.382 -6.55843 -0.270373 0
M  V30 6344 H 854.96 -4.88564 3.92502 0
M  V30 6345 H 849.352 -2.80523 2.27218 0
M  V30 6346 H 850.756 -2.55848 3.34465 0
M  V30 6347 H 856.758 -6.30224 0.72668 0
M  V30 6348 P 858.616 -8.4349 2.47671 0
M  V30 6349 O 860.038 -8.94167 2.5964 0
M  V30 6350 O 858.256 -7.1704 3.19006 0
M  V30 6351 O 858.293 -8.16596 0.923387 0
M  V30 6352 C 858.133 -9.38437 0.108857 0
M  V30 6353 C 858.673 -9.08175 -1.28353 0
M  V30 6354 O 857.617 -8.44229 -1.84713 0
M  V30 6355 C 859.891 -8.18386 -1.42505 0
M  V30 6356 O 860.629 -8.3501 -2.60497 0
M  V30 6357 C 859.222 -6.80225 -1.25468 0
M  V30 6358 O 860.021 -5.81621 -1.91066 0
M  V30 6359 C 857.885 -7.02416 -1.9168 0
M  V30 6360 H 857.917 -6.6888 -2.96621 0
M  V30 6361 H 859.1 -6.53617 -0.192223 0
M  V30 6362 H 860.584 -8.36622 -0.589963 0
M  V30 6363 H 858.89 -10.0291 -1.79807 0
M  V30 6364 H 858.7 -10.2138 0.558219 0
M  V30 6365 H 857.07 -9.6579 0.0444202 0
M  V30 6366 H 859.709 -5.69556 -2.79637 0
M  V30 6367 P 861.566 -8.4349 -2.47671 0
M  V30 6368 O 862.987 -8.92689 -2.65029 0
M  V30 6369 O 861.206 -7.7568 -1.19296 0
M  V30 6370 O 861.243 -7.36886 -3.63805 0
M  V30 6371 C 861.082 -7.95433 -4.98253 0
M  V30 6372 C 861.623 -6.94612 -5.98974 0
M  V30 6373 O 860.568 -6.10277 -6.11744 0
M  V30 6374 C 862.841 -6.11426 -5.62335 0
M  V30 6375 O 863.579 -5.6162 -6.70584 0
M  V30 6376 C 862.173 -5.04409 -4.73308 0
M  V30 6377 O 862.971 -3.86404 -4.74719 0
M  V30 6378 C 860.835 -4.8728 -5.41006 0
M  V30 6379 N 859.792 -4.65812 -4.42377 0
M  V30 6380 C 859.961 -5.09132 -3.15382 0
M  V30 6381 N 858.934 -4.84021 -2.3716 0
M  V30 6382 C 858.049 -4.18386 -3.20441 0
M  V30 6383 C 856.782 -3.6275 -2.94905 0
M  V30 6384 N 856.217 -3.05008 -4.05243 0
M  V30 6385 C 856.819 -2.98348 -5.28159 0
M  V30 6386 N 857.996 -3.48171 -5.56333 0
M  V30 6387 C 858.571 -4.06869 -4.47212 0
M  V30 6388 H 862.05 -5.39013 -3.70026 0
M  V30 6389 H 863.533 -6.71916 -5.01943 0
M  V30 6390 H 861.839 -7.45796 -6.94223 0
M  V30 6391 H 861.649 -8.89416 -5.05237 0
M  V30 6392 H 860.019 -8.14876 -5.18409 0
M  V30 6393 H 860.861 -5.59989 -2.81362 0
M  V30 6394 H 862.659 -3.27906 -5.43085 0
M  V30 6395 P 864.517 -5.75688 -6.64379 0
M  V30 6396 O 865.939 -6.07627 -7.05504 0
M  V30 6397 O 864.157 -5.88047 -5.19722 0
M  V30 6398 O 864.194 -4.2322 -7.04443 0
M  V30 6399 C 864.034 -3.99743 -8.4911 0
M  V30 6400 C 864.574 -2.60516 -8.79425 0
M  V30 6401 O 863.518 -1.82684 -8.4467 0
M  V30 6402 C 865.792 -2.10343 -8.03628 0
M  V30 6403 O 866.53 -1.09919 -8.67766 0
M  V30 6404 C 865.123 -1.68446 -6.70876 0
M  V30 6405 O 865.922 -0.678137 -6.08433 0
M  V30 6406 C 863.786 -1.17436 -7.18567 0
M  V30 6407 H 863.818 -0.0804732 -7.31656 0
M  V30 6408 H 865.001 -2.54037 -6.02537 0
M  V30 6409 H 866.485 -2.93881 -7.85526 0
M  V30 6410 H 864.791 -2.53065 -9.86973 0
M  V30 6411 H 864.601 -4.75072 -9.05887 0
M  V30 6412 H 862.971 -4.05244 -8.76668 0
M  V30 6413 H 865.61 0.177647 -6.34251 0
M  V30 6414 P 867.468 -1.25109 -8.70152 0
M  V30 6415 O 868.89 -1.29744 -9.22016 0
M  V30 6416 O 867.108 -2.13714 -7.55141 0
M  V30 6417 O 867.145 0.248149 -8.21425 0
M  V30 6418 C 866.985 1.22779 -9.30434 0
M  V30 6419 C 867.525 2.56293 -8.80664 0
M  V30 6420 O 866.469 3.02979 -8.09349 0
M  V30 6421 C 868.743 2.57523 -7.89775 0
M  V30 6422 O 869.481 3.7668 -7.89438 0
M  V30 6423 C 868.074 2.20997 -6.55446 0
M  V30 6424 O 868.873 2.71895 -5.48509 0
M  V30 6425 C 866.737 2.89693 -6.67988 0
M  V30 6426 H 866.769 3.88793 -6.19859 0
M  V30 6427 H 867.952 1.12046 -6.44229 0
M  V30 6428 H 869.436 1.7746 -8.19711 0
M  V30 6429 H 867.742 3.20706 -9.67112 0
M  V30 6430 H 867.552 0.901032 -10.1892 0
M  V30 6431 H 865.922 1.33049 -9.56592 0
M  V30 6432 H 868.561 3.57847 -5.23962 0
M  V30 6433 P 870.418 3.65191 -7.99657 0
M  V30 6434 O 871.84 3.89332 -8.45794 0
M  V30 6435 O 870.058 2.28472 -7.50807 0
M  V30 6436 O 870.095 4.64972 -6.77611 0
M  V30 6437 C 869.935 6.06319 -7.16352 0
M  V30 6438 C 870.475 6.91731 -6.02299 0
M  V30 6439 O 869.419 6.92449 -5.17064 0
M  V30 6440 C 871.693 6.43627 -5.25174 0
M  V30 6441 O 872.431 7.43686 -4.60469 0
M  V30 6442 C 871.024 5.40275 -4.31916 0
M  V30 6443 O 871.823 5.25279 -3.14438 0
M  V30 6444 C 869.687 6.04847 -4.05327 0
M  V30 6445 H 869.719 6.62195 -3.11261 0
M  V30 6446 H 870.902 4.42556 -4.81383 0
M  V30 6447 H 872.386 5.92458 -5.93643 0
M  V30 6448 H 870.692 7.92655 -6.402 0
M  V30 6449 H 870.502 6.26671 -8.0846 0
M  V30 6450 H 868.872 6.29101 -7.32804 0
M  V30 6451 H 871.511 5.84315 -2.47318 0
M  V30 6452 P 873.369 7.39546 -4.75277 0
M  V30 6453 O 874.791 7.84966 -5.01146 0
M  V30 6454 O 873.009 5.9812 -5.08098 0
M  V30 6455 O 873.046 7.57503 -3.1866 0
M  V30 6456 C 872.886 8.97357 -2.74833 0
M  V30 6457 C 873.426 9.0745 -1.32694 0
M  V30 6458 O 872.371 8.62072 -0.606159 0
M  V30 6459 C 874.644 8.25383 -0.938334 0
M  V30 6460 O 875.382 8.74577 0.146954 0
M  V30 6461 C 873.976 6.8802 -0.712559 0
M  V30 6462 O 874.774 6.11791 0.194623 0
M  V30 6463 C 872.638 7.27966 -0.139777 0
M  V30 6464 N 871.595 6.39368 -0.623421 0
M  V30 6465 C 871.657 5.90299 -1.85969 0
M  V30 6466 N 870.612 5.10919 -2.1133 0
M  V30 6467 C 869.878 5.14646 -1.0015 0
M  V30 6468 C 868.572 4.60057 -0.729219 0
M  V30 6469 O 867.839 3.93476 -1.47746 0
M  V30 6470 N 868.142 4.88302 0.523505 0
M  V30 6471 C 868.891 5.63646 1.46207 0
M  V30 6472 N 868.294 5.78186 2.69239 0
M  V30 6473 N 870.044 6.19285 1.21544 0
M  V30 6474 C 870.501 5.93392 -0.0308487 0
M  V30 6475 H 872.67 7.25354 0.961601 0
M  V30 6476 H 873.853 6.3246 -1.65676 0
M  V30 6477 H 875.338 8.19533 -1.78278 0
M  V30 6478 H 873.643 10.1294 -1.10029 0
M  V30 6479 H 873.453 9.64276 -3.41316 0
M  V30 6480 H 871.822 9.25417 -2.76357 0
M  V30 6481 H 867.246 4.53993 0.806451 0
M  V30 6482 H 872.453 6.11865 -2.57394 0
M  V30 6483 H 867.383 5.34046 2.87467 0
M  V30 6484 H 868.759 6.33391 3.42578 0
M  V30 6485 H 874.463 6.25169 1.0783 0
M  V30 6486 P 876.319 8.791 6.62549e-12 0
M  V30 6487 O 877.741 9.31296 0.027939 0
M  V30 6488 O 875.959 7.77869 -1.04071 0
M  V30 6489 O 875.996 8.09533 1.41463 0
M  V30 6490 C 875.836 9.0349 2.53943 0
M  V30 6491 C 876.376 8.35135 3.78975 0
M  V30 6492 O 875.321 7.57992 4.15078 0
M  V30 6493 C 877.594 7.45087 3.67298 0
M  V30 6494 O 878.332 7.27796 4.85194 0
M  V30 6495 C 876.926 6.17323 3.12027 0
M  V30 6496 O 877.724 5.04149 3.47132 0
M  V30 6497 C 875.588 6.19961 3.81809 0
M  V30 6498 N 874.545 5.71575 2.93223 0
M  V30 6499 C 874.607 5.97133 1.62693 0
M  V30 6500 N 873.562 5.44066 0.984414 0
M  V30 6501 C 872.828 4.87093 1.93987 0
M  V30 6502 C 871.522 4.26449 1.8738 0
M  V30 6503 O 870.789 4.1089 0.884377 0
M  V30 6504 N 871.092 3.82483 3.08036 0
M  V30 6505 C 871.841 3.95124 4.27727 0
M  V30 6506 N 871.244 3.4084 5.39089 0
M  V30 6507 N 872.994 4.55264 4.3706 0
M  V30 6508 C 873.451 5.00861 3.18217 0
M  V30 6509 H 875.62 5.58218 4.73051 0
M  V30 6510 H 876.803 6.21631 2.02558 0
M  V30 6511 H 878.288 7.85819 2.93096 0
M  V30 6512 H 876.593 9.11627 4.55076 0
M  V30 6513 H 876.403 9.9573 2.34194 0
M  V30 6514 H 874.772 9.2792 2.67832 0
M  V30 6515 H 870.196 3.38323 3.1329 0
M  V30 6516 H 875.403 6.53891 1.14265 0
M  V30 6517 H 870.333 2.93852 5.30559 0
M  V30 6518 H 871.709 3.47631 6.30632 0
M  V30 6519 H 877.413 4.67628 4.28704 0
M  V30 6520 P 879.27 7.39546 4.75277 0
M  V30 6521 O 880.692 7.81777 5.05738 0
M  V30 6522 O 878.91 7.1065 3.32998 0
M  V30 6523 O 878.947 6.04542 5.56673 0
M  V30 6524 C 878.787 6.22772 7.02095 0
M  V30 6525 C 879.327 4.97725 7.70406 0
M  V30 6526 O 878.271 4.13256 7.58987 0
M  V30 6527 C 880.545 4.28231 7.11815 0
M  V30 6528 O 881.283 3.49945 8.01648 0
M  V30 6529 C 879.876 3.5063 5.96244 0
M  V30 6530 O 880.675 2.36482 5.64681 0
M  V30 6531 C 878.539 3.15122 6.56374 0
M  V30 6532 H 878.571 2.13853 6.99751 0
M  V30 6533 H 879.754 4.13501 5.06559 0
M  V30 6534 H 881.238 5.03285 6.70911 0
M  V30 6535 H 879.544 5.20877 8.75697 0
M  V30 6536 H 879.354 7.11046 7.35349 0
M  V30 6537 H 877.724 6.35815 7.26986 0
M  V30 6538 H 880.363 1.61644 6.13565 0
M  V30 6539 H 882.916 3.4553 7.48275 0
M  V30 END ATOM
M  V30 BEGIN BOND
M  V30 END BOND
M  V30 END CTAB
M  END
$$$$
