drugbank_target|Q9WZ57 Rod shape-determining protein MreB (DB04395)
 OpenBabel12092120293D

  0  0  0     0  0            999 V3000
M  V30 BEGIN CTAB
M  V30 COUNTS 5164 5187 0 0 0
M  V30 BEGIN ATOM
M  V30 1 H -0.908 1.98254 -0.117106 0
M  V30 2 N 0 1.576 0 0
M  V30 3 C 0.933 2.03868 1.02534 0
M  V30 4 C 1.911 0.928543 1.3348 0
M  V30 5 O 3.095 1.19667 1.45644 0
M  V30 6 C 0.222 2.43627 2.35294 0
M  V30 7 C -0.732 3.65373 2.2001 0
M  V30 8 S 0.101 5.13292 1.52614 0
M  V30 9 C 1.257 5.56322 2.86805 0
M  V30 10 H 1.49 2.90518 0.631377 0
M  V30 11 H -0.977 1.52953 0.210867 0
M  V30 12 H 0.981 2.67203 3.11629 0
M  V30 13 H -0.358 1.57376 2.7183 0
M  V30 14 H -1.165 3.90944 3.18086 0
M  V30 15 H -1.563 3.418 1.51819 0
M  V30 16 H 0.729 5.58782 3.83104 0
M  V30 17 H 1.672 6.56266 2.65933 0
M  V30 18 H 2.08 4.83886 2.90714 0
M  V30 19 N 1.4781 -0.272755 1.55222 0
M  V30 20 C 2.4081 -1.34136 1.91127 0
M  V30 21 C 3.3891 -1.51513 0.773168 0
M  V30 22 O 4.5741 -1.64552 1.03132 0
M  V30 23 C 1.7041 -2.70083 2.1834 0
M  V30 24 C 0.6581 -2.67437 3.34158 0
M  V30 25 C -0.0159 -4.06938 3.46851 0
M  V30 26 C 1.2841 -2.26686 4.70543 0
M  V30 27 H 2.9781 -1.04333 2.80633 0
M  V30 28 H 0.5241 -0.500454 1.35024 0
M  V30 29 H 2.4771 -3.44952 2.42046 0
M  V30 30 H 1.2011 -3.01469 1.25634 0
M  V30 31 H -0.1399 -1.95026 3.1042 0
M  V30 32 H -0.4919 -4.35547 2.51611 0
M  V30 33 H -0.7919 -4.06062 4.2472 0
M  V30 34 H 0.7321 -4.83545 3.72849 0
M  V30 35 H 2.1461 -2.91277 4.93792 0
M  V30 36 H 0.5431 -2.36971 5.5133 0
M  V30 37 H 1.6131 -1.21818 4.69349 0
M  V30 38 N 2.9562 -1.48159 -0.537278 0
M  V30 39 C 4.3722 -1.34118 -0.865129 0
M  V30 40 C 4.5722 -0.346678 -1.98495 0
M  V30 41 O 3.6282 0.234715 -2.51407 0
M  V30 42 C 4.9412 -2.73963 -1.23954 0
M  V30 43 C 6.4892 -2.82397 -1.34984 0
M  V30 44 C 6.9642 -4.22928 -1.75772 0
M  V30 45 N 8.4552 -4.25566 -1.82887 0
M  V30 46 C 9.1902 -5.31235 -2.15817 0
M  V30 47 N 8.6862 -6.47189 -2.47222 0
M  V30 48 N 10.4792 -5.18624 -2.16761 0
M  V30 49 H 2.6302 -2.1144 0.201715 0
M  V30 50 H 4.8932 -0.947598 0.0275949 0
M  V30 51 H 4.5992 -3.48264 -0.490381 0
M  V30 52 H 4.4732 -3.0702 -2.19132 0
M  V30 53 H 6.8602 -2.08356 -2.08978 0
M  V30 54 H 6.9412 -2.5297 -0.379448 0
M  V30 55 H 6.5852 -4.97482 -1.02341 0
M  V30 56 H 6.5152 -4.49794 -2.73848 0
M  V30 57 H 9.0062 -3.41924 -1.60924 0
M  V30 58 H 9.3192 -7.23564 -2.71433 0
M  V30 59 H 7.6642 -6.50476 -2.44757 0
M  V30 60 H 10.8552 -4.27056 -1.91679 0
M  V30 61 H 11.0282 -6.01078 -2.42093 0
M  V30 62 N 4.4343 0.785586 -1.36625 0
M  V30 63 C 5.3813 1.89838 -1.31264 0
M  V30 64 C 6.3513 1.65115 -0.180633 0
M  V30 65 O 7.5363 1.87222 -0.36777 0
M  V30 66 C 4.6763 3.26706 -1.11163 0
M  V30 67 C 3.7893 3.63476 -2.33472 0
M  V30 68 C 2.9243 4.89481 -2.06353 0
M  V30 69 C 1.9633 5.18941 -3.24602 0
M  V30 70 N 1.1003 6.36131 -2.97123 0
M  V30 71 H 5.9403 1.93756 -2.26413 0
M  V30 72 H 3.4773 0.947454 -1.12524 0
M  V30 73 H 5.4353 4.05639 -0.975337 0
M  V30 74 H 4.0653 3.222 -0.196674 0
M  V30 75 H 3.1173 2.79636 -2.57891 0
M  V30 76 H 4.4293 3.81193 -3.21704 0
M  V30 77 H 3.5833 5.76288 -1.89675 0
M  V30 78 H 2.3223 4.73841 -1.15437 0
M  V30 79 H 1.3273 4.30615 -3.41834 0
M  V30 80 H 2.5523 5.36498 -4.16349 0
M  V30 81 H 0.4983 6.21875 -2.08823 0
M  V30 82 H 0.4153 6.54198 -3.78894 0
M  V30 83 H 1.6833 7.2591 -2.84033 0
M  V30 84 N 5.9124 1.20967 1.01018 0
M  V30 85 C 7.1894 0.93264 1.71934 0
M  V30 86 C 7.5694 -0.55692 2.03621 0
M  V30 87 O 6.9174 -1.52035 1.7058 0
M  V30 88 C 7.1274 1.81233 2.98254 0
M  V30 89 C 8.4754 2.05804 3.71389 0
M  V30 90 O 9.4994 1.78539 3.08225 0
M  V30 91 O 8.3584 2.51888 4.84989 0
M  V30 92 H 5.4524 0.349272 0.749625 0
M  V30 93 H 7.9984 1.31871 1.06808 0
M  V30 94 H 6.7704 2.82067 2.71208 0
M  V30 95 H 6.3934 1.42674 3.7112 0
M  V30 96 N 7.3905 -1.2043 1.01659 0
M  V30 97 C 8.6395 -1.89118 0.701237 0
M  V30 98 C 8.9525 -1.79705 -0.772358 0
M  V30 99 O 10.1585 -2.43528 -1.20026 0
M  V30 100 C 8.6145 -3.39168 1.20388 0
M  V30 101 C 8.2225 -3.57166 2.70438 0
M  V30 102 C 9.9665 -4.1341 0.963953 0
M  V30 103 C 7.8735 -5.01042 3.14183 0
M  V30 104 H 6.8035 -0.708267 0.2586 0
M  V30 105 H 9.4545 -1.36239 1.22927 0
M  V30 106 H 7.8365 -3.91369 0.603824 0
M  V30 107 H 9.0105 -3.15351 3.35992 0
M  V30 108 H 7.3255 -2.96294 2.92572 0
M  V30 109 H 9.9225 -5.19491 1.26621 0
M  V30 110 H 10.2655 -4.16181 -0.099578 0
M  V30 111 H 10.7985 -3.67309 1.52738 0
M  V30 112 H 7.5375 -5.03426 4.19812 0
M  V30 113 H 7.0575 -5.43668 2.53348 0
M  V30 114 H 8.7365 -5.69623 3.0682 0
M  V30 115 N 8.8686 -0.792821 -1.36206 0
M  V30 116 C 10.1166 -0.366062 -1.98757 0
M  V30 117 C 10.4376 1.0668 -1.63231 0
M  V30 118 O 9.7076 1.73587 -0.907978 0
M  V30 119 H 8.2876 -0.132364 -0.735179 0
M  V30 120 H 10.9496 -1.01562 -1.66347 0
M  V30 121 H 10.0456 -0.460638 -3.08682 0
M  V30 122 N 10.3467 1.47872 -0.545128 0
M  V30 123 C 11.5957 2.01695 -0.0145033 0
M  V30 124 C 11.9087 1.42609 1.33873 0
M  V30 125 O 13.1147 1.88021 1.95858 0
M  V30 126 C 11.5707 3.59892 0.0245068 0
M  V30 127 C 11.1787 4.27966 -1.32475 0
M  V30 128 C 12.9227 4.21507 0.50316 0
M  V30 129 C 10.8297 5.78136 -1.2455 0
M  V30 130 H 9.7597 0.753998 -0.00165172 0
M  V30 131 H 12.4107 1.69985 -0.691175 0
M  V30 132 H 10.7927 3.88509 0.766575 0
M  V30 133 H 11.9667 4.11003 -2.08357 0
M  V30 134 H 10.2817 3.78286 -1.74036 0
M  V30 135 H 12.8787 5.31538 0.580656 0
M  V30 136 H 13.2217 3.87855 1.51243 0
M  V30 137 H 13.7547 3.97376 -0.183681 0
M  V30 138 H 10.4937 6.16388 -2.23039 0
M  V30 139 H 10.0137 5.97469 -0.528282 0
M  V30 140 H 11.6927 6.40099 -0.942488 0
M  V30 141 N 11.8248 0.280983 1.55075 0
M  V30 142 C 13.1018 -0.386207 1.91749 0
M  V30 143 C 13.4818 -1.73264 1.20594 0
M  V30 144 O 12.8298 -2.26034 0.334784 0
M  V30 145 C 13.0398 -0.520687 3.45094 0
M  V30 146 C 14.3878 -0.800865 4.16979 0
M  V30 147 O 15.4118 -0.605271 3.5102 0
M  V30 148 O 14.2708 -1.1753 5.33712 0
M  V30 149 H 11.3648 -0.212408 0.799257 0
M  V30 150 H 13.9108 0.327568 1.66509 0
M  V30 151 H 12.6828 0.426633 3.88967 0
M  V30 152 H 12.3058 -1.2837 3.76307 0
M  V30 153 N 13.3029 -1.57598 0.00835791 0
M  V30 154 C 14.2329 -2.1198 -0.979113 0
M  V30 155 C 15.2139 -1.03091 -1.35301 0
M  V30 156 O 16.3989 -1.30818 -1.43528 0
M  V30 157 C 13.5289 -2.62995 -2.26828 0
M  V30 158 C 12.4829 -3.76485 -2.03576 0
M  V30 159 C 11.8089 -4.13846 -3.38579 0
M  V30 160 C 13.1089 -5.0342 -1.39161 0
M  V30 161 H 14.8029 -2.94738 -0.526281 0
M  V30 162 H 12.3489 -1.41783 -0.251704 0
M  V30 163 H 14.3019 -2.99669 -2.96271 0
M  V30 164 H 13.0259 -1.7737 -2.7424 0
M  V30 165 H 11.6849 -3.40217 -1.36557 0
M  V30 166 H 11.3329 -3.25232 -3.83709 0
M  V30 167 H 11.0329 -4.90312 -3.23834 0
M  V30 168 H 12.5569 -4.53086 -4.09323 0
M  V30 169 H 13.9709 -5.37812 -1.98573 0
M  V30 170 H 12.3679 -5.84746 -1.34878 0
M  V30 171 H 13.4379 -4.83548 -0.361868 0
M  V30 172 N 14.781 0.264519 -1.55364 0
M  V30 173 C 16.029 0.993021 -1.76021 0
M  V30 174 C 16.35 1.86511 -0.569099 0
M  V30 175 O 15.62 1.91438 0.415735 0
M  V30 176 H 14.2 0.369639 -0.649135 0
M  V30 177 H 16.862 0.286707 -1.9278 0
M  V30 178 H 15.958 1.62502 -2.66457 0
M  V30 179 N 16.2591 1.48442 0.529413 0
M  V30 180 C 17.4871 1.60151 1.30994 0
M  V30 181 C 17.9021 0.261985 1.86973 0
M  V30 182 O 17.2591 -0.748805 1.66431 0
M  V30 183 C 17.3101 2.64854 2.46038 0
M  V30 184 O 17.0311 3.93608 1.92365 0
M  V30 185 C 18.5321 2.87007 3.37849 0
M  V30 186 H 15.7521 0.539971 0.398338 0
M  V30 187 H 18.2961 1.94273 0.638597 0
M  V30 188 H 16.4511 2.33589 3.09055 0
M  V30 189 H 16.8651 4.51055 2.67675 0
M  V30 190 H 18.3391 3.64068 4.14919 0
M  V30 191 H 18.8161 1.95852 3.93114 0
M  V30 192 H 19.4221 3.19579 2.80623 0
M  V30 193 N 17.7372 -0.778329 1.37039 0
M  V30 194 C 18.7002 -1.87301 1.32102 0
M  V30 195 C 19.7002 -1.59198 0.226405 0
M  V30 196 O 20.8902 -1.67403 0.481861 0
M  V30 197 C 18.0222 -3.24309 1.05055 0
M  V30 198 H 19.2152 -1.93093 2.29467 0
M  V30 199 H 16.7682 -0.977358 1.21973 0
M  V30 200 H 17.5032 -3.24196 0.0819373 0
M  V30 201 H 17.2882 -3.46098 1.84279 0
M  V30 202 H 18.7782 -4.04382 1.04234 0
M  V30 203 N 19.2153 -1.21501 -1.00376 0
M  V30 204 C 20.1633 -0.972442 -2.11297 0
M  V30 205 C 21.1573 0.080731 -1.69208 0
M  V30 206 O 22.3633 -0.0707666 -1.79861 0
M  V30 207 H 18.7383 -0.297218 -0.690772 0
M  V30 208 H 20.7093 -1.91394 -2.28934 0
M  V30 209 C 19.4583 -0.555065 -3.43241 0
M  V30 210 H 18.7813 -1.35709 -3.76062 0
M  V30 211 H 20.2213 -0.424664 -4.21868 0
M  V30 212 C 18.6803 0.734147 -3.28804 0
M  V30 213 O 19.2103 1.78937 -3.59645 0
M  V30 214 N 17.4163 0.701133 -2.82015 0
M  V30 215 H 16.9633 -0.157874 -2.57116 0
M  V30 216 H 16.9213 1.56403 -2.72737 0
M  V30 217 N 20.6934 1.19889 -1.02296 0
M  V30 218 C 21.9214 1.9339 -0.735399 0
M  V30 219 C 22.3364 1.75148 0.704887 0
M  V30 220 O 21.6934 1.06954 1.47875 0
M  V30 221 C 21.7444 3.45313 -1.06962 0
M  V30 222 O 21.4654 3.62964 -2.45334 0
M  V30 223 C 22.9664 4.35948 -0.804021 0
M  V30 224 H 20.1864 0.61448 -0.269546 0
M  V30 225 H 22.7304 1.522 -1.36585 0
M  V30 226 H 20.8854 3.84359 -0.484455 0
M  V30 227 H 21.2994 4.56886 -2.57595 0
M  V30 228 H 22.7734 5.41174 -1.0879 0
M  V30 229 H 23.2504 4.3842 0.261691 0
M  V30 230 H 23.8564 4.02574 -1.37164 0
M  V30 231 N 22.1715 0.800033 1.35784 0
M  V30 232 C 23.1015 0.220184 2.3246 0
M  V30 233 C 24.0825 -0.65073 1.57161 0
M  V30 234 O 25.2675 -0.582359 1.85263 0
M  V30 235 C 22.3975 -0.637353 3.41402 0
M  V30 236 C 21.3515 0.134531 4.27789 0
M  V30 237 C 20.6775 -0.844285 5.27992 0
M  V30 238 C 21.9775 1.32979 5.05088 0
M  V30 239 H 23.6715 1.02787 2.81203 0
M  V30 240 H 21.2175 0.495717 1.35199 0
M  V30 241 H 23.1705 -1.05302 4.08031 0
M  V30 242 H 21.8945 -1.47785 2.91251 0
M  V30 243 H 20.5535 0.531296 3.6273 0
M  V30 244 H 20.2015 -1.68011 4.74111 0
M  V30 245 H 19.9015 -0.332184 5.8666 0
M  V30 246 H 21.4255 -1.2583 5.97494 0
M  V30 247 H 22.8395 0.98934 5.64699 0
M  V30 248 H 21.2365 1.77593 5.7322 0
M  V30 249 H 22.3065 2.11978 4.36111 0
M  V30 250 N 23.6496 -1.47581 0.552962 0
M  V30 251 C 24.8956 -2.02782 0.0273648 0
M  V30 252 C 25.2286 -1.42687 -1.31734 0
M  V30 253 O 24.5036 -0.580897 -1.85623 0
M  V30 254 C 24.7866 -3.60031 -0.0702371 0
M  V30 255 C 24.6396 -4.30566 1.30126 0
M  V30 256 C 25.9586 -4.33028 -0.785771 0
M  V30 257 H 23.0776 -0.736912 0.0114185 0
M  V30 258 H 25.7196 -1.76056 0.714432 0
M  V30 259 H 23.8696 -3.82932 -0.655382 0
M  V30 260 H 25.5416 -4.19018 1.92929 0
M  V30 261 H 23.7846 -3.91086 1.87709 0
M  V30 262 H 24.4556 -5.39114 1.18573 0
M  V30 263 H 26.9316 -4.15095 -0.288982 0
M  V30 264 H 25.8076 -5.42695 -0.823013 0
M  V30 265 H 26.0686 -4.01945 -1.841 0
M  V30 266 N 25.1277 -0.289203 -1.54924 0
M  V30 267 C 26.3747 0.323519 -1.99899 0
M  V30 268 C 26.7027 1.54797 -1.17762 0
M  V30 269 O 25.9577 1.94237 -0.238835 0
M  V30 270 C 26.2567 0.736119 -3.49737 0
M  V30 271 C 25.9227 -0.385276 -4.49251 0
M  V30 272 C 24.5847 -0.693156 -4.76181 0
M  V30 273 C 26.9367 -1.14021 -5.08575 0
M  V30 274 C 24.2647 -1.7593 -5.59701 0
M  V30 275 C 26.6167 -2.19619 -5.93254 0
M  V30 276 C 25.2807 -2.51026 -6.185 0
M  V30 277 H 24.5507 0.118384 -0.731482 0
M  V30 278 H 27.1977 -0.405847 -1.8715 0
M  V30 279 H 25.5027 1.54539 -3.60035 0
M  V30 280 H 27.1997 1.22118 -3.81953 0
M  V30 281 H 23.7897 -0.135202 -4.28387 0
M  V30 282 H 27.9737 -0.915611 -4.87781 0
M  V30 283 H 23.2297 -2.0075 -5.77503 0
M  V30 284 H 27.4037 -2.78581 -6.38252 0
M  V30 285 H 25.0307 -3.33772 -6.83008 0
M  V30 286 N 26.6058 1.57591 -0.0167156 0
M  V30 287 C 27.5358 2.12496 0.967858 0
M  V30 288 C 28.5168 1.03807 1.34752 0
M  V30 289 O 29.7018 1.31577 1.42833 0
M  V30 290 C 26.8318 2.64194 2.25431 0
M  V30 291 C 25.7858 3.77559 2.01576 0
M  V30 292 C 25.1118 4.15636 3.36379 0
M  V30 293 C 26.4118 5.04151 1.36489 0
M  V30 294 H 28.1058 2.95013 0.510643 0
M  V30 295 H 25.6518 1.41915 0.244181 0
M  V30 296 H 27.6048 3.01236 2.94678 0
M  V30 297 H 26.3288 1.78821 2.73296 0
M  V30 298 H 24.9878 3.40937 1.34751 0
M  V30 299 H 24.6358 3.27263 3.81979 0
M  V30 300 H 24.3358 4.92022 3.21229 0
M  V30 301 H 25.8598 4.5525 4.06915 0
M  V30 302 H 27.2738 5.38857 1.95718 0
M  V30 303 H 25.6708 5.85453 1.31776 0
M  V30 304 H 26.7408 4.83733 0.336219 0
M  V30 305 N 28.0839 -0.256276 1.55502 0
M  V30 306 C 29.4999 -0.604325 1.47716 0
M  V30 307 C 29.6999 -1.88763 0.705039 0
M  V30 308 O 28.7559 -2.51445 0.230613 0
M  V30 309 C 30.0689 -0.715756 2.92057 0
M  V30 310 C 31.6169 -0.808706 3.02372 0
M  V30 311 C 32.0919 -0.951777 4.48001 0
M  V30 312 N 33.5829 -1.01688 4.519 0
M  V30 313 C 34.3179 -1.14668 5.61817 0
M  V30 314 N 33.8139 -1.24261 6.81565 0
M  V30 315 N 35.6069 -1.1791 5.49594 0
M  V30 316 H 27.7579 0.586291 2.04148 0
M  V30 317 H 30.0209 0.201015 0.926443 0
M  V30 318 H 29.7269 0.157027 3.51349 0
M  V30 319 H 29.6009 -1.59071 3.42018 0
M  V30 320 H 31.9879 -1.67195 2.43166 0
M  V30 321 H 32.0689 0.0912063 2.55637 0
M  V30 322 H 31.7129 -0.0931291 5.07815 0
M  V30 323 H 31.6429 -1.86659 4.92408 0
M  V30 324 H 34.1339 -0.954468 3.65648 0
M  V30 325 H 34.4469 -1.34046 7.61086 0
M  V30 326 H 32.7919 -1.21236 6.84344 0
M  V30 327 H 35.9829 -1.10057 4.54978 0
M  V30 328 H 36.1559 -1.27681 6.35296 0
M  V30 329 N 29.562 -1.4872 -0.521534 0
M  V30 330 C 30.81 -1.56857 -1.27437 0
M  V30 331 C 31.131 -0.247982 -1.93417 0
M  V30 332 O 30.401 0.731151 -1.81744 0
M  V30 333 H 28.981 -0.577885 -0.473347 0
M  V30 334 H 31.643 -1.85233 -0.606205 0
M  V30 335 H 30.739 -2.35402 -2.0492 0
M  V30 336 N 31.0401 0.771051 -1.3745 0
M  V30 337 C 31.9871 1.88435 -1.3327 0
M  V30 338 C 32.9571 1.64914 -0.198136 0
M  V30 339 O 34.1421 1.86821 -0.387606 0
M  V30 340 C 31.2821 3.25509 -1.14622 0
M  V30 341 C 30.3951 3.60979 -2.37314 0
M  V30 342 C 29.5301 4.87265 -2.11533 0
M  V30 343 C 28.5691 5.15469 -3.30088 0
M  V30 344 N 27.7061 6.32944 -3.03853 0
M  V30 345 H 32.5461 1.91344 -2.28455 0
M  V30 346 H 30.0831 0.935466 -1.13523 0
M  V30 347 H 32.0411 4.04582 -1.01831 0
M  V30 348 H 30.6711 3.21974 -0.230837 0
M  V30 349 H 29.7231 2.76885 -2.60842 0
M  V30 350 H 31.0351 3.77759 -3.25729 0
M  V30 351 H 30.1891 5.74244 -1.95777 0
M  V30 352 H 28.9281 4.7259 -1.20457 0
M  V30 353 H 27.9331 4.26966 -3.46382 0
M  V30 354 H 29.1581 5.32052 -4.22016 0
M  V30 355 H 27.1041 6.19625 -2.15407 0
M  V30 356 H 27.0211 6.50143 -3.85812 0
M  V30 357 H 28.2891 7.22857 -2.91716 0
M  V30 358 N 32.5182 1.22032 0.997298 0
M  V30 359 C 33.7662 1.04016 1.73278 0
M  V30 360 C 34.0872 -0.426255 1.90284 0
M  V30 361 O 33.3572 -1.30694 1.45931 0
M  V30 362 H 31.9372 0.381897 0.642 0
M  V30 363 H 34.5992 1.5347 1.20137 0
M  V30 364 H 33.6952 1.51441 2.72896 0
M  V30 365 N 33.9963 -1.19345 1.0293 0
M  V30 366 C 35.2453 -1.88363 0.721256 0
M  V30 367 C 35.5583 -1.80514 -0.753254 0
M  V30 368 O 36.7643 -2.44788 -1.17436 0
M  V30 369 C 35.2203 -3.37872 1.23978 0
M  V30 370 C 34.8283 -3.54278 2.74211 0
M  V30 371 C 36.5723 -4.12365 1.00775 0
M  V30 372 C 34.4793 -4.97682 3.19479 0
M  V30 373 H 33.4093 -0.705484 0.266098 0
M  V30 374 H 36.0603 -1.34928 1.24365 0
M  V30 375 H 34.4423 -3.90707 0.6453 0
M  V30 376 H 35.6163 -3.11769 3.39318 0
M  V30 377 H 33.9313 -2.93174 2.95699 0
M  V30 378 H 36.5283 -5.18119 1.32123 0
M  V30 379 H 36.8713 -4.16263 -0.0554308 0
M  V30 380 H 37.4043 -3.65668 1.56625 0
M  V30 381 H 34.1433 -4.98945 4.25128 0
M  V30 382 H 33.6633 -5.4095 2.591 0
M  V30 383 H 35.3423 -5.66337 3.12845 0
M  V30 384 N 35.4744 -0.807222 -1.35358 0
M  V30 385 C 36.7204 -0.388463 -1.99045 0
M  V30 386 C 37.0534 1.04184 -1.63888 0
M  V30 387 O 36.3284 1.72292 -0.902535 0
M  V30 388 C 36.6114 -0.572783 -3.55515 0
M  V30 389 C 36.4644 -2.04807 -4.00468 0
M  V30 390 C 37.7834 0.00114064 -4.401 0
M  V30 391 H 34.9024 -0.142619 -0.723069 0
M  V30 392 H 37.5444 -1.01687 -1.60498 0
M  V30 393 H 35.6944 -0.0378425 -3.88482 0
M  V30 394 H 37.3664 -2.64544 -3.77908 0
M  V30 395 H 35.6094 -2.54427 -3.51353 0
M  V30 396 H 36.2804 -2.12792 -5.09337 0
M  V30 397 H 38.7564 -0.455716 -4.13597 0
M  V30 398 H 37.6324 -0.157737 -5.48673 0
M  V30 399 H 37.8934 1.09488 -4.28328 0
M  V30 400 N 36.9525 1.47285 -0.560781 0
M  V30 401 C 38.1985 2.02764 -0.0381184 0
M  V30 402 C 38.5315 1.43384 1.30976 0
M  V30 403 O 37.8065 0.590733 1.85312 0
M  V30 404 C 38.0895 3.60064 0.0511427 0
M  V30 405 C 37.9425 4.2987 -1.32408 0
M  V30 406 C 39.2615 4.33439 0.762795 0
M  V30 407 H 36.3805 0.736841 -0.0153264 0
M  V30 408 H 39.0225 1.75675 -0.723759 0
M  V30 409 H 37.1725 3.83274 0.635065 0
M  V30 410 H 38.8445 4.17989 -1.95148 0
M  V30 411 H 37.0875 3.90085 -1.8978 0
M  V30 412 H 37.7585 5.38478 -1.21431 0
M  V30 413 H 40.2345 4.15243 0.266965 0
M  V30 414 H 39.1105 5.43124 0.794221 0
M  V30 415 H 39.3715 4.02915 1.81966 0
M  V30 416 N 38.4306 0.297415 1.54768 0
M  V30 417 C 39.3786 -0.596051 2.24833 0
M  V30 418 C 40.3726 -1.13992 1.25308 0
M  V30 419 O 41.5786 -1.09098 1.4317 0
M  V30 420 H 37.9536 -0.210814 0.721846 0
M  V30 421 H 39.9246 0.0174667 2.98395 0
M  V30 422 C 38.6736 -1.75818 2.99972 0
M  V30 423 H 37.9966 -1.3489 3.76357 0
M  V30 424 H 39.4366 -2.35949 3.52284 0
M  V30 425 C 37.8956 -2.66014 2.06732 0
M  V30 426 O 38.4256 -3.67009 1.63302 0
M  V30 427 N 36.6316 -2.33669 1.72763 0
M  V30 428 H 36.1786 -1.51586 2.08277 0
M  V30 429 H 36.1366 -2.94285 1.10652 0
M  V30 430 N 39.9087 -1.5758 0.0250728 0
M  V30 431 C 40.8187 -2.1343 -0.973905 0
M  V30 432 C 41.8347 -1.08556 -1.35984 0
M  V30 433 O 43.0107 -1.40592 -1.44207 0
M  V30 434 C 40.0757 -2.64703 -2.23904 0
M  V30 435 C 39.1367 -3.84276 -1.91391 0
M  V30 436 C 38.3697 -4.33095 -3.11873 0
M  V30 437 O 38.5927 -3.81107 -4.24398 0
M  V30 438 O 37.5267 -5.24984 -2.94406 0
M  V30 439 H 41.3527 -2.99057 -0.529036 0
M  V30 440 H 38.9377 -1.48118 -0.195288 0
M  V30 441 H 40.8197 -2.97769 -2.98181 0
M  V30 442 H 39.4947 -1.82161 -2.6758 0
M  V30 443 H 38.4017 -3.56143 -1.14511 0
M  V30 444 H 39.7347 -4.67968 -1.52534 0
M  V30 445 N 41.3868 0.248026 -1.55636 0
M  V30 446 C 42.7978 0.817177 -1.67866 0
M  V30 447 C 43.1488 1.86069 -0.622322 0
M  V30 448 O 42.2738 2.15157 0.231618 0
M  V30 449 C 42.8688 1.489 -3.04326 0
M  V30 450 C 41.4278 2.00587 -3.185 0
M  V30 451 C 40.5748 0.856573 -2.63739 0
M  V30 452 H 43.5258 0.0238579 -1.58682 0
M  V30 453 H 43.5468 2.35698 -2.98708 0
M  V30 454 H 43.0588 0.729279 -3.81186 0
M  V30 455 H 41.1598 2.79443 -2.4646 0
M  V30 456 H 41.2728 2.20402 -4.25393 0
M  V30 457 H 39.6368 1.25678 -2.21534 0
M  V30 458 H 40.4198 0.109953 -3.43124 0
M  V30 459 N 42.8649 1.48995 0.513639 0
M  V30 460 C 44.0899 1.61792 1.29762 0
M  V30 461 C 44.5149 0.284475 1.85936 0
M  V30 462 O 43.8729 -0.746185 1.65232 0
M  V30 463 C 43.9209 2.67993 2.41272 0
M  V30 464 O 43.0249 2.26287 3.44772 0
M  V30 465 H 42.3659 0.541963 0.38363 0
M  V30 466 H 44.8959 1.95097 0.616307 0
M  V30 467 H 44.9059 2.89772 2.87221 0
M  V30 468 H 43.5809 3.64791 1.9975 0
M  V30 469 H 42.1579 2.14788 3.04829 0
M  V30 470 N 44.343 -0.763751 1.37857 0
M  V30 471 C 45.589 -1.52483 1.33704 0
M  V30 472 C 45.922 -1.94051 -0.0759612 0
M  V30 473 O 45.197 -1.64675 -1.03501 0
M  V30 474 C 45.48 -2.78441 2.28348 0
M  V30 475 C 45.333 -2.43075 3.78463 0
M  V30 476 C 46.652 -3.80415 2.21298 0
M  V30 477 H 43.771 -0.553169 0.487005 0
M  V30 478 H 46.413 -0.875562 1.68624 0
M  V30 479 H 44.563 -3.33842 1.987 0
M  V30 480 H 46.235 -1.93527 4.18742 0
M  V30 481 H 44.478 -1.75666 3.96641 0
M  V30 482 H 45.149 -3.33149 4.40132 0
M  V30 483 H 47.625 -3.34527 2.47449 0
M  V30 484 H 46.501 -4.66257 2.89647 0
M  V30 485 H 46.762 -4.25262 1.20849 0
M  V30 486 N 45.8211 -1.22559 -0.990812 0
M  V30 487 C 47.0701 -1.04553 -1.72486 0
M  V30 488 C 47.3831 0.419349 -1.91052 0
M  V30 489 O 48.5891 0.719121 -2.61803 0
M  V30 490 C 47.0451 -1.82231 -3.10355 0
M  V30 491 C 46.6531 -3.32981 -2.99713 0
M  V30 492 C 48.3971 -1.7268 -3.87791 0
M  V30 493 C 46.3041 -4.03091 -4.32748 0
M  V30 494 H 45.2341 -0.387614 -0.646739 0
M  V30 495 H 47.8851 -1.46429 -1.10593 0
M  V30 496 H 46.2671 -1.33155 -3.72942 0
M  V30 497 H 47.4411 -3.89466 -2.46278 0
M  V30 498 H 45.7561 -3.43231 -2.35758 0
M  V30 499 H 48.3531 -2.22381 -4.86262 0
M  V30 500 H 48.6961 -0.687607 -4.10582 0
M  V30 501 H 49.2291 -2.1931 -3.31885 0
M  V30 502 H 45.9681 -5.07273 -4.15156 0
M  V30 503 H 45.4881 -3.51394 -4.86089 0
M  V30 504 H 47.1671 -4.08804 -5.01486 0
M  V30 505 N 47.2992 1.18797 -1.03562 0
M  V30 506 C 48.2622 2.20464 -0.626769 0
M  V30 507 C 49.2622 1.57721 0.313173 0
M  V30 508 O 50.4522 1.73917 0.0992615 0
M  V30 509 C 47.5842 3.40802 0.0818498 0
M  V30 510 H 48.7772 2.58149 -1.5264 0
M  V30 511 H 46.3302 1.32593 -0.827578 0
M  V30 512 H 47.0652 3.08642 0.995518 0
M  V30 513 H 46.8502 3.8758 -0.593652 0
M  V30 514 H 48.3402 4.16092 0.354584 0
M  V30 515 N 48.7773 0.814389 1.34928 0
M  V30 516 C 50.0263 0.394871 1.97797 0
M  V30 517 C 50.3393 -1.04555 1.65311 0
M  V30 518 O 51.5453 -1.56856 2.21604 0
M  V30 519 C 50.0013 0.655103 3.53888 0
M  V30 520 C 49.6093 2.10858 3.95276 0
M  V30 521 C 51.3533 0.301329 4.23429 0
M  V30 522 C 49.2603 2.31415 5.44244 0
M  V30 523 H 48.1903 0.143913 0.740139 0
M  V30 524 H 50.8413 0.999544 1.53888 0
M  V30 525 H 49.2233 -0.0196253 3.95995 0
M  V30 526 H 50.3973 2.82176 3.64298 0
M  V30 527 H 48.7123 2.42297 3.38646 0
M  V30 528 H 51.3093 0.432869 5.32945 0
M  V30 529 H 51.6523 -0.75331 4.09428 0
M  V30 530 H 52.1853 0.930288 3.86769 0
M  V30 531 H 48.9243 3.35353 5.63222 0
M  V30 532 H 48.4443 1.6463 5.76764 0
M  V30 533 H 50.1233 2.13352 6.10811 0
M  V30 534 N 50.2554 -1.46986 0.568584 0
M  V30 535 C 51.5324 -1.95592 -0.0174074 0
M  V30 536 C 51.9124 -1.51124 -1.47393 0
M  V30 537 O 51.2604 -0.755329 -2.15655 0
M  V30 538 C 51.4704 -3.48719 0.139913 0
M  V30 539 C 52.8184 -4.246 0.000426376 0
M  V30 540 O 53.8424 -3.56135 0.0680316 0
M  V30 541 O 52.7014 -5.46302 -0.146988 0
M  V30 542 H 49.7954 -0.82498 -0.0577599 0
M  V30 543 H 52.3414 -1.57335 0.635909 0
M  V30 544 H 51.1134 -3.73927 1.15301 0
M  V30 545 H 50.7364 -3.93771 -0.550491 0
M  V30 546 N 51.7335 -0.305618 -1.54608 0
M  V30 547 C 52.9585 0.307562 -2.05107 0
M  V30 548 C 53.3835 1.46385 -1.18123 0
M  V30 549 O 52.7415 1.8034 -0.186324 0
M  V30 550 C 52.7895 0.73704 -3.52987 0
M  V30 551 O 51.8935 1.84134 -3.6901 0
M  V30 552 H 51.2345 0.0589143 -0.661381 0
M  V30 553 H 53.7645 -0.448807 -1.99617 0
M  V30 554 H 53.7745 1.02459 -3.94925 0
M  V30 555 H 52.4495 -0.108773 -4.15758 0
M  V30 556 H 51.0265 1.55398 -3.38978 0
M  V30 557 N 53.2116 1.57565 -0.0334293 0
M  V30 558 C 54.4396 1.9628 0.654347 0
M  V30 559 C 54.8546 0.910138 1.65414 0
M  V30 560 O 54.2116 -0.107595 1.82183 0
M  V30 561 C 54.2626 3.35067 1.35693 0
M  V30 562 O 53.9836 4.36296 0.397191 0
M  V30 563 C 55.4846 3.88439 2.13613 0
M  V30 564 H 52.7046 0.646369 0.180132 0
M  V30 565 H 55.2486 2.04282 -0.0944721 0
M  V30 566 H 53.4036 3.2827 2.05712 0
M  V30 567 H 53.8176 5.1678 0.896597 0
M  V30 568 H 55.2916 4.8788 2.58219 0
M  V30 569 H 55.7686 3.22914 2.97696 0
M  V30 570 H 56.3746 3.98516 1.48543 0
M  V30 571 N 54.6897 -0.239769 1.55765 0
M  V30 572 C 55.9177 -0.98417 1.81994 0
M  V30 573 C 56.3327 -1.7867 0.610124 0
M  V30 574 O 55.6897 -1.77571 -0.421271 0
M  V30 575 C 55.7407 -1.91635 3.06526 0
M  V30 576 O 55.4617 -1.14629 4.22838 0
M  V30 577 C 56.9627 -2.77616 3.45607 0
M  V30 578 H 54.1827 -0.28928 0.605441 0
M  V30 579 H 56.7267 -0.260499 2.02834 0
M  V30 580 H 54.8817 -2.5942 2.87715 0
M  V30 581 H 55.2957 -1.77745 4.93464 0
M  V30 582 H 56.7697 -3.38759 4.35828 0
M  V30 583 H 57.2467 -3.4909 2.6652 0
M  V30 584 H 57.8527 -2.15271 3.66795 0
M  V30 585 N 56.1678 -1.49265 -0.50573 0
M  V30 586 C 57.4158 -1.582 -1.25766 0
M  V30 587 C 57.7368 -0.268482 -1.93143 0
M  V30 588 O 57.0068 0.711833 -1.8251 0
M  V30 589 H 55.5868 -0.582873 -0.467191 0
M  V30 590 H 58.2488 -1.85865 -0.586525 0
M  V30 591 H 57.3448 -2.37563 -2.02412 0
M  V30 592 N 57.6459 0.756429 -1.3826 0
M  V30 593 C 58.5559 1.9009 -1.37488 0
M  V30 594 C 59.5719 1.71855 -0.272366 0
M  V30 595 O 60.7479 1.94827 -0.510318 0
M  V30 596 C 57.8129 3.25421 -1.19592 0
M  V30 597 C 56.8739 3.56202 -2.39622 0
M  V30 598 C 56.1069 4.85075 -2.2257 0
M  V30 599 O 56.3299 5.57246 -1.21793 0
M  V30 600 O 55.2639 5.15269 -3.11098 0
M  V30 601 H 59.0899 1.93695 -2.33914 0
M  V30 602 H 56.6749 0.901313 -1.1915 0
M  V30 603 H 58.5569 4.06337 -1.11661 0
M  V30 604 H 57.2319 3.22634 -0.262486 0
M  V30 605 H 56.1389 2.75458 -2.53128 0
M  V30 606 H 57.4719 3.63747 -3.31586 0
M  V30 607 N 59.124 1.23083 0.984299 0
M  V30 608 C 60.373 1.05466 1.71929 0
M  V30 609 C 60.686 -0.409211 1.91272 0
M  V30 610 O 61.892 -0.705226 2.62181 0
M  V30 611 C 60.348 1.83874 3.09384 0
M  V30 612 C 59.956 3.34566 2.97943 0
M  V30 613 C 61.7 1.74734 3.8687 0
M  V30 614 C 59.607 4.05381 4.30605 0
M  V30 615 H 58.537 0.391039 0.644674 0
M  V30 616 H 61.188 1.47013 1.09815 0
M  V30 617 H 59.57 1.35131 3.72231 0
M  V30 618 H 60.744 3.90767 2.44209 0
M  V30 619 H 59.059 3.44476 2.33934 0
M  V30 620 H 61.656 2.24957 4.85076 0
M  V30 621 H 61.999 0.709372 4.10212 0
M  V30 622 H 62.532 2.21067 3.30717 0
M  V30 623 H 59.271 5.09467 4.1246 0
M  V30 624 H 58.791 3.53967 4.84218 0
M  V30 625 H 60.47 4.11458 4.99311 0
M  V30 626 N 60.6021 -1.18246 1.0419 0
M  V30 627 C 61.5321 -2.24127 0.654914 0
M  V30 628 C 62.5131 -1.66617 -0.342451 0
M  V30 629 O 63.6981 -1.92924 -0.222277 0
M  V30 630 C 60.8281 -3.47295 0.0183757 0
M  V30 631 C 59.7821 -4.17563 0.939414 0
M  V30 632 C 59.1081 -5.34438 0.167286 0
M  V30 633 C 60.4081 -4.70917 2.25908 0
M  V30 634 H 62.1021 -2.56753 1.54007 0
M  V30 635 H 59.6481 -1.23414 0.74195 0
M  V30 636 H 61.6011 -4.20572 -0.264082 0
M  V30 637 H 60.3251 -3.13907 -0.901664 0
M  V30 638 H 58.9841 -3.46186 1.20628 0
M  V30 639 H 58.6321 -4.97298 -0.7552 0
M  V30 640 H 58.3321 -5.82388 0.780901 0
M  V30 641 H 59.8561 -6.10504 -0.108125 0
M  V30 642 H 61.2701 -5.35882 2.03724 0
M  V30 643 H 59.6671 -5.29406 2.82577 0
M  V30 644 H 60.7371 -3.88272 2.9047 0
M  V30 645 N 62.0802 -0.821533 -1.34494 0
M  V30 646 C 63.0272 -0.240397 -2.29545 0
M  V30 647 C 63.9972 0.634031 -1.53523 0
M  V30 648 O 65.1822 0.575966 -1.81899 0
M  V30 649 C 62.3222 0.592869 -3.39969 0
M  V30 650 C 61.4352 -0.30365 -4.30932 0
M  V30 651 C 60.5702 0.539049 -5.28458 0
M  V30 652 C 59.6092 -0.356942 -6.11058 0
M  V30 653 N 58.7462 0.446603 -7.00678 0
M  V30 654 H 63.5862 -1.05632 -2.7865 0
M  V30 655 H 61.1232 -0.532413 -1.37127 0
M  V30 656 H 63.0812 1.09129 -4.02675 0
M  V30 657 H 61.7112 1.37392 -2.92102 0
M  V30 658 H 60.7632 -0.920276 -3.691 0
M  V30 659 H 62.0752 -0.992661 -4.88823 0
M  V30 660 H 61.2292 1.102 -5.96608 0
M  V30 661 H 59.9682 1.26157 -4.71101 0
M  V30 662 H 58.9732 -0.932047 -5.41842 0
M  V30 663 H 60.1982 -1.07755 -6.70497 0
M  V30 664 H 58.1442 1.15282 -6.45791 0
M  V30 665 H 58.0612 -0.184048 -7.55776 0
M  V30 666 H 59.3292 0.992352 -7.73158 0
M  V30 667 N 63.5583 1.46682 -0.576371 0
M  V30 668 C 64.8043 2.02712 -0.0596221 0
M  V30 669 C 65.1373 1.44765 1.29448 0
M  V30 670 O 64.4123 0.610355 1.84675 0
M  V30 671 C 64.6953 3.60098 0.0129503 0
M  V30 672 C 64.5483 4.28441 -1.3696 0
M  V30 673 C 65.8673 4.34224 0.71678 0
M  V30 674 H 62.9863 0.736637 -0.0231407 0
M  V30 675 H 65.6283 1.74898 -0.742351 0
M  V30 676 H 63.7783 3.83926 0.594378 0
M  V30 677 H 65.4503 4.15896 -1.9957 0
M  V30 678 H 63.6933 3.8805 -1.93907 0
M  V30 679 H 64.3643 5.3716 -1.27135 0
M  V30 680 H 66.8403 4.15503 0.222908 0
M  V30 681 H 65.7163 5.43936 0.73657 0
M  V30 682 H 65.9773 4.04823 1.77682 0
M  V30 683 N 65.0364 0.313813 1.54444 0
M  V30 684 C 66.2844 -0.291099 1.99993 0
M  V30 685 C 66.6054 -1.53418 1.20366 0
M  V30 686 O 65.8754 -1.93544 0.302927 0
M  V30 687 H 64.4554 -0.110552 0.738774 0
M  V30 688 H 67.1174 0.428106 1.9014 0
M  V30 689 H 66.2134 -0.554268 3.07139 0
M  V30 690 N 66.5145 -1.57545 0.0417849 0
M  V30 691 C 67.4445 -2.14009 -0.933929 0
M  V30 692 C 68.4255 -1.05938 -1.33083 0
M  V30 693 O 69.6105 -1.33833 -1.40721 0
M  V30 694 C 66.7405 -2.67747 -2.21199 0
M  V30 695 C 65.6945 -3.80718 -1.95544 0
M  V30 696 C 65.0205 -4.20935 -3.29724 0
M  V30 697 C 66.3205 -5.06258 -1.28452 0
M  V30 698 H 68.0145 -2.95788 -0.463645 0
M  V30 699 H 65.5605 -1.42285 -0.221573 0
M  V30 700 H 67.5135 -3.05886 -2.89848 0
M  V30 701 H 66.2375 -1.83147 -2.70416 0
M  V30 702 H 64.8965 -3.43037 -1.2931 0
M  V30 703 H 64.5445 -3.33298 -3.76724 0
M  V30 704 H 64.2445 -4.9707 -3.13361 0
M  V30 705 H 65.7685 -4.61666 -3.9962 0
M  V30 706 H 67.1825 -5.41903 -1.8712 0
M  V30 707 H 65.5795 -5.87475 -1.22445 0
M  V30 708 H 66.6495 -4.84207 -0.259219 0
M  V30 709 N 67.9926 0.231505 -1.5589 0
M  V30 710 C 68.9026 1.308 -1.94752 0
M  V30 711 C 69.9186 1.51826 -0.849989 0
M  V30 712 O 71.0946 1.6515 -1.15271 0
M  V30 713 C 68.1596 2.63968 -2.24771 0
M  V30 714 C 67.2206 2.51331 -3.48039 0
M  V30 715 C 66.4536 3.78148 -3.76616 0
M  V30 716 O 66.6766 4.80722 -3.07022 0
M  V30 717 O 65.6106 3.75857 -4.70123 0
M  V30 718 H 69.4366 1.0083 -2.86474 0
M  V30 719 H 67.0216 0.433547 -1.42971 0
M  V30 720 H 68.9036 3.42633 -2.45318 0
M  V30 721 H 67.5786 2.9364 -1.36225 0
M  V30 722 H 66.4856 1.709 -3.32782 0
M  V30 723 H 67.8186 2.26601 -4.36936 0
M  V30 724 N 69.4707 1.49531 0.497807 0
M  V30 725 C 70.4337 1.65916 1.58128 0
M  V30 726 C 71.4337 0.530825 1.51786 0
M  V30 727 O 72.6237 0.797342 1.54881 0
M  V30 728 C 69.7557 1.65951 2.9778 0
M  V30 729 H 70.9487 2.62556 1.44929 0
M  V30 730 H 68.5017 1.38611 0.722275 0
M  V30 731 H 69.2367 0.709065 3.16453 0
M  V30 732 H 69.0217 2.47897 3.03792 0
M  V30 733 H 70.5117 1.80673 3.76493 0
M  V30 734 N 70.9488 -0.749086 1.3866 0
M  V30 735 C 71.8958 -1.86291 1.36251 0
M  V30 736 C 72.8658 -1.64578 0.224347 0
M  V30 737 O 74.0508 -1.86181 0.417279 0
M  V30 738 C 71.1908 -3.23644 1.19786 0
M  V30 739 C 70.3038 -3.57158 2.43027 0
M  V30 740 C 69.4388 -4.83838 2.19258 0
M  V30 741 C 68.4778 -5.10152 3.38247 0
M  V30 742 N 67.6148 -6.28029 3.13884 0
M  V30 743 H 72.4548 -1.87685 2.3147 0
M  V30 744 H 69.9918 -0.917287 1.14997 0
M  V30 745 H 71.9498 -4.0291 1.08254 0
M  V30 746 H 70.5798 -3.21566 0.282031 0
M  V30 747 H 69.6318 -2.72701 2.65214 0
M  V30 748 H 70.9438 -3.7253 3.31697 0
M  V30 749 H 70.0978 -5.71057 2.04888 0
M  V30 750 H 68.8368 -4.70614 1.2796 0
M  V30 751 H 67.8418 -4.21401 3.53131 0
M  V30 752 H 69.0668 -5.25271 4.30427 0
M  V30 753 H 67.0128 -6.1612 2.25238 0
M  V30 754 H 66.9298 -6.43922 3.96106 0
M  V30 755 H 68.1978 -7.18124 3.03179 0
M  V30 756 N 72.4269 -1.23603 -0.977757 0
M  V30 757 C 73.3749 -1.01704 -2.09187 0
M  V30 758 C 74.3689 0.0448214 -1.69341 0
M  V30 759 O 75.5749 -0.108902 -1.7967 0
M  V30 760 H 71.9499 -0.311803 -0.684312 0
M  V30 761 H 73.9209 -1.96207 -2.24823 0
M  V30 762 C 72.6699 -0.627746 -3.41986 0
M  V30 763 H 71.9929 -1.43656 -3.73099 0
M  V30 764 H 73.4329 -0.514053 -4.20872 0
M  V30 765 C 71.8919 0.664238 -3.30287 0
M  V30 766 O 72.4219 1.71268 -3.6336 0
M  V30 767 N 70.6279 0.641156 -2.83439 0
M  V30 768 H 70.1749 -0.212376 -2.56723 0
M  V30 769 H 70.1329 1.50583 -2.75993 0
M  V30 770 N 73.905 1.17692 -1.04816 0
M  V30 771 C 74.838 2.20436 -0.590173 0
M  V30 772 C 75.816 1.58115 0.379244 0
M  V30 773 O 77 1.86228 0.291762 0
M  V30 774 C 74.127 3.38424 0.136817 0
M  V30 775 C 73.173 4.19176 -0.787023 0
M  V30 776 S 74.006 4.84815 -2.27409 0
M  V30 777 C 75.162 6.06195 -1.55817 0
M  V30 778 H 75.395 2.58944 -1.46067 0
M  V30 779 H 72.928 1.28246 -0.859784 0
M  V30 780 H 74.886 4.06798 0.550076 0
M  V30 781 H 73.547 2.98312 0.983299 0
M  V30 782 H 72.74 5.03499 -0.224681 0
M  V30 783 H 72.342 3.56219 -1.13947 0
M  V30 784 H 74.634 6.72078 -0.855387 0
M  V30 785 H 75.577 6.6695 -2.37873 0
M  V30 786 H 75.985 5.54701 -1.04722 0
M  V30 787 N 75.3831 0.828654 1.34056 0
M  V30 788 C 76.6321 0.415828 1.97367 0
M  V30 789 C 76.9451 -1.02796 1.6641 0
M  V30 790 O 78.1511 -1.54497 2.23255 0
M  V30 791 C 76.6071 0.692601 3.53173 0
M  V30 792 C 76.2151 2.15038 3.93017 0
M  V30 793 C 77.9591 0.346222 4.23086 0
M  V30 794 C 75.8661 2.37174 5.41758 0
M  V30 795 H 74.7961 0.151755 0.738571 0
M  V30 796 H 77.4471 1.01581 1.52819 0
M  V30 797 H 75.8291 0.0223764 3.95994 0
M  V30 798 H 77.0031 2.86024 3.61285 0
M  V30 799 H 75.3181 2.45875 3.36057 0
M  V30 800 H 77.9151 0.48937 5.32456 0
M  V30 801 H 78.2581 -0.709842 4.10204 0
M  V30 802 H 78.7911 0.971258 3.85761 0
M  V30 803 H 75.5301 3.41308 5.59633 0
M  V30 804 H 75.0501 1.70738 5.74986 0
M  V30 805 H 76.7291 2.19818 6.08514 0
M  V30 806 N 76.8612 -1.46375 0.584142 0
M  V30 807 C 78.1092 -2.01978 0.0701287 0
M  V30 808 C 78.4302 -1.4579 -1.295 0
M  V30 809 O 77.7002 -0.64314 -1.85042 0
M  V30 810 H 76.2802 -0.746648 0.0229345 0
M  V30 811 H 78.9422 -1.79461 0.760245 0
M  V30 812 H 78.0382 -3.121 0.0022064 0
M  V30 813 N 78.3393 -0.321999 -1.54275 0
M  V30 814 C 79.2863 0.544664 -2.24281 0
M  V30 815 C 80.2563 1.1129 -1.23303 0
M  V30 816 O 81.4413 1.15354 -1.51981 0
M  V30 817 C 78.5813 1.70045 -3.00298 0
M  V30 818 C 77.6943 1.16159 -4.1609 0
M  V30 819 C 76.8293 2.28293 -4.79641 0
M  V30 820 C 75.8683 1.71648 -5.8754 0
M  V30 821 N 75.0053 2.77438 -6.44959 0
M  V30 822 H 79.8453 -0.0588907 -2.97942 0
M  V30 823 H 77.3823 -0.0408345 -1.47043 0
M  V30 824 H 79.3403 2.38054 -3.42616 0
M  V30 825 H 77.9703 2.27531 -2.28975 0
M  V30 826 H 77.0223 0.373092 -3.78566 0
M  V30 827 H 78.3343 0.707087 -4.93763 0
M  V30 828 H 77.4883 3.0421 -5.2492 0
M  V30 829 H 76.2273 2.77079 -4.01346 0
M  V30 830 H 75.2323 0.942282 -5.41665 0
M  V30 831 H 76.4573 1.23741 -6.67731 0
M  V30 832 H 74.4033 3.25519 -5.69538 0
M  V30 833 H 74.3203 2.36547 -7.1804 0
M  V30 834 H 75.5883 3.53189 -6.94894 0
M  V30 835 N 79.8174 1.5752 -0.0501392 0
M  V30 836 C 81.0454 1.96963 0.633492 0
M  V30 837 C 81.4604 0.927631 1.6444 0
M  V30 838 O 80.8174 -0.0882665 1.82286 0
M  V30 839 C 80.8684 3.36487 1.32132 0
M  V30 840 O 80.5894 4.36693 0.350894 0
M  V30 841 C 82.0904 3.90682 2.09481 0
M  V30 842 H 79.3104 0.648244 0.173266 0
M  V30 843 H 81.8544 2.0417 -0.116134 0
M  V30 844 H 80.0094 3.30434 2.02218 0
M  V30 845 H 80.4234 5.17702 0.841735 0
M  V30 846 H 81.8974 4.90591 2.5303 0
M  V30 847 H 82.3744 3.26053 2.94255 0
M  V30 848 H 82.9804 4.00069 1.44307 0
M  V30 849 N 81.2955 -0.223234 1.56011 0
M  V30 850 C 82.7065 -0.790368 1.69145 0
M  V30 851 C 83.0575 -1.85055 0.651845 0
M  V30 852 O 82.1825 -2.15498 -0.197359 0
M  V30 853 C 82.7775 -1.4404 3.06656 0
M  V30 854 C 81.3365 -1.95494 3.2165 0
M  V30 855 C 80.4835 -0.814506 2.65068 0
M  V30 856 H 83.4345 0.00139011 1.587 0
M  V30 857 H 83.4555 -2.30916 3.0242 0
M  V30 858 H 82.9675 -0.668543 3.82298 0
M  V30 859 H 81.0685 -2.75487 2.50874 0
M  V30 860 H 81.1815 -2.13607 4.28846 0
M  V30 861 H 79.5455 -1.22137 2.23505 0
M  V30 862 H 80.3285 -0.0553515 3.43255 0
M  V30 863 N 82.7736 -1.49793 -0.48987 0
M  V30 864 C 83.7366 -1.66752 -1.57246 0
M  V30 865 C 84.7366 -0.538867 -1.51502 0
M  V30 866 O 85.9266 -0.805545 -1.54456 0
M  V30 867 C 83.0586 -1.67528 -2.96896 0
M  V30 868 H 84.2516 -2.63321 -1.43534 0
M  V30 869 H 81.8046 -1.38992 -0.714914 0
M  V30 870 H 82.5396 -0.725837 -3.16073 0
M  V30 871 H 82.3246 -2.49504 -3.02473 0
M  V30 872 H 83.8146 -1.82667 -3.7553 0
M  V30 873 N 84.2517 0.741722 -1.39055 0
M  V30 874 C 85.4797 1.53098 -1.39171 0
M  V30 875 C 85.8947 1.88794 0.0155099 0
M  V30 876 O 85.2517 1.53626 0.985159 0
M  V30 877 C 85.3027 2.82274 -2.2584 0
M  V30 878 O 85.0237 2.48097 -3.61081 0
M  V30 879 C 86.5247 3.76343 -2.34266 0
M  V30 880 H 83.7447 0.473335 -0.4756 0
M  V30 881 H 86.2887 0.917045 -1.82785 0
M  V30 882 H 84.4437 3.40015 -1.85656 0
M  V30 883 H 84.8577 3.31029 -4.06842 0
M  V30 884 H 86.3317 4.63898 -2.9917 0
M  V30 885 H 86.8087 4.17619 -1.35982 0
M  V30 886 H 87.4147 3.24523 -2.74891 0
M  V30 887 N 85.7298 1.2412 0.971189 0
M  V30 888 C 86.9788 1.07284 1.70801 0
M  V30 889 C 87.2918 -0.388902 1.91695 0
M  V30 890 O 88.4978 -0.677379 2.62914 0
M  V30 891 C 86.9538 1.87145 3.07416 0
M  V30 892 C 86.5618 3.37707 2.94377 0
M  V30 893 C 88.3058 1.78828 3.84995 0
M  V30 894 C 86.2128 4.09925 4.26281 0
M  V30 895 H 85.1428 0.397854 0.64049 0
M  V30 896 H 87.7938 1.4817 1.0825 0
M  V30 897 H 86.1758 1.39071 3.70777 0
M  V30 898 H 87.3498 3.93335 2.4005 0
M  V30 899 H 85.6648 3.46938 2.30267 0
M  V30 900 H 88.2618 2.30089 4.82662 0
M  V30 901 H 88.6048 0.75284 4.09436 0
M  V30 902 H 89.1378 2.24563 3.28354 0
M  V30 903 H 85.8768 5.13813 4.07033 0
M  V30 904 H 85.3968 3.59083 4.80437 0
M  V30 905 H 87.0758 4.1673 4.94919 0
M  V30 906 N 87.2079 -1.17134 1.05439 0
M  V30 907 C 88.1549 -2.21235 0.657539 0
M  V30 908 C 89.1249 -1.62551 -0.341543 0
M  V30 909 O 90.3099 -1.89379 -0.232393 0
M  V30 910 C 87.4499 -3.45076 0.0410575 0
M  V30 911 C 86.5629 -4.18042 1.08927 0
M  V30 912 C 85.6979 -5.29376 0.439848 0
M  V30 913 C 84.7369 -5.94132 1.4722 0
M  V30 914 N 83.8739 -6.96975 0.846756 0
M  V30 915 H 88.7139 -2.54534 1.54972 0
M  V30 916 H 86.2509 -1.25028 0.775006 0
M  V30 917 H 88.2089 -4.15862 -0.33383 0
M  V30 918 H 86.8389 -3.12353 -0.814568 0
M  V30 919 H 85.8909 -3.45945 1.58196 0
M  V30 920 H 87.2029 -4.62306 1.87282 0
M  V30 921 H 86.3569 -6.06699 0.0115125 0
M  V30 922 H 85.0959 -4.86251 -0.375656 0
M  V30 923 H 84.1009 -5.15538 1.91052 0
M  V30 924 H 85.3259 -6.39337 2.28965 0
M  V30 925 H 83.2719 -6.5598 0.0518075 0
M  V30 926 H 83.1889 -7.39565 1.5678 0
M  V30 927 H 84.4569 -7.78239 0.443277 0
M  V30 928 N 88.686 -0.835752 -1.33615 0
M  V30 929 C 89.649 -0.272 -2.2758 0
M  V30 930 C 90.649 0.557487 -1.50827 0
M  V30 931 O 91.839 0.37173 -1.70188 0
M  V30 932 C 88.971 0.617173 -3.35267 0
M  V30 933 H 90.164 -1.10111 -2.78954 0
M  V30 934 H 87.717 -0.608594 -1.43965 0
M  V30 935 H 88.452 1.46884 -2.89129 0
M  V30 936 H 88.237 0.0237066 -3.92093 0
M  V30 937 H 89.727 1.005 -4.05326 0
M  V30 938 N 90.1641 1.46063 -0.591896 0
M  V30 939 C 91.4131 2.01547 -0.0786637 0
M  V30 940 C 91.7261 1.46796 1.29268 0
M  V30 941 O 92.9321 1.94157 1.89777 0
M  V30 942 C 91.3881 3.59787 -0.0900024 0
M  V30 943 C 90.9961 4.23534 -1.46023 0
M  V30 944 C 92.7401 4.22895 0.368806 0
M  V30 945 C 90.6471 5.73881 -1.4288 0
M  V30 946 H 89.5771 0.753564 -0.0256388 0
M  V30 947 H 92.2281 1.677 -0.744905 0
M  V30 948 H 90.6101 3.90752 0.642586 0
M  V30 949 H 91.7841 4.04167 -2.21328 0
M  V30 950 H 90.0991 3.72558 -1.85982 0
M  V30 951 H 92.6961 5.33116 0.411258 0
M  V30 952 H 93.0391 3.9247 1.38827 0
M  V30 953 H 93.5721 3.9659 -0.31001 0
M  V30 954 H 90.3111 6.0898 -2.42536 0
M  V30 955 H 89.8311 5.95486 -0.718095 0
M  V30 956 H 91.5101 6.36776 -1.14565 0
M  V30 957 N 91.6422 0.330177 1.54103 0
M  V30 958 C 93.0582 -0.0222371 1.59585 0
M  V30 959 C 93.2582 -1.49902 1.34654 0
M  V30 960 O 92.3142 -2.25592 1.13421 0
M  V30 961 C 93.6272 0.401932 2.98002 0
M  V30 962 C 95.1752 0.353145 3.11001 0
M  V30 963 C 95.6502 0.752576 4.51775 0
M  V30 964 N 97.1412 0.706239 4.57784 0
M  V30 965 C 97.8762 0.987417 5.64834 0
M  V30 966 N 97.3722 1.33607 6.79795 0
M  V30 967 N 99.1652 0.91254 5.54643 0
M  V30 968 H 91.3162 1.29228 1.68564 0
M  V30 969 H 93.5792 0.525906 0.78875 0
M  V30 970 H 93.2852 1.4311 3.21267 0
M  V30 971 H 93.1592 -0.229699 3.765 0
M  V30 972 H 95.5462 -0.666822 2.87467 0
M  V30 973 H 95.6272 1.0198 2.34593 0
M  V30 974 H 95.2712 1.77049 4.76042 0
M  V30 975 H 95.2012 0.0635409 5.26562 0
M  V30 976 H 97.6922 0.44889 3.75224 0
M  V30 977 H 98.0052 1.53582 7.57385 0
M  V30 978 H 96.3502 1.37439 6.81275 0
M  V30 979 H 99.5412 0.639601 4.6371 0
M  V30 980 H 99.7142 1.13503 6.37982 0
M  V30 981 N 93.1203 -1.57491 0.0584922 0
M  V30 982 C 94.5313 -1.80526 -0.476138 0
M  V30 983 C 94.8823 -0.971334 -1.70469 0
M  V30 984 O 94.0073 -0.190012 -2.15564 0
M  V30 985 C 94.6023 -3.27424 -0.870587 0
M  V30 986 C 93.1613 -3.51351 -1.35015 0
M  V30 987 C 92.3083 -2.75343 -0.32887 0
M  V30 988 H 95.2593 -1.56133 0.284312 0
M  V30 989 H 95.2803 -3.38745 -1.73299 0
M  V30 990 H 94.7923 -3.88093 0.0237627 0
M  V30 991 H 92.8933 -2.95971 -2.26345 0
M  V30 992 H 93.0063 -4.60059 -1.33726 0
M  V30 993 H 91.3703 -2.417 -0.803321 0
M  V30 994 H 92.1533 -3.38743 0.557521 0
M  V30 995 N 94.5984 0.214957 -1.56127 0
M  V30 996 C 95.5314 1.29382 -1.87977 0
M  V30 997 C 96.5094 1.44897 -0.737807 0
M  V30 998 O 97.6934 1.60605 -0.986833 0
M  V30 999 C 94.8204 2.66325 -2.09258 0
M  V30 1000 C 93.8664 2.67789 -3.31951 0
M  V30 1001 S 94.6994 2.21198 -4.8768 0
M  V30 1002 C 95.8554 3.60003 -5.12004 0
M  V30 1003 H 96.0884 1.02173 -2.79192 0
M  V30 1004 H 93.6214 0.417516 -1.48648 0
M  V30 1005 H 95.5794 3.45162 -2.22201 0
M  V30 1006 H 94.2404 2.90755 -1.18829 0
M  V30 1007 H 93.4334 3.68436 -3.43906 0
M  V30 1008 H 93.0354 1.9702 -3.17898 0
M  V30 1009 H 95.3274 4.55739 -5.01307 0
M  V30 1010 H 96.2704 3.52959 -6.13861 0
M  V30 1011 H 96.6784 3.53996 -4.39712 0
M  V30 1012 N 96.0765 1.50051 0.48192 0
M  V30 1013 C 97.4925 1.37237 0.814756 0
M  V30 1014 C 97.6925 0.420109 1.97072 0
M  V30 1015 O 96.7485 -0.141246 2.52105 0
M  V30 1016 C 98.0615 2.78375 1.13701 0
M  V30 1017 C 99.6095 2.87213 1.2441 0
M  V30 1018 C 100.084 4.29161 1.59954 0
M  V30 1019 N 101.575 4.32061 1.66967 0
M  V30 1020 C 102.31 5.38879 1.95952 0
M  V30 1021 N 101.806 6.55918 2.23031 0
M  V30 1022 N 103.599 5.26312 1.97363 0
M  V30 1023 H 95.7505 2.10546 -0.28005 0
M  V30 1024 H 98.0135 0.945921 -0.0627454 0
M  V30 1025 H 97.7195 3.49845 0.360787 0
M  V30 1026 H 97.5935 3.14941 2.07586 0
M  V30 1027 H 99.9805 2.15969 2.01101 0
M  V30 1028 H 100.061 2.54204 0.285299 0
M  V30 1029 H 99.7055 5.00938 0.838067 0
M  V30 1030 H 99.6355 4.59648 2.56966 0
M  V30 1031 H 102.126 3.47661 1.48123 0
M  V30 1032 H 102.439 7.33139 2.44391 0
M  V30 1033 H 100.784 6.59112 2.20447 0
M  V30 1034 H 103.975 4.33876 1.75697 0
M  V30 1035 H 104.148 6.09649 2.19618 0
M  V30 1036 N 97.5546 -0.734337 1.39446 0
M  V30 1037 C 98.8316 -1.48579 1.27215 0
M  V30 1038 C 99.2116 -2.1077 -0.117968 0
M  V30 1039 O 98.5596 -1.98646 -1.12924 0
M  V30 1040 C 98.7696 -2.53667 2.39696 0
M  V30 1041 C 100.118 -3.20031 2.79044 0
M  V30 1042 O 101.142 -2.6398 2.39151 0
M  V30 1043 O 100.001 -4.21455 3.47905 0
M  V30 1044 H 97.0946 -0.659816 0.49857 0
M  V30 1045 H 99.6406 -0.768106 1.51322 0
M  V30 1046 H 98.4126 -2.06096 3.32626 0
M  V30 1047 H 98.0356 -3.32994 2.17258 0
M  V30 1048 N 99.0327 -1.24633 -0.964593 0
M  V30 1049 C 100.281 -1.08573 -1.70459 0
M  V30 1050 C 100.602 0.375655 -1.91347 0
M  V30 1051 O 99.8717 1.26779 -1.49345 0
M  V30 1052 H 98.4517 -0.398784 -0.631649 0
M  V30 1053 H 101.114 -1.56601 -1.16026 0
M  V30 1054 H 100.21 -1.58623 -2.68785 0
M  V30 1055 N 100.511 1.16574 -1.06058 0
M  V30 1056 C 101.757 1.87324 -0.777022 0
M  V30 1057 C 102.09 1.81351 0.694645 0
M  V30 1058 O 101.365 1.22753 1.50871 0
M  V30 1059 C 101.648 3.36991 -1.26922 0
M  V30 1060 C 101.501 3.51667 -2.80447 0
M  V30 1061 C 102.82 4.3131 -0.87521 0
M  V30 1062 H 99.9388 0.680191 -0.28374 0
M  V30 1063 H 102.581 1.37036 -1.3161 0
M  V30 1064 H 100.731 3.79949 -0.81063 0
M  V30 1065 H 102.403 3.17664 -3.34495 0
M  V30 1066 H 100.646 2.93656 -3.19294 0
M  V30 1067 H 101.317 4.56766 -3.0995 0
M  V30 1068 H 103.793 3.9624 -1.27014 0
M  V30 1069 H 102.669 5.34545 -1.2471 0
M  V30 1070 H 102.93 4.41552 0.220071 0
M  V30 1071 N 101.989 0.842826 1.3317 0
M  V30 1072 C 103.238 0.436738 1.96915 0
M  V30 1073 C 103.551 -1.01025 1.67491 0
M  V30 1074 O 104.757 -1.5212 2.24881 0
M  V30 1075 C 103.213 0.730021 3.52418 0
M  V30 1076 C 102.821 2.19195 3.90714 0
M  V30 1077 C 104.565 0.391076 4.22695 0
M  V30 1078 C 102.472 2.42907 5.39212 0
M  V30 1079 H 101.402 0.15958 0.736919 0
M  V30 1080 H 104.053 1.03196 1.51733 0
M  V30 1081 H 102.435 0.0643755 3.95948 0
M  V30 1082 H 103.609 2.8984 3.58231 0
M  V30 1083 H 101.924 2.49425 3.33431 0
M  V30 1084 H 104.521 0.545817 5.31907 0
M  V30 1085 H 104.864 -0.666294 4.10933 0
M  V30 1086 H 105.397 1.01212 3.84709 0
M  V30 1087 H 102.136 3.47224 5.55982 0
M  V30 1088 H 101.656 1.76827 5.73142 0
M  V30 1089 H 103.335 2.2626 6.06148 0
M  V30 1090 N 103.467 -1.45747 0.599634 0
M  V30 1091 C 104.43 -2.28917 -0.113835 0
M  V30 1092 C 105.43 -1.3933 -0.802729 0
M  V30 1093 O 106.62 -1.61534 -0.652103 0
M  V30 1094 C 103.752 -3.20152 -1.17114 0
M  V30 1095 H 104.945 -2.93478 0.617289 0
M  V30 1096 H 102.498 -1.52137 0.358327 0
M  V30 1097 H 103.233 -2.60374 -1.93329 0
M  V30 1098 H 103.018 -3.86133 -0.681468 0
M  V30 1099 H 104.508 -3.82708 -1.67105 0
M  V30 1100 N 104.945 -0.338344 -1.53925 0
M  V30 1101 C 106.222 0.314774 -1.93051 0
M  V30 1102 C 106.602 1.68669 -1.26941 0
M  V30 1103 O 105.95 2.24636 -0.418445 0
M  V30 1104 C 106.16 0.392249 -3.46789 0
M  V30 1105 C 107.508 0.645554 -4.19664 0
M  V30 1106 O 108.532 0.474575 -3.53024 0
M  V30 1107 O 107.391 0.976408 -5.37707 0
M  V30 1108 H 104.485 0.182598 -0.80659 0
M  V30 1109 H 107.031 -0.389141 -1.65178 0
M  V30 1110 H 105.803 -0.570702 -3.87116 0
M  V30 1111 H 105.426 1.14316 -3.80812 0
M  V30 1112 N 106.423 1.57458 -0.0668435 0
M  V30 1113 C 107.653 1.97337 0.611677 0
M  V30 1114 C 108.061 0.943744 1.63982 0
M  V30 1115 O 107.404 -0.0785584 1.83532 0
M  V30 1116 C 107.466 3.33511 1.34205 0
M  V30 1117 C 107.13 4.54598 0.467941 0
M  V30 1118 C 108.127 5.19186 -0.272439 0
M  V30 1119 C 105.812 5.0075 0.39427 0
M  V30 1120 C 107.806 6.28274 -1.07476 0
M  V30 1121 C 105.493 6.09711 -0.411729 0
M  V30 1122 C 106.491 6.73335 -1.14492 0
M  V30 1123 O 106.179 7.80199 -1.93763 0
M  V30 1124 H 105.911 0.654042 0.170893 0
M  V30 1125 H 108.465 2.04961 -0.134289 0
M  V30 1126 H 106.695 3.22487 2.13398 0
M  V30 1127 H 108.384 3.58029 1.91233 0
M  V30 1128 H 109.15 4.84477 -0.225086 0
M  V30 1129 H 105.029 4.51009 0.954569 0
M  V30 1130 H 108.573 6.77866 -1.64755 0
M  V30 1131 H 104.47 6.43854 -0.460664 0
M  V30 1132 H 105.238 7.97053 -1.86142 0
M  V30 1133 N 107.901 -0.206675 1.56239 0
M  V30 1134 C 109.129 -0.945345 1.8404 0
M  V30 1135 C 109.544 -1.77336 0.647885 0
M  V30 1136 O 108.901 -1.78425 -0.383511 0
M  V30 1137 C 108.952 -1.8509 3.10522 0
M  V30 1138 O 108.673 -1.05634 4.25174 0
M  V30 1139 C 110.174 -2.70222 3.51418 0
M  V30 1140 H 107.394 -0.276372 0.61144 0
M  V30 1141 H 109.938 -0.217417 2.03341 0
M  V30 1142 H 108.093 -2.53259 2.93153 0
M  V30 1143 H 108.507 -1.67238 4.97124 0
M  V30 1144 H 109.981 -3.29438 4.42916 0
M  V30 1145 H 110.458 -3.43358 2.73864 0
M  V30 1146 H 111.064 -2.07443 3.71278 0
M  V30 1147 N 109.379 -1.50304 -0.473955 0
M  V30 1148 C 110.625 -1.61389 -1.22806 0
M  V30 1149 C 110.958 -0.311955 -1.91678 0
M  V30 1150 O 110.233 0.686384 -1.81986 0
M  V30 1151 C 110.516 -2.79219 -2.27396 0
M  V30 1152 C 110.369 -4.19286 -1.62848 0
M  V30 1153 C 111.688 -2.92614 -3.28732 0
M  V30 1154 H 108.807 -0.587399 -0.445119 0
M  V30 1155 H 111.449 -1.82681 -0.522265 0
M  V30 1156 H 109.599 -2.61195 -2.87592 0
M  V30 1157 H 111.271 -4.48892 -1.06271 0
M  V30 1158 H 109.514 -4.23677 -0.931693 0
M  V30 1159 H 110.185 -4.97655 -2.38838 0
M  V30 1160 H 112.661 -3.09105 -2.78556 0
M  V30 1161 H 111.537 -3.76688 -3.99246 0
M  V30 1162 H 111.798 -2.03107 -3.92683 0
M  V30 1163 N 110.857 0.726932 -1.39834 0
M  V30 1164 C 111.82 1.82269 -1.38962 0
M  V30 1165 C 112.82 1.58248 -0.285334 0
M  V30 1166 O 114.01 1.65499 -0.54366 0
M  V30 1167 C 111.142 3.20186 -1.17019 0
M  V30 1168 H 112.335 1.84443 -2.36476 0
M  V30 1169 H 109.888 0.931416 -1.25516 0
M  V30 1170 H 110.623 3.23669 -0.202204 0
M  V30 1171 H 110.408 3.3902 -1.96998 0
M  V30 1172 H 111.898 4.00235 -1.1917 0
M  V30 1173 N 112.336 1.25143 0.95797 0
M  V30 1174 C 113.266 1.07711 2.07173 0
M  V30 1175 C 114.247 -0.0128462 1.70095 0
M  V30 1176 O 115.432 0.156061 1.93572 0
M  V30 1177 C 112.562 0.691503 3.40346 0
M  V30 1178 C 111.516 1.73132 3.9142 0
M  V30 1179 C 110.842 1.20049 5.21049 0
M  V30 1180 C 112.142 3.1294 4.1817 0
M  V30 1181 H 113.836 2.00873 2.22014 0
M  V30 1182 H 111.382 0.967191 1.06684 0
M  V30 1183 H 113.335 0.556505 4.17709 0
M  V30 1184 H 112.059 -0.275819 3.25433 0
M  V30 1185 H 110.718 1.8547 3.16222 0
M  V30 1186 H 110.366 0.223499 5.02503 0
M  V30 1187 H 110.066 1.89545 5.56189 0
M  V30 1188 H 111.59 1.07782 6.01012 0
M  V30 1189 H 113.004 3.03775 4.86203 0
M  V30 1190 H 111.401 3.79875 4.64559 0
M  V30 1191 H 112.471 3.6025 3.24573 0
M  V30 1192 N 113.814 -1.1601 1.06675 0
M  V30 1193 C 115.06 -1.86909 0.786945 0
M  V30 1194 C 115.393 -1.81717 -0.685018 0
M  V30 1195 O 114.668 -1.23551 -1.50218 0
M  V30 1196 C 114.951 -3.36313 1.28707 0
M  V30 1197 C 114.804 -3.50175 2.82308 0
M  V30 1198 C 116.123 -4.3084 0.898071 0
M  V30 1199 H 113.242 -0.678677 0.287343 0
M  V30 1200 H 115.884 -1.36336 1.32334 0
M  V30 1201 H 114.034 -3.79513 0.830768 0
M  V30 1202 H 115.706 -3.15886 3.36175 0
M  V30 1203 H 113.949 -2.91959 3.20847 0
M  V30 1204 H 114.62 -4.55116 3.12368 0
M  V30 1205 H 117.096 -3.95561 1.29114 0
M  V30 1206 H 115.972 -5.33876 1.27543 0
M  V30 1207 H 116.233 -4.41662 -0.196651 0
M  V30 1208 N 115.292 -0.849877 -1.32721 0
M  V30 1209 C 116.225 -0.235903 -2.26977 0
M  V30 1210 C 117.203 0.623355 -1.50177 0
M  V30 1211 O 118.387 0.581207 -1.79316 0
M  V30 1212 C 115.514 0.667712 -3.32053 0
M  V30 1213 C 114.56 -0.11753 -4.26338 0
M  V30 1214 S 115.393 -1.48277 -5.14562 0
M  V30 1215 C 116.549 -0.584741 -6.23163 0
M  V30 1216 H 116.782 -1.03495 -2.78704 0
M  V30 1217 H 114.315 -0.64724 -1.40179 0
M  V30 1218 H 116.273 1.18343 -3.93072 0
M  V30 1219 H 114.934 1.44052 -2.7912 0
M  V30 1220 H 114.127 0.57051 -5.00761 0
M  V30 1221 H 113.729 -0.564668 -3.69713 0
M  V30 1222 H 116.021 0.212968 -6.77165 0
M  V30 1223 H 116.964 -1.29947 -6.96074 0
M  V30 1224 H 117.372 -0.161202 -5.6427 0
M  V30 1225 N 116.77 1.45427 -0.607355 0
M  V30 1226 C 117.7 2.3329 0.0989352 0
M  V30 1227 C 118.681 1.46816 0.859007 0
M  V30 1228 O 119.866 1.75588 0.829604 0
M  V30 1229 C 116.996 3.29518 1.09705 0
M  V30 1230 C 115.95 4.25626 0.450206 0
M  V30 1231 C 115.276 5.11542 1.55655 0
M  V30 1232 C 116.576 5.18505 -0.628455 0
M  V30 1233 H 118.27 2.92595 -0.634716 0
M  V30 1234 H 115.816 1.40696 -0.306681 0
M  V30 1235 H 117.769 3.89855 1.59971 0
M  V30 1236 H 116.493 2.68372 1.86129 0
M  V30 1237 H 115.152 3.66586 -0.0315886 0
M  V30 1238 H 114.8 4.46765 2.31107 0
M  V30 1239 H 114.5 5.76647 1.12925 0
M  V30 1240 H 116.024 5.74748 2.06148 0
M  V30 1241 H 117.438 5.72916 -0.209877 0
M  V30 1242 H 115.835 5.92085 -0.977489 0
M  V30 1243 H 116.905 4.60948 -1.50514 0
M  V30 1244 N 118.248 0.346503 1.53744 0
M  V30 1245 C 119.664 -0.00530975 1.59599 0
M  V30 1246 C 119.864 -1.48465 1.36236 0
M  V30 1247 O 118.92 -2.24376 1.15808 0
M  V30 1248 C 120.233 0.433516 2.97559 0
M  V30 1249 C 121.781 0.386111 3.10609 0
M  V30 1250 C 122.256 0.800451 4.50951 0
M  V30 1251 N 123.747 0.754753 4.5701 0
M  V30 1252 C 124.482 1.04727 5.63755 0
M  V30 1253 N 123.978 1.4081 6.7834 0
M  V30 1254 N 125.771 0.971316 5.53644 0
M  V30 1255 H 117.922 1.31009 1.67184 0
M  V30 1256 H 120.185 0.534242 0.783128 0
M  V30 1257 H 119.891 1.46509 3.19731 0
M  V30 1258 H 119.765 -0.189753 3.76722 0
M  V30 1259 H 122.152 -0.636295 2.88158 0
M  V30 1260 H 122.233 1.04462 2.33498 0
M  V30 1261 H 121.877 1.82088 4.74137 0
M  V30 1262 H 121.807 0.119386 5.26465 0
M  V30 1263 H 124.298 0.488662 3.74727 0
M  V30 1264 H 124.611 1.61607 7.55714 0
M  V30 1265 H 122.956 1.44657 6.79779 0
M  V30 1266 H 126.147 0.688748 4.63005 0
M  V30 1267 H 126.32 1.20263 6.36742 0
M  V30 1268 N 119.726 -1.57421 0.075193 0
M  V30 1269 C 120.956 -1.97659 -0.601203 0
M  V30 1270 C 121.364 -0.952427 -1.63479 0
M  V30 1271 O 120.707 0.0688241 -1.83571 0
M  V30 1272 C 120.769 -3.34218 -1.32434 0
M  V30 1273 C 120.433 -4.5484 -0.443826 0
M  V30 1274 C 121.43 -5.19034 0.299969 0
M  V30 1275 C 119.115 -5.00952 -0.367709 0
M  V30 1276 C 121.109 -6.27695 1.10807 0
M  V30 1277 C 118.796 -6.09484 0.444058 0
M  V30 1278 C 119.794 -6.72719 1.18061 0
M  V30 1279 O 119.482 -7.79161 1.97898 0
M  V30 1280 H 119.214 -0.65494 -0.167422 0
M  V30 1281 H 121.768 -2.04886 0.145157 0
M  V30 1282 H 119.998 -3.23615 -2.11685 0
M  V30 1283 H 121.687 -3.59038 -1.89331 0
M  V30 1284 H 122.453 -4.84351 0.250776 0
M  V30 1285 H 118.332 -4.51509 -0.930638 0
M  V30 1286 H 121.876 -6.76982 1.68347 0
M  V30 1287 H 117.773 -6.43601 0.494803 0
M  V30 1288 H 118.541 -7.96055 1.90367 0
M  V30 1289 N 121.204 0.198386 -1.56346 0
M  V30 1290 C 122.451 0.919286 -1.80431 0
M  V30 1291 C 122.779 1.83393 -0.647866 0
M  V30 1292 O 122.034 1.92236 0.366556 0
M  V30 1293 C 122.333 1.77031 -3.10475 0
M  V30 1294 C 121.999 1.00693 -4.39513 0
M  V30 1295 C 120.661 0.796145 -4.74568 0
M  V30 1296 C 123.013 0.469559 -5.19081 0
M  V30 1297 C 120.341 0.0364588 -5.86689 0
M  V30 1298 C 122.693 -0.2769 -6.31994 0
M  V30 1299 C 121.357 -0.49873 -6.65634 0
M  V30 1300 H 120.627 0.336391 -0.660244 0
M  V30 1301 H 123.274 0.185872 -1.90596 0
M  V30 1302 H 121.579 2.5723 -2.95533 0
M  V30 1303 H 123.276 2.33065 -3.26315 0
M  V30 1304 H 119.866 1.18122 -4.12001 0
M  V30 1305 H 124.05 0.619816 -4.92414 0
M  V30 1306 H 119.306 -0.145412 -6.11227 0
M  V30 1307 H 123.48 -0.700684 -6.92866 0
M  V30 1308 H 121.107 -1.0893 -7.52355 0
M  V30 1309 N 122.682 1.50554 0.465978 0
M  V30 1310 C 123.931 1.61038 1.21448 0
M  V30 1311 C 124.244 0.31865 1.92987 0
M  V30 1312 O 125.45 0.302469 2.6981 0
M  V30 1313 C 123.906 2.84283 2.20706 0
M  V30 1314 C 123.514 4.20352 1.54946 0
M  V30 1315 C 125.258 3.04115 2.96166 0
M  V30 1316 C 123.165 5.34778 2.5252 0
M  V30 1317 H 122.095 0.599718 0.457005 0
M  V30 1318 H 124.746 1.7699 0.484424 0
M  V30 1319 H 123.128 2.61901 2.97025 0
M  V30 1320 H 124.302 4.53008 0.843811 0
M  V30 1321 H 122.617 4.06167 0.917475 0
M  V30 1322 H 125.214 3.86774 3.69202 0
M  V30 1323 H 125.557 2.16045 3.55852 0
M  V30 1324 H 126.09 3.26702 2.26959 0
M  V30 1325 H 122.829 6.25018 1.97566 0
M  V30 1326 H 122.349 5.06534 3.21222 0
M  V30 1327 H 124.028 5.65561 3.14245 0
M  V30 1328 N 124.16 -0.719506 1.40217 0
M  V30 1329 C 125.108 -1.85493 1.40339 0
M  V30 1330 C 126.102 -1.66995 0.284415 0
M  V30 1331 O 127.308 -1.74148 0.455252 0
M  V30 1332 H 123.683 -0.610857 0.438586 0
M  V30 1333 H 125.654 -1.82506 2.36081 0
M  V30 1334 C 124.403 -3.23321 1.27901 0
M  V30 1335 H 123.726 -3.38159 2.1328 0
M  V30 1336 H 125.166 -4.02914 1.32045 0
M  V30 1337 C 123.625 -3.36898 -0.0111355 0
M  V30 1338 O 124.155 -3.89674 -0.975538 0
M  V30 1339 N 122.361 -2.90492 -0.0793393 0
M  V30 1340 H 121.908 -2.47731 0.706183 0
M  V30 1341 H 121.866 -2.99955 -0.942038 0
M  V30 1342 N 125.638 -1.25649 -0.95132 0
M  V30 1343 C 126.585 -1.06323 -2.04851 0
M  V30 1344 C 127.555 0.0286491 -1.66075 0
M  V30 1345 O 128.74 -0.12917 -1.90362 0
M  V30 1346 C 125.88 -0.691529 -3.381 0
M  V30 1347 C 124.993 -1.85861 -3.89974 0
M  V30 1348 C 124.128 -1.43096 -5.11563 0
M  V30 1349 C 123.167 -2.56696 -5.55674 0
M  V30 1350 N 122.304 -2.14684 -6.68472 0
M  V30 1351 H 127.144 -2.00222 -2.20715 0
M  V30 1352 H 124.681 -0.997027 -1.08156 0
M  V30 1353 H 126.639 -0.456963 -4.1469 0
M  V30 1354 H 125.269 0.210474 -3.22113 0
M  V30 1355 H 124.321 -2.20639 -3.09875 0
M  V30 1356 H 125.633 -2.71161 -4.18657 0
M  V30 1357 H 124.787 -1.15624 -5.9558 0
M  V30 1358 H 123.526 -0.548722 -4.84603 0
M  V30 1359 H 122.531 -2.84909 -4.7022 0
M  V30 1360 H 123.756 -3.45503 -5.8464 0
M  V30 1361 H 121.702 -1.28881 -6.43215 0
M  V30 1362 H 121.619 -2.9353 -6.96689 0
M  V30 1363 H 122.887 -1.90397 -7.5589 0
M  V30 1364 N 127.117 1.15442 -1.07289 0
M  V30 1365 C 128.08 2.18358 -0.696591 0
M  V30 1366 C 129.08 1.58637 0.262837 0
M  V30 1367 O 130.27 1.74145 0.0438809 0
M  V30 1368 C 127.402 3.4089 -0.0266151 0
M  V30 1369 H 128.595 2.53162 -1.60776 0
M  V30 1370 H 126.148 1.29893 -0.869342 0
M  V30 1371 H 126.883 3.11653 0.896822 0
M  V30 1372 H 126.668 3.85495 -0.716657 0
M  V30 1373 H 128.158 4.17009 0.222028 0
M  V30 1374 N 128.595 0.856903 1.32268 0
M  V30 1375 C 129.542 0.301172 2.28827 0
M  V30 1376 C 130.512 -0.593104 1.5515 0
M  V30 1377 O 131.697 -0.527537 1.83362 0
M  V30 1378 C 128.837 -0.502523 3.41422 0
M  V30 1379 C 127.95 0.417797 4.29975 0
M  V30 1380 C 127.085 -0.398749 5.29701 0
M  V30 1381 C 126.124 0.518827 6.09897 0
M  V30 1382 N 125.261 -0.260674 7.01616 0
M  V30 1383 H 130.101 1.12983 2.75751 0
M  V30 1384 H 127.638 0.568582 1.35667 0
M  V30 1385 H 129.596 -0.984141 4.05426 0
M  V30 1386 H 128.226 -1.29599 2.95642 0
M  V30 1387 H 127.278 1.01781 3.66531 0
M  V30 1388 H 128.59 1.12191 4.86019 0
M  V30 1389 H 127.744 -0.943435 5.9932 0
M  V30 1390 H 126.483 -1.13622 4.7428 0
M  V30 1391 H 125.488 1.07538 5.39181 0
M  V30 1392 H 126.713 1.25495 6.67404 0
M  V30 1393 H 124.659 -0.981198 6.4862 0
M  V30 1394 H 124.576 0.384364 7.55022 0
M  V30 1395 H 125.844 -0.787014 7.75517 0
M  V30 1396 N 130.073 -1.45103 0.615059 0
M  V30 1397 C 131.321 -2.01784 0.112955 0
M  V30 1398 C 131.642 -1.48504 -1.26378 0
M  V30 1399 O 130.912 -0.682245 -1.83636 0
M  V30 1400 H 129.492 -0.745993 0.0387668 0
M  V30 1401 H 132.154 -1.77808 0.798141 0
M  V30 1402 H 131.25 -3.12025 0.0684069 0
M  V30 1403 N 131.551 -0.354651 -1.53558 0
M  V30 1404 C 132.799 0.237972 -2.00694 0
M  V30 1405 C 133.12 1.50173 -1.24391 0
M  V30 1406 O 132.39 1.92673 -0.354135 0
M  V30 1407 H 130.97 0.0909256 -0.741446 0
M  V30 1408 H 133.632 -0.478368 -1.88938 0
M  V30 1409 H 132.728 0.47264 -3.085 0
M  V30 1410 N 133.029 1.57378 -0.0835403 0
M  V30 1411 C 133.962 2.09016 0.915833 0
M  V30 1412 C 134.94 0.997993 1.2837 0
M  V30 1413 O 136.124 1.27219 1.39096 0
M  V30 1414 C 133.251 2.55757 2.22049 0
M  V30 1415 C 132.297 3.76522 2.00333 0
M  V30 1416 S 133.13 5.20661 1.25191 0
M  V30 1417 C 134.286 5.70743 2.56912 0
M  V30 1418 H 134.519 2.93457 0.476492 0
M  V30 1419 H 132.052 1.53856 0.129493 0
M  V30 1420 H 134.01 2.83346 2.97027 0
M  V30 1421 H 132.671 1.71564 2.63106 0
M  V30 1422 H 131.864 4.07256 2.96916 0
M  V30 1423 H 131.466 3.49367 1.33488 0
M  V30 1424 H 133.758 5.78304 3.52946 0
M  V30 1425 H 134.701 6.6944 2.30772 0
M  V30 1426 H 135.109 4.98616 2.64655 0
M  V30 1427 N 134.507 -0.190092 1.56449 0
M  V30 1428 C 135.455 -1.25501 1.95837 0
M  V30 1429 C 136.449 -1.4685 0.844485 0
M  V30 1430 O 137.655 -1.47651 1.02952 0
M  V30 1431 H 134.03 -0.421447 0.622805 0
M  V30 1432 H 136.001 -0.895821 2.84636 0
M  V30 1433 C 134.75 -2.59124 2.31841 0
M  V30 1434 H 134.073 -2.43514 3.17082 0
M  V30 1435 H 135.513 -3.32371 2.6326 0
M  V30 1436 C 133.972 -3.16488 1.15486 0
M  V30 1437 O 134.502 -3.99365 0.432535 0
M  V30 1438 N 132.708 -2.75305 0.930349 0
M  V30 1439 H 132.255 -2.08013 1.51948 0
M  V30 1440 H 132.213 -3.14024 0.153634 0
M  V30 1441 N 135.985 -1.50799 -0.457987 0
M  V30 1442 C 136.915 -1.73553 -1.5621 0
M  V30 1443 C 137.896 -0.584774 -1.59732 0
M  V30 1444 O 139.081 -0.825314 -1.7579 0
M  V30 1445 C 136.211 -1.84169 -2.94447 0
M  V30 1446 C 135.165 -2.99461 -3.0579 0
M  V30 1447 C 134.491 -2.95235 -4.45803 0
M  V30 1448 C 135.791 -4.39766 -2.81786 0
M  V30 1449 H 137.485 -2.66 -1.37421 0
M  V30 1450 H 135.031 -1.28002 -0.659662 0
M  V30 1451 H 136.984 -1.98672 -3.71628 0
M  V30 1452 H 135.708 -0.883545 -3.14422 0
M  V30 1453 H 134.367 -2.8463 -2.31044 0
M  V30 1454 H 134.015 -1.97239 -4.62715 0
M  V30 1455 H 133.715 -3.72642 -4.54326 0
M  V30 1456 H 135.239 -3.11803 -5.24987 0
M  V30 1457 H 136.653 -4.55054 -3.4871 0
M  V30 1458 H 135.05 -5.18722 -3.0174 0
M  V30 1459 H 136.12 -4.51229 -1.7754 0
M  V30 1460 N 137.463 0.71206 -1.40597 0
M  V30 1461 C 138.71 1.47197 -1.39065 0
M  V30 1462 C 139.038 1.94499 0.00583891 0
M  V30 1463 O 138.293 1.68752 0.99102 0
M  V30 1464 C 138.592 2.71039 -2.32965 0
M  V30 1465 C 138.258 2.42484 -3.80148 0
M  V30 1466 C 136.92 2.34406 -4.20247 0
M  V30 1467 C 139.272 2.18598 -4.73143 0
M  V30 1468 C 136.6 2.00516 -5.51371 0
M  V30 1469 C 138.952 1.8622 -6.0457 0
M  V30 1470 C 137.616 1.76626 -6.43708 0
M  V30 1471 H 136.886 0.538634 -0.508876 0
M  V30 1472 H 139.533 0.815325 -1.73276 0
M  V30 1473 H 137.838 3.41558 -1.91951 0
M  V30 1474 H 139.535 3.29138 -2.29061 0
M  V30 1475 H 136.125 2.49659 -3.4838 0
M  V30 1476 H 140.309 2.23793 -4.42979 0
M  V30 1477 H 135.565 1.91628 -5.80593 0
M  V30 1478 H 139.739 1.66752 -6.76141 0
M  V30 1479 H 137.366 1.50133 -7.45228 0
M  V30 1480 N 138.941 1.26152 0.944643 0
M  V30 1481 C 139.888 1.07408 2.04285 0
M  V30 1482 C 140.858 -0.0198413 1.66088 0
M  V30 1483 O 142.043 0.139264 1.90291 0
M  V30 1484 C 139.183 0.70945 3.37729 0
M  V30 1485 C 138.296 1.87926 3.88983 0
M  V30 1486 C 137.431 1.45807 5.10797 0
M  V30 1487 C 136.47 2.5964 5.54305 0
M  V30 1488 N 135.607 2.18226 6.67324 0
M  V30 1489 H 140.447 2.01389 2.1965 0
M  V30 1490 H 137.984 1.00275 1.07626 0
M  V30 1491 H 139.942 0.478948 4.14442 0
M  V30 1492 H 138.572 -0.193389 3.2222 0
M  V30 1493 H 137.624 2.22279 3.08701 0
M  V30 1494 H 138.936 2.73377 4.17213 0
M  V30 1495 H 138.09 1.18781 5.94959 0
M  V30 1496 H 136.829 0.574414 4.84305 0
M  V30 1497 H 135.834 2.87399 4.68702 0
M  V30 1498 H 137.059 3.48599 5.828 0
M  V30 1499 H 135.005 1.3229 6.42523 0
M  V30 1500 H 134.922 2.97221 6.95123 0
M  V30 1501 H 136.19 1.94403 7.54869 0
M  V30 1502 N 140.419 -1.14872 1.07899 0
M  V30 1503 C 141.83 -1.67367 0.827363 0
M  V30 1504 C 142.181 -1.85236 -0.646693 0
M  V30 1505 O 141.306 -1.55974 -1.50004 0
M  V30 1506 C 141.901 -3.04016 1.49532 0
M  V30 1507 C 140.46 -3.53566 1.29106 0
M  V30 1508 C 139.607 -2.29161 1.56143 0
M  V30 1509 H 142.558 -0.990083 1.24028 0
M  V30 1510 H 142.579 -3.69219 0.919643 0
M  V30 1511 H 142.091 -2.90978 2.56814 0
M  V30 1512 H 140.192 -3.71835 0.238713 0
M  V30 1513 H 140.305 -4.34661 2.01511 0
M  V30 1514 H 138.669 -2.34978 0.982717 0
M  V30 1515 H 139.452 -2.18705 2.64619 0
M  V30 1516 N 141.898 -0.863906 -1.31812 0
M  V30 1517 C 143.314 -0.555004 -1.49639 0
M  V30 1518 C 143.514 0.912266 -1.79666 0
M  V30 1519 O 142.57 1.69479 -1.87171 0
M  V30 1520 C 143.883 -1.44998 -2.63431 0
M  V30 1521 C 145.431 -1.45138 -2.77316 0
M  V30 1522 C 145.906 -2.33179 -3.94197 0
M  V30 1523 N 147.397 -2.31025 -4.01474 0
M  V30 1524 C 148.132 -2.95871 -4.9117 0
M  V30 1525 N 147.628 -3.69863 -5.8581 0
M  V30 1526 N 149.421 -2.85211 -4.84367 0
M  V30 1527 H 141.572 -1.81339 -1.10589 0
M  V30 1528 H 143.835 -0.77505 -0.545895 0
M  V30 1529 H 143.541 -2.49377 -2.48 0
M  V30 1530 H 143.415 -1.14409 -3.59431 0
M  V30 1531 H 145.802 -0.415201 -2.92164 0
M  V30 1532 H 145.883 -1.79747 -1.82001 0
M  V30 1533 H 145.527 -3.3687 -3.80107 0
M  V30 1534 H 145.457 -1.95897 -4.88807 0
M  V30 1535 H 147.948 -1.77238 -3.33759 0
M  V30 1536 H 148.261 -4.16486 -6.50968 0
M  V30 1537 H 146.606 -3.73971 -5.85808 0
M  V30 1538 H 149.797 -2.26948 -4.09405 0
M  V30 1539 H 149.97 -3.36027 -5.54066 0
M  V30 1540 N 143.376 1.44774 -0.622745 0
M  V30 1541 C 144.622 2.0242 -0.124083 0
M  V30 1542 C 144.955 1.4881 1.24777 0
M  V30 1543 O 144.23 0.668799 1.8264 0
M  V30 1544 C 144.513 3.59957 -0.101619 0
M  V30 1545 C 144.366 4.23867 -1.50521 0
M  V30 1546 C 145.685 4.36284 0.578272 0
M  V30 1547 H 142.804 0.735528 -0.0465645 0
M  V30 1548 H 145.446 1.72447 -0.797617 0
M  V30 1549 H 143.596 3.85623 0.471934 0
M  V30 1550 H 145.268 4.09336 -2.12701 0
M  V30 1551 H 143.511 3.81684 -2.06154 0
M  V30 1552 H 144.182 5.32843 -1.4416 0
M  V30 1553 H 146.658 4.16001 0.0906057 0
M  V30 1554 H 145.534 5.46004 0.563149 0
M  V30 1555 H 145.795 4.10271 1.64713 0
M  V30 1556 N 144.854 0.36279 1.53368 0
M  V30 1557 C 146.1 -0.228113 2.01513 0
M  V30 1558 C 146.433 -1.48648 1.2497 0
M  V30 1559 O 145.708 -1.91459 0.342616 0
M  V30 1560 C 145.991 -0.522884 3.56284 0
M  V30 1561 C 145.844 0.74892 4.43521 0
M  V30 1562 C 147.163 -1.32461 4.19693 0
M  V30 1563 H 144.282 -0.0814343 0.732487 0
M  V30 1564 H 146.924 0.48713 1.83649 0
M  V30 1565 H 145.074 -1.1322 3.71636 0
M  V30 1566 H 146.746 1.38648 4.39971 0
M  V30 1567 H 144.989 1.36986 4.11603 0
M  V30 1568 H 145.66 0.497667 5.49752 0
M  V30 1569 H 148.136 -0.809203 4.08156 0
M  V30 1570 H 147.012 -1.49961 5.28018 0
M  V30 1571 H 147.273 -2.33232 3.75573 0
M  V30 1572 N 146.332 -1.57332 0.0918853 0
M  V30 1573 C 147.581 -1.93412 -0.572249 0
M  V30 1574 C 147.894 -0.975515 -1.69538 0
M  V30 1575 O 149.1 -1.22991 -2.42045 0
M  V30 1576 C 147.556 -3.43648 -1.0693 0
M  V30 1577 C 147.164 -4.47994 0.0239049 0
M  V30 1578 C 148.908 -3.88695 -1.70635 0
M  V30 1579 C 146.815 -5.89381 -0.488319 0
M  V30 1580 H 145.745 -0.721939 -0.217532 0
M  V30 1581 H 148.396 -1.82735 0.167369 0
M  V30 1582 H 146.778 -3.49466 -1.8625 0
M  V30 1583 H 147.952 -4.53815 0.799277 0
M  V30 1584 H 146.267 -4.12536 0.565946 0
M  V30 1585 H 148.864 -4.91725 -2.10025 0
M  V30 1586 H 149.207 -3.27166 -2.57426 0
M  V30 1587 H 149.74 -3.85564 -0.979023 0
M  V30 1588 H 146.479 -6.54602 0.342906 0
M  V30 1589 H 145.999 -5.87037 -1.23077 0
M  V30 1590 H 147.678 -6.39863 -0.958317 0
M  V30 1591 N 147.81 0.181792 -1.56548 0
M  V30 1592 C 149.058 0.89832 -1.81038 0
M  V30 1593 C 149.379 1.83232 -0.667164 0
M  V30 1594 O 148.649 1.93372 0.313673 0
M  V30 1595 H 147.229 0.33471 -0.667816 0
M  V30 1596 H 149.891 0.184116 -1.94028 0
M  V30 1597 H 148.987 1.4815 -2.74696 0
M  V30 1598 N 149.288 1.51039 0.449983 0
M  V30 1599 C 150.534 1.63322 1.20223 0
M  V30 1600 C 150.867 0.34241 1.91158 0
M  V30 1601 O 150.142 -0.657344 1.83055 0
M  V30 1602 C 150.425 2.82801 2.22925 0
M  V30 1603 C 150.278 4.21823 1.56157 0
M  V30 1604 C 151.597 2.97807 3.24035 0
M  V30 1605 H 148.716 0.594407 0.435718 0
M  V30 1606 H 151.358 1.83489 0.493136 0
M  V30 1607 H 149.508 2.65738 2.834 0
M  V30 1608 H 151.18 4.50526 0.991162 0
M  V30 1609 H 149.423 4.25105 0.864172 0
M  V30 1610 H 150.094 5.01391 2.30891 0
M  V30 1611 H 152.57 3.13497 2.73603 0
M  V30 1612 H 151.446 3.82992 3.93202 0
M  V30 1613 H 151.707 2.09328 3.89402 0
M  V30 1614 N 150.766 -0.704594 1.40972 0
M  V30 1615 C 152.177 -1.28418 1.3552 0
M  V30 1616 C 152.528 -1.96171 0.0339434 0
M  V30 1617 O 151.653 -1.98231 -0.867944 0
M  V30 1618 C 152.248 -2.33528 2.45459 0
M  V30 1619 C 150.807 -2.87085 2.43433 0
M  V30 1620 C 149.954 -1.61007 2.2577 0
M  V30 1621 H 152.905 -0.499963 1.50619 0
M  V30 1622 H 152.926 -3.14619 2.13998 0
M  V30 1623 H 152.438 -1.84187 3.41609 0
M  V30 1624 H 150.539 -3.40626 1.51013 0
M  V30 1625 H 150.652 -3.3813 3.39419 0
M  V30 1626 H 149.016 -1.86482 1.73483 0
M  V30 1627 H 149.799 -1.13675 3.23933 0
M  V30 1628 N 152.244 -1.26651 -0.937939 0
M  V30 1629 C 153.493 -1.11775 -1.67897 0
M  V30 1630 C 153.806 0.33794 -1.92659 0
M  V30 1631 O 155.012 0.607434 -2.64618 0
M  V30 1632 C 153.468 -1.9523 -3.02346 0
M  V30 1633 C 153.076 -3.45393 -2.8532 0
M  V30 1634 C 154.82 -1.88972 -3.80118 0
M  V30 1635 C 152.727 -4.21083 -4.15263 0
M  V30 1636 H 151.657 -0.414696 -0.629717 0
M  V30 1637 H 154.308 -1.50988 -1.04283 0
M  V30 1638 H 152.69 -1.48853 -3.66959 0
M  V30 1639 H 153.864 -3.99561 -2.29537 0
M  V30 1640 H 152.179 -3.52921 -2.20988 0
M  V30 1641 H 154.776 -2.42805 -4.76392 0
M  V30 1642 H 155.119 -0.86113 -4.07296 0
M  V30 1643 H 155.652 -2.33189 -3.22285 0
M  V30 1644 H 152.391 -5.24425 -3.93267 0
M  V30 1645 H 151.911 -3.71695 -4.70747 0
M  V30 1646 H 153.59 -4.29706 -4.83696 0
M  V30 1647 N 153.722 1.14298 -1.08507 0
M  V30 1648 C 154.97 1.84993 -0.813763 0
M  V30 1649 C 155.291 1.83405 0.662393 0
M  V30 1650 O 154.561 1.28319 1.48024 0
M  V30 1651 H 153.141 0.684966 -0.298045 0
M  V30 1652 H 155.803 1.385 -1.37126 0
M  V30 1653 H 154.899 2.89788 -1.15884 0
M  V30 1654 N 155.201 0.870884 1.31352 0
M  V30 1655 C 156.45 0.478408 1.95944 0
M  V30 1656 C 156.763 -0.974493 1.69597 0
M  V30 1657 O 157.969 -1.47316 2.28058 0
M  V30 1658 C 156.425 0.804609 3.50791 0
M  V30 1659 C 156.033 2.27433 3.85977 0
M  V30 1660 C 157.777 0.480648 4.2177 0
M  V30 1661 C 155.684 2.5429 5.33939 0
M  V30 1662 H 154.614 0.175175 0.733369 0
M  V30 1663 H 157.265 1.06391 1.4951 0
M  V30 1664 H 155.647 0.148347 3.95722 0
M  V30 1665 H 156.821 2.97373 3.52002 0
M  V30 1666 H 155.136 2.56442 3.28065 0
M  V30 1667 H 157.733 0.658519 5.30629 0
M  V30 1668 H 158.076 -0.578979 4.12254 0
M  V30 1669 H 158.609 1.09349 3.82476 0
M  V30 1670 H 155.348 3.58939 5.48491 0
M  V30 1671 H 154.868 1.88945 5.69263 0
M  V30 1672 H 156.547 2.39066 6.01212 0
M  V30 1673 N 156.679 -1.44442 0.630414 0
M  V30 1674 C 157.907 -2.06414 0.141671 0
M  V30 1675 C 158.322 -1.47105 -1.18345 0
M  V30 1676 O 157.679 -0.593662 -1.72574 0
M  V30 1677 C 157.73 -3.61494 0.0199784 0
M  V30 1678 O 157.451 -4.18594 1.29269 0
M  V30 1679 C 158.952 -4.40499 -0.497544 0
M  V30 1680 H 156.172 -0.666292 0.0793452 0
M  V30 1681 H 158.716 -1.85323 0.864614 0
M  V30 1682 H 156.871 -3.8185 -0.653402 0
M  V30 1683 H 157.285 -5.12026 1.13707 0
M  V30 1684 H 158.759 -5.49433 -0.531708 0
M  V30 1685 H 159.236 -4.11895 -1.52445 0
M  V30 1686 H 159.842 -4.25061 0.142562 0
M  V30 1687 N 158.157 -0.370918 -1.53173 0
M  V30 1688 C 159.434 0.273754 -1.93675 0
M  V30 1689 C 159.814 1.65938 -1.3049 0
M  V30 1690 O 159.162 2.23698 -0.465999 0
M  V30 1691 C 159.372 0.318602 -3.47543 0
M  V30 1692 C 160.72 0.556392 -4.20939 0
M  V30 1693 O 161.744 0.399587 -3.53952 0
M  V30 1694 O 160.603 0.862133 -5.39657 0
M  V30 1695 H 157.697 0.165448 -0.810281 0
M  V30 1696 H 160.243 -0.42409 -1.64315 0
M  V30 1697 H 159.015 -0.652687 -3.85818 0
M  V30 1698 H 158.638 1.06212 -3.83151 0
M  V30 1699 N 159.635 1.57281 -0.100228 0
M  V30 1700 C 160.881 1.94826 0.563101 0
M  V30 1701 C 161.214 0.982475 1.67514 0
M  V30 1702 O 160.489 0.0164069 1.94493 0
M  V30 1703 C 160.772 3.42453 1.11346 0
M  V30 1704 C 160.625 4.498 0.00612081 0
M  V30 1705 C 161.944 3.91506 2.01024 0
M  V30 1706 H 159.063 0.708428 0.203221 0
M  V30 1707 H 161.705 1.8922 -0.171979 0
M  V30 1708 H 159.855 3.47361 1.7399 0
M  V30 1709 H 161.527 4.57 -0.628357 0
M  V30 1710 H 159.77 4.28756 -0.659581 0
M  V30 1711 H 160.441 5.50306 0.432109 0
M  V30 1712 H 162.917 3.88784 1.48278 0
M  V30 1713 H 161.793 4.95358 2.36457 0
M  V30 1714 H 162.054 3.31099 2.92961 0
M  V30 1715 N 161.113 -0.173488 1.56642 0
M  V30 1716 C 162.023 -1.23482 1.99473 0
M  V30 1717 C 163.039 -1.48567 0.905752 0
M  V30 1718 O 164.215 -1.60758 1.21321 0
M  V30 1719 C 161.28 -2.55444 2.34413 0
M  V30 1720 C 160.341 -2.38241 3.57127 0
M  V30 1721 C 159.574 -3.63909 3.90392 0
M  V30 1722 O 159.797 -4.68996 3.24653 0
M  V30 1723 O 158.731 -3.58149 4.83749 0
M  V30 1724 H 162.557 -0.901279 2.90018 0
M  V30 1725 H 160.142 -0.380185 1.44482 0
M  V30 1726 H 162.024 -3.33292 2.57865 0
M  V30 1727 H 160.699 -2.88382 1.4703 0
M  V30 1728 H 159.606 -1.58431 3.38896 0
M  V30 1729 H 160.939 -2.10228 4.45045 0
M  V30 1730 N 162.591 -1.51276 -0.441967 0
M  V30 1731 C 164.007 -1.39349 -0.778083 0
M  V30 1732 C 164.207 -0.472212 -1.95889 0
M  V30 1733 O 163.263 0.0743551 -2.5239 0
M  V30 1734 C 164.576 -2.81292 -1.0628 0
M  V30 1735 C 166.124 -2.9041 -1.16751 0
M  V30 1736 C 166.599 -4.33251 -1.48519 0
M  V30 1737 N 168.09 -4.36336 -1.55453 0
M  V30 1738 C 168.825 -5.43885 -1.81596 0
M  V30 1739 N 168.321 -6.61601 -2.05562 0
M  V30 1740 N 170.114 -5.3136 -1.8334 0
M  V30 1741 H 162.265 -2.09729 0.335774 0
M  V30 1742 H 164.528 -0.943925 0.0878028 0
M  V30 1743 H 164.234 -3.50678 -0.267905 0
M  V30 1744 H 164.108 -3.20334 -1.99163 0
M  V30 1745 H 166.495 -2.21225 -1.95304 0
M  V30 1746 H 166.576 -2.54871 -0.217801 0
M  V30 1747 H 166.22 -5.02984 -0.704958 0
M  V30 1748 H 166.15 -4.66299 -2.44689 0
M  V30 1749 H 168.641 -3.51466 -1.38853 0
M  V30 1750 H 168.954 -7.39361 -2.24867 0
M  V30 1751 H 167.299 -6.64725 -2.02894 0
M  V30 1752 H 170.49 -4.38382 -1.64132 0
M  V30 1753 H 170.663 -6.15258 -2.03377 0
M  V30 1754 N 164.069 0.697108 -1.41344 0
M  V30 1755 C 165.485 1.00751 -1.2378 0
M  V30 1756 C 165.685 2.01105 -0.126066 0
M  V30 1757 O 164.741 2.47295 0.51004 0
M  V30 1758 C 166.054 1.53359 -2.58653 0
M  V30 1759 C 167.602 1.6525 -2.65822 0
M  V30 1760 C 168.077 2.2126 -4.01009 0
M  V30 1761 N 169.568 2.28622 -4.02847 0
M  V30 1762 C 170.303 2.72984 -5.04249 0
M  V30 1763 N 169.799 3.16962 -6.16041 0
M  V30 1764 N 171.592 2.72534 -4.91611 0
M  V30 1765 H 163.743 0.0322662 -2.12375 0
M  V30 1766 H 166.006 0.0768853 -0.944877 0
M  V30 1767 H 165.712 0.870773 -3.4075 0
M  V30 1768 H 165.586 2.51597 -2.81032 0
M  V30 1769 H 167.973 2.30644 -1.84086 0
M  V30 1770 H 168.054 0.655614 -2.47256 0
M  V30 1771 H 167.698 1.56482 -4.83193 0
M  V30 1772 H 167.628 3.21698 -4.16915 0
M  V30 1773 H 170.119 1.97585 -3.22131 0
M  V30 1774 H 170.432 3.49434 -6.89287 0
M  V30 1775 H 168.777 3.14875 -6.1958 0
M  V30 1776 H 171.968 2.37525 -4.0336 0
M  V30 1777 H 172.141 3.06789 -5.70775 0
M  V30 1778 N 165.547 1.27147 0.931209 0
M  V30 1779 C 166.51 1.09615 2.01289 0
M  V30 1780 C 167.51 0.0412581 1.60747 0
M  V30 1781 O 168.7 0.285545 1.71844 0
M  V30 1782 C 165.832 0.669447 3.34262 0
M  V30 1783 H 167.025 2.05662 2.18273 0
M  V30 1784 H 164.578 1.09885 1.11153 0
M  V30 1785 H 165.313 -0.292572 3.22978 0
M  V30 1786 H 165.098 1.43127 3.65044 0
M  V30 1787 H 166.588 0.568921 4.13706 0
M  V30 1788 N 167.025 -1.13721 1.09112 0
M  V30 1789 C 168.274 -1.84275 0.82009 0
M  V30 1790 C 168.587 -1.84253 -0.656509 0
M  V30 1791 O 169.793 -2.50668 -1.04296 0
M  V30 1792 C 168.249 -3.30825 1.41714 0
M  V30 1793 C 167.857 -3.39244 2.92605 0
M  V30 1794 C 169.601 -4.06443 1.22492 0
M  V30 1795 C 167.508 -4.80047 3.45411 0
M  V30 1796 H 166.438 -0.690387 0.30312 0
M  V30 1797 H 169.089 -1.28146 1.31343 0
M  V30 1798 H 167.471 -3.86737 0.851498 0
M  V30 1799 H 168.645 -2.93344 3.55367 0
M  V30 1800 H 166.96 -2.77088 3.10823 0
M  V30 1801 H 169.557 -5.10387 1.59402 0
M  V30 1802 H 169.9 -4.15972 0.165299 0
M  V30 1803 H 170.433 -3.56852 1.75788 0
M  V30 1804 H 167.172 -4.75709 4.50978 0
M  V30 1805 H 166.692 -5.26455 2.87411 0
M  V30 1806 H 168.371 -5.48957 3.42425 0
M  V30 1807 N 168.503 -0.877838 -1.30888 0
M  V30 1808 C 169.433 -0.35534 -2.3078 0
M  V30 1809 C 170.414 0.557994 -1.60687 0
M  V30 1810 O 171.599 0.473355 -1.88343 0
M  V30 1811 C 168.729 0.437221 -3.44537 0
M  V30 1812 C 167.683 -0.383715 -4.26276 0
M  V30 1813 C 167.009 0.535014 -5.32017 0
M  V30 1814 C 168.309 -1.62201 -4.96476 0
M  V30 1815 H 170.003 -1.19007 -2.74732 0
M  V30 1816 H 167.549 -0.573698 -1.32078 0
M  V30 1817 H 169.502 0.813334 -4.13477 0
M  V30 1818 H 168.226 1.30553 -2.99372 0
M  V30 1819 H 166.885 -0.741874 -3.59015 0
M  V30 1820 H 166.533 1.40083 -4.831 0
M  V30 1821 H 166.233 -0.0104211 -5.87599 0
M  V30 1822 H 167.757 0.907799 -6.03814 0
M  V30 1823 H 169.171 -1.31689 -5.5797 0
M  V30 1824 H 167.568 -2.10711 -5.61891 0
M  V30 1825 H 168.638 -2.37044 -4.23011 0
M  V30 1826 N 169.982 1.44106 -0.638065 0
M  V30 1827 C 171.259 1.95453 -0.0759321 0
M  V30 1828 C 171.639 1.57984 1.40015 0
M  V30 1829 O 170.987 0.857361 2.11806 0
M  V30 1830 C 171.197 3.47655 -0.306132 0
M  V30 1831 C 172.545 4.24114 -0.203008 0
M  V30 1832 O 173.569 3.55405 -0.237871 0
M  V30 1833 O 172.428 5.46381 -0.113827 0
M  V30 1834 H 169.522 0.826797 0.0183332 0
M  V30 1835 H 172.068 1.54122 -0.710251 0
M  V30 1836 H 170.84 3.68 -1.3301 0
M  V30 1837 H 170.463 3.95949 0.361991 0
M  V30 1838 N 171.46 0.379036 1.52974 0
M  V30 1839 C 172.423 -0.448865 2.24762 0
M  V30 1840 C 173.423 -0.998689 1.26027 0
M  V30 1841 O 174.613 -0.882313 1.50203 0
M  V30 1842 C 171.745 -1.62872 2.99476 0
M  V30 1843 H 172.938 0.179491 2.99362 0
M  V30 1844 H 170.491 0.13096 1.5575 0
M  V30 1845 H 171.226 -2.29479 2.29151 0
M  V30 1846 H 171.011 -1.24128 3.71934 0
M  V30 1847 H 172.501 -2.2151 3.5401 0
M  V30 1848 N 172.938 -1.57226 0.108567 0
M  V30 1849 C 174.186 -1.94448 -0.550853 0
M  V30 1850 C 174.507 -0.992074 -1.67878 0
M  V30 1851 O 173.777 -0.0465 -1.95845 0
M  V30 1852 H 172.357 -0.717897 -0.206479 0
M  V30 1853 H 175.019 -1.94112 0.175062 0
M  V30 1854 H 174.115 -2.97218 -0.952259 0
M  V30 1855 N 174.416 0.165178 -1.56732 0
M  V30 1856 C 175.346 1.20651 -1.99914 0
M  V30 1857 C 176.327 1.45827 -0.875705 0
M  V30 1858 O 177.512 1.57057 -1.14223 0
M  V30 1859 C 174.642 2.54401 -2.36427 0
M  V30 1860 C 173.596 2.43782 -3.51787 0
M  V30 1861 C 172.922 3.82078 -3.7406 0
M  V30 1862 C 174.222 1.93732 -4.85041 0
M  V30 1863 H 175.916 0.847534 -2.87154 0
M  V30 1864 H 173.462 0.40625 -1.38151 0
M  V30 1865 H 175.415 3.27458 -2.65234 0
M  V30 1866 H 174.139 2.92098 -1.46103 0
M  V30 1867 H 172.798 1.73178 -3.23117 0
M  V30 1868 H 172.446 4.17179 -2.81017 0
M  V30 1869 H 172.146 3.7584 -4.51684 0
M  V30 1870 H 173.67 4.56712 -4.05274 0
M  V30 1871 H 175.084 2.56569 -5.12684 0
M  V30 1872 H 173.481 1.98428 -5.66345 0
M  V30 1873 H 174.551 0.891962 -4.76626 0
M  V30 1874 N 175.894 1.51508 0.433938 0
M  V30 1875 C 176.804 1.75917 1.5521 0
M  V30 1876 C 177.82 0.643545 1.61662 0
M  V30 1877 O 178.996 0.926183 1.7884 0
M  V30 1878 C 176.061 1.88213 2.91164 0
M  V30 1879 C 175.122 3.12074 2.94802 0
M  V30 1880 C 174.355 3.23774 4.24271 0
M  V30 1881 O 174.578 2.4133 5.16833 0
M  V30 1882 O 173.512 4.16774 4.34262 0
M  V30 1883 H 177.338 2.70777 1.37527 0
M  V30 1884 H 174.923 1.36051 0.617293 0
M  V30 1885 H 176.805 1.98267 3.71845 0
M  V30 1886 H 175.48 0.965413 3.08968 0
M  V30 1887 H 174.387 3.07497 2.13065 0
M  V30 1888 H 175.72 4.03446 2.81943 0
M  V30 1889 N 177.372 -0.689602 1.41712 0
M  V30 1890 C 178.335 -1.78521 1.43746 0
M  V30 1891 C 179.335 -1.57436 0.327191 0
M  V30 1892 O 180.525 -1.64 0.587348 0
M  V30 1893 C 177.657 -3.16971 1.25467 0
M  V30 1894 H 178.85 -1.78108 2.41283 0
M  V30 1895 H 176.403 -0.89781 1.27942 0
M  V30 1896 H 177.138 -3.23019 0.287948 0
M  V30 1897 H 176.923 -3.33678 2.05917 0
M  V30 1898 H 178.413 -3.96935 1.2974 0
M  V30 1899 N 178.85 -1.27639 -0.924453 0
M  V30 1900 C 180.098 -1.13941 -1.66918 0
M  V30 1901 C 180.419 0.314589 -1.92446 0
M  V30 1902 O 179.689 1.21964 -1.53303 0
M  V30 1903 H 178.269 -0.418678 -0.618642 0
M  V30 1904 H 180.931 -1.60213 -1.10985 0
M  V30 1905 H 180.027 -1.67094 -2.63602 0
M  V30 1906 N 180.328 1.1314 -1.09713 0
M  V30 1907 C 181.291 2.16831 -0.742751 0
M  V30 1908 C 182.291 1.59159 0.229129 0
M  V30 1909 O 183.481 1.74199 0.00693237 0
M  V30 1910 C 180.613 3.40756 -0.0989168 0
M  V30 1911 H 181.806 2.49695 -1.66109 0
M  V30 1912 H 179.359 1.2802 -0.896699 0
M  V30 1913 H 180.094 3.13485 0.830514 0
M  V30 1914 H 179.879 3.83888 -0.798265 0
M  V30 1915 H 181.369 4.17386 0.133524 0
M  V30 1916 N 181.806 0.884767 1.30421 0
M  V30 1917 C 183.031 0.517288 2.00845 0
M  V30 1918 C 183.456 -0.886779 1.65885 0
M  V30 1919 O 182.814 -1.58768 0.875354 0
M  V30 1920 C 182.862 0.698994 3.5376 0
M  V30 1921 O 181.966 -0.255208 4.1161 0
M  V30 1922 H 181.307 0.203872 0.631927 0
M  V30 1923 H 183.837 1.19225 1.66272 0
M  V30 1924 H 183.847 0.597912 4.03595 0
M  V30 1925 H 182.522 1.72271 3.78544 0
M  V30 1926 H 181.099 -0.10784 3.72744 0
M  V30 1927 N 183.284 -1.43765 0.645699 0
M  V30 1928 C 184.231 -2.30745 -0.0504648 0
M  V30 1929 C 185.201 -1.4432 -0.822241 0
M  V30 1930 O 186.386 -1.73202 -0.800358 0
M  V30 1931 C 183.526 -3.29802 -1.0161 0
M  V30 1932 C 182.639 -4.31326 -0.241219 0
M  V30 1933 C 181.774 -5.17469 -1.19998 0
M  V30 1934 C 180.813 -6.10691 -0.415094 0
M  V30 1935 N 179.95 -6.89483 -1.32506 0
M  V30 1936 H 184.79 -2.8973 0.697155 0
M  V30 1937 H 182.327 -1.42738 0.355563 0
M  V30 1938 H 184.285 -3.85734 -1.58949 0
M  V30 1939 H 182.915 -2.72483 -1.73069 0
M  V30 1940 H 181.967 -3.77749 0.448334 0
M  V30 1941 H 183.279 -4.9743 0.369437 0
M  V30 1942 H 182.433 -5.7799 -1.84424 0
M  V30 1943 H 181.172 -4.51473 -1.84455 0
M  V30 1944 H 180.177 -5.49265 0.242565 0
M  V30 1945 H 181.402 -6.78727 0.224966 0
M  V30 1946 H 179.348 -6.26142 -1.95657 0
M  V30 1947 H 179.265 -7.52081 -0.768783 0
M  V30 1948 H 180.533 -7.54516 -1.9577 0
M  V30 1949 N 184.763 -0.387143 -1.52771 0
M  V30 1950 C 186.009 0.196025 -2.0185 0
M  V30 1951 C 186.342 1.46641 -1.27319 0
M  V30 1952 O 185.617 1.90889 -0.373032 0
M  V30 1953 C 185.9 0.466136 -3.5707 0
M  V30 1954 C 185.753 -0.819385 -4.42274 0
M  V30 1955 C 187.072 1.25768 -4.21747 0
M  V30 1956 H 184.191 0.0697708 -0.73369 0
M  V30 1957 H 186.833 -0.516286 -1.82851 0
M  V30 1958 H 184.983 1.07293 -3.7339 0
M  V30 1959 H 186.655 -1.4563 -4.37709 0
M  V30 1960 H 184.898 -1.43517 -4.09372 0
M  V30 1961 H 185.569 -0.585065 -5.48891 0
M  V30 1962 H 188.045 0.744167 -4.09391 0
M  V30 1963 H 186.921 1.41541 -5.30337 0
M  V30 1964 H 187.182 2.27228 -3.79236 0
M  V30 1965 N 186.241 1.57166 -0.116904 0
M  V30 1966 C 187.488 1.95123 0.541603 0
M  V30 1967 C 187.816 1.00006 1.6682 0
M  V30 1968 O 187.071 0.0235658 1.95686 0
M  V30 1969 C 187.37 3.39508 1.11664 0
M  V30 1970 C 187.036 4.50762 0.111606 0
M  V30 1971 C 185.698 4.80918 -0.164758 0
M  V30 1972 C 188.05 5.18036 -0.573438 0
M  V30 1973 C 185.378 5.75666 -1.13249 0
M  V30 1974 C 187.73 6.13824 -1.52978 0
M  V30 1975 C 186.394 6.42374 -1.81415 0
M  V30 1976 H 185.664 0.714005 0.198187 0
M  V30 1977 H 188.311 1.9048 -0.197365 0
M  V30 1978 H 186.616 3.40835 1.93232 0
M  V30 1979 H 188.313 3.66189 1.63422 0
M  V30 1980 H 184.903 4.27272 0.337192 0
M  V30 1981 H 189.087 4.94896 -0.373092 0
M  V30 1982 H 184.343 5.96092 -1.35958 0
M  V30 1983 H 188.517 6.65039 -2.06629 0
M  V30 1984 H 186.144 7.15599 -2.56557 0
M  V30 1985 N 187.719 -0.156864 1.56817 0
M  V30 1986 C 188.649 -1.19589 2.00551 0
M  V30 1987 C 189.63 -1.4536 0.883426 0
M  V30 1988 O 190.815 -1.56449 1.15054 0
M  V30 1989 C 187.945 -2.53143 2.37773 0
M  V30 1990 C 186.899 -2.41913 3.53075 0
M  V30 1991 C 186.225 -3.80088 3.76081 0
M  V30 1992 C 187.525 -1.91157 4.86062 0
M  V30 1993 H 189.219 -0.832293 2.87599 0
M  V30 1994 H 186.765 -0.398918 1.38364 0
M  V30 1995 H 188.718 -3.26047 2.66967 0
M  V30 1996 H 187.442 -2.91319 1.4765 0
M  V30 1997 H 186.101 -1.71462 3.24031 0
M  V30 1998 H 185.749 -4.15683 2.83225 0
M  V30 1999 H 185.449 -3.73439 4.53671 0
M  V30 2000 H 186.973 -4.54556 4.0769 0
M  V30 2001 H 188.387 -2.53846 5.14038 0
M  V30 2002 H 186.784 -1.95422 5.67389 0
M  V30 2003 H 187.854 -0.866673 4.77092 0
M  V30 2004 N 189.197 -1.51736 -0.425897 0
M  V30 2005 C 190.446 -1.64201 -1.17136 0
M  V30 2006 C 190.759 -0.369705 -1.92074 0
M  V30 2007 O 191.965 -0.373898 -2.68913 0
M  V30 2008 C 190.421 -2.90035 -2.13091 0
M  V30 2009 C 190.029 -4.24312 -1.43747 0
M  V30 2010 C 191.773 -3.1186 -2.87999 0
M  V30 2011 C 189.68 -5.41285 -2.38253 0
M  V30 2012 H 188.61 -0.611624 -0.440944 0
M  V30 2013 H 191.261 -1.78212 -0.437328 0
M  V30 2014 H 189.643 -2.69684 -2.89977 0
M  V30 2015 H 190.817 -4.55086 -0.723408 0
M  V30 2016 H 189.132 -4.08456 -0.809465 0
M  V30 2017 H 191.729 -3.96427 -3.58817 0
M  V30 2018 H 192.072 -2.25403 -3.49999 0
M  V30 2019 H 192.605 -3.32605 -2.18217 0
M  V30 2020 H 189.344 -6.30037 -1.80925 0
M  V30 2021 H 188.864 -5.14872 -3.0768 0
M  V30 2022 H 190.543 -5.73694 -2.99139 0
M  V30 2023 N 190.675 0.682077 -1.42076 0
M  V30 2024 C 191.585 1.82535 -1.47371 0
M  V30 2025 C 192.601 1.7017 -0.363079 0
M  V30 2026 O 193.777 1.91848 -0.612875 0
M  V30 2027 C 190.842 3.18624 -1.36674 0
M  V30 2028 C 189.903 3.42999 -2.58167 0
M  V30 2029 C 189.136 4.72595 -2.4797 0
M  V30 2030 O 189.359 5.50006 -1.5116 0
M  V30 2031 O 188.293 4.98054 -3.37974 0
M  V30 2032 H 192.119 1.81023 -2.43853 0
M  V30 2033 H 189.704 0.836887 -1.2376 0
M  V30 2034 H 191.586 3.99847 -1.33043 0
M  V30 2035 H 190.261 3.20789 -0.433138 0
M  V30 2036 H 189.168 2.61653 -2.67373 0
M  V30 2037 H 190.501 3.45659 -3.50401 0
M  V30 2038 N 192.153 1.28127 0.917671 0
M  V30 2039 C 193.063 1.13556 2.05286 0
M  V30 2040 C 194.079 0.0630914 1.73886 0
M  V30 2041 O 195.255 0.271598 1.9956 0
M  V30 2042 C 192.32 0.794676 3.3747 0
M  V30 2043 C 191.381 1.94909 3.82504 0
M  V30 2044 C 190.614 1.62437 5.0838 0
M  V30 2045 O 190.837 0.536905 5.67867 0
M  V30 2046 O 189.771 2.46677 5.4903 0
M  V30 2047 H 193.597 2.08844 2.20495 0
M  V30 2048 H 191.182 1.07409 1.03845 0
M  V30 2049 H 193.064 0.618344 4.16839 0
M  V30 2050 H 191.739 -0.128581 3.23445 0
M  V30 2051 H 190.646 2.18055 3.03978 0
M  V30 2052 H 191.979 2.85291 4.01086 0
M  V30 2053 N 193.631 -1.12557 1.10312 0
M  V30 2054 C 195.042 -1.65574 0.862678 0
M  V30 2055 C 195.393 -1.86566 -0.607256 0
M  V30 2056 O 194.518 -1.59121 -1.46662 0
M  V30 2057 C 195.113 -3.00776 1.55947 0
M  V30 2058 C 193.672 -3.50748 1.36576 0
M  V30 2059 C 192.819 -2.25797 1.60968 0
M  V30 2060 H 195.77 -0.963552 1.26101 0
M  V30 2061 H 195.791 -3.67185 0.997753 0
M  V30 2062 H 195.303 -2.85465 2.62928 0
M  V30 2063 H 193.404 -3.71245 0.317531 0
M  V30 2064 H 193.517 -4.30289 2.10686 0
M  V30 2065 H 191.881 -2.32841 1.03234 0
M  V30 2066 H 192.664 -2.13043 2.69198 0
M  V30 2067 N 195.109 -0.891671 -1.2995 0
M  V30 2068 C 196.042 -0.307994 -2.26112 0
M  V30 2069 C 197.02 0.575262 -1.52084 0
M  V30 2070 O 198.204 0.523864 -1.81074 0
M  V30 2071 C 195.331 0.561734 -3.34009 0
M  V30 2072 C 194.377 -0.253107 -4.25748 0
M  V30 2073 S 195.21 -1.64572 -5.09584 0
M  V30 2074 C 196.366 -0.782699 -6.20987 0
M  V30 2075 H 196.599 -1.12309 -2.75271 0
M  V30 2076 H 194.132 -0.691509 -1.38049 0
M  V30 2077 H 196.09 1.05777 -3.96638 0
M  V30 2078 H 194.751 1.35099 -2.83561 0
M  V30 2079 H 193.944 0.410908 -5.02322 0
M  V30 2080 H 193.546 -0.682004 -3.67729 0
M  V30 2081 H 195.838 -0.00257476 -6.775 0
M  V30 2082 H 196.781 -1.52026 -6.91588 0
M  V30 2083 H 197.189 -0.340638 -5.63471 0
M  V30 2084 N 196.587 1.43421 -0.653314 0
M  V30 2085 C 197.55 2.29182 0.0287951 0
M  V30 2086 C 198.55 1.42213 0.750465 0
M  V30 2087 O 199.74 1.63843 0.591701 0
M  V30 2088 C 196.872 3.24278 1.05151 0
M  V30 2089 H 198.065 2.90985 -0.725786 0
M  V30 2090 H 195.618 1.50702 -0.414545 0
M  V30 2091 H 196.353 2.6737 1.83532 0
M  V30 2092 H 196.138 3.88396 0.537687 0
M  V30 2093 H 197.628 3.88647 1.52786 0
M  V30 2094 N 198.065 0.39524 1.52563 0
M  V30 2095 C 199.028 -0.425001 2.25225 0
M  V30 2096 C 200.028 -0.985266 1.27079 0
M  V30 2097 O 201.218 -0.866332 1.5113 0
M  V30 2098 C 198.35 -1.59686 3.01186 0
M  V30 2099 H 199.543 0.211233 2.99155 0
M  V30 2100 H 197.096 0.147472 1.55603 0
M  V30 2101 H 197.831 -2.27035 2.31572 0
M  V30 2102 H 197.616 -1.20176 3.73229 0
M  V30 2103 H 199.106 -2.17743 3.5634 0
M  V30 2104 N 199.544 -1.57102 0.125237 0
M  V30 2105 C 200.507 -2.14471 -0.80838 0
M  V30 2106 C 201.507 -1.0811 -1.19033 0
M  V30 2107 O 202.697 -1.33856 -1.11482 0
M  V30 2108 C 199.829 -2.69005 -2.09402 0
M  V30 2109 H 201.022 -2.98297 -0.309696 0
M  V30 2110 H 198.575 -1.55807 -0.124051 0
M  V30 2111 H 199.31 -1.88785 -2.63687 0
M  V30 2112 H 199.095 -3.46799 -1.82957 0
M  V30 2113 H 200.585 -3.13278 -2.76128 0
M  V30 2114 N 201.022 0.148545 -1.56898 0
M  V30 2115 C 202.271 0.85984 -1.82454 0
M  V30 2116 C 202.584 1.82406 -0.706229 0
M  V30 2117 O 203.79 2.57938 -0.847349 0
M  V30 2118 C 202.246 1.57967 -3.2338 0
M  V30 2119 C 201.854 0.65794 -4.43142 0
M  V30 2120 C 203.598 2.27784 -3.58211 0
M  V30 2121 C 201.505 1.3793 -5.75091 0
M  V30 2122 H 200.435 0.324834 -0.68044 0
M  V30 2123 H 203.086 0.112588 -1.83154 0
M  V30 2124 H 201.468 2.37249 -3.17063 0
M  V30 2125 H 202.642 -0.0995497 -4.60692 0
M  V30 2126 H 200.957 0.0682643 -4.16344 0
M  V30 2127 H 203.554 2.8239 -4.54048 0
M  V30 2128 H 203.897 3.04204 -2.84193 0
M  V30 2129 H 204.43 1.55421 -3.66182 0
M  V30 2130 H 201.169 0.656982 -6.52199 0
M  V30 2131 H 200.689 2.10954 -5.61479 0
M  V30 2132 H 202.368 1.92063 -6.17835 0
M  V30 2133 N 202.5 1.5196 0.417844 0
M  V30 2134 C 203.748 1.65263 1.16329 0
M  V30 2135 C 204.069 0.380634 1.91249 0
M  V30 2136 O 203.339 -0.604214 1.86349 0
M  V30 2137 H 201.919 0.60912 0.432414 0
M  V30 2138 H 204.581 1.88969 0.477162 0
M  V30 2139 H 203.677 2.4896 1.88217 0
M  V30 2140 N 203.978 -0.674533 1.42435 0
M  V30 2141 C 205.203 -1.46784 1.46524 0
M  V30 2142 C 205.628 -1.87938 0.078066 0
M  V30 2143 O 204.986 -1.56014 -0.92354 0
M  V30 2144 C 205.034 -2.69307 2.39805 0
M  V30 2145 O 204.138 -3.67587 1.86959 0
M  V30 2146 H 203.479 -0.440959 0.496439 0
M  V30 2147 H 206.009 -0.827326 1.87127 0
M  V30 2148 H 206.019 -3.17374 2.56393 0
M  V30 2149 H 204.694 -2.38692 3.40586 0
M  V30 2150 H 203.271 -3.2662 1.79927 0
M  V30 2151 N 205.456 -1.28612 -0.910864 0
M  V30 2152 C 206.404 -1.1265 -2.03501 0
M  V30 2153 C 207.398 -0.0450054 -1.6934 0
M  V30 2154 O 208.604 -0.203988 -1.7884 0
M  V30 2155 H 204.979 -0.347639 -0.666822 0
M  V30 2156 H 206.95 -2.07849 -2.14106 0
M  V30 2157 C 205.699 -0.808143 -3.38178 0
M  V30 2158 H 205.022 -1.63231 -3.6496 0
M  V30 2159 H 206.462 -0.736426 -4.17556 0
M  V30 2160 C 204.921 0.488226 -3.33344 0
M  V30 2161 O 205.451 1.51766 -3.71927 0
M  V30 2162 N 203.657 0.490009 -2.86439 0
M  V30 2163 H 203.204 -0.348161 -2.55236 0
M  V30 2164 H 203.162 1.35741 -2.83587 0
M  V30 2165 N 206.934 1.1197 -1.10907 0
M  V30 2166 C 207.864 2.19928 -0.784473 0
M  V30 2167 C 208.845 1.6833 0.244726 0
M  V30 2168 O 210.03 1.93892 0.109418 0
M  V30 2169 C 207.16 3.46597 -0.220827 0
M  V30 2170 C 206.114 4.11376 -1.18127 0
M  V30 2171 C 205.44 5.32554 -0.478594 0
M  V30 2172 C 206.74 4.56945 -2.52979 0
M  V30 2173 H 208.434 2.47337 -1.68715 0
M  V30 2174 H 205.98 1.18879 -0.812642 0
M  V30 2175 H 207.933 4.21396 0.0184278 0
M  V30 2176 H 206.657 3.1863 0.717113 0
M  V30 2177 H 205.316 3.38564 -1.40606 0
M  V30 2178 H 204.964 5.00856 0.463976 0
M  V30 2179 H 204.664 5.76844 -1.11912 0
M  V30 2180 H 206.188 6.10096 -0.248 0
M  V30 2181 H 207.602 5.23093 -2.3462 0
M  V30 2182 H 205.999 5.1203 -3.12962 0
M  V30 2183 H 207.069 3.70676 -3.12614 0
M  V30 2184 N 208.412 0.89855 1.29475 0
M  V30 2185 C 209.36 0.365253 2.29714 0
M  V30 2186 C 210.354 -0.534993 1.6073 0
M  V30 2187 O 211.56 -0.417921 1.75081 0
M  V30 2188 H 207.935 0.0994853 0.74539 0
M  V30 2189 H 209.906 1.22406 2.72138 0
M  V30 2190 C 208.655 -0.393159 3.4547 0
M  V30 2191 H 207.978 0.290332 3.98744 0
M  V30 2192 H 209.418 -0.731189 4.17648 0
M  V30 2193 C 207.877 -1.59539 2.9673 0
M  V30 2194 O 208.407 -2.69469 2.97908 0
M  V30 2195 N 206.613 -1.43716 2.52575 0
M  V30 2196 H 206.16 -0.542828 2.51816 0
M  V30 2197 H 206.118 -2.24288 2.20323 0
M  V30 2198 N 209.89 -1.43072 0.660911 0
M  V30 2199 C 211.136 -2.0202 0.177708 0
M  V30 2200 C 211.469 -1.52066 -1.20787 0
M  V30 2201 O 210.744 -0.716987 -1.80802 0
M  V30 2202 C 211.027 -3.59561 0.197019 0
M  V30 2203 C 210.88 -4.19727 1.61706 0
M  V30 2204 C 212.199 -4.37664 -0.462396 0
M  V30 2205 H 209.318 -0.734034 0.0660494 0
M  V30 2206 H 211.96 -1.70272 0.843058 0
M  V30 2207 H 210.11 -3.86739 -0.369527 0
M  V30 2208 H 211.782 -4.03553 2.23479 0
M  V30 2209 H 210.025 -3.76084 2.16201 0
M  V30 2210 H 210.696 -5.28834 1.58237 0
M  V30 2211 H 213.172 -4.16095 0.0197215 0
M  V30 2212 H 212.048 -5.47305 -0.418188 0
M  V30 2213 H 212.309 -4.14493 -1.53778 0
M  V30 2214 N 211.368 -0.403325 -1.52352 0
M  V30 2215 C 212.278 0.432009 -2.30588 0
M  V30 2216 C 213.294 1.05884 -1.38075 0
M  V30 2217 O 214.47 1.06161 -1.71148 0
M  V30 2218 C 211.535 1.53669 -3.10784 0
M  V30 2219 C 210.596 0.933525 -4.19027 0
M  V30 2220 C 209.829 1.98557 -4.9539 0
M  V30 2221 O 210.052 3.20283 -4.71991 0
M  V30 2222 O 208.986 1.59504 -5.80381 0
M  V30 2223 H 212.812 -0.205739 -3.03002 0
M  V30 2224 H 210.397 -0.166675 -1.48467 0
M  V30 2225 H 212.279 2.17814 -3.60742 0
M  V30 2226 H 210.954 2.15915 -2.41169 0
M  V30 2227 H 209.861 0.254954 -3.7323 0
M  V30 2228 H 211.194 0.35508 -4.90918 0
M  V30 2229 N 212.846 1.57033 -0.133567 0
M  V30 2230 C 213.756 2.19632 0.824564 0
M  V30 2231 C 214.772 1.17666 1.28182 0
M  V30 2232 O 215.948 1.50193 1.3418 0
M  V30 2233 C 213.013 2.79499 2.05137 0
M  V30 2234 C 212.074 3.96548 1.64464 0
M  V30 2235 C 211.307 4.5355 2.81297 0
M  V30 2236 O 211.53 4.09438 3.97136 0
M  V30 2237 O 210.464 5.44018 2.57542 0
M  V30 2238 H 214.29 3.01991 0.321766 0
M  V30 2239 H 211.875 1.49112 0.0927889 0
M  V30 2240 H 213.757 3.17602 2.7696 0
M  V30 2241 H 212.432 2.00162 2.54395 0
M  V30 2242 H 211.339 3.63186 0.897048 0
M  V30 2243 H 212.672 4.77364 1.19934 0
M  V30 2244 N 214.325 -0.140222 1.56975 0
M  V30 2245 C 215.736 -0.699596 1.73097 0
M  V30 2246 C 216.087 -1.8134 0.749022 0
M  V30 2247 O 215.212 -2.16241 -0.0828503 0
M  V30 2248 C 215.807 -1.27582 3.1386 0
M  V30 2249 C 214.366 -1.78169 3.31561 0
M  V30 2250 C 213.513 -0.672855 2.69013 0
M  V30 2251 H 216.464 0.0855115 1.58469 0
M  V30 2252 H 216.485 -2.14561 3.14235 0
M  V30 2253 H 215.997 -0.464955 3.85305 0
M  V30 2254 H 214.098 -2.61801 2.65124 0
M  V30 2255 H 214.211 -1.90574 4.39566 0
M  V30 2256 H 212.575 -1.10118 2.29665 0
M  V30 2257 H 213.358 0.126679 3.43066 0
M  V30 2258 N 215.803 -1.52179 -0.40978 0
M  V30 2259 C 217.028 -1.70347 -1.18308 0
M  V30 2260 C 217.453 -0.411887 -1.83535 0
M  V30 2261 O 216.811 0.630587 -1.6998 0
M  V30 2262 C 216.859 -2.83977 -2.22238 0
M  V30 2263 O 215.963 -2.495 -3.28365 0
M  V30 2264 H 215.304 -0.567103 -0.345384 0
M  V30 2265 H 217.834 -1.98879 -0.480445 0
M  V30 2266 H 217.844 -3.0887 -2.66577 0
M  V30 2267 H 216.519 -3.77685 -1.74146 0
M  V30 2268 H 215.096 -2.35277 -2.89308 0
M  V30 2269 N 217.281 0.66697 -1.42791 0
M  V30 2270 C 218.529 1.42417 -1.43394 0
M  V30 2271 C 218.85 1.94925 -0.0542373 0
M  V30 2272 O 218.12 1.73564 0.908415 0
M  V30 2273 H 216.7 0.528515 -0.527902 0
M  V30 2274 H 219.362 0.787562 -1.78279 0
M  V30 2275 H 218.458 2.27333 -2.13837 0
M  V30 2276 N 218.759 1.29093 0.90403 0
M  V30 2277 C 219.707 1.13727 2.02901 0
M  V30 2278 C 220.701 0.0539853 1.69314 0
M  V30 2279 O 221.907 0.213469 1.7873 0
M  V30 2280 H 218.282 0.35117 0.664969 0
M  V30 2281 H 220.253 2.08982 2.13001 0
M  V30 2282 C 219.002 0.826066 3.37745 0
M  V30 2283 H 218.325 1.65164 3.64089 0
M  V30 2284 H 219.765 0.758559 4.17159 0
M  V30 2285 C 218.224 -0.470541 3.33598 0
M  V30 2286 O 218.754 -1.49792 3.72727 0
M  V30 2287 N 216.96 -0.474812 2.86695 0
M  V30 2288 H 216.507 0.361692 2.55048 0
M  V30 2289 H 216.465 -1.34236 2.84303 0
M  V30 2290 N 220.237 -1.11381 1.11499 0
M  V30 2291 C 221.17 -2.16621 0.71769 0
M  V30 2292 C 222.148 -1.60058 -0.286413 0
M  V30 2293 O 223.332 -1.87613 -0.182689 0
M  V30 2294 C 220.459 -3.38646 0.0607265 0
M  V30 2295 C 219.505 -4.13874 1.03008 0
M  V30 2296 S 220.338 -4.70731 2.55289 0
M  V30 2297 C 221.494 -5.96079 1.90895 0
M  V30 2298 H 221.727 -2.49987 1.60915 0
M  V30 2299 H 219.26 -1.23015 0.933092 0
M  V30 2300 H 221.218 -4.09313 -0.311965 0
M  V30 2301 H 219.879 -3.03537 -0.807702 0
M  V30 2302 H 219.072 -5.01333 0.517853 0
M  V30 2303 H 218.674 -3.4897 1.34522 0
M  V30 2304 H 220.966 -6.65948 1.24577 0
M  V30 2305 H 221.909 -6.51946 2.76354 0
M  V30 2306 H 222.317 -5.47652 1.36885 0
M  V30 2307 N 221.715 -0.905404 -1.28997 0
M  V30 2308 C 222.961 -0.535039 -1.95615 0
M  V30 2309 C 223.294 0.917404 -1.71165 0
M  V30 2310 O 222.569 1.65123 -1.02785 0
M  V30 2311 C 222.852 -0.834918 -3.50287 0
M  V30 2312 C 222.705 -2.33948 -3.84172 0
M  V30 2313 C 224.024 -0.325318 -4.38896 0
M  V30 2314 H 221.143 -0.195861 -0.710498 0
M  V30 2315 H 223.785 -1.13313 -1.52513 0
M  V30 2316 H 221.935 -0.325904 -3.87131 0
M  V30 2317 H 223.607 -2.91847 -3.57243 0
M  V30 2318 H 221.85 -2.79789 -3.31513 0
M  V30 2319 H 222.521 -2.49987 -4.92149 0
M  V30 2320 H 224.997 -0.761256 -4.09077 0
M  V30 2321 H 223.873 -0.564295 -5.45992 0
M  V30 2322 H 224.134 0.774144 -4.35269 0
M  V30 2323 N 223.193 1.4272 -0.668489 0
M  V30 2324 C 224.439 2.01923 -0.188419 0
M  V30 2325 C 224.772 1.52704 1.19979 0
M  V30 2326 O 224.047 0.726566 1.8042 0
M  V30 2327 C 224.33 3.59451 -0.216085 0
M  V30 2328 C 224.183 4.18864 -1.6393 0
M  V30 2329 C 225.502 4.37903 0.439179 0
M  V30 2330 H 222.621 0.733674 -0.0699412 0
M  V30 2331 H 225.263 1.69822 -0.852076 0
M  V30 2332 H 223.413 3.86929 0.349012 0
M  V30 2333 H 225.085 4.02362 -2.25616 0
M  V30 2334 H 223.328 3.74933 -2.18193 0
M  V30 2335 H 223.999 5.27987 -1.61039 0
M  V30 2336 H 226.475 4.16079 -0.0417878 0
M  V30 2337 H 225.351 5.47519 0.389157 0
M  V30 2338 H 225.612 4.15303 1.51577 0
M  V30 2339 N 224.671 0.411399 1.52136 0
M  V30 2340 C 225.948 -0.222308 1.94333 0
M  V30 2341 C 226.328 -1.6242 1.34844 0
M  V30 2342 O 225.676 -2.22384 0.525145 0
M  V30 2343 C 225.886 -0.226345 3.48265 0
M  V30 2344 C 227.234 -0.444592 4.22266 0
M  V30 2345 O 228.258 -0.305602 3.54887 0
M  V30 2346 O 227.117 -0.718749 5.41753 0
M  V30 2347 H 224.211 -0.143907 0.814383 0
M  V30 2348 H 226.757 0.467506 1.63133 0
M  V30 2349 H 225.529 0.75475 3.83952 0
M  V30 2350 H 225.152 -0.960163 3.85832 0
M  V30 2351 N 226.149 -1.5696 0.141893 0
M  V30 2352 C 227.398 -1.95135 -0.510427 0
M  V30 2353 C 227.711 -1.02896 -1.66348 0
M  V30 2354 O 228.917 -1.30629 -2.38009 0
M  V30 2355 C 227.373 -3.46876 -0.959427 0
M  V30 2356 C 226.981 -4.47691 0.166419 0
M  V30 2357 C 228.725 -3.93927 -1.58183 0
M  V30 2358 C 226.632 -5.90636 -0.300565 0
M  V30 2359 H 225.562 -0.728494 -0.194454 0
M  V30 2360 H 228.213 -1.8211 0.22542 0
M  V30 2361 H 226.595 -3.55215 -1.75038 0
M  V30 2362 H 227.769 -4.51043 0.94325 0
M  V30 2363 H 226.084 -4.10527 0.696905 0
M  V30 2364 H 228.681 -4.98158 -1.94275 0
M  V30 2365 H 229.024 -3.3519 -2.46888 0
M  V30 2366 H 229.557 -3.88484 -0.855863 0
M  V30 2367 H 226.296 -6.5318 0.550989 0
M  V30 2368 H 225.816 -5.90655 -1.04338 0
M  V30 2369 H 227.495 -6.42588 -0.754265 0
M  V30 2370 N 227.627 0.131896 -1.57047 0
M  V30 2371 C 228.875 0.840269 -1.83804 0
M  V30 2372 C 229.196 1.81017 -0.72512 0
M  V30 2373 O 228.466 1.94272 0.251995 0
M  V30 2374 H 227.046 0.313294 -0.678127 0
M  V30 2375 H 229.708 0.122294 -1.94516 0
M  V30 2376 H 228.804 1.39335 -2.79271 0
M  V30 2377 N 229.106 1.52395 0.401703 0
M  V30 2378 C 230.354 1.66488 1.14569 0
M  V30 2379 C 230.675 0.400897 1.90835 0
M  V30 2380 O 229.945 -0.584415 1.8698 0
M  V30 2381 H 228.525 0.613672 0.425929 0
M  V30 2382 H 231.187 1.89464 0.457093 0
M  V30 2383 H 230.283 2.50942 1.85566 0
M  V30 2384 N 230.584 -0.659388 1.43143 0
M  V30 2385 C 231.832 -1.41654 1.44147 0
M  V30 2386 C 232.153 -1.94893 0.0645739 0
M  V30 2387 O 231.423 -1.74044 -0.899198 0
M  V30 2388 H 230.003 -0.525708 0.530697 0
M  V30 2389 H 232.665 -0.778097 1.78694 0
M  V30 2390 H 231.761 -2.26195 2.1504 0
M  V30 2391 N 232.062 -1.29571 -0.897171 0
M  V30 2392 C 233.29 -1.20583 -1.68129 0
M  V30 2393 C 233.705 0.233181 -1.87354 0
M  V30 2394 O 233.062 1.15579 -1.41236 0
M  V30 2395 C 233.113 -1.91772 -3.06441 0
M  V30 2396 O 232.834 -3.30053 -2.88091 0
M  V30 2397 C 234.335 -1.89291 -4.00854 0
M  V30 2398 H 231.555 -0.417826 -0.525036 0
M  V30 2399 H 234.099 -1.70987 -1.12177 0
M  V30 2400 H 232.254 -1.45196 -3.59161 0
M  V30 2401 H 232.668 -3.65942 -3.75748 0
M  V30 2402 H 234.142 -2.43662 -4.95311 0
M  V30 2403 H 234.619 -0.869014 -4.30517 0
M  V30 2404 H 235.225 -2.35622 -3.54066 0
M  V30 2405 N 233.54 1.10788 -1.12088 0
M  V30 2406 C 234.768 1.86461 -0.896651 0
M  V30 2407 C 235.183 1.80492 0.553912 0
M  V30 2408 O 234.54 1.19102 1.38278 0
M  V30 2409 C 234.591 3.35006 -1.35843 0
M  V30 2410 O 234.312 3.40866 -2.75213 0
M  V30 2411 C 235.813 4.27565 -1.1706 0
M  V30 2412 H 233.033 0.589425 -0.320654 0
M  V30 2413 H 235.577 1.40076 -1.48993 0
M  V30 2414 H 233.732 3.7887 -0.808458 0
M  V30 2415 H 234.146 4.33411 -2.9539 0
M  V30 2416 H 235.62 5.30007 -1.54263 0
M  V30 2417 H 236.097 4.3906 -0.110814 0
M  V30 2418 H 236.703 3.89501 -1.70789 0
M  V30 2419 N 235.018 0.912232 1.28515 0
M  V30 2420 C 235.928 0.404506 2.31086 0
M  V30 2421 C 236.944 -0.50707 1.66448 0
M  V30 2422 O 238.12 -0.393624 1.97516 0
M  V30 2423 C 235.185 -0.348572 3.44943 0
M  V30 2424 C 234.246 0.59604 4.25142 0
M  V30 2425 C 233.479 -0.121194 5.33562 0
M  V30 2426 O 233.702 -1.34317 5.5436 0
M  V30 2427 O 232.636 0.542716 5.99448 0
M  V30 2428 H 236.462 1.25579 2.76521 0
M  V30 2429 H 234.047 0.676998 1.33181 0
M  V30 2430 H 235.929 -0.77395 4.14232 0
M  V30 2431 H 234.604 -1.17571 3.01594 0
M  V30 2432 H 233.511 1.07079 3.58448 0
M  V30 2433 H 234.844 1.38995 4.72167 0
M  V30 2434 N 236.496 -1.42363 0.676048 0
M  V30 2435 C 237.742 -2.0182 0.199125 0
M  V30 2436 C 238.075 -1.53339 -1.19168 0
M  V30 2437 O 237.35 -0.736124 -1.80032 0
M  V30 2438 C 237.633 -3.59331 0.235144 0
M  V30 2439 C 237.486 -4.17989 1.66149 0
M  V30 2440 C 238.805 -4.3813 -0.41595 0
M  V30 2441 H 235.924 -0.733293 0.0738311 0
M  V30 2442 H 238.566 -1.69368 0.86107 0
M  V30 2443 H 236.716 -3.87109 -0.328487 0
M  V30 2444 H 238.388 -4.0116 2.27747 0
M  V30 2445 H 236.631 -3.7377 2.20178 0
M  V30 2446 H 237.302 -5.27126 1.63837 0
M  V30 2447 H 239.778 -4.16051 0.0638529 0
M  V30 2448 H 238.654 -5.47717 -0.360115 0
M  V30 2449 H 238.915 -4.16101 -1.49373 0
M  V30 2450 N 237.974 -0.419461 -1.51915 0
M  V30 2451 C 238.937 0.389116 -2.25873 0
M  V30 2452 C 239.937 0.964924 -1.28631 0
M  V30 2453 O 241.127 0.842179 -1.52489 0
M  V30 2454 C 238.259 1.54874 -3.03689 0
M  V30 2455 H 239.452 -0.258799 -2.98781 0
M  V30 2456 H 237.005 -0.172209 -1.55348 0
M  V30 2457 H 237.74 2.23323 -2.35154 0
M  V30 2458 H 237.525 1.14223 -3.75094 0
M  V30 2459 H 239.015 2.12046 -3.59759 0
M  V30 2460 N 239.452 1.56882 -0.150215 0
M  V30 2461 C 240.698 1.96518 0.500834 0
M  V30 2462 C 241.031 1.03527 1.64304 0
M  V30 2463 O 240.306 0.0782751 1.94342 0
M  V30 2464 C 240.589 3.45822 1.00395 0
M  V30 2465 C 240.442 4.49591 -0.136983 0
M  V30 2466 C 241.761 3.97704 1.88467 0
M  V30 2467 H 238.88 0.714535 0.18058 0
M  V30 2468 H 241.522 1.88577 -0.232091 0
M  V30 2469 H 239.672 3.5272 1.62851 0
M  V30 2470 H 241.344 4.5477 -0.77343 0
M  V30 2471 H 239.587 4.26441 -0.795652 0
M  V30 2472 H 240.258 5.51402 0.256815 0
M  V30 2473 H 242.734 3.93304 1.35834 0
M  V30 2474 H 241.61 5.0263 2.20578 0
M  V30 2475 H 241.871 3.40252 2.82279 0
M  V30 2476 N 240.93 -0.123565 1.57115 0
M  V30 2477 C 242.179 -0.830704 1.83799 0
M  V30 2478 C 242.492 -1.81259 0.735158 0
M  V30 2479 O 243.698 -2.56558 0.888278 0
M  V30 2480 C 242.154 -1.52802 3.25852 0
M  V30 2481 C 241.762 -0.587356 4.44133 0
M  V30 2482 C 243.506 -2.22056 3.61789 0
M  V30 2483 C 241.413 -1.28764 5.77212 0
M  V30 2484 H 240.343 -0.313967 0.685522 0
M  V30 2485 H 242.994 -0.0834359 1.8331 0
M  V30 2486 H 241.376 -2.32175 3.20797 0
M  V30 2487 H 242.55 0.172829 4.60476 0
M  V30 2488 H 240.865 -0.00201892 4.164 0
M  V30 2489 H 243.462 -2.75131 4.58483 0
M  V30 2490 H 243.805 -2.99644 2.88997 0
M  V30 2491 H 244.338 -1.49576 3.68608 0
M  V30 2492 H 241.077 -0.55314 6.53162 0
M  V30 2493 H 240.597 -2.01995 5.64764 0
M  V30 2494 H 242.276 -1.8221 6.20813 0
M  V30 2495 N 242.408 -1.52605 -0.393616 0
M  V30 2496 C 243.633 -1.71592 -1.16495 0
M  V30 2497 C 244.058 -0.43133 -1.83088 0
M  V30 2498 O 243.416 0.612523 -1.7064 0
M  V30 2499 C 243.464 -2.86318 -2.19213 0
M  V30 2500 O 242.568 -2.52969 -3.257 0
M  V30 2501 H 241.909 -0.570734 -0.33935 0
M  V30 2502 H 244.439 -1.99377 -0.459324 0
M  V30 2503 H 244.449 -3.1168 -2.63286 0
M  V30 2504 H 243.124 -3.79511 -1.7013 0
M  V30 2505 H 241.701 -2.38332 -2.86797 0
M  V30 2506 N 243.887 0.651787 -1.4349 0
M  V30 2507 C 244.817 1.77621 -1.51569 0
M  V30 2508 C 245.798 1.66022 -0.370253 0
M  V30 2509 O 246.983 1.85095 -0.587658 0
M  V30 2510 C 244.113 3.16056 -1.43966 0
M  V30 2511 C 243.067 3.4242 -2.56774 0
M  V30 2512 C 242.393 4.8067 -2.34223 0
M  V30 2513 C 243.693 3.37023 -3.99015 0
M  V30 2514 H 245.387 1.71117 -2.45681 0
M  V30 2515 H 242.933 0.821825 -1.18246 0
M  V30 2516 H 244.886 3.94472 -1.48221 0
M  V30 2517 H 243.61 3.23293 -0.463586 0
M  V30 2518 H 242.269 2.66375 -2.51873 0
M  V30 2519 H 241.917 4.84585 -1.34856 0
M  V30 2520 H 241.617 4.9927 -3.09844 0
M  V30 2521 H 243.141 5.61342 -2.40265 0
M  V30 2522 H 244.555 4.05374 -4.05395 0
M  V30 2523 H 242.952 3.67159 -4.74673 0
M  V30 2524 H 244.022 2.3518 -4.2405 0
M  V30 2525 N 245.365 1.30045 0.890287 0
M  V30 2526 C 246.613 1.18327 1.63839 0
M  V30 2527 C 246.934 -0.263455 1.93212 0
M  V30 2528 O 246.204 -1.17856 1.56482 0
M  V30 2529 H 244.784 0.434933 0.607324 0
M  V30 2530 H 247.446 1.631 1.06698 0
M  V30 2531 H 246.542 1.74024 2.59079 0
M  V30 2532 N 246.843 -1.10192 1.12674 0
M  V30 2533 C 248.068 -1.86523 0.906853 0
M  V30 2534 C 248.493 -1.80221 -0.538711 0
M  V30 2535 O 247.851 -1.17396 -1.38158 0
M  V30 2536 C 247.899 -3.32758 1.3894 0
M  V30 2537 O 247.003 -4.08449 0.5695 0
M  V30 2538 H 246.344 -0.578678 0.325619 0
M  V30 2539 H 248.874 -1.39203 1.49946 0
M  V30 2540 H 248.884 -3.83608 1.38958 0
M  V30 2541 H 247.559 -3.36661 2.44197 0
M  V30 2542 H 246.136 -3.67427 0.636528 0
M  V30 2543 N 248.321 -0.919034 -1.28029 0
M  V30 2544 C 249.57 -0.550802 -1.94034 0
M  V30 2545 C 249.883 0.910877 -1.73096 0
M  V30 2546 O 251.089 1.3875 -2.33368 0
M  V30 2547 C 249.545 -0.934249 -3.47563 0
M  V30 2548 C 249.153 -2.41602 -3.7727 0
M  V30 2549 C 250.897 -0.636854 -4.19696 0
M  V30 2550 C 248.804 -2.73932 -5.24133 0
M  V30 2551 H 247.734 -0.202273 -0.726362 0
M  V30 2552 H 250.385 -1.11867 -1.45458 0
M  V30 2553 H 248.767 -0.295115 -3.94899 0
M  V30 2554 H 249.941 -3.10233 -3.40723 0
M  V30 2555 H 248.256 -2.68441 -3.18321 0
M  V30 2556 H 250.853 -0.855005 -5.2782 0
M  V30 2557 H 251.196 0.425575 -4.14119 0
M  V30 2558 H 251.729 -1.23469 -3.78154 0
M  V30 2559 H 248.468 -3.79049 -5.34792 0
M  V30 2560 H 247.988 -2.09942 -5.61858 0
M  V30 2561 H 249.667 -2.61215 -5.91925 0
M  V30 2562 N 249.799 1.42003 -0.683588 0
M  V30 2563 C 251.045 2.01712 -0.209825 0
M  V30 2564 C 251.378 1.53968 1.18353 0
M  V30 2565 O 250.653 0.745661 1.79639 0
M  V30 2566 C 250.936 3.59202 -0.254197 0
M  V30 2567 C 250.789 4.17102 -1.68363 0
M  V30 2568 C 252.108 4.38344 0.392709 0
M  V30 2569 H 249.227 0.732891 -0.0777189 0
M  V30 2570 H 251.869 1.68909 -0.87004 0
M  V30 2571 H 250.019 3.87278 0.307954 0
M  V30 2572 H 251.691 3.99946 -2.29871 0
M  V30 2573 H 249.934 3.72597 -2.22157 0
M  V30 2574 H 250.605 5.26249 -1.6663 0
M  V30 2575 H 253.081 4.16011 -0.0859162 0
M  V30 2576 H 251.957 5.47901 0.331063 0
M  V30 2577 H 252.218 4.16887 1.47164 0
M  V30 2578 N 251.277 0.427512 1.51691 0
M  V30 2579 C 252.505 -0.141191 2.06418 0
M  V30 2580 C 252.92 -1.37303 1.29589 0
M  V30 2581 O 252.277 -1.79059 0.352732 0
M  V30 2582 C 252.328 -0.473266 3.58389 0
M  V30 2583 O 252.049 0.709673 4.32314 0
M  V30 2584 C 253.55 -1.09371 4.29596 0
M  V30 2585 H 250.77 -0.0122747 0.670888 0
M  V30 2586 H 253.314 0.603764 1.95384 0
M  V30 2587 H 251.469 -1.16812 3.69369 0
M  V30 2588 H 251.883 0.42807 5.2275 0
M  V30 2589 H 253.357 -1.27613 5.37046 0
M  V30 2590 H 253.834 -2.072 3.87253 0
M  V30 2591 H 254.44 -0.43853 4.23033 0
M  V30 2592 N 252.755 -1.56801 0.158532 0
M  V30 2593 C 254.001 -1.97559 -0.483957 0
M  V30 2594 C 254.356 -1.04239 -1.61716 0
M  V30 2595 O 253.649 -0.079603 -1.91435 0
M  V30 2596 C 253.843 -3.4235 -1.02623 0
M  V30 2597 C 253.672 -4.49669 0.0528929 0
M  V30 2598 C 252.442 -5.02838 0.498234 0
M  V30 2599 C 254.64 -5.0725 0.848616 0
M  V30 2600 N 252.622 -5.93775 1.559 0
M  V30 2601 C 253.993 -5.94506 1.7596 0
M  V30 2602 C 256.048 -4.89788 0.895121 0
M  V30 2603 C 254.751 -6.66169 2.71314 0
M  V30 2604 C 256.777 -5.62161 1.83654 0
M  V30 2605 C 256.139 -6.49134 2.73503 0
M  V30 2606 H 252.238 -0.768332 -0.145566 0
M  V30 2607 H 254.822 -1.93012 0.255799 0
M  V30 2608 H 252.993 -3.47467 -1.73555 0
M  V30 2609 H 254.725 -3.70145 -1.63629 0
M  V30 2610 H 251.48 -4.73498 0.0983222 0
M  V30 2611 H 251.904 -6.43948 2.08949 0
M  V30 2612 H 256.546 -4.22255 0.21453 0
M  V30 2613 H 254.264 -7.32923 3.40367 0
M  V30 2614 H 257.85 -5.5064 1.87847 0
M  V30 2615 H 256.73 -7.04153 3.45163 0
M  V30 2616 N 254.233 0.115231 -1.57178 0
M  V30 2617 C 255.143 1.15994 -2.03918 0
M  V30 2618 C 256.159 1.45103 -0.960268 0
M  V30 2619 O 257.335 1.56144 -1.27204 0
M  V30 2620 C 254.4 2.46568 -2.43732 0
M  V30 2621 C 253.461 2.24822 -3.65723 0
M  V30 2622 C 252.694 3.4917 -4.03629 0
M  V30 2623 O 252.917 4.56623 -3.41835 0
M  V30 2624 O 251.851 3.39949 -4.96708 0
M  V30 2625 H 255.677 0.793019 -2.93164 0
M  V30 2626 H 253.262 0.3263 -1.45793 0
M  V30 2627 H 255.144 3.23492 -2.70057 0
M  V30 2628 H 253.819 2.82726 -1.57631 0
M  V30 2629 H 252.726 1.45744 -3.44542 0
M  V30 2630 H 254.059 1.93566 -4.52541 0
M  V30 2631 N 255.711 1.52812 0.385517 0
M  V30 2632 C 256.936 1.72207 1.15583 0
M  V30 2633 C 257.361 0.441034 1.82857 0
M  V30 2634 O 256.719 -0.603465 1.70962 0
M  V30 2635 C 256.767 2.87476 2.17692 0
M  V30 2636 O 255.871 2.54693 3.24354 0
M  V30 2637 H 255.212 0.572526 0.336319 0
M  V30 2638 H 257.742 1.99618 0.448744 0
M  V30 2639 H 257.752 3.13072 2.6163 0
M  V30 2640 H 256.427 3.80408 1.68115 0
M  V30 2641 H 255.004 2.3985 2.85529 0
M  V30 2642 N 257.189 -0.644168 1.43834 0
M  V30 2643 C 258.438 -1.39985 1.45214 0
M  V30 2644 C 258.751 -1.95421 0.0835494 0
M  V30 2645 O 259.957 -2.71488 -0.0251748 0
M  V30 2646 C 258.413 -2.53384 2.55587 0
M  V30 2647 C 258.021 -2.04517 3.98594 0
M  V30 2648 C 259.765 -3.30685 2.66172 0
M  V30 2649 C 257.672 -3.1518 5.00416 0
M  V30 2650 H 256.602 -0.526005 0.540218 0
M  V30 2651 H 259.253 -0.694367 1.69855 0
M  V30 2652 H 257.635 -3.26446 2.24163 0
M  V30 2653 H 258.809 -1.38405 4.39523 0
M  V30 2654 H 257.124 -1.40068 3.92135 0
M  V30 2655 H 259.721 -4.13158 3.39418 0
M  V30 2656 H 260.064 -3.79312 1.71546 0
M  V30 2657 H 260.597 -2.64708 2.96942 0
M  V30 2658 H 257.336 -2.71511 5.96625 0
M  V30 2659 H 256.856 -3.79974 4.64091 0
M  V30 2660 H 258.535 -3.80166 5.23529 0
M  V30 2661 N 258.668 -1.30515 -0.883378 0
M  V30 2662 C 260.084 -1.08881 -1.16692 0
M  V30 2663 C 260.284 0.149409 -2.00945 0
M  V30 2664 O 259.34 0.84257 -2.38027 0
M  V30 2665 C 260.653 -2.35319 -1.87204 0
M  V30 2666 C 262.201 -2.40799 -1.99962 0
M  V30 2667 C 262.676 -3.67083 -2.73887 0
M  V30 2668 N 264.167 -3.679 -2.81432 0
M  V30 2669 C 264.902 -4.62303 -3.3921 0
M  V30 2670 N 264.398 -5.67052 -3.98025 0
M  V30 2671 N 266.191 -4.49845 -3.3704 0
M  V30 2672 H 258.342 -2.09951 -0.321633 0
M  V30 2673 H 260.605 -0.92556 -0.205043 0
M  V30 2674 H 260.311 -3.25689 -1.3274 0
M  V30 2675 H 260.185 -2.44089 -2.87577 0
M  V30 2676 H 262.572 -1.50907 -2.53597 0
M  V30 2677 H 262.653 -2.36003 -0.98673 0
M  V30 2678 H 262.297 -4.57334 -2.20925 0
M  V30 2679 H 262.227 -3.69141 -3.75556 0
M  V30 2680 H 264.718 -2.92171 -2.39676 0
M  V30 2681 H 265.031 -6.35184 -4.40183 0
M  V30 2682 H 263.376 -5.70842 -3.96439 0
M  V30 2683 H 266.567 -3.67194 -2.90321 0
M  V30 2684 H 266.74 -5.23597 -3.81772 0
M  V30 2685 N 260.146 1.09593 -1.13257 0
M  V30 2686 C 261.395 1.81105 -0.887917 0
M  V30 2687 C 261.708 1.86563 0.587672 0
M  V30 2688 O 262.914 2.54367 0.949204 0
M  V30 2689 C 261.37 3.25338 -1.53895 0
M  V30 2690 C 260.978 3.28151 -3.04994 0
M  V30 2691 C 262.722 4.01617 -1.37492 0
M  V30 2692 C 260.629 4.66897 -3.6299 0
M  V30 2693 H 259.559 0.678661 -0.328534 0
M  V30 2694 H 262.21 1.23183 -1.36008 0
M  V30 2695 H 260.592 3.8331 -0.994446 0
M  V30 2696 H 261.766 2.79953 -3.66009 0
M  V30 2697 H 260.081 2.65361 -3.20893 0
M  V30 2698 H 262.678 5.04119 -1.78235 0
M  V30 2699 H 263.021 4.15072 -0.31957 0
M  V30 2700 H 263.554 3.50082 -1.88912 0
M  V30 2701 H 260.293 4.58643 -4.68323 0
M  V30 2702 H 259.813 5.15426 -3.06752 0
M  V30 2703 H 261.492 5.3587 -3.62563 0
M  V30 2704 N 261.624 0.925811 1.2754 0
M  V30 2705 C 262.587 0.428129 2.25166 0
M  V30 2706 C 263.587 -0.452261 1.54309 0
M  V30 2707 O 264.777 -0.253608 1.72344 0
M  V30 2708 C 261.909 -0.384749 3.38722 0
M  V30 2709 H 263.102 1.29066 2.70706 0
M  V30 2710 H 260.655 0.706323 1.3943 0
M  V30 2711 H 261.39 -1.26618 2.98561 0
M  V30 2712 H 261.175 0.246454 3.91325 0
M  V30 2713 H 262.665 -0.723389 4.11287 0
M  V30 2714 N 263.102 -1.41638 0.69111 0
M  V30 2715 C 264.35 -2.00902 0.219758 0
M  V30 2716 C 264.671 -1.54994 -1.18329 0
M  V30 2717 O 263.941 -0.778628 -1.79762 0
M  V30 2718 H 262.521 -0.74289 0.0782558 0
M  V30 2719 H 265.183 -1.73327 0.891271 0
M  V30 2720 H 264.279 -3.11224 0.233708 0
M  V30 2721 N 264.58 -0.43555 -1.51462 0
M  V30 2722 C 265.857 0.191364 -1.94662 0
M  V30 2723 C 266.237 1.60254 -1.37411 0
M  V30 2724 O 265.585 2.2152 -0.560458 0
M  V30 2725 C 265.795 0.17091 -3.48581 0
M  V30 2726 C 267.143 0.377357 -4.2292 0
M  V30 2727 O 268.167 0.249104 -3.55328 0
M  V30 2728 O 267.026 0.63247 -5.42828 0
M  V30 2729 H 264.12 0.130932 -0.816569 0
M  V30 2730 H 266.666 -0.4934 -1.62369 0
M  V30 2731 H 265.438 -0.815738 -3.82703 0
M  V30 2732 H 265.061 0.898659 -3.87311 0
M  V30 2733 N 266.058 1.56714 -0.166846 0
M  V30 2734 C 266.968 2.21331 0.777791 0
M  V30 2735 C 267.984 1.20358 1.25658 0
M  V30 2736 O 269.16 1.53005 1.30964 0
M  V30 2737 C 266.225 2.83787 1.99163 0
M  V30 2738 C 265.286 3.99947 1.56016 0
M  V30 2739 C 264.519 4.59415 2.71613 0
M  V30 2740 O 264.742 4.17769 3.88362 0
M  V30 2741 O 263.676 5.49359 2.45945 0
M  V30 2742 H 267.502 3.02605 0.257636 0
M  V30 2743 H 265.087 1.49275 0.0611393 0
M  V30 2744 H 266.969 3.23405 2.70161 0
M  V30 2745 H 265.644 2.05513 2.50092 0
M  V30 2746 H 264.551 3.65007 0.819809 0
M  V30 2747 H 265.884 4.79801 1.09782 0
M  V30 2748 N 267.536 -0.106894 1.57237 0
M  V30 2749 C 268.469 -1.16125 1.96444 0
M  V30 2750 C 269.447 -1.3947 0.835871 0
M  V30 2751 O 270.631 -1.53425 1.09513 0
M  V30 2752 C 267.758 -2.51277 2.27107 0
M  V30 2753 C 266.804 -2.44285 3.4961 0
M  V30 2754 S 267.637 -1.87077 5.01759 0
M  V30 2755 C 268.793 -3.23877 5.35588 0
M  V30 2756 H 269.026 -0.826971 2.85567 0
M  V30 2757 H 266.559 -0.314124 1.51171 0
M  V30 2758 H 268.517 -3.29035 2.45451 0
M  V30 2759 H 267.178 -2.81879 1.38576 0
M  V30 2760 H 266.371 -3.4387 3.68469 0
M  V30 2761 H 265.973 -1.74652 3.30715 0
M  V30 2762 H 268.265 -4.20122 5.31511 0
M  V30 2763 H 269.208 -3.09833 6.36717 0
M  V30 2764 H 269.616 -3.22864 4.63054 0
M  V30 2765 N 269.014 -1.53014 -0.377408 0
M  V30 2766 C 270.291 -1.59215 -1.13622 0
M  V30 2767 C 270.671 -0.392407 -2.07421 0
M  V30 2768 O 270.019 0.618342 -2.19975 0
M  V30 2769 C 270.229 -2.93669 -1.88573 0
M  V30 2770 C 271.577 -3.47822 -2.43526 0
M  V30 2771 O 272.601 -2.9562 -1.98715 0
M  V30 2772 O 271.46 -4.39055 -3.25412 0
M  V30 2773 H 268.554 -0.642625 -0.52054 0
M  V30 2774 H 271.1 -1.65353 -0.381625 0
M  V30 2775 H 269.872 -3.7243 -1.20048 0
M  V30 2776 H 269.495 -2.90968 -2.70968 0
M  V30 2777 N 270.492 0.636531 -1.44174 0
M  V30 2778 C 271.402 1.77754 -1.53103 0
M  V30 2779 C 272.418 1.68928 -0.417034 0
M  V30 2780 O 273.594 1.89801 -0.6736 0
M  V30 2781 C 270.659 3.14115 -1.46741 0
M  V30 2782 C 269.72 3.34612 -2.68948 0
M  V30 2783 C 268.953 4.64467 -2.6288 0
M  V30 2784 O 269.176 5.44919 -1.68581 0
M  V30 2785 O 268.11 4.87049 -3.53648 0
M  V30 2786 H 271.936 1.73174 -2.49489 0
M  V30 2787 H 269.521 0.79709 -1.2636 0
M  V30 2788 H 271.403 3.95412 -1.45696 0
M  V30 2789 H 270.078 3.19249 -0.534975 0
M  V30 2790 H 268.985 2.53014 -2.75562 0
M  V30 2791 H 270.318 3.34336 -3.61221 0
M  V30 2792 N 271.97 1.30982 0.876444 0
M  V30 2793 C 272.933 1.18054 1.96459 0
M  V30 2794 C 273.933 0.109399 1.60427 0
M  V30 2795 O 275.123 0.358173 1.70478 0
M  V30 2796 C 272.255 0.810616 3.31122 0
M  V30 2797 H 273.448 2.14735 2.09354 0
M  V30 2798 H 271.001 1.145 1.06392 0
M  V30 2799 H 271.736 -0.155322 3.23928 0
M  V30 2800 H 271.521 1.58481 3.58645 0
M  V30 2801 H 273.011 0.743876 4.10921 0
M  V30 2802 N 273.449 -1.08991 1.13837 0
M  V30 2803 C 274.698 -1.80631 0.897509 0
M  V30 2804 C 275.011 -1.86872 -0.57777 0
M  V30 2805 O 276.217 -2.54866 -0.935701 0
M  V30 2806 C 274.673 -3.24517 1.55618 0
M  V30 2807 C 274.281 -3.26529 3.0673 0
M  V30 2808 C 276.025 -4.00882 1.3962 0
M  V30 2809 C 273.932 -4.64965 3.65461 0
M  V30 2810 H 272.862 -0.67691 0.332129 0
M  V30 2811 H 275.513 -1.2246 1.3666 0
M  V30 2812 H 273.895 -3.82778 1.01476 0
M  V30 2813 H 275.069 -2.78008 3.67489 0
M  V30 2814 H 273.384 -2.63656 3.22296 0
M  V30 2815 H 275.981 -5.03167 1.80906 0
M  V30 2816 H 276.324 -4.14896 0.341578 0
M  V30 2817 H 276.857 -3.49075 1.90766 0
M  V30 2818 H 273.596 -4.56153 4.70749 0
M  V30 2819 H 273.116 -5.13792 3.09481 0
M  V30 2820 H 274.795 -5.3394 3.654 0
M  V30 2821 N 274.927 -0.932562 -1.27047 0
M  V30 2822 C 276.173 -0.576412 -1.94436 0
M  V30 2823 C 276.506 0.880891 -1.73072 0
M  V30 2824 O 275.781 1.62905 -1.06264 0
M  V30 2825 C 276.064 -0.909031 -3.48437 0
M  V30 2826 C 275.917 -2.42044 -3.79123 0
M  V30 2827 C 277.236 -0.418341 -4.38107 0
M  V30 2828 H 274.355 -0.210888 -0.706184 0
M  V30 2829 H 276.997 -1.16522 -1.50075 0
M  V30 2830 H 275.147 -0.407947 -3.86352 0
M  V30 2831 H 276.819 -2.99359 -3.50973 0
M  V30 2832 H 275.062 -2.86758 -3.25503 0
M  V30 2833 H 275.733 -2.6037 -4.86736 0
M  V30 2834 H 278.209 -0.847856 -4.0737 0
M  V30 2835 H 277.085 -0.679981 -5.44672 0
M  V30 2836 H 277.346 0.681642 -4.36814 0
M  V30 2837 N 276.405 1.4127 -0.698611 0
M  V30 2838 C 277.337 2.292 0.00399731 0
M  V30 2839 C 278.35 1.44944 0.741279 0
M  V30 2840 O 279.539 1.68416 0.591477 0
M  V30 2841 C 276.639 3.22875 1.02979 0
M  V30 2842 C 275.812 4.35904 0.36151 0
M  V30 2843 C 274.871 5.10134 1.29033 0
M  V30 2844 O 273.897 5.63809 0.781562 0
M  V30 2845 N 275.099 5.17885 2.6225 0
M  V30 2846 H 277.864 2.9014 -0.750921 0
M  V30 2847 H 275.425 1.52455 -0.544882 0
M  V30 2848 H 277.417 3.69404 1.65296 0
M  V30 2849 H 275.987 2.63221 1.68622 0
M  V30 2850 H 275.207 3.91719 -0.441584 0
M  V30 2851 H 276.495 5.08696 -0.103055 0
M  V30 2852 H 275.893 4.7573 3.061 0
M  V30 2853 H 274.45 5.6798 3.19754 0
M  V30 2854 N 277.883 0.443576 1.51229 0
M  V30 2855 C 279.113 -0.119117 2.06256 0
M  V30 2856 C 279.521 -1.36471 1.31043 0
M  V30 2857 O 278.864 -1.80034 0.365151 0
M  V30 2858 C 278.926 -0.500546 3.55998 0
M  V30 2859 C 278.59 0.639125 4.52509 0
M  V30 2860 C 279.587 1.51311 4.97394 0
M  V30 2861 C 277.272 0.821632 4.95535 0
M  V30 2862 C 279.266 2.55425 5.83984 0
M  V30 2863 C 276.953 1.86603 5.81913 0
M  V30 2864 C 277.951 2.73072 6.26036 0
M  V30 2865 O 277.639 3.75718 7.10698 0
M  V30 2866 H 277.371 -0.00857665 0.675946 0
M  V30 2867 H 279.925 0.623288 1.95715 0
M  V30 2868 H 278.155 -1.29575 3.64345 0
M  V30 2869 H 279.844 -0.995116 3.93513 0
M  V30 2870 H 280.61 1.38367 4.64844 0
M  V30 2871 H 276.489 0.158149 4.60729 0
M  V30 2872 H 280.033 3.22949 6.18344 0
M  V30 2873 H 275.93 1.99564 6.13876 0
M  V30 2874 H 276.698 3.72374 7.2889 0
M  V30 2875 N 279.361 -1.56624 0.175154 0
M  V30 2876 C 280.607 -1.9729 -0.469506 0
M  V30 2877 C 280.94 -1.06128 -1.62636 0
M  V30 2878 O 280.215 -0.109183 -1.94193 0
M  V30 2879 C 280.498 -3.47375 -0.948804 0
M  V30 2880 C 280.351 -4.49317 0.208491 0
M  V30 2881 C 281.67 -4.00652 -1.82116 0
M  V30 2882 H 278.789 -0.717317 -0.16919 0
M  V30 2883 H 281.431 -1.88184 0.262062 0
M  V30 2884 H 279.581 -3.55267 -1.57219 0
M  V30 2885 H 281.253 -4.53482 0.845682 0
M  V30 2886 H 279.496 -4.25121 0.863395 0
M  V30 2887 H 280.167 -5.51741 -0.169059 0
M  V30 2888 H 282.643 -3.95416 -1.2956 0
M  V30 2889 H 281.519 -5.06075 -2.12554 0
M  V30 2890 H 281.78 -3.44699 -2.7683 0
M  V30 2891 N 280.839 0.0985539 -1.57292 0
M  V30 2892 C 282.255 0.45267 -1.53046 0
M  V30 2893 C 282.455 1.80713 -0.891342 0
M  V30 2894 O 281.511 2.4785 -0.482375 0
M  V30 2895 C 282.824 0.418341 -2.97776 0
M  V30 2896 C 284.372 0.500443 -3.08973 0
M  V30 2897 C 284.847 0.496297 -4.55303 0
M  V30 2898 N 286.338 0.557151 -4.59837 0
M  V30 2899 C 287.073 0.575726 -5.70502 0
M  V30 2900 N 286.569 0.550714 -6.90608 0
M  V30 2901 N 288.362 0.620277 -5.58667 0
M  V30 2902 H 280.513 -0.788673 -1.97215 0
M  V30 2903 H 282.776 -0.293188 -0.901524 0
M  V30 2904 H 282.482 -0.509659 -3.47988 0
M  V30 2905 H 282.356 1.2386 -3.56284 0
M  V30 2906 H 284.743 1.41886 -2.58751 0
M  V30 2907 H 284.824 -0.347894 -2.53423 0
M  V30 2908 H 284.468 -0.418162 -5.06176 0
M  V30 2909 H 284.398 1.3618 -5.08687 0
M  V30 2910 H 286.889 0.581816 -3.73394 0
M  V30 2911 H 287.202 0.568075 -7.70709 0
M  V30 2912 H 285.547 0.517816 -6.93068 0
M  V30 2913 H 288.738 0.637322 -4.63741 0
M  V30 2914 H 288.911 0.631283 -6.44918 0
M  V30 2915 N 282.317 1.53212 0.369288 0
M  V30 2916 C 283.227 1.82342 1.47609 0
M  V30 2917 C 284.243 0.711532 1.58787 0
M  V30 2918 O 285.419 1.0012 1.74751 0
M  V30 2919 C 282.484 2.00393 2.8292 0
M  V30 2920 C 281.545 3.24297 2.81301 0
M  V30 2921 C 280.778 3.41478 4.10157 0
M  V30 2922 O 281.001 2.63033 5.06132 0
M  V30 2923 O 279.935 4.34817 4.16194 0
M  V30 2924 H 283.761 2.76366 1.25918 0
M  V30 2925 H 281.346 1.38547 0.559034 0
M  V30 2926 H 283.228 2.13859 3.63101 0
M  V30 2927 H 281.903 1.09559 3.04596 0
M  V30 2928 H 280.81 3.16257 1.99831 0
M  V30 2929 H 282.143 4.15041 2.64578 0
M  V30 2930 N 283.795 -0.628877 1.44509 0
M  V30 2931 C 285.023 -1.41554 1.50897 0
M  V30 2932 C 285.438 -1.8832 0.134564 0
M  V30 2933 O 284.795 -1.60969 -0.859965 0
M  V30 2934 C 284.846 -2.63435 2.47556 0
M  V30 2935 O 284.567 -2.18619 3.79654 0
M  V30 2936 C 286.068 -3.56537 2.63431 0
M  V30 2937 H 283.288 -0.434044 0.511709 0
M  V30 2938 H 285.832 -0.768895 1.89495 0
M  V30 2939 H 283.987 -3.24187 2.12089 0
M  V30 2940 H 284.401 -2.97652 4.31861 0
M  V30 2941 H 285.875 -4.38657 3.35088 0
M  V30 2942 H 286.352 -4.05493 1.68738 0
M  V30 2943 H 286.958 -3.01653 2.9981 0
M  V30 2944 N 285.273 -1.31445 -0.869486 0
M  V30 2945 C 286.503 -1.23942 -1.65294 0
M  V30 2946 C 286.911 0.197561 -1.88166 0
M  V30 2947 O 286.254 1.14019 -1.44033 0
M  V30 2948 C 286.316 -1.91385 -3.04322 0
M  V30 2949 C 285.98 -3.40726 -3.04557 0
M  V30 2950 C 286.977 -4.36464 -2.82481 0
M  V30 2951 C 284.662 -3.82425 -3.25663 0
M  V30 2952 C 286.656 -5.71876 -2.8149 0
M  V30 2953 C 284.343 -5.1795 -3.243 0
M  V30 2954 C 285.341 -6.12486 -3.02241 0
M  V30 2955 O 285.029 -7.45534 -3.00724 0
M  V30 2956 H 284.761 -0.429459 -0.522054 0
M  V30 2957 H 287.315 -1.73873 -1.0935 0
M  V30 2958 H 285.545 -1.36004 -3.61994 0
M  V30 2959 H 287.234 -1.77791 -3.64891 0
M  V30 2960 H 288 -4.05576 -2.65956 0
M  V30 2961 H 283.879 -3.09274 -3.41863 0
M  V30 2962 H 287.423 -6.45638 -2.64191 0
M  V30 2963 H 283.32 -5.48473 -3.40365 0
M  V30 2964 H 284.088 -7.54713 -3.16782 0
M  V30 2965 N 286.751 1.08385 -1.14413 0
M  V30 2966 C 288.167 1.32844 -0.884563 0
M  V30 2967 C 288.367 1.95841 0.474181 0
M  V30 2968 O 287.423 2.21158 1.21842 0
M  V30 2969 C 288.736 2.22978 -2.01745 0
M  V30 2970 C 290.284 2.36458 -2.05077 0
M  V30 2971 C 290.759 3.29934 -3.1766 0
M  V30 2972 N 292.25 3.37511 -3.17239 0
M  V30 2973 C 292.985 4.09871 -4.0099 0
M  V30 2974 N 292.481 4.84936 -4.94781 0
M  V30 2975 N 294.274 4.05704 -3.89051 0
M  V30 2976 H 286.425 0.658756 -2.01926 0
M  V30 2977 H 288.688 0.352821 -0.879899 0
M  V30 2978 H 288.394 1.83934 -2.99769 0
M  V30 2979 H 288.268 3.23441 -1.94077 0
M  V30 2980 H 290.655 2.7476 -1.0766 0
M  V30 2981 H 290.736 1.35736 -2.16816 0
M  V30 2982 H 290.38 2.92352 -4.15322 0
M  V30 2983 H 290.31 4.30584 -3.03158 0
M  V30 2984 H 292.801 2.83996 -2.49308 0
M  V30 2985 H 293.114 5.37612 -5.55151 0
M  V30 2986 H 291.459 4.83988 -4.98779 0
M  V30 2987 H 294.65 3.46167 -3.15097 0
M  V30 2988 H 294.823 4.61834 -4.54547 0
M  V30 2989 N 288.23 0.939286 1.26551 0
M  V30 2990 C 289.476 0.586715 1.94128 0
M  V30 2991 C 289.809 -0.8717 1.73537 0
M  V30 2992 O 289.084 -1.62339 1.07127 0
M  V30 2993 C 289.367 0.927497 3.4795 0
M  V30 2994 C 289.22 2.44052 3.77834 0
M  V30 2995 C 290.539 0.441569 4.37879 0
M  V30 2996 H 287.658 0.21463 0.705055 0
M  V30 2997 H 290.3 1.17316 1.49455 0
M  V30 2998 H 288.45 0.428431 3.8613 0
M  V30 2999 H 290.122 3.01216 3.4938 0
M  V30 3000 H 288.365 2.8848 3.23978 0
M  V30 3001 H 289.036 2.62947 4.85348 0
M  V30 3002 H 291.512 0.869448 4.06915 0
M  V30 3003 H 290.388 0.708856 5.44304 0
M  V30 3004 H 290.649 -0.658467 4.37169 0
M  V30 3005 N 289.708 -1.40897 0.706093 0
M  V30 3006 C 290.671 -2.29131 0.0562841 0
M  V30 3007 C 291.671 -1.44901 -0.697166 0
M  V30 3008 O 292.861 -1.65926 -0.530484 0
M  V30 3009 C 289.993 -3.27957 -0.93043 0
M  V30 3010 H 291.186 -2.88091 0.833284 0
M  V30 3011 H 288.739 -1.4906 0.470192 0
M  V30 3012 H 289.474 -2.73997 -1.73482 0
M  V30 3013 H 289.259 -3.90124 -0.393166 0
M  V30 3014 H 290.749 -3.94049 -1.38256 0
M  V30 3015 N 291.186 -0.45159 -1.50991 0
M  V30 3016 C 292.435 0.111653 -2.01391 0
M  V30 3017 C 292.748 1.42529 -1.33959 0
M  V30 3018 O 293.954 2.07232 -1.75405 0
M  V30 3019 C 292.41 0.249514 -3.59034 0
M  V30 3020 C 292.018 -1.05453 -4.35412 0
M  V30 3021 C 293.762 0.765762 -4.17536 0
M  V30 3022 C 291.669 -0.881529 -5.84793 0
M  V30 3023 H 290.599 0.0455022 -0.752626 0
M  V30 3024 H 293.25 -0.583524 -1.73975 0
M  V30 3025 H 291.632 1.00803 -3.82955 0
M  V30 3026 H 292.806 -1.82248 -4.23229 0
M  V30 3027 H 291.121 -1.50039 -3.88429 0
M  V30 3028 H 293.718 0.911913 -5.26866 0
M  V30 3029 H 294.061 1.75201 -3.77638 0
M  V30 3030 H 294.594 0.0651744 -3.97747 0
M  V30 3031 H 291.333 -1.84057 -6.29129 0
M  V30 3032 H 290.853 -0.153625 -5.99603 0
M  V30 3033 H 292.532 -0.540363 -6.4474 0
M  V30 3034 N 292.664 1.56529 -0.183458 0
M  V30 3035 C 293.912 1.96855 0.457452 0
M  V30 3036 C 294.233 1.07104 1.62953 0
M  V30 3037 O 293.503 0.139887 1.954 0
M  V30 3038 H 292.083 0.72693 0.171992 0
M  V30 3039 H 294.745 1.93056 -0.267476 0
M  V30 3040 H 293.841 3.01423 0.809368 0
M  V30 3041 N 294.142 -0.090211 1.57342 0
M  V30 3042 C 295.052 -1.12735 2.05738 0
M  V30 3043 C 296.068 -1.43557 0.983231 0
M  V30 3044 O 297.244 -1.54101 1.29672 0
M  V30 3045 C 294.309 -2.42659 2.47624 0
M  V30 3046 C 293.37 -2.18975 3.69254 0
M  V30 3047 C 292.603 -3.42704 4.09133 0
M  V30 3048 O 292.826 -4.51127 3.49057 0
M  V30 3049 O 291.76 -3.32003 5.02053 0
M  V30 3050 H 295.586 -0.746279 2.94388 0
M  V30 3051 H 293.171 -0.303064 1.46294 0
M  V30 3052 H 295.053 -3.19155 2.7517 0
M  V30 3053 H 293.728 -2.80182 1.62109 0
M  V30 3054 H 292.635 -1.40244 3.46818 0
M  V30 3055 H 293.968 -1.86342 4.55563 0
M  V30 3056 N 295.62 -1.53406 -0.361157 0
M  V30 3057 C 297.036 -1.43277 -0.703124 0
M  V30 3058 C 297.236 -0.575384 -1.9311 0
M  V30 3059 O 296.292 -0.0595362 -2.5243 0
M  V30 3060 C 297.605 -2.8653 -0.9122 0
M  V30 3061 C 299.153 -2.96191 -1.01193 0
M  V30 3062 C 299.628 -4.40514 -1.25345 0
M  V30 3063 N 301.119 -4.43962 -1.32105 0
M  V30 3064 C 301.854 -5.52746 -1.5251 0
M  V30 3065 N 301.35 -6.71567 -1.70203 0
M  V30 3066 N 303.143 -5.40331 -1.54916 0
M  V30 3067 H 295.294 -2.07654 0.446475 0
M  V30 3068 H 297.557 -0.937944 0.137715 0
M  V30 3069 H 297.263 -3.51605 -0.0816414 0
M  V30 3070 H 297.137 -3.30441 -1.81903 0
M  V30 3071 H 299.524 -2.31266 -1.83303 0
M  V30 3072 H 299.605 -2.55667 -0.0823929 0
M  V30 3073 H 299.249 -5.06014 -0.437346 0
M  V30 3074 H 299.179 -4.78614 -2.19627 0
M  V30 3075 H 301.67 -3.58332 -1.20028 0
M  V30 3076 H 301.983 -7.50241 -1.85359 0
M  V30 3077 H 300.328 -6.74545 -1.67373 0
M  V30 3078 H 303.519 -4.46465 -1.40663 0
M  V30 3079 H 303.692 -6.25173 -1.70477 0
M  V30 3080 N 297.098 0.621204 -1.44841 0
M  V30 3081 C 298.326 1.40752 -1.51646 0
M  V30 3082 C 298.741 1.88246 -0.144549 0
M  V30 3083 O 298.098 1.61422 0.851416 0
M  V30 3084 C 298.149 2.62119 -2.4895 0
M  V30 3085 O 297.87 2.16602 -3.80808 0
M  V30 3086 C 299.371 3.55135 -2.65319 0
M  V30 3087 H 296.591 0.431325 -0.514004 0
M  V30 3088 H 299.135 0.758835 -1.899 0
M  V30 3089 H 297.29 3.23058 -2.13805 0
M  V30 3090 H 297.704 2.95358 -4.33433 0
M  V30 3091 H 299.178 4.36874 -3.37409 0
M  V30 3092 H 299.655 4.04592 -1.70886 0
M  V30 3093 H 300.261 3.00058 -3.01405 0
M  V30 3094 N 298.576 1.31904 0.862503 0
M  V30 3095 C 299.539 1.20131 1.95195 0
M  V30 3096 C 300.539 0.126409 1.60302 0
M  V30 3097 O 301.729 0.376234 1.70089 0
M  V30 3098 C 298.861 0.845691 3.30244 0
M  V30 3099 H 300.054 2.16943 2.07064 0
M  V30 3100 H 297.607 1.15622 1.05172 0
M  V30 3101 H 298.342 -0.120957 3.24074 0
M  V30 3102 H 298.127 1.62276 3.56944 0
M  V30 3103 H 299.617 0.787418 4.10109 0
M  V30 3104 N 300.054 -1.07777 1.14986 0
M  V30 3105 C 300.964 -2.18404 0.856546 0
M  V30 3106 C 301.98 -1.73211 -0.165485 0
M  V30 3107 O 303.156 -2.01399 0.00755219 0
M  V30 3108 C 300.221 -3.44977 0.34526 0
M  V30 3109 C 299.282 -4.0476 1.43065 0
M  V30 3110 C 298.515 -5.25291 0.943663 0
M  V30 3111 O 298.738 -5.70004 -0.212426 0
M  V30 3112 O 297.672 -5.76638 1.72547 0
M  V30 3113 H 301.498 -2.45978 1.78125 0
M  V30 3114 H 299.083 -1.17033 0.928631 0
M  V30 3115 H 300.965 -4.21348 0.0663671 0
M  V30 3116 H 299.64 -3.18965 -0.551631 0
M  V30 3117 H 298.547 -3.29949 1.76309 0
M  V30 3118 H 299.88 -4.35035 2.30229 0
M  V30 3119 N 301.532 -0.945985 -1.26051 0
M  V30 3120 C 302.948 -0.649045 -1.45807 0
M  V30 3121 C 303.148 0.796158 -1.85104 0
M  V30 3122 O 302.204 1.57233 -1.97571 0
M  V30 3123 C 303.517 -1.61458 -2.53677 0
M  V30 3124 C 305.065 -1.62481 -2.67524 0
M  V30 3125 C 305.54 -2.57776 -3.7857 0
M  V30 3126 N 307.031 -2.5609 -3.85969 0
M  V30 3127 C 307.766 -3.26508 -4.7136 0
M  V30 3128 N 307.262 -4.0637 -5.61102 0
M  V30 3129 N 309.055 -3.15437 -4.65248 0
M  V30 3130 H 301.206 -1.88005 -0.988328 0
M  V30 3131 H 303.469 -0.808198 -0.4955 0
M  V30 3132 H 303.175 -2.64644 -2.31638 0
M  V30 3133 H 303.049 -1.37036 -3.51427 0
M  V30 3134 H 305.436 -0.600167 -2.88933 0
M  V30 3135 H 305.517 -1.90958 -1.70202 0
M  V30 3136 H 305.161 -3.60361 -3.57913 0
M  V30 3137 H 305.091 -2.26587 -4.75359 0
M  V30 3138 H 307.582 -1.98105 -3.21812 0
M  V30 3139 H 307.895 -4.57042 -6.23164 0
M  V30 3140 H 306.24 -4.10469 -5.60839 0
M  V30 3141 H 309.431 -2.52525 -3.94143 0
M  V30 3142 H 309.604 -3.70584 -5.31575 0
M  V30 3143 N 303.011 1.40521 -0.713556 0
M  V30 3144 C 304.257 2.01221 -0.252564 0
M  V30 3145 C 304.59 1.56444 1.1506 0
M  V30 3146 O 303.865 0.783597 1.78017 0
M  V30 3147 C 304.148 3.58582 -0.330332 0
M  V30 3148 C 304.001 4.13437 -1.77173 0
M  V30 3149 C 305.32 4.39079 0.299641 0
M  V30 3150 H 302.439 0.731077 -0.0932471 0
M  V30 3151 H 305.081 1.67026 -0.905673 0
M  V30 3152 H 303.231 3.87844 0.225737 0
M  V30 3153 H 304.903 3.9498 -2.38303 0
M  V30 3154 H 303.146 3.67801 -2.3001 0
M  V30 3155 H 303.817 5.22597 -1.77755 0
M  V30 3156 H 306.293 4.15735 -0.174139 0
M  V30 3157 H 305.169 5.4848 0.214771 0
M  V30 3158 H 305.43 4.19915 1.38288 0
M  V30 3159 N 304.489 0.459591 1.5075 0
M  V30 3160 C 305.436 -0.340524 2.28274 0
M  V30 3161 C 306.406 -0.997371 1.32822 0
M  V30 3162 O 307.591 -1.01202 1.61749 0
M  V30 3163 C 304.731 -1.42317 3.14388 0
M  V30 3164 C 303.844 -0.782251 4.24859 0
M  V30 3165 C 302.979 -1.84182 4.98247 0
M  V30 3166 C 302.018 -1.18053 6.00608 0
M  V30 3167 N 301.155 -2.18244 6.67319 0
M  V30 3168 H 305.995 0.326899 2.96202 0
M  V30 3169 H 303.532 0.173057 1.46078 0
M  V30 3170 H 305.49 -2.06241 3.62658 0
M  V30 3171 H 304.12 -2.05992 2.4853 0
M  V30 3172 H 303.172 -0.0307404 3.80388 0
M  V30 3173 H 304.484 -0.259663 4.98124 0
M  V30 3174 H 303.638 -2.55714 5.50177 0
M  V30 3175 H 302.377 -2.39819 4.24662 0
M  V30 3176 H 301.382 -0.450776 5.47949 0
M  V30 3177 H 302.607 -0.631202 6.7616 0
M  V30 3178 H 300.553 -2.72919 5.96533 0
M  V30 3179 H 300.47 -1.70938 7.36421 0
M  V30 3180 H 301.738 -2.89191 7.23871 0
M  V30 3181 N 305.967 -1.56429 0.191757 0
M  V30 3182 C 307.216 -1.9666 -0.448088 0
M  V30 3183 C 307.529 -1.08136 -1.62991 0
M  V30 3184 O 308.735 -1.38135 -2.33733 0
M  V30 3185 C 307.191 -3.49753 -0.848585 0
M  V30 3186 C 306.799 -4.46935 0.308764 0
M  V30 3187 C 308.543 -3.9876 -1.4557 0
M  V30 3188 C 306.45 -5.91293 -0.112506 0
M  V30 3189 H 305.38 -0.734312 -0.171179 0
M  V30 3190 H 308.031 -1.81301 0.283242 0
M  V30 3191 H 306.413 -3.60604 -1.63649 0
M  V30 3192 H 307.587 -4.47813 1.08627 0
M  V30 3193 H 305.902 -4.08102 0.827158 0
M  V30 3194 H 308.499 -5.04086 -1.78328 0
M  V30 3195 H 308.842 -3.42875 -2.36099 0
M  V30 3196 H 309.375 -3.9101 -0.731836 0
M  V30 3197 H 306.114 -6.51097 0.758514 0
M  V30 3198 H 305.634 -5.93676 -0.854941 0
M  V30 3199 H 307.313 -6.44663 -0.549448 0
M  V30 3200 N 307.445 0.0818655 -1.57387 0
M  V30 3201 C 308.355 1.11642 -2.06333 0
M  V30 3202 C 309.371 1.43033 -0.99083 0
M  V30 3203 O 310.547 1.53411 -1.30488 0
M  V30 3204 C 307.612 2.41342 -2.48907 0
M  V30 3205 C 306.673 2.17014 -3.7041 0
M  V30 3206 C 305.906 3.4053 -4.10944 0
M  V30 3207 O 306.129 4.4927 -3.51444 0
M  V30 3208 O 305.063 3.29336 -5.03807 0
M  V30 3209 H 308.889 0.730657 -2.9478 0
M  V30 3210 H 306.474 0.295301 -1.46452 0
M  V30 3211 H 308.356 3.17691 -2.76858 0
M  V30 3212 H 307.031 2.79319 -1.63593 0
M  V30 3213 H 305.938 1.38403 -3.47556 0
M  V30 3214 H 307.271 1.83923 -4.56545 0
M  V30 3215 N 308.923 1.53595 0.353017 0
M  V30 3216 C 310.172 1.69603 1.09168 0
M  V30 3217 C 310.485 0.460925 1.90092 0
M  V30 3218 O 311.691 0.501774 2.66823 0
M  V30 3219 C 310.147 2.99872 1.9901 0
M  V30 3220 C 309.755 4.30687 1.23339 0
M  V30 3221 C 311.499 3.25246 2.72792 0
M  V30 3222 C 309.406 5.52036 2.12156 0
M  V30 3223 H 308.336 0.631966 0.411261 0
M  V30 3224 H 310.987 1.80096 0.351802 0
M  V30 3225 H 309.369 2.83212 2.7678 0
M  V30 3226 H 310.543 4.58019 0.505456 0
M  V30 3227 H 308.858 4.11853 0.613663 0
M  V30 3228 H 311.455 4.13095 3.39495 0
M  V30 3229 H 311.798 2.41846 3.38846 0
M  V30 3230 H 312.331 3.42638 2.021 0
M  V30 3231 H 309.07 6.37951 1.50659 0
M  V30 3232 H 308.59 5.28966 2.82764 0
M  V30 3233 H 310.269 5.87313 2.71427 0
M  V30 3234 N 310.401 -0.613514 1.45168 0
M  V30 3235 C 311.649 -1.36997 1.48581 0
M  V30 3236 C 311.97 -1.94589 0.126545 0
M  V30 3237 O 311.24 -1.76816 -0.843372 0
M  V30 3238 H 309.82 -0.508558 0.547154 0
M  V30 3239 H 312.482 -0.720853 1.81079 0
M  V30 3240 H 311.578 -2.1924 2.22127 0
M  V30 3241 N 311.879 -1.3236 -0.855495 0
M  V30 3242 C 312.827 -1.2118 -1.9854 0
M  V30 3243 C 313.821 -0.116788 -1.68997 0
M  V30 3244 O 315.027 -0.279657 -1.77814 0
M  V30 3245 H 311.402 -0.375608 -0.651477 0
M  V30 3246 H 313.373 -2.16743 -2.05098 0
M  V30 3247 C 312.122 -0.950849 -3.34446 0
M  V30 3248 H 311.445 -1.78563 -3.57708 0
M  V30 3249 H 312.885 -0.912863 -4.14057 0
M  V30 3250 C 311.344 0.346404 -3.35114 0
M  V30 3251 O 311.874 1.35855 -3.7803 0
M  V30 3252 N 310.08 0.36808 -2.88259 0
M  V30 3253 H 309.627 -0.456102 -2.5353 0
M  V30 3254 H 309.585 1.23591 -2.89089 0
M  V30 3255 N 313.357 1.07166 -1.15556 0
M  V30 3256 C 314.603 1.80065 -0.932984 0
M  V30 3257 C 314.936 1.86586 0.53845 0
M  V30 3258 O 314.211 1.35098 1.39924 0
M  V30 3259 C 314.494 3.25022 -1.55025 0
M  V30 3260 C 314.347 3.26634 -3.09242 0
M  V30 3261 C 315.666 4.22341 -1.2376 0
M  V30 3262 H 312.785 0.653697 -0.340366 0
M  V30 3263 H 315.427 1.25389 -1.4275 0
M  V30 3264 H 313.577 3.71712 -1.12972 0
M  V30 3265 H 315.249 2.88173 -3.60214 0
M  V30 3266 H 313.492 2.65539 -3.43033 0
M  V30 3267 H 314.163 4.28854 -3.47546 0
M  V30 3268 H 316.639 3.8405 -1.60139 0
M  V30 3269 H 315.515 5.22053 -1.69564 0
M  V30 3270 H 315.776 4.41828 -0.154938 0
M  V30 3271 N 314.835 0.952656 1.25548 0
M  V30 3272 C 316.082 0.606373 1.93208 0
M  V30 3273 C 316.41 -0.85631 1.74636 0
M  V30 3274 O 315.665 -1.62951 1.08376 0
M  V30 3275 C 315.964 0.908818 3.45652 0
M  V30 3276 C 315.63 2.35722 3.84378 0
M  V30 3277 C 314.292 2.75312 3.9466 0
M  V30 3278 C 316.644 3.29793 4.03591 0
M  V30 3279 C 313.972 4.08047 4.21562 0
M  V30 3280 C 316.324 4.62138 4.31985 0
M  V30 3281 C 314.988 5.01528 4.40484 0
M  V30 3282 H 314.258 0.221888 0.706998 0
M  V30 3283 H 316.905 1.20132 1.49133 0
M  V30 3284 H 315.21 0.231456 3.91116 0
M  V30 3285 H 316.907 0.619498 3.96186 0
M  V30 3286 H 313.497 2.04017 3.76928 0
M  V30 3287 H 317.681 3.00397 3.95064 0
M  V30 3288 H 312.937 4.38212 4.26357 0
M  V30 3289 H 317.111 5.35012 4.45797 0
M  V30 3290 H 314.738 6.04406 4.61083 0
M  V30 3291 N 316.313 -1.40141 0.720998 0
M  V30 3292 C 317.724 -1.83678 0.334553 0
M  V30 3293 C 318.075 -1.6027 -1.13173 0
M  V30 3294 O 317.2 -1.08643 -1.87152 0
M  V30 3295 C 317.795 -3.33437 0.600437 0
M  V30 3296 C 316.354 -3.75447 0.267642 0
M  V30 3297 C 315.501 -2.63296 0.870097 0
M  V30 3298 H 318.452 -1.29331 0.919732 0
M  V30 3299 H 318.473 -3.80269 -0.132517 0
M  V30 3300 H 317.985 -3.50442 1.66768 0
M  V30 3301 H 316.086 -3.64035 -0.794329 0
M  V30 3302 H 316.199 -4.73344 0.74042 0
M  V30 3303 H 314.563 -2.52954 0.297739 0
M  V30 3304 H 315.346 -2.83112 1.94172 0
M  V30 3305 N 317.792 -0.46758 -1.50504 0
M  V30 3306 C 319.017 0.0886943 -2.0721 0
M  V30 3307 C 319.442 1.33057 -1.32956 0
M  V30 3308 O 318.8 1.77354 -0.376197 0
M  V30 3309 C 318.848 0.359202 -3.58806 0
M  V30 3310 O 317.952 1.44034 -3.8643 0
M  V30 3311 H 317.293 -0.0114349 -0.663902 0
M  V30 3312 H 319.823 -0.657613 -1.93744 0
M  V30 3313 H 319.833 0.600742 -4.03553 0
M  V30 3314 H 318.508 -0.548311 -4.1227 0
M  V30 3315 H 317.085 1.18638 -3.53524 0
M  V30 3316 N 319.27 1.56325 -0.20005 0
M  V30 3317 C 320.217 2.1932 0.718833 0
M  V30 3318 C 321.187 1.14198 1.20615 0
M  V30 3319 O 322.372 1.42469 1.26914 0
M  V30 3320 C 319.512 2.86041 1.93066 0
M  V30 3321 C 318.625 4.05702 1.48425 0
M  V30 3322 C 317.76 4.60266 2.65196 0
M  V30 3323 C 316.799 5.72273 2.17185 0
M  V30 3324 N 315.936 6.21221 3.27152 0
M  V30 3325 H 320.776 2.97486 0.17489 0
M  V30 3326 H 318.313 1.46911 0.0745794 0
M  V30 3327 H 320.271 3.22897 2.64184 0
M  V30 3328 H 318.901 2.1043 2.44783 0
M  V30 3329 H 317.953 3.74475 0.668755 0
M  V30 3330 H 319.265 4.86699 1.09204 0
M  V30 3331 H 318.419 4.99453 3.4443 0
M  V30 3332 H 317.158 3.78386 3.07693 0
M  V30 3333 H 316.163 5.3261 1.36407 0
M  V30 3334 H 317.388 6.55974 1.75713 0
M  V30 3335 H 315.334 5.42263 3.69171 0
M  V30 3336 H 315.251 6.97284 2.92116 0
M  V30 3337 H 316.519 6.65063 4.06585 0
M  V30 3338 N 320.748 -0.0735177 1.57428 0
M  V30 3339 C 321.658 -1.10547 2.06922 0
M  V30 3340 C 322.674 -1.42506 0.998402 0
M  V30 3341 O 323.85 -1.52717 1.31299 0
M  V30 3342 C 320.915 -2.40019 2.50184 0
M  V30 3343 C 319.976 -2.15046 3.71556 0
M  V30 3344 C 319.209 -3.38345 4.12745 0
M  V30 3345 O 319.432 -4.47399 3.53822 0
M  V30 3346 O 318.366 -3.2666 5.05546 0
M  V30 3347 H 322.192 -0.715013 2.95163 0
M  V30 3348 H 319.777 -0.287531 1.46607 0
M  V30 3349 H 321.659 -3.16218 2.78539 0
M  V30 3350 H 320.334 -2.78447 1.65072 0
M  V30 3351 H 319.241 -1.36558 3.48285 0
M  V30 3352 H 320.574 -1.81499 4.57514 0
M  V30 3353 N 322.226 -1.5378 -0.344866 0
M  V30 3354 C 323.174 -1.82373 -1.4437 0
M  V30 3355 C 324.168 -0.694128 -1.54526 0
M  V30 3356 O 325.374 -0.877442 -1.57165 0
M  V30 3357 H 321.749 -0.577765 -0.481344 0
M  V30 3358 H 323.72 -2.74306 -1.17468 0
M  V30 3359 C 322.469 -2.04898 -2.80913 0
M  V30 3360 H 321.792 -2.9127 -2.73865 0
M  V30 3361 H 323.232 -2.28871 -3.56923 0
M  V30 3362 C 321.691 -0.834116 -3.26411 0
M  V30 3363 O 322.221 -0.0328885 -4.01687 0
M  V30 3364 N 320.427 -0.65171 -2.83198 0
M  V30 3365 H 319.974 -1.30489 -2.22104 0
M  V30 3366 H 319.932 0.159686 -3.13994 0
M  V30 3367 N 323.704 0.605807 -1.45491 0
M  V30 3368 C 324.981 1.36522 -1.40075 0
M  V30 3369 C 325.361 2.10976 -0.0722744 0
M  V30 3370 O 324.709 2.08007 0.945808 0
M  V30 3371 C 324.919 2.31056 -2.61561 0
M  V30 3372 C 326.267 2.93608 -3.06724 0
M  V30 3373 O 327.291 2.41376 -2.61946 0
M  V30 3374 O 326.15 3.88421 -3.84437 0
M  V30 3375 H 323.244 0.612248 -0.555951 0
M  V30 3376 H 325.79 0.628747 -1.57623 0
M  V30 3377 H 324.562 1.75311 -3.49831 0
M  V30 3378 H 324.185 3.12081 -2.46356 0
M  V30 3379 N 325.182 1.32811 0.848464 0
M  V30 3380 C 326.092 1.24278 1.98978 0
M  V30 3381 C 327.108 0.155176 1.73307 0
M  V30 3382 O 328.284 0.376999 1.9784 0
M  V30 3383 C 325.349 0.972444 3.32783 0
M  V30 3384 C 324.41 2.14911 3.71634 0
M  V30 3385 C 323.643 1.89157 4.99054 0
M  V30 3386 O 323.866 0.837165 5.64223 0
M  V30 3387 O 322.8 2.75433 5.35183 0
M  V30 3388 H 326.626 2.20238 2.09115 0
M  V30 3389 H 324.211 1.12762 0.980052 0
M  V30 3390 H 326.093 0.838432 4.12975 0
M  V30 3391 H 324.768 0.043051 3.23671 0
M  V30 3392 H 323.675 2.33862 2.91992 0
M  V30 3393 H 325.008 3.06151 3.85399 0
M  V30 3394 N 326.66 -1.06551 1.16123 0
M  V30 3395 C 327.59 -2.15935 0.88851 0
M  V30 3396 C 328.571 -1.69306 -0.164135 0
M  V30 3397 O 329.756 -1.94193 -0.0167857 0
M  V30 3398 C 326.886 -3.45149 0.385942 0
M  V30 3399 C 325.84 -4.05271 1.3762 0
M  V30 3400 C 325.166 -5.29664 0.732137 0
M  V30 3401 C 326.466 -4.44355 2.74493 0
M  V30 3402 H 328.16 -2.39006 1.80323 0
M  V30 3403 H 325.706 -1.14866 0.868435 0
M  V30 3404 H 327.659 -4.21004 0.182647 0
M  V30 3405 H 326.383 -3.21689 -0.564274 0
M  V30 3406 H 325.042 -3.3147 1.56599 0
M  V30 3407 H 324.69 -5.02499 -0.224483 0
M  V30 3408 H 324.39 -5.70848 1.39307 0
M  V30 3409 H 325.914 -6.08218 0.538802 0
M  V30 3410 H 327.328 -5.11303 2.59311 0
M  V30 3411 H 325.725 -4.96515 3.37035 0
M  V30 3412 H 326.795 -3.55339 3.29943 0
M  V30 3413 N 328.138 -0.959301 -1.25041 0
M  V30 3414 C 329.048 -0.489994 -2.29426 0
M  V30 3415 C 330.064 0.444944 -1.68215 0
M  V30 3416 O 331.24 0.320046 -1.98841 0
M  V30 3417 C 328.305 0.220309 -3.45999 0
M  V30 3418 C 327.366 -0.753418 -4.22637 0
M  V30 3419 C 326.599 -0.076918 -5.33645 0
M  V30 3420 O 326.822 1.13649 -5.58963 0
M  V30 3421 O 325.756 -0.764824 -5.97021 0
M  V30 3422 H 329.582 -1.35755 -2.71669 0
M  V30 3423 H 327.167 -0.725961 -1.30576 0
M  V30 3424 H 329.049 0.619677 -4.16819 0
M  V30 3425 H 327.724 1.06296 -3.0575 0
M  V30 3426 H 326.631 -1.20308 -3.54227 0
M  V30 3427 H 327.964 -1.56423 -4.66683 0
M  V30 3428 N 329.616 1.39756 -0.72842 0
M  V30 3429 C 330.844 2.04948 -0.283528 0
M  V30 3430 C 331.259 1.54908 1.0793 0
M  V30 3431 O 330.616 0.711135 1.68075 0
M  V30 3432 C 330.667 3.60498 -0.268957 0
M  V30 3433 O 330.388 4.08695 -1.57798 0
M  V30 3434 C 331.889 4.4288 0.192912 0
M  V30 3435 H 329.109 0.659243 -0.125056 0
M  V30 3436 H 331.653 1.78927 -0.990226 0
M  V30 3437 H 329.808 3.85444 0.388801 0
M  V30 3438 H 330.222 5.02977 -1.48709 0
M  V30 3439 H 331.696 5.51791 0.151952 0
M  V30 3440 H 332.173 4.21418 1.23708 0
M  V30 3441 H 332.779 4.23069 -0.435039 0
M  V30 3442 N 331.094 0.475555 1.50254 0
M  V30 3443 C 332.322 -0.0754493 2.06762 0
M  V30 3444 C 332.737 -1.33111 1.33891 0
M  V30 3445 O 332.094 -1.77846 0.40952 0
M  V30 3446 C 332.145 -0.359008 3.59713 0
M  V30 3447 O 331.866 0.846851 4.29837 0
M  V30 3448 C 333.367 -0.956484 4.32858 0
M  V30 3449 H 330.587 0.00907525 0.670939 0
M  V30 3450 H 333.131 0.665618 1.93364 0
M  V30 3451 H 331.286 -1.05001 3.72899 0
M  V30 3452 H 331.7 0.594162 5.21124 0
M  V30 3453 H 333.174 -1.10463 5.40834 0
M  V30 3454 H 333.651 -1.94775 3.93649 0
M  V30 3455 H 334.257 -0.303723 4.24214 0
M  V30 3456 N 332.573 -1.56217 0.208337 0
M  V30 3457 C 333.819 -1.98242 -0.427552 0
M  V30 3458 C 334.152 -1.09554 -1.60348 0
M  V30 3459 O 333.427 -0.15035 -1.93918 0
M  V30 3460 C 333.71 -3.4931 -0.874907 0
M  V30 3461 C 333.563 -4.48773 0.303751 0
M  V30 3462 C 334.882 -4.04424 -1.73577 0
M  V30 3463 H 332.001 -0.720744 -0.153936 0
M  V30 3464 H 334.643 -1.87586 0.30192 0
M  V30 3465 H 332.793 -3.58522 -1.49648 0
M  V30 3466 H 334.465 -4.51586 0.941682 0
M  V30 3467 H 332.708 -4.23194 0.953375 0
M  V30 3468 H 333.379 -5.51976 -0.0519883 0
M  V30 3469 H 335.855 -3.98075 -1.21143 0
M  V30 3470 H 334.731 -5.1047 -2.01771 0
M  V30 3471 H 334.992 -3.50494 -2.69456 0
M  V30 3472 N 334.051 0.0651679 -1.57465 0
M  V30 3473 C 335.276 0.779605 -1.9219 0
M  V30 3474 C 335.701 1.69988 -0.805333 0
M  V30 3475 O 335.059 1.79685 0.241435 0
M  V30 3476 C 335.107 1.54364 -3.2589 0
M  V30 3477 O 334.211 2.65474 -3.1559 0
M  V30 3478 H 333.552 0.212249 -0.629163 0
M  V30 3479 H 336.082 0.0314294 -2.04576 0
M  V30 3480 H 336.092 1.92146 -3.59922 0
M  V30 3481 H 334.767 0.868457 -4.06732 0
M  V30 3482 H 333.344 2.30501 -2.93128 0
M  V30 3483 N 335.529 1.53961 0.336706 0
M  V30 3484 C 336.777 1.71197 1.07405 0
M  V30 3485 C 337.098 0.481475 1.88962 0
M  V30 3486 O 336.368 -0.504585 1.8929 0
M  V30 3487 H 334.948 0.631185 0.399517 0
M  V30 3488 H 337.61 1.91232 0.376323 0
M  V30 3489 H 336.706 2.58587 1.74755 0
M  V30 3490 N 337.007 -0.598083 1.45811 0
M  V30 3491 C 338.256 -1.35295 1.49594 0
M  V30 3492 C 338.569 -1.95057 0.145679 0
M  V30 3493 O 339.775 -2.71431 0.0612099 0
M  V30 3494 C 338.231 -2.45124 2.63519 0
M  V30 3495 C 337.839 -1.91732 4.04899 0
M  V30 3496 C 339.583 -3.2205 2.76558 0
M  V30 3497 C 337.49 -2.991 5.1019 0
M  V30 3498 H 336.42 -0.508552 0.556679 0
M  V30 3499 H 339.071 -0.639977 1.71978 0
M  V30 3500 H 337.453 -3.19149 2.34435 0
M  V30 3501 H 338.627 -1.24352 4.43704 0
M  V30 3502 H 336.942 -1.27522 3.96393 0
M  V30 3503 H 339.539 -4.0215 3.52391 0
M  V30 3504 H 339.882 -3.73663 1.83526 0
M  V30 3505 H 340.415 -2.55127 3.05213 0
M  V30 3506 H 337.154 -2.52393 6.04961 0
M  V30 3507 H 336.674 -3.65017 4.75944 0
M  V30 3508 H 338.353 -3.63318 5.35359 0
M  V30 3509 N 338.485 -1.33259 -0.841409 0
M  V30 3510 C 339.762 -1.15174 -1.58096 0
M  V30 3511 C 340.142 0.282858 -2.09196 0
M  V30 3512 O 339.49 1.28151 -1.89181 0
M  V30 3513 C 339.7 -2.1907 -2.71679 0
M  V30 3514 C 341.048 -2.53093 -3.40924 0
M  V30 3515 O 342.072 -2.17717 -2.81918 0
M  V30 3516 O 340.931 -3.1379 -4.47435 0
M  V30 3517 H 338.025 -0.445303 -0.696875 0
M  V30 3518 H 340.571 -1.44833 -0.884385 0
M  V30 3519 H 339.343 -3.15443 -2.31541 0
M  V30 3520 H 338.966 -1.90481 -3.49002 0
M  V30 3521 N 339.963 1.05934 -1.16686 0
M  V30 3522 C 340.893 2.1546 -0.899949 0
M  V30 3523 C 341.874 1.69391 0.155154 0
M  V30 3524 O 343.059 1.94199 0.00648693 0
M  V30 3525 C 340.189 3.44939 -0.404241 0
M  V30 3526 C 339.143 4.04536 -1.39767 0
M  V30 3527 C 338.469 5.29268 -0.760216 0
M  V30 3528 C 339.769 4.42893 -2.76845 0
M  V30 3529 H 341.463 2.38046 -1.81588 0
M  V30 3530 H 339.009 1.14404 -0.874514 0
M  V30 3531 H 340.962 4.20901 -0.204971 0
M  V30 3532 H 339.686 3.21983 0.547206 0
M  V30 3533 H 338.345 3.30635 -1.58355 0
M  V30 3534 H 337.993 5.02611 0.197831 0
M  V30 3535 H 337.693 5.70101 -1.42332 0
M  V30 3536 H 339.217 6.07924 -0.57105 0
M  V30 3537 H 340.631 5.09921 -2.62019 0
M  V30 3538 H 339.028 4.94721 -3.39663 0
M  V30 3539 H 340.098 3.53584 -3.31823 0
M  V30 3540 N 341.441 0.965919 1.2453 0
M  V30 3541 C 342.666 0.643971 1.97149 0
M  V30 3542 C 343.091 -0.779487 1.71189 0
M  V30 3543 O 342.449 -1.5288 0.974553 0
M  V30 3544 C 342.497 0.922557 3.48599 0
M  V30 3545 O 341.601 0.00707672 4.12399 0
M  V30 3546 H 340.942 0.243647 0.617683 0
M  V30 3547 H 343.472 1.29558 1.58353 0
M  V30 3548 H 343.482 0.853373 3.98976 0
M  V30 3549 H 342.157 1.95996 3.66822 0
M  V30 3550 H 340.734 0.12943 3.72675 0
M  V30 3551 N 342.919 -1.39368 0.735821 0
M  V30 3552 C 344.147 -2.04795 0.294393 0
M  V30 3553 C 344.562 -1.55478 -1.07107 0
M  V30 3554 O 343.919 -0.720038 -1.67695 0
M  V30 3555 C 343.97 -3.6035 0.288071 0
M  V30 3556 O 343.691 -4.07852 1.59963 0
M  V30 3557 C 345.192 -4.42976 -0.169422 0
M  V30 3558 H 342.412 -0.658571 0.128551 0
M  V30 3559 H 344.956 -1.78399 0.999701 0
M  V30 3560 H 343.111 -3.85645 -0.368355 0
M  V30 3561 H 343.525 -5.02181 1.51375 0
M  V30 3562 H 344.999 -5.51864 -0.122687 0
M  V30 3563 H 345.476 -4.22068 -1.21472 0
M  V30 3564 H 346.082 -4.22832 0.457469 0
M  V30 3565 N 344.397 -0.483516 -1.5 0
M  V30 3566 C 345.645 0.067027 -2.01989 0
M  V30 3567 C 345.966 1.3909 -1.36671 0
M  V30 3568 O 345.236 1.88978 -0.516152 0
M  V30 3569 H 343.816 0.0277606 -0.746484 0
M  V30 3570 H 346.478 -0.636773 -1.84204 0
M  V30 3571 H 345.574 0.209484 -3.11396 0
M  V30 3572 N 345.875 1.56104 -0.216619 0
M  V30 3573 C 346.805 2.23063 0.690296 0
M  V30 3574 C 347.786 1.20072 1.20485 0
M  V30 3575 O 348.971 1.48643 1.24976 0
M  V30 3576 C 346.101 2.90672 1.90072 0
M  V30 3577 C 345.055 4.00092 1.5202 0
M  V30 3578 C 344.381 4.54972 2.80899 0
M  V30 3579 C 345.681 5.17398 0.71391 0
M  V30 3580 H 347.375 2.99109 0.132038 0
M  V30 3581 H 344.921 1.43866 0.0620664 0
M  V30 3582 H 346.874 3.36204 2.54057 0
M  V30 3583 H 345.598 2.12066 2.48386 0
M  V30 3584 H 344.257 3.55283 0.903839 0
M  V30 3585 H 343.905 3.73102 3.37348 0
M  V30 3586 H 343.605 5.28817 2.56176 0
M  V30 3587 H 345.129 5.0322 3.45836 0
M  V30 3588 H 346.543 5.59342 1.25735 0
M  V30 3589 H 344.94 5.97444 0.563951 0
M  V30 3590 H 346.01 4.84088 -0.280527 0
M  V30 3591 N 347.353 -0.0568162 1.57498 0
M  V30 3592 C 348.764 -0.606858 1.76562 0
M  V30 3593 C 349.115 -1.77114 0.844094 0
M  V30 3594 O 348.24 -2.16376 0.0318911 0
M  V30 3595 C 348.835 -1.10766 3.20182 0
M  V30 3596 C 347.394 -1.60344 3.40539 0
M  V30 3597 C 346.541 -0.529311 2.72201 0
M  V30 3598 H 349.492 0.169393 1.57793 0
M  V30 3599 H 349.513 -1.97602 3.25167 0
M  V30 3600 H 349.025 -0.26006 3.87228 0
M  V30 3601 H 347.126 -2.47379 2.78629 0
M  V30 3602 H 347.239 -1.67006 4.4905 0
M  V30 3603 H 345.603 -0.977893 2.35179 0
M  V30 3604 H 346.386 0.308352 3.41912 0
M  V30 3605 N 348.832 -1.54138 -0.328536 0
M  V30 3606 C 350.248 -1.44736 -0.672574 0
M  V30 3607 C 350.448 -0.616217 -1.91846 0
M  V30 3608 O 349.504 -0.113067 -2.52247 0
M  V30 3609 C 350.817 -2.884 -0.851217 0
M  V30 3610 C 352.365 -2.98271 -0.948877 0
M  V30 3611 C 352.84 -4.43074 -1.15973 0
M  V30 3612 N 354.331 -4.46665 -1.22658 0
M  V30 3613 C 355.066 -5.55857 -1.40751 0
M  V30 3614 N 354.562 -6.75026 -1.5592 0
M  V30 3615 N 356.355 -5.43495 -1.4342 0
M  V30 3616 H 348.506 -2.06661 0.490421 0
M  V30 3617 H 350.769 -0.934812 0.157579 0
M  V30 3618 H 350.475 -3.51699 -0.00704236 0
M  V30 3619 H 350.349 -3.34225 -1.74853 0
M  V30 3620 H 352.736 -2.35102 -1.78356 0
M  V30 3621 H 352.817 -2.55785 -0.0281435 0
M  V30 3622 H 352.461 -5.06827 -0.329915 0
M  V30 3623 H 352.391 -4.83165 -2.09426 0
M  V30 3624 H 354.882 -3.60797 -1.124 0
M  V30 3625 H 355.195 -7.54004 -1.69404 0
M  V30 3626 H 353.54 -6.77944 -1.53027 0
M  V30 3627 H 356.731 -4.49349 -1.31162 0
M  V30 3628 H 356.904 -6.28649 -1.57178 0
M  V30 3629 N 350.31 0.590341 -1.46126 0
M  V30 3630 C 351.257 1.69994 -1.56111 0
M  V30 3631 C 352.227 1.61065 -0.405867 0
M  V30 3632 O 353.412 1.8039 -0.621613 0
M  V30 3633 C 350.552 3.08326 -1.55013 0
M  V30 3634 C 349.665 3.27936 -2.81215 0
M  V30 3635 C 348.8 4.56473 -2.71673 0
M  V30 3636 C 347.839 4.694 -3.92849 0
M  V30 3637 N 346.976 5.89254 -3.81738 0
M  V30 3638 H 351.816 1.60797 -2.50895 0
M  V30 3639 H 349.353 0.783799 -1.24479 0
M  V30 3640 H 351.311 3.88383 -1.52362 0
M  V30 3641 H 349.941 3.16439 -0.637667 0
M  V30 3642 H 348.993 2.41536 -2.93879 0
M  V30 3643 H 350.305 3.33357 -3.71045 0
M  V30 3644 H 349.459 5.44748 -2.67085 0
M  V30 3645 H 348.198 4.53477 -1.7947 0
M  V30 3646 H 347.203 3.79544 -3.97777 0
M  V30 3647 H 348.428 4.7418 -4.86138 0
M  V30 3648 H 346.374 5.87271 -2.92317 0
M  V30 3649 H 346.291 5.95911 -4.65217 0
M  V30 3650 H 347.559 6.79981 -3.81112 0
M  V30 3651 N 351.788 1.33704 0.83433 0
M  V30 3652 C 352.718 1.26967 1.95963 0
M  V30 3653 C 353.699 0.149337 1.69443 0
M  V30 3654 O 354.884 0.339852 1.91203 0
M  V30 3655 C 352.014 1.01275 3.32206 0
M  V30 3656 C 350.968 2.09652 3.73136 0
M  V30 3657 C 350.294 1.69166 5.07235 0
M  V30 3658 C 351.594 3.51372 3.86439 0
M  V30 3659 H 353.288 2.2112 2.01857 0
M  V30 3660 H 350.834 1.06447 0.969793 0
M  V30 3661 H 352.787 0.952106 4.10503 0
M  V30 3662 H 351.511 0.0356203 3.26581 0
M  V30 3663 H 350.17 2.14766 2.97104 0
M  V30 3664 H 349.818 0.701437 4.98085 0
M  V30 3665 H 349.518 2.41694 5.35591 0
M  V30 3666 H 351.042 1.64576 5.88003 0
M  V30 3667 H 352.456 3.48734 4.55036 0
M  V30 3668 H 350.853 4.22425 4.26236 0
M  V30 3669 H 351.923 3.89546 2.88759 0
M  V30 3670 N 353.266 -1.05314 1.17247 0
M  V30 3671 C 354.494 -1.81971 0.984593 0
M  V30 3672 C 354.909 -1.82929 -0.467166 0
M  V30 3673 O 354.266 -1.25564 -1.32438 0
M  V30 3674 C 354.317 -3.28143 1.51672 0
M  V30 3675 O 354.038 -3.27347 2.91163 0
M  V30 3676 C 355.539 -4.21493 1.37326 0
M  V30 3677 H 352.759 -0.573455 0.348411 0
M  V30 3678 H 355.303 -1.32808 1.55506 0
M  V30 3679 H 353.458 -3.74582 0.988302 0
M  V30 3680 H 353.872 -4.18824 3.15732 0
M  V30 3681 H 355.346 -5.22043 1.79375 0
M  V30 3682 H 355.823 -4.38031 0.320169 0
M  V30 3683 H 356.429 -3.80909 1.89178 0
M  V30 3684 N 354.744 -0.972509 -1.24016 0
M  V30 3685 C 355.674 -0.525548 -2.27509 0
M  V30 3686 C 356.655 0.437262 -1.64384 0
M  V30 3687 O 357.84 0.332343 -1.91335 0
M  V30 3688 C 354.97 0.180448 -3.46831 0
M  V30 3689 C 353.924 -0.698859 -4.22256 0
M  V30 3690 C 353.25 0.138903 -5.3452 0
M  V30 3691 C 354.55 -1.98582 -4.83076 0
M  V30 3692 H 356.244 -1.39058 -2.65148 0
M  V30 3693 H 353.79 -0.67009 -1.27459 0
M  V30 3694 H 355.743 0.504387 -4.18371 0
M  V30 3695 H 354.467 1.07987 -3.08231 0
M  V30 3696 H 353.126 -1.00614 -3.52523 0
M  V30 3697 H 352.774 1.03862 -4.9216 0
M  V30 3698 H 352.474 -0.446259 -5.85903 0
M  V30 3699 H 353.998 0.457404 -6.08884 0
M  V30 3700 H 355.412 -1.72715 -5.46665 0
M  V30 3701 H 353.809 -2.5181 -5.44713 0
M  V30 3702 H 354.879 -2.67769 -4.04262 0
M  V30 3703 N 356.222 1.38976 -0.743202 0
M  V30 3704 C 357.169 2.30544 -0.10861 0
M  V30 3705 C 358.139 1.49642 0.720869 0
M  V30 3706 O 359.324 1.78304 0.679142 0
M  V30 3707 C 356.464 3.36018 0.786496 0
M  V30 3708 C 355.577 4.31963 -0.0564849 0
M  V30 3709 C 354.712 5.24506 0.840657 0
M  V30 3710 C 353.751 6.121 -0.00658363 0
M  V30 3711 N 352.888 6.96973 0.846943 0
M  V30 3712 H 357.728 2.8424 -0.895088 0
M  V30 3713 H 355.265 1.3995 -0.453048 0
M  V30 3714 H 357.223 3.95768 1.31999 0
M  V30 3715 H 355.853 2.83758 1.53887 0
M  V30 3716 H 354.905 3.73763 -0.707492 0
M  V30 3717 H 356.217 4.93703 -0.711229 0
M  V30 3718 H 355.371 5.89322 1.4417 0
M  V30 3719 H 354.11 4.63107 1.52916 0
M  V30 3720 H 353.115 5.46289 -0.620366 0
M  V30 3721 H 354.34 6.75565 -0.691992 0
M  V30 3722 H 352.286 6.38133 1.52059 0
M  V30 3723 H 352.203 7.5559 0.248864 0
M  V30 3724 H 353.471 7.6621 1.43328 0
M  V30 3725 N 357.7 0.491464 1.49741 0
M  V30 3726 C 358.948 -0.0563141 2.02022 0
M  V30 3727 C 359.269 -1.38363 1.37407 0
M  V30 3728 O 358.539 -1.88702 0.526166 0
M  V30 3729 H 357.119 -0.0238014 0.746621 0
M  V30 3730 H 359.781 0.646533 1.83864 0
M  V30 3731 H 358.877 -0.192967 3.11503 0
M  V30 3732 N 359.178 -1.55987 0.224894 0
M  V30 3733 C 360.426 -1.97998 -0.405099 0
M  V30 3734 C 360.747 -1.11387 -1.60056 0
M  V30 3735 O 360.017 -0.191645 -1.9496 0
M  V30 3736 H 358.597 -0.731235 -0.152658 0
M  V30 3737 H 361.259 -1.92279 0.318567 0
M  V30 3738 H 360.355 -3.03463 -0.729167 0
M  V30 3739 N 360.656 0.0484629 -1.57525 0
M  V30 3740 C 361.566 1.07241 -2.08654 0
M  V30 3741 C 362.582 1.409 -1.02095 0
M  V30 3742 O 363.758 1.50609 -1.33712 0
M  V30 3743 C 360.823 2.36008 -2.5397 0
M  V30 3744 C 359.884 2.09108 -3.7493 0
M  V30 3745 C 359.117 3.31736 -4.18075 0
M  V30 3746 O 359.34 4.41714 -3.60895 0
M  V30 3747 O 358.274 3.18576 -5.10679 0
M  V30 3748 H 362.1 0.667965 -2.96263 0
M  V30 3749 H 359.685 0.26417 -1.47046 0
M  V30 3750 H 361.567 3.11747 -2.83535 0
M  V30 3751 H 360.242 2.75786 -1.69481 0
M  V30 3752 H 359.149 1.31 -3.50414 0
M  V30 3753 H 360.482 1.74198 -4.60343 0
M  V30 3754 N 362.134 1.5431 0.320358 0
M  V30 3755 C 363.38 1.72924 1.05949 0
M  V30 3756 C 363.713 0.503185 1.87568 0
M  V30 3757 O 362.988 -0.499839 1.87968 0
M  V30 3758 C 363.271 3.00676 1.98156 0
M  V30 3759 C 363.124 4.3354 1.19845 0
M  V30 3760 C 364.443 3.24198 2.9763 0
M  V30 3761 H 361.562 0.629195 0.383774 0
M  V30 3762 H 364.204 1.87008 0.335854 0
M  V30 3763 H 362.354 2.888 2.59859 0
M  V30 3764 H 364.026 4.57305 0.605773 0
M  V30 3765 H 362.269 4.309 0.500784 0
M  V30 3766 H 362.94 5.19156 1.87567 0
M  V30 3767 H 365.416 3.35557 2.4605 0
M  V30 3768 H 364.292 4.14938 3.59329 0
M  V30 3769 H 364.553 2.41577 3.7026 0
M  V30 3770 N 363.613 -0.582584 1.46437 0
M  V30 3771 C 365.029 -0.905962 1.31394 0
M  V30 3772 C 365.229 -1.99468 0.285476 0
M  V30 3773 O 364.285 -2.50566 -0.311914 0
M  V30 3774 C 365.598 -1.3232 2.70022 0
M  V30 3775 C 367.146 -1.43604 2.78113 0
M  V30 3776 C 367.621 -1.88694 4.17323 0
M  V30 3777 N 369.112 -1.95887 4.19741 0
M  V30 3778 C 369.847 -2.32051 5.24347 0
M  V30 3779 N 369.343 -2.67006 6.39281 0
M  V30 3780 N 371.136 -2.32606 5.11713 0
M  V30 3781 H 363.287 0.1366 2.1196 0
M  V30 3782 H 365.55 -0.00155736 0.947999 0
M  V30 3783 H 365.256 -0.597242 3.46592 0
M  V30 3784 H 365.13 -2.28469 3.00136 0
M  V30 3785 H 367.517 -2.15286 2.01832 0
M  V30 3786 H 367.598 -0.457059 2.51684 0
M  V30 3787 H 367.242 -1.1759 4.941 0
M  V30 3788 H 367.172 -2.8755 4.4116 0
M  V30 3789 H 369.663 -1.71362 3.36814 0
M  V30 3790 H 369.976 -2.93554 7.14875 0
M  V30 3791 H 368.321 -2.64644 6.42642 0
M  V30 3792 H 371.512 -2.04721 4.2096 0
M  V30 3793 H 371.685 -2.60462 5.93349 0
M  V30 3794 N 365.091 -1.34144 -0.827227 0
M  V30 3795 C 366.001 -1.27428 -1.96975 0
M  V30 3796 C 367.017 -0.182728 -1.73038 0
M  V30 3797 O 368.193 -0.408426 -1.97215 0
M  V30 3798 C 365.258 -1.02526 -3.31194 0
M  V30 3799 C 364.319 -2.20796 -3.68168 0
M  V30 3800 C 363.552 -1.97073 -4.95982 0
M  V30 3801 O 363.775 -0.926822 -5.6282 0
M  V30 3802 O 362.709 -2.83912 -5.30733 0
M  V30 3803 H 366.535 -2.23537 -2.05584 0
M  V30 3804 H 364.12 -1.14307 -0.961989 0
M  V30 3805 H 366.002 -0.904026 -4.11589 0
M  V30 3806 H 364.677 -0.0945389 -3.23562 0
M  V30 3807 H 363.584 -2.38477 -2.88235 0
M  V30 3808 H 364.917 -3.12243 -3.8048 0
M  V30 3809 N 366.569 1.04691 -1.17803 0
M  V30 3810 C 367.532 2.10724 -0.901545 0
M  V30 3811 C 368.532 1.6042 0.110437 0
M  V30 3812 O 369.722 1.7377 -0.122303 0
M  V30 3813 C 366.854 3.39084 -0.351409 0
M  V30 3814 H 368.047 2.36686 -1.84174 0
M  V30 3815 H 365.6 1.21015 -0.98919 0
M  V30 3816 H 366.335 3.18782 0.59569 0
M  V30 3817 H 366.12 3.76909 -1.08083 0
M  V30 3818 H 367.61 4.17227 -0.176451 0
M  V30 3819 N 368.047 0.979072 1.23499 0
M  V30 3820 C 368.977 0.537606 2.27227 0
M  V30 3821 C 369.958 -0.428539 1.64613 0
M  V30 3822 O 371.143 -0.322191 1.91509 0
M  V30 3823 C 368.273 -0.162052 3.46922 0
M  V30 3824 C 367.227 0.721242 4.21879 0
M  V30 3825 C 366.553 -0.110555 5.34586 0
M  V30 3826 C 367.853 2.01141 4.82016 0
M  V30 3827 H 369.547 1.40462 2.64406 0
M  V30 3828 H 367.093 0.67684 1.27102 0
M  V30 3829 H 369.046 -0.482192 4.18632 0
M  V30 3830 H 367.77 -1.06351 3.08799 0
M  V30 3831 H 366.429 1.02482 3.51984 0
M  V30 3832 H 366.077 -1.0125 4.92704 0
M  V30 3833 H 365.777 0.477325 5.85658 0
M  V30 3834 H 367.301 -0.425107 6.09118 0
M  V30 3835 H 368.715 1.75612 5.45741 0
M  V30 3836 H 367.112 2.54695 5.43369 0
M  V30 3837 H 368.182 2.69909 4.02836 0
M  V30 3838 N 369.525 -1.3858 0.750561 0
M  V30 3839 C 370.941 -1.53759 0.427824 0
M  V30 3840 C 371.141 -1.71401 -1.05943 0
M  V30 3841 O 370.197 -1.72331 -1.84549 0
M  V30 3842 C 371.51 -2.74642 1.22443 0
M  V30 3843 C 373.058 -2.88489 1.2142 0
M  V30 3844 C 373.533 -4.12329 1.9937 0
M  V30 3845 N 375.024 -4.194 1.96616 0
M  V30 3846 C 375.759 -5.14209 2.53727 0
M  V30 3847 N 375.255 -6.14709 3.19539 0
M  V30 3848 N 377.048 -5.06537 2.43673 0
M  V30 3849 H 369.199 -1.25377 1.71447 0
M  V30 3850 H 371.462 -0.608844 0.726645 0
M  V30 3851 H 371.168 -2.68 2.27747 0
M  V30 3852 H 371.042 -3.67745 0.839273 0
M  V30 3853 H 373.429 -2.94614 0.169232 0
M  V30 3854 H 373.51 -1.96406 1.63885 0
M  V30 3855 H 373.154 -4.06966 3.03877 0
M  V30 3856 H 373.084 -5.03486 1.54302 0
M  V30 3857 H 375.575 -3.47421 1.48684 0
M  V30 3858 H 375.888 -6.8354 3.60545 0
M  V30 3859 H 374.233 -6.1505 3.23633 0
M  V30 3860 H 377.424 -4.26962 1.91889 0
M  V30 3861 H 377.597 -5.80245 2.88479 0
M  V30 3862 N 371.003 -0.499398 -1.49478 0
M  V30 3863 C 372.228 0.044722 -2.07352 0
M  V30 3864 C 372.653 1.30207 -1.35749 0
M  V30 3865 O 372.011 1.76516 -0.413732 0
M  V30 3866 C 372.059 0.283013 -3.59488 0
M  V30 3867 O 371.163 1.35804 -3.89398 0
M  V30 3868 H 370.504 -0.0255147 -0.66351 0
M  V30 3869 H 373.034 -0.698561 -1.92305 0
M  V30 3870 H 373.044 0.515007 -4.04737 0
M  V30 3871 H 371.719 -0.635636 -4.11014 0
M  V30 3872 H 370.296 1.11113 -3.55961 0
M  V30 3873 N 372.481 1.55866 -0.233164 0
M  V30 3874 C 373.727 1.98897 0.395959 0
M  V30 3875 C 374.06 1.12091 1.58585 0
M  V30 3876 O 373.335 0.181182 1.93654 0
M  V30 3877 C 373.618 3.50658 0.819224 0
M  V30 3878 C 373.471 4.48233 -0.375109 0
M  V30 3879 C 374.79 4.07135 1.67121 0
M  V30 3880 H 371.909 0.723102 0.142451 0
M  V30 3881 H 374.551 1.87082 -0.331725 0
M  V30 3882 H 372.701 3.60857 1.43925 0
M  V30 3883 H 374.373 4.50031 -1.01341 0
M  V30 3884 H 372.616 4.21624 -1.02058 0
M  V30 3885 H 373.287 5.51988 -0.0358328 0
M  V30 3886 H 375.763 3.99952 1.14795 0
M  V30 3887 H 374.639 5.13615 1.93625 0
M  V30 3888 H 374.9 3.54736 2.63846 0
M  V30 3889 N 373.959 -0.0401083 1.57549 0
M  V30 3890 C 375.205 -0.734211 1.89043 0
M  V30 3891 C 375.538 -1.75591 0.829535 0
M  V30 3892 O 374.813 -1.93868 -0.156706 0
M  V30 3893 C 375.096 -1.41374 3.31188 0
M  V30 3894 C 374.949 -0.406299 4.47961 0
M  V30 3895 C 376.268 -2.35061 3.72068 0
M  V30 3896 H 373.387 -0.265447 0.687537 0
M  V30 3897 H 376.029 0.00294087 1.9 0
M  V30 3898 H 374.179 -2.04206 3.30503 0
M  V30 3899 H 375.851 0.219255 4.60779 0
M  V30 3900 H 374.094 0.275485 4.32924 0
M  V30 3901 H 374.765 -0.920022 5.44279 0
M  V30 3902 H 377.241 -1.82282 3.74049 0
M  V30 3903 H 376.117 -2.79593 4.72355 0
M  V30 3904 H 376.378 -3.21258 3.0372 0
M  V30 3905 N 375.437 -1.54477 -0.31217 0
M  V30 3906 C 376.683 -1.73483 -1.0503 0
M  V30 3907 C 377.016 -0.513125 -1.87298 0
M  V30 3908 O 376.291 0.489864 -1.8823 0
M  V30 3909 C 376.574 -3.01723 -1.96558 0
M  V30 3910 C 376.427 -4.3417 -1.17545 0
M  V30 3911 C 377.746 -3.25772 -2.95907 0
M  V30 3912 H 374.865 -0.631222 -0.380432 0
M  V30 3913 H 377.507 -1.87184 -0.325932 0
M  V30 3914 H 375.657 -2.90174 -2.58324 0
M  V30 3915 H 377.329 -4.5762 -0.581513 0
M  V30 3916 H 375.572 -4.31159 -0.477925 0
M  V30 3917 H 376.243 -5.20143 -1.84811 0
M  V30 3918 H 378.719 -3.36857 -2.44267 0
M  V30 3919 H 377.595 -4.16838 -3.57123 0
M  V30 3920 H 377.856 -2.43537 -3.68974 0
M  V30 3921 N 376.915 0.57481 -1.46744 0
M  V30 3922 C 377.878 1.66533 -1.57478 0
M  V30 3923 C 378.878 1.54338 -0.451263 0
M  V30 3924 O 380.068 1.58814 -0.715813 0
M  V30 3925 C 377.2 3.05999 -1.50259 0
M  V30 3926 H 378.393 1.58372 -2.54673 0
M  V30 3927 H 375.946 0.793301 -1.34672 0
M  V30 3928 H 376.681 3.19709 -0.543725 0
M  V30 3929 H 376.466 3.16259 -2.31781 0
M  V30 3930 H 377.956 3.8537 -1.60872 0
M  V30 3931 N 378.394 1.34581 0.820102 0
M  V30 3932 C 379.643 1.26437 1.57151 0
M  V30 3933 C 379.956 -0.163111 1.94919 0
M  V30 3934 O 381.162 -0.366722 2.69012 0
M  V30 3935 C 379.618 2.21658 2.83541 0
M  V30 3936 C 379.226 3.69679 2.53065 0
M  V30 3937 C 380.97 2.22428 3.61561 0
M  V30 3938 C 378.877 4.56761 3.75664 0
M  V30 3939 H 377.807 0.469707 0.589823 0
M  V30 3940 H 380.458 1.59763 0.902656 0
M  V30 3941 H 378.84 1.81287 3.52067 0
M  V30 3942 H 380.014 4.18605 1.92631 0
M  V30 3943 H 378.329 3.71384 1.88316 0
M  V30 3944 H 380.926 2.8471 4.52597 0
M  V30 3945 H 381.269 1.22434 3.97889 0
M  V30 3946 H 381.802 2.61259 2.99981 0
M  V30 3947 H 378.541 5.57702 3.44454 0
M  V30 3948 H 378.061 4.12568 4.35371 0
M  V30 3949 H 379.74 4.71509 4.43044 0
M  V30 3950 N 379.872 -1.04064 1.18357 0
M  V30 3951 C 381.118 -1.77528 0.980397 0
M  V30 3952 C 381.451 -1.87948 -0.48879 0
M  V30 3953 O 380.726 -1.3876 -1.36293 0
M  V30 3954 C 381.009 -3.20797 1.63588 0
M  V30 3955 C 380.862 -3.1832 3.17793 0
M  V30 3956 C 382.181 -4.18911 1.34914 0
M  V30 3957 H 379.3 -0.644443 0.357578 0
M  V30 3958 H 381.942 -1.2156 1.46024 0
M  V30 3959 H 380.092 -3.68586 1.22788 0
M  V30 3960 H 381.764 -2.78521 3.67728 0
M  V30 3961 H 380.007 -2.56351 3.49952 0
M  V30 3962 H 380.678 -4.19489 3.58794 0
M  V30 3963 H 383.154 -3.7967 1.70265 0
M  V30 3964 H 382.03 -5.17374 1.83346 0
M  V30 3965 H 382.291 -4.41262 0.272027 0
M  V30 3966 N 381.35 -0.985608 -1.22978 0
M  V30 3967 C 382.26 -0.538548 -2.28335 0
M  V30 3968 C 383.276 0.409163 -1.69121 0
M  V30 3969 O 384.452 0.277797 -1.99475 0
M  V30 3970 C 381.517 0.146867 -3.46389 0
M  V30 3971 C 380.578 -0.842896 -4.20944 0
M  V30 3972 C 379.811 -0.190095 -5.33361 0
M  V30 3973 O 380.034 1.01767 -5.61248 0
M  V30 3974 O 378.968 -0.891289 -5.95264 0
M  V30 3975 H 382.794 -1.41487 -2.68729 0
M  V30 3976 H 380.379 -0.753495 -1.29007 0
M  V30 3977 H 382.261 0.531125 -4.1804 0
M  V30 3978 H 380.936 0.997871 -3.07935 0
M  V30 3979 H 379.843 -1.27795 -3.51595 0
M  V30 3980 H 381.176 -1.66287 -4.6326 0
M  V30 3981 N 382.828 1.3818 -0.7579 0
M  V30 3982 C 384.053 2.04827 -0.325679 0
M  V30 3983 C 384.478 1.56788 1.03919 0
M  V30 3984 O 383.836 0.721811 1.66312 0
M  V30 3985 C 383.884 3.58774 -0.362447 0
M  V30 3986 O 382.988 4.07372 0.642033 0
M  V30 3987 H 382.329 0.64833 -0.143402 0
M  V30 3988 H 384.859 1.7677 -1.03023 0
M  V30 3989 H 384.869 4.07434 -0.214844 0
M  V30 3990 H 383.544 3.93096 -1.35824 0
M  V30 3991 H 382.121 3.70068 0.458688 0
M  V30 3992 N 384.306 0.507319 1.49211 0
M  V30 3993 C 385.552 -0.0350047 2.0277 0
M  V30 3994 C 385.885 -1.3606 1.38569 0
M  V30 3995 O 385.16 -1.87321 0.523542 0
M  V30 3996 C 385.443 -0.180916 3.59645 0
M  V30 3997 C 385.296 1.16825 4.34364 0
M  V30 3998 C 386.615 -0.918558 4.30407 0
M  V30 3999 H 383.734 -0.0112473 0.736914 0
M  V30 4000 H 386.376 0.659956 1.7817 0
M  V30 4001 H 384.526 -0.772826 3.80736 0
M  V30 4002 H 386.198 1.79952 4.24753 0
M  V30 4003 H 384.441 1.75594 3.96673 0
M  V30 4004 H 385.112 1.01939 5.42506 0
M  V30 4005 H 387.588 -0.41649 4.1401 0
M  V30 4006 H 386.464 -0.989505 5.39907 0
M  V30 4007 H 386.725 -1.96373 3.96093 0
M  V30 4008 N 385.784 -1.5574 0.241426 0
M  V30 4009 C 387.2 -1.59196 -0.113548 0
M  V30 4010 C 387.4 -1.25852 -1.57364 0
M  V30 4011 O 386.456 -1.00322 -2.31715 0
M  V30 4012 C 387.769 -2.99814 0.230695 0
M  V30 4013 C 389.317 -3.12513 0.174547 0
M  V30 4014 C 389.792 -4.55342 0.492744 0
M  V30 4015 N 391.283 -4.61076 0.443043 0
M  V30 4016 C 392.018 -5.6956 0.662484 0
M  V30 4017 N 391.514 -6.86328 0.944761 0
M  V30 4018 N 393.307 -5.58957 0.593564 0
M  V30 4019 H 385.458 -1.75685 1.19368 0
M  V30 4020 H 387.721 -0.81756 0.479896 0
M  V30 4021 H 387.427 -3.28932 1.24485 0
M  V30 4022 H 387.301 -3.74568 -0.444833 0
M  V30 4023 H 389.688 -2.83179 -0.830277 0
M  V30 4024 H 389.769 -2.40045 0.883845 0
M  V30 4025 H 389.413 -4.85396 1.4951 0
M  V30 4026 H 389.343 -5.26062 -0.23797 0
M  V30 4027 H 391.834 -3.77179 0.233374 0
M  V30 4028 H 392.147 -7.64935 1.09977 0
M  V30 4029 H 390.492 -6.88025 0.982175 0
M  V30 4030 H 393.683 -4.66611 0.373123 0
M  V30 4031 H 393.856 -6.43433 0.767981 0
M  V30 4032 N 387.262 0.0317525 -1.57568 0
M  V30 4033 C 388.49 0.734949 -1.93407 0
M  V30 4034 C 388.905 1.69036 -0.84096 0
M  V30 4035 O 388.262 1.81582 0.182836 0
M  V30 4036 C 388.313 1.49432 -3.29169 0
M  V30 4037 O 388.034 0.577261 -4.3428 0
M  V30 4038 C 389.535 2.29492 -3.79273 0
M  V30 4039 H 386.755 0.206706 -0.638368 0
M  V30 4040 H 389.299 -0.00992046 -2.04498 0
M  V30 4041 H 387.454 2.1911 -3.19483 0
M  V30 4042 H 387.868 1.10952 -5.1263 0
M  V30 4043 H 389.342 2.78172 -4.76785 0
M  V30 4044 H 389.819 3.10794 -3.10328 0
M  V30 4045 H 390.425 1.64894 -3.92033 0
M  V30 4046 N 388.74 1.54641 0.303973 0
M  V30 4047 C 389.968 1.77768 1.05858 0
M  V30 4048 C 390.383 0.535722 1.8104 0
M  V30 4049 O 389.74 -0.494337 1.75677 0
M  V30 4050 C 389.791 2.9834 2.04146 0
M  V30 4051 O 389.512 4.17736 1.32015 0
M  V30 4052 C 391.013 3.33832 2.91669 0
M  V30 4053 H 388.233 0.592961 0.314067 0
M  V30 4054 H 390.777 2.01583 0.344149 0
M  V30 4055 H 388.932 2.76742 2.71096 0
M  V30 4056 H 389.346 4.85693 1.97998 0
M  V30 4057 H 390.82 4.21448 3.56491 0
M  V30 4058 H 391.297 2.51857 3.59812 0
M  V30 4059 H 391.903 3.57579 2.30254 0
M  V30 4060 N 390.218 -0.567019 1.47046 0
M  V30 4061 C 391.148 -1.68482 1.61667 0
M  V30 4062 C 392.129 -1.6358 0.466418 0
M  V30 4063 O 393.314 -1.81354 0.694574 0
M  V30 4064 C 390.444 -3.07124 1.62148 0
M  V30 4065 C 389.398 -3.26867 2.76301 0
M  V30 4066 C 388.724 -4.66196 2.61849 0
M  V30 4067 C 390.024 -3.13186 4.17986 0
M  V30 4068 H 391.718 -1.56502 2.5524 0
M  V30 4069 H 389.264 -0.751486 1.22836 0
M  V30 4070 H 391.217 -3.8516 1.70968 0
M  V30 4071 H 389.941 -3.2004 0.651287 0
M  V30 4072 H 388.6 -2.51237 2.66975 0
M  V30 4073 H 388.248 -4.75898 1.62879 0
M  V30 4074 H 387.948 -4.80356 3.38425 0
M  V30 4075 H 389.472 -5.46379 2.72584 0
M  V30 4076 H 390.886 -3.81049 4.2834 0
M  V30 4077 H 389.283 -3.3886 4.95272 0
M  V30 4078 H 390.353 -2.10057 4.3704 0
M  V30 4079 N 391.696 -1.35014 -0.812953 0
M  V30 4080 C 392.606 -1.2951 -1.95613 0
M  V30 4081 C 393.622 -0.20107 -1.72834 0
M  V30 4082 O 394.798 -0.42932 -1.96771 0
M  V30 4083 C 391.863 -1.06033 -3.30088 0
M  V30 4084 C 390.924 -2.24688 -3.65805 0
M  V30 4085 C 390.157 -2.02322 -4.93864 0
M  V30 4086 O 390.38 -0.986464 -5.61805 0
M  V30 4087 O 389.314 -2.89525 -5.27692 0
M  V30 4088 H 393.14 -2.25705 -2.03202 0
M  V30 4089 H 390.725 -1.15321 -0.949811 0
M  V30 4090 H 392.607 -0.94763 -4.10607 0
M  V30 4091 H 391.282 -0.128852 -3.23443 0
M  V30 4092 H 390.189 -2.41521 -2.85689 0
M  V30 4093 H 391.522 -3.16261 -3.77147 0
M  V30 4094 N 393.175 1.03435 -1.18907 0
M  V30 4095 C 394.122 2.11591 -0.921837 0
M  V30 4096 C 395.092 1.65499 0.141226 0
M  V30 4097 O 396.277 1.908 0.000242829 0
M  V30 4098 C 393.417 3.42012 -0.460616 0
M  V30 4099 C 392.53 4.01682 -1.58982 0
M  V30 4100 C 391.665 5.20091 -1.08069 0
M  V30 4101 C 390.704 5.71805 -2.18416 0
M  V30 4102 N 389.841 6.81494 -1.68849 0
M  V30 4103 H 394.681 2.33787 -1.8479 0
M  V30 4104 H 392.218 1.1467 -0.921373 0
M  V30 4105 H 394.176 4.16834 -0.174642 0
M  V30 4106 H 392.806 3.19944 0.428467 0
M  V30 4107 H 391.858 3.24127 -1.99113 0
M  V30 4108 H 393.17 4.36084 -2.4214 0
M  V30 4109 H 392.324 6.02051 -0.749615 0
M  V30 4110 H 391.063 4.87209 -0.218771 0
M  V30 4111 H 390.068 4.88461 -2.5236 0
M  V30 4112 H 391.293 6.06728 -3.05054 0
M  V30 4113 H 389.239 6.50475 -0.849572 0
M  V30 4114 H 389.156 7.14994 -2.45601 0
M  V30 4115 H 390.424 7.67063 -1.38689 0
M  V30 4116 N 394.653 0.992116 1.22453 0
M  V30 4117 C 395.881 0.685944 1.95198 0
M  V30 4118 C 396.296 -0.749233 1.73297 0
M  V30 4119 O 395.653 -1.50549 1.03156 0
M  V30 4120 C 395.704 0.981395 3.47924 0
M  V30 4121 O 395.425 2.36018 3.6909 0
M  V30 4122 C 396.926 0.692815 4.37853 0
M  V30 4123 H 394.146 0.253821 0.621141 0
M  V30 4124 H 396.69 1.32668 1.55626 0
M  V30 4125 H 394.845 0.386481 3.85467 0
M  V30 4126 H 395.259 2.45884 4.63294 0
M  V30 4127 H 396.733 0.949818 5.43767 0
M  V30 4128 H 397.21 -0.373181 4.37612 0
M  V30 4129 H 397.816 1.26874 4.05935 0
M  V30 4130 N 396.131 -1.37776 0.765217 0
M  V30 4131 C 397.542 -1.82521 0.392819 0
M  V30 4132 C 397.893 -1.63789 -1.08017 0
M  V30 4133 O 397.018 -1.14542 -1.83601 0
M  V30 4134 C 397.613 -3.31358 0.706214 0
M  V30 4135 C 396.172 -3.74406 0.386952 0
M  V30 4136 C 395.319 -2.60394 0.953422 0
M  V30 4137 H 398.27 -1.2634 0.960412 0
M  V30 4138 H 398.291 -3.80498 -0.0114706 0
M  V30 4139 H 397.803 -3.44959 1.77833 0
M  V30 4140 H 395.904 -3.66377 -0.678112 0
M  V30 4141 H 396.017 -4.70749 0.890636 0
M  V30 4142 H 394.381 -2.51878 0.378064 0
M  V30 4143 H 395.164 -2.76791 2.03081 0
M  V30 4144 N 397.609 -0.515225 -1.4894 0
M  V30 4145 C 399.02 -0.0710067 -1.86565 0
M  V30 4146 C 399.371 1.34733 -1.42623 0
M  V30 4147 O 398.496 2.00653 -0.810379 0
M  V30 4148 C 399.091 -0.122083 -3.3858 0
M  V30 4149 C 397.65 0.266863 -3.75453 0
M  V30 4150 C 396.797 -0.488376 -2.72966 0
M  V30 4151 H 399.748 -0.727266 -1.41055 0
M  V30 4152 H 399.769 0.669818 -3.74558 0
M  V30 4153 H 399.281 -1.15448 -3.70531 0
M  V30 4154 H 397.382 1.30196 -3.49113 0
M  V30 4155 H 397.495 -0.0624811 -4.79059 0
M  V30 4156 H 395.859 0.0635622 -2.54621 0
M  V30 4157 H 396.642 -1.52113 -3.07761 0
M  V30 4158 N 399.087 1.5561 -0.249682 0
M  V30 4159 C 399.997 2.25143 0.659375 0
M  V30 4160 C 401.013 1.2685 1.19101 0
M  V30 4161 O 402.189 1.59732 1.22669 0
M  V30 4162 C 399.254 2.93945 1.8384 0
M  V30 4163 C 398.315 4.07655 1.34596 0
M  V30 4164 C 397.548 4.73167 2.46878 0
M  V30 4165 O 397.771 4.37768 3.65671 0
M  V30 4166 O 396.705 5.61623 2.16478 0
M  V30 4167 H 400.531 3.03545 0.0968698 0
M  V30 4168 H 398.116 1.49389 -0.018074 0
M  V30 4169 H 399.998 3.37271 2.52638 0
M  V30 4170 H 398.673 2.18481 2.38847 0
M  V30 4171 H 397.58 3.68839 0.625174 0
M  V30 4172 H 398.913 4.84946 0.841941 0
M  V30 4173 N 400.565 -0.0233959 1.57583 0
M  V30 4174 C 401.495 -1.02162 2.09965 0
M  V30 4175 C 402.476 -1.3735 1.00344 0
M  V30 4176 O 403.661 -1.46135 1.27899 0
M  V30 4177 C 400.791 -2.32081 2.58371 0
M  V30 4178 C 399.745 -2.1112 3.72307 0
M  V30 4179 C 399.071 -3.46848 4.06941 0
M  V30 4180 C 400.371 -1.49276 5.00514 0
M  V30 4181 H 402.065 -0.585557 2.93618 0
M  V30 4182 H 399.611 -0.280218 1.41247 0
M  V30 4183 H 401.564 -3.02249 2.93639 0
M  V30 4184 H 400.288 -2.77758 1.71808 0
M  V30 4185 H 398.947 -1.43384 3.37397 0
M  V30 4186 H 398.595 -3.90184 3.17436 0
M  V30 4187 H 398.295 -3.33646 4.83688 0
M  V30 4188 H 399.819 -4.18369 4.44747 0
M  V30 4189 H 401.233 -2.09368 5.33702 0
M  V30 4190 H 399.63 -1.46632 5.8191 0
M  V30 4191 H 400.7 -0.459217 4.82721 0
M  V30 4192 N 402.043 -1.548 -0.295768 0
M  V30 4193 C 403.289 -1.74588 -1.03184 0
M  V30 4194 C 403.622 -0.532962 -1.86744 0
M  V30 4195 O 402.897 0.469872 -1.88739 0
M  V30 4196 C 403.18 -3.03791 -1.93347 0
M  V30 4197 C 403.033 -4.35392 -1.12933 0
M  V30 4198 C 404.352 -3.28892 -2.92435 0
M  V30 4199 H 401.471 -0.635221 -0.373715 0
M  V30 4200 H 404.113 -1.87519 -0.30606 0
M  V30 4201 H 402.263 -2.92898 -2.55232 0
M  V30 4202 H 403.935 -4.58211 -0.532943 0
M  V30 4203 H 402.178 -4.31642 -0.432168 0
M  V30 4204 H 402.849 -5.22074 -1.79284 0
M  V30 4205 H 405.325 -3.39429 -2.4068 0
M  V30 4206 H 404.201 -4.20603 -3.52682 0
M  V30 4207 H 404.462 -2.47437 -3.6637 0
M  V30 4208 N 403.521 0.559213 -1.47345 0
M  V30 4209 C 404.746 1.34676 -1.57725 0
M  V30 4210 C 405.171 1.86723 -0.227164 0
M  V30 4211 O 404.529 1.6286 0.796642 0
M  V30 4212 C 404.577 2.49399 -2.60447 0
M  V30 4213 O 403.681 3.51567 -2.15578 0
M  V30 4214 H 403.022 0.400115 -0.52991 0
M  V30 4215 H 405.552 0.676009 -1.93109 0
M  V30 4216 H 405.562 2.95996 -2.80803 0
M  V30 4217 H 404.237 2.10873 -3.58477 0
M  V30 4218 H 402.814 3.11289 -2.05313 0
M  V30 4219 N 404.999 1.35443 0.805782 0
M  V30 4220 C 406.276 1.19325 1.54987 0
M  V30 4221 C 406.656 -0.227294 2.09873 0
M  V30 4222 O 406.004 -1.2309 1.92512 0
M  V30 4223 C 406.214 2.26196 2.65775 0
M  V30 4224 C 407.562 2.62043 3.34094 0
M  V30 4225 O 408.586 2.25115 2.76046 0
M  V30 4226 O 407.445 3.25542 4.38958 0
M  V30 4227 H 404.539 0.463623 0.684823 0
M  V30 4228 H 407.085 1.47127 0.845674 0
M  V30 4229 H 405.857 3.21471 2.23096 0
M  V30 4230 H 405.48 1.99667 3.43829 0
M  V30 4231 N 406.477 -1.02803 1.19454 0
M  V30 4232 C 407.726 -1.7562 0.991996 0
M  V30 4233 C 408.039 -1.89672 -0.477901 0
M  V30 4234 O 409.245 -2.59468 -0.799287 0
M  V30 4235 C 407.701 -3.15812 1.72601 0
M  V30 4236 C 407.309 -3.0981 3.23607 0
M  V30 4237 C 409.053 -3.92918 1.60674 0
M  V30 4238 C 406.96 -4.44939 3.89594 0
M  V30 4239 H 405.89 -0.658352 0.367543 0
M  V30 4240 H 408.541 -1.15044 1.42959 0
M  V30 4241 H 406.923 -3.7686 1.21624 0
M  V30 4242 H 408.097 -2.58138 3.81709 0
M  V30 4243 H 406.412 -2.46201 3.35819 0
M  V30 4244 H 409.009 -4.9287 2.07323 0
M  V30 4245 H 409.352 -4.12502 0.561025 0
M  V30 4246 H 409.885 -3.38472 2.09001 0
M  V30 4247 H 406.624 -4.30559 4.94267 0
M  V30 4248 H 406.144 -4.96664 3.36281 0
M  V30 4249 H 407.823 -5.1382 3.93189 0
M  V30 4250 N 407.956 -0.998596 -1.21925 0
M  V30 4251 C 409.205 -0.673085 -1.90138 0
M  V30 4252 C 409.518 0.79895 -1.78539 0
M  V30 4253 O 410.724 1.23628 -2.4172 0
M  V30 4254 C 409.18 -1.15339 -3.40918 0
M  V30 4255 C 408.788 -2.65106 -3.61141 0
M  V30 4256 C 410.532 -0.902476 -4.14796 0
M  V30 4257 C 408.439 -3.0671 -5.05651 0
M  V30 4258 H 407.369 -0.248057 -0.712028 0
M  V30 4259 H 410.02 -1.20891 -1.38049 0
M  V30 4260 H 408.402 -0.545658 -3.92223 0
M  V30 4261 H 409.576 -3.31274 -3.20304 0
M  V30 4262 H 407.891 -2.88142 -3.00605 0
M  V30 4263 H 410.488 -1.18895 -5.21314 0
M  V30 4264 H 410.831 0.161349 -4.15987 0
M  V30 4265 H 411.364 -1.47269 -3.69536 0
M  V30 4266 H 408.103 -4.12292 -5.09603 0
M  V30 4267 H 407.623 -2.45249 -5.47369 0
M  V30 4268 H 409.302 -2.9833 -5.74115 0
M  V30 4269 N 409.434 1.37368 -0.772513 0
M  V30 4270 C 410.344 2.34053 -0.160081 0
M  V30 4271 C 411.36 1.60216 0.678728 0
M  V30 4272 O 412.536 1.92303 0.59847 0
M  V30 4273 C 409.601 3.3939 0.708182 0
M  V30 4274 C 408.662 4.29048 -0.147172 0
M  V30 4275 C 407.895 5.29354 0.679744 0
M  V30 4276 O 408.118 5.3723 1.91678 0
M  V30 4277 O 407.052 6.01835 0.0885444 0
M  V30 4278 H 410.878 2.88159 -0.959053 0
M  V30 4279 H 408.463 1.39543 -0.533685 0
M  V30 4280 H 410.345 4.03839 1.20384 0
M  V30 4281 H 409.02 2.8761 1.48533 0
M  V30 4282 H 407.927 3.67697 -0.689205 0
M  V30 4283 H 409.26 4.84134 -0.887423 0
M  V30 4284 N 410.912 0.523116 1.48665 0
M  V30 4285 C 412.328 0.180511 1.58576 0
M  V30 4286 C 412.528 -1.31597 1.52592 0
M  V30 4287 O 411.584 -2.0937 1.4114 0
M  V30 4288 C 412.897 0.776949 2.90489 0
M  V30 4289 C 414.445 0.745058 3.04003 0
M  V30 4290 C 414.92 1.31995 4.38567 0
M  V30 4291 N 416.411 1.28162 4.45117 0
M  V30 4292 C 417.146 1.6964 5.47731 0
M  V30 4293 N 416.642 2.18816 6.57337 0
M  V30 4294 N 418.435 1.6092 5.38573 0
M  V30 4295 H 410.586 1.4958 1.50797 0
M  V30 4296 H 412.849 0.621772 0.715614 0
M  V30 4297 H 412.555 1.82732 3.00503 0
M  V30 4298 H 412.429 0.25007 3.7637 0
M  V30 4299 H 414.816 -0.296532 2.93606 0
M  V30 4300 H 414.897 1.30933 2.1975 0
M  V30 4301 H 414.541 2.36043 4.49718 0
M  V30 4302 H 414.471 0.731418 5.21496 0
M  V30 4303 H 416.962 0.92155 3.66491 0
M  V30 4304 H 417.275 2.48478 7.31764 0
M  V30 4305 H 415.62 2.22805 6.58318 0
M  V30 4306 H 418.811 1.22304 4.5184 0
M  V30 4307 H 418.984 1.93567 6.18414 0
M  V30 4308 N 412.39 -1.55475 0.257931 0
M  V30 4309 C 413.638 -1.98813 -0.363009 0
M  V30 4310 C 413.959 -1.14757 -1.57657 0
M  V30 4311 O 413.229 -0.232956 -1.9451 0
M  V30 4312 H 411.809 -0.734308 -0.137113 0
M  V30 4313 H 414.471 -1.9156 0.359281 0
M  V30 4314 H 413.567 -3.04941 -0.664634 0
M  V30 4315 N 413.868 0.0150385 -1.57593 0
M  V30 4316 C 415.117 0.702115 -1.89085 0
M  V30 4317 C 415.43 1.75764 -0.858277 0
M  V30 4318 O 416.636 2.49829 -1.0629 0
M  V30 4319 C 415.092 1.29992 -3.35604 0
M  V30 4320 C 414.7 0.280007 -4.47124 0
M  V30 4321 C 416.444 1.96606 -3.76227 0
M  V30 4322 C 414.351 0.886949 -5.84711 0
M  V30 4323 H 413.281 0.265997 -0.705522 0
M  V30 4324 H 415.932 -0.0430408 -1.8345 0
M  V30 4325 H 414.314 2.09525 -3.36029 0
M  V30 4326 H 415.488 -0.489631 -4.58191 0
M  V30 4327 H 413.803 -0.284835 -4.15425 0
M  V30 4328 H 416.4 2.42893 -4.76347 0
M  V30 4329 H 416.743 2.79024 -3.08952 0
M  V30 4330 H 417.276 1.23828 -3.78036 0
M  V30 4331 H 414.015 0.101876 -6.55421 0
M  V30 4332 H 413.535 1.6261 -5.77337 0
M  V30 4333 H 415.214 1.39011 -6.3189 0
M  V30 4334 N 415.346 1.54954 0.287554 0
M  V30 4335 C 416.593 1.74873 1.02106 0
M  V30 4336 C 416.921 0.541829 1.86801 0
M  V30 4337 O 416.176 -0.475992 1.89823 0
M  V30 4338 C 416.475 2.99833 1.94512 0
M  V30 4339 C 416.141 4.33029 1.25686 0
M  V30 4340 C 414.803 4.69233 1.06649 0
M  V30 4341 C 417.155 5.15542 0.765913 0
M  V30 4342 C 414.483 5.85518 0.372222 0
M  V30 4343 C 416.835 6.32542 0.0853101 0
M  V30 4344 C 415.499 6.67398 -0.1169 0
M  V30 4345 H 414.769 0.639906 0.373632 0
M  V30 4346 H 417.416 1.89219 0.294665 0
M  V30 4347 H 415.721 2.80325 2.73725 0
M  V30 4348 H 417.418 3.1244 2.51361 0
M  V30 4349 H 414.008 4.04564 1.41512 0
M  V30 4350 H 418.192 4.88059 0.90066 0
M  V30 4351 H 413.448 6.11057 0.204695 0
M  V30 4352 H 417.622 6.95741 -0.302936 0
M  V30 4353 H 415.249 7.57357 -0.656859 0
M  V30 4354 N 416.824 -0.551391 1.4764 0
M  V30 4355 C 417.754 -1.66757 1.63445 0
M  V30 4356 C 418.735 -1.63077 0.483742 0
M  V30 4357 O 419.92 -1.80607 0.71377 0
M  V30 4358 C 417.05 -3.05387 1.65396 0
M  V30 4359 C 416.004 -3.23918 2.79752 0
M  V30 4360 C 415.33 -4.63393 2.66779 0
M  V30 4361 C 416.63 -3.08735 4.21284 0
M  V30 4362 H 418.324 -1.53786 2.56886 0
M  V30 4363 H 415.87 -0.738415 1.23626 0
M  V30 4364 H 417.823 -3.83325 1.75043 0
M  V30 4365 H 416.547 -3.19332 0.685195 0
M  V30 4366 H 415.206 -2.48391 2.69625 0
M  V30 4367 H 414.854 -4.74144 1.67918 0
M  V30 4368 H 414.554 -4.7674 3.43501 0
M  V30 4369 H 416.078 -5.43458 2.78364 0
M  V30 4370 H 417.492 -3.76484 4.32357 0
M  V30 4371 H 415.889 -3.33588 4.98838 0
M  V30 4372 H 416.959 -2.0541 4.39243 0
M  V30 4373 N 418.302 -1.35869 -0.798587 0
M  V30 4374 C 419.53 -1.32722 -1.58722 0
M  V30 4375 C 419.945 0.0935631 -1.88568 0
M  V30 4376 O 419.302 1.04784 -1.49421 0
M  V30 4377 C 419.353 -2.13974 -2.91371 0
M  V30 4378 O 419.074 -3.50514 -2.62815 0
M  V30 4379 C 420.575 -2.18504 -3.85708 0
M  V30 4380 H 417.795 -0.45562 -0.492596 0
M  V30 4381 H 420.339 -1.78837 -0.991843 0
M  V30 4382 H 418.494 -1.71438 -3.47402 0
M  V30 4383 H 418.908 -3.92806 -3.47568 0
M  V30 4384 H 420.382 -2.79732 -4.75872 0
M  V30 4385 H 420.859 -1.18597 -4.22885 0
M  V30 4386 H 421.465 -2.61236 -3.35612 0
M  V30 4387 N 419.78 1.02168 -1.19998 0
M  V30 4388 C 421.028 1.75338 -1.00504 0
M  V30 4389 C 421.349 1.89387 0.464506 0
M  V30 4390 O 420.619 1.43268 1.33608 0
M  V30 4391 H 419.199 0.649564 -0.368885 0
M  V30 4392 H 421.861 1.23205 -1.51018 0
M  V30 4393 H 420.957 2.75892 -1.45912 0
M  V30 4394 N 421.258 1.00505 1.21394 0
M  V30 4395 C 422.506 0.686415 1.90086 0
M  V30 4396 C 422.827 -0.785264 1.7849 0
M  V30 4397 O 422.097 -1.56387 1.17983 0
M  V30 4398 H 420.677 0.2509 0.703604 0
M  V30 4399 H 423.339 1.27417 1.47482 0
M  V30 4400 H 422.435 0.959621 2.96981 0
M  V30 4401 N 422.737 -1.36956 0.779787 0
M  V30 4402 C 423.985 -1.99097 0.347079 0
M  V30 4403 C 424.306 -1.62206 -1.08232 0
M  V30 4404 O 423.576 -0.891373 -1.74446 0
M  V30 4405 H 422.156 -0.736409 0.125342 0
M  V30 4406 H 424.818 -1.67308 0.999696 0
M  V30 4407 H 423.914 -3.09107 0.431162 0
M  V30 4408 N 424.215 -0.530993 -1.48385 0
M  V30 4409 C 425.44 0.000729535 -2.074 0
M  V30 4410 C 425.865 1.27298 -1.3848 0
M  V30 4411 O 425.223 1.75599 -0.451081 0
M  V30 4412 C 425.271 0.206697 -3.60007 0
M  V30 4413 O 424.375 1.27514 -3.92191 0
M  V30 4414 H 423.716 -0.039583 -0.662819 0
M  V30 4415 H 426.246 -0.739194 -1.9078 0
M  V30 4416 H 426.256 0.42904 -4.05738 0
M  V30 4417 H 424.931 -0.722675 -4.09573 0
M  V30 4418 H 423.508 1.03537 -3.58238 0
M  V30 4419 N 425.693 1.55336 -0.266172 0
M  V30 4420 C 426.623 2.25146 0.618981 0
M  V30 4421 C 427.604 1.23845 1.16604 0
M  V30 4422 O 428.789 1.52544 1.20183 0
M  V30 4423 C 425.919 2.96572 1.80728 0
M  V30 4424 C 424.873 4.04726 1.39215 0
M  V30 4425 C 424.199 4.63678 2.66283 0
M  V30 4426 C 425.499 5.19407 0.548942 0
M  V30 4427 H 427.193 2.99377 0.0368116 0
M  V30 4428 H 424.739 1.43991 0.0162651 0
M  V30 4429 H 426.692 3.44116 2.43232 0
M  V30 4430 H 425.416 2.19861 2.41514 0
M  V30 4431 H 424.075 3.57979 0.790351 0
M  V30 4432 H 423.723 3.83646 3.25308 0
M  V30 4433 H 423.423 5.367 2.39222 0
M  V30 4434 H 424.947 5.13967 3.29651 0
M  V30 4435 H 426.361 5.63059 1.07876 0
M  V30 4436 H 424.758 5.98936 0.373593 0
M  V30 4437 H 425.828 4.8295 -0.434394 0
M  V30 4438 N 427.171 -0.0066808 1.57599 0
M  V30 4439 C 428.101 -0.999296 2.11036 0
M  V30 4440 C 429.082 -1.36278 1.01795 0
M  V30 4441 O 430.267 -1.4477 1.29442 0
M  V30 4442 C 427.397 -2.29328 2.60818 0
M  V30 4443 C 426.351 -2.07159 3.74525 0
M  V30 4444 C 425.677 -3.42512 4.10596 0
M  V30 4445 C 426.977 -1.43959 5.02069 0
M  V30 4446 H 428.671 -0.554382 2.94223 0
M  V30 4447 H 426.217 -0.265221 1.41536 0
M  V30 4448 H 428.17 -2.99117 2.96828 0
M  V30 4449 H 426.894 -2.7592 1.74745 0
M  V30 4450 H 425.553 -1.39797 3.38899 0
M  V30 4451 H 425.201 -3.86795 3.21556 0
M  V30 4452 H 424.901 -3.28498 4.87199 0
M  V30 4453 H 426.425 -4.13628 4.4916 0
M  V30 4454 H 427.839 -2.03696 5.35893 0
M  V30 4455 H 426.236 -1.40452 5.83432 0
M  V30 4456 H 427.306 -0.407992 4.83181 0
M  V30 4457 N 428.649 -1.55105 -0.279332 0
M  V30 4458 C 430.065 -1.46803 -0.626187 0
M  V30 4459 C 430.265 -0.676939 -1.89789 0
M  V30 4460 O 429.321 -0.19326 -2.51759 0
M  V30 4461 C 430.634 -2.90962 -0.759034 0
M  V30 4462 C 432.182 -3.01138 -0.853504 0
M  V30 4463 C 432.657 -4.46539 -1.01818 0
M  V30 4464 N 434.148 -4.50341 -1.08386 0
M  V30 4465 C 434.883 -5.60053 -1.22996 0
M  V30 4466 N 434.379 -6.79645 -1.34366 0
M  V30 4467 N 436.172 -5.47783 -1.26056 0
M  V30 4468 H 428.323 -2.04996 0.555921 0
M  V30 4469 H 430.586 -0.929325 0.187239 0
M  V30 4470 H 430.292 -3.51544 0.104852 0
M  V30 4471 H 430.166 -3.39619 -1.64131 0
M  V30 4472 H 432.553 -2.40658 -1.70786 0
M  V30 4473 H 432.634 -2.55745 0.0532466 0
M  V30 4474 H 432.278 -5.0762 -0.168504 0
M  V30 4475 H 432.208 -4.89583 -1.93948 0
M  V30 4476 H 434.699 -3.64191 -1.00864 0
M  V30 4477 H 435.012 -7.59012 -1.4533 0
M  V30 4478 H 433.357 -6.82469 -1.31382 0
M  V30 4479 H 436.548 -4.53294 -1.168 0
M  V30 4480 H 436.721 -6.33331 -1.37098 0
M  V30 4481 N 430.127 0.543554 -1.4793 0
M  V30 4482 C 431.375 1.29752 -1.54948 0
M  V30 4483 C 431.696 1.93764 -0.219242 0
M  V30 4484 O 430.966 1.80639 0.75805 0
M  V30 4485 H 429.546 0.481874 -0.570795 0
M  V30 4486 H 432.208 0.633636 -1.84312 0
M  V30 4487 H 431.304 2.08392 -2.32334 0
M  V30 4488 N 431.605 1.3629 0.791371 0
M  V30 4489 C 432.535 1.33137 1.91825 0
M  V30 4490 C 433.516 0.203168 1.68882 0
M  V30 4491 O 434.701 0.400509 1.90025 0
M  V30 4492 C 431.831 1.11793 3.28816 0
M  V30 4493 C 430.785 2.21417 3.66277 0
M  V30 4494 C 430.111 1.85218 5.01596 0
M  V30 4495 C 431.411 3.63489 3.75064 0
M  V30 4496 H 433.105 2.2743 1.9472 0
M  V30 4497 H 430.651 1.09479 0.935437 0
M  V30 4498 H 432.604 1.08222 4.07266 0
M  V30 4499 H 431.328 0.139501 3.26302 0
M  V30 4500 H 429.987 2.2411 2.90121 0
M  V30 4501 H 429.635 0.859544 4.95602 0
M  V30 4502 H 429.335 2.58611 5.27631 0
M  V30 4503 H 430.859 1.832 5.82469 0
M  V30 4504 H 432.273 3.63034 4.43711 0
M  V30 4505 H 430.67 4.35771 4.12582 0
M  V30 4506 H 431.74 3.98536 2.76219 0
M  V30 4507 N 433.083 -1.0153 1.20538 0
M  V30 4508 C 434.36 -1.72327 0.925343 0
M  V30 4509 C 434.74 -2.03383 -0.565547 0
M  V30 4510 O 434.088 -1.69934 -1.52757 0
M  V30 4511 C 434.298 -2.9902 1.79967 0
M  V30 4512 C 435.646 -3.72258 2.04228 0
M  V30 4513 O 436.67 -3.08979 1.77231 0
M  V30 4514 O 435.529 -4.86053 2.4983 0
M  V30 4515 H 432.623 -0.751099 0.346092 0
M  V30 4516 H 435.169 -1.07366 1.31417 0
M  V30 4517 H 433.941 -2.72402 2.80915 0
M  V30 4518 H 433.564 -3.71721 1.41099 0
M  V30 4519 N 434.561 -1.01147 -1.20859 0
M  V30 4520 C 435.789 -0.716911 -1.94082 0
M  V30 4521 C 436.204 0.721568 -1.74467 0
M  V30 4522 O 435.561 1.48889 -1.05539 0
M  V30 4523 C 435.612 -1.03662 -3.46318 0
M  V30 4524 O 435.333 -2.4186 -3.65288 0
M  V30 4525 C 436.834 -0.762386 -4.36695 0
M  V30 4526 H 434.054 -0.26367 -0.617024 0
M  V30 4527 H 436.598 -1.35127 -1.53496 0
M  V30 4528 H 434.753 -0.447757 -3.84804 0
M  V30 4529 H 435.167 -2.53224 -4.59323 0
M  V30 4530 H 436.641 -1.03621 -5.42187 0
M  V30 4531 H 437.118 0.303514 -4.3815 0
M  V30 4532 H 437.724 -1.33316 -4.03865 0
M  V30 4533 N 436.039 1.36541 -0.78704 0
M  V30 4534 C 436.969 2.32659 -0.197992 0
M  V30 4535 C 437.95 1.56533 0.665697 0
M  V30 4536 O 439.135 1.84698 0.60001 0
M  V30 4537 C 436.265 3.40778 0.669901 0
M  V30 4538 C 435.219 4.27897 -0.0937039 0
M  V30 4539 C 434.545 5.27163 0.894629 0
M  V30 4540 C 435.845 5.06334 -1.28154 0
M  V30 4541 H 437.539 2.82171 -1.00099 0
M  V30 4542 H 435.085 1.35665 -0.482793 0
M  V30 4543 H 437.038 4.07008 1.09191 0
M  V30 4544 H 435.762 2.89827 1.50558 0
M  V30 4545 H 434.421 3.6322 -0.49666 0
M  V30 4546 H 434.069 4.72486 1.72527 0
M  V30 4547 H 433.769 5.86317 0.388149 0
M  V30 4548 H 435.293 5.96266 1.31525 0
M  V30 4549 H 436.707 5.65617 -0.93541 0
M  V30 4550 H 435.104 5.74888 -1.72115 0
M  V30 4551 H 436.174 4.38114 -2.07807 0
M  V30 4552 N 437.518 0.538854 1.48102 0
M  V30 4553 C 438.448 -0.207654 2.32575 0
M  V30 4554 C 439.429 -0.926559 1.4265 0
M  V30 4555 O 440.614 -0.91061 1.71527 0
M  V30 4556 C 437.744 -1.24957 3.24042 0
M  V30 4557 C 436.698 -0.648263 4.23062 0
M  V30 4558 C 436.024 -1.79348 5.03725 0
M  V30 4559 C 437.324 0.385897 5.20872 0
M  V30 4560 H 439.018 0.497534 2.95237 0
M  V30 4561 H 436.564 0.240715 1.41974 0
M  V30 4562 H 438.517 -1.77983 3.81969 0
M  V30 4563 H 437.241 -1.98446 2.59397 0
M  V30 4564 H 435.9 -0.139452 3.66335 0
M  V30 4565 H 435.548 -2.51696 4.35498 0
M  V30 4566 H 435.248 -1.39702 5.70751 0
M  V30 4567 H 436.772 -2.32735 5.64506 0
M  V30 4568 H 438.186 -0.057607 5.73271 0
M  V30 4569 H 436.583 0.700227 5.96001 0
M  V30 4570 H 437.653 1.28848 4.67468 0
M  V30 4571 N 438.996 -1.55193 0.274407 0
M  V30 4572 C 439.928 -2.1989 -0.646595 0
M  V30 4573 C 440.941 -1.1834 -1.11801 0
M  V30 4574 O 442.13 -1.4507 -1.04004 0
M  V30 4575 C 439.23 -2.8104 -1.89393 0
M  V30 4576 C 438.403 -4.08274 -1.56943 0
M  V30 4577 C 437.462 -4.53478 -2.66916 0
M  V30 4578 O 436.488 -5.19267 -2.33132 0
M  V30 4579 N 437.69 -4.2356 -3.9696 0
M  V30 4580 H 440.455 -2.99556 -0.0928686 0
M  V30 4581 H 438.016 -1.61618 0.0954783 0
M  V30 4582 H 440.008 -3.08226 -2.62257 0
M  V30 4583 H 438.578 -2.05372 -2.35672 0
M  V30 4584 H 437.798 -3.88384 -0.674655 0
M  V30 4585 H 439.086 -4.91173 -1.32764 0
M  V30 4586 H 438.484 -3.70799 -4.27229 0
M  V30 4587 H 437.041 -4.55518 -4.66205 0
M  V30 4588 N 440.474 -0.00167713 -1.576 0
M  V30 4589 C 441.421 0.989195 -2.08527 0
M  V30 4590 C 442.391 1.34031 -0.981065 0
M  V30 4591 O 443.576 1.43839 -1.2536 0
M  V30 4592 C 440.716 2.27537 -2.59463 0
M  V30 4593 C 439.829 1.98314 -3.83791 0
M  V30 4594 C 438.964 3.21025 -4.23222 0
M  V30 4595 C 438.003 2.87495 -5.40382 0
M  V30 4596 N 437.14 4.02749 -5.75098 0
M  V30 4597 H 441.98 0.547973 -2.92919 0
M  V30 4598 H 439.517 0.258917 -1.44803 0
M  V30 4599 H 441.475 3.02729 -2.87073 0
M  V30 4600 H 440.105 2.69325 -1.77943 0
M  V30 4601 H 439.157 1.13482 -3.63078 0
M  V30 4602 H 440.469 1.69601 -4.69081 0
M  V30 4603 H 439.623 4.04561 -4.52123 0
M  V30 4604 H 438.362 3.52877 -3.36644 0
M  V30 4605 H 437.367 2.02367 -5.11202 0
M  V30 4606 H 438.592 2.56889 -6.28637 0
M  V30 4607 H 436.538 4.34494 -4.91478 0
M  V30 4608 H 436.455 3.77566 -6.54966 0
M  V30 4609 H 437.723 4.87068 -6.08592 0
M  V30 4610 N 441.952 1.55251 0.271103 0
M  V30 4611 C 442.862 1.9136 1.35714 0
M  V30 4612 C 443.878 0.811075 1.5394 0
M  V30 4613 O 445.054 1.11031 1.6803 0
M  V30 4614 C 442.119 2.1798 2.69603 0
M  V30 4615 C 441.18 3.4153 2.60107 0
M  V30 4616 C 440.413 3.66871 3.8761 0
M  V30 4617 O 440.636 2.94689 4.8838 0
M  V30 4618 O 439.57 4.60405 3.87699 0
M  V30 4619 H 443.396 2.83815 1.08088 0
M  V30 4620 H 440.981 1.41821 0.469792 0
M  V30 4621 H 442.863 2.36518 3.48765 0
M  V30 4622 H 441.538 1.28708 2.97012 0
M  V30 4623 H 440.445 3.28325 1.79314 0
M  V30 4624 H 441.778 4.31027 2.37647 0
M  V30 4625 N 443.43 -0.535701 1.48216 0
M  V30 4626 C 444.658 -1.31671 1.59594 0
M  V30 4627 C 445.073 -1.87083 0.254056 0
M  V30 4628 O 444.43 -1.66112 -0.755854 0
M  V30 4629 C 444.481 -2.47158 2.63809 0
M  V30 4630 O 444.202 -1.94032 3.92789 0
M  V30 4631 C 445.703 -3.39062 2.85573 0
M  V30 4632 H 442.923 -0.400623 0.538277 0
M  V30 4633 H 445.467 -0.646827 1.94001 0
M  V30 4634 H 443.622 -3.10043 2.32276 0
M  V30 4635 H 444.036 -2.69585 4.49916 0
M  V30 4636 H 445.51 -4.16459 3.62306 0
M  V30 4637 H 445.987 -3.93941 1.94184 0
M  V30 4638 H 446.593 -2.81975 3.18387 0
M  V30 4639 N 444.908 -1.36708 -0.784132 0
M  V30 4640 C 446.156 -1.30972 -1.53918 0
M  V30 4641 C 446.477 0.109086 -1.94695 0
M  V30 4642 O 445.747 1.05048 -1.65353 0
M  V30 4643 H 444.327 -0.481819 -0.570841 0
M  V30 4644 H 446.989 -1.71063 -0.934002 0
M  V30 4645 H 446.085 -1.94061 -2.44431 0
M  V30 4646 N 446.386 1.0089 -1.21074 0
M  V30 4647 C 447.635 1.74019 -1.01981 0
M  V30 4648 C 447.948 1.90408 0.447665 0
M  V30 4649 O 449.154 2.60707 0.757906 0
M  V30 4650 C 447.61 3.13026 -1.77603 0
M  V30 4651 C 447.218 3.04623 -3.28495 0
M  V30 4652 C 448.962 3.90312 -1.66904 0
M  V30 4653 C 446.869 4.38685 -3.96623 0
M  V30 4654 H 445.799 0.652422 -0.377971 0
M  V30 4655 H 448.45 1.12755 -1.44771 0
M  V30 4656 H 446.832 3.74878 -1.27604 0
M  V30 4657 H 448.006 2.52032 -3.85767 0
M  V30 4658 H 446.321 2.40827 -3.39693 0
M  V30 4659 H 448.918 4.8951 -2.15138 0
M  V30 4660 H 449.261 4.11558 -0.62658 0
M  V30 4661 H 449.794 3.35104 -2.14359 0
M  V30 4662 H 446.533 4.22641 -5.01054 0
M  V30 4663 H 446.053 4.91252 -3.4414 0
M  V30 4664 H 447.732 5.075 -4.01314 0
M  V30 4665 N 447.864 1.01787 1.20321 0
M  V30 4666 C 449.089 0.727009 1.9424 0
M  V30 4667 C 449.514 -0.706179 1.74341 0
M  V30 4668 O 448.872 -1.48609 1.03852 0
M  V30 4669 C 448.92 1.06958 3.44372 0
M  V30 4670 O 448.024 0.181983 4.11998 0
M  V30 4671 H 447.365 0.269626 0.606793 0
M  V30 4672 H 449.895 1.36158 1.52716 0
M  V30 4673 H 449.905 1.02182 3.94997 0
M  V30 4674 H 448.58 2.11378 3.58179 0
M  V30 4675 H 447.157 0.287378 3.71791 0
M  V30 4676 N 449.342 -1.36122 0.79427 0
M  V30 4677 C 450.588 -1.99406 0.369452 0
M  V30 4678 C 450.921 -1.62886 -1.05743 0
M  V30 4679 O 450.196 -0.886053 -1.73145 0
M  V30 4680 C 450.479 -3.56046 0.538833 0
M  V30 4681 C 450.332 -4.02404 2.00976 0
M  V30 4682 C 451.651 -4.40079 -0.0431359 0
M  V30 4683 H 448.77 -0.724397 0.135712 0
M  V30 4684 H 451.412 -1.61461 1.00151 0
M  V30 4685 H 449.562 -3.885 0.000771004 0
M  V30 4686 H 451.234 -3.80415 2.60926 0
M  V30 4687 H 449.477 -3.53765 2.51063 0
M  V30 4688 H 450.148 -5.11344 2.07922 0
M  V30 4689 H 452.624 -4.14013 0.416228 0
M  V30 4690 H 451.5 -5.48799 0.105374 0
M  V30 4691 H 451.761 -4.27264 -1.13571 0
M  V30 4692 N 450.82 -0.546701 -1.47814 0
M  V30 4693 C 452.069 -0.0166497 -2.01693 0
M  V30 4694 C 452.382 1.33721 -1.42752 0
M  V30 4695 O 453.588 1.95658 -1.8823 0
M  V30 4696 C 452.044 0.0206769 -3.59894 0
M  V30 4697 C 451.652 -1.3293 -4.27824 0
M  V30 4698 C 453.396 0.498674 -4.21561 0
M  V30 4699 C 451.303 -1.25165 -5.78003 0
M  V30 4700 H 450.233 -0.0024541 -0.753996 0
M  V30 4701 H 452.884 -0.692984 -1.69912 0
M  V30 4702 H 451.266 0.76244 -3.88591 0
M  V30 4703 H 452.44 -2.08795 -4.10781 0
M  V30 4704 H 450.755 -1.74438 -3.78101 0
M  V30 4705 H 453.352 0.575 -5.31599 0
M  V30 4706 H 453.695 1.5083 -3.88016 0
M  V30 4707 H 454.228 -0.18791 -3.97356 0
M  V30 4708 H 450.967 -2.23695 -6.1615 0
M  V30 4709 H 450.487 -0.53464 -5.97412 0
M  V30 4710 H 452.166 -0.949299 -6.39998 0
M  V30 4711 N 452.299 1.55045 -0.282633 0
M  V30 4712 C 453.715 1.59441 0.0712997 0
M  V30 4713 C 453.915 1.2998 1.53972 0
M  V30 4714 O 452.971 1.06431 2.28973 0
M  V30 4715 C 454.284 2.99097 -0.310104 0
M  V30 4716 C 455.832 3.1194 -0.257343 0
M  V30 4717 C 456.307 4.53875 -0.613297 0
M  V30 4718 N 457.798 4.5974 -0.565134 0
M  V30 4719 C 458.533 5.67603 -0.81326 0
M  V30 4720 N 458.029 6.83582 -1.1264 0
M  V30 4721 N 459.822 5.57187 -0.741553 0
M  V30 4722 H 451.973 1.72458 -1.23984 0
M  V30 4723 H 454.236 0.804549 -0.501403 0
M  V30 4724 H 453.942 3.25516 -1.33163 0
M  V30 4725 H 453.816 3.75616 0.345366 0
M  V30 4726 H 456.203 2.85281 0.754905 0
M  V30 4727 H 456.284 2.37618 -0.947178 0
M  V30 4728 H 455.928 4.81261 -1.62327 0
M  V30 4729 H 455.858 5.26508 0.09841 0
M  V30 4730 H 458.349 3.76427 -0.333294 0
M  V30 4731 H 458.662 7.6175 -1.30219 0
M  V30 4732 H 457.007 6.85179 -1.16425 0
M  V30 4733 H 460.198 4.65457 -0.496705 0
M  V30 4734 H 460.371 6.41171 -0.938306 0
M  V30 4735 N 453.777 0.010035 1.57597 0
M  V30 4736 C 455.002 -0.687021 1.95691 0
M  V30 4737 C 455.427 -1.65952 0.885519 0
M  V30 4738 O 454.785 -1.80633 -0.15543 0
M  V30 4739 C 454.833 -1.3864 3.32884 0
M  V30 4740 O 453.937 -2.50115 3.27897 0
M  V30 4741 H 453.278 -0.181989 0.638573 0
M  V30 4742 H 455.808 0.0662122 2.04493 0
M  V30 4743 H 455.818 -1.74754 3.6868 0
M  V30 4744 H 454.493 -0.673411 4.10412 0
M  V30 4745 H 453.07 -2.16253 3.03791 0
M  V30 4746 N 455.255 -1.55392 -0.262866 0
M  V30 4747 C 456.165 -1.92077 -1.34698 0
M  V30 4748 C 457.181 -0.819227 -1.53508 0
M  V30 4749 O 458.357 -1.11921 -1.67439 0
M  V30 4750 C 455.422 -2.19407 -2.68443 0
M  V30 4751 C 454.483 -3.42905 -2.58292 0
M  V30 4752 C 453.716 -3.68921 -3.85659 0
M  V30 4753 O 453.939 -2.97275 -4.8681 0
M  V30 4754 O 452.873 -4.62455 -3.85252 0
M  V30 4755 H 456.699 -2.84384 -1.06581 0
M  V30 4756 H 454.284 -1.42069 -0.462264 0
M  V30 4757 H 456.166 -2.38365 -3.47506 0
M  V30 4758 H 454.841 -1.30282 -2.96325 0
M  V30 4759 H 453.748 -3.29272 -1.7757 0
M  V30 4760 H 455.081 -4.32282 -2.35358 0
M  V30 4761 N 456.733 0.527833 -1.48498 0
M  V30 4762 C 457.643 1.65907 -1.65867 0
M  V30 4763 C 458.659 1.6537 -0.541192 0
M  V30 4764 O 459.835 1.84282 -0.812534 0
M  V30 4765 C 456.9 3.02364 -1.69637 0
M  V30 4766 C 455.961 3.1374 -2.93028 0
M  V30 4767 C 455.194 4.43688 -2.96609 0
M  V30 4768 O 455.417 5.30913 -2.08538 0
M  V30 4769 O 454.351 4.59475 -3.88802 0
M  V30 4770 H 458.177 1.5419 -2.61647 0
M  V30 4771 H 455.762 0.701163 -1.31924 0
M  V30 4772 H 457.644 3.83515 -1.74625 0
M  V30 4773 H 456.319 3.14401 -0.770312 0
M  V30 4774 H 455.226 2.31877 -2.93571 0
M  V30 4775 H 456.559 3.06621 -3.85026 0
M  V30 4776 N 458.211 1.37122 0.776871 0
M  V30 4777 C 459.622 1.28667 1.35284 0
M  V30 4778 C 459.973 -0.0680035 1.96082 0
M  V30 4779 O 459.098 -0.969743 1.93455 0
M  V30 4780 C 459.693 2.32997 2.45963 0
M  V30 4781 C 458.252 2.28191 2.99342 0
M  V30 4782 C 457.399 2.17101 1.72517 0
M  V30 4783 H 460.35 1.47819 0.577527 0
M  V30 4784 H 460.371 1.97366 3.2531 0
M  V30 4785 H 459.883 3.3158 2.01684 0
M  V30 4786 H 457.984 1.33115 3.4801 0
M  V30 4787 H 458.097 3.21397 3.55304 0
M  V30 4788 H 456.461 1.63562 1.95242 0
M  V30 4789 H 457.244 3.17591 1.30348 0
M  V30 4790 N 459.689 -1.00246 1.21608 0
M  V30 4791 C 460.619 -2.10921 1.00172 0
M  V30 4792 C 461.6 -1.69938 -0.0741587 0
M  V30 4793 O 462.785 -1.94009 0.0861753 0
M  V30 4794 C 459.915 -3.42618 0.568355 0
M  V30 4795 C 458.869 -3.97407 1.58909 0
M  V30 4796 C 458.195 -5.25038 1.01187 0
M  V30 4797 C 459.495 -4.2918 2.97661 0
M  V30 4798 H 461.189 -2.29112 1.92739 0
M  V30 4799 H 458.735 -1.10101 0.928102 0
M  V30 4800 H 460.688 -4.19444 0.405555 0
M  V30 4801 H 459.412 -3.24227 -0.392961 0
M  V30 4802 H 458.071 -3.22703 1.73949 0
M  V30 4803 H 457.719 -5.02982 0.0421965 0
M  V30 4804 H 457.419 -5.62661 1.6937 0
M  V30 4805 H 458.943 -6.04507 0.860448 0
M  V30 4806 H 460.357 -4.96839 2.86049 0
M  V30 4807 H 458.754 -4.77952 3.6288 0
M  V30 4808 H 459.824 -3.3735 3.48315 0
M  V30 4809 N 461.167 -1.02423 -1.1978 0
M  V30 4810 C 462.395 -0.737456 -1.93311 0
M  V30 4811 C 462.81 0.703023 -1.75223 0
M  V30 4812 O 462.167 1.47761 -1.07112 0
M  V30 4813 C 462.218 -1.0733 -3.45199 0
M  V30 4814 O 461.939 -2.4572 -3.62702 0
M  V30 4815 C 463.44 -0.80866 -4.35862 0
M  V30 4816 H 460.66 -0.2702 -0.614193 0
M  V30 4817 H 463.204 -1.36747 -1.52054 0
M  V30 4818 H 461.359 -0.488545 -3.84307 0
M  V30 4819 H 461.773 -2.58081 -4.56612 0
M  V30 4820 H 463.247 -1.09365 -5.41057 0
M  V30 4821 H 463.724 0.257025 -4.38447 0
M  V30 4822 H 464.33 -1.37592 -4.02428 0
M  V30 4823 N 462.645 1.35699 -0.801477 0
M  V30 4824 C 463.608 2.28199 -0.213994 0
M  V30 4825 C 464.608 1.49359 0.595691 0
M  V30 4826 O 465.798 1.69186 0.414921 0
M  V30 4827 C 462.93 3.33587 0.702297 0
M  V30 4828 H 464.123 2.81666 -1.02976 0
M  V30 4829 H 461.676 1.45467 -0.571759 0
M  V30 4830 H 462.411 2.85297 1.54195 0
M  V30 4831 H 462.196 3.91906 0.123484 0
M  V30 4832 H 463.686 4.02638 1.10783 0
M  V30 4833 N 464.123 0.554532 1.47522 0
M  V30 4834 C 465.369 0.0295227 2.02779 0
M  V30 4835 C 465.702 -1.31582 1.42828 0
M  V30 4836 O 464.977 -1.85561 0.582872 0
M  V30 4837 C 465.26 -0.0664057 3.60039 0
M  V30 4838 C 465.113 1.30585 4.30427 0
M  V30 4839 C 466.432 -0.781162 4.33112 0
M  V30 4840 H 463.551 0.0122027 0.736899 0
M  V30 4841 H 466.193 0.716305 1.7598 0
M  V30 4842 H 464.343 -0.651307 3.83002 0
M  V30 4843 H 466.015 1.93374 4.18813 0
M  V30 4844 H 464.258 1.88125 3.90886 0
M  V30 4845 H 464.929 1.19147 5.38988 0
M  V30 4846 H 467.405 -0.284565 4.15126 0
M  V30 4847 H 466.281 -0.817237 5.42782 0
M  V30 4848 H 466.542 -1.83672 4.0214 0
M  V30 4849 N 465.601 -1.54893 0.290851 0
M  V30 4850 C 466.564 -2.21824 -0.576784 0
M  V30 4851 C 467.564 -1.20104 -1.06919 0
M  V30 4852 O 468.754 -1.44906 -0.966843 0
M  V30 4853 C 465.886 -2.89662 -1.79747 0
M  V30 4854 H 467.079 -2.99899 0.00784051 0
M  V30 4855 H 464.632 -1.56245 0.0415934 0
M  V30 4856 H 465.367 -2.15639 -2.42219 0
M  V30 4857 H 465.152 -3.64219 -1.45214 0
M  V30 4858 H 466.642 -3.4075 -2.4141 0
M  V30 4859 N 467.08 -0.0183926 -1.57589 0
M  V30 4860 C 468.027 0.967022 -2.09565 0
M  V30 4861 C 468.997 1.32983 -0.995225 0
M  V30 4862 O 470.182 1.42501 -1.26878 0
M  V30 4863 C 467.322 2.24772 -2.61861 0
M  V30 4864 C 466.435 1.94232 -3.85873 0
M  V30 4865 C 465.57 3.16518 -4.26603 0
M  V30 4866 C 464.609 2.81748 -5.43401 0
M  V30 4867 N 463.746 3.96626 -5.79338 0
M  V30 4868 H 468.586 0.516874 -2.93483 0
M  V30 4869 H 466.123 0.243544 -1.4507 0
M  V30 4870 H 468.081 2.99667 -2.90268 0
M  V30 4871 H 466.711 2.67423 -1.8079 0
M  V30 4872 H 465.763 1.09625 -3.64262 0
M  V30 4873 H 467.075 1.64616 -4.70853 0
M  V30 4874 H 466.229 3.99743 -4.56389 0
M  V30 4875 H 464.968 3.49286 -3.40368 0
M  V30 4876 H 463.973 1.96933 -5.1332 0
M  V30 4877 H 465.198 2.50207 -6.31327 0
M  V30 4878 H 463.144 4.29257 -4.96059 0
M  V30 4879 H 463.061 3.70598 -6.58933 0
M  V30 4880 H 464.329 4.80586 -6.13724 0
M  V30 4881 N 468.558 1.5553 0.254621 0
M  V30 4882 C 469.806 1.7665 0.981793 0
M  V30 4883 C 470.127 0.580963 1.86145 0
M  V30 4884 O 469.397 -0.403537 1.91699 0
M  V30 4885 H 467.977 0.651475 0.365498 0
M  V30 4886 H 470.639 1.92958 0.274426 0
M  V30 4887 H 469.735 2.67486 1.60802 0
M  V30 4888 N 470.036 -0.519951 1.48776 0
M  V30 4889 C 470.999 -1.60574 1.6355 0
M  V30 4890 C 471.999 -1.52557 0.508234 0
M  V30 4891 O 473.189 -1.56047 0.774262 0
M  V30 4892 C 470.321 -3.00211 1.61512 0
M  V30 4893 H 471.514 -1.4881 2.60376 0
M  V30 4894 H 469.067 -0.742772 1.37523 0
M  V30 4895 H 469.802 -3.17471 0.662009 0
M  V30 4896 H 469.587 -3.07439 2.43359 0
M  V30 4897 H 471.077 -3.79134 1.75064 0
M  V30 4898 N 471.514 -1.37532 -0.769588 0
M  V30 4899 C 472.762 -1.32597 -1.5252 0
M  V30 4900 C 473.083 0.0884294 -1.94799 0
M  V30 4901 O 472.353 1.03289 -1.66458 0
M  V30 4902 H 470.933 -0.487846 -0.565699 0
M  V30 4903 H 473.595 -1.72044 -0.915806 0
M  V30 4904 H 472.691 -1.96643 -2.42359 0
M  V30 4905 N 472.992 0.995999 -1.22138 0
M  V30 4906 C 473.925 2.08302 -0.931952 0
M  V30 4907 C 474.903 1.62127 0.123956 0
M  V30 4908 O 476.087 1.88499 -0.00696004 0
M  V30 4909 C 473.214 3.36317 -0.401068 0
M  V30 4910 C 472.26 4.01413 -1.44117 0
M  V30 4911 S 473.093 4.42664 -3.01345 0
M  V30 4912 C 474.249 5.73853 -2.49887 0
M  V30 4913 H 474.482 2.32532 -1.85246 0
M  V30 4914 H 472.015 1.13005 -1.0521 0
M  V30 4915 H 473.973 4.10375 -0.101352 0
M  V30 4916 H 472.634 3.10123 0.498272 0
M  V30 4917 H 471.827 4.9358 -1.01952 0
M  V30 4918 H 471.429 3.33668 -1.68943 0
M  V30 4919 H 473.721 6.50039 -1.90934 0
M  V30 4920 H 474.664 6.20841 -3.40532 0
M  V30 4921 H 475.072 5.31105 -1.9128 0
M  V30 4922 N 474.47 1.03057 1.19235 0
M  V30 4923 C 475.716 0.729098 1.89241 0
M  V30 4924 C 476.049 -0.740573 1.79525 0
M  V30 4925 O 475.324 -1.53946 1.18874 0
M  V30 4926 C 475.607 1.18304 3.40112 0
M  V30 4927 C 475.46 2.71406 3.5869 0
M  V30 4928 C 476.779 0.765161 4.33397 0
M  V30 4929 H 473.898 0.266338 0.687192 0
M  V30 4930 H 476.54 1.28079 1.40341 0
M  V30 4931 H 474.69 0.713672 3.81889 0
M  V30 4932 H 476.362 3.26303 3.26074 0
M  V30 4933 H 474.605 3.11717 3.01687 0
M  V30 4934 H 475.276 2.98225 4.64506 0
M  V30 4935 H 477.752 1.16889 3.99345 0
M  V30 4936 H 476.628 1.11065 5.37546 0
M  V30 4937 H 476.889 -0.332372 4.40849 0
M  V30 4938 N 475.948 -1.35272 0.808662 0
M  V30 4939 C 476.878 -2.32315 0.234981 0
M  V30 4940 C 477.859 -1.57572 -0.64071 0
M  V30 4941 O 479.044 -1.8563 -0.570551 0
M  V30 4942 C 476.174 -3.41801 -0.615601 0
M  V30 4943 C 475.128 -4.27694 0.161767 0
M  V30 4944 C 474.454 -5.28519 -0.810649 0
M  V30 4945 C 475.754 -5.04231 1.36193 0
M  V30 4946 H 477.448 -2.80543 1.04575 0
M  V30 4947 H 474.994 -1.3488 0.504315 0
M  V30 4948 H 476.947 -4.08693 -1.02702 0
M  V30 4949 H 475.671 -2.92186 -1.45928 0
M  V30 4950 H 474.33 -3.62384 0.554382 0
M  V30 4951 H 473.978 -4.75171 -1.64988 0
M  V30 4952 H 473.678 -5.8686 -0.294822 0
M  V30 4953 H 475.202 -5.98283 -1.22023 0
M  V30 4954 H 476.616 -5.64058 1.02528 0
M  V30 4955 H 475.013 -5.72077 1.81239 0
M  V30 4956 H 476.083 -4.34753 2.14751 0
M  V30 4957 N 477.426 -0.562348 -1.47226 0
M  V30 4958 C 478.703 0.0256985 -1.95583 0
M  V30 4959 C 479.083 1.48032 -1.50498 0
M  V30 4960 O 478.431 2.15973 -0.746181 0
M  V30 4961 C 478.641 -0.125129 -3.48776 0
M  V30 4962 C 479.989 0.0175728 -4.24596 0
M  V30 4963 O 481.013 -0.0529341 -3.56161 0
M  V30 4964 O 479.872 0.170145 -5.46235 0
M  V30 4965 H 476.966 0.0612565 -0.824728 0
M  V30 4966 H 479.512 -0.629233 -1.57603 0
M  V30 4967 H 478.284 -1.13715 -3.74412 0
M  V30 4968 H 477.907 0.567178 -3.93534 0
M  V30 4969 N 478.904 1.54736 -0.299062 0
M  V30 4970 C 479.851 2.23448 0.577899 0
M  V30 4971 C 480.821 1.21637 1.13109 0
M  V30 4972 O 482.006 1.50252 1.17597 0
M  V30 4973 C 479.146 2.9774 1.74484 0
M  V30 4974 C 478.259 4.1432 1.22323 0
M  V30 4975 C 477.394 4.76199 2.35388 0
M  V30 4976 C 476.433 5.84927 1.80351 0
M  V30 4977 N 475.57 6.4077 2.86982 0
M  V30 4978 H 480.41 2.97996 -0.0146545 0
M  V30 4979 H 477.947 1.47088 -0.0190013 0
M  V30 4980 H 479.905 3.39045 2.43114 0
M  V30 4981 H 478.535 2.25572 2.30905 0
M  V30 4982 H 477.587 3.7797 0.429249 0
M  V30 4983 H 478.899 4.92659 0.780309 0
M  V30 4984 H 478.053 5.20346 3.11969 0
M  V30 4985 H 476.792 3.97188 2.83006 0
M  V30 4986 H 475.797 5.40207 1.02259 0
M  V30 4987 H 477.022 6.65821 1.3364 0
M  V30 4988 H 474.968 5.64643 3.33938 0
M  V30 4989 H 474.885 7.1445 2.4718 0
M  V30 4990 H 476.153 6.89574 3.63466 0
M  V30 4991 N 480.382 0.0267497 1.57577 0
M  V30 4992 C 481.628 -0.653371 1.91987 0
M  V30 4993 C 481.961 -1.71915 0.903263 0
M  V30 4994 O 481.236 -1.94358 -0.0743387 0
M  V30 4995 C 481.519 -1.272 3.36886 0
M  V30 4996 C 481.372 -0.215938 4.49281 0
M  V30 4997 C 482.691 -2.19069 3.81703 0
M  V30 4998 H 479.81 -0.236047 0.698177 0
M  V30 4999 H 482.452 0.0835236 1.89816 0
M  V30 5000 H 480.602 -1.90005 3.38866 0
M  V30 5001 H 482.274 0.41449 4.59434 0
M  V30 5002 H 480.517 0.458855 4.31366 0
M  V30 5003 H 481.188 -0.688347 5.47691 0
M  V30 5004 H 483.664 -1.66253 3.81444 0
M  V30 5005 H 482.54 -2.59307 4.83788 0
M  V30 5006 H 482.801 -3.08087 3.17072 0
M  V30 5007 N 481.861 -1.55662 -0.24637 0
M  V30 5008 C 482.809 -1.91186 -1.3248 0
M  V30 5009 C 483.803 -0.790996 -1.49799 0
M  V30 5010 O 485.009 -0.975617 -1.51267 0
M  V30 5011 H 481.384 -0.607207 -0.443626 0
M  V30 5012 H 483.355 -2.81221 -0.997853 0
M  V30 5013 C 482.104 -2.22349 -2.67313 0
M  V30 5014 H 481.427 -3.08097 -2.54786 0
M  V30 5015 H 482.867 -2.51107 -3.41645 0
M  V30 5016 C 481.326 -1.04001 -3.20446 0
M  V30 5017 O 481.856 -0.28828 -4.00664 0
M  V30 5018 N 480.062 -0.830494 -2.7848 0
M  V30 5019 H 479.609 -1.4435 -2.13356 0
M  V30 5020 H 479.567 -0.0403258 -3.14374 0
M  V30 5021 N 483.339 0.512053 -1.4905 0
M  V30 5022 C 484.588 1.26343 -1.57227 0
M  V30 5023 C 484.901 1.93876 -0.259155 0
M  V30 5024 O 486.107 2.70612 -0.219358 0
M  V30 5025 C 484.563 2.29343 -2.77362 0
M  V30 5026 C 484.171 1.67799 -4.15388 0
M  V30 5027 C 485.915 3.05378 -2.94864 0
M  V30 5028 C 483.822 2.68845 -5.2676 0
M  V30 5029 H 482.752 0.475231 -0.585382 0
M  V30 5030 H 485.403 0.53862 -1.75417 0
M  V30 5031 H 483.785 3.04938 -2.52643 0
M  V30 5032 H 484.959 0.982715 -4.50199 0
M  V30 5033 H 483.274 1.04194 -4.03153 0
M  V30 5034 H 485.871 3.80921 -3.75238 0
M  V30 5035 H 486.214 3.62327 -2.05 0
M  V30 5036 H 486.747 2.36898 -3.19569 0
M  V30 5037 H 483.486 2.16692 -6.18647 0
M  V30 5038 H 483.006 3.36647 -4.96416 0
M  V30 5039 H 484.685 3.31487 -5.5563 0
M  V30 5040 N 484.817 1.37938 0.762283 0
M  V30 5041 C 485.747 1.37176 1.88958 0
M  V30 5042 C 486.728 0.238945 1.68413 0
M  V30 5043 O 487.913 0.440726 1.89133 0
M  V30 5044 C 485.043 1.18742 3.2637 0
M  V30 5045 C 483.997 2.29136 3.61498 0
M  V30 5046 C 483.323 1.95816 4.97554 0
M  V30 5047 C 484.623 3.71363 3.6727 0
M  V30 5048 H 486.317 2.31509 1.89853 0
M  V30 5049 H 483.863 1.11438 0.912005 0
M  V30 5050 H 485.816 1.16837 4.04879 0
M  V30 5051 H 484.54 0.208683 3.25933 0
M  V30 5052 H 483.199 2.30213 2.85303 0
M  V30 5053 H 482.847 0.964475 4.93667 0
M  V30 5054 H 482.547 2.69745 5.22026 0
M  V30 5055 H 484.071 1.95513 5.78452 0
M  V30 5056 H 485.485 3.72364 4.35911 0
M  V30 5057 H 483.882 4.44425 4.03245 0
M  V30 5058 H 484.952 4.04305 2.67704 0
M  V30 5059 N 486.295 -0.989507 1.22664 0
M  V30 5060 C 487.242 -2.08024 0.999733 0
M  V30 5061 C 488.212 -1.65909 -0.0797047 0
M  V30 5062 O 489.397 -1.90669 0.0705715 0
M  V30 5063 C 486.537 -3.40067 0.587234 0
M  V30 5064 C 485.65 -3.95505 1.73781 0
M  V30 5065 C 484.785 -5.15722 1.27297 0
M  V30 5066 C 483.824 -5.63305 2.39488 0
M  V30 5067 N 482.961 -6.74758 1.94026 0
M  V30 5068 H 487.801 -2.26768 1.9334 0
M  V30 5069 H 485.338 -1.11171 0.963297 0
M  V30 5070 H 487.296 -4.15899 0.329227 0
M  V30 5071 H 485.926 -3.21314 -0.309426 0
M  V30 5072 H 484.978 -3.16513 2.11006 0
M  V30 5073 H 486.29 -4.26797 2.58158 0
M  V30 5074 H 485.444 -5.98854 0.972546 0
M  V30 5075 H 484.183 -4.86061 0.399445 0
M  V30 5076 H 483.188 -4.78759 2.70315 0
M  V30 5077 H 484.413 -5.94988 3.27362 0
M  V30 5078 H 482.359 -6.46874 1.09041 0
M  V30 5079 H 482.276 -7.05386 2.71968 0
M  V30 5080 H 483.544 -7.61387 1.67062 0
M  V30 5081 N 487.773 -1.03688 -1.18687 0
M  V30 5082 C 488.72 -0.624624 -2.22187 0
M  V30 5083 C 489.69 0.365636 -1.62026 0
M  V30 5084 O 490.875 0.260481 -1.89014 0
M  V30 5085 C 488.015 0.0101738 -3.45099 0
M  V30 5086 C 487.128 -1.02709 -4.19613 0
M  V30 5087 C 486.263 -0.361213 -5.2997 0
M  V30 5088 C 485.302 -1.38384 -5.96252 0
M  V30 5089 N 484.439 -0.743196 -6.98155 0
M  V30 5090 H 489.279 -1.51176 -2.56807 0
M  V30 5091 H 486.816 -0.75636 -1.26165 0
M  V30 5092 H 488.774 0.395528 -4.15321 0
M  V30 5093 H 487.404 0.860848 -3.1111 0
M  V30 5094 H 486.456 -1.53043 -3.48256 0
M  V30 5095 H 487.768 -1.80398 -4.65036 0
M  V30 5096 H 486.922 0.0785537 -6.06649 0
M  V30 5097 H 485.661 0.447799 -4.8564 0
M  V30 5098 H 484.666 -1.83378 -5.18317 0
M  V30 5099 H 485.891 -2.19448 -6.42666 0
M  V30 5100 H 483.837 0.0455789 -6.55984 0
M  V30 5101 H 483.754 -1.45784 -7.41811 0
M  V30 5102 H 485.022 -0.327698 -7.78811 0
M  V30 5103 N 489.251 1.34841 -0.815825 0
M  V30 5104 C 490.181 2.32187 -0.247298 0
M  V30 5105 C 491.162 1.5791 0.632344 0
M  V30 5106 O 492.347 1.8593 0.560698 0
M  V30 5107 C 489.477 3.42122 0.597466 0
M  V30 5108 C 488.431 4.27602 -0.184446 0
M  V30 5109 C 487.757 5.28942 0.782609 0
M  V30 5110 C 489.057 5.03502 -1.38865 0
M  V30 5111 H 490.751 2.79985 -1.06061 0
M  V30 5112 H 488.297 1.34611 -0.511461 0
M  V30 5113 H 490.25 4.09232 1.00533 0
M  V30 5114 H 488.974 2.92956 1.44376 0
M  V30 5115 H 487.633 3.62085 -0.573592 0
M  V30 5116 H 487.281 4.7604 1.62466 0
M  V30 5117 H 486.981 5.87008 0.263695 0
M  V30 5118 H 488.505 5.98922 1.18848 0
M  V30 5119 H 489.919 5.63506 -1.05518 0
M  V30 5120 H 488.316 5.71108 -1.8427 0
M  V30 5121 H 489.386 4.33608 -2.17054 0
M  V30 5122 N 490.729 0.570148 1.46925 0
M  V30 5123 C 491.661 -0.207909 2.28255 0
M  V30 5124 C 492.674 -0.867301 1.37774 0
M  V30 5125 O 493.863 -0.738976 1.62485 0
M  V30 5126 C 490.963 -1.31298 3.12433 0
M  V30 5127 C 490.136 -0.747915 4.30958 0
M  V30 5128 C 489.195 -1.7391 4.9663 0
M  V30 5129 O 488.221 -1.2801 5.54619 0
M  V30 5130 N 489.423 -3.07288 4.92498 0
M  V30 5131 H 492.188 0.489794 2.95671 0
M  V30 5132 H 489.749 0.407076 1.56699 0
M  V30 5133 H 491.741 -1.97507 3.53232 0
M  V30 5134 H 490.311 -1.91373 2.47175 0
M  V30 5135 H 489.531 0.0913066 3.94094 0
M  V30 5136 H 490.819 -0.349958 5.07595 0
M  V30 5137 H 490.217 -3.47213 4.46609 0
M  V30 5138 H 488.774 -3.69021 5.37277 0
M  V30 5139 N 492.207 -1.54576 0.307264 0
M  V30 5140 C 493.455 -1.99867 -0.299574 0
M  V30 5141 C 493.776 -1.19714 -1.53927 0
M  V30 5142 O 493.046 -0.29472 -1.9367 0
M  V30 5143 H 491.626 -0.738299 -0.113683 0
M  V30 5144 H 494.288 -1.9032 0.420042 0
M  V30 5145 H 493.384 -3.06901 -0.567283 0
M  V30 5146 N 493.685 -0.035106 -1.57561 0
M  V30 5147 C 494.648 0.929819 -2.09492 0
M  V30 5148 C 495.648 1.25026 -1.01119 0
M  V30 5149 O 496.838 1.18961 -1.27255 0
M  V30 5150 C 493.97 2.24457 -2.56577 0
M  V30 5151 H 495.163 0.479935 -2.96035 0
M  V30 5152 H 492.716 0.213033 -1.54841 0
M  V30 5153 H 493.451 2.74061 -1.73382 0
M  V30 5154 H 493.236 2.02508 -3.35757 0
M  V30 5155 H 494.726 2.93607 -2.96959 0
M  V30 5156 N 495.163 1.55791 0.238111 0
M  V30 5157 C 496.411 1.77681 0.963001 0
M  V30 5158 C 496.732 0.600674 1.85518 0
M  V30 5159 O 496.002 -0.383182 1.92116 0
M  V30 5160 H 494.582 0.655315 0.358568 0
M  V30 5161 H 497.244 1.93239 0.253945 0
M  V30 5162 H 496.34 2.69177 1.57956 0
M  V30 5163 O 496.68 -0.383686 1.56876 0
M  V30 5164 H 497.371 -1.03525 1.63714 0
M  V30 END ATOM
M  V30 BEGIN BOND
M  V30 END BOND
M  V30 END CTAB
M  END
$$$$
