drugbank_target|Q9WZS7 NADH-dependent butanol dehydrogenase A (DB03461)
 OpenBabel12092120283D

  0  0  0     0  0            999 V3000
M  V30 BEGIN CTAB
M  V30 COUNTS 6184 6244 0 0 0
M  V30 BEGIN ATOM
M  V30 1 H -0.908 1.98254 -0.117106 0
M  V30 2 N 0 1.576 0 0
M  V30 3 C 0.933 2.03868 1.02534 0
M  V30 4 C 1.911 0.928543 1.3348 0
M  V30 5 O 3.095 1.19667 1.45644 0
M  V30 6 C 0.222 2.43627 2.35294 0
M  V30 7 C -0.732 3.65373 2.2001 0
M  V30 8 S 0.101 5.13292 1.52614 0
M  V30 9 C 1.257 5.56322 2.86805 0
M  V30 10 H 1.49 2.90518 0.631377 0
M  V30 11 H -0.977 1.52953 0.210867 0
M  V30 12 H 0.981 2.67203 3.11629 0
M  V30 13 H -0.358 1.57376 2.7183 0
M  V30 14 H -1.165 3.90944 3.18086 0
M  V30 15 H -1.563 3.418 1.51819 0
M  V30 16 H 0.729 5.58782 3.83104 0
M  V30 17 H 1.672 6.56266 2.65933 0
M  V30 18 H 2.08 4.83886 2.90714 0
M  V30 19 N 1.4781 -0.272755 1.55222 0
M  V30 20 C 2.3881 -1.35918 1.91216 0
M  V30 21 C 3.4041 -1.54026 0.809436 0
M  V30 22 O 4.5801 -1.68148 1.10852 0
M  V30 23 C 1.6451 -2.69834 2.17693 0
M  V30 24 C 0.7061 -2.6047 3.41253 0
M  V30 25 C -0.0609 -3.88 3.66458 0
M  V30 26 O 0.1621 -4.88693 2.94169 0
M  V30 27 O -0.9039 -3.88189 4.59992 0
M  V30 28 H 2.9221 -1.0839 2.83699 0
M  V30 29 H 0.5071 -0.471301 1.41771 0
M  V30 30 H 2.3891 -3.49017 2.36147 0
M  V30 31 H 1.0641 -2.97148 1.28392 0
M  V30 32 H -0.0289 -1.79663 3.28134 0
M  V30 33 H 1.3041 -2.38106 4.30774 0
M  V30 34 N 2.9562 -1.48159 -0.537278 0
M  V30 35 C 3.9042 -1.62573 -1.66352 0
M  V30 36 C 4.8982 -0.492366 -1.62087 0
M  V30 37 O 6.1042 -0.670847 -1.67032 0
M  V30 38 H 2.4792 -0.511992 -0.550789 0
M  V30 39 H 4.4502 -2.57176 -1.51337 0
M  V30 40 C 3.1992 -1.67583 -3.04649 0
M  V30 41 H 2.5222 -2.54151 -3.08622 0
M  V30 42 H 3.9622 -1.81713 -3.83088 0
M  V30 43 C 2.4212 -0.413039 -3.34358 0
M  V30 44 O 2.9512 0.477259 -3.98855 0
M  V30 45 N 1.1572 -0.286961 -2.8918 0
M  V30 46 H 0.7042 -1.01241 -2.36871 0
M  V30 47 H 0.6622 0.556963 -3.09427 0
M  V30 48 N 4.4343 0.785586 -1.36625 0
M  V30 49 C 5.6813 1.54362 -1.31067 0
M  V30 50 C 6.0093 1.94195 0.10893 0
M  V30 51 O 5.2643 1.63262 1.07908 0
M  V30 52 C 5.5633 2.83007 -2.1827 0
M  V30 53 C 5.2293 2.62294 -3.6676 0
M  V30 54 C 3.8913 2.56353 -4.0723 0
M  V30 55 C 6.2433 2.43371 -4.6089 0
M  V30 56 C 3.5713 2.29461 -5.39967 0
M  V30 57 C 5.9233 2.18005 -5.93849 0
M  V30 58 C 4.5873 2.105 -6.3344 0
M  V30 59 H 3.8573 0.564851 -0.479609 0
M  V30 60 H 6.5043 0.906028 -1.68711 0
M  V30 61 H 4.8093 3.51253 -1.73576 0
M  V30 62 H 6.5063 3.40817 -2.11292 0
M  V30 63 H 3.0963 2.67774 -3.34656 0
M  V30 64 H 7.2803 2.46959 -4.30494 0
M  V30 65 H 2.5363 2.22135 -5.69619 0
M  V30 66 H 6.7103 2.02359 -6.66351 0
M  V30 67 H 4.3373 1.89425 -7.36222 0
M  V30 68 N 5.9124 1.20967 1.01018 0
M  V30 69 C 7.1584 1.02526 1.74975 0
M  V30 70 C 7.4914 -0.4408 1.89131 0
M  V30 71 O 6.7664 -1.32718 1.42184 0
M  V30 72 C 7.0494 1.71699 3.1653 0
M  V30 73 C 6.9024 3.25791 3.10129 0
M  V30 74 C 8.2214 1.45531 4.15342 0
M  V30 75 H 5.3404 0.373863 0.635134 0
M  V30 76 H 7.9824 1.49071 1.17805 0
M  V30 77 H 6.1324 1.32128 3.65341 0
M  V30 78 H 7.8044 3.74697 2.69072 0
M  V30 79 H 6.0474 3.56363 2.47362 0
M  V30 80 H 6.7184 3.69353 4.10222 0
M  V30 81 H 9.1944 1.79872 3.75213 0
M  V30 82 H 8.0704 1.96453 5.1254 0
M  V30 83 H 8.3314 0.384237 4.40427 0
M  V30 84 N 7.3905 -1.2043 1.01659 0
M  V30 85 C 8.6375 -1.89797 0.705917 0
M  V30 86 C 8.9655 -1.78848 -0.764439 0
M  V30 87 O 8.2205 -1.16694 -1.57102 0
M  V30 88 C 8.5195 -3.40464 1.08714 0
M  V30 89 C 8.1855 -3.71614 2.5537 0
M  V30 90 C 6.8475 -3.79826 2.95441 0
M  V30 91 C 9.1995 -3.85915 3.50313 0
M  V30 92 C 6.5275 -3.99797 4.29394 0
M  V30 93 C 8.8795 -4.07396 4.83954 0
M  V30 94 C 7.5435 -4.13837 5.23732 0
M  V30 95 H 6.8135 -0.694518 0.258313 0
M  V30 96 H 9.4605 -1.42691 1.27717 0
M  V30 97 H 7.7655 -3.89385 0.434309 0
M  V30 98 H 9.4625 -3.92433 0.824461 0
M  V30 99 H 6.0525 -3.65822 2.23321 0
M  V30 100 H 10.2365 -3.78926 3.20513 0
M  V30 101 H 5.4925 -4.03018 4.59768 0
M  V30 102 H 9.6665 -4.17404 5.57447 0
M  V30 103 H 7.2935 -4.29064 6.27541 0
M  V30 104 N 8.8686 -0.792821 -1.36206 0
M  V30 105 C 9.8186 -0.166598 -2.27391 0
M  V30 106 C 10.8026 0.651479 -1.47121 0
M  V30 107 O 11.9946 0.510994 -1.69463 0
M  V30 108 C 9.1236 0.695033 -3.36191 0
M  V30 109 C 8.2096 -0.132019 -4.23894 0
M  V30 110 N 8.6006 -1.18822 -4.91645 0
M  V30 111 C 6.8986 0.0885952 -4.45912 0
M  V30 112 C 7.5996 -1.69198 -5.56549 0
M  V30 113 N 6.5756 -1.00065 -5.34311 0
M  V30 114 H 10.3776 -0.974947 -2.77258 0
M  V30 115 H 7.8916 -0.632616 -1.49572 0
M  V30 116 H 9.8886 1.1596 -4.00448 0
M  V30 117 H 8.5486 1.50189 -2.87877 0
M  V30 118 H 9.5596 -1.57069 -4.93507 0
M  V30 119 H 6.2366 0.865688 -4.08426 0
M  V30 120 H 7.6266 -2.57395 -6.20643 0
M  V30 121 N 10.3467 1.47872 -0.545128 0
M  V30 122 C 11.2947 2.31533 0.222512 0
M  V30 123 C 12.2887 1.42177 0.920985 0
M  V30 124 O 13.4947 1.59005 0.843645 0
M  V30 125 H 9.8697 0.746519 0.0906278 0
M  V30 126 H 11.8407 2.94139 -0.50246 0
M  V30 127 C 10.5897 3.2457 1.24699 0
M  V30 128 H 9.9127 3.93283 0.718944 0
M  V30 129 H 11.3527 3.85963 1.75523 0
M  V30 130 C 9.8117 2.47237 2.28856 0
M  V30 131 O 10.3417 2.20808 3.35569 0
M  V30 132 N 8.5477 2.08461 2.02466 0
M  V30 133 H 8.0947 2.30155 1.157 0
M  V30 134 H 8.0527 1.57033 2.72375 0
M  V30 135 N 11.8248 0.280983 1.55075 0
M  V30 136 C 13.2358 -0.215629 1.85451 0
M  V30 137 C 13.5868 -1.54991 1.203 0
M  V30 138 O 12.7118 -2.10699 0.493435 0
M  V30 139 C 13.3068 -0.398026 3.36454 0
M  V30 140 C 11.8658 -0.838866 3.66933 0
M  V30 141 C 11.0128 0.064458 2.77225 0
M  V30 142 H 13.9638 0.502601 1.50531 0
M  V30 143 H 13.9848 -1.23569 3.59876 0
M  V30 144 H 13.4968 0.573241 3.83843 0
M  V30 145 H 11.5978 -1.8214 3.25048 0
M  V30 146 H 11.7108 -0.672123 4.74362 0
M  V30 147 H 10.0748 -0.452863 2.50642 0
M  V30 148 H 10.8578 1.03172 3.2743 0
M  V30 149 N 13.3029 -1.57598 0.00835791 0
M  V30 150 C 14.5309 -1.95214 -0.68549 0
M  V30 151 C 14.9459 -0.883706 -1.66841 0
M  V30 152 O 14.3029 0.136565 -1.81988 0
M  V30 153 C 14.3539 -3.32865 -1.41007 0
M  V30 154 O 14.0749 -4.35609 -0.466552 0
M  V30 155 C 15.5759 -3.84991 -2.19765 0
M  V30 156 H 12.7959 -0.643422 -0.190392 0
M  V30 157 H 15.3399 -2.04406 0.0619607 0
M  V30 158 H 13.4949 -3.24956 -2.10908 0
M  V30 159 H 13.9089 -5.15288 -0.978699 0
M  V30 160 H 15.3829 -4.8371 -2.65948 0
M  V30 161 H 15.8599 -3.18137 -3.02796 0
M  V30 162 H 16.4659 -3.96103 -1.54864 0
M  V30 163 N 14.781 0.264519 -1.55364 0
M  V30 164 C 15.728 1.32717 -1.88825 0
M  V30 165 C 16.698 1.48675 -0.740605 0
M  V30 166 O 17.883 1.62945 -0.992657 0
M  V30 167 C 15.023 2.68089 -2.17307 0
M  V30 168 C 14.136 2.60284 -3.44785 0
M  V30 169 C 13.271 3.87892 -3.62924 0
M  V30 170 C 12.31 3.74631 -4.84064 0
M  V30 171 N 11.447 4.94092 -4.98816 0
M  V30 172 H 16.287 1.03481 -2.79456 0
M  V30 173 H 13.824 0.499757 -1.3835 0
M  V30 174 H 15.782 3.46864 -2.31821 0
M  V30 175 H 14.412 2.95509 -1.299 0
M  V30 176 H 13.464 1.73173 -3.38697 0
M  V30 177 H 14.776 2.46388 -4.33698 0
M  V30 178 H 13.93 4.75109 -3.77302 0
M  V30 179 H 12.669 4.04664 -2.7221 0
M  V30 180 H 11.674 2.85797 -4.69681 0
M  V30 181 H 12.899 3.5937 -5.76221 0
M  V30 182 H 10.845 5.11259 -4.11036 0
M  V30 183 H 10.762 4.8276 -5.81789 0
M  V30 184 H 12.03 5.82857 -5.17588 0
M  V30 185 N 16.2591 1.48442 0.529413 0
M  V30 186 C 17.5081 1.55742 1.28169 0
M  V30 187 C 17.8211 0.236511 1.94165 0
M  V30 188 O 19.0271 0.187761 2.7085 0
M  V30 189 C 17.4831 2.74667 2.32564 0
M  V30 190 C 17.0911 4.13402 1.72636 0
M  V30 191 C 18.8351 2.9128 3.08798 0
M  V30 192 C 16.7421 5.23587 2.74975 0
M  V30 193 H 15.6721 0.579796 0.48203 0
M  V30 194 H 18.3231 1.74776 0.559056 0
M  V30 195 H 16.7051 2.49067 3.07866 0
M  V30 196 H 17.8791 4.49022 1.03519 0
M  V30 197 H 16.1941 4.0191 1.08892 0
M  V30 198 H 18.7911 3.70767 3.85274 0
M  V30 199 H 19.1341 2.00757 3.64695 0
M  V30 200 H 19.6671 3.16782 2.40611 0
M  V30 201 H 16.4061 6.16076 2.23897 0
M  V30 202 H 15.9261 4.92454 3.42417 0
M  V30 203 H 17.6051 5.51724 3.37949 0
M  V30 204 N 17.7372 -0.778329 1.37039 0
M  V30 205 C 18.9832 -1.53892 1.32079 0
M  V30 206 C 19.3162 -1.9396 -0.0965386 0
M  V30 207 O 18.5912 -1.63568 -1.05242 0
M  V30 208 C 18.8742 -2.80847 2.25382 0
M  V30 209 C 18.7272 -2.47076 3.75864 0
M  V30 210 C 20.0462 -3.82741 2.1725 0
M  V30 211 H 17.1652 -0.558303 0.48111 0
M  V30 212 H 19.8072 -0.893397 1.67685 0
M  V30 213 H 17.9572 -3.35931 1.95148 0
M  V30 214 H 19.6292 -1.97957 4.16666 0
M  V30 215 H 17.8722 -1.79863 3.94755 0
M  V30 216 H 18.5432 -3.37798 4.36574 0
M  V30 217 H 21.0192 -3.37133 2.43887 0
M  V30 218 H 19.8952 -4.69303 2.84686 0
M  V30 219 H 20.1562 -4.2652 1.16331 0
M  V30 220 N 19.2153 -1.21501 -1.00376 0
M  V30 221 C 20.4623 -1.03299 -1.74171 0
M  V30 222 C 20.7903 0.433326 -1.89612 0
M  V30 223 O 20.0453 1.33779 -1.42834 0
M  V30 224 C 20.3443 -1.67673 -3.15627 0
M  V30 225 C 20.0103 -3.17533 -3.2013 0
M  V30 226 C 18.6723 -3.58427 -3.21067 0
M  V30 227 C 21.0243 -4.13504 -3.17275 0
M  V30 228 C 18.3523 -4.93794 -3.16835 0
M  V30 229 C 20.7043 -5.48834 -3.14585 0
M  V30 230 C 19.3683 -5.89123 -3.13831 0
M  V30 231 H 18.6383 -0.377999 -0.637336 0
M  V30 232 H 21.2853 -1.51111 -1.17634 0
M  V30 233 H 19.5903 -1.12158 -3.75404 0
M  V30 234 H 21.2873 -1.51091 -3.71446 0
M  V30 235 H 17.8773 -2.84965 -3.20145 0
M  V30 236 H 22.0613 -3.82936 -3.15711 0
M  V30 237 H 17.3173 -5.24255 -3.1459 0
M  V30 238 H 21.4913 -6.22934 -3.1133 0
M  V30 239 H 19.1183 -6.93984 -3.10307 0
M  V30 240 N 20.6934 1.19889 -1.02296 0
M  V30 241 C 21.9414 1.89046 -0.714558 0
M  V30 242 C 22.2624 1.79636 0.758681 0
M  V30 243 O 21.5324 1.20292 1.54618 0
M  V30 244 H 20.1124 0.699802 -0.261317 0
M  V30 245 H 22.7744 1.45574 -1.29592 0
M  V30 246 H 21.8704 2.95524 -1.0036 0
M  V30 247 N 22.1715 0.800033 1.35784 0
M  V30 248 C 23.5875 0.482977 1.52117 0
M  V30 249 C 23.7875 -0.996948 1.75109 0
M  V30 250 O 22.8435 -1.78216 1.78872 0
M  V30 251 C 24.1565 1.32264 2.70049 0
M  V30 252 C 25.7045 1.31742 2.83924 0
M  V30 253 C 26.1795 2.14106 4.04874 0
M  V30 254 N 27.6705 2.11607 4.12039 0
M  V30 255 C 28.4055 2.72099 5.04727 0
M  V30 256 N 27.9015 3.41492 6.02789 0
M  V30 257 N 29.6945 2.61776 4.97423 0
M  V30 258 H 21.8455 1.75856 1.19115 0
M  V30 259 H 24.1085 0.748122 0.582252 0
M  V30 260 H 23.8145 2.37261 2.59616 0
M  V30 261 H 23.6885 0.971303 3.6448 0
M  V30 262 H 26.0755 0.275333 2.93813 0
M  V30 263 H 26.1565 1.70859 1.9037 0
M  V30 264 H 25.8005 3.18351 3.95746 0
M  V30 265 H 25.7305 1.72353 4.97596 0
M  V30 266 H 28.2215 1.61112 3.41835 0
M  V30 267 H 28.5345 3.84953 6.70098 0
M  V30 268 H 26.8795 3.45596 6.02983 0
M  V30 269 H 30.0705 2.07157 4.19766 0
M  V30 270 H 30.2435 3.0921 5.69468 0
M  V30 271 N 23.6496 -1.47581 0.552962 0
M  V30 272 C 24.8976 -2.02082 0.0272703 0
M  V30 273 C 25.2186 -1.4301 -1.32563 0
M  V30 274 O 24.4886 -0.603745 -1.86365 0
M  V30 275 H 23.0686 -0.746966 0.00709182 0
M  V30 276 H 25.7306 -1.81033 0.722008 0
M  V30 277 H 24.8266 -3.12034 -0.0639951 0
M  V30 278 N 25.1277 -0.289203 -1.54924 0
M  V30 279 C 26.3557 0.326463 -2.04308 0
M  V30 280 C 26.7707 1.48413 -1.16701 0
M  V30 281 O 26.1277 1.81507 -0.190087 0
M  V30 282 C 26.1787 0.794014 -3.52672 0
M  V30 283 O 25.8997 -0.317564 -4.36948 0
M  V30 284 C 27.4007 1.47605 -4.18004 0
M  V30 285 H 24.6207 0.0726272 -0.667058 0
M  V30 286 H 27.1647 -0.425401 -2.00026 0
M  V30 287 H 25.3197 1.49593 -3.57352 0
M  V30 288 H 25.7337 0.0443186 -5.24481 0
M  V30 289 H 27.2077 1.75447 -5.23376 0
M  V30 290 H 27.6847 2.41224 -3.67025 0
M  V30 291 H 28.2907 0.81762 -4.17367 0
M  V30 292 N 26.6058 1.57591 -0.0167156 0
M  V30 293 C 27.8548 1.90461 0.663877 0
M  V30 294 C 28.1678 0.893515 1.73999 0
M  V30 295 O 29.3738 1.11302 2.47637 0
M  V30 296 C 27.8298 3.38155 1.23204 0
M  V30 297 C 27.4378 4.47597 0.189866 0
M  V30 298 C 29.1818 3.80111 1.88986 0
M  V30 299 C 27.0888 5.86379 0.768964 0
M  V30 300 H 26.0188 0.710738 0.251729 0
M  V30 301 H 28.6698 1.83326 -0.0799926 0
M  V30 302 H 27.0518 3.40182 2.02712 0
M  V30 303 H 28.2258 4.57112 -0.581846 0
M  V30 304 H 26.5408 4.14766 -0.368475 0
M  V30 305 H 29.1378 4.81145 2.33247 0
M  V30 306 H 29.4808 3.14511 2.72743 0
M  V30 307 H 30.0138 3.80454 1.16187 0
M  V30 308 H 26.7528 6.55493 -0.0301957 0
M  V30 309 H 26.2728 5.80496 1.50945 0
M  V30 310 H 27.9518 6.34563 1.26251 0
M  V30 311 N 28.0839 -0.256276 1.55502 0
M  V30 312 C 29.4949 -0.826068 1.67431 0
M  V30 313 C 29.8459 -1.86396 0.612446 0
M  V30 314 O 28.9709 -2.15031 -0.243025 0
M  V30 315 C 29.5659 -1.50512 3.03532 0
M  V30 316 C 28.1249 -2.02273 3.17431 0
M  V30 317 C 27.2719 -0.870548 2.63281 0
M  V30 318 H 30.2229 -0.0322728 1.58667 0
M  V30 319 H 30.2439 -2.37279 2.97454 0
M  V30 320 H 29.7559 -0.749484 3.80794 0
M  V30 321 H 27.8569 -2.80746 2.44974 0
M  V30 322 H 27.9699 -2.22655 4.24219 0
M  V30 323 H 26.3339 -1.26851 2.20864 0
M  V30 324 H 27.1169 -0.128149 3.43061 0
M  V30 325 N 29.562 -1.4872 -0.521534 0
M  V30 326 C 30.509 -1.63871 -1.62527 0
M  V30 327 C 31.479 -0.480559 -1.58996 0
M  V30 328 O 32.664 -0.705085 -1.77294 0
M  V30 329 C 29.804 -1.69227 -3.00759 0
M  V30 330 C 28.917 -2.96207 -3.14461 0
M  V30 331 C 28.052 -2.92671 -4.43303 0
M  V30 332 C 27.091 -4.14318 -4.50563 0
M  V30 333 N 26.228 -4.0881 -5.70805 0
M  V30 334 H 31.068 -2.58123 -1.48918 0
M  V30 335 H 28.605 -1.28 -0.724878 0
M  V30 336 H 30.563 -1.70314 -3.80853 0
M  V30 337 H 29.193 -0.784586 -3.1312 0
M  V30 338 H 28.245 -3.04826 -2.27564 0
M  V30 339 H 29.557 -3.86192 -3.15686 0
M  V30 340 H 28.711 -2.92206 -5.31696 0
M  V30 341 H 27.45 -2.00429 -4.44612 0
M  V30 342 H 26.455 -4.15049 -3.60575 0
M  V30 343 H 27.68 -5.07729 -4.50986 0
M  V30 344 H 25.626 -3.19394 -5.72995 0
M  V30 345 H 25.543 -4.92509 -5.7356 0
M  V30 346 H 26.811 -4.12418 -6.61462 0
M  V30 347 N 31.0401 0.771051 -1.3745 0
M  V30 348 C 32.2891 1.52491 -1.3202 0
M  V30 349 C 32.6021 1.9538 0.0927347 0
M  V30 350 O 33.8081 2.70159 0.269503 0
M  V30 351 C 32.2641 2.75366 -2.31736 0
M  V30 352 C 31.8721 2.39573 -3.78562 0
M  V30 353 C 33.6161 3.53307 -2.35318 0
M  V30 354 C 31.5231 3.58954 -4.70007 0
M  V30 355 H 30.4531 0.572506 -0.490666 0
M  V30 356 H 33.1041 0.844474 -1.62914 0
M  V30 357 H 31.4861 3.45303 -1.93861 0
M  V30 358 H 32.6601 1.77415 -4.25277 0
M  V30 359 H 30.9751 1.74805 -3.77932 0
M  V30 360 H 33.5721 4.42039 -3.00842 0
M  V30 361 H 33.9151 3.93217 -1.36698 0
M  V30 362 H 34.4481 2.90367 -2.71904 0
M  V30 363 H 31.1871 3.24125 -5.69757 0
M  V30 364 H 30.7071 4.20214 -4.27996 0
M  V30 365 H 32.3861 4.25758 -4.87175 0
M  V30 366 N 32.5182 1.22032 0.997298 0
M  V30 367 C 33.7662 1.04016 1.73278 0
M  V30 368 C 34.0872 -0.426255 1.90284 0
M  V30 369 O 33.3572 -1.30694 1.45931 0
M  V30 370 H 31.9372 0.381897 0.642 0
M  V30 371 H 34.5992 1.5347 1.20137 0
M  V30 372 H 33.6952 1.51441 2.72896 0
M  V30 373 N 33.9963 -1.19345 1.0293 0
M  V30 374 C 34.9063 -2.26245 0.620515 0
M  V30 375 C 35.9223 -1.70486 -0.347928 0
M  V30 376 O 37.0983 -2.00347 -0.205704 0
M  V30 377 C 34.1633 -3.46693 -0.0218957 0
M  V30 378 C 33.2243 -4.17632 0.994102 0
M  V30 379 C 32.4573 -5.32329 0.382253 0
M  V30 380 O 32.6803 -5.64552 -0.814676 0
M  V30 381 O 31.6143 -5.91664 1.10531 0
M  V30 382 H 35.4403 -2.63453 1.51083 0
M  V30 383 H 33.0253 -1.26207 0.799513 0
M  V30 384 H 34.9073 -4.19683 -0.380072 0
M  V30 385 H 33.5823 -3.11333 -0.886209 0
M  V30 386 H 32.4893 -3.4676 1.40387 0
M  V30 387 H 33.8223 -4.56964 1.8288 0
M  V30 388 N 35.4744 -0.807222 -1.35358 0
M  V30 389 C 36.3844 -0.219594 -2.3357 0
M  V30 390 C 37.4004 0.637734 -1.61892 0
M  V30 391 O 38.5764 0.549336 -1.93763 0
M  V30 392 C 35.6414 0.62158 -3.41083 0
M  V30 393 C 34.7024 -0.256315 -4.28534 0
M  V30 394 C 33.9354 0.544807 -5.30912 0
M  V30 395 O 34.1584 1.77944 -5.41934 0
M  V30 396 O 33.0924 -0.0646478 -6.01865 0
M  V30 397 H 36.9184 -1.03208 -2.85625 0
M  V30 398 H 34.5034 -0.569025 -1.38139 0
M  V30 399 H 36.3854 1.10067 -4.06772 0
M  V30 400 H 35.0604 1.41165 -2.91297 0
M  V30 401 H 33.9674 -0.782559 -3.65823 0
M  V30 402 H 35.3004 -1.01034 -4.81719 0
M  V30 403 N 36.9525 1.47285 -0.560781 0
M  V30 404 C 38.2015 2.01668 -0.035895 0
M  V30 405 C 38.5145 1.44021 1.32353 0
M  V30 406 O 39.7205 1.90088 1.93853 0
M  V30 407 C 38.1765 3.59897 -0.0136659 0
M  V30 408 C 37.7845 4.26536 -1.37006 0
M  V30 409 C 39.5285 4.22017 0.458425 0
M  V30 410 C 37.4355 5.76782 -1.30675 0
M  V30 411 H 36.3655 0.753938 -0.00964879 0
M  V30 412 H 39.0165 1.69243 -0.709166 0
M  V30 413 H 37.3985 3.89301 0.725325 0
M  V30 414 H 38.5725 4.0877 -2.12705 0
M  V30 415 H 36.8875 3.76419 -1.78038 0
M  V30 416 H 39.4845 5.32124 0.524247 0
M  V30 417 H 39.8275 3.89437 1.4712 0
M  V30 418 H 40.3605 3.97159 -0.225818 0
M  V30 419 H 37.0995 6.13988 -2.29564 0
M  V30 420 H 36.6195 5.96875 -0.591622 0
M  V30 421 H 38.2985 6.39063 -1.01033 0
M  V30 422 N 38.4306 0.297415 1.54768 0
M  V30 423 C 39.3776 -0.580276 2.23386 0
M  V30 424 C 40.3476 -1.13238 1.21517 0
M  V30 425 O 41.5326 -1.17757 1.50126 0
M  V30 426 C 38.6726 -1.74801 2.97555 0
M  V30 427 C 37.7856 -1.22764 4.1419 0
M  V30 428 C 36.9206 -2.35895 4.75949 0
M  V30 429 C 35.9596 -1.80974 5.84735 0
M  V30 430 N 35.0966 -2.87664 6.40464 0
M  V30 431 H 39.9366 0.0114833 2.97998 0
M  V30 432 H 37.4736 0.0174361 1.4709 0
M  V30 433 H 39.4316 -2.43475 3.38786 0
M  V30 434 H 38.0616 -2.31145 2.25326 0
M  V30 435 H 37.1136 -0.433271 3.77924 0
M  V30 436 H 38.4256 -0.785551 4.92575 0
M  V30 437 H 37.5796 -3.12523 5.20014 0
M  V30 438 H 36.3186 -2.83429 3.96887 0
M  V30 439 H 35.3236 -1.02834 5.40097 0
M  V30 440 H 36.5486 -1.34348 6.65678 0
M  V30 441 H 34.4946 -3.34538 5.64287 0
M  V30 442 H 34.4116 -2.4794 7.14186 0
M  V30 443 H 35.6796 -3.642 6.89187 0
M  V30 444 N 39.9087 -1.5758 0.0250728 0
M  V30 445 C 40.8567 -2.11125 -0.97617 0
M  V30 446 C 41.8507 -1.03689 -1.33959 0
M  V30 447 O 43.0567 -1.22128 -1.3223 0
M  V30 448 H 39.4317 -0.674468 -0.332561 0
M  V30 449 H 41.4027 -2.94194 -0.499223 0
M  V30 450 C 40.1517 -2.65017 -2.2508 0
M  V30 451 H 39.4747 -3.47333 -1.9799 0
M  V30 452 H 40.9147 -3.06133 -2.93357 0
M  V30 453 C 39.3737 -1.57574 -2.97779 0
M  V30 454 O 39.9037 -0.973203 -3.89733 0
M  V30 455 N 38.1097 -1.29716 -2.60043 0
M  V30 456 H 37.6567 -1.789 -1.85345 0
M  V30 457 H 37.6147 -0.58051 -3.08994 0
M  V30 458 N 41.3868 0.248026 -1.55636 0
M  V30 459 C 42.3498 1.29044 -1.89421 0
M  V30 460 C 43.3498 1.41134 -0.770581 0
M  V30 461 O 44.5398 1.39854 -1.03858 0
M  V30 462 C 41.6718 2.66831 -2.12165 0
M  V30 463 H 42.8648 1.00305 -2.82629 0
M  V30 464 H 40.4178 0.487265 -1.48511 0
M  V30 465 H 41.1528 3.00711 -1.21422 0
M  V30 466 H 40.9378 2.59438 -2.93997 0
M  V30 467 H 42.4278 3.42103 -2.3949 0
M  V30 468 N 42.8649 1.48995 0.513639 0
M  V30 469 C 44.1129 1.57531 1.26604 0
M  V30 470 C 44.4339 0.258236 1.93283 0
M  V30 471 O 43.7039 -0.721502 1.8213 0
M  V30 472 H 42.2839 0.580387 0.470276 0
M  V30 473 H 44.9459 1.85552 0.596373 0
M  V30 474 H 44.0419 2.36486 2.03669 0
M  V30 475 N 44.343 -0.763751 1.37857 0
M  V30 476 C 45.592 -1.51789 1.32827 0
M  V30 477 C 45.905 -1.95426 -0.0823719 0
M  V30 478 O 47.111 -2.70298 -0.255172 0
M  V30 479 C 45.567 -2.74133 2.33193 0
M  V30 480 C 45.175 -2.37562 3.79827 0
M  V30 481 C 46.919 -3.52054 2.37188 0
M  V30 482 C 44.826 -3.56456 4.71904 0
M  V30 483 H 43.756 -0.569896 0.493695 0
M  V30 484 H 46.407 -0.835822 1.63359 0
M  V30 485 H 44.789 -3.4427 1.9569 0
M  V30 486 H 45.963 -1.75157 4.26212 0
M  V30 487 H 44.278 -1.72798 3.78853 0
M  V30 488 H 46.875 -4.40437 3.03182 0
M  V30 489 H 47.218 -3.92486 1.38782 0
M  V30 490 H 47.751 -2.88921 2.7344 0
M  V30 491 H 44.49 -3.21099 5.71468 0
M  V30 492 H 44.01 -4.17938 4.30218 0
M  V30 493 H 45.689 -4.23168 4.89426 0
M  V30 494 N 45.8211 -1.22559 -0.990812 0
M  V30 495 C 47.2371 -0.985996 -1.255 0
M  V30 496 C 47.4371 0.319173 -1.98956 0
M  V30 497 O 46.4931 1.04127 -2.3003 0
M  V30 498 C 47.8061 -2.18607 -2.06474 0
M  V30 499 C 49.3541 -2.22985 -2.19651 0
M  V30 500 C 49.8291 -3.4255 -3.04012 0
M  V30 501 N 51.3201 -3.42725 -3.11599 0
M  V30 502 C 52.0551 -4.31892 -3.7717 0
M  V30 503 N 51.5511 -5.31279 -4.44651 0
M  V30 504 N 53.3441 -4.19662 -3.73952 0
M  V30 505 H 45.4951 -2.06469 -0.49841 0
M  V30 506 H 47.7581 -0.904853 -0.282747 0
M  V30 507 H 47.4641 -3.13267 -1.59865 0
M  V30 508 H 47.3381 -2.18838 -3.07229 0
M  V30 509 H 49.7251 -1.28871 -2.65474 0
M  V30 510 H 49.8061 -2.26791 -1.18319 0
M  V30 511 H 49.4501 -4.36965 -2.58889 0
M  V30 512 H 49.3801 -3.35984 -4.0549 0
M  V30 513 H 51.8711 -2.70807 -2.63575 0
M  V30 514 H 52.1841 -5.95593 -4.92431 0
M  V30 515 H 50.5291 -5.3519 -4.43392 0
M  V30 516 H 53.7201 -3.41268 -3.20396 0
M  V30 517 H 53.8931 -4.89358 -4.24774 0
M  V30 518 N 47.2992 1.18797 -1.03562 0
M  V30 519 C 48.2462 2.22253 -0.622259 0
M  V30 520 C 49.2162 1.61987 0.36736 0
M  V30 521 O 50.4012 1.88986 0.262492 0
M  V30 522 C 47.5412 3.45097 0.0138462 0
M  V30 523 C 46.6542 4.19722 -1.02263 0
M  V30 524 C 45.7892 5.30009 -0.355573 0
M  V30 525 C 44.8282 5.96399 -1.37749 0
M  V30 526 N 43.9652 6.98234 -0.735766 0
M  V30 527 H 48.8052 2.56968 -1.50903 0
M  V30 528 H 46.3422 1.26245 -0.755017 0
M  V30 529 H 48.3002 4.15279 0.399948 0
M  V30 530 H 46.9302 3.11018 0.864158 0
M  V30 531 H 45.9822 3.48418 -1.52673 0
M  V30 532 H 47.2942 4.65227 -1.79903 0
M  V30 533 H 46.4482 6.0664 0.0850095 0
M  V30 534 H 45.1872 4.85592 0.452967 0
M  V30 535 H 44.1922 5.18512 -1.82826 0
M  V30 536 H 45.4172 6.42899 -2.18764 0
M  V30 537 H 43.3632 6.55979 0.0525597 0
M  V30 538 H 43.2802 7.41965 -1.44995 0
M  V30 539 H 44.5482 7.78845 -0.31941 0
M  V30 540 N 48.7773 0.814389 1.34928 0
M  V30 541 C 50.0233 0.399013 1.98836 0
M  V30 542 C 50.3563 -1.03314 1.64438 0
M  V30 543 O 49.6313 -1.71811 0.911659 0
M  V30 544 C 49.9143 0.591629 3.55207 0
M  V30 545 C 49.7673 2.06928 3.99376 0
M  V30 546 C 51.0863 0.022199 4.40094 0
M  V30 547 H 48.2053 0.146451 0.722303 0
M  V30 548 H 50.8473 1.02537 1.59957 0
M  V30 549 H 48.9973 0.0584441 3.88456 0
M  V30 550 H 50.6693 2.66544 3.76499 0
M  V30 551 H 48.9123 2.56287 3.49999 0
M  V30 552 H 49.5833 2.1549 5.08201 0
M  V30 553 H 52.0593 0.477643 4.13349 0
M  V30 554 H 50.9353 0.186832 5.48582 0
M  V30 555 H 51.1963 -1.07215 4.28902 0
M  V30 556 N 50.2554 -1.46986 0.568584 0
M  V30 557 C 51.1854 -2.32946 -0.160753 0
M  V30 558 C 52.1664 -1.44487 -0.897631 0
M  V30 559 O 53.3514 -1.73327 -0.875867 0
M  V30 560 C 50.4814 -3.26494 -1.18403 0
M  V30 561 C 49.4354 -4.24282 -0.562895 0
M  V30 562 C 48.7614 -5.07236 -1.69163 0
M  V30 563 C 50.0614 -5.19989 0.490761 0
M  V30 564 H 51.7554 -2.94175 0.556916 0
M  V30 565 H 49.3014 -1.4146 0.26927 0
M  V30 566 H 51.2544 -3.85477 -1.70251 0
M  V30 567 H 49.9784 -2.63343 -1.93179 0
M  V30 568 H 48.6374 -3.66541 -0.0656164 0
M  V30 569 H 48.2854 -4.4048 -2.42871 0
M  V30 570 H 47.9854 -5.7345 -1.28174 0
M  V30 571 H 49.5094 -5.6908 -2.21314 0
M  V30 572 H 50.9234 -5.73271 0.0579047 0
M  V30 573 H 49.3204 -5.94469 0.820165 0
M  V30 574 H 50.3904 -4.64777 1.3824 0
M  V30 575 N 51.7335 -0.305618 -1.54608 0
M  V30 576 C 52.9805 0.302298 -2.00231 0
M  V30 577 C 53.3085 1.5354 -1.19398 0
M  V30 578 O 52.5635 1.93973 -0.259423 0
M  V30 579 C 52.8625 0.698983 -3.50498 0
M  V30 580 C 52.5285 -0.432903 -4.48817 0
M  V30 581 C 51.1905 -0.743622 -4.75419 0
M  V30 582 C 53.5425 -1.19409 -5.07337 0
M  V30 583 C 50.8705 -1.81857 -5.57804 0
M  V30 584 C 53.2225 -2.25899 -5.90891 0
M  V30 585 C 51.8865 -2.57572 -6.15803 0
M  V30 586 H 51.1565 0.110619 -0.732697 0
M  V30 587 H 53.8035 -0.425674 -1.86709 0
M  V30 588 H 52.1085 1.50711 -3.61654 0
M  V30 589 H 53.8055 1.1806 -3.83227 0
M  V30 590 H 50.3955 -0.18063 -4.28219 0
M  V30 591 H 54.5795 -0.967295 -4.86782 0
M  V30 592 H 49.8355 -2.06864 -5.75341 0
M  V30 593 H 54.0095 -2.85335 -6.35261 0
M  V30 594 H 51.6365 -3.40998 -6.7943 0
M  V30 595 N 53.2116 1.57565 -0.0334293 0
M  V30 596 C 54.1416 2.13511 0.945265 0
M  V30 597 C 55.1226 1.05231 1.33643 0
M  V30 598 O 56.3076 1.33084 1.41429 0
M  V30 599 C 53.4376 2.6657 2.22616 0
M  V30 600 C 52.3916 3.79676 1.97561 0
M  V30 601 C 51.7176 4.1918 3.31952 0
M  V30 602 C 53.0176 5.0557 1.31135 0
M  V30 603 H 54.7116 2.95538 0.479325 0
M  V30 604 H 52.2576 1.42166 0.229115 0
M  V30 605 H 54.2106 3.04344 2.91466 0
M  V30 606 H 52.9346 1.8171 2.71384 0
M  V30 607 H 51.5936 3.42347 1.31127 0
M  V30 608 H 51.2416 3.31296 3.78487 0
M  V30 609 H 50.9416 4.95402 3.15992 0
M  V30 610 H 52.4656 4.59541 4.02063 0
M  V30 611 H 53.8796 5.40903 1.89992 0
M  V30 612 H 52.2766 5.86818 1.25559 0
M  V30 613 H 53.3466 4.84062 0.284894 0
M  V30 614 N 54.6897 -0.239769 1.55765 0
M  V30 615 C 55.9197 -0.982743 1.8173 0
M  V30 616 C 56.3277 -1.7917 0.607835 0
M  V30 617 O 55.6707 -1.78525 -0.432973 0
M  V30 618 C 55.7327 -1.96332 3.01155 0
M  V30 619 C 55.3967 -1.34062 4.36894 0
M  V30 620 C 56.3937 -0.739539 5.14613 0
M  V30 621 C 54.0787 -1.35784 4.83599 0
M  V30 622 C 56.0727 -0.163989 6.37189 0
M  V30 623 C 53.7597 -0.778441 6.06122 0
M  V30 624 C 54.7577 -0.182548 6.82756 0
M  V30 625 O 54.4457 0.387887 8.02964 0
M  V30 626 H 54.1777 -0.294481 0.608487 0
M  V30 627 H 56.7317 -0.26572 2.03674 0
M  V30 628 H 54.9617 -2.71884 2.74984 0
M  V30 629 H 56.6507 -2.57032 3.14149 0
M  V30 630 H 57.4167 -0.718687 4.79646 0
M  V30 631 H 53.2957 -1.81105 4.23936 0
M  V30 632 H 56.8397 0.301753 6.96947 0
M  V30 633 H 52.7367 -0.796645 6.40565 0
M  V30 634 H 53.5047 0.28044 8.18019 0
M  V30 635 N 56.1678 -1.49265 -0.50573 0
M  V30 636 C 57.4158 -1.582 -1.25766 0
M  V30 637 C 57.7368 -0.268482 -1.93143 0
M  V30 638 O 57.0068 0.711833 -1.8251 0
M  V30 639 H 55.5868 -0.582873 -0.467191 0
M  V30 640 H 58.2488 -1.85865 -0.586525 0
M  V30 641 H 57.3448 -2.37563 -2.02412 0
M  V30 642 N 57.6459 0.756429 -1.3826 0
M  V30 643 C 58.8939 1.51248 -1.34047 0
M  V30 644 C 59.2149 1.94875 0.0698372 0
M  V30 645 O 58.4849 1.67436 1.01696 0
M  V30 646 H 57.0649 0.561018 -0.493222 0
M  V30 647 H 59.7269 0.899347 -1.7291 0
M  V30 648 H 58.8229 2.40472 -1.98947 0
M  V30 649 N 59.124 1.23083 0.984299 0
M  V30 650 C 60.372 1.05848 1.72165 0
M  V30 651 C 60.693 -0.406049 1.90726 0
M  V30 652 O 59.963 -1.29139 1.47309 0
M  V30 653 H 58.543 0.388685 0.637913 0
M  V30 654 H 61.205 1.54736 1.18503 0
M  V30 655 H 60.301 1.54327 2.71274 0
M  V30 656 N 60.6021 -1.18246 1.0419 0
M  V30 657 C 61.8271 -1.92736 0.765996 0
M  V30 658 C 62.2521 -1.75728 -0.67091 0
M  V30 659 O 61.6101 -1.06825 -1.46486 0
M  V30 660 C 61.6581 -3.42148 1.13875 0
M  V30 661 O 60.7621 -4.11548 0.264954 0
M  V30 662 H 60.1031 -0.601238 0.281797 0
M  V30 663 H 62.6331 -1.49942 1.39207 0
M  V30 664 H 62.6431 -3.92858 1.1012 0
M  V30 665 H 61.3181 -3.53848 2.18551 0
M  V30 666 H 59.8951 -3.71137 0.362226 0
M  V30 667 N 62.0802 -0.821533 -1.34494 0
M  V30 668 C 63.3292 -0.405355 -1.97585 0
M  V30 669 C 63.6422 1.03677 -1.65863 0
M  V30 670 O 64.8482 1.55679 -2.22433 0
M  V30 671 C 63.3042 -0.673861 -3.53535 0
M  V30 672 C 62.9122 -2.12951 -3.94152 0
M  V30 673 C 64.6562 -0.32378 -4.23263 0
M  V30 674 C 62.5632 -2.34298 -5.43009 0
M  V30 675 H 61.4932 -0.147836 -0.739365 0
M  V30 676 H 64.1442 -1.00769 -1.53355 0
M  V30 677 H 62.5262 -0.00137554 -3.96 0
M  V30 678 H 63.7002 -2.84104 -3.62797 0
M  V30 679 H 62.0152 -2.44089 -3.37356 0
M  V30 680 H 64.6122 -0.461126 -5.32708 0
M  V30 681 H 64.9552 0.731586 -4.09821 0
M  V30 682 H 65.4882 -0.950786 -3.8627 0
M  V30 683 H 62.2272 -3.38335 -5.61435 0
M  V30 684 H 61.7472 -1.67687 -5.75883 0
M  V30 685 H 63.4262 -2.16588 -6.09671 0
M  V30 686 N 63.5583 1.46682 -0.576371 0
M  V30 687 C 64.5053 2.30241 0.160499 0
M  V30 688 C 65.4753 1.40233 0.890162 0
M  V30 689 O 66.6603 1.69186 0.882084 0
M  V30 690 C 63.8003 3.24578 1.1723 0
M  V30 691 C 62.9133 4.29684 0.446736 0
M  V30 692 C 62.0483 5.11154 1.44551 0
M  V30 693 C 61.0873 6.08015 0.70599 0
M  V30 694 N 60.2243 6.82376 1.65251 0
M  V30 695 H 65.0643 2.92727 -0.558127 0
M  V30 696 H 62.6013 1.44272 -0.287056 0
M  V30 697 H 64.5593 3.77711 1.77172 0
M  V30 698 H 63.1893 2.63916 1.85872 0
M  V30 699 H 62.2413 3.79458 -0.267594 0
M  V30 700 H 63.5533 4.98626 -0.131686 0
M  V30 701 H 62.7073 5.68533 2.11791 0
M  V30 702 H 61.4463 4.42158 2.05786 0
M  V30 703 H 60.4513 5.49796 0.0197725 0
M  V30 704 H 61.6763 6.79028 0.09912 0
M  V30 705 H 59.6223 6.16094 2.25308 0
M  V30 706 H 59.5393 7.47556 1.12673 0
M  V30 707 H 60.8073 7.44316 2.31546 0
M  V30 708 N 65.0364 0.313813 1.54444 0
M  V30 709 C 65.9834 -0.55655 2.23989 0
M  V30 710 C 66.9534 -1.11943 1.22711 0
M  V30 711 O 68.1384 -1.16158 1.51367 0
M  V30 712 C 65.2784 -1.71635 2.99392 0
M  V30 713 C 64.3914 -1.18364 4.15468 0
M  V30 714 C 63.5264 -2.30834 4.78424 0
M  V30 715 C 62.5654 -1.74762 5.86622 0
M  V30 716 N 61.7024 -2.80855 6.43479 0
M  V30 717 H 66.5424 0.0430893 2.97969 0
M  V30 718 H 64.0794 0.0330359 1.47063 0
M  V30 719 H 66.0374 -2.39868 3.41349 0
M  V30 720 H 64.6674 -2.28742 2.27765 0
M  V30 721 H 63.7194 -0.393163 3.78363 0
M  V30 722 H 65.0314 -0.733262 4.93381 0
M  V30 723 H 64.1854 -3.0699 5.23299 0
M  V30 724 H 62.9244 -2.79204 3.99871 0
M  V30 725 H 61.9294 -0.970995 5.41158 0
M  V30 726 H 63.1544 -1.2728 6.67066 0
M  V30 727 H 61.1004 -3.28535 5.67804 0
M  V30 728 H 61.0174 -2.40351 7.16776 0
M  V30 729 H 62.2854 -3.5687 6.93011 0
M  V30 730 N 66.5145 -1.57545 0.0417849 0
M  V30 731 C 67.4625 -2.12148 -0.953723 0
M  V30 732 C 68.4565 -1.05104 -1.32852 0
M  V30 733 O 69.6625 -1.23524 -1.30927 0
M  V30 734 H 66.0375 -0.677957 -0.325389 0
M  V30 735 H 68.0085 -2.94707 -0.467991 0
M  V30 736 C 66.7575 -2.6739 -2.22257 0
M  V30 737 H 66.0805 -3.49413 -1.94295 0
M  V30 738 H 67.5205 -3.09227 -2.90094 0
M  V30 739 C 65.9795 -1.60723 -2.96091 0
M  V30 740 O 66.5095 -1.01449 -3.88679 0
M  V30 741 N 64.7155 -1.32466 -2.58652 0
M  V30 742 H 64.2625 -1.80856 -1.83437 0
M  V30 743 H 64.2205 -0.61325 -3.08361 0
M  V30 744 N 67.9926 0.231505 -1.5589 0
M  V30 745 C 69.2406 0.955461 -1.78088 0
M  V30 746 C 69.5616 1.85262 -0.608533 0
M  V30 747 O 68.8316 1.92277 0.375035 0
M  V30 748 H 67.4116 0.355787 -0.656829 0
M  V30 749 H 70.0736 0.245751 -1.93344 0
M  V30 750 H 69.1696 1.56814 -2.69844 0
M  V30 751 N 69.4707 1.49531 0.497807 0
M  V30 752 C 70.7167 1.59415 1.25358 0
M  V30 753 C 71.0497 0.281422 1.9215 0
M  V30 754 O 70.3247 -0.715249 1.80871 0
M  V30 755 C 70.6077 2.75566 2.3181 0
M  V30 756 C 70.4607 4.16642 1.69498 0
M  V30 757 C 71.7797 2.87347 3.33346 0
M  V30 758 H 68.8987 0.580244 0.454408 0
M  V30 759 H 71.5407 1.81827 0.551262 0
M  V30 760 H 69.6907 2.56587 2.91711 0
M  V30 761 H 71.3627 4.47145 1.13399 0
M  V30 762 H 69.6057 4.22141 0.998978 0
M  V30 763 H 70.2767 4.93792 2.46725 0
M  V30 764 H 72.7527 3.04634 2.83438 0
M  V30 765 H 71.6287 3.70289 4.05188 0
M  V30 766 H 71.8897 1.96834 3.95865 0
M  V30 767 N 70.9488 -0.749086 1.3866 0
M  V30 768 C 72.1788 -1.53611 1.38157 0
M  V30 769 C 72.5868 -1.89177 -0.0293595 0
M  V30 770 O 71.9298 -1.53606 -1.00752 0
M  V30 771 C 71.9918 -2.86087 2.17702 0
M  V30 772 C 71.6558 -2.73034 3.66472 0
M  V30 773 C 72.6528 -2.42526 4.59866 0
M  V30 774 C 70.3378 -2.90345 4.09884 0
M  V30 775 C 72.3318 -2.29492 5.94653 0
M  V30 776 C 70.0188 -2.7693 5.4475 0
M  V30 777 C 71.0168 -2.46547 6.36949 0
M  V30 778 O 70.7048 -2.33199 7.69333 0
M  V30 779 H 70.4368 -0.481773 0.474205 0
M  V30 780 H 72.9908 -0.934465 1.82912 0
M  V30 781 H 71.2208 -3.48458 1.67672 0
M  V30 782 H 72.9098 -3.47625 2.09551 0
M  V30 783 H 73.6758 -2.28816 4.27631 0
M  V30 784 H 69.5548 -3.1299 3.38464 0
M  V30 785 H 73.0988 -2.05698 6.66584 0
M  V30 786 H 68.9958 -2.90215 5.76581 0
M  V30 787 H 69.7638 -2.48376 7.79905 0
M  V30 788 N 72.4269 -1.23603 -0.977757 0
M  V30 789 C 73.7039 -0.977897 -1.69401 0
M  V30 790 C 74.0839 0.502738 -2.05026 0
M  V30 791 O 73.4319 1.47459 -1.74551 0
M  V30 792 C 73.6419 -1.89077 -2.93345 0
M  V30 793 C 74.9899 -2.15579 -3.65802 0
M  V30 794 O 76.0139 -1.86648 -3.03383 0
M  V30 795 O 74.8729 -2.64658 -4.78141 0
M  V30 796 H 71.9669 -0.369025 -0.740101 0
M  V30 797 H 74.5129 -1.34657 -1.03274 0
M  V30 798 H 73.2849 -2.89158 -2.63634 0
M  V30 799 H 72.9079 -1.52463 -3.67207 0
M  V30 800 N 73.905 1.17692 -1.04816 0
M  V30 801 C 74.837 2.21103 -0.603822 0
M  V30 802 C 75.85 1.59411 0.33046 0
M  V30 803 O 77.039 1.7807 0.12379 0
M  V30 804 C 74.139 3.38623 0.136898 0
M  V30 805 C 73.312 4.29888 -0.807137 0
M  V30 806 C 72.371 5.26088 -0.10836 0
M  V30 807 O 71.397 5.64353 -0.741232 0
M  V30 808 N 72.599 5.68882 1.15558 0
M  V30 809 H 75.364 2.59848 -1.49329 0
M  V30 810 H 72.925 1.32553 -0.929587 0
M  V30 811 H 74.917 4.00009 0.614401 0
M  V30 812 H 73.487 2.98508 0.927993 0
M  V30 813 H 72.707 3.65993 -1.46434 0
M  V30 814 H 73.995 4.87759 -1.44807 0
M  V30 815 H 73.393 5.39861 1.69015 0
M  V30 816 H 71.95 6.32429 1.57722 0
M  V30 817 N 75.3831 0.828654 1.34056 0
M  V30 818 C 76.6291 0.42008 1.98402 0
M  V30 819 C 76.9621 -1.01564 1.65525 0
M  V30 820 O 76.2371 -1.70834 0.929831 0
M  V30 821 C 76.5201 0.62927 3.54559 0
M  V30 822 C 76.3731 2.11152 3.97159 0
M  V30 823 C 77.6921 0.0688756 4.40046 0
M  V30 824 H 74.8111 0.154104 0.720709 0
M  V30 825 H 77.4531 1.04228 1.5886 0
M  V30 826 H 75.6031 0.0996418 3.88372 0
M  V30 827 H 77.2751 2.70522 3.73651 0
M  V30 828 H 75.5181 2.59985 3.47261 0
M  V30 829 H 76.1891 2.20868 5.05887 0
M  V30 830 H 78.6651 0.521458 4.1282 0
M  V30 831 H 77.5411 0.245006 5.48353 0
M  V30 832 H 77.8021 -1.0266 4.30015 0
M  V30 833 N 76.8612 -1.46375 0.584142 0
M  V30 834 C 78.1072 -2.02678 0.0703716 0
M  V30 835 C 78.4402 -1.4545 -1.28678 0
M  V30 836 O 77.7152 -0.62014 -1.84349 0
M  V30 837 C 77.9982 -3.60099 0.00614674 0
M  V30 838 C 77.8512 -4.27709 1.3923 0
M  V30 839 C 79.1702 -4.34598 -0.693742 0
M  V30 840 H 76.2892 -0.736504 0.027047 0
M  V30 841 H 78.9312 -1.74501 0.751615 0
M  V30 842 H 77.0812 -3.84236 -0.574009 0
M  V30 843 H 78.7532 -4.14832 2.01773 0
M  V30 844 H 76.9962 -3.87016 1.95962 0
M  V30 845 H 77.6672 -5.36478 1.29982 0
M  V30 846 H 80.1432 -4.15615 -0.200869 0
M  V30 847 H 79.0192 -5.44318 -0.707714 0
M  V30 848 H 79.2802 -4.05759 -1.75533 0
M  V30 849 N 78.3393 -0.321999 -1.54275 0
M  V30 850 C 79.6163 0.335232 -1.92706 0
M  V30 851 C 79.9963 1.70006 -1.25145 0
M  V30 852 O 79.3443 2.25067 -0.394596 0
M  V30 853 C 79.5543 0.429008 -3.46353 0
M  V30 854 C 80.9023 0.690029 -4.18956 0
M  V30 855 O 81.9263 0.511992 -3.52501 0
M  V30 856 O 80.7853 1.03338 -5.36641 0
M  V30 857 H 77.8793 0.191143 -0.804608 0
M  V30 858 H 80.4253 -0.3716 -1.65581 0
M  V30 859 H 79.1973 -0.529611 -3.87699 0
M  V30 860 H 78.8203 1.18348 -3.79578 0
M  V30 861 N 79.8174 1.5752 -0.0501392 0
M  V30 862 C 81.0424 1.97376 0.636997 0
M  V30 863 C 81.4674 0.927466 1.63645 0
M  V30 864 O 80.8254 -0.10941 1.8097 0
M  V30 865 C 80.8734 3.36304 1.30123 0
M  V30 866 O 79.9774 3.34156 2.41689 0
M  V30 867 H 79.3184 0.642998 0.165679 0
M  V30 868 H 81.8484 2.04258 -0.118233 0
M  V30 869 H 81.8584 3.73008 1.65315 0
M  V30 870 H 80.5334 4.11993 0.568746 0
M  V30 871 H 79.1104 3.09196 2.08451 0
M  V30 872 N 81.2955 -0.223234 1.56011 0
M  V30 873 C 82.2255 -1.27988 1.95298 0
M  V30 874 C 83.2065 -1.48976 0.820979 0
M  V30 875 O 84.3915 -1.61188 1.08315 0
M  V30 876 C 81.5215 -2.63 2.26822 0
M  V30 877 C 80.4755 -2.56671 3.42497 0
M  V30 878 C 79.8015 -3.95697 3.59622 0
M  V30 879 C 81.1015 -2.11601 4.77517 0
M  V30 880 H 82.7955 -0.953525 2.8381 0
M  V30 881 H 80.3415 -0.457244 1.36548 0
M  V30 882 H 82.2945 -3.37077 2.52898 0
M  V30 883 H 81.0185 -2.9732 1.35161 0
M  V30 884 H 79.6775 -1.85051 3.16467 0
M  V30 885 H 79.3255 -4.27322 2.6534 0
M  V30 886 H 79.0255 -3.92345 4.37424 0
M  V30 887 H 80.5495 -4.71438 3.88044 0
M  V30 888 H 81.9635 -2.7542 5.02809 0
M  V30 889 H 80.3605 -2.19311 5.5859 0
M  V30 890 H 81.4305 -1.06824 4.72987 0
M  V30 891 N 82.7736 -1.49793 -0.48987 0
M  V30 892 C 83.7206 -1.67281 -1.59014 0
M  V30 893 C 84.6906 -0.514177 -1.57941 0
M  V30 894 O 85.8756 -0.742533 -1.75759 0
M  V30 895 C 83.0156 -1.75569 -2.97102 0
M  V30 896 C 82.1286 -3.0281 -3.08107 0
M  V30 897 C 81.2636 -3.02008 -4.36995 0
M  V30 898 C 80.3026 -4.23782 -4.41673 0
M  V30 899 N 79.4396 -4.20826 -5.62005 0
M  V30 900 H 84.2796 -2.61224 -1.43409 0
M  V30 901 H 81.8166 -1.29508 -0.697565 0
M  V30 902 H 83.7746 -1.78354 -3.77155 0
M  V30 903 H 82.4046 -0.850827 -3.11385 0
M  V30 904 H 81.4566 -3.09584 -2.21047 0
M  V30 905 H 82.7686 -3.92801 -3.07423 0
M  V30 906 H 81.9226 -3.03418 -5.25378 0
M  V30 907 H 80.6616 -2.09815 -4.4026 0
M  V30 908 H 79.6666 -4.22604 -3.5169 0
M  V30 909 H 80.8916 -5.17181 -4.40115 0
M  V30 910 H 78.8376 -3.31476 -5.66091 0
M  V30 911 H 78.7546 -5.04564 -5.62984 0
M  V30 912 H 80.0226 -4.26355 -6.52565 0
M  V30 913 N 84.2517 0.741722 -1.39055 0
M  V30 914 C 85.1987 1.85566 -1.37237 0
M  V30 915 C 86.1687 1.64457 -0.233072 0
M  V30 916 O 87.3537 1.85957 -0.427147 0
M  V30 917 C 84.4937 3.23004 -1.215 0
M  V30 918 C 83.6067 3.55864 -2.44918 0
M  V30 919 C 82.7417 4.82669 -2.21821 0
M  V30 920 C 81.7807 5.08351 -3.40948 0
M  V30 921 N 80.9177 6.26356 -3.17211 0
M  V30 922 H 85.7577 1.86455 -2.32462 0
M  V30 923 H 83.2947 0.911176 -1.15482 0
M  V30 924 H 85.2527 4.02331 -1.10389 0
M  V30 925 H 83.8827 3.21411 -0.29908 0
M  V30 926 H 82.9347 2.7129 -2.66657 0
M  V30 927 H 84.2467 3.70765 -3.33668 0
M  V30 928 H 83.4007 5.69962 -2.07914 0
M  V30 929 H 82.1397 4.69929 -1.30454 0
M  V30 930 H 81.1447 4.19522 -3.55361 0
M  V30 931 H 82.3697 5.22981 -4.33207 0
M  V30 932 H 80.3157 6.14917 -2.28502 0
M  V30 933 H 80.2327 6.41813 -3.99515 0
M  V30 934 H 81.5007 7.16506 -3.06984 0
M  V30 935 N 85.7298 1.2412 0.971189 0
M  V30 936 C 86.6798 0.997551 2.05019 0
M  V30 937 C 87.6638 -0.0597747 1.60789 0
M  V30 938 O 88.8558 0.153516 1.76333 0
M  V30 939 C 85.9848 0.600557 3.38006 0
M  V30 940 C 85.0708 1.69377 3.88809 0
M  V30 941 N 85.4618 2.92586 4.12586 0
M  V30 942 C 83.7598 1.57048 4.17435 0
M  V30 943 C 84.4608 3.63431 4.54195 0
M  V30 944 N 83.4368 2.90979 4.59165 0
M  V30 945 H 87.2388 1.93316 2.21374 0
M  V30 946 H 84.7528 1.14194 1.1547 0
M  V30 947 H 86.7498 0.40725 4.14906 0
M  V30 948 H 85.4098 -0.327903 3.2304 0
M  V30 949 H 86.4208 3.288 4.00139 0
M  V30 950 H 83.0978 0.709798 4.11422 0
M  V30 951 H 84.4878 4.69102 4.81033 0
M  V30 952 N 87.2079 -1.17134 1.05439 0
M  V30 953 C 88.4559 -1.87085 0.764429 0
M  V30 954 C 88.7769 -1.81584 -0.710787 0
M  V30 955 O 88.0469 -1.24349 -1.51374 0
M  V30 956 H 86.6269 -0.692627 0.279779 0
M  V30 957 H 89.2889 -1.42087 1.33406 0
M  V30 958 H 88.3849 -2.92759 1.0816 0
M  V30 959 N 88.686 -0.835752 -1.33615 0
M  V30 960 C 89.935 -0.426289 -1.97144 0
M  V30 961 C 90.248 1.01912 -1.66953 0
M  V30 962 O 91.454 1.53311 -2.24072 0
M  V30 963 C 89.91 -0.711321 -3.52801 0
M  V30 964 C 89.518 -2.1712 -3.91871 0
M  V30 965 C 91.262 -0.368654 -4.22896 0
M  V30 966 C 89.169 -2.40044 -5.40493 0
M  V30 967 H 88.099 -0.15567 -0.737755 0
M  V30 968 H 90.75 -1.0239 -1.52278 0
M  V30 969 H 89.132 -0.0433766 -3.95976 0
M  V30 970 H 90.306 -2.87936 -3.59763 0
M  V30 971 H 88.621 -2.47654 -3.34749 0
M  V30 972 H 91.218 -0.517601 -5.32189 0
M  V30 973 H 91.561 0.688078 -4.10574 0
M  V30 974 H 92.094 -0.991702 -3.8524 0
M  V30 975 H 88.833 -3.44271 -5.57815 0
M  V30 976 H 88.353 -1.73785 -5.74072 0
M  V30 977 H 90.032 -2.23042 -6.0734 0
M  V30 978 N 90.1641 1.46063 -0.591896 0
M  V30 979 C 91.0741 2.34192 0.13831 0
M  V30 980 C 92.0901 1.50305 0.876608 0
M  V30 981 O 93.2661 1.8315 0.837728 0
M  V30 982 C 90.3311 3.27656 1.13326 0
M  V30 983 C 89.3921 4.27445 0.39863 0
M  V30 984 C 88.6251 5.16443 1.34618 0
M  V30 985 O 88.8481 5.08553 2.58321 0
M  V30 986 O 87.7821 5.95843 0.851768 0
M  V30 987 H 91.6081 2.98002 -0.58552 0
M  V30 988 H 89.1931 1.45188 -0.352239 0
M  V30 989 H 91.0751 3.85291 1.70671 0
M  V30 990 H 89.7501 2.6643 1.83839 0
M  V30 991 H 88.6571 3.73471 -0.216895 0
M  V30 992 H 89.9901 4.91482 -0.265709 0
M  V30 993 N 91.6422 0.330177 1.54103 0
M  V30 994 C 92.8882 -0.263542 2.01685 0
M  V30 995 C 93.2432 -1.49258 1.21408 0
M  V30 996 O 92.5362 -1.89395 0.289852 0
M  V30 997 C 92.7302 -0.643134 3.51566 0
M  V30 998 C 92.5592 0.547571 4.46354 0
M  V30 999 C 91.3292 1.04873 4.94297 0
M  V30 1000 C 93.5272 1.40184 4.94826 0
M  V30 1001 N 91.5092 2.20316 5.73005 0
M  V30 1002 C 92.8802 2.40335 5.71524 0
M  V30 1003 C 94.9352 1.42884 4.76958 0
M  V30 1004 C 93.6382 3.42998 6.32254 0
M  V30 1005 C 95.6642 2.44421 5.38528 0
M  V30 1006 C 95.0262 3.43298 6.15082 0
M  V30 1007 H 91.1252 -0.0601026 0.779687 0
M  V30 1008 H 93.7092 0.466714 1.89023 0
M  V30 1009 H 91.8802 -1.34251 3.6446 0
M  V30 1010 H 93.6122 -1.21889 3.85908 0
M  V30 1011 H 90.3672 0.618956 4.69538 0
M  V30 1012 H 90.7912 2.78565 6.17034 0
M  V30 1013 H 95.4332 0.678049 4.17328 0
M  V30 1014 H 93.1512 4.1898 6.91 0
M  V30 1015 H 96.7372 2.4732 5.26616 0
M  V30 1016 H 95.6172 4.20579 6.61878 0
M  V30 1017 N 93.1203 -1.57491 0.0584922 0
M  V30 1018 C 94.3663 -1.93264 -0.614558 0
M  V30 1019 C 94.6993 -0.937717 -1.7006 0
M  V30 1020 O 93.9743 0.0351652 -1.94468 0
M  V30 1021 C 94.2573 -3.3938 -1.20386 0
M  V30 1022 C 94.1103 -4.49625 -0.125375 0
M  V30 1023 C 95.4293 -3.86039 -2.11334 0
M  V30 1024 H 92.5483 -0.702791 -0.221933 0
M  V30 1025 H 95.1903 -1.8961 0.12175 0
M  V30 1026 H 93.3403 -3.42626 -1.83139 0
M  V30 1027 H 95.0123 -4.58506 0.506971 0
M  V30 1028 H 93.2553 -4.30354 0.545672 0
M  V30 1029 H 93.9263 -5.48967 -0.577861 0
M  V30 1030 H 96.4023 -3.84716 -1.58534 0
M  V30 1031 H 95.2783 -4.88914 -2.49507 0
M  V30 1032 H 95.5393 -3.23215 -3.01636 0
M  V30 1033 N 94.5984 0.214957 -1.56127 0
M  V30 1034 C 95.5084 1.28727 -1.96129 0
M  V30 1035 C 96.5244 1.50916 -0.866044 0
M  V30 1036 O 97.7004 1.63918 -1.17016 0
M  V30 1037 C 94.7654 2.61569 -2.27558 0
M  V30 1038 C 93.8264 2.47625 -3.50685 0
M  V30 1039 C 93.0594 3.74132 -3.80606 0
M  V30 1040 O 93.2824 4.77438 -3.12104 0
M  V30 1041 O 92.2164 3.70849 -4.74083 0
M  V30 1042 H 96.0424 0.977855 -2.87527 0
M  V30 1043 H 93.6274 0.418358 -1.43423 0
M  V30 1044 H 95.5094 3.40012 -2.48938 0
M  V30 1045 H 94.1844 2.92178 -1.39332 0
M  V30 1046 H 93.0914 1.67361 -3.34576 0
M  V30 1047 H 94.4244 2.21954 -4.39315 0
M  V30 1048 N 96.0765 1.50051 0.48192 0
M  V30 1049 C 97.3225 1.60736 1.2366 0
M  V30 1050 C 97.6555 0.301786 1.91841 0
M  V30 1051 O 96.9305 -0.696025 1.8162 0
M  V30 1052 C 97.2135 2.78009 2.28874 0
M  V30 1053 C 97.0665 4.18416 1.65069 0
M  V30 1054 C 98.3855 2.90867 3.30279 0
M  V30 1055 H 95.5045 0.585031 0.448228 0
M  V30 1056 H 98.1465 1.82402 0.531946 0
M  V30 1057 H 96.2965 2.59667 2.88973 0
M  V30 1058 H 97.9685 4.48322 1.0865 0
M  V30 1059 H 96.2115 4.23177 0.954148 0
M  V30 1060 H 96.8825 4.96381 2.41474 0
M  V30 1061 H 99.3585 3.07623 2.80191 0
M  V30 1062 H 98.2345 3.74566 4.01238 0
M  V30 1063 H 98.4955 2.01021 3.93755 0
M  V30 1064 N 97.5546 -0.734337 1.39446 0
M  V30 1065 C 98.7796 -1.52866 1.40167 0
M  V30 1066 C 99.2046 -1.881 -0.00171513 0
M  V30 1067 O 98.5626 -1.51957 -0.988879 0
M  V30 1068 C 98.6106 -2.79235 2.28167 0
M  V30 1069 O 97.7146 -3.75185 1.71201 0
M  V30 1070 H 97.0556 -0.461618 0.477289 0
M  V30 1071 H 99.5856 -0.905949 1.8345 0
M  V30 1072 H 99.5956 -3.27963 2.42702 0
M  V30 1073 H 98.2706 -2.52923 3.30156 0
M  V30 1074 H 96.8476 -3.33958 1.65912 0
M  V30 1075 N 99.0327 -1.24633 -0.964593 0
M  V30 1076 C 100.281 -1.08573 -1.70459 0
M  V30 1077 C 100.602 0.375655 -1.91347 0
M  V30 1078 O 99.8717 1.26779 -1.49345 0
M  V30 1079 H 98.4517 -0.398784 -0.631649 0
M  V30 1080 H 101.114 -1.56601 -1.16026 0
M  V30 1081 H 100.21 -1.58623 -2.68785 0
M  V30 1082 N 100.511 1.16574 -1.06058 0
M  V30 1083 C 101.757 1.87324 -0.777022 0
M  V30 1084 C 102.09 1.81351 0.694645 0
M  V30 1085 O 101.365 1.22753 1.50871 0
M  V30 1086 C 101.648 3.36991 -1.26922 0
M  V30 1087 C 101.501 3.51667 -2.80447 0
M  V30 1088 C 102.82 4.3131 -0.87521 0
M  V30 1089 H 99.9388 0.680191 -0.28374 0
M  V30 1090 H 102.581 1.37036 -1.3161 0
M  V30 1091 H 100.731 3.79949 -0.81063 0
M  V30 1092 H 102.403 3.17664 -3.34495 0
M  V30 1093 H 100.646 2.93656 -3.19294 0
M  V30 1094 H 101.317 4.56766 -3.0995 0
M  V30 1095 H 103.793 3.9624 -1.27014 0
M  V30 1096 H 102.669 5.34545 -1.2471 0
M  V30 1097 H 102.93 4.41552 0.220071 0
M  V30 1098 N 101.989 0.842826 1.3317 0
M  V30 1099 C 102.936 0.276885 2.29133 0
M  V30 1100 C 103.906 -0.609527 1.54512 0
M  V30 1101 O 105.091 -0.546955 1.82792 0
M  V30 1102 C 102.231 -0.538707 3.40869 0
M  V30 1103 C 101.344 0.372169 4.30394 0
M  V30 1104 C 100.479 -0.454908 5.29249 0
M  V30 1105 C 99.5179 0.45411 6.10413 0
M  V30 1106 N 98.6549 -0.335075 7.013 0
M  V30 1107 H 103.495 1.10052 2.76934 0
M  V30 1108 H 101.032 0.554161 1.36262 0
M  V30 1109 H 102.99 -1.02709 4.0436 0
M  V30 1110 H 101.62 -1.32727 2.9425 0
M  V30 1111 H 100.672 0.97888 3.6759 0
M  V30 1112 H 101.984 1.0703 4.87182 0
M  V30 1113 H 101.138 -1.00695 5.98285 0
M  V30 1114 H 99.8769 -1.18646 4.73048 0
M  V30 1115 H 98.8819 1.01813 5.40291 0
M  V30 1116 H 100.107 1.18409 6.68697 0
M  V30 1117 H 98.0529 -1.04994 6.47543 0
M  V30 1118 H 97.9699 0.304262 7.55387 0
M  V30 1119 H 99.2379 -0.869224 7.74638 0
M  V30 1120 N 103.467 -1.45747 0.599634 0
M  V30 1121 C 104.878 -1.85853 0.177681 0
M  V30 1122 C 105.229 -1.50102 -1.26348 0
M  V30 1123 O 104.354 -0.923905 -1.95686 0
M  V30 1124 C 104.949 -3.37326 0.315688 0
M  V30 1125 C 103.508 -3.76365 -0.0515144 0
M  V30 1126 C 102.655 -2.69722 0.643822 0
M  V30 1127 H 105.606 -1.36661 0.806814 0
M  V30 1128 H 105.627 -3.77778 -0.454321 0
M  V30 1129 H 105.139 -3.63315 1.36468 0
M  V30 1130 H 103.24 -3.55993 -1.09999 0
M  V30 1131 H 103.353 -4.77916 0.336594 0
M  V30 1132 H 101.717 -2.54567 0.0822881 0
M  V30 1133 H 102.5 -2.98549 1.6948 0
M  V30 1134 N 104.945 -0.338344 -1.53925 0
M  V30 1135 C 105.893 0.536231 -2.26335 0
M  V30 1136 C 106.887 1.1063 -1.28286 0
M  V30 1137 O 108.093 1.05264 -1.46012 0
M  V30 1138 H 104.468 0.191602 -0.727181 0
M  V30 1139 H 106.439 -0.0965747 -2.98244 0
M  V30 1140 C 105.188 1.67803 -3.04528 0
M  V30 1141 H 104.511 1.24864 -3.79801 0
M  V30 1142 H 105.951 2.26526 -3.58416 0
M  V30 1143 C 104.41 2.60439 -2.13712 0
M  V30 1144 O 104.94 3.6255 -1.72975 0
M  V30 1145 N 103.146 2.29006 -1.78898 0
M  V30 1146 H 102.693 1.46011 -2.12223 0
M  V30 1147 H 102.651 2.91248 -1.18416 0
M  V30 1148 N 106.423 1.57458 -0.0668435 0
M  V30 1149 C 107.834 1.80776 0.466558 0
M  V30 1150 C 108.185 0.980361 1.69951 0
M  V30 1151 O 107.31 0.201441 2.1546 0
M  V30 1152 C 107.905 3.27881 0.85321 0
M  V30 1153 C 106.464 3.52062 1.3315 0
M  V30 1154 C 105.611 2.75513 0.314264 0
M  V30 1155 H 108.562 1.5598 -0.292588 0
M  V30 1156 H 108.583 3.39659 1.715 0
M  V30 1157 H 108.095 3.88075 -0.0443439 0
M  V30 1158 H 106.196 2.97167 2.24772 0
M  V30 1159 H 106.309 4.60762 1.31285 0
M  V30 1160 H 104.673 2.42123 0.790492 0
M  V30 1161 H 105.456 3.38442 -0.575477 0
M  V30 1162 N 107.901 -0.206675 1.56239 0
M  V30 1163 C 109.147 -0.930218 1.80208 0
M  V30 1164 C 109.48 -1.83387 0.638981 0
M  V30 1165 O 108.755 -1.91119 -0.361066 0
M  V30 1166 C 109.038 -1.75641 3.1436 0
M  V30 1167 C 108.891 -0.878257 4.41142 0
M  V30 1168 C 110.21 -2.73129 3.45092 0
M  V30 1169 H 107.329 -0.336742 0.655571 0
M  V30 1170 H 109.971 -0.198222 1.88963 0
M  V30 1171 H 108.121 -2.38048 3.07027 0
M  V30 1172 H 109.793 -0.269787 4.6051 0
M  V30 1173 H 108.036 -0.184385 4.33408 0
M  V30 1174 H 108.707 -1.49106 5.3148 0
M  V30 1175 H 111.183 -2.20856 3.52649 0
M  V30 1176 H 110.059 -3.28028 4.40101 0
M  V30 1177 H 110.32 -3.51606 2.68003 0
M  V30 1178 N 109.379 -1.50304 -0.473955 0
M  V30 1179 C 110.309 -1.71886 -1.58042 0
M  V30 1180 C 111.29 -0.567799 -1.60344 0
M  V30 1181 O 112.475 -0.806623 -1.76656 0
M  V30 1182 C 109.605 -1.81036 -2.96384 0
M  V30 1183 C 108.559 -2.962 -3.08949 0
M  V30 1184 C 107.885 -2.9049 -4.48909 0
M  V30 1185 C 109.185 -4.36752 -2.86434 0
M  V30 1186 H 110.879 -2.64527 -1.40234 0
M  V30 1187 H 108.425 -1.27295 -0.673201 0
M  V30 1188 H 110.378 -1.94719 -3.73714 0
M  V30 1189 H 109.102 -0.850147 -3.15341 0
M  V30 1190 H 107.761 -2.82164 -2.3405 0
M  V30 1191 H 107.409 -1.92321 -4.64781 0
M  V30 1192 H 107.109 -3.67802 -4.58253 0
M  V30 1193 H 108.633 -3.06218 -5.28264 0
M  V30 1194 H 110.047 -4.5133 -3.53517 0
M  V30 1195 H 108.444 -5.15493 -3.07225 0
M  V30 1196 H 109.514 -4.49321 -1.82316 0
M  V30 1197 N 110.857 0.726932 -1.39834 0
M  V30 1198 C 112.082 1.52121 -1.40976 0
M  V30 1199 C 112.507 1.88098 -0.00826029 0
M  V30 1200 O 111.865 1.52479 0.980807 0
M  V30 1201 C 111.913 2.78021 -2.29644 0
M  V30 1202 O 111.017 3.74272 -1.73188 0
M  V30 1203 H 110.358 0.45908 -0.479731 0
M  V30 1204 H 112.888 0.896207 -1.83927 0
M  V30 1205 H 112.898 3.26671 -2.44438 0
M  V30 1206 H 111.573 2.51169 -3.31492 0
M  V30 1207 H 110.15 3.33073 -1.6768 0
M  V30 1208 N 112.336 1.25143 0.95797 0
M  V30 1209 C 113.283 1.05235 2.05412 0
M  V30 1210 C 114.253 -0.0374561 1.66058 0
M  V30 1211 O 115.438 0.119073 1.90428 0
M  V30 1212 C 112.578 0.673589 3.38462 0
M  V30 1213 C 111.691 1.8379 3.90954 0
M  V30 1214 C 110.826 1.40381 5.12315 0
M  V30 1215 C 109.865 2.53746 5.57027 0
M  V30 1216 N 109.002 2.11136 6.69601 0
M  V30 1217 H 113.842 1.99048 2.21774 0
M  V30 1218 H 111.379 0.991277 1.08683 0
M  V30 1219 H 113.337 0.434964 4.14926 0
M  V30 1220 H 111.967 -0.227554 3.21997 0
M  V30 1221 H 111.019 2.18992 3.11041 0
M  V30 1222 H 112.331 2.68937 4.20089 0
M  V30 1223 H 111.485 1.12464 5.96185 0
M  V30 1224 H 110.224 0.523015 4.84887 0
M  V30 1225 H 109.229 2.82412 4.71724 0
M  V30 1226 H 110.454 3.42398 5.86464 0
M  V30 1227 H 108.4 1.25468 6.4389 0
M  V30 1228 H 108.317 2.89832 6.98236 0
M  V30 1229 H 109.585 1.86385 7.56889 0
M  V30 1230 N 113.814 -1.1601 1.06675 0
M  V30 1231 C 115.06 -1.86909 0.786945 0
M  V30 1232 C 115.393 -1.81717 -0.685018 0
M  V30 1233 O 114.668 -1.23551 -1.50218 0
M  V30 1234 C 114.951 -3.36313 1.28707 0
M  V30 1235 C 114.804 -3.50175 2.82308 0
M  V30 1236 C 116.123 -4.3084 0.898071 0
M  V30 1237 H 113.242 -0.678677 0.287343 0
M  V30 1238 H 115.884 -1.36336 1.32334 0
M  V30 1239 H 114.034 -3.79513 0.830768 0
M  V30 1240 H 115.706 -3.15886 3.36175 0
M  V30 1241 H 113.949 -2.91959 3.20847 0
M  V30 1242 H 114.62 -4.55116 3.12368 0
M  V30 1243 H 117.096 -3.95561 1.29114 0
M  V30 1244 H 115.972 -5.33876 1.27543 0
M  V30 1245 H 116.233 -4.41662 -0.196651 0
M  V30 1246 N 115.292 -0.849877 -1.32721 0
M  V30 1247 C 116.242 -0.262892 -2.26479 0
M  V30 1248 C 117.226 0.588493 -1.49752 0
M  V30 1249 O 118.418 0.438659 -1.71478 0
M  V30 1250 C 115.547 0.551818 -3.38836 0
M  V30 1251 C 114.633 -0.311689 -4.22953 0
M  V30 1252 N 115.024 -1.39567 -4.86163 0
M  V30 1253 C 113.322 -0.100611 -4.45887 0
M  V30 1254 C 114.023 -1.92651 -5.48872 0
M  V30 1255 N 112.999 -1.22637 -5.29586 0
M  V30 1256 H 116.801 -1.09166 -2.72873 0
M  V30 1257 H 114.315 -0.695486 -1.46754 0
M  V30 1258 H 116.312 0.988713 -4.05006 0
M  V30 1259 H 114.972 1.37844 -2.93988 0
M  V30 1260 H 115.983 -1.77859 -4.86402 0
M  V30 1261 H 112.66 0.691681 -4.11731 0
M  V30 1262 H 114.05 -2.83487 -6.09167 0
M  V30 1263 N 116.77 1.45427 -0.607355 0
M  V30 1264 C 117.68 2.34325 0.113463 0
M  V30 1265 C 118.696 1.51226 0.860617 0
M  V30 1266 O 119.872 1.84029 0.818255 0
M  V30 1267 C 116.937 3.28839 1.09844 0
M  V30 1268 C 115.998 4.27844 0.353271 0
M  V30 1269 C 115.231 5.17842 1.29133 0
M  V30 1270 O 115.454 5.11264 2.52913 0
M  V30 1271 O 114.388 5.96713 0.788523 0
M  V30 1272 H 118.214 2.97364 -0.617094 0
M  V30 1273 H 115.799 1.44807 -0.367619 0
M  V30 1274 H 117.681 3.8708 1.66575 0
M  V30 1275 H 116.356 2.68365 1.81003 0
M  V30 1276 H 115.263 3.7322 -0.256494 0
M  V30 1277 H 116.596 4.91173 -0.317822 0
M  V30 1278 N 118.248 0.346503 1.53744 0
M  V30 1279 C 119.211 -0.496439 2.23759 0
M  V30 1280 C 120.211 -1.0252 1.2388 0
M  V30 1281 O 121.401 -0.913974 1.48297 0
M  V30 1282 C 118.533 -1.69187 2.95954 0
M  V30 1283 H 119.726 0.115952 2.99676 0
M  V30 1284 H 117.279 0.0978939 1.55993 0
M  V30 1285 H 118.014 -2.34288 2.24231 0
M  V30 1286 H 117.799 -1.31989 3.69217 0
M  V30 1287 H 119.289 -2.28969 3.49232 0
M  V30 1288 N 119.726 -1.57421 0.075193 0
M  V30 1289 C 120.972 -1.93905 -0.594025 0
M  V30 1290 C 121.305 -0.955701 -1.69056 0
M  V30 1291 O 120.58 0.0145373 -1.94495 0
M  V30 1292 C 120.863 -3.40638 -1.1678 0
M  V30 1293 C 120.716 -4.49733 -0.0776792 0
M  V30 1294 C 122.035 -3.88259 -2.07228 0
M  V30 1295 H 119.154 -0.705105 -0.214466 0
M  V30 1296 H 121.796 -1.8947 0.141854 0
M  V30 1297 H 119.946 -3.44549 -1.79494 0
M  V30 1298 H 121.618 -4.57942 0.555573 0
M  V30 1299 H 119.861 -4.29751 0.591286 0
M  V30 1300 H 120.532 -5.49549 -0.519603 0
M  V30 1301 H 123.008 -3.86376 -1.54445 0
M  V30 1302 H 121.884 -4.91533 -2.44308 0
M  V30 1303 H 122.145 -3.26396 -2.98191 0
M  V30 1304 N 121.204 0.198386 -1.56346 0
M  V30 1305 C 122.114 1.2664 -1.97483 0
M  V30 1306 C 123.13 1.49989 -0.882002 0
M  V30 1307 O 124.306 1.62668 -1.18748 0
M  V30 1308 C 121.371 2.59141 -2.30319 0
M  V30 1309 C 120.432 2.43892 -3.53292 0
M  V30 1310 C 119.665 3.70074 -3.84553 0
M  V30 1311 O 119.888 4.74101 -3.1715 0
M  V30 1312 O 118.822 3.658 -4.7799 0
M  V30 1313 H 122.648 0.947304 -2.88548 0
M  V30 1314 H 120.233 0.403123 -1.43859 0
M  V30 1315 H 122.115 3.37352 -2.5253 0
M  V30 1316 H 120.79 2.90684 -1.42423 0
M  V30 1317 H 119.697 1.63803 -3.36332 0
M  V30 1318 H 121.03 2.17282 -4.41644 0
M  V30 1319 N 122.682 1.50554 0.465978 0
M  V30 1320 C 123.928 1.62038 1.21949 0
M  V30 1321 C 124.261 0.322116 1.9151 0
M  V30 1322 O 123.536 -0.676723 1.82348 0
M  V30 1323 C 123.819 2.80421 2.25912 0
M  V30 1324 C 123.672 4.20144 1.60622 0
M  V30 1325 C 124.991 2.94354 3.27176 0
M  V30 1326 H 122.11 0.589752 0.441998 0
M  V30 1327 H 124.752 1.82956 0.51257 0
M  V30 1328 H 122.902 2.62717 2.86203 0
M  V30 1329 H 124.574 4.49449 1.03889 0
M  V30 1330 H 122.817 4.24165 0.909211 0
M  V30 1331 H 123.488 4.98914 2.36196 0
M  V30 1332 H 125.964 3.10578 2.76913 0
M  V30 1333 H 124.84 3.788 3.97242 0
M  V30 1334 H 125.101 2.05186 3.916 0
M  V30 1335 N 124.16 -0.719506 1.40217 0
M  V30 1336 C 125.123 -1.8153 1.39927 0
M  V30 1337 C 126.123 -1.58095 0.293723 0
M  V30 1338 O 127.313 -1.65209 0.552429 0
M  V30 1339 C 124.445 -3.19561 1.18716 0
M  V30 1340 H 125.638 -1.83186 2.37451 0
M  V30 1341 H 123.191 -0.924746 1.26008 0
M  V30 1342 H 123.926 -3.23557 0.219366 0
M  V30 1343 H 123.711 -3.3797 1.98793 0
M  V30 1344 H 125.201 -3.99598 1.21291 0
M  V30 1345 N 125.638 -1.25649 -0.95132 0
M  V30 1346 C 126.585 -1.06323 -2.04851 0
M  V30 1347 C 127.555 0.0286491 -1.66075 0
M  V30 1348 O 128.74 -0.12917 -1.90362 0
M  V30 1349 C 125.88 -0.691529 -3.381 0
M  V30 1350 C 124.993 -1.85861 -3.89974 0
M  V30 1351 C 124.128 -1.43096 -5.11563 0
M  V30 1352 C 123.167 -2.56696 -5.55674 0
M  V30 1353 N 122.304 -2.14684 -6.68472 0
M  V30 1354 H 127.144 -2.00222 -2.20715 0
M  V30 1355 H 124.681 -0.997027 -1.08156 0
M  V30 1356 H 126.639 -0.456963 -4.1469 0
M  V30 1357 H 125.269 0.210474 -3.22113 0
M  V30 1358 H 124.321 -2.20639 -3.09875 0
M  V30 1359 H 125.633 -2.71161 -4.18657 0
M  V30 1360 H 124.787 -1.15624 -5.9558 0
M  V30 1361 H 123.526 -0.548722 -4.84603 0
M  V30 1362 H 122.531 -2.84909 -4.7022 0
M  V30 1363 H 123.756 -3.45503 -5.8464 0
M  V30 1364 H 121.702 -1.28881 -6.43215 0
M  V30 1365 H 121.619 -2.9353 -6.96689 0
M  V30 1366 H 122.887 -1.90397 -7.5589 0
M  V30 1367 N 127.117 1.15442 -1.07289 0
M  V30 1368 C 128.064 2.20161 -0.692653 0
M  V30 1369 C 129.034 1.63073 0.31564 0
M  V30 1370 O 130.219 1.89725 0.202235 0
M  V30 1371 C 127.359 3.44967 -0.0959509 0
M  V30 1372 C 126.472 4.16256 -1.15564 0
M  V30 1373 C 125.607 5.28609 -0.524011 0
M  V30 1374 C 124.646 5.91715 -1.56653 0
M  V30 1375 N 123.783 6.9554 -0.957531 0
M  V30 1376 H 128.623 2.52037 -1.59002 0
M  V30 1377 H 126.16 1.2378 -0.794798 0
M  V30 1378 H 128.118 4.16341 0.267628 0
M  V30 1379 H 126.748 3.1361 0.764772 0
M  V30 1380 H 125.8 3.43385 -1.6368 0
M  V30 1381 H 127.112 4.59268 -1.94613 0
M  V30 1382 H 126.266 6.06604 -0.108032 0
M  V30 1383 H 125.005 4.86787 0.29825 0
M  V30 1384 H 124.01 5.12433 -1.9923 0
M  V30 1385 H 125.235 6.35614 -2.39107 0
M  V30 1386 H 123.181 6.55814 -0.156162 0
M  V30 1387 H 123.098 7.36977 -1.68526 0
M  V30 1388 H 124.366 7.77435 -0.567032 0
M  V30 1389 N 128.595 0.856903 1.32268 0
M  V30 1390 C 129.505 0.306131 2.32594 0
M  V30 1391 C 130.521 -0.577209 1.64147 0
M  V30 1392 O 131.697 -0.477043 1.95669 0
M  V30 1393 C 128.762 -0.494561 3.43154 0
M  V30 1394 C 127.823 0.415186 4.27288 0
M  V30 1395 C 127.056 -0.347387 5.32568 0
M  V30 1396 O 127.279 -1.57708 5.48165 0
M  V30 1397 O 126.213 0.287982 6.01211 0
M  V30 1398 H 130.039 1.13737 2.81598 0
M  V30 1399 H 127.624 0.619902 1.35932 0
M  V30 1400 H 129.506 -0.948944 4.10576 0
M  V30 1401 H 128.181 -1.30257 2.96336 0
M  V30 1402 H 127.088 0.917793 3.62667 0
M  V30 1403 H 128.421 1.18844 4.77637 0
M  V30 1404 N 130.073 -1.45103 0.615059 0
M  V30 1405 C 131.02 -2.30586 -0.0993978 0
M  V30 1406 C 131.99 -1.42544 -0.852669 0
M  V30 1407 O 133.175 -1.71465 -0.836917 0
M  V30 1408 C 130.315 -3.27572 -1.08583 0
M  V30 1409 C 129.428 -4.30717 -0.332656 0
M  V30 1410 C 128.563 -5.14807 -1.30947 0
M  V30 1411 C 127.602 -6.09673 -0.544538 0
M  V30 1412 N 126.739 -6.86517 -1.47101 0
M  V30 1413 H 131.579 -2.91144 0.635542 0
M  V30 1414 H 129.116 -1.4346 0.325206 0
M  V30 1415 H 131.074 -3.82276 -1.67095 0
M  V30 1416 H 129.704 -2.68751 -1.78809 0
M  V30 1417 H 128.756 -3.78615 0.368107 0
M  V30 1418 H 130.068 -4.98102 0.263842 0
M  V30 1419 H 129.222 -5.73948 -1.96643 0
M  V30 1420 H 127.961 -4.47458 -1.9399 0
M  V30 1421 H 126.966 -5.49656 0.126003 0
M  V30 1422 H 128.191 -6.79052 0.080947 0
M  V30 1423 H 126.137 -6.21851 -2.08895 0
M  V30 1424 H 126.054 -7.50281 -0.928137 0
M  V30 1425 H 127.322 -7.50194 -2.11731 0
M  V30 1426 N 131.551 -0.354651 -1.53558 0
M  V30 1427 C 132.797 0.238797 -2.01389 0
M  V30 1428 C 133.13 1.49309 -1.2418 0
M  V30 1429 O 132.405 1.91638 -0.332457 0
M  V30 1430 C 132.688 0.541771 -3.56001 0
M  V30 1431 C 132.541 -0.725388 -4.43912 0
M  V30 1432 C 133.86 1.34685 -4.18984 0
M  V30 1433 H 130.979 0.0853177 -0.732045 0
M  V30 1434 H 133.621 -0.477384 -1.83905 0
M  V30 1435 H 131.771 1.15189 -3.71031 0
M  V30 1436 H 133.443 -1.36313 -4.407 0
M  V30 1437 H 131.686 -1.34801 -4.12324 0
M  V30 1438 H 132.357 -0.468505 -5.50008 0
M  V30 1439 H 134.833 0.830837 -4.07721 0
M  V30 1440 H 133.709 1.52759 -5.27215 0
M  V30 1441 H 133.97 2.35221 -3.74331 0
M  V30 1442 N 133.029 1.57378 -0.0835403 0
M  V30 1443 C 133.939 2.16897 0.894021 0
M  V30 1444 C 134.955 1.13528 1.31861 0
M  V30 1445 O 136.131 1.45848 1.3889 0
M  V30 1446 C 133.196 2.72831 2.13925 0
M  V30 1447 C 132.257 3.91115 1.76997 0
M  V30 1448 C 131.49 4.44371 2.95584 0
M  V30 1449 O 131.713 3.96596 4.09961 0
M  V30 1450 O 130.647 5.35549 2.74719 0
M  V30 1451 H 134.473 3.00814 0.417679 0
M  V30 1452 H 132.058 1.48741 0.140181 0
M  V30 1453 H 133.94 3.0863 2.86924 0
M  V30 1454 H 132.615 1.91967 2.60635 0
M  V30 1455 H 131.522 3.60148 1.01214 0
M  V30 1456 H 132.855 4.73307 1.3506 0
M  V30 1457 N 134.507 -0.190092 1.56449 0
M  V30 1458 C 135.47 -1.21925 1.9408 0
M  V30 1459 C 136.47 -1.38176 0.822431 0
M  V30 1460 O 137.66 -1.35903 1.08977 0
M  V30 1461 C 134.792 -2.58773 2.21922 0
M  V30 1462 H 135.985 -0.897464 2.86157 0
M  V30 1463 H 133.538 -0.43181 1.50217 0
M  V30 1464 H 134.273 -2.95998 1.32499 0
M  V30 1465 H 134.058 -2.48348 3.03424 0
M  V30 1466 H 135.548 -3.32978 2.52022 0
M  V30 1467 N 135.985 -1.50799 -0.457987 0
M  V30 1468 C 137.231 -1.62683 -1.21088 0
M  V30 1469 C 137.564 -0.332268 -1.91336 0
M  V30 1470 O 136.839 0.667043 -1.82704 0
M  V30 1471 C 137.122 -2.81615 -2.24422 0
M  V30 1472 C 136.975 -4.20989 -1.58392 0
M  V30 1473 C 138.294 -2.96085 -3.2561 0
M  V30 1474 H 135.413 -0.592087 -0.438864 0
M  V30 1475 H 138.055 -1.83225 -0.50286 0
M  V30 1476 H 136.205 -2.64231 -2.84806 0
M  V30 1477 H 137.877 -4.49994 -1.01504 0
M  V30 1478 H 136.12 -4.24641 -0.886704 0
M  V30 1479 H 136.791 -5.0016 -2.33547 0
M  V30 1480 H 139.267 -3.12042 -2.75262 0
M  V30 1481 H 138.143 -3.80902 -3.95228 0
M  V30 1482 H 138.404 -2.0726 -3.90507 0
M  V30 1483 N 137.463 0.71206 -1.40597 0
M  V30 1484 C 138.393 1.83889 -1.43899 0
M  V30 1485 C 139.374 1.67442 -0.299504 0
M  V30 1486 O 140.559 1.87421 -0.508624 0
M  V30 1487 C 137.689 3.21877 -1.30431 0
M  V30 1488 C 136.643 3.53002 -2.42019 0
M  V30 1489 C 135.969 4.90172 -2.13626 0
M  V30 1490 C 137.269 3.53643 -3.84362 0
M  V30 1491 H 138.963 1.81383 -2.38203 0
M  V30 1492 H 136.509 0.871237 -1.14654 0
M  V30 1493 H 138.462 4.00404 -1.31357 0
M  V30 1494 H 137.186 3.24968 -0.326049 0
M  V30 1495 H 135.845 2.76818 -2.40349 0
M  V30 1496 H 135.493 4.89869 -1.14182 0
M  V30 1497 H 135.193 5.11962 -2.88389 0
M  V30 1498 H 136.717 5.71028 -2.1624 0
M  V30 1499 H 138.131 4.22203 -3.87837 0
M  V30 1500 H 136.528 3.86961 -4.58673 0
M  V30 1501 H 137.598 2.52954 -4.13693 0
M  V30 1502 N 138.941 1.26152 0.944643 0
M  V30 1503 C 140.189 1.11271 1.6871 0
M  V30 1504 C 140.51 -0.345166 1.91921 0
M  V30 1505 O 139.78 -1.24387 1.51343 0
M  V30 1506 H 138.36 0.408783 0.625224 0
M  V30 1507 H 141.022 1.58427 1.1352 0
M  V30 1508 H 140.118 1.62879 2.66227 0
M  V30 1509 N 140.419 -1.14872 1.07899 0
M  V30 1510 C 141.665 -1.86064 0.806725 0
M  V30 1511 C 141.998 -1.82434 -0.665706 0
M  V30 1512 O 141.273 -1.25138 -1.48899 0
M  V30 1513 C 141.556 -3.34929 1.32267 0
M  V30 1514 C 141.409 -3.47161 2.86006 0
M  V30 1515 C 142.728 -4.29863 0.943717 0
M  V30 1516 H 139.847 -0.675591 0.294526 0
M  V30 1517 H 142.489 -1.34925 1.33773 0
M  V30 1518 H 140.639 -3.78611 0.870974 0
M  V30 1519 H 142.311 -3.12302 3.39507 0
M  V30 1520 H 140.554 -2.88539 3.23925 0
M  V30 1521 H 141.225 -4.51777 3.17177 0
M  V30 1522 H 143.701 -3.9417 1.33302 0
M  V30 1523 H 142.577 -5.32494 1.33198 0
M  V30 1524 H 142.838 -4.41846 -0.149796 0
M  V30 1525 N 141.898 -0.863906 -1.31812 0
M  V30 1526 C 143.146 -0.470904 -1.96537 0
M  V30 1527 C 143.467 0.978771 -1.68657 0
M  V30 1528 O 142.737 1.6853 -0.998717 0
M  V30 1529 H 141.317 -0.171148 -0.72713 0
M  V30 1530 H 143.979 -1.10236 -1.60729 0
M  V30 1531 H 143.075 -0.623616 -3.05806 0
M  V30 1532 N 143.376 1.44774 -0.622745 0
M  V30 1533 C 144.624 2.01721 -0.123655 0
M  V30 1534 C 144.945 1.49172 1.25589 0
M  V30 1535 O 144.215 0.691974 1.83272 0
M  V30 1536 H 142.795 0.745777 -0.0427225 0
M  V30 1537 H 145.457 1.77382 -0.807559 0
M  V30 1538 H 144.553 3.11984 -0.0849534 0
M  V30 1539 N 144.854 0.36279 1.53368 0
M  V30 1540 C 146.102 -0.227326 2.00817 0
M  V30 1541 C 146.423 -1.49511 1.25186 0
M  V30 1542 O 145.693 -1.92482 0.364348 0
M  V30 1543 H 144.273 -0.0869923 0.741917 0
M  V30 1544 H 146.935 0.488381 1.88682 0
M  V30 1545 H 146.031 -0.456273 3.08747 0
M  V30 1546 N 146.332 -1.57332 0.0918853 0
M  V30 1547 C 147.557 -1.98995 -0.584442 0
M  V30 1548 C 147.982 -0.970528 -1.61128 0
M  V30 1549 O 147.34 0.0613904 -1.81196 0
M  V30 1550 C 147.388 -3.39636 -1.21161 0
M  V30 1551 O 146.492 -3.40447 -2.32744 0
M  V30 1552 H 145.833 -0.647165 -0.148572 0
M  V30 1553 H 148.363 -2.03873 0.172347 0
M  V30 1554 H 148.373 -3.7726 -1.55367 0
M  V30 1555 H 147.048 -4.13356 -0.459313 0
M  V30 1556 H 145.625 -3.14614 -2.0018 0
M  V30 1557 N 147.81 0.181792 -1.56548 0
M  V30 1558 C 149.056 0.901431 -1.81665 0
M  V30 1559 C 149.389 1.82347 -0.668075 0
M  V30 1560 O 148.664 1.91669 0.330615 0
M  V30 1561 C 148.947 1.70618 -3.17115 0
M  V30 1562 C 148.8 0.807964 -4.42484 0
M  V30 1563 C 150.119 2.67605 -3.49393 0
M  V30 1564 H 147.238 0.32627 -0.660846 0
M  V30 1565 H 149.88 0.168134 -1.89255 0
M  V30 1566 H 148.03 2.33133 -3.10775 0
M  V30 1567 H 149.702 0.19649 -4.60881 0
M  V30 1568 H 147.945 0.115411 -4.33646 0
M  V30 1569 H 148.616 1.40632 -5.33785 0
M  V30 1570 H 151.092 2.15218 -3.56118 0
M  V30 1571 H 149.968 3.20985 -4.45264 0
M  V30 1572 H 150.229 3.47298 -2.73563 0
M  V30 1573 N 149.288 1.51039 0.449983 0
M  V30 1574 C 150.534 1.63322 1.20223 0
M  V30 1575 C 150.867 0.34241 1.91158 0
M  V30 1576 O 150.142 -0.657344 1.83055 0
M  V30 1577 C 150.425 2.82801 2.22925 0
M  V30 1578 C 150.278 4.21823 1.56157 0
M  V30 1579 C 151.597 2.97807 3.24035 0
M  V30 1580 H 148.716 0.594407 0.435718 0
M  V30 1581 H 151.358 1.83489 0.493136 0
M  V30 1582 H 149.508 2.65738 2.834 0
M  V30 1583 H 151.18 4.50526 0.991162 0
M  V30 1584 H 149.423 4.25105 0.864172 0
M  V30 1585 H 150.094 5.01391 2.30891 0
M  V30 1586 H 152.57 3.13497 2.73603 0
M  V30 1587 H 151.446 3.82992 3.93202 0
M  V30 1588 H 151.707 2.09328 3.89402 0
M  V30 1589 N 150.766 -0.704594 1.40972 0
M  V30 1590 C 152.043 -1.45847 1.30338 0
M  V30 1591 C 152.423 -2.10973 -0.0732344 0
M  V30 1592 O 151.771 -2.00997 -1.08685 0
M  V30 1593 C 151.981 -2.48525 2.45023 0
M  V30 1594 C 153.329 -3.1404 2.8577 0
M  V30 1595 O 154.353 -2.58848 2.44696 0
M  V30 1596 O 153.212 -4.13981 3.56766 0
M  V30 1597 H 150.306 -0.649092 0.512454 0
M  V30 1598 H 152.852 -0.735836 1.52917 0
M  V30 1599 H 151.624 -1.98994 3.36923 0
M  V30 1600 H 151.247 -3.2831 2.24272 0
M  V30 1601 N 152.244 -1.26651 -0.937939 0
M  V30 1602 C 153.469 -1.15279 -1.72411 0
M  V30 1603 C 153.894 0.287866 -1.85884 0
M  V30 1604 O 153.252 1.20855 -1.35143 0
M  V30 1605 C 153.3 -1.83028 -3.10698 0
M  V30 1606 O 152.404 -1.12128 -3.96864 0
M  V30 1607 H 151.745 -0.401504 -0.528858 0
M  V30 1608 H 154.275 -1.67531 -1.1745 0
M  V30 1609 H 154.285 -1.89981 -3.6107 0
M  V30 1610 H 152.96 -2.87833 -3.00208 0
M  V30 1611 H 151.537 -1.13173 -3.55312 0
M  V30 1612 N 153.722 1.14298 -1.08507 0
M  V30 1613 C 154.685 2.17607 -0.719711 0
M  V30 1614 C 155.685 1.58907 0.245997 0
M  V30 1615 O 156.875 1.74181 0.0254081 0
M  V30 1616 C 154.007 3.40842 -0.0627695 0
M  V30 1617 H 155.2 2.51443 -1.63452 0
M  V30 1618 H 152.753 1.28963 -0.88307 0
M  V30 1619 H 153.488 3.12587 0.863716 0
M  V30 1620 H 153.273 3.84713 -0.757504 0
M  V30 1621 H 154.763 4.17221 0.177786 0
M  V30 1622 N 155.201 0.870884 1.31352 0
M  V30 1623 C 156.148 0.325425 2.28494 0
M  V30 1624 C 157.118 -0.576615 1.5577 0
M  V30 1625 O 158.303 -0.508059 1.83911 0
M  V30 1626 C 155.443 -0.466283 3.41935 0
M  V30 1627 C 154.556 0.463378 4.29508 0
M  V30 1628 C 153.691 -0.342544 5.30094 0
M  V30 1629 C 152.73 0.583486 6.09313 0
M  V30 1630 N 151.867 -0.186244 7.01853 0
M  V30 1631 H 156.707 1.15901 2.74538 0
M  V30 1632 H 154.244 0.58294 1.35056 0
M  V30 1633 H 156.202 -0.941085 4.06447 0
M  V30 1634 H 154.832 -1.26456 2.97 0
M  V30 1635 H 153.884 1.05663 3.65431 0
M  V30 1636 H 155.196 1.1734 4.84802 0
M  V30 1637 H 154.35 -0.879816 6.00287 0
M  V30 1638 H 153.089 -1.08585 4.75458 0
M  V30 1639 H 152.094 1.13251 5.3801 0
M  V30 1640 H 153.319 1.32566 6.66035 0
M  V30 1641 H 151.265 -0.912348 6.49625 0
M  V30 1642 H 151.182 0.464422 7.54572 0
M  V30 1643 H 152.45 -0.704716 7.76308 0
M  V30 1644 N 156.679 -1.44442 0.630414 0
M  V30 1645 C 157.642 -2.29107 -0.0652523 0
M  V30 1646 C 158.642 -1.41002 -0.772995 0
M  V30 1647 O 159.832 -1.62881 -0.617692 0
M  V30 1648 C 156.964 -3.22564 -1.10296 0
M  V30 1649 H 158.157 -2.92103 0.679401 0
M  V30 1650 H 155.71 -1.51343 0.390517 0
M  V30 1651 H 156.445 -2.64416 -1.87762 0
M  V30 1652 H 156.23 -3.87491 -0.59941 0
M  V30 1653 H 157.72 -3.86167 -1.5895 0
M  V30 1654 N 158.157 -0.370918 -1.53173 0
M  V30 1655 C 159.403 0.217423 -2.01631 0
M  V30 1656 C 159.736 1.47983 -1.25756 0
M  V30 1657 O 159.011 1.91274 -0.352764 0
M  V30 1658 C 159.294 0.503982 -3.56556 0
M  V30 1659 C 159.147 -0.77243 -4.43118 0
M  V30 1660 C 160.466 1.30234 -4.20389 0
M  V30 1661 H 157.585 0.0775486 -0.732909 0
M  V30 1662 H 160.227 -0.496863 -1.83388 0
M  V30 1663 H 158.377 1.11248 -3.72231 0
M  V30 1664 H 160.049 -1.4098 -4.39229 0
M  V30 1665 H 158.292 -1.39167 -4.10871 0
M  V30 1666 H 158.963 -0.526815 -5.4948 0
M  V30 1667 H 161.439 0.787546 -4.08579 0
M  V30 1668 H 160.315 1.47158 -5.28806 0
M  V30 1669 H 160.576 2.31237 -3.76805 0
M  V30 1670 N 159.635 1.57281 -0.100228 0
M  V30 1671 C 160.598 2.13158 0.842398 0
M  V30 1672 C 161.598 1.06202 1.20738 0
M  V30 1673 O 162.788 1.32066 1.13597 0
M  V30 1674 C 159.92 2.65639 2.13655 0
M  V30 1675 H 161.113 2.97766 0.357114 0
M  V30 1676 H 158.666 1.5559 0.148823 0
M  V30 1677 H 159.401 1.84566 2.66657 0
M  V30 1678 H 159.186 3.43844 1.88451 0
M  V30 1679 H 160.676 3.08846 2.81077 0
M  V30 1680 N 161.113 -0.173488 1.56642 0
M  V30 1681 C 162.076 -1.19859 1.95362 0
M  V30 1682 C 163.076 -1.37296 0.83704 0
M  V30 1683 O 164.266 -1.34739 1.10413 0
M  V30 1684 C 161.398 -2.56405 2.24654 0
M  V30 1685 H 162.591 -0.867062 2.87092 0
M  V30 1686 H 160.144 -0.415853 1.50666 0
M  V30 1687 H 160.879 -2.94576 1.35631 0
M  V30 1688 H 160.664 -2.45115 3.06041 0
M  V30 1689 H 162.154 -3.30287 2.5554 0
M  V30 1690 N 162.591 -1.51276 -0.441967 0
M  V30 1691 C 163.839 -1.63392 -1.18943 0
M  V30 1692 C 164.16 -0.350159 -1.9183 0
M  V30 1693 O 163.43 0.633784 -1.85364 0
M  V30 1694 H 162.01 -0.602164 -0.442049 0
M  V30 1695 H 164.672 -1.88186 -0.507165 0
M  V30 1696 H 163.768 -2.45934 -1.92154 0
M  V30 1697 N 164.069 0.697108 -1.41344 0
M  V30 1698 C 165.032 1.79281 -1.42797 0
M  V30 1699 C 166.032 1.57607 -0.318837 0
M  V30 1700 O 167.222 1.64309 -0.578642 0
M  V30 1701 C 164.354 3.17632 -1.23785 0
M  V30 1702 H 165.547 1.79385 -2.40335 0
M  V30 1703 H 163.1 0.904582 -1.27464 0
M  V30 1704 H 163.835 3.23167 -0.270814 0
M  V30 1705 H 163.62 3.34765 -2.04144 0
M  V30 1706 H 165.11 3.97617 -1.27633 0
M  V30 1707 N 165.547 1.27147 0.931209 0
M  V30 1708 C 166.477 1.12081 2.04842 0
M  V30 1709 C 167.458 0.0232364 1.70084 0
M  V30 1710 O 168.643 0.197085 1.93197 0
M  V30 1711 C 165.773 0.76354 3.38803 0
M  V30 1712 C 164.727 1.81396 3.87659 0
M  V30 1713 C 164.053 1.31075 5.18385 0
M  V30 1714 C 165.353 3.21739 4.11438 0
M  V30 1715 H 167.047 2.05537 2.17703 0
M  V30 1716 H 164.593 0.989603 1.04608 0
M  V30 1717 H 166.546 0.644982 4.16435 0
M  V30 1718 H 165.27 -0.206727 3.25945 0
M  V30 1719 H 163.929 1.92136 3.12217 0
M  V30 1720 H 163.577 0.330037 5.01916 0
M  V30 1721 H 163.277 2.013 5.52044 0
M  V30 1722 H 164.801 1.20506 5.98591 0
M  V30 1723 H 166.215 3.14019 4.79651 0
M  V30 1724 H 164.612 3.89644 4.56397 0
M  V30 1725 H 165.682 3.67054 3.16859 0
M  V30 1726 N 167.025 -1.13721 1.09112 0
M  V30 1727 C 168.255 -1.88499 0.845671 0
M  V30 1728 C 168.663 -1.79218 -0.606432 0
M  V30 1729 O 168.006 -1.1544 -1.42896 0
M  V30 1730 C 168.068 -3.38954 1.19793 0
M  V30 1731 C 167.732 -3.72018 2.65428 0
M  V30 1732 C 168.729 -3.7153 3.63677 0
M  V30 1733 C 166.414 -4.01775 3.01467 0
M  V30 1734 C 168.408 -4.00336 4.95994 0
M  V30 1735 C 166.095 -4.30243 4.33975 0
M  V30 1736 C 167.093 -4.29508 5.31048 0
M  V30 1737 O 166.781 -4.5728 6.61173 0
M  V30 1738 H 166.513 -0.603702 0.304171 0
M  V30 1739 H 169.067 -1.44903 1.45576 0
M  V30 1740 H 167.297 -3.83039 0.530871 0
M  V30 1741 H 168.986 -3.95052 0.932146 0
M  V30 1742 H 169.752 -3.4862 3.37179 0
M  V30 1743 H 165.631 -4.01496 2.26544 0
M  V30 1744 H 169.175 -3.99678 5.71755 0
M  V30 1745 H 165.072 -4.52625 4.60219 0
M  V30 1746 H 165.84 -4.74964 6.66597 0
M  V30 1747 N 168.503 -0.877838 -1.30888 0
M  V30 1748 C 169.413 -0.343096 -2.32078 0
M  V30 1749 C 170.429 0.551022 -1.65045 0
M  V30 1750 O 171.605 0.445854 -1.96403 0
M  V30 1751 C 168.67 0.439905 -3.43898 0
M  V30 1752 C 167.731 -0.483111 -4.26573 0
M  V30 1753 C 166.964 0.262616 -5.33053 0
M  V30 1754 O 167.187 1.48967 -5.50604 0
M  V30 1755 O 166.121 -0.383593 -6.00676 0
M  V30 1756 H 169.947 -1.18203 -2.79753 0
M  V30 1757 H 167.532 -0.64145 -1.34929 0
M  V30 1758 H 169.414 0.883504 -4.12034 0
M  V30 1759 H 168.089 1.25526 -2.98371 0
M  V30 1760 H 166.996 -0.975374 -3.61161 0
M  V30 1761 H 168.329 -1.26427 -4.75686 0
M  V30 1762 N 169.982 1.44106 -0.638065 0
M  V30 1763 C 171.23 2.01579 -0.145043 0
M  V30 1764 C 171.551 1.50496 1.24 0
M  V30 1765 O 170.821 0.711374 1.82527 0
M  V30 1766 H 169.401 0.745282 -0.05063 0
M  V30 1767 H 172.063 1.76516 -0.826327 0
M  V30 1768 H 171.159 3.11877 -0.118039 0
M  V30 1769 N 171.46 0.379036 1.52974 0
M  V30 1770 C 172.737 -0.263479 1.93817 0
M  V30 1771 C 173.117 -1.65244 1.31368 0
M  V30 1772 O 172.465 -2.23448 0.477856 0
M  V30 1773 C 172.675 -0.300166 3.47707 0
M  V30 1774 C 174.023 -0.534061 4.21228 0
M  V30 1775 O 175.047 -0.38081 3.54159 0
M  V30 1776 O 173.906 -0.833501 5.40106 0
M  V30 1777 H 171 -0.161149 0.811147 0
M  V30 1778 H 173.546 0.432798 1.64088 0
M  V30 1779 H 172.318 0.673138 3.85467 0
M  V30 1780 H 171.941 -1.04179 3.83709 0
M  V30 1781 N 172.938 -1.57226 0.108567 0
M  V30 1782 C 174.187 -1.94008 -0.551703 0
M  V30 1783 C 174.5 -0.993442 -1.68494 0
M  V30 1784 O 175.706 -1.25551 -2.40726 0
M  V30 1785 C 174.162 -3.44763 -1.03279 0
M  V30 1786 C 173.77 -4.47943 0.0714193 0
M  V30 1787 C 175.514 -3.90483 -1.66503 0
M  V30 1788 C 173.421 -5.89865 -0.425779 0
M  V30 1789 H 172.351 -0.724206 -0.209863 0
M  V30 1790 H 175.002 -1.82547 0.186741 0
M  V30 1791 H 173.384 -3.51422 -1.82533 0
M  V30 1792 H 174.558 -4.52942 0.847365 0
M  V30 1793 H 172.873 -4.11913 0.609669 0
M  V30 1794 H 175.47 -4.93925 -2.04798 0
M  V30 1795 H 175.813 -3.29877 -2.53942 0
M  V30 1796 H 176.346 -3.86581 -0.938074 0
M  V30 1797 H 173.085 -6.54202 0.412316 0
M  V30 1798 H 172.605 -5.88309 -1.16843 0
M  V30 1799 H 174.284 -6.40844 -0.890397 0
M  V30 1800 N 174.416 0.165178 -1.56732 0
M  V30 1801 C 175.662 0.877389 -1.83503 0
M  V30 1802 C 176.017 1.79602 -0.689996 0
M  V30 1803 O 175.31 1.89023 0.313205 0
M  V30 1804 C 175.504 1.70405 -3.1416 0
M  V30 1805 C 175.333 0.866961 -4.41264 0
M  V30 1806 C 174.103 0.539646 -5.0241 0
M  V30 1807 C 176.301 0.205671 -5.13889 0
M  V30 1808 N 174.283 -0.312946 -6.13102 0
M  V30 1809 C 175.654 -0.507823 -6.17917 0
M  V30 1810 C 177.709 0.124468 -4.97744 0
M  V30 1811 C 176.412 -1.29483 -7.0755 0
M  V30 1812 C 178.438 -0.649222 -5.87826 0
M  V30 1813 C 177.8 -1.35106 -6.91322 0
M  V30 1814 H 173.899 0.299477 -0.722383 0
M  V30 1815 H 176.483 0.143949 -1.94167 0
M  V30 1816 H 174.654 2.40887 -3.04677 0
M  V30 1817 H 176.386 2.35804 -3.28905 0
M  V30 1818 H 173.141 0.871176 -4.65519 0
M  V30 1819 H 173.565 -0.729731 -6.73056 0
M  V30 1820 H 178.207 0.652724 -4.17731 0
M  V30 1821 H 175.925 -1.83441 -7.87004 0
M  V30 1822 H 179.511 -0.713804 -5.77405 0
M  V30 1823 H 178.391 -1.94013 -7.59821 0
M  V30 1824 N 175.894 1.51508 0.433938 0
M  V30 1825 C 177.171 1.54888 1.19453 0
M  V30 1826 C 177.551 0.315154 2.08734 0
M  V30 1827 O 176.899 -0.699558 2.17528 0
M  V30 1828 C 177.109 2.86467 1.99342 0
M  V30 1829 C 178.457 3.38545 2.56267 0
M  V30 1830 O 179.481 2.88041 2.0955 0
M  V30 1831 O 178.34 4.26675 3.41483 0
M  V30 1832 H 175.434 0.622863 0.544032 0
M  V30 1833 H 177.98 1.63823 0.442732 0
M  V30 1834 H 176.752 3.67718 1.33788 0
M  V30 1835 H 176.375 2.8071 2.8158 0
M  V30 1836 N 177.372 -0.689602 1.41712 0
M  V30 1837 C 178.335 -1.78521 1.43746 0
M  V30 1838 C 179.335 -1.57436 0.327191 0
M  V30 1839 O 180.525 -1.64 0.587348 0
M  V30 1840 C 177.657 -3.16971 1.25467 0
M  V30 1841 H 178.85 -1.78108 2.41283 0
M  V30 1842 H 176.403 -0.89781 1.27942 0
M  V30 1843 H 177.138 -3.23019 0.287948 0
M  V30 1844 H 176.923 -3.33678 2.05917 0
M  V30 1845 H 178.413 -3.96935 1.2974 0
M  V30 1846 N 178.85 -1.27639 -0.924453 0
M  V30 1847 C 180.097 -1.14167 -1.67249 0
M  V30 1848 C 180.425 0.311863 -1.91984 0
M  V30 1849 O 179.68 1.24425 -1.51053 0
M  V30 1850 C 179.979 -1.87407 -3.04325 0
M  V30 1851 C 179.645 -3.37249 -2.99289 0
M  V30 1852 C 178.307 -3.7812 -2.97622 0
M  V30 1853 C 180.659 -4.32845 -2.90336 0
M  V30 1854 C 177.987 -5.12944 -2.8479 0
M  V30 1855 C 180.339 -5.6773 -2.79045 0
M  V30 1856 C 179.003 -6.07889 -2.7573 0
M  V30 1857 H 178.273 -0.417766 -0.612007 0
M  V30 1858 H 180.92 -1.58286 -1.07786 0
M  V30 1859 H 179.225 -1.35805 -3.67511 0
M  V30 1860 H 180.922 -1.74408 -3.61086 0
M  V30 1861 H 177.512 -3.04748 -3.01374 0
M  V30 1862 H 181.696 -4.02239 -2.90719 0
M  V30 1863 H 176.952 -5.432 -2.80612 0
M  V30 1864 H 181.126 -6.41472 -2.71083 0
M  V30 1865 H 178.753 -7.12314 -2.65544 0
M  V30 1866 N 180.328 1.1314 -1.09713 0
M  V30 1867 C 181.577 1.83838 -0.829851 0
M  V30 1868 C 181.89 1.84599 0.646728 0
M  V30 1869 O 183.096 2.51218 1.02965 0
M  V30 1870 C 181.552 3.30069 -1.43466 0
M  V30 1871 C 181.16 3.37688 -2.94399 0
M  V30 1872 C 182.904 4.05788 -1.24645 0
M  V30 1873 C 180.811 4.78209 -3.47952 0
M  V30 1874 H 179.741 0.68877 -0.306777 0
M  V30 1875 H 182.392 1.27448 -1.3202 0
M  V30 1876 H 180.774 3.8628 -0.871996 0
M  V30 1877 H 181.948 2.91456 -3.56918 0
M  V30 1878 H 180.263 2.75436 -3.12289 0
M  V30 1879 H 182.86 5.09535 -1.62107 0
M  V30 1880 H 183.203 4.15878 -0.187357 0
M  V30 1881 H 183.736 3.55915 -1.77678 0
M  V30 1882 H 180.475 4.73311 -4.53495 0
M  V30 1883 H 179.995 5.24924 -2.90198 0
M  V30 1884 H 181.674 5.47133 -3.45332 0
M  V30 1885 N 181.806 0.884767 1.30421 0
M  V30 1886 C 183.054 0.502112 1.95763 0
M  V30 1887 C 183.375 -0.951815 1.70192 0
M  V30 1888 O 182.645 -1.6692 1.0254 0
M  V30 1889 H 181.225 0.182694 0.724315 0
M  V30 1890 H 183.887 1.1278 1.58955 0
M  V30 1891 H 182.983 0.672188 3.04775 0
M  V30 1892 N 183.284 -1.43765 0.645699 0
M  V30 1893 C 184.231 -2.30745 -0.0504648 0
M  V30 1894 C 185.201 -1.4432 -0.822241 0
M  V30 1895 O 186.386 -1.73202 -0.800358 0
M  V30 1896 C 183.526 -3.29802 -1.0161 0
M  V30 1897 C 182.639 -4.31326 -0.241219 0
M  V30 1898 C 181.774 -5.17469 -1.19998 0
M  V30 1899 C 180.813 -6.10691 -0.415094 0
M  V30 1900 N 179.95 -6.89483 -1.32506 0
M  V30 1901 H 184.79 -2.8973 0.697155 0
M  V30 1902 H 182.327 -1.42738 0.355563 0
M  V30 1903 H 184.285 -3.85734 -1.58949 0
M  V30 1904 H 182.915 -2.72483 -1.73069 0
M  V30 1905 H 181.967 -3.77749 0.448334 0
M  V30 1906 H 183.279 -4.9743 0.369437 0
M  V30 1907 H 182.433 -5.7799 -1.84424 0
M  V30 1908 H 181.172 -4.51473 -1.84455 0
M  V30 1909 H 180.177 -5.49265 0.242565 0
M  V30 1910 H 181.402 -6.78727 0.224966 0
M  V30 1911 H 179.348 -6.26142 -1.95657 0
M  V30 1912 H 179.265 -7.52081 -0.768783 0
M  V30 1913 H 180.533 -7.54516 -1.9577 0
M  V30 1914 N 184.763 -0.387143 -1.52771 0
M  V30 1915 C 185.993 0.195585 -2.05672 0
M  V30 1916 C 186.401 1.41241 -1.25887 0
M  V30 1917 O 185.744 1.81265 -0.298081 0
M  V30 1918 C 185.806 0.632327 -3.53895 0
M  V30 1919 C 185.47 -0.470739 -4.54569 0
M  V30 1920 C 186.467 -1.32746 -5.02667 0
M  V30 1921 C 184.152 -0.637151 -4.98243 0
M  V30 1922 C 186.146 -2.33574 -5.93061 0
M  V30 1923 C 183.833 -1.64877 -5.88438 0
M  V30 1924 C 184.831 -2.49649 -6.35739 0
M  V30 1925 O 184.519 -3.49082 -7.24153 0
M  V30 1926 H 184.251 0.033658 -0.675162 0
M  V30 1927 H 186.805 -0.550221 -1.97893 0
M  V30 1928 H 185.035 1.43008 -3.59285 0
M  V30 1929 H 186.724 1.14048 -3.89548 0
M  V30 1930 H 187.49 -1.21019 -4.69659 0
M  V30 1931 H 183.369 0.0129567 -4.60998 0
M  V30 1932 H 186.913 -2.99777 -6.29904 0
M  V30 1933 H 182.81 -1.76643 -6.2086 0
M  V30 1934 H 183.578 -3.45065 -7.42208 0
M  V30 1935 N 186.241 1.57166 -0.116904 0
M  V30 1936 C 187.173 2.12271 0.864507 0
M  V30 1937 C 188.186 1.06494 1.23138 0
M  V30 1938 O 189.375 1.33873 1.18069 0
M  V30 1939 C 186.475 2.60564 2.16702 0
M  V30 1940 C 185.648 3.90416 1.97216 0
M  V30 1941 C 184.707 4.24329 3.11178 0
M  V30 1942 O 183.733 4.93182 2.84184 0
M  V30 1943 N 184.935 3.8148 4.37554 0
M  V30 1944 H 187.7 2.97102 0.393726 0
M  V30 1945 H 185.261 1.61759 0.0675805 0
M  V30 1946 H 187.253 2.80282 2.91932 0
M  V30 1947 H 185.823 1.80623 2.55135 0
M  V30 1948 H 185.043 3.79627 1.06192 0
M  V30 1949 H 186.331 4.75327 1.81499 0
M  V30 1950 H 185.729 3.25943 4.62361 0
M  V30 1951 H 184.286 4.06311 5.09661 0
M  V30 1952 N 187.719 -0.156864 1.56817 0
M  V30 1953 C 188.968 -0.869504 1.81996 0
M  V30 1954 C 189.281 -1.82777 0.696545 0
M  V30 1955 O 190.487 -2.58384 0.833658 0
M  V30 1956 C 188.943 -1.59679 3.22538 0
M  V30 1957 C 188.551 -0.681431 4.42787 0
M  V30 1958 C 190.295 -2.2968 3.56997 0
M  V30 1959 C 188.202 -1.40978 5.74351 0
M  V30 1960 H 187.132 -0.328438 0.678708 0
M  V30 1961 H 189.783 -0.1223 1.83092 0
M  V30 1962 H 188.165 -2.38927 3.158 0
M  V30 1963 H 189.339 0.0751166 4.60739 0
M  V30 1964 H 187.654 -0.0903431 4.16302 0
M  V30 1965 H 190.251 -2.84794 4.52544 0
M  V30 1966 H 190.594 -3.05707 2.82576 0
M  V30 1967 H 191.127 -1.57361 3.65352 0
M  V30 1968 H 187.866 -0.691561 6.51842 0
M  V30 1969 H 187.386 -2.13929 5.60352 0
M  V30 1970 H 189.065 -1.95337 6.16808 0
M  V30 1971 N 189.197 -1.51736 -0.425897 0
M  V30 1972 C 190.107 -1.76738 -1.54275 0
M  V30 1973 C 191.123 -0.65211 -1.61318 0
M  V30 1974 O 192.299 -0.935654 -1.78346 0
M  V30 1975 C 189.364 -1.89755 -2.90162 0
M  V30 1976 C 188.425 -3.13633 -2.93143 0
M  V30 1977 C 187.658 -3.2602 -4.22548 0
M  V30 1978 O 187.881 -2.44067 -5.15546 0
M  V30 1979 O 186.815 -4.19071 -4.32046 0
M  V30 1980 H 190.641 -2.71502 -1.36089 0
M  V30 1981 H 188.226 -1.36376 -0.610069 0
M  V30 1982 H 190.108 -2.00236 -3.70788 0
M  V30 1983 H 188.783 -0.981785 -3.08452 0
M  V30 1984 H 187.69 -3.08622 -2.11431 0
M  V30 1985 H 189.023 -4.04936 -2.798 0
M  V30 1986 N 190.675 0.682077 -1.42076 0
M  V30 1987 C 191.622 1.79578 -1.44984 0
M  V30 1988 C 192.592 1.6332 -0.302614 0
M  V30 1989 O 193.777 1.83978 -0.505633 0
M  V30 1990 C 190.917 3.1756 -1.35091 0
M  V30 1991 C 190.03 3.45156 -2.59791 0
M  V30 1992 C 189.165 4.72826 -2.42093 0
M  V30 1993 C 188.204 4.93433 -3.62202 0
M  V30 1994 N 187.341 6.12338 -3.43491 0
M  V30 1995 H 192.181 1.76427 -2.40161 0
M  V30 1996 H 189.718 0.861376 -1.19242 0
M  V30 1997 H 191.676 3.97287 -1.27354 0
M  V30 1998 H 190.306 3.19854 -0.435133 0
M  V30 1999 H 189.358 2.59736 -2.77923 0
M  V30 2000 H 190.67 3.5628 -3.49094 0
M  V30 2001 H 189.824 5.60631 -2.319 0
M  V30 2002 H 188.563 4.63973 -1.50268 0
M  V30 2003 H 187.568 4.04073 -3.72834 0
M  V30 2004 H 188.793 5.04136 -4.54998 0
M  V30 2005 H 186.739 6.04672 -2.54377 0
M  V30 2006 H 186.656 6.2429 -4.26377 0
M  V30 2007 H 187.924 7.02841 -3.37097 0
M  V30 2008 N 192.153 1.28127 0.917671 0
M  V30 2009 C 193.116 1.11744 2.00115 0
M  V30 2010 C 194.116 0.0583052 1.60694 0
M  V30 2011 O 195.306 0.303755 1.71531 0
M  V30 2012 C 192.438 0.704862 3.33533 0
M  V30 2013 H 193.631 2.07966 2.16079 0
M  V30 2014 H 191.184 1.11058 1.09981 0
M  V30 2015 H 191.919 -0.258299 3.2327 0
M  V30 2016 H 191.704 1.4699 3.63505 0
M  V30 2017 H 193.194 0.612768 4.1308 0
M  V30 2018 N 193.631 -1.12557 1.10312 0
M  V30 2019 C 194.561 -2.20341 0.772798 0
M  V30 2020 C 195.542 -1.68198 -0.25365 0
M  V30 2021 O 196.727 -1.93831 -0.119699 0
M  V30 2022 C 193.857 -3.46709 0.202443 0
M  V30 2023 C 192.811 -4.11996 1.15943 0
M  V30 2024 C 192.137 -5.328 0.450345 0
M  V30 2025 C 193.437 -4.5828 2.50552 0
M  V30 2026 H 195.131 -2.48229 1.674 0
M  V30 2027 H 192.677 -1.19308 0.806326 0
M  V30 2028 H 194.63 -4.2138 -0.0407752 0
M  V30 2029 H 193.354 -3.18245 -0.734001 0
M  V30 2030 H 192.013 -3.39305 1.38808 0
M  V30 2031 H 191.661 -5.00602 -0.490531 0
M  V30 2032 H 191.361 -5.7743 1.08851 0
M  V30 2033 H 192.885 -6.10219 0.215642 0
M  V30 2034 H 194.299 -5.2433 2.31843 0
M  V30 2035 H 192.696 -5.13683 3.10242 0
M  V30 2036 H 193.766 -3.72329 3.10643 0
M  V30 2037 N 195.109 -0.891671 -1.2995 0
M  V30 2038 C 196.52 -0.563104 -1.78006 0
M  V30 2039 C 196.871 0.920978 -1.73241 0
M  V30 2040 O 195.996 1.71987 -1.31337 0
M  V30 2041 C 196.591 -1.01539 -3.23226 0
M  V30 2042 C 195.15 -0.738124 -3.69092 0
M  V30 2043 C 194.297 -1.19461 -2.50249 0
M  V30 2044 H 197.248 -1.07522 -1.16725 0
M  V30 2045 H 197.269 -0.347217 -3.78912 0
M  V30 2046 H 196.781 -2.09555 -3.26662 0
M  V30 2047 H 194.882 0.329766 -3.71138 0
M  V30 2048 H 194.995 -1.33037 -4.60259 0
M  V30 2049 H 193.359 -0.613787 -2.47194 0
M  V30 2050 H 194.142 -2.28265 -2.56417 0
M  V30 2051 N 196.587 1.43421 -0.653314 0
M  V30 2052 C 197.836 2.01032 -0.164076 0
M  V30 2053 C 198.149 1.52147 1.22926 0
M  V30 2054 O 199.355 2.02031 1.81371 0
M  V30 2055 C 197.811 3.59082 -0.24252 0
M  V30 2056 C 197.419 4.1696 -1.63855 0
M  V30 2057 C 199.163 4.24079 0.18911 0
M  V30 2058 C 197.07 5.67304 -1.67092 0
M  V30 2059 H 196 0.751798 -0.0575769 0
M  V30 2060 H 198.651 1.6439 -0.815362 0
M  V30 2061 H 197.033 3.93125 0.476276 0
M  V30 2062 H 198.207 3.94416 -2.38271 0
M  V30 2063 H 196.522 3.64335 -2.01616 0
M  V30 2064 H 199.119 5.34381 0.184775 0
M  V30 2065 H 199.462 3.98005 1.22056 0
M  V30 2066 H 199.995 3.94918 -0.477938 0
M  V30 2067 H 196.734 5.98145 -2.68146 0
M  V30 2068 H 196.254 5.91904 -0.970014 0
M  V30 2069 H 197.933 6.31344 -1.4147 0
M  V30 2070 N 198.065 0.39524 1.52563 0
M  V30 2071 C 199.312 -0.185044 2.01653 0
M  V30 2072 C 199.64 -1.46317 1.28146 0
M  V30 2073 O 198.895 -1.9213 0.372074 0
M  V30 2074 C 199.194 -0.493444 3.53977 0
M  V30 2075 C 198.86 0.69384 4.4553 0
M  V30 2076 C 197.522 1.01954 4.70275 0
M  V30 2077 C 199.874 1.48785 4.99512 0
M  V30 2078 C 197.202 2.14069 5.46252 0
M  V30 2079 C 199.554 2.59965 5.76716 0
M  V30 2080 C 198.218 2.93037 5.99738 0
M  V30 2081 H 197.488 -0.0677123 0.7379 0
M  V30 2082 H 200.135 0.533807 1.8391 0
M  V30 2083 H 198.44 -1.29369 3.69825 0
M  V30 2084 H 200.137 -0.955163 3.89458 0
M  V30 2085 H 196.727 0.429987 4.26438 0
M  V30 2086 H 200.911 1.24946 4.80315 0
M  V30 2087 H 196.167 2.40056 5.62302 0
M  V30 2088 H 200.341 3.21887 6.17545 0
M  V30 2089 H 197.968 3.8003 6.58393 0
M  V30 2090 N 199.544 -1.57102 0.125237 0
M  V30 2091 C 200.821 -1.86953 -0.575142 0
M  V30 2092 C 201.201 -1.02749 -1.84407 0
M  V30 2093 O 200.549 -0.108144 -2.28244 0
M  V30 2094 C 200.759 -3.38198 -0.861583 0
M  V30 2095 C 202.107 -4.06937 -1.21192 0
M  V30 2096 O 203.131 -3.43252 -0.951645 0
M  V30 2097 O 201.99 -5.19364 -1.70068 0
M  V30 2098 H 199.084 -0.774147 -0.290906 0
M  V30 2099 H 201.63 -1.68942 0.160211 0
M  V30 2100 H 200.402 -3.91282 0.0373647 0
M  V30 2101 H 200.025 -3.61661 -1.65188 0
M  V30 2102 N 201.022 0.148545 -1.56898 0
M  V30 2103 C 202.268 0.862694 -1.83536 0
M  V30 2104 C 202.601 1.80889 -0.706604 0
M  V30 2105 O 201.876 1.92328 0.289885 0
M  V30 2106 C 202.159 1.63853 -3.20662 0
M  V30 2107 C 202.012 0.713925 -4.44098 0
M  V30 2108 C 203.331 2.60133 -3.54991 0
M  V30 2109 H 200.45 0.312179 -0.667618 0
M  V30 2110 H 203.092 0.127953 -1.89569 0
M  V30 2111 H 201.242 2.26489 -3.1565 0
M  V30 2112 H 202.914 0.098686 -4.61194 0
M  V30 2113 H 201.157 0.0234019 -4.33794 0
M  V30 2114 H 201.828 1.29278 -5.36648 0
M  V30 2115 H 204.304 2.07616 -3.60603 0
M  V30 2116 H 203.18 3.11468 -4.51972 0
M  V30 2117 H 203.441 3.41417 -2.80868 0
M  V30 2118 N 202.5 1.5196 0.417844 0
M  V30 2119 C 203.43 1.77634 1.51554 0
M  V30 2120 C 204.411 0.626918 1.58126 0
M  V30 2121 O 205.596 0.871632 1.7354 0
M  V30 2122 C 202.726 1.91911 2.8946 0
M  V30 2123 C 201.68 3.07463 2.97743 0
M  V30 2124 C 201.006 3.06951 4.37819 0
M  V30 2125 C 202.306 4.47082 2.70027 0
M  V30 2126 H 204 2.6955 1.3032 0
M  V30 2127 H 201.546 1.29706 0.625492 0
M  V30 2128 H 203.499 2.08455 3.6623 0
M  V30 2129 H 202.223 0.966598 3.11969 0
M  V30 2130 H 200.882 2.90656 2.23416 0
M  V30 2131 H 200.53 2.09438 4.57323 0
M  V30 2132 H 200.23 3.84556 4.44286 0
M  V30 2133 H 201.754 3.25613 5.16535 0
M  V30 2134 H 203.168 4.6414 3.36522 0
M  V30 2135 H 201.565 5.2654 2.87881 0
M  V30 2136 H 202.635 4.55777 1.65514 0
M  V30 2137 N 203.978 -0.674533 1.42435 0
M  V30 2138 C 205.206 -1.46283 1.46317 0
M  V30 2139 C 205.621 -1.88653 0.0745836 0
M  V30 2140 O 204.978 -1.58151 -0.91074 0
M  V30 2141 C 205.029 -2.71178 2.3905 0
M  V30 2142 O 204.75 -2.30586 3.72507 0
M  V30 2143 C 206.251 -3.64738 2.51955 0
M  V30 2144 H 203.471 -0.450104 0.497642 0
M  V30 2145 H 206.015 -0.828792 1.86953 0
M  V30 2146 H 204.17 -3.3077 2.01667 0
M  V30 2147 H 204.584 -3.11241 4.22172 0
M  V30 2148 H 206.058 -4.49096 3.20962 0
M  V30 2149 H 206.535 -4.10656 1.55752 0
M  V30 2150 H 207.141 -3.11038 2.90061 0
M  V30 2151 N 205.456 -1.28612 -0.910864 0
M  V30 2152 C 206.705 -1.15311 -1.65488 0
M  V30 2153 C 207.018 0.296999 -1.93332 0
M  V30 2154 O 208.224 0.551168 -2.65847 0
M  V30 2155 C 206.68 -2.01599 -2.98137 0
M  V30 2156 C 206.288 -3.51367 -2.7793 0
M  V30 2157 C 208.032 -1.96993 -3.76024 0
M  V30 2158 C 205.939 -4.29797 -4.06237 0
M  V30 2159 H 204.869 -0.42796 -0.620779 0
M  V30 2160 H 207.52 -1.53166 -1.01057 0
M  V30 2161 H 205.902 -1.56603 -3.63719 0
M  V30 2162 H 207.076 -4.0434 -2.21011 0
M  V30 2163 H 205.391 -3.57529 -2.13452 0
M  V30 2164 H 207.988 -2.52856 -4.71135 0
M  V30 2165 H 208.331 -0.94733 -4.05378 0
M  V30 2166 H 208.864 -2.39973 -3.17266 0
M  V30 2167 H 205.603 -5.32648 -3.82055 0
M  V30 2168 H 205.123 -3.81596 -4.62757 0
M  V30 2169 H 206.802 -4.39869 -4.74473 0
M  V30 2170 N 206.934 1.1197 -1.10907 0
M  V30 2171 C 208.159 1.87942 -0.877064 0
M  V30 2172 C 208.584 1.79341 0.567314 0
M  V30 2173 O 207.942 1.15184 1.40009 0
M  V30 2174 C 207.99 3.34926 -1.33629 0
M  V30 2175 O 207.094 4.09303 -0.504447 0
M  V30 2176 H 206.435 0.583785 -0.316371 0
M  V30 2177 H 208.965 1.4157 -1.47712 0
M  V30 2178 H 208.975 3.8577 -1.32837 0
M  V30 2179 H 207.65 3.40504 -2.3881 0
M  V30 2180 H 206.227 3.68393 -0.577993 0
M  V30 2181 N 208.412 0.89855 1.29475 0
M  V30 2182 C 209.375 0.380272 2.26023 0
M  V30 2183 C 210.375 -0.484891 1.53315 0
M  V30 2184 O 211.565 -0.290108 1.71767 0
M  V30 2185 C 208.697 -0.45651 3.3783 0
M  V30 2186 H 209.89 1.23295 2.73383 0
M  V30 2187 H 207.443 0.676589 1.40897 0
M  V30 2188 H 208.178 -1.32922 2.95808 0
M  V30 2189 H 207.963 0.163393 3.91759 0
M  V30 2190 H 209.453 -0.810466 4.0966 0
M  V30 2191 N 209.89 -1.43072 0.660911 0
M  V30 2192 C 211.118 -2.06067 0.185422 0
M  V30 2193 C 211.533 -1.49582 -1.15198 0
M  V30 2194 O 210.89 -0.630134 -1.71276 0
M  V30 2195 C 210.941 -3.61371 0.0966523 0
M  V30 2196 O 210.662 -4.15758 1.38119 0
M  V30 2197 C 212.163 -4.41455 -0.403996 0
M  V30 2198 H 209.383 -0.664459 0.0934604 0
M  V30 2199 H 211.927 -1.83447 0.90373 0
M  V30 2200 H 210.082 -3.8315 -0.572259 0
M  V30 2201 H 210.496 -5.09499 1.24542 0
M  V30 2202 H 211.97 -5.50437 -0.415045 0
M  V30 2203 H 212.447 -4.15036 -1.43674 0
M  V30 2204 H 213.053 -4.24663 0.232691 0
M  V30 2205 N 211.368 -0.403325 -1.52352 0
M  V30 2206 C 212.616 0.174003 -2.0135 0
M  V30 2207 C 212.937 1.46139 -1.29106 0
M  V30 2208 O 212.207 1.91448 -0.415253 0
M  V30 2209 H 210.787 0.0672911 -0.743963 0
M  V30 2210 H 213.449 -0.538235 -1.87321 0
M  V30 2211 H 212.545 0.374254 -3.09848 0
M  V30 2212 N 212.846 1.57033 -0.133567 0
M  V30 2213 C 214.074 2.00044 0.528195 0
M  V30 2214 C 214.489 1.01349 1.59291 0
M  V30 2215 O 213.846 0.00848369 1.82498 0
M  V30 2216 C 213.897 3.43018 1.1411 0
M  V30 2217 O 213.618 4.37939 0.11892 0
M  V30 2218 C 215.119 4.01237 1.88477 0
M  V30 2219 H 212.339 0.656517 0.138661 0
M  V30 2220 H 214.883 2.03267 -0.224196 0
M  V30 2221 H 213.038 3.40688 1.84418 0
M  V30 2222 H 213.452 5.21436 0.56613 0
M  V30 2223 H 214.926 5.03314 2.26669 0
M  V30 2224 H 215.403 3.41193 2.76558 0
M  V30 2225 H 216.009 4.07156 1.22898 0
M  V30 2226 N 214.325 -0.140222 1.56975 0
M  V30 2227 C 215.235 -1.19223 2.02047 0
M  V30 2228 C 216.251 -1.46612 0.937062 0
M  V30 2229 O 217.427 -1.58148 1.24704 0
M  V30 2230 C 214.492 -2.50414 2.39778 0
M  V30 2231 C 213.553 -2.30612 3.621 0
M  V30 2232 C 212.786 -3.55547 3.98023 0
M  V30 2233 O 213.009 -4.62004 3.34528 0
M  V30 2234 O 211.943 -3.47808 4.91237 0
M  V30 2235 H 215.769 -0.839559 2.91865 0
M  V30 2236 H 213.354 -0.349453 1.45256 0
M  V30 2237 H 215.236 -3.27747 2.64877 0
M  V30 2238 H 213.911 -2.85198 1.53114 0
M  V30 2239 H 212.818 -1.51207 3.4218 0
M  V30 2240 H 214.151 -2.00741 4.49404 0
M  V30 2241 N 215.803 -1.52179 -0.40978 0
M  V30 2242 C 216.736 -1.70196 -1.52015 0
M  V30 2243 C 217.714 -0.549542 -1.53032 0
M  V30 2244 O 218.898 -0.776815 -1.71749 0
M  V30 2245 C 216.025 -1.74069 -2.90547 0
M  V30 2246 C 215.071 -2.95601 -3.07445 0
M  V30 2247 S 215.904 -4.55956 -2.80827 0
M  V30 2248 C 217.06 -4.62614 -4.21591 0
M  V30 2249 H 217.293 -2.64109 -1.36504 0
M  V30 2250 H 214.826 -1.4221 -0.601312 0
M  V30 2251 H 216.784 -1.76985 -3.70387 0
M  V30 2252 H 215.445 -0.812835 -3.034 0
M  V30 2253 H 214.638 -2.94791 -4.08796 0
M  V30 2254 H 214.24 -2.90569 -2.35469 0
M  V30 2255 H 216.532 -4.39951 -5.15218 0
M  V30 2256 H 217.475 -5.64548 -4.27424 0
M  V30 2257 H 217.883 -3.91654 -4.06531 0
M  V30 2258 N 217.281 0.66697 -1.42791 0
M  V30 2259 C 218.229 1.80157 -1.47127 0
M  V30 2260 C 219.223 1.65825 -0.346199 0
M  V30 2261 O 220.429 1.72338 -0.519572 0
M  V30 2262 H 216.804 0.594158 -0.460956 0
M  V30 2263 H 218.775 1.73619 -2.42692 0
M  V30 2264 C 217.524 3.18351 -1.39813 0
M  V30 2265 H 216.847 3.3001 -2.25684 0
M  V30 2266 H 218.287 3.97736 -1.46908 0
M  V30 2267 C 216.746 3.36707 -0.11391 0
M  V30 2268 O 217.276 3.93027 0.830241 0
M  V30 2269 N 215.482 2.90586 -0.0285295 0
M  V30 2270 H 215.029 2.4494 -0.79764 0
M  V30 2271 H 214.987 3.03245 0.830063 0
M  V30 2272 N 218.759 1.29093 0.90403 0
M  V30 2273 C 220.007 1.16583 1.65085 0
M  V30 2274 C 220.328 -0.283933 1.92922 0
M  V30 2275 O 219.598 -1.19509 1.55224 0
M  V30 2276 H 218.178 0.428467 0.611903 0
M  V30 2277 H 220.84 1.61959 1.08422 0
M  V30 2278 H 219.936 1.71266 2.6091 0
M  V30 2279 N 220.237 -1.11381 1.11499 0
M  V30 2280 C 221.185 -2.19522 0.768956 0
M  V30 2281 C 222.179 -1.67693 -0.239857 0
M  V30 2282 O 223.385 -1.79727 -0.0990755 0
M  V30 2283 H 219.76 -0.715711 0.230786 0
M  V30 2284 H 221.731 -2.45954 1.68964 0
M  V30 2285 C 220.48 -3.46945 0.229073 0
M  V30 2286 H 219.803 -3.8718 0.996596 0
M  V30 2287 H 221.243 -4.23993 0.0251441 0
M  V30 2288 C 219.702 -3.2042 -1.04079 0
M  V30 2289 O 220.232 -3.41178 -2.12038 0
M  V30 2290 N 218.438 -2.74151 -0.963823 0
M  V30 2291 H 217.985 -2.57459 -0.0851722 0
M  V30 2292 H 217.943 -2.56781 -1.81414 0
M  V30 2293 N 221.715 -0.905404 -1.28997 0
M  V30 2294 C 222.678 -0.392253 -2.25819 0
M  V30 2295 C 223.678 0.476753 -1.5357 0
M  V30 2296 O 224.868 0.280994 -1.71919 0
M  V30 2297 C 222 0.438588 -3.38067 0
M  V30 2298 H 223.193 -1.24743 -2.72725 0
M  V30 2299 H 220.746 -0.684051 -1.40536 0
M  V30 2300 H 221.481 1.31352 -2.96508 0
M  V30 2301 H 221.266 -0.184167 -3.91667 0
M  V30 2302 H 222.756 0.78873 -4.10084 0
M  V30 2303 N 223.193 1.4272 -0.668489 0
M  V30 2304 C 224.439 2.01923 -0.188419 0
M  V30 2305 C 224.772 1.52704 1.19979 0
M  V30 2306 O 224.047 0.726566 1.8042 0
M  V30 2307 C 224.33 3.59451 -0.216085 0
M  V30 2308 C 224.183 4.18864 -1.6393 0
M  V30 2309 C 225.502 4.37903 0.439179 0
M  V30 2310 H 222.621 0.733674 -0.0699412 0
M  V30 2311 H 225.263 1.69822 -0.852076 0
M  V30 2312 H 223.413 3.86929 0.349012 0
M  V30 2313 H 225.085 4.02362 -2.25616 0
M  V30 2314 H 223.328 3.74933 -2.18193 0
M  V30 2315 H 223.999 5.27987 -1.61039 0
M  V30 2316 H 226.475 4.16079 -0.0417878 0
M  V30 2317 H 225.351 5.47519 0.389157 0
M  V30 2318 H 225.612 4.15303 1.51577 0
M  V30 2319 N 224.671 0.411399 1.52136 0
M  V30 2320 C 225.92 -0.165009 2.01024 0
M  V30 2321 C 226.233 -1.4603 1.30133 0
M  V30 2322 O 227.439 -2.1181 1.69849 0
M  V30 2323 C 225.895 -0.344618 3.58246 0
M  V30 2324 C 225.503 0.938716 4.38055 0
M  V30 2325 C 227.247 -0.876195 4.15359 0
M  V30 2326 C 225.154 0.726172 5.86925 0
M  V30 2327 H 224.084 -0.0654407 0.751155 0
M  V30 2328 H 226.735 0.537192 1.75461 0
M  V30 2329 H 225.117 -1.10921 3.80148 0
M  V30 2330 H 226.291 1.70963 4.27912 0
M  V30 2331 H 224.606 1.39688 3.92271 0
M  V30 2332 H 227.203 -1.05128 5.24263 0
M  V30 2333 H 227.546 -1.85152 3.7286 0
M  V30 2334 H 228.079 -0.170607 3.97434 0
M  V30 2335 H 224.818 1.67312 6.33788 0
M  V30 2336 H 224.338 -0.00540283 5.998 0
M  V30 2337 H 226.017 0.369231 6.45946 0
M  V30 2338 N 226.149 -1.5696 0.141893 0
M  V30 2339 C 227.377 -2.00322 -0.517579 0
M  V30 2340 C 227.792 -1.02193 -1.58752 0
M  V30 2341 O 227.149 -0.0181619 -1.82491 0
M  V30 2342 C 227.2 -3.43618 -1.12289 0
M  V30 2343 O 226.921 -4.37995 -0.0956929 0
M  V30 2344 C 228.422 -4.02231 -1.86347 0
M  V30 2345 H 225.642 -0.657243 -0.135177 0
M  V30 2346 H 228.186 -2.03146 0.234973 0
M  V30 2347 H 226.341 -3.41662 -1.82609 0
M  V30 2348 H 226.755 -5.21729 -0.538469 0
M  V30 2349 H 228.229 -5.04509 -2.23997 0
M  V30 2350 H 228.706 -3.42655 -2.74744 0
M  V30 2351 H 229.312 -4.07802 -1.20737 0
M  V30 2352 N 227.627 0.131896 -1.57047 0
M  V30 2353 C 228.575 1.18146 -2.0036 0
M  V30 2354 C 229.569 1.43614 -0.898406 0
M  V30 2355 O 230.775 1.43729 -1.08361 0
M  V30 2356 H 227.15 0.398042 -0.638018 0
M  V30 2357 H 229.121 0.789564 -2.87765 0
M  V30 2358 C 227.87 2.50341 -2.41298 0
M  V30 2359 H 227.193 2.31578 -3.25902 0
M  V30 2360 H 228.633 3.22371 -2.75414 0
M  V30 2361 C 227.092 3.11984 -1.27153 0
M  V30 2362 O 227.622 3.97484 -0.580459 0
M  V30 2363 N 225.828 2.71662 -1.03189 0
M  V30 2364 H 225.375 2.02231 -1.59564 0
M  V30 2365 H 225.333 3.13238 -0.270077 0
M  V30 2366 N 229.106 1.52395 0.401703 0
M  V30 2367 C 230.016 1.7917 1.51444 0
M  V30 2368 C 231.032 0.677691 1.6026 0
M  V30 2369 O 232.208 0.963909 1.76835 0
M  V30 2370 C 229.273 1.94347 2.87107 0
M  V30 2371 C 228.334 3.18257 2.88116 0
M  V30 2372 C 227.567 3.32701 4.17308 0
M  V30 2373 O 227.79 2.52238 5.11598 0
M  V30 2374 O 226.724 4.25891 4.25324 0
M  V30 2375 H 230.55 2.73633 1.31752 0
M  V30 2376 H 228.135 1.3733 0.588296 0
M  V30 2377 H 230.017 2.06109 3.67555 0
M  V30 2378 H 228.692 1.03073 3.06851 0
M  V30 2379 H 227.599 3.11947 2.06494 0
M  V30 2380 H 228.932 4.09336 2.73322 0
M  V30 2381 N 230.584 -0.659388 1.43143 0
M  V30 2382 C 231.531 -1.77249 1.47822 0
M  V30 2383 C 232.501 -1.62818 0.328558 0
M  V30 2384 O 233.686 -1.83151 0.534838 0
M  V30 2385 C 230.826 -3.15371 1.40126 0
M  V30 2386 C 229.939 -3.4098 2.65249 0
M  V30 2387 C 229.074 -4.68915 2.49584 0
M  V30 2388 C 228.113 -4.87608 3.70006 0
M  V30 2389 N 227.25 -6.06796 3.53189 0
M  V30 2390 H 232.09 -1.72584 2.42938 0
M  V30 2391 H 229.627 -0.842297 1.20598 0
M  V30 2392 H 231.585 -3.9521 1.33659 0
M  V30 2393 H 230.215 -3.19121 0.485964 0
M  V30 2394 H 229.267 -2.55282 2.8202 0
M  V30 2395 H 230.579 -3.50681 3.54717 0
M  V30 2396 H 229.733 -5.56871 2.4079 0
M  V30 2397 H 228.472 -4.61524 1.5763 0
M  V30 2398 H 227.477 -3.9809 3.79215 0
M  V30 2399 H 228.702 -4.96834 4.62961 0
M  V30 2400 H 226.648 -6.00549 2.63965 0
M  V30 2401 H 226.565 -6.17428 4.36255 0
M  V30 2402 H 227.833 -6.9739 3.48236 0
M  V30 2403 N 232.062 -1.29571 -0.897171 0
M  V30 2404 C 233.29 -1.20583 -1.68129 0
M  V30 2405 C 233.705 0.233181 -1.87354 0
M  V30 2406 O 233.062 1.15579 -1.41236 0
M  V30 2407 C 233.113 -1.91772 -3.06441 0
M  V30 2408 O 232.834 -3.30053 -2.88091 0
M  V30 2409 C 234.335 -1.89291 -4.00854 0
M  V30 2410 H 231.555 -0.417826 -0.525036 0
M  V30 2411 H 234.099 -1.70987 -1.12177 0
M  V30 2412 H 232.254 -1.45196 -3.59161 0
M  V30 2413 H 232.668 -3.65942 -3.75748 0
M  V30 2414 H 234.142 -2.43662 -4.95311 0
M  V30 2415 H 234.619 -0.869014 -4.30517 0
M  V30 2416 H 235.225 -2.35622 -3.54066 0
M  V30 2417 N 233.54 1.10788 -1.12088 0
M  V30 2418 C 234.487 2.17025 -0.785407 0
M  V30 2419 C 235.457 1.64265 0.246191 0
M  V30 2420 O 236.642 1.90412 0.121584 0
M  V30 2421 C 233.782 3.44249 -0.242177 0
M  V30 2422 C 232.895 4.1098 -1.33115 0
M  V30 2423 C 232.03 5.25911 -0.747741 0
M  V30 2424 C 231.069 5.84538 -1.81609 0
M  V30 2425 N 230.206 6.90853 -1.25167 0
M  V30 2426 H 235.046 2.45066 -1.69548 0
M  V30 2427 H 232.583 1.20297 -0.846582 0
M  V30 2428 H 234.541 4.17101 0.0908026 0
M  V30 2429 H 233.171 3.16571 0.631072 0
M  V30 2430 H 232.223 3.36133 -1.78097 0
M  V30 2431 H 233.535 4.50601 -2.13917 0
M  V30 2432 H 232.689 6.056 -0.365216 0
M  V30 2433 H 231.428 4.87614 0.0915188 0
M  V30 2434 H 230.433 5.03522 -2.20785 0
M  V30 2435 H 231.658 6.249 -2.6585 0
M  V30 2436 H 229.604 6.54562 -0.434174 0
M  V30 2437 H 229.521 7.29166 -1.99633 0
M  V30 2438 H 230.789 7.7433 -0.896259 0
M  V30 2439 N 235.018 0.912232 1.28515 0
M  V30 2440 C 235.928 0.404506 2.31086 0
M  V30 2441 C 236.944 -0.50707 1.66448 0
M  V30 2442 O 238.12 -0.393624 1.97516 0
M  V30 2443 C 235.185 -0.348572 3.44943 0
M  V30 2444 C 234.246 0.59604 4.25142 0
M  V30 2445 C 233.479 -0.121194 5.33562 0
M  V30 2446 O 233.702 -1.34317 5.5436 0
M  V30 2447 O 232.636 0.542716 5.99448 0
M  V30 2448 H 236.462 1.25579 2.76521 0
M  V30 2449 H 234.047 0.676998 1.33181 0
M  V30 2450 H 235.929 -0.77395 4.14232 0
M  V30 2451 H 234.604 -1.17571 3.01594 0
M  V30 2452 H 233.511 1.07079 3.58448 0
M  V30 2453 H 234.844 1.38995 4.72167 0
M  V30 2454 N 236.496 -1.42363 0.676048 0
M  V30 2455 C 237.443 -2.308 -0.00150904 0
M  V30 2456 C 238.413 -1.46032 -0.791444 0
M  V30 2457 O 239.598 -1.74861 -0.76344 0
M  V30 2458 C 236.738 -3.31883 -0.945919 0
M  V30 2459 C 235.851 -4.31741 -0.149675 0
M  V30 2460 C 234.986 -5.19898 -1.08995 0
M  V30 2461 C 234.025 -6.11434 -0.285465 0
M  V30 2462 N 233.162 -6.92138 -1.17851 0
M  V30 2463 H 238.002 -2.88187 0.758455 0
M  V30 2464 H 235.539 -1.41952 0.38576 0
M  V30 2465 H 237.497 -3.89019 -1.50731 0
M  V30 2466 H 236.127 -2.76093 -1.6725 0
M  V30 2467 H 235.179 -3.76713 0.528359 0
M  V30 2468 H 236.491 -4.96534 0.474866 0
M  V30 2469 H 235.645 -5.81772 -1.72123 0
M  V30 2470 H 234.384 -4.55284 -1.74837 0
M  V30 2471 H 233.389 -5.48627 0.359018 0
M  V30 2472 H 234.614 -6.78097 0.368883 0
M  V30 2473 H 232.56 -6.30152 -1.82332 0
M  V30 2474 H 232.477 -7.53542 -0.609082 0
M  V30 2475 H 233.745 -7.58499 -1.79722 0
M  V30 2476 N 237.974 -0.419461 -1.51915 0
M  V30 2477 C 239.204 0.151915 -2.06041 0
M  V30 2478 C 239.612 1.38539 -1.28855 0
M  V30 2479 O 238.955 1.80592 -0.336463 0
M  V30 2480 C 239.017 0.557119 -3.55157 0
M  V30 2481 C 238.681 -0.567054 -4.53468 0
M  V30 2482 C 239.678 -1.43379 -4.99738 0
M  V30 2483 C 237.363 -0.742693 -4.96779 0
M  V30 2484 C 239.357 -2.46102 -5.87973 0
M  V30 2485 C 237.044 -1.77322 -5.84808 0
M  V30 2486 C 238.042 -2.63078 -6.30301 0
M  V30 2487 O 237.73 -3.64364 -7.16585 0
M  V30 2488 H 237.462 0.0193293 -0.675724 0
M  V30 2489 H 240.016 -0.592073 -1.96682 0
M  V30 2490 H 238.246 1.35355 -3.62238 0
M  V30 2491 H 239.935 1.05759 -3.9188 0
M  V30 2492 H 240.701 -1.30954 -4.66986 0
M  V30 2493 H 236.58 -0.0848307 -4.60922 0
M  V30 2494 H 240.124 -3.13071 -6.23404 0
M  V30 2495 H 236.021 -1.89773 -6.16974 0
M  V30 2496 H 236.789 -3.60731 -7.34721 0
M  V30 2497 N 239.452 1.56882 -0.150215 0
M  V30 2498 C 240.7 1.9584 0.499105 0
M  V30 2499 C 241.021 1.03623 1.65188 0
M  V30 2500 O 240.291 0.0984084 1.95653 0
M  V30 2501 H 238.871 0.723119 0.187373 0
M  V30 2502 H 241.533 1.9358 -0.226466 0
M  V30 2503 H 240.629 2.99638 0.873122 0
M  V30 2504 N 240.93 -0.123565 1.57115 0
M  V30 2505 C 242.176 -0.833386 1.84885 0
M  V30 2506 C 242.509 -1.79742 0.735292 0
M  V30 2507 O 241.784 -1.92764 -0.25925 0
M  V30 2508 C 242.067 -1.5873 3.23228 0
M  V30 2509 C 241.92 -0.643183 4.45178 0
M  V30 2510 C 243.239 -2.54453 3.59085 0
M  V30 2511 H 240.358 -0.301518 0.6725 0
M  V30 2512 H 243 -0.097778 1.89748 0
M  V30 2513 H 241.15 -2.21438 3.19214 0
M  V30 2514 H 242.822 -0.0253015 4.61293 0
M  V30 2515 H 241.065 0.0456139 4.33776 0
M  V30 2516 H 241.736 -1.20724 5.38637 0
M  V30 2517 H 244.212 -2.01853 3.63861 0
M  V30 2518 H 243.088 -3.04238 4.5687 0
M  V30 2519 H 243.349 -3.36906 2.86264 0
M  V30 2520 N 242.408 -1.52605 -0.393616 0
M  V30 2521 C 243.633 -1.71592 -1.16495 0
M  V30 2522 C 244.058 -0.43133 -1.83088 0
M  V30 2523 O 243.416 0.612523 -1.7064 0
M  V30 2524 C 243.464 -2.86318 -2.19213 0
M  V30 2525 O 242.568 -2.52969 -3.257 0
M  V30 2526 H 241.909 -0.570734 -0.33935 0
M  V30 2527 H 244.439 -1.99377 -0.459324 0
M  V30 2528 H 244.449 -3.1168 -2.63286 0
M  V30 2529 H 243.124 -3.79511 -1.7013 0
M  V30 2530 H 241.701 -2.38332 -2.86797 0
M  V30 2531 N 243.887 0.651787 -1.4349 0
M  V30 2532 C 245.112 1.44434 -1.48841 0
M  V30 2533 C 245.537 1.8779 -0.107955 0
M  V30 2534 O 244.895 1.57464 0.898602 0
M  V30 2535 C 244.943 2.65458 -2.44059 0
M  V30 2536 O 244.047 3.64566 -1.92784 0
M  V30 2537 H 243.388 0.433005 -0.503391 0
M  V30 2538 H 245.918 0.797451 -1.88419 0
M  V30 2539 H 245.928 3.13255 -2.6141 0
M  V30 2540 H 244.603 2.33244 -3.4434 0
M  V30 2541 H 243.18 3.23716 -1.851 0
M  V30 2542 N 245.365 1.30045 0.890287 0
M  V30 2543 C 246.312 1.15976 1.99545 0
M  V30 2544 C 247.282 0.0506202 1.66023 0
M  V30 2545 O 248.467 0.219847 1.89529 0
M  V30 2546 C 245.607 0.852054 3.34416 0
M  V30 2547 C 244.72 2.04255 3.80662 0
M  V30 2548 C 243.855 1.6734 5.04154 0
M  V30 2549 C 242.894 2.82916 5.42794 0
M  V30 2550 N 242.031 2.46333 6.57468 0
M  V30 2551 H 246.871 2.10524 2.10911 0
M  V30 2552 H 244.408 1.04749 1.03276 0
M  V30 2553 H 246.366 0.654296 4.12037 0
M  V30 2554 H 244.996 -0.0565502 3.2275 0
M  V30 2555 H 244.048 2.35172 2.98995 0
M  V30 2556 H 245.36 2.90826 4.05242 0
M  V30 2557 H 244.514 1.43908 5.89386 0
M  V30 2558 H 243.253 0.779308 4.81433 0
M  V30 2559 H 242.258 3.0702 4.56091 0
M  V30 2560 H 243.483 3.73004 5.6749 0
M  V30 2561 H 241.429 1.59423 6.36334 0
M  V30 2562 H 241.346 3.26436 6.81891 0
M  V30 2563 H 242.614 2.26244 7.45945 0
M  V30 2564 N 246.843 -1.10192 1.12674 0
M  V30 2565 C 247.806 -2.14786 0.799979 0
M  V30 2566 C 248.806 -1.59711 -0.18685 0
M  V30 2567 O 249.996 -1.74156 0.0392558 0
M  V30 2568 C 247.128 -3.40374 0.189228 0
M  V30 2569 H 248.321 -2.45203 1.72671 0
M  V30 2570 H 245.874 -1.25597 0.930326 0
M  V30 2571 H 246.609 -3.15577 -0.747107 0
M  V30 2572 H 246.394 -3.81637 0.899766 0
M  V30 2573 H 247.884 -4.17594 -0.0228143 0
M  V30 2574 N 248.321 -0.919034 -1.28029 0
M  V30 2575 C 249.251 -0.428581 -2.29533 0
M  V30 2576 C 250.232 0.50659 -1.62381 0
M  V30 2577 O 251.417 0.413195 -1.89753 0
M  V30 2578 C 248.547 0.327388 -3.45753 0
M  V30 2579 C 247.501 -0.519137 -4.2484 0
M  V30 2580 C 246.827 0.365486 -5.33449 0
M  V30 2581 C 248.127 -1.77914 -4.91064 0
M  V30 2582 H 249.821 -1.27687 -2.70807 0
M  V30 2583 H 247.367 -0.615428 -1.30186 0
M  V30 2584 H 249.32 0.681378 -4.15855 0
M  V30 2585 H 248.044 1.20963 -3.03374 0
M  V30 2586 H 246.703 -0.855717 -3.56473 0
M  V30 2587 H 246.351 1.24642 -4.87312 0
M  V30 2588 H 246.051 -0.197356 -5.87268 0
M  V30 2589 H 247.575 0.715241 -6.06396 0
M  V30 2590 H 248.989 -1.49374 -5.53498 0
M  V30 2591 H 247.386 -2.2848 -5.54903 0
M  V30 2592 H 248.456 -2.50382 -4.15255 0
M  V30 2593 N 249.799 1.42003 -0.683588 0
M  V30 2594 C 251.029 2.05448 -0.217866 0
M  V30 2595 C 251.437 1.51491 1.13346 0
M  V30 2596 O 250.78 0.653048 1.717 0
M  V30 2597 C 250.842 3.59399 -0.0850118 0
M  V30 2598 C 250.506 4.36093 -1.36645 0
M  V30 2599 C 251.503 4.66169 -2.30179 0
M  V30 2600 C 249.188 4.75578 -1.61649 0
M  V30 2601 C 251.182 5.34676 -3.46988 0
M  V30 2602 C 248.869 5.43824 -2.78745 0
M  V30 2603 C 249.867 5.73299 -3.71238 0
M  V30 2604 O 249.555 6.40142 -4.86285 0
M  V30 2605 H 249.287 0.668344 -0.101454 0
M  V30 2606 H 251.841 1.82974 -0.933248 0
M  V30 2607 H 250.071 3.80566 0.686031 0
M  V30 2608 H 251.76 4.04457 0.341973 0
M  V30 2609 H 252.526 4.36156 -2.12115 0
M  V30 2610 H 248.405 4.52025 -0.905243 0
M  V30 2611 H 251.949 5.57599 -4.19201 0
M  V30 2612 H 247.846 5.73254 -2.96732 0
M  V30 2613 H 248.614 6.58636 -4.85944 0
M  V30 2614 N 251.277 0.427512 1.51691 0
M  V30 2615 C 252.688 -0.0378867 1.86662 0
M  V30 2616 C 253.039 -1.42819 1.34525 0
M  V30 2617 O 252.164 -2.05037 0.692014 0
M  V30 2618 C 252.759 -0.0755266 3.38716 0
M  V30 2619 C 251.318 -0.485309 3.73258 0
M  V30 2620 C 250.465 0.328399 2.75349 0
M  V30 2621 H 253.416 0.64379 1.45055 0
M  V30 2622 H 253.437 -0.887056 3.70016 0
M  V30 2623 H 252.949 0.936487 3.76632 0
M  V30 2624 H 251.05 -1.50329 3.40928 0
M  V30 2625 H 251.163 -0.21693 4.78609 0
M  V30 2626 H 249.527 -0.211905 2.53817 0
M  V30 2627 H 250.31 1.3391 3.16106 0
M  V30 2628 N 252.755 -1.56801 0.158532 0
M  V30 2629 C 253.702 -2.17337 -0.776729 0
M  V30 2630 C 254.672 -1.1096 -1.23601 0
M  V30 2631 O 255.857 -1.39054 -1.30647 0
M  V30 2632 C 252.997 -2.80822 -2.00582 0
M  V30 2633 C 252.11 -4.01624 -1.59129 0
M  V30 2634 C 251.245 -4.53072 -2.77306 0
M  V30 2635 C 250.284 -5.66314 -2.32282 0
M  V30 2636 N 249.421 -6.12329 -3.43508 0
M  V30 2637 H 254.261 -2.96918 -0.253701 0
M  V30 2638 H 251.798 -1.46661 -0.113504 0
M  V30 2639 H 253.756 -3.15779 -2.72652 0
M  V30 2640 H 252.386 -2.03866 -2.50277 0
M  V30 2641 H 251.438 -3.72571 -0.767806 0
M  V30 2642 H 252.75 -4.83633 -1.2207 0
M  V30 2643 H 251.904 -4.90145 -3.57551 0
M  V30 2644 H 250.643 -3.70095 -3.17617 0
M  V30 2645 H 249.648 -5.28806 -1.5048 0
M  V30 2646 H 250.873 -6.51085 -1.93043 0
M  V30 2647 H 248.819 -5.32284 -3.83418 0
M  V30 2648 H 248.736 -6.89293 -3.105 0
M  V30 2649 H 250.004 -6.5405 -4.24075 0
M  V30 2650 N 254.233 0.115231 -1.57178 0
M  V30 2651 C 255.479 0.82357 -1.85325 0
M  V30 2652 C 255.812 1.79349 -0.744814 0
M  V30 2653 O 255.087 1.92899 0.249024 0
M  V30 2654 C 255.37 1.57014 -3.24066 0
M  V30 2655 C 255.223 0.619565 -4.45513 0
M  V30 2656 C 256.542 2.52545 -3.60429 0
M  V30 2657 H 253.661 0.297948 -0.674089 0
M  V30 2658 H 256.303 0.0877138 -1.89797 0
M  V30 2659 H 254.453 2.19742 -3.20383 0
M  V30 2660 H 256.125 0.000837639 -4.613 0
M  V30 2661 H 254.368 -0.0686174 -4.33746 0
M  V30 2662 H 255.039 1.17866 -5.3927 0
M  V30 2663 H 257.515 1.9992 -3.64926 0
M  V30 2664 H 256.391 3.01811 -4.58477 0
M  V30 2665 H 256.652 3.35383 -2.88047 0
M  V30 2666 N 255.711 1.52812 0.385517 0
M  V30 2667 C 256.936 1.72207 1.15583 0
M  V30 2668 C 257.361 0.441034 1.82857 0
M  V30 2669 O 256.719 -0.603465 1.70962 0
M  V30 2670 C 256.767 2.87476 2.17692 0
M  V30 2671 O 255.871 2.54693 3.24354 0
M  V30 2672 H 255.212 0.572526 0.336319 0
M  V30 2673 H 257.742 1.99618 0.448744 0
M  V30 2674 H 257.752 3.13072 2.6163 0
M  V30 2675 H 256.427 3.80408 1.68115 0
M  V30 2676 H 255.004 2.3985 2.85529 0
M  V30 2677 N 257.189 -0.644168 1.43834 0
M  V30 2678 C 258.438 -1.39985 1.45214 0
M  V30 2679 C 258.751 -1.95421 0.0835494 0
M  V30 2680 O 259.957 -2.71488 -0.0251748 0
M  V30 2681 C 258.413 -2.53384 2.55587 0
M  V30 2682 C 258.021 -2.04517 3.98594 0
M  V30 2683 C 259.765 -3.30685 2.66172 0
M  V30 2684 C 257.672 -3.1518 5.00416 0
M  V30 2685 H 256.602 -0.526005 0.540218 0
M  V30 2686 H 259.253 -0.694367 1.69855 0
M  V30 2687 H 257.635 -3.26446 2.24163 0
M  V30 2688 H 258.809 -1.38405 4.39523 0
M  V30 2689 H 257.124 -1.40068 3.92135 0
M  V30 2690 H 259.721 -4.13158 3.39418 0
M  V30 2691 H 260.064 -3.79312 1.71546 0
M  V30 2692 H 260.597 -2.64708 2.96942 0
M  V30 2693 H 257.336 -2.71511 5.96625 0
M  V30 2694 H 256.856 -3.79974 4.64091 0
M  V30 2695 H 258.535 -3.80166 5.23529 0
M  V30 2696 N 258.668 -1.30515 -0.883378 0
M  V30 2697 C 259.917 -1.18795 -1.63005 0
M  V30 2698 C 260.23 0.255923 -1.93919 0
M  V30 2699 O 261.436 0.494654 -2.66956 0
M  V30 2700 C 259.892 -2.07878 -2.93794 0
M  V30 2701 C 259.5 -3.57184 -2.70414 0
M  V30 2702 C 261.244 -2.04924 -3.71761 0
M  V30 2703 C 259.151 -4.38317 -3.97029 0
M  V30 2704 H 258.081 -0.441031 -0.611562 0
M  V30 2705 H 260.732 -1.55275 -0.977854 0
M  V30 2706 H 259.114 -1.64283 -3.60315 0
M  V30 2707 H 260.288 -4.08937 -2.12384 0
M  V30 2708 H 258.603 -3.61976 -2.0582 0
M  V30 2709 H 261.2 -2.62792 -4.65665 0
M  V30 2710 H 261.543 -1.0331 -4.03277 0
M  V30 2711 H 262.076 -2.46649 -3.12104 0
M  V30 2712 H 258.815 -5.40632 -3.70671 0
M  V30 2713 H 258.335 -3.91326 -4.54559 0
M  V30 2714 H 260.014 -4.49834 -4.65036 0
M  V30 2715 N 260.146 1.09593 -1.13257 0
M  V30 2716 C 261.423 1.78293 -0.804432 0
M  V30 2717 C 261.803 1.99004 0.70431 0
M  V30 2718 O 261.151 1.59007 1.641 0
M  V30 2719 C 261.361 3.10707 -1.5894 0
M  V30 2720 C 262.709 3.85443 -1.78099 0
M  V30 2721 O 263.733 3.20454 -1.55525 0
M  V30 2722 O 262.592 5.02108 -2.15753 0
M  V30 2723 H 259.686 0.773156 -0.293528 0
M  V30 2724 H 262.232 1.16164 -1.23709 0
M  V30 2725 H 261.004 2.91106 -2.61482 0
M  V30 2726 H 260.627 3.80558 -1.15157 0
M  V30 2727 N 261.624 0.925811 1.2754 0
M  V30 2728 C 263.035 0.610102 1.7645 0
M  V30 2729 C 263.386 -0.874723 1.75622 0
M  V30 2730 O 262.511 -1.68444 1.35851 0
M  V30 2731 C 263.106 1.10073 3.20421 0
M  V30 2732 C 261.665 0.835723 3.67005 0
M  V30 2733 C 260.812 1.26054 2.46993 0
M  V30 2734 H 263.763 1.10579 1.13833 0
M  V30 2735 H 263.784 0.447557 3.77859 0
M  V30 2736 H 263.296 2.18143 3.20991 0
M  V30 2737 H 261.397 -0.231249 3.71882 0
M  V30 2738 H 261.51 1.45193 4.56569 0
M  V30 2739 H 259.874 0.679111 2.45479 0
M  V30 2740 H 260.657 2.34984 2.50275 0
M  V30 2741 N 263.102 -1.41638 0.69111 0
M  V30 2742 C 264.327 -2.06148 0.227583 0
M  V30 2743 C 264.752 -1.51652 -1.11281 0
M  V30 2744 O 264.11 -0.64164 -1.69566 0
M  V30 2745 C 264.158 -3.60095 0.190858 0
M  V30 2746 O 263.262 -4.03845 -0.835664 0
M  V30 2747 H 262.603 -0.654434 0.112306 0
M  V30 2748 H 265.133 -1.81484 0.944714 0
M  V30 2749 H 265.143 -4.07995 0.020207 0
M  V30 2750 H 263.818 -3.99129 1.16915 0
M  V30 2751 H 262.395 -3.67458 -0.63473 0
M  V30 2752 N 264.58 -0.43555 -1.51462 0
M  V30 2753 C 265.826 0.131709 -2.02372 0
M  V30 2754 C 266.159 1.42516 -1.3192 0
M  V30 2755 O 265.434 1.89606 -0.433573 0
M  V30 2756 C 265.717 0.352301 -3.58373 0
M  V30 2757 C 265.57 -0.959676 -4.39443 0
M  V30 2758 C 266.889 1.12286 -4.25535 0
M  V30 2759 H 264.008 0.0463936 -0.735538 0
M  V30 2760 H 266.65 -0.574197 -1.81116 0
M  V30 2761 H 264.8 0.9536 -3.76615 0
M  V30 2762 H 266.472 -1.59482 -4.32855 0
M  V30 2763 H 264.715 -1.56468 -4.04599 0
M  V30 2764 H 265.386 -0.759394 -5.46752 0
M  V30 2765 H 267.862 0.613545 -4.11552 0
M  V30 2766 H 266.738 1.24598 -5.34571 0
M  V30 2767 H 266.999 2.15048 -3.86273 0
M  V30 2768 N 266.058 1.56714 -0.166846 0
M  V30 2769 C 266.99 2.14914 0.796537 0
M  V30 2770 C 268.003 1.10357 1.19688 0
M  V30 2771 O 269.192 1.37561 1.13751 0
M  V30 2772 C 266.292 2.67326 2.08303 0
M  V30 2773 C 265.465 3.96493 1.84696 0
M  V30 2774 C 264.524 4.34014 2.97521 0
M  V30 2775 O 263.55 5.01973 2.6835 0
M  V30 2776 N 264.752 3.95208 4.25196 0
M  V30 2777 H 267.517 2.98205 0.299006 0
M  V30 2778 H 265.078 1.61892 0.0160839 0
M  V30 2779 H 267.07 2.89428 2.82867 0
M  V30 2780 H 265.64 1.88649 2.4926 0
M  V30 2781 H 264.86 3.82814 0.940602 0
M  V30 2782 H 266.148 4.8086 1.66285 0
M  V30 2783 H 265.546 3.40487 4.51758 0
M  V30 2784 H 264.103 4.2232 4.96477 0
M  V30 2785 N 267.536 -0.106894 1.57237 0
M  V30 2786 C 268.783 -0.812526 1.85484 0
M  V30 2787 C 269.111 -1.79304 0.753687 0
M  V30 2788 O 268.366 -1.94047 -0.253853 0
M  V30 2789 C 268.665 -1.58628 3.20268 0
M  V30 2790 C 268.331 -0.748967 4.44636 0
M  V30 2791 C 266.993 -0.518104 4.78403 0
M  V30 2792 C 269.345 -0.166122 5.20935 0
M  V30 2793 C 266.673 0.305659 5.85903 0
M  V30 2794 C 269.025 0.644899 6.29304 0
M  V30 2795 C 267.689 0.885965 6.61594 0
M  V30 2796 H 266.959 -0.297324 0.678734 0
M  V30 2797 H 269.606 -0.0744332 1.91355 0
M  V30 2798 H 267.911 -2.39562 3.10028 0
M  V30 2799 H 269.608 -2.13643 3.39349 0
M  V30 2800 H 266.198 -0.939006 4.18187 0
M  V30 2801 H 270.382 -0.33167 4.95191 0
M  V30 2802 H 265.638 0.501528 6.0934 0
M  V30 2803 H 269.812 1.10345 6.87602 0
M  V30 2804 H 267.439 1.52609 7.44725 0
M  V30 2805 N 269.014 -1.53014 -0.377408 0
M  V30 2806 C 270.242 -1.72515 -1.14219 0
M  V30 2807 C 270.657 -0.448735 -1.8339 0
M  V30 2808 O 270.014 0.577592 -1.73119 0
M  V30 2809 C 270.065 -2.8826 -2.18148 0
M  V30 2810 O 269.786 -4.10962 -1.51795 0
M  V30 2811 C 271.287 -3.19536 -3.07264 0
M  V30 2812 H 268.507 -0.577301 -0.342001 0
M  V30 2813 H 271.051 -1.99712 -0.439935 0
M  V30 2814 H 269.206 -2.63492 -2.83991 0
M  V30 2815 H 269.62 -4.75693 -2.20945 0
M  V30 2816 H 271.094 -4.03959 -3.76193 0
M  V30 2817 H 271.571 -2.34403 -3.71419 0
M  V30 2818 H 272.177 -3.46186 -2.47053 0
M  V30 2819 N 270.492 0.636531 -1.44174 0
M  V30 2820 C 271.422 1.76003 -1.53444 0
M  V30 2821 C 272.403 1.65619 -0.387841 0
M  V30 2822 O 273.588 1.84461 -0.607257 0
M  V30 2823 C 270.718 3.14511 -1.4731 0
M  V30 2824 C 269.672 3.39677 -2.60391 0
M  V30 2825 C 268.998 4.78159 -2.39308 0
M  V30 2826 C 270.298 3.32772 -4.02567 0
M  V30 2827 H 271.992 1.68501 -2.47483 0
M  V30 2828 H 269.538 0.809237 -1.19111 0
M  V30 2829 H 271.491 3.92878 -1.52397 0
M  V30 2830 H 270.215 3.22783 -0.49785 0
M  V30 2831 H 268.874 2.63688 -2.54684 0
M  V30 2832 H 268.522 4.83128 -1.39988 0
M  V30 2833 H 268.222 4.95956 -3.15122 0
M  V30 2834 H 269.746 5.58762 -2.46205 0
M  V30 2835 H 271.16 4.01051 -4.09672 0
M  V30 2836 H 269.557 3.62104 -4.7854 0
M  V30 2837 H 270.627 2.30669 -4.2652 0
M  V30 2838 N 271.97 1.30982 0.876444 0
M  V30 2839 C 273.381 1.18277 1.44456 0
M  V30 2840 C 273.732 -0.213265 1.95037 0
M  V30 2841 O 272.857 -1.11057 1.85729 0
M  V30 2842 C 273.452 2.1411 2.62569 0
M  V30 2843 C 272.011 2.05358 3.15444 0
M  V30 2844 C 271.158 2.03706 1.88146 0
M  V30 2845 H 274.109 1.43127 0.685584 0
M  V30 2846 H 274.13 1.72692 3.39054 0
M  V30 2847 H 273.642 3.15706 2.25724 0
M  V30 2848 H 271.743 1.06934 3.56926 0
M  V30 2849 H 271.856 2.94156 3.78166 0
M  V30 2850 H 270.22 1.48629 2.06837 0
M  V30 2851 H 271.003 3.07047 1.53547 0
M  V30 2852 N 273.449 -1.08991 1.13837 0
M  V30 2853 C 274.396 -2.15748 0.819835 0
M  V30 2854 C 275.366 -1.64636 -0.220026 0
M  V30 2855 O 276.551 -1.90582 -0.0912757 0
M  V30 2856 C 273.691 -3.4382 0.296913 0
M  V30 2857 C 272.804 -4.0881 1.39636 0
M  V30 2858 C 271.939 -5.24655 0.831314 0
M  V30 2859 C 270.978 -5.81575 1.90886 0
M  V30 2860 N 270.115 -6.88774 1.36142 0
M  V30 2861 H 274.955 -2.42338 1.73426 0
M  V30 2862 H 272.492 -1.18935 0.865613 0
M  V30 2863 H 274.45 -4.17193 -0.0244339 0
M  V30 2864 H 273.08 -3.17535 -0.580628 0
M  V30 2865 H 272.132 -3.33258 1.83422 0
M  V30 2866 H 273.444 -4.47141 2.21058 0
M  V30 2867 H 272.598 -6.04942 0.461515 0
M  V30 2868 H 271.337 -4.87698 -0.013932 0
M  V30 2869 H 270.342 -4.99946 2.28767 0
M  V30 2870 H 271.567 -6.20592 2.75758 0
M  V30 2871 H 269.513 -6.53788 0.538254 0
M  V30 2872 H 269.43 -7.25898 2.11208 0
M  V30 2873 H 270.698 -7.72806 1.01933 0
M  V30 2874 N 274.927 -0.932562 -1.27047 0
M  V30 2875 C 275.837 -0.441219 -2.30414 0
M  V30 2876 C 276.853 0.480525 -1.67233 0
M  V30 2877 O 278.029 0.362151 -1.98117 0
M  V30 2878 C 275.094 0.293651 -3.45454 0
M  V30 2879 C 274.155 -0.663601 -4.2414 0
M  V30 2880 C 273.388 0.0362932 -5.33688 0
M  V30 2881 O 273.611 1.2548 -5.56427 0
M  V30 2882 O 272.545 -0.638015 -5.98509 0
M  V30 2883 H 276.371 -1.29962 -2.74488 0
M  V30 2884 H 273.956 -0.6981 -1.32087 0
M  V30 2885 H 275.838 0.707951 -4.15411 0
M  V30 2886 H 274.513 1.12758 -3.03426 0
M  V30 2887 H 273.42 -1.12768 -3.56699 0
M  V30 2888 H 274.753 -1.46489 -4.69896 0
M  V30 2889 N 276.405 1.4127 -0.698611 0
M  V30 2890 C 277.337 2.292 0.00399731 0
M  V30 2891 C 278.35 1.44944 0.741279 0
M  V30 2892 O 279.539 1.68416 0.591477 0
M  V30 2893 C 276.639 3.22875 1.02979 0
M  V30 2894 C 275.812 4.35904 0.36151 0
M  V30 2895 C 274.871 5.10134 1.29033 0
M  V30 2896 O 273.897 5.63809 0.781562 0
M  V30 2897 N 275.099 5.17885 2.6225 0
M  V30 2898 H 277.864 2.9014 -0.750921 0
M  V30 2899 H 275.425 1.52455 -0.544882 0
M  V30 2900 H 277.417 3.69404 1.65296 0
M  V30 2901 H 275.987 2.63221 1.68622 0
M  V30 2902 H 275.207 3.91719 -0.441584 0
M  V30 2903 H 276.495 5.08696 -0.103055 0
M  V30 2904 H 275.893 4.7573 3.061 0
M  V30 2905 H 274.45 5.6798 3.19754 0
M  V30 2906 N 277.883 0.443576 1.51229 0
M  V30 2907 C 279.111 -0.11929 2.06556 0
M  V30 2908 C 279.526 -1.35921 1.31038 0
M  V30 2909 O 278.883 -1.78675 0.371704 0
M  V30 2910 C 278.934 -0.435228 3.5887 0
M  V30 2911 O 278.655 0.755486 4.31537 0
M  V30 2912 C 280.156 -1.04808 4.30732 0
M  V30 2913 H 277.376 -0.0051584 0.67098 0
M  V30 2914 H 279.92 0.624453 1.94733 0
M  V30 2915 H 278.075 -1.12887 3.70588 0
M  V30 2916 H 278.489 0.483491 5.22267 0
M  V30 2917 H 279.963 -1.2191 5.3837 0
M  V30 2918 H 280.44 -2.03081 3.89429 0
M  V30 2919 H 281.046 -0.393637 4.23474 0
M  V30 2920 N 279.361 -1.56624 0.175154 0
M  V30 2921 C 280.607 -1.9729 -0.469506 0
M  V30 2922 C 280.94 -1.06128 -1.62636 0
M  V30 2923 O 280.215 -0.109183 -1.94193 0
M  V30 2924 C 280.498 -3.47375 -0.948804 0
M  V30 2925 C 280.351 -4.49317 0.208491 0
M  V30 2926 C 281.67 -4.00652 -1.82116 0
M  V30 2927 H 278.789 -0.717317 -0.16919 0
M  V30 2928 H 281.431 -1.88184 0.262062 0
M  V30 2929 H 279.581 -3.55267 -1.57219 0
M  V30 2930 H 281.253 -4.53482 0.845682 0
M  V30 2931 H 279.496 -4.25121 0.863395 0
M  V30 2932 H 280.167 -5.51741 -0.169059 0
M  V30 2933 H 282.643 -3.95416 -1.2956 0
M  V30 2934 H 281.519 -5.06075 -2.12554 0
M  V30 2935 H 281.78 -3.44699 -2.7683 0
M  V30 2936 N 280.839 0.0985539 -1.57292 0
M  V30 2937 C 282.069 0.815135 -1.8984 0
M  V30 2938 C 282.477 1.7297 -0.766679 0
M  V30 2939 O 281.82 1.81698 0.270483 0
M  V30 2940 C 281.882 1.6842 -3.17608 0
M  V30 2941 C 281.546 0.94182 -4.4719 0
M  V30 2942 C 282.543 0.273212 -5.19182 0
M  V30 2943 C 280.228 0.916927 -4.9386 0
M  V30 2944 C 282.222 -0.410361 -6.36078 0
M  V30 2945 C 279.909 0.229567 -6.10669 0
M  V30 2946 C 280.907 -0.432902 -6.81627 0
M  V30 2947 O 280.595 -1.10925 -7.9621 0
M  V30 2948 H 280.327 0.238501 -0.632529 0
M  V30 2949 H 282.881 0.0812659 -2.05239 0
M  V30 2950 H 281.111 2.46022 -2.98345 0
M  V30 2951 H 282.8 2.27704 -3.36015 0
M  V30 2952 H 283.566 0.283927 -4.84168 0
M  V30 2953 H 279.445 1.42201 -4.3852 0
M  V30 2954 H 282.989 -0.928013 -6.914 0
M  V30 2955 H 278.886 0.216686 -6.45136 0
M  V30 2956 H 279.654 -1.01579 -8.12172 0
M  V30 2957 N 282.317 1.53212 0.369288 0
M  V30 2958 C 283.565 1.68881 1.11012 0
M  V30 2959 C 283.886 0.441285 1.89941 0
M  V30 2960 O 283.156 -0.544623 1.88177 0
M  V30 2961 H 281.736 0.622569 0.412816 0
M  V30 2962 H 284.398 1.90391 0.416802 0
M  V30 2963 H 283.494 2.54822 1.80201 0
M  V30 2964 N 283.795 -0.628877 1.44509 0
M  V30 2965 C 284.758 -1.72263 1.51188 0
M  V30 2966 C 285.758 -1.55907 0.39367 0
M  V30 2967 O 286.948 -1.61361 0.656377 0
M  V30 2968 C 284.08 -3.11365 1.38798 0
M  V30 2969 H 285.273 -1.67714 2.4862 0
M  V30 2970 H 282.826 -0.842737 1.31634 0
M  V30 2971 H 283.561 -3.21507 0.424693 0
M  V30 2972 H 283.346 -3.24644 2.19884 0
M  V30 2973 H 284.836 -3.91075 1.46458 0
M  V30 2974 N 285.273 -1.31445 -0.869486 0
M  V30 2975 C 286.519 -1.21337 -1.62496 0
M  V30 2976 C 286.852 0.227872 -1.92858 0
M  V30 2977 O 286.127 1.16094 -1.56053 0
M  V30 2978 C 286.41 -2.05814 -2.95487 0
M  V30 2979 C 286.263 -3.5824 -2.72 0
M  V30 2980 C 287.582 -1.9079 -3.96594 0
M  V30 2981 H 284.701 -0.442135 -0.589649 0
M  V30 2982 H 287.343 -1.6124 -1.00507 0
M  V30 2983 H 285.493 -1.71913 -3.48394 0
M  V30 2984 H 287.165 -4.0228 -2.25762 0
M  V30 2985 H 285.408 -3.81647 -2.06224 0
M  V30 2986 H 286.079 -4.12657 -3.66631 0
M  V30 2987 H 288.555 -2.20459 -3.52898 0
M  V30 2988 H 287.431 -2.52199 -4.87531 0
M  V30 2989 H 287.692 -0.871341 -4.33428 0
M  V30 2990 N 286.751 1.08385 -1.14413 0
M  V30 2991 C 288.028 1.77429 -0.823297 0
M  V30 2992 C 288.408 1.9974 0.683163 0
M  V30 2993 O 287.756 1.60739 1.62405 0
M  V30 2994 C 287.966 3.09004 -1.62227 0
M  V30 2995 C 289.314 3.83532 -1.82177 0
M  V30 2996 O 290.338 3.18786 -1.58915 0
M  V30 2997 O 289.197 4.99792 -2.21067 0
M  V30 2998 H 286.291 0.769999 -0.301712 0
M  V30 2999 H 288.837 1.14846 -1.24934 0
M  V30 3000 H 287.609 2.88316 -2.64555 0
M  V30 3001 H 287.232 3.79316 -1.19187 0
M  V30 3002 N 288.23 0.939286 1.26551 0
M  V30 3003 C 289.193 0.451987 2.24699 0
M  V30 3004 C 290.193 -0.435869 1.5478 0
M  V30 3005 O 291.383 -0.235314 1.72603 0
M  V30 3006 C 288.515 -0.348801 3.39111 0
M  V30 3007 H 289.708 1.3193 2.69322 0
M  V30 3008 H 287.261 0.721072 1.38673 0
M  V30 3009 H 287.996 -1.23444 2.99887 0
M  V30 3010 H 287.781 0.287945 3.91041 0
M  V30 3011 H 289.271 -0.679726 4.12031 0
M  V30 3012 N 289.708 -1.40897 0.706093 0
M  V30 3013 C 290.957 -2.00284 0.238574 0
M  V30 3014 C 291.27 -1.56604 -1.17194 0
M  V30 3015 O 292.476 -2.08624 -1.73748 0
M  V30 3016 C 290.932 -3.57934 0.375623 0
M  V30 3017 C 290.54 -4.10591 1.79217 0
M  V30 3018 C 292.284 -4.24488 -0.0315857 0
M  V30 3019 C 290.191 -5.60712 1.88032 0
M  V30 3020 H 289.121 -0.749144 0.0854398 0
M  V30 3021 H 291.772 -1.61251 0.875813 0
M  V30 3022 H 290.154 -3.94622 -0.330042 0
M  V30 3023 H 291.328 -3.85301 2.52745 0
M  V30 3024 H 289.643 -3.56601 2.15 0
M  V30 3025 H 292.24 -5.34698 0.0136842 0
M  V30 3026 H 292.583 -4.02261 -1.072 0
M  V30 3027 H 293.116 -3.92873 0.624181 0
M  V30 3028 H 289.855 -5.87781 2.90161 0
M  V30 3029 H 289.375 -5.87896 1.18903 0
M  V30 3030 H 291.054 -6.25658 1.64805 0
M  V30 3031 N 291.186 -0.45159 -1.50991 0
M  V30 3032 C 292.411 0.110667 -2.07105 0
M  V30 3033 C 292.836 1.3446 -1.31538 0
M  V30 3034 O 292.194 1.77743 -0.357365 0
M  V30 3035 C 292.242 0.397238 -3.58405 0
M  V30 3036 O 291.346 1.48124 -3.84881 0
M  V30 3037 H 290.687 -0.00439271 -0.663985 0
M  V30 3038 H 293.217 -0.637026 -1.9443 0
M  V30 3039 H 293.227 0.64351 -4.02893 0
M  V30 3040 H 291.902 -0.504553 -4.12828 0
M  V30 3041 H 290.479 1.22381 -3.52246 0
M  V30 3042 N 292.664 1.56529 -0.183458 0
M  V30 3043 C 293.614 2.1515 0.754605 0
M  V30 3044 C 294.598 1.08904 1.18443 0
M  V30 3045 O 295.79 1.34997 1.14476 0
M  V30 3046 C 292.919 2.80531 1.97881 0
M  V30 3047 C 292.005 3.93952 1.57043 0
M  V30 3048 N 292.396 4.98221 0.87231 0
M  V30 3049 C 290.694 4.05338 1.86057 0
M  V30 3050 C 291.395 5.77836 0.669377 0
M  V30 3051 N 290.371 5.29858 1.21454 0
M  V30 3052 H 294.173 2.93132 0.212387 0
M  V30 3053 H 291.687 1.62391 0.0167725 0
M  V30 3054 H 293.684 3.20914 2.6612 0
M  V30 3055 H 292.344 2.04035 2.52586 0
M  V30 3056 H 293.355 5.15191 0.529033 0
M  V30 3057 H 290.032 3.39957 2.42354 0
M  V30 3058 H 291.422 6.71799 0.116422 0
M  V30 3059 N 294.142 -0.090211 1.57342 0
M  V30 3060 C 295.391 -0.791531 1.8552 0
M  V30 3061 C 295.704 -1.79659 0.773441 0
M  V30 3062 O 296.91 -2.54616 0.942497 0
M  V30 3063 C 295.366 -1.45856 3.2902 0
M  V30 3064 C 294.974 -0.493017 4.45279 0
M  V30 3065 C 296.718 -2.14332 3.66418 0
M  V30 3066 C 294.625 -1.16491 5.79814 0
M  V30 3067 H 293.555 -0.299356 0.692027 0
M  V30 3068 H 296.206 -0.0445343 1.83446 0
M  V30 3069 H 294.588 -2.25318 3.2565 0
M  V30 3070 H 295.762 0.270464 4.60006 0
M  V30 3071 H 294.077 0.0863061 4.16311 0
M  V30 3072 H 296.674 -2.65344 4.64216 0
M  V30 3073 H 297.017 -2.93447 2.95287 0
M  V30 3074 H 297.55 -1.41724 3.71698 0
M  V30 3075 H 294.289 -0.41447 6.54188 0
M  V30 3076 H 293.809 -1.8997 5.68921 0
M  V30 3077 H 295.488 -1.69001 6.24538 0
M  V30 3078 N 295.62 -1.53406 -0.361157 0
M  V30 3079 C 296.55 -1.83136 -1.44857 0
M  V30 3080 C 297.531 -0.685174 -1.5569 0
M  V30 3081 O 298.716 -0.93544 -1.70186 0
M  V30 3082 C 295.846 -2.02522 -2.82138 0
M  V30 3083 C 294.8 -3.18302 -2.86126 0
M  V30 3084 C 294.126 -3.22989 -4.26125 0
M  V30 3085 C 295.426 -4.56796 -2.53248 0
M  V30 3086 H 297.12 -2.74201 -1.20226 0
M  V30 3087 H 294.666 -1.31938 -0.576922 0
M  V30 3088 H 296.619 -2.21904 -3.58241 0
M  V30 3089 H 295.343 -1.08172 -3.08166 0
M  V30 3090 H 294.002 -2.98747 -2.12475 0
M  V30 3091 H 293.65 -2.26267 -4.49235 0
M  V30 3092 H 293.35 -4.00781 -4.29708 0
M  V30 3093 H 294.874 -3.44559 -5.04094 0
M  V30 3094 H 296.288 -4.7631 -3.19064 0
M  V30 3095 H 294.685 -5.36862 -2.68141 0
M  V30 3096 H 295.755 -4.61606 -1.48484 0
M  V30 3097 N 297.098 0.621204 -1.44841 0
M  V30 3098 C 298.008 1.7612 -1.5498 0
M  V30 3099 C 299.024 1.68477 -0.434927 0
M  V30 3100 O 300.2 1.89076 -0.693693 0
M  V30 3101 C 297.265 3.1254 -1.50065 0
M  V30 3102 C 296.326 3.31741 -2.72482 0
M  V30 3103 C 295.559 4.61653 -2.67792 0
M  V30 3104 O 295.782 5.431 -1.74352 0
M  V30 3105 O 294.716 4.83271 -3.58794 0
M  V30 3106 H 298.542 1.70518 -2.51311 0
M  V30 3107 H 296.127 0.783643 -1.27198 0
M  V30 3108 H 298.009 3.93844 -1.49882 0
M  V30 3109 H 296.684 3.18663 -0.568806 0
M  V30 3110 H 295.591 2.50077 -2.7823 0
M  V30 3111 H 296.924 3.30486 -3.64746 0
M  V30 3112 N 298.576 1.31904 0.862503 0
M  V30 3113 C 299.806 1.24817 1.64634 0
M  V30 3114 C 300.214 -0.187579 1.88268 0
M  V30 3115 O 299.557 -1.13253 1.44635 0
M  V30 3116 C 299.619 1.92996 3.03303 0
M  V30 3117 C 299.283 3.42336 3.02746 0
M  V30 3118 C 300.28 4.37956 2.80162 0
M  V30 3119 C 297.965 3.84147 3.2363 0
M  V30 3120 C 299.959 5.73361 2.78453 0
M  V30 3121 C 297.646 5.19663 3.21549 0
M  V30 3122 C 298.644 6.14081 2.98988 0
M  V30 3123 O 298.332 7.47118 2.96766 0
M  V30 3124 H 298.064 0.432222 0.519769 0
M  V30 3125 H 300.618 1.7445 1.08427 0
M  V30 3126 H 298.848 1.37922 3.61268 0
M  V30 3127 H 300.537 1.79723 3.63943 0
M  V30 3128 H 301.303 4.06981 2.63802 0
M  V30 3129 H 297.182 3.11083 3.40218 0
M  V30 3130 H 300.726 6.4703 2.60763 0
M  V30 3131 H 296.623 5.5027 3.37451 0
M  V30 3132 H 297.391 7.56382 3.12775 0
M  V30 3133 N 300.054 -1.07777 1.14986 0
M  V30 3134 C 301.284 -1.83752 0.944402 0
M  V30 3135 C 301.692 -1.8218 -0.51058 0
M  V30 3136 O 301.035 -1.22852 -1.36576 0
M  V30 3137 C 301.097 -3.32128 1.37592 0
M  V30 3138 C 300.761 -3.57425 2.84775 0
M  V30 3139 C 301.758 -3.5173 3.8286 0
M  V30 3140 C 299.443 -3.8523 3.2234 0
M  V30 3141 C 301.437 -3.73482 5.16517 0
M  V30 3142 C 299.124 -4.06634 4.56171 0
M  V30 3143 C 300.122 -4.00754 5.53069 0
M  V30 3144 O 299.81 -4.2159 6.84483 0
M  V30 3145 H 299.542 -0.58673 0.335744 0
M  V30 3146 H 302.096 -1.36982 1.53052 0
M  V30 3147 H 300.326 -3.79686 0.733165 0
M  V30 3148 H 302.015 -3.89555 1.14024 0
M  V30 3149 H 302.781 -3.30256 3.55184 0
M  V30 3150 H 298.66 -3.88923 2.47508 0
M  V30 3151 H 302.204 -3.68808 5.92137 0
M  V30 3152 H 298.101 -4.27593 4.83564 0
M  V30 3153 H 298.869 -4.38961 6.90837 0
M  V30 3154 N 301.532 -0.945985 -1.26051 0
M  V30 3155 C 302.779 -0.596118 -1.93527 0
M  V30 3156 C 303.107 0.865559 -1.74179 0
M  V30 3157 O 302.362 1.63524 -1.0751 0
M  V30 3158 C 302.661 -0.890475 -3.46129 0
M  V30 3159 C 302.327 -2.3368 -3.85622 0
M  V30 3160 C 300.989 -2.73216 -3.96114 0
M  V30 3161 C 303.341 -3.27648 -4.05334 0
M  V30 3162 C 300.669 -4.05806 -4.2372 0
M  V30 3163 C 303.021 -4.59841 -4.3443 0
M  V30 3164 C 301.685 -4.99185 -4.43137 0
M  V30 3165 H 300.955 -0.218135 -0.708165 0
M  V30 3166 H 303.602 -1.1934 -1.49768 0
M  V30 3167 H 301.907 -0.210711 -3.91233 0
M  V30 3168 H 303.604 -0.598478 -3.96509 0
M  V30 3169 H 300.194 -2.02015 -3.78005 0
M  V30 3170 H 304.378 -2.98298 -3.96651 0
M  V30 3171 H 299.634 -4.35945 -4.28675 0
M  V30 3172 H 303.808 -5.32641 -4.48628 0
M  V30 3173 H 301.435 -6.01952 -4.64282 0
M  V30 3174 N 303.011 1.40521 -0.713556 0
M  V30 3175 C 304.288 1.94775 -0.17943 0
M  V30 3176 C 304.668 1.65184 1.31444 0
M  V30 3177 O 304.016 0.968429 2.06963 0
M  V30 3178 C 304.226 3.45543 -0.489986 0
M  V30 3179 C 305.574 4.22442 -0.427536 0
M  V30 3180 O 306.598 3.53644 -0.425929 0
M  V30 3181 O 305.457 5.4501 -0.403292 0
M  V30 3182 H 302.551 0.826606 -0.0255192 0
M  V30 3183 H 305.097 1.5014 -0.790949 0
M  V30 3184 H 303.869 3.60432 -1.5233 0
M  V30 3185 H 303.492 3.97311 0.151598 0
M  V30 3186 N 304.489 0.459591 1.5075 0
M  V30 3187 C 305.737 -0.0991532 2.01857 0
M  V30 3188 C 306.058 -1.41247 1.34441 0
M  V30 3189 O 305.328 -1.89775 0.486022 0
M  V30 3190 H 303.908 -0.039633 0.745948 0
M  V30 3191 H 306.57 0.607387 1.85194 0
M  V30 3192 H 305.666 -0.258998 3.11023 0
M  V30 3193 N 305.967 -1.56429 0.191757 0
M  V30 3194 C 307.192 -2.02309 -0.456706 0
M  V30 3195 C 307.617 -1.07103 -1.5463 0
M  V30 3196 O 306.975 -0.0539677 -1.8122 0
M  V30 3197 C 307.023 -3.46654 -0.993159 0
M  V30 3198 O 306.127 -3.54559 -2.10622 0
M  V30 3199 H 305.468 -0.655303 -0.107114 0
M  V30 3200 H 307.998 -2.02364 0.301653 0
M  V30 3201 H 308.008 -3.86377 -1.31061 0
M  V30 3202 H 306.683 -4.1544 -0.195504 0
M  V30 3203 H 305.26 -3.26708 -1.79767 0
M  V30 3204 N 307.445 0.0818655 -1.57387 0
M  V30 3205 C 308.67 0.799946 -1.91352 0
M  V30 3206 C 309.095 1.70833 -0.787258 0
M  V30 3207 O 308.453 1.79419 0.26048 0
M  V30 3208 C 308.501 1.57812 -3.24234 0
M  V30 3209 O 307.605 2.68806 -3.12757 0
M  V30 3210 H 306.946 0.21891 -0.626877 0
M  V30 3211 H 309.476 0.0531256 -2.04531 0
M  V30 3212 H 309.486 1.95952 -3.57864 0
M  V30 3213 H 308.161 0.911548 -4.05788 0
M  V30 3214 H 306.738 2.33597 -2.90666 0
M  V30 3215 N 308.923 1.53595 0.353017 0
M  V30 3216 C 310.334 1.61937 0.929153 0
M  V30 3217 C 310.685 0.494686 1.89861 0
M  V30 3218 O 309.81 -0.377017 2.1309 0
M  V30 3219 C 310.405 2.93526 1.69199 0
M  V30 3220 C 308.964 3.04161 2.21727 0
M  V30 3221 C 308.111 2.57322 1.03348 0
M  V30 3222 H 311.062 1.58155 0.131431 0
M  V30 3223 H 311.083 2.82034 2.55416 0
M  V30 3224 H 310.595 3.75362 0.986144 0
M  V30 3225 H 308.696 2.26938 2.95516 0
M  V30 3226 H 308.809 4.09465 2.48748 0
M  V30 3227 H 307.173 2.12499 1.40414 0
M  V30 3228 H 307.956 3.41588 0.342428 0
M  V30 3229 N 310.401 -0.613514 1.45168 0
M  V30 3230 C 311.311 -1.75296 1.55912 0
M  V30 3231 C 312.327 -1.68244 0.443856 0
M  V30 3232 O 313.503 -1.88706 0.70371 0
M  V30 3233 C 310.568 -3.1174 1.5172 0
M  V30 3234 C 309.629 -3.30291 2.74238 0
M  V30 3235 C 308.862 -4.60226 2.70236 0
M  V30 3236 O 309.085 -5.42168 1.77229 0
M  V30 3237 O 308.019 -4.81361 3.61352 0
M  V30 3238 H 311.845 -1.69183 2.52212 0
M  V30 3239 H 309.43 -0.776886 1.27612 0
M  V30 3240 H 311.312 -3.93044 1.51968 0
M  V30 3241 H 309.987 -3.18357 0.585697 0
M  V30 3242 H 308.894 -2.48598 2.79553 0
M  V30 3243 H 310.227 -3.28547 3.66494 0
M  V30 3244 N 311.879 -1.3236 -0.855495 0
M  V30 3245 C 313.128 -1.22226 -1.60448 0
M  V30 3246 C 313.441 0.214733 -1.94418 0
M  V30 3247 O 314.647 0.437917 -2.67945 0
M  V30 3248 C 313.103 -2.14063 -2.89318 0
M  V30 3249 C 312.711 -3.62839 -2.62777 0
M  V30 3250 C 314.455 -2.12764 -3.67331 0
M  V30 3251 C 312.362 -4.4664 -3.87643 0
M  V30 3252 H 311.292 -0.453904 -0.602069 0
M  V30 3253 H 313.943 -1.57314 -0.944698 0
M  V30 3254 H 312.325 -1.71889 -3.5675 0
M  V30 3255 H 313.499 -4.1335 -2.03662 0
M  V30 3256 H 311.814 -3.66261 -1.98096 0
M  V30 3257 H 314.411 -2.72611 -4.59987 0
M  V30 3258 H 314.754 -1.11841 -4.00995 0
M  V30 3259 H 315.287 -2.53214 -3.06802 0
M  V30 3260 H 312.026 -5.48373 -3.5912 0
M  V30 3261 H 311.546 -4.0088 -4.46156 0
M  V30 3262 H 313.225 -4.59597 -4.55389 0
M  V30 3263 N 313.357 1.07166 -1.15556 0
M  V30 3264 C 314.582 1.84053 -0.955988 0
M  V30 3265 C 315.007 1.81586 0.490739 0
M  V30 3266 O 314.365 1.21018 1.34997 0
M  V30 3267 C 314.413 3.28957 -1.47714 0
M  V30 3268 O 313.517 4.06795 -0.677593 0
M  V30 3269 H 312.858 0.569842 -0.340847 0
M  V30 3270 H 315.388 1.35178 -1.53584 0
M  V30 3271 H 315.398 3.79788 -1.4908 0
M  V30 3272 H 314.073 3.30068 -2.53037 0
M  V30 3273 H 312.65 3.6561 -0.733721 0
M  V30 3274 N 314.835 0.952656 1.25548 0
M  V30 3275 C 315.783 0.462354 2.27958 0
M  V30 3276 C 316.777 -0.46634 1.62855 0
M  V30 3277 O 317.983 -0.343287 1.76696 0
M  V30 3278 H 314.358 0.13101 0.7405 0
M  V30 3279 H 316.329 1.33839 2.66702 0
M  V30 3280 C 315.078 -0.24628 3.46827 0
M  V30 3281 H 314.401 0.459192 3.97154 0
M  V30 3282 H 315.841 -0.553393 4.20373 0
M  V30 3283 C 314.3 -1.4681 3.0323 0
M  V30 3284 O 314.83 -2.56591 3.09069 0
M  V30 3285 N 313.036 -1.32874 2.58443 0
M  V30 3286 H 312.583 -0.435536 2.53891 0
M  V30 3287 H 312.541 -2.14742 2.29637 0
M  V30 3288 N 316.313 -1.40141 0.720998 0
M  V30 3289 C 317.223 -2.34486 0.0731031 0
M  V30 3290 C 318.239 -1.57587 -0.737723 0
M  V30 3291 O 319.415 -1.89949 -0.669429 0
M  V30 3292 C 316.48 -3.36528 -0.833656 0
M  V30 3293 C 315.541 -4.29298 -0.0121673 0
M  V30 3294 C 314.774 -5.26466 -0.875742 0
M  V30 3295 O 314.997 -5.29745 -2.11485 0
M  V30 3296 O 313.931 -6.01092 -0.31185 0
M  V30 3297 H 317.757 -2.9152 0.851444 0
M  V30 3298 H 315.342 -1.41427 0.481527 0
M  V30 3299 H 317.224 -3.99093 -1.35289 0
M  V30 3300 H 315.899 -2.81899 -1.59105 0
M  V30 3301 H 314.806 -3.70001 0.552262 0
M  V30 3302 H 316.139 -4.87094 0.707129 0
M  V30 3303 N 317.792 -0.46758 -1.50504 0
M  V30 3304 C 319.041 0.0902868 -2.01498 0
M  V30 3305 C 319.354 1.411 -1.35463 0
M  V30 3306 O 320.56 2.0536 -1.77594 0
M  V30 3307 C 319.016 0.21142 -3.59278 0
M  V30 3308 C 318.624 -1.10065 -4.34269 0
M  V30 3309 C 320.368 0.721433 -4.18325 0
M  V30 3310 C 318.275 -0.943505 -5.83825 0
M  V30 3311 H 317.205 0.037517 -0.753066 0
M  V30 3312 H 319.856 -0.601943 -1.73346 0
M  V30 3313 H 318.238 0.967352 -3.84003 0
M  V30 3314 H 319.412 -1.86726 -4.21272 0
M  V30 3315 H 317.727 -1.5415 -3.86816 0
M  V30 3316 H 320.324 0.85598 -5.27804 0
M  V30 3317 H 320.667 1.71186 -3.79475 0
M  V30 3318 H 321.2 0.0229843 -3.97793 0
M  V30 3319 H 317.939 -1.90719 -6.27141 0
M  V30 3320 H 317.459 -0.217213 -5.99407 0
M  V30 3321 H 319.138 -0.608715 -6.4413 0
M  V30 3322 N 319.27 1.56325 -0.20005 0
M  V30 3323 C 320.233 2.18084 0.705132 0
M  V30 3324 C 321.233 1.13666 1.1374 0
M  V30 3325 O 322.423 1.39023 1.04968 0
M  V30 3326 C 319.555 2.78689 1.96329 0
M  V30 3327 H 320.748 2.99435 0.167023 0
M  V30 3328 H 318.301 1.56221 0.0495725 0
M  V30 3329 H 319.036 2.0115 2.5438 0
M  V30 3330 H 318.821 3.55133 1.66202 0
M  V30 3331 H 320.311 3.26096 2.60866 0
M  V30 3332 N 320.748 -0.0735177 1.57428 0
M  V30 3333 C 321.658 -1.10547 2.06922 0
M  V30 3334 C 322.674 -1.42506 0.998402 0
M  V30 3335 O 323.85 -1.52717 1.31299 0
M  V30 3336 C 320.915 -2.40019 2.50184 0
M  V30 3337 C 319.976 -2.15046 3.71556 0
M  V30 3338 C 319.209 -3.38345 4.12745 0
M  V30 3339 O 319.432 -4.47399 3.53822 0
M  V30 3340 O 318.366 -3.2666 5.05546 0
M  V30 3341 H 322.192 -0.715013 2.95163 0
M  V30 3342 H 319.777 -0.287531 1.46607 0
M  V30 3343 H 321.659 -3.16218 2.78539 0
M  V30 3344 H 320.334 -2.78447 1.65072 0
M  V30 3345 H 319.241 -1.36558 3.48285 0
M  V30 3346 H 320.574 -1.81499 4.57514 0
M  V30 3347 N 322.226 -1.5378 -0.344866 0
M  V30 3348 C 323.474 -1.70625 -1.08311 0
M  V30 3349 C 323.795 -0.471447 -1.89215 0
M  V30 3350 O 323.065 0.514616 -1.8902 0
M  V30 3351 H 321.645 -0.629058 -0.402859 0
M  V30 3352 H 324.307 -1.9103 -0.386459 0
M  V30 3353 H 323.403 -2.57656 -1.76124 0
M  V30 3354 N 323.704 0.605807 -1.45491 0
M  V30 3355 C 324.932 1.39136 -1.5313 0
M  V30 3356 C 325.347 1.88082 -0.164507 0
M  V30 3357 O 324.704 1.62316 0.834247 0
M  V30 3358 C 324.755 2.59463 -2.51716 0
M  V30 3359 O 324.476 2.12551 -3.83084 0
M  V30 3360 C 325.977 3.52301 -2.6907 0
M  V30 3361 H 323.197 0.425849 -0.51855 0
M  V30 3362 H 325.741 0.73865 -1.90694 0
M  V30 3363 H 323.896 3.20772 -2.17219 0
M  V30 3364 H 324.31 2.90744 -4.36541 0
M  V30 3365 H 325.784 4.33271 -3.42024 0
M  V30 3366 H 326.261 4.02757 -1.75167 0
M  V30 3367 H 326.867 2.96845 -3.04571 0
M  V30 3368 N 325.182 1.32811 0.848464 0
M  V30 3369 C 326.431 1.23075 1.59798 0
M  V30 3370 C 326.744 -0.204419 1.94529 0
M  V30 3371 O 327.95 -0.423701 2.68173 0
M  V30 3372 C 326.406 2.15594 2.88179 0
M  V30 3373 C 326.014 3.64228 2.60849 0
M  V30 3374 C 327.758 2.14709 3.66197 0
M  V30 3375 C 325.665 4.48689 3.85269 0
M  V30 3376 H 324.595 0.457091 0.599653 0
M  V30 3377 H 327.246 1.57813 0.936342 0
M  V30 3378 H 325.628 1.73778 3.55833 0
M  V30 3379 H 326.802 4.14424 2.01467 0
M  V30 3380 H 325.117 3.67306 1.96151 0
M  V30 3381 H 327.714 2.75046 4.58534 0
M  V30 3382 H 328.057 1.13966 4.00397 0
M  V30 3383 H 328.59 2.54837 3.05455 0
M  V30 3384 H 325.329 5.5027 3.56207 0
M  V30 3385 H 324.849 4.03241 4.44024 0
M  V30 3386 H 326.528 4.62006 4.52946 0
M  V30 3387 N 326.66 -1.06551 1.16123 0
M  V30 3388 C 328.076 -1.3142 0.905585 0
M  V30 3389 C 328.276 -1.96571 -0.442964 0
M  V30 3390 O 327.332 -2.23068 -1.18308 0
M  V30 3391 C 328.645 -2.19741 2.05267 0
M  V30 3392 C 330.193 -2.33165 2.08813 0
M  V30 3393 C 330.668 -3.24838 3.22868 0
M  V30 3394 N 332.159 -3.32421 3.22568 0
M  V30 3395 C 332.894 -4.0344 4.0746 0
M  V30 3396 N 332.39 -4.77003 5.02434 0
M  V30 3397 N 334.183 -3.99464 3.95456 0
M  V30 3398 H 326.334 -0.626548 2.02949 0
M  V30 3399 H 328.597 -0.338777 0.8854 0
M  V30 3400 H 328.303 -1.79142 3.02657 0
M  V30 3401 H 328.177 -3.20313 1.99198 0
M  V30 3402 H 330.564 -2.73013 1.12018 0
M  V30 3403 H 330.645 -1.3227 2.18948 0
M  V30 3404 H 330.289 -2.85708 4.19921 0
M  V30 3405 H 330.219 -4.25707 3.0997 0
M  V30 3406 H 332.71 -2.79994 2.53795 0
M  V30 3407 H 333.023 -5.28712 5.63634 0
M  V30 3408 H 331.368 -4.75992 5.06415 0
M  V30 3409 H 334.559 -3.4111 3.20564 0
M  V30 3410 H 334.732 -4.54544 4.61837 0
M  V30 3411 N 328.138 -0.959301 -1.25041 0
M  V30 3412 C 329.366 -0.633949 -1.96948 0
M  V30 3413 C 329.781 0.794916 -1.7125 0
M  V30 3414 O 329.138 1.53231 -0.991287 0
M  V30 3415 C 329.189 -0.888805 -3.50403 0
M  V30 3416 O 328.91 -2.26149 -3.75218 0
M  V30 3417 C 330.411 -0.576482 -4.39536 0
M  V30 3418 H 327.631 -0.237263 -0.627652 0
M  V30 3419 H 330.175 -1.28495 -1.59089 0
M  V30 3420 H 328.33 -0.284145 -3.86357 0
M  V30 3421 H 328.744 -2.33514 -4.6965 0
M  V30 3422 H 330.218 -0.805314 -5.46094 0
M  V30 3423 H 330.695 0.489075 -4.36468 0
M  V30 3424 H 331.301 -1.16067 -4.09156 0
M  V30 3425 N 329.616 1.39756 -0.72842 0
M  V30 3426 C 330.865 1.99879 -0.270407 0
M  V30 3427 C 331.178 1.58449 1.14688 0
M  V30 3428 O 332.384 2.11362 1.70407 0
M  V30 3429 C 330.84 3.57292 -0.43252 0
M  V30 3430 C 330.448 4.07688 -1.85727 0
M  V30 3431 C 332.192 4.24485 -0.0359507 0
M  V30 3432 C 330.099 5.5765 -1.96928 0
M  V30 3433 H 329.029 0.747689 -0.0973472 0
M  V30 3434 H 331.68 1.59837 -0.901355 0
M  V30 3435 H 330.062 3.95097 0.267219 0
M  V30 3436 H 331.236 3.81231 -2.58843 0
M  V30 3437 H 329.551 3.53135 -2.20646 0
M  V30 3438 H 332.148 5.34609 -0.0987484 0
M  V30 3439 H 332.491 4.03915 1.00787 0
M  V30 3440 H 333.024 3.9183 -0.686604 0
M  V30 3441 H 329.763 5.8309 -2.99476 0
M  V30 3442 H 329.283 5.8593 -1.28241 0
M  V30 3443 H 330.962 6.22957 -1.74737 0
M  V30 3444 N 331.094 0.475555 1.50254 0
M  V30 3445 C 332.027 -0.362381 2.25304 0
M  V30 3446 C 333.005 -0.992393 1.28803 0
M  V30 3447 O 334.189 -1.02746 1.58036 0
M  V30 3448 C 331.316 -1.50813 3.03271 0
M  V30 3449 C 330.362 -0.995044 4.1473 0
M  V30 3450 S 331.195 0.0938436 5.35418 0
M  V30 3451 C 332.351 -1.05567 6.16933 0
M  V30 3452 H 332.584 0.274686 2.96028 0
M  V30 3453 H 330.117 0.260495 1.52187 0
M  V30 3454 H 332.075 -2.16476 3.48781 0
M  V30 3455 H 330.736 -2.11672 2.32064 0
M  V30 3456 H 329.929 -1.85293 4.68703 0
M  V30 3457 H 329.531 -0.416052 3.71679 0
M  V30 3458 H 331.823 -1.96636 6.48337 0
M  V30 3459 H 332.766 -0.555109 7.05921 0
M  V30 3460 H 333.174 -1.31151 5.49053 0
M  V30 3461 N 332.573 -1.56217 0.208337 0
M  V30 3462 C 333.52 -2.19699 -0.707192 0
M  V30 3463 C 334.49 -1.14836 -1.20008 0
M  V30 3464 O 335.675 -1.4314 -1.26157 0
M  V30 3465 C 332.815 -2.87061 -1.91546 0
M  V30 3466 C 331.928 -4.06483 -1.46271 0
M  V30 3467 C 331.063 -4.61665 -2.62752 0
M  V30 3468 C 330.102 -5.73417 -2.14147 0
M  V30 3469 N 329.239 -6.22948 -3.23853 0
M  V30 3470 H 334.079 -2.97575 -0.159111 0
M  V30 3471 H 331.616 -1.46948 -0.0667874 0
M  V30 3472 H 333.574 -3.24294 -2.62468 0
M  V30 3473 H 332.204 -2.11725 -2.43664 0
M  V30 3474 H 331.256 -3.74825 -0.648886 0
M  V30 3475 H 332.568 -4.87271 -1.06622 0
M  V30 3476 H 331.722 -5.01272 -3.41776 0
M  V30 3477 H 330.461 -3.80013 -3.05682 0
M  V30 3478 H 329.466 -5.33326 -1.33581 0
M  V30 3479 H 330.691 -6.56897 -1.72232 0
M  V30 3480 H 328.637 -5.44213 -3.6629 0
M  V30 3481 H 328.554 -6.98823 -2.88414 0
M  V30 3482 H 329.822 -6.6721 -4.03052 0
M  V30 3483 N 334.051 0.0651679 -1.57465 0
M  V30 3484 C 334.984 1.10876 -1.99453 0
M  V30 3485 C 335.962 1.37205 -0.872555 0
M  V30 3486 O 337.146 1.50468 -1.13542 0
M  V30 3487 C 334.273 2.45167 -2.3369 0
M  V30 3488 C 333.319 2.3493 -3.55964 0
M  V30 3489 S 334.152 1.73708 -5.06543 0
M  V30 3490 C 335.308 3.09563 -5.43987 0
M  V30 3491 H 335.541 0.750967 -2.87659 0
M  V30 3492 H 333.074 0.273933 -1.51951 0
M  V30 3493 H 335.032 3.22412 -2.54088 0
M  V30 3494 H 333.693 2.78105 -1.46001 0
M  V30 3495 H 332.886 3.3398 -3.77457 0
M  V30 3496 H 332.488 1.65823 -3.3523 0
M  V30 3497 H 334.78 4.05882 -5.42463 0
M  V30 3498 H 335.723 2.92843 -6.44708 0
M  V30 3499 H 336.131 3.10474 -4.71451 0
M  V30 3500 N 335.529 1.53961 0.336706 0
M  V30 3501 C 336.757 1.75483 1.09605 0
M  V30 3502 C 337.172 0.4972 1.82136 0
M  V30 3503 O 336.529 -0.53149 1.74589 0
M  V30 3504 C 336.58 2.93943 2.10428 0
M  V30 3505 O 336.301 4.14842 1.40846 0
M  V30 3506 C 337.802 3.27571 2.98684 0
M  V30 3507 H 335.022 0.586166 0.326574 0
M  V30 3508 H 337.566 2.00808 0.38683 0
M  V30 3509 H 335.721 2.70929 2.76905 0
M  V30 3510 H 336.135 4.81383 2.08255 0
M  V30 3511 H 337.609 4.13791 3.6535 0
M  V30 3512 H 338.086 2.44168 3.65074 0
M  V30 3513 H 338.692 3.52615 2.37787 0
M  V30 3514 N 337.007 -0.598083 1.45811 0
M  V30 3515 C 337.917 -1.73632 1.57763 0
M  V30 3516 C 338.933 -1.67763 0.461676 0
M  V30 3517 O 340.109 -1.87949 0.723685 0
M  V30 3518 C 337.174 -3.10114 1.55018 0
M  V30 3519 C 336.235 -3.27364 2.77726 0
M  V30 3520 C 335.468 -4.57334 2.75102 0
M  V30 3521 O 335.691 -5.40258 1.8297 0
M  V30 3522 O 334.625 -4.77502 3.66437 0
M  V30 3523 H 338.451 -1.66498 2.53992 0
M  V30 3524 H 336.036 -0.763308 1.28429 0
M  V30 3525 H 337.918 -3.9141 1.56129 0
M  V30 3526 H 336.593 -3.17718 0.619431 0
M  V30 3527 H 335.5 -2.45619 2.82174 0
M  V30 3528 H 336.833 -3.24641 3.69958 0
M  V30 3529 N 338.485 -1.33259 -0.841409 0
M  V30 3530 C 339.901 -1.12538 -1.13169 0
M  V30 3531 C 340.101 0.0854037 -2.01319 0
M  V30 3532 O 339.157 0.766417 -2.40587 0
M  V30 3533 C 340.47 -2.41156 -1.79623 0
M  V30 3534 C 342.018 -2.47038 -1.922 0
M  V30 3535 C 342.493 -3.7561 -2.6207 0
M  V30 3536 N 343.984 -3.76667 -2.69585 0
M  V30 3537 C 344.719 -4.72861 -3.2433 0
M  V30 3538 N 344.215 -5.79428 -3.79783 0
M  V30 3539 N 346.008 -4.6034 -3.22558 0
M  V30 3540 H 338.159 -2.10868 -0.254676 0
M  V30 3541 H 340.422 -0.931615 -0.175493 0
M  V30 3542 H 340.128 -3.29747 -1.22311 0
M  V30 3543 H 340.002 -2.53114 -2.79666 0
M  V30 3544 H 342.389 -1.58898 -2.48667 0
M  V30 3545 H 342.47 -2.39022 -0.911148 0
M  V30 3546 H 342.114 -4.64131 -2.06263 0
M  V30 3547 H 342.044 -3.80902 -3.63622 0
M  V30 3548 H 344.535 -2.99648 -2.30259 0
M  V30 3549 H 344.848 -6.48867 -4.19752 0
M  V30 3550 H 343.193 -5.83166 -3.78078 0
M  V30 3551 H 346.384 -3.76244 -2.78492 0
M  V30 3552 H 346.557 -5.35478 -3.64921 0
M  V30 3553 N 339.963 1.05934 -1.16686 0
M  V30 3554 C 340.893 2.1546 -0.899949 0
M  V30 3555 C 341.874 1.69391 0.155154 0
M  V30 3556 O 343.059 1.94199 0.00648693 0
M  V30 3557 C 340.189 3.44939 -0.404241 0
M  V30 3558 C 339.143 4.04536 -1.39767 0
M  V30 3559 C 338.469 5.29268 -0.760216 0
M  V30 3560 C 339.769 4.42893 -2.76845 0
M  V30 3561 H 341.463 2.38046 -1.81588 0
M  V30 3562 H 339.009 1.14404 -0.874514 0
M  V30 3563 H 340.962 4.20901 -0.204971 0
M  V30 3564 H 339.686 3.21983 0.547206 0
M  V30 3565 H 338.345 3.30635 -1.58355 0
M  V30 3566 H 337.993 5.02611 0.197831 0
M  V30 3567 H 337.693 5.70101 -1.42332 0
M  V30 3568 H 339.217 6.07924 -0.57105 0
M  V30 3569 H 340.631 5.09921 -2.62019 0
M  V30 3570 H 339.028 4.94721 -3.39663 0
M  V30 3571 H 340.098 3.53584 -3.31823 0
M  V30 3572 N 341.441 0.965919 1.2453 0
M  V30 3573 C 342.69 0.622437 1.91856 0
M  V30 3574 C 343.003 -0.846006 1.76358 0
M  V30 3575 O 344.209 -1.29993 2.38357 0
M  V30 3576 C 342.665 1.0626 3.43856 0
M  V30 3577 C 342.273 2.55437 3.68043 0
M  V30 3578 C 344.017 0.792183 4.17043 0
M  V30 3579 C 341.924 2.93196 5.13605 0
M  V30 3580 H 340.854 0.229092 0.718354 0
M  V30 3581 H 343.505 1.17189 1.41206 0
M  V30 3582 H 341.887 0.441476 3.93531 0
M  V30 3583 H 343.061 3.22665 3.28974 0
M  V30 3584 H 341.376 2.8007 3.08139 0
M  V30 3585 H 343.973 1.05031 5.24283 0
M  V30 3586 H 344.316 -0.271584 4.15413 0
M  V30 3587 H 344.849 1.37419 3.73311 0
M  V30 3588 H 341.588 3.98636 5.20355 0
M  V30 3589 H 341.108 2.30651 5.53679 0
M  V30 3590 H 342.787 2.83004 5.81823 0
M  V30 3591 N 342.919 -1.39368 0.735821 0
M  V30 3592 C 343.829 -2.34395 0.0979693 0
M  V30 3593 C 344.845 -1.58361 -0.720968 0
M  V30 3594 O 346.021 -1.90648 -0.649245 0
M  V30 3595 C 343.086 -3.37393 -0.797916 0
M  V30 3596 C 342.147 -4.29287 0.0333662 0
M  V30 3597 C 341.38 -5.27365 -0.819854 0
M  V30 3598 O 341.603 -5.31959 -2.05855 0
M  V30 3599 O 340.537 -6.01389 -0.248079 0
M  V30 3600 H 344.363 -2.90601 0.882315 0
M  V30 3601 H 341.948 -1.40909 0.4965 0
M  V30 3602 H 343.83 -4.00505 -1.31048 0
M  V30 3603 H 342.505 -2.83571 -1.56106 0
M  V30 3604 H 341.412 -3.69395 0.591475 0
M  V30 3605 H 342.745 -4.86317 0.758752 0
M  V30 3606 N 344.397 -0.483516 -1.5 0
M  V30 3607 C 345.344 0.304164 -2.28787 0
M  V30 3608 C 346.314 0.976114 -1.34392 0
M  V30 3609 O 347.499 0.986156 -1.63339 0
M  V30 3610 C 344.639 1.37298 -3.16612 0
M  V30 3611 C 343.752 0.714561 -4.26049 0
M  V30 3612 C 342.887 1.76232 -5.01114 0
M  V30 3613 C 341.926 1.08483 -6.0241 0
M  V30 3614 N 341.063 2.076 -6.70706 0
M  V30 3615 H 345.903 -0.373981 -2.95644 0
M  V30 3616 H 343.44 -0.196275 -1.45785 0
M  V30 3617 H 345.398 2.00445 -3.65893 0
M  V30 3618 H 344.028 2.02012 -2.51776 0
M  V30 3619 H 343.08 -0.0297798 -3.80388 0
M  V30 3620 H 344.392 0.180383 -4.98474 0
M  V30 3621 H 343.546 2.46929 -5.54176 0
M  V30 3622 H 342.285 2.33033 -4.28424 0
M  V30 3623 H 341.29 0.363545 -5.48597 0
M  V30 3624 H 342.515 0.523551 -6.77079 0
M  V30 3625 H 340.461 2.63394 -6.00799 0
M  V30 3626 H 340.378 1.59201 -7.39047 0
M  V30 3627 H 341.646 2.77639 -7.2838 0
M  V30 3628 N 345.875 1.56104 -0.216619 0
M  V30 3629 C 347.286 1.844 0.292128 0
M  V30 3630 C 347.637 1.13788 1.59833 0
M  V30 3631 O 346.762 0.405888 2.12559 0
M  V30 3632 C 347.357 3.3452 0.53681 0
M  V30 3633 C 345.916 3.63151 0.989876 0
M  V30 3634 C 345.063 2.77255 0.0502302 0
M  V30 3635 H 348.014 1.52481 -0.439926 0
M  V30 3636 H 348.035 3.54459 1.38345 0
M  V30 3637 H 347.547 3.85885 -0.414031 0
M  V30 3638 H 345.648 3.17238 1.95425 0
M  V30 3639 H 345.761 4.71177 0.867698 0
M  V30 3640 H 344.125 2.48555 0.556117 0
M  V30 3641 H 344.908 3.31416 -0.89544 0
M  V30 3642 N 347.353 -0.0568162 1.57498 0
M  V30 3643 C 348.63 -0.786954 1.79071 0
M  V30 3644 C 349.01 -1.95028 0.80792 0
M  V30 3645 O 348.358 -2.27968 -0.155858 0
M  V30 3646 C 348.568 -1.24594 3.26002 0
M  V30 3647 C 349.916 -1.67323 3.90241 0
M  V30 3648 O 350.94 -1.34124 3.29984 0
M  V30 3649 O 349.799 -2.28842 4.9628 0
M  V30 3650 H 346.893 -0.378262 0.735423 0
M  V30 3651 H 349.439 -0.035734 1.69662 0
M  V30 3652 H 348.211 -0.41423 3.89101 0
M  V30 3653 H 347.834 -2.05803 3.40192 0
M  V30 3654 N 348.832 -1.54138 -0.328536 0
M  V30 3655 C 350.109 -1.62749 -1.08499 0
M  V30 3656 C 350.489 -0.458198 -2.06067 0
M  V30 3657 O 349.837 0.548046 -2.2183 0
M  V30 3658 C 350.047 -2.99519 -1.79135 0
M  V30 3659 C 351.395 -3.55394 -2.32337 0
M  V30 3660 O 352.419 -3.01792 -1.89209 0
M  V30 3661 O 351.278 -4.49186 -3.11279 0
M  V30 3662 H 348.372 -0.65886 -0.499832 0
M  V30 3663 H 350.918 -1.66484 -0.328826 0
M  V30 3664 H 349.69 -3.76061 -1.08139 0
M  V30 3665 H 349.313 -2.99441 -2.61574 0
M  V30 3666 N 350.31 0.590341 -1.46126 0
M  V30 3667 C 351.54 1.37304 -1.54373 0
M  V30 3668 C 351.948 1.88332 -0.181071 0
M  V30 3669 O 351.291 1.63852 0.830559 0
M  V30 3670 C 351.353 2.6012 -2.48149 0
M  V30 3671 C 351.017 2.30613 -3.94546 0
M  V30 3672 C 352.014 1.89915 -4.83971 0
M  V30 3673 C 349.699 2.42993 -4.39613 0
M  V30 3674 C 351.693 1.61981 -6.16475 0
M  V30 3675 C 349.38 2.14672 -5.72153 0
M  V30 3676 C 350.378 1.7423 -6.60404 0
M  V30 3677 O 350.066 1.46251 -7.90485 0
M  V30 3678 H 349.798 0.426086 -0.524811 0
M  V30 3679 H 352.352 0.72539 -1.92165 0
M  V30 3680 H 350.582 3.27664 -2.05361 0
M  V30 3681 H 352.271 3.22182 -2.46887 0
M  V30 3682 H 353.037 1.79872 -4.50412 0
M  V30 3683 H 348.916 2.73435 -3.71153 0
M  V30 3684 H 352.46 1.30341 -6.85315 0
M  V30 3685 H 348.357 2.24337 -6.05263 0
M  V30 3686 H 349.125 1.6016 -8.02677 0
M  V30 3687 N 351.788 1.33704 0.83433 0
M  V30 3688 C 352.698 1.26382 1.97648 0
M  V30 3689 C 353.714 0.173548 1.73132 0
M  V30 3690 O 354.89 0.397962 1.97429 0
M  V30 3691 C 351.955 1.00769 3.31733 0
M  V30 3692 C 351.016 2.1884 3.69334 0
M  V30 3693 C 350.249 1.9444 4.9702 0
M  V30 3694 O 350.472 0.896961 5.63303 0
M  V30 3695 O 349.406 2.81093 5.32231 0
M  V30 3696 H 353.232 2.22444 2.06767 0
M  V30 3697 H 350.817 1.13795 0.968037 0
M  V30 3698 H 352.699 0.882186 4.12062 0
M  V30 3699 H 351.374 0.0773783 3.23608 0
M  V30 3700 H 350.281 2.36946 2.89495 0
M  V30 3701 H 351.614 3.10221 3.82131 0
M  V30 3702 N 353.266 -1.05314 1.17247 0
M  V30 3703 C 354.229 -2.112 0.890357 0
M  V30 3704 C 355.229 -1.60359 -0.118943 0
M  V30 3705 O 356.419 -1.73833 0.113086 0
M  V30 3706 C 353.551 -3.39266 0.333422 0
M  V30 3707 H 354.744 -2.37659 1.82916 0
M  V30 3708 H 352.297 -1.21538 0.982758 0
M  V30 3709 H 353.032 -3.18462 -0.612587 0
M  V30 3710 H 352.817 -3.77477 1.06082 0
M  V30 3711 H 354.307 -4.17315 0.154322 0
M  V30 3712 N 354.744 -0.972509 -1.24016 0
M  V30 3713 C 356.16 -0.679827 -1.44397 0
M  V30 3714 C 356.36 0.756716 -1.86751 0
M  V30 3715 O 355.416 1.53007 -2.00861 0
M  V30 3716 C 356.729 -1.66803 -2.50195 0
M  V30 3717 C 358.277 -1.68119 -2.64017 0
M  V30 3718 C 358.752 -2.65748 -3.73017 0
M  V30 3719 N 360.243 -2.64219 -3.8045 0
M  V30 3720 C 360.978 -3.36433 -4.64328 0
M  V30 3721 N 360.474 -4.1818 -5.52356 0
M  V30 3722 N 362.267 -3.25235 -4.58453 0
M  V30 3723 H 354.418 -1.90059 -0.948228 0
M  V30 3724 H 356.681 -0.818527 -0.478245 0
M  V30 3725 H 356.387 -2.69498 -2.25973 0
M  V30 3726 H 356.261 -1.4446 -3.48441 0
M  V30 3727 H 358.648 -0.661319 -2.87594 0
M  V30 3728 H 358.729 -1.94525 -1.66113 0
M  V30 3729 H 358.373 -3.67872 -3.50189 0
M  V30 3730 H 358.303 -2.36619 -4.70446 0
M  V30 3731 H 360.794 -2.04887 -3.17537 0
M  V30 3732 H 361.107 -4.70157 -6.13329 0
M  V30 3733 H 359.452 -4.22273 -5.52006 0
M  V30 3734 H 362.643 -2.60829 -3.88698 0
M  V30 3735 H 362.816 -3.81776 -5.23594 0
M  V30 3736 N 356.222 1.38976 -0.743202 0
M  V30 3737 C 357.185 2.28901 -0.117014 0
M  V30 3738 C 358.185 1.46698 0.658503 0
M  V30 3739 O 359.375 1.67274 0.486305 0
M  V30 3740 C 356.507 3.30309 0.84315 0
M  V30 3741 H 357.7 2.8578 -0.909373 0
M  V30 3742 H 355.253 1.47761 -0.509547 0
M  V30 3743 H 355.988 2.785 1.66157 0
M  V30 3744 H 355.773 3.91029 0.289594 0
M  V30 3745 H 357.263 3.97577 1.2776 0
M  V30 3746 N 357.7 0.491464 1.49741 0
M  V30 3747 C 358.648 -0.305837 2.30581 0
M  V30 3748 C 359.642 -0.971642 1.38764 0
M  V30 3749 O 360.848 -0.90042 1.5586 0
M  V30 3750 H 357.223 -0.117482 0.742767 0
M  V30 3751 H 359.194 0.396093 2.95759 0
M  V30 3752 C 357.943 -1.36319 3.19863 0
M  V30 3753 H 357.266 -0.860258 3.90435 0
M  V30 3754 H 358.706 -1.89323 3.79385 0
M  V30 3755 C 357.165 -2.37621 2.38826 0
M  V30 3756 O 357.695 -3.43311 2.08567 0
M  V30 3757 N 355.901 -2.09849 2.01026 0
M  V30 3758 H 355.448 -1.23922 2.25834 0
M  V30 3759 H 355.406 -2.77859 1.47112 0
M  V30 3760 N 359.178 -1.55987 0.224894 0
M  V30 3761 C 360.108 -2.23426 -0.678457 0
M  V30 3762 C 361.089 -1.20709 -1.19847 0
M  V30 3763 O 362.274 -1.49304 -1.24186 0
M  V30 3764 C 359.404 -2.91676 -1.88527 0
M  V30 3765 C 358.358 -4.00893 -1.49896 0
M  V30 3766 C 357.684 -4.56455 -2.78483 0
M  V30 3767 C 358.984 -5.17769 -0.686461 0
M  V30 3768 H 360.678 -2.99175 -0.116173 0
M  V30 3769 H 358.224 -1.43897 -0.054436 0
M  V30 3770 H 360.177 -3.37547 -2.5227 0
M  V30 3771 H 358.901 -2.1338 -2.47258 0
M  V30 3772 H 357.56 -3.55758 -0.884985 0
M  V30 3773 H 357.208 -3.74886 -3.35365 0
M  V30 3774 H 356.908 -5.30169 -2.53368 0
M  V30 3775 H 358.432 -5.05047 -3.43162 0
M  V30 3776 H 359.846 -5.60001 -1.22767 0
M  V30 3777 H 358.243 -5.97735 -0.532259 0
M  V30 3778 H 359.313 -4.83932 0.306196 0
M  V30 3779 N 360.656 0.0484629 -1.57525 0
M  V30 3780 C 361.619 1.03956 -2.04269 0
M  V30 3781 C 362.619 1.30211 -0.943496 0
M  V30 3782 O 363.809 1.25539 -1.20771 0
M  V30 3783 C 360.941 2.37742 -2.44319 0
M  V30 3784 H 362.134 0.636182 -2.93075 0
M  V30 3785 H 359.687 0.294811 -1.53494 0
M  V30 3786 H 360.422 2.82866 -1.5861 0
M  V30 3787 H 360.207 2.20021 -3.24551 0
M  V30 3788 H 361.697 3.08936 -2.80978 0
M  V30 3789 N 362.134 1.5431 0.320358 0
M  V30 3790 C 363.38 1.73859 1.05568 0
M  V30 3791 C 363.735 0.507807 1.85578 0
M  V30 3792 O 363.028 -0.499789 1.84967 0
M  V30 3793 C 363.222 2.95639 2.00828 0
M  V30 3794 C 363.051 4.30444 1.30186 0
M  V30 3795 C 361.821 4.94544 1.03703 0
M  V30 3796 C 364.019 5.0929 0.716138 0
M  V30 3797 N 362.001 6.13172 0.298846 0
M  V30 3798 C 363.372 6.19903 0.109729 0
M  V30 3799 C 365.427 4.94034 0.619269 0
M  V30 3800 C 364.13 7.16924 -0.584153 0
M  V30 3801 C 366.156 5.91369 -0.0609184 0
M  V30 3802 C 365.518 7.01336 -0.656258 0
M  V30 3803 H 361.617 0.688988 0.36989 0
M  V30 3804 H 364.201 1.9177 0.336494 0
M  V30 3805 H 362.372 2.79188 2.70016 0
M  V30 3806 H 364.104 3.03802 2.6737 0
M  V30 3807 H 360.859 4.54536 1.33019 0
M  V30 3808 H 361.283 6.76977 -0.0561964 0
M  V30 3809 H 365.925 4.0916 1.06526 0
M  V30 3810 H 363.643 8.01354 -1.04197 0
M  V30 3811 H 367.229 5.81642 -0.135552 0
M  V30 3812 H 366.109 7.75359 -1.17423 0
M  V30 3813 N 363.613 -0.582584 1.46437 0
M  V30 3814 C 364.838 -1.37168 1.55563 0
M  V30 3815 C 365.263 -1.87061 0.19743 0
M  V30 3816 O 364.621 -1.61572 -0.822451 0
M  V30 3817 C 364.669 -2.53511 2.56446 0
M  V30 3818 O 363.773 -3.54953 2.09958 0
M  V30 3819 H 363.114 -0.408494 0.523477 0
M  V30 3820 H 365.644 -0.706646 1.9201 0
M  V30 3821 H 365.654 -3.00426 2.76058 0
M  V30 3822 H 364.329 -2.16549 3.55076 0
M  V30 3823 H 362.906 -3.14516 2.00334 0
M  V30 3824 N 365.091 -1.34144 -0.827227 0
M  V30 3825 C 366.054 -1.25264 -1.91942 0
M  V30 3826 C 367.054 -0.168866 -1.59911 0
M  V30 3827 O 368.244 -0.421198 -1.69031 0
M  V30 3828 C 365.376 -0.932952 -3.27885 0
M  V30 3829 H 366.569 -2.22357 -2.0124 0
M  V30 3830 H 364.122 -1.1837 -1.0207 0
M  V30 3831 H 364.857 0.0349917 -3.24281 0
M  V30 3832 H 364.642 -1.71682 -3.52516 0
M  V30 3833 H 366.132 -0.895874 -4.07877 0
M  V30 3834 N 366.569 1.04691 -1.17803 0
M  V30 3835 C 367.797 1.81446 -0.99423 0
M  V30 3836 C 368.212 1.83174 0.457459 0
M  V30 3837 O 367.569 1.26265 1.31771 0
M  V30 3838 C 367.62 3.27334 -1.5341 0
M  V30 3839 O 367.341 3.25798 -2.92895 0
M  V30 3840 C 368.842 4.20759 -1.39559 0
M  V30 3841 H 366.062 0.571599 -0.351447 0
M  V30 3842 H 368.606 1.31982 -1.56208 0
M  V30 3843 H 366.761 3.74052 -1.00815 0
M  V30 3844 H 367.175 4.17144 -3.17949 0
M  V30 3845 H 368.649 5.21084 -1.82141 0
M  V30 3846 H 369.126 4.37856 -0.343394 0
M  V30 3847 H 369.732 3.79901 -1.91195 0
M  V30 3848 N 368.047 0.979072 1.23499 0
M  V30 3849 C 369.296 0.642751 1.91185 0
M  V30 3850 C 369.609 -0.827253 1.77245 0
M  V30 3851 O 370.815 -1.27458 2.39722 0
M  V30 3852 C 369.271 1.09901 3.42709 0
M  V30 3853 C 368.879 2.59327 3.65313 0
M  V30 3854 C 370.623 0.836371 4.16179 0
M  V30 3855 C 368.53 2.98627 5.10467 0
M  V30 3856 H 367.46 0.236698 0.715884 0
M  V30 3857 H 370.111 1.1868 1.39955 0
M  V30 3858 H 368.493 0.48319 3.93041 0
M  V30 3859 H 369.667 3.26136 3.25533 0
M  V30 3860 H 367.982 2.83323 3.05151 0
M  V30 3861 H 370.579 1.10586 5.23139 0
M  V30 3862 H 370.922 -0.227509 4.15678 0
M  V30 3863 H 371.455 1.41371 3.71832 0
M  V30 3864 H 368.194 4.04133 5.16098 0
M  V30 3865 H 367.714 2.3651 5.51201 0
M  V30 3866 H 369.393 2.89159 5.78788 0
M  V30 3867 N 369.525 -1.3858 0.750561 0
M  V30 3868 C 370.488 -2.28836 0.129152 0
M  V30 3869 C 371.488 -1.47045 -0.650714 0
M  V30 3870 O 372.678 -1.6753 -0.477428 0
M  V30 3871 C 369.81 -3.30751 -0.825622 0
M  V30 3872 H 371.003 -2.85294 0.924516 0
M  V30 3873 H 368.556 -1.47489 0.517376 0
M  V30 3874 H 369.291 -2.79378 -1.64677 0
M  V30 3875 H 369.076 -3.91177 -0.268852 0
M  V30 3876 H 370.566 -3.98249 -1.2565 0
M  V30 3877 N 371.003 -0.499398 -1.49478 0
M  V30 3878 C 371.933 0.269244 -2.31943 0
M  V30 3879 C 372.914 0.964054 -1.40143 0
M  V30 3880 O 374.099 0.955767 -1.69052 0
M  V30 3881 C 371.229 1.33504 -3.20615 0
M  V30 3882 C 370.183 0.760202 -4.21195 0
M  V30 3883 C 369.509 1.9264 -4.98792 0
M  V30 3884 C 370.809 -0.247661 -5.21712 0
M  V30 3885 H 372.503 -0.419082 -2.96452 0
M  V30 3886 H 370.049 -0.202988 -1.42562 0
M  V30 3887 H 372.002 1.88048 -3.77115 0
M  V30 3888 H 370.726 2.05253 -2.54045 0
M  V30 3889 H 369.385 0.23653 -3.65836 0
M  V30 3890 H 369.033 2.63154 -4.28671 0
M  V30 3891 H 368.733 1.54785 -5.66847 0
M  V30 3892 H 370.257 2.4762 -5.58137 0
M  V30 3893 H 371.671 0.209579 -5.72917 0
M  V30 3894 H 370.068 -0.541962 -5.97648 0
M  V30 3895 H 371.138 -1.16409 -4.7072 0
M  V30 3896 N 372.481 1.55866 -0.233164 0
M  V30 3897 C 373.429 2.22176 0.68851 0
M  V30 3898 C 374.423 1.20487 1.19076 0
M  V30 3899 O 375.629 1.38536 1.14925 0
M  V30 3900 H 372.004 0.712511 0.240483 0
M  V30 3901 H 373.975 2.98212 0.105935 0
M  V30 3902 C 372.724 2.92446 1.88071 0
M  V30 3903 H 372.047 3.70458 1.50337 0
M  V30 3904 H 373.487 3.42226 2.50314 0
M  V30 3905 C 371.946 1.95555 2.74335 0
M  V30 3906 O 372.476 1.47986 3.73447 0
M  V30 3907 N 370.682 1.62953 2.40613 0
M  V30 3908 H 370.229 2.01831 1.60069 0
M  V30 3909 H 370.187 0.983886 2.98609 0
M  V30 3910 N 373.959 -0.0401083 1.57549 0
M  V30 3911 C 375.207 -0.731677 1.8839 0
M  V30 3912 C 375.528 -1.76481 0.829425 0
M  V30 3913 O 374.798 -1.95411 -0.1383 0
M  V30 3914 H 373.378 -0.273225 0.695239 0
M  V30 3915 H 376.04 -0.00867725 1.94898 0
M  V30 3916 H 375.136 -1.22816 2.86919 0
M  V30 3917 N 375.437 -1.54477 -0.31217 0
M  V30 3918 C 376.665 -1.77205 -1.068 0
M  V30 3919 C 377.08 -0.526114 -1.81321 0
M  V30 3920 O 376.437 0.503647 -1.75413 0
M  V30 3921 C 376.488 -2.97253 -2.05725 0
M  V30 3922 O 376.209 -4.1703 -1.34228 0
M  V30 3923 C 377.71 -3.32281 -2.93435 0
M  V30 3924 H 374.93 -0.591287 -0.317208 0
M  V30 3925 H 377.474 -2.01398 -0.354834 0
M  V30 3926 H 375.629 -2.753 -2.72559 0
M  V30 3927 H 376.043 -4.84636 -2.00571 0
M  V30 3928 H 377.517 -4.19551 -3.58721 0
M  V30 3929 H 377.994 -2.49945 -3.61143 0
M  V30 3930 H 378.6 -3.56353 -2.32147 0
M  V30 3931 N 376.915 0.57481 -1.46744 0
M  V30 3932 C 377.848 1.69827 -1.52427 0
M  V30 3933 C 378.826 1.58151 -0.377744 0
M  V30 3934 O 380.01 1.79257 -0.58303 0
M  V30 3935 C 377.137 3.07943 -1.41027 0
M  V30 3936 C 376.183 3.38116 -2.59961 0
M  V30 3937 S 377.016 3.29313 -4.22272 0
M  V30 3938 C 378.172 4.69953 -4.13394 0
M  V30 3939 H 378.405 1.64748 -2.47478 0
M  V30 3940 H 375.938 0.754203 -1.34726 0
M  V30 3941 H 377.896 3.87619 -1.35137 0
M  V30 3942 H 376.557 3.10504 -0.473909 0
M  V30 3943 H 375.75 4.38762 -2.47999 0
M  V30 3944 H 375.352 2.66024 -2.62882 0
M  V30 3945 H 377.644 5.60517 -3.80562 0
M  V30 3946 H 378.587 4.86972 -5.14066 0
M  V30 3947 H 378.995 4.47174 -3.44522 0
M  V30 3948 N 378.394 1.34581 0.820102 0
M  V30 3949 C 379.357 1.2628 1.91275 0
M  V30 3950 C 380.357 0.177344 1.59819 0
M  V30 3951 O 381.547 0.430156 1.68806 0
M  V30 3952 C 378.679 0.950327 3.27386 0
M  V30 3953 H 379.872 2.23421 2.00057 0
M  V30 3954 H 377.425 1.1891 1.0144 0
M  V30 3955 H 378.16 -0.0177938 3.24295 0
M  V30 3956 H 377.945 1.73549 3.51601 0
M  V30 3957 H 379.435 0.917492 4.07396 0
M  V30 3958 N 379.872 -1.04064 1.18357 0
M  V30 3959 C 381.118 -1.77528 0.980397 0
M  V30 3960 C 381.451 -1.87948 -0.48879 0
M  V30 3961 O 380.726 -1.3876 -1.36293 0
M  V30 3962 C 381.009 -3.20797 1.63588 0
M  V30 3963 C 380.862 -3.1832 3.17793 0
M  V30 3964 C 382.181 -4.18911 1.34914 0
M  V30 3965 H 379.3 -0.644443 0.357578 0
M  V30 3966 H 381.942 -1.2156 1.46024 0
M  V30 3967 H 380.092 -3.68586 1.22788 0
M  V30 3968 H 381.764 -2.78521 3.67728 0
M  V30 3969 H 380.007 -2.56351 3.49952 0
M  V30 3970 H 380.678 -4.19489 3.58794 0
M  V30 3971 H 383.154 -3.7967 1.70265 0
M  V30 3972 H 382.03 -5.17374 1.83346 0
M  V30 3973 H 382.291 -4.41262 0.272027 0
M  V30 3974 N 381.35 -0.985608 -1.22978 0
M  V30 3975 C 382.598 -0.656087 -1.91154 0
M  V30 3976 C 382.919 0.813561 -1.77218 0
M  V30 3977 O 382.189 1.58244 -1.1548 0
M  V30 3978 H 380.769 -0.239674 -0.707506 0
M  V30 3979 H 383.431 -1.25054 -1.49491 0
M  V30 3980 H 382.527 -0.912253 -2.9847 0
M  V30 3981 N 382.828 1.3818 -0.7579 0
M  V30 3982 C 384.244 1.5353 -0.435972 0
M  V30 3983 C 384.444 1.71961 1.05032 0
M  V30 3984 O 383.5 1.73307 1.83633 0
M  V30 3985 C 384.813 2.73989 -1.23898 0
M  V30 3986 C 386.361 2.87841 -1.22949 0
M  V30 3987 C 386.836 4.11266 -2.01554 0
M  V30 3988 N 388.327 4.18352 -1.98837 0
M  V30 3989 C 389.062 5.12856 -2.5645 0
M  V30 3990 N 388.558 6.13005 -3.22794 0
M  V30 3991 N 390.351 5.05238 -2.46356 0
M  V30 3992 H 382.502 1.24467 -1.7211 0
M  V30 3993 H 384.765 0.604982 -0.729864 0
M  V30 3994 H 384.471 2.66789 -2.29165 0
M  V30 3995 H 384.345 3.67294 -0.858764 0
M  V30 3996 H 386.732 2.9452 -0.184854 0
M  V30 3997 H 386.813 1.95534 -1.64924 0
M  V30 3998 H 386.457 4.05349 -3.06031 0
M  V30 3999 H 386.387 5.02661 -1.5697 0
M  V30 4000 H 388.878 3.46628 -1.50524 0
M  V30 4001 H 389.191 6.81619 -3.64165 0
M  V30 4002 H 387.536 6.13325 -3.2689 0
M  V30 4003 H 390.727 4.25938 -1.9415 0
M  V30 4004 H 390.9 5.78707 -2.91552 0
M  V30 4005 N 384.306 0.507319 1.49211 0
M  V30 4006 C 385.722 0.163682 1.58758 0
M  V30 4007 C 385.922 -1.33208 1.51188 0
M  V30 4008 O 384.978 -2.10855 1.38911 0
M  V30 4009 C 386.291 0.746095 2.91297 0
M  V30 4010 C 387.839 0.712773 3.04776 0
M  V30 4011 C 388.314 1.27336 4.39943 0
M  V30 4012 N 389.805 1.23433 4.46451 0
M  V30 4013 C 390.54 1.63821 5.495 0
M  V30 4014 N 390.036 2.11832 6.5962 0
M  V30 4015 N 391.829 1.55198 5.4025 0
M  V30 4016 H 383.98 1.47972 1.52375 0
M  V30 4017 H 386.243 0.614147 0.722168 0
M  V30 4018 H 385.949 1.79534 3.02424 0
M  V30 4019 H 385.823 0.210137 3.76614 0
M  V30 4020 H 388.21 -0.327656 2.93275 0
M  V30 4021 H 388.291 1.28595 2.21127 0
M  V30 4022 H 387.935 2.3126 4.52196 0
M  V30 4023 H 387.865 0.676066 5.22242 0
M  V30 4024 H 390.356 0.882627 3.67448 0
M  V30 4025 H 390.669 2.40703 7.34358 0
M  V30 4026 H 389.014 2.1581 6.60644 0
M  V30 4027 H 392.205 1.17505 4.53112 0
M  V30 4028 H 392.378 1.86997 6.20432 0
M  V30 4029 N 385.784 -1.5574 0.241426 0
M  V30 4030 C 387.032 -1.98417 -0.384075 0
M  V30 4031 C 387.353 -1.13078 -1.58866 0
M  V30 4032 O 386.623 -0.212312 -1.94746 0
M  V30 4033 H 385.203 -0.732813 -0.144894 0
M  V30 4034 H 387.865 -1.9193 0.338943 0
M  V30 4035 H 386.961 -3.04219 -0.696939 0
M  V30 4036 N 387.262 0.0317525 -1.57568 0
M  V30 4037 C 388.51 0.721676 -1.88776 0
M  V30 4038 C 388.831 1.76039 -0.838772 0
M  V30 4039 O 388.101 1.95482 0.127935 0
M  V30 4040 H 386.681 0.269534 -0.696678 0
M  V30 4041 H 389.343 -0.00165879 -1.949 0
M  V30 4042 H 388.439 1.21293 -2.87566 0
M  V30 4043 N 388.74 1.54641 0.303973 0
M  V30 4044 C 389.65 1.88439 1.39743 0
M  V30 4045 C 390.666 0.778239 1.55626 0
M  V30 4046 O 391.842 1.07442 1.70347 0
M  V30 4047 C 388.907 2.12212 2.74166 0
M  V30 4048 C 387.968 3.35936 2.67293 0
M  V30 4049 C 387.201 3.58566 3.95305 0
M  V30 4050 O 387.424 2.84263 4.9452 0
M  V30 4051 O 386.358 4.52078 3.97378 0
M  V30 4052 H 390.184 2.81458 1.14083 0
M  V30 4053 H 387.769 1.40793 0.499768 0
M  V30 4054 H 389.651 2.29067 3.53704 0
M  V30 4055 H 388.326 1.22379 2.99675 0
M  V30 4056 H 387.233 3.24448 1.86237 0
M  V30 4057 H 388.566 4.2589 2.46736 0
M  V30 4058 N 390.218 -0.567019 1.47046 0
M  V30 4059 C 391.464 -1.32434 1.54379 0
M  V30 4060 C 391.819 -1.91365 0.199276 0
M  V30 4061 O 391.112 -1.74378 -0.793915 0
M  V30 4062 C 391.306 -2.4623 2.59047 0
M  V30 4063 C 391.135 -1.98448 4.03545 0
M  V30 4064 C 389.905 -1.82741 4.71098 0
M  V30 4065 C 392.103 -1.53477 4.90866 0
M  V30 4066 N 390.085 -1.29196 6.00151 0
M  V30 4067 C 391.456 -1.1163 6.09868 0
M  V30 4068 C 393.511 -1.41438 4.77388 0
M  V30 4069 C 392.214 -0.589425 7.16881 0
M  V30 4070 C 394.24 -0.901528 5.84488 0
M  V30 4071 C 393.602 -0.492932 7.02673 0
M  V30 4072 H 389.701 -0.477005 0.61967 0
M  V30 4073 H 392.285 -0.643856 1.83746 0
M  V30 4074 H 390.456 -3.11821 2.31564 0
M  V30 4075 H 392.188 -3.13213 2.56281 0
M  V30 4076 H 388.943 -2.05162 4.26855 0
M  V30 4077 H 389.367 -1.0454 6.6888 0
M  V30 4078 H 394.009 -1.71643 3.86392 0
M  V30 4079 H 391.727 -0.274994 8.07632 0
M  V30 4080 H 395.313 -0.812071 5.76105 0
M  V30 4081 H 394.193 -0.102227 7.84133 0
M  V30 4082 N 391.696 -1.35014 -0.812953 0
M  V30 4083 C 392.659 -1.27292 -1.90602 0
M  V30 4084 C 393.659 -0.185817 -1.59723 0
M  V30 4085 O 394.849 -0.439102 -1.68575 0
M  V30 4086 C 391.981 -0.967676 -3.26877 0
M  V30 4087 H 393.174 -2.24479 -1.9887 0
M  V30 4088 H 390.727 -1.19446 -1.00808 0
M  V30 4089 H 391.462 0.0005954 -3.243 0
M  V30 4090 H 391.247 -1.75412 -3.50675 0
M  V30 4091 H 392.737 -0.939085 -4.06904 0
M  V30 4092 N 393.175 1.03435 -1.18907 0
M  V30 4093 C 394.415 1.78302 -0.999391 0
M  V30 4094 C 394.779 1.86353 0.462219 0
M  V30 4095 O 395.98 2.57489 0.771543 0
M  V30 4096 C 394.251 3.17362 -1.64365 0
M  V30 4097 S 395.81 4.08488 -1.6026 0
M  V30 4098 H 392.628 0.613861 -0.358742 0
M  V30 4099 H 395.23 1.23979 -1.51161 0
M  V30 4100 H 393.934 3.09116 -2.69955 0
M  V30 4101 H 393.465 3.76762 -1.13199 0
M  V30 4102 H 395.48 4.92274 -0.622932 0
M  V30 4103 N 394.653 0.992116 1.22453 0
M  V30 4104 C 395.603 0.512969 2.22155 0
M  V30 4105 C 396.587 -0.418416 1.55364 0
M  V30 4106 O 397.779 -0.245363 1.75291 0
M  V30 4107 C 394.908 -0.171822 3.4287 0
M  V30 4108 C 393.994 0.779822 4.16869 0
M  V30 4109 N 394.385 1.92734 4.6764 0
M  V30 4110 C 392.683 0.59554 4.42006 0
M  V30 4111 C 393.384 2.52458 5.24061 0
M  V30 4112 N 392.36 1.80735 5.12675 0
M  V30 4113 H 396.162 1.38817 2.5905 0
M  V30 4114 H 393.676 0.854277 1.38115 0
M  V30 4115 H 395.673 -0.532469 4.13486 0
M  V30 4116 H 394.333 -1.04317 3.07487 0
M  V30 4117 H 395.344 2.30816 4.63621 0
M  V30 4118 H 392.021 -0.229805 4.16867 0
M  V30 4119 H 393.411 3.49433 5.73887 0
M  V30 4120 N 396.131 -1.37776 0.765217 0
M  V30 4121 C 397.547 -1.53297 0.444108 0
M  V30 4122 C 397.747 -1.72515 -1.04119 0
M  V30 4123 O 396.803 -1.74278 -1.82711 0
M  V30 4124 C 398.116 -2.73328 1.25349 0
M  V30 4125 C 399.664 -2.87185 1.24473 0
M  V30 4126 C 400.139 -4.10191 2.03733 0
M  V30 4127 N 401.63 -4.17291 2.01053 0
M  V30 4128 C 402.365 -5.11488 2.59166 0
M  V30 4129 N 401.861 -6.11285 3.26041 0
M  V30 4130 N 403.654 -5.03924 2.49032 0
M  V30 4131 H 395.805 -1.23552 1.72768 0
M  V30 4132 H 398.068 -0.601103 0.733062 0
M  V30 4133 H 397.774 -2.6557 2.30577 0
M  V30 4134 H 397.648 -3.66834 0.87823 0
M  V30 4135 H 400.035 -2.94418 0.20047 0
M  V30 4136 H 400.116 -1.94657 1.65959 0
M  V30 4137 H 399.76 -4.0372 3.08176 0
M  V30 4138 H 399.69 -5.01821 1.59633 0
M  V30 4139 H 402.181 -3.45825 1.5236 0
M  V30 4140 H 402.494 -6.79678 3.67774 0
M  V30 4141 H 400.839 -6.11583 3.30138 0
M  V30 4142 H 404.03 -4.24902 1.96407 0
M  V30 4143 H 404.203 -5.77152 2.94617 0
M  V30 4144 N 397.609 -0.515225 -1.4894 0
M  V30 4145 C 398.858 0.0261361 -2.01683 0
M  V30 4146 C 399.171 1.36719 -1.39883 0
M  V30 4147 O 400.377 1.99606 -1.84037 0
M  V30 4148 C 398.833 0.0970111 -3.59769 0
M  V30 4149 C 398.441 -1.23825 -4.30548 0
M  V30 4150 C 400.185 0.587981 -4.20408 0
M  V30 4151 C 398.092 -1.12877 -5.80528 0
M  V30 4152 H 397.022 0.0135398 -0.753878 0
M  V30 4153 H 399.673 -0.656787 -1.71343 0
M  V30 4154 H 398.055 0.844694 -3.86886 0
M  V30 4155 H 399.229 -2.00034 -4.15118 0
M  V30 4156 H 397.544 -1.66379 -3.81716 0
M  V30 4157 H 400.141 0.68763 -5.3026 0
M  V30 4158 H 400.484 1.59026 -3.84729 0
M  V30 4159 H 401.017 -0.103582 -3.97665 0
M  V30 4160 H 397.756 -2.10575 -6.20756 0
M  V30 4161 H 397.276 -0.407799 -5.98412 0
M  V30 4162 H 398.955 -0.813332 -6.41868 0
M  V30 4163 N 399.087 1.5561 -0.249682 0
M  V30 4164 C 399.997 2.25143 0.659375 0
M  V30 4165 C 401.013 1.2685 1.19101 0
M  V30 4166 O 402.189 1.59732 1.22669 0
M  V30 4167 C 399.254 2.93945 1.8384 0
M  V30 4168 C 398.315 4.07655 1.34596 0
M  V30 4169 C 397.548 4.73167 2.46878 0
M  V30 4170 O 397.771 4.37768 3.65671 0
M  V30 4171 O 396.705 5.61623 2.16478 0
M  V30 4172 H 400.531 3.03545 0.0968698 0
M  V30 4173 H 398.116 1.49389 -0.018074 0
M  V30 4174 H 399.998 3.37271 2.52638 0
M  V30 4175 H 398.673 2.18481 2.38847 0
M  V30 4176 H 397.58 3.68839 0.625174 0
M  V30 4177 H 398.913 4.84946 0.841941 0
M  V30 4178 N 400.565 -0.0233959 1.57583 0
M  V30 4179 C 401.515 -1.03023 2.03397 0
M  V30 4180 C 402.499 -1.31701 0.924315 0
M  V30 4181 O 403.691 -1.31191 1.18819 0
M  V30 4182 C 400.82 -2.32961 2.52159 0
M  V30 4183 C 399.906 -2.07349 3.69956 0
M  V30 4184 N 400.297 -1.51814 4.82479 0
M  V30 4185 C 398.595 -2.37606 3.77438 0
M  V30 4186 C 399.296 -1.42136 5.64068 0
M  V30 4187 N 398.272 -1.89891 5.09355 0
M  V30 4188 H 402.074 -0.594962 2.87815 0
M  V30 4189 H 399.588 -0.229586 1.60769 0
M  V30 4190 H 401.585 -3.05906 2.83244 0
M  V30 4191 H 400.245 -2.77162 1.69149 0
M  V30 4192 H 401.256 -1.20008 5.03804 0
M  V30 4193 H 397.933 -2.84842 3.05239 0
M  V30 4194 H 399.323 -0.996405 6.64471 0
M  V30 4195 N 402.043 -1.548 -0.295768 0
M  V30 4196 C 403.268 -1.78653 -1.05346 0
M  V30 4197 C 403.693 -0.546894 -1.79974 0
M  V30 4198 O 403.051 0.502763 -1.7419 0
M  V30 4199 C 403.099 -2.99679 -2.00561 0
M  V30 4200 O 402.203 -2.7317 -3.08953 0
M  V30 4201 H 401.544 -0.59116 -0.302367 0
M  V30 4202 H 404.074 -2.01895 -0.331598 0
M  V30 4203 H 404.084 -3.27793 -2.42932 0
M  V30 4204 H 402.759 -3.89562 -1.4565 0
M  V30 4205 H 401.336 -2.56089 -2.71059 0
M  V30 4206 N 403.521 0.559213 -1.47345 0
M  V30 4207 C 404.451 1.67622 -1.62558 0
M  V30 4208 C 405.432 1.63331 -0.475087 0
M  V30 4209 O 406.617 1.80983 -0.704182 0
M  V30 4210 C 403.747 3.0626 -1.63774 0
M  V30 4211 C 402.701 3.25397 -2.7803 0
M  V30 4212 C 402.027 4.64801 -2.64318 0
M  V30 4213 C 403.327 3.10965 -4.19641 0
M  V30 4214 H 405.021 1.55146 -2.56067 0
M  V30 4215 H 402.567 0.744961 -1.23233 0
M  V30 4216 H 404.52 3.84247 -1.73008 0
M  V30 4217 H 403.244 3.1969 -0.66825 0
M  V30 4218 H 401.903 2.49817 -2.68304 0
M  V30 4219 H 401.551 4.75028 -1.65401 0
M  V30 4220 H 401.251 4.78555 -3.40968 0
M  V30 4221 H 402.775 5.44926 -2.75478 0
M  V30 4222 H 404.189 3.78772 -4.30354 0
M  V30 4223 H 402.586 3.36229 -4.97062 0
M  V30 4224 H 403.656 2.07736 -4.38148 0
M  V30 4225 N 404.999 1.35443 0.805782 0
M  V30 4226 C 406.224 1.32037 1.59941 0
M  V30 4227 C 406.649 -0.0994215 1.87837 0
M  V30 4228 O 406.007 -1.06648 1.46615 0
M  V30 4229 C 406.055 2.13354 2.90711 0
M  V30 4230 O 405.159 1.5148 3.83572 0
M  V30 4231 H 404.5 0.452666 0.485787 0
M  V30 4232 H 407.03 1.78496 1.00002 0
M  V30 4233 H 407.04 2.25338 3.40128 0
M  V30 4234 H 405.715 3.16572 2.69732 0
M  V30 4235 H 404.292 1.4834 3.42125 0
M  V30 4236 N 406.477 -1.02803 1.19454 0
M  V30 4237 C 407.44 -2.09264 0.934955 0
M  V30 4238 C 408.44 -1.60576 -0.0849015 0
M  V30 4239 O 409.63 -1.73554 0.149933 0
M  V30 4240 C 406.762 -3.38482 0.40531 0
M  V30 4241 H 407.955 -2.33726 1.87916 0
M  V30 4242 H 405.508 -1.19426 1.00832 0
M  V30 4243 H 406.243 -3.19689 -0.544899 0
M  V30 4244 H 406.028 -3.75142 1.14065 0
M  V30 4245 H 407.518 -4.16894 0.242806 0
M  V30 4246 N 407.956 -0.998596 -1.21925 0
M  V30 4247 C 408.886 -0.573688 -2.26343 0
M  V30 4248 C 409.867 0.402296 -1.65274 0
M  V30 4249 O 411.052 0.291683 -1.91997 0
M  V30 4250 C 408.182 0.106839 -3.47136 0
M  V30 4251 C 407.136 -0.788269 -4.20678 0
M  V30 4252 C 406.462 0.0254927 -5.34694 0
M  V30 4253 C 407.762 -2.08784 -4.78755 0
M  V30 4254 H 409.456 -1.44651 -2.62138 0
M  V30 4255 H 407.002 -0.696975 -1.26009 0
M  V30 4256 H 408.955 0.415531 -4.19346 0
M  V30 4257 H 407.679 1.01424 -3.10452 0
M  V30 4258 H 406.338 -1.08069 -3.50309 0
M  V30 4259 H 405.986 0.933989 -4.94253 0
M  V30 4260 H 405.686 -0.570437 -5.84825 0
M  V30 4261 H 407.21 0.328147 -6.09718 0
M  V30 4262 H 408.624 -1.84272 -5.42878 0
M  V30 4263 H 407.021 -2.63307 -5.39249 0
M  V30 4264 H 408.091 -2.76284 -3.98491 0
M  V30 4265 N 409.434 1.37368 -0.772513 0
M  V30 4266 C 410.664 2.03647 -0.348082 0
M  V30 4267 C 411.072 1.58392 1.03482 0
M  V30 4268 O 410.415 0.760921 1.672 0
M  V30 4269 C 410.477 3.58131 -0.313404 0
M  V30 4270 C 410.141 4.2652 -1.64102 0
M  V30 4271 C 411.138 4.50587 -2.5936 0
M  V30 4272 C 408.823 4.64335 -1.91567 0
M  V30 4273 C 410.817 5.11526 -3.80289 0
M  V30 4274 C 408.504 5.24996 -3.12766 0
M  V30 4275 C 409.502 5.48529 -4.06946 0
M  V30 4276 O 409.19 6.07921 -5.26011 0
M  V30 4277 H 408.922 0.660538 -0.143753 0
M  V30 4278 H 411.476 1.76669 -1.04772 0
M  V30 4279 H 409.706 3.84159 0.442617 0
M  V30 4280 H 411.395 4.05813 0.0840613 0
M  V30 4281 H 412.161 4.21784 -2.39423 0
M  V30 4282 H 408.04 4.45353 -1.19088 0
M  V30 4283 H 411.584 5.29811 -4.53813 0
M  V30 4284 H 407.481 5.53223 -3.32588 0
M  V30 4285 H 408.249 6.26398 -5.26847 0
M  V30 4286 N 410.912 0.523116 1.48665 0
M  V30 4287 C 412.189 -0.0775449 1.95446 0
M  V30 4288 C 412.569 -1.5197 1.4652 0
M  V30 4289 O 411.917 -2.17876 0.688657 0
M  V30 4290 C 412.127 0.0326135 3.48985 0
M  V30 4291 C 413.475 -0.130141 4.24401 0
M  V30 4292 O 414.499 -0.0415142 3.56176 0
M  V30 4293 O 413.358 -0.31491 5.45592 0
M  V30 4294 H 410.452 -0.0831012 0.822814 0
M  V30 4295 H 412.998 0.587227 1.59216 0
M  V30 4296 H 411.77 1.03748 3.77296 0
M  V30 4297 H 411.393 -0.671317 3.91892 0
M  V30 4298 N 412.39 -1.55475 0.257931 0
M  V30 4299 C 413.639 -1.98383 -0.364275 0
M  V30 4300 C 413.952 -1.14952 -1.58258 0
M  V30 4301 O 415.158 -1.47924 -2.27664 0
M  V30 4302 C 413.614 -3.53037 -0.699479 0
M  V30 4303 C 413.222 -4.45223 0.498046 0
M  V30 4304 C 414.966 -4.04575 -1.28526 0
M  V30 4305 C 412.873 -5.91238 0.138383 0
M  V30 4306 H 411.803 -0.740911 -0.13988 0
M  V30 4307 H 414.454 -1.79936 0.359883 0
M  V30 4308 H 412.836 -3.6722 -1.48207 0
M  V30 4309 H 414.01 -4.42803 1.27522 0
M  V30 4310 H 412.325 -4.04226 0.999503 0
M  V30 4311 H 414.922 -5.11196 -1.56788 0
M  V30 4312 H 415.265 -3.5258 -2.21344 0
M  V30 4313 H 415.798 -3.93762 -0.565337 0
M  V30 4314 H 412.537 -6.47294 1.03398 0
M  V30 4315 H 412.057 -5.96768 -0.602374 0
M  V30 4316 H 413.736 -6.46413 -0.27553 0
M  V30 4317 N 413.868 0.0150385 -1.57593 0
M  V30 4318 C 414.831 0.995996 -2.06428 0
M  V30 4319 C 415.831 1.2818 -0.970903 0
M  V30 4320 O 417.021 1.22949 -1.23406 0
M  V30 4321 C 414.153 2.32506 -2.49307 0
M  V30 4322 H 415.346 0.573873 -2.94358 0
M  V30 4323 H 412.899 0.262186 -1.54085 0
M  V30 4324 H 413.634 2.79438 -1.64575 0
M  V30 4325 H 413.419 2.13087 -3.29145 0
M  V30 4326 H 414.909 3.02906 -2.87468 0
M  V30 4327 N 415.346 1.54954 0.287554 0
M  V30 4328 C 416.296 1.8322 1.357 0
M  V30 4329 C 417.28 0.690152 1.45347 0
M  V30 4330 O 418.472 0.951137 1.49273 0
M  V30 4331 C 415.601 2.09481 2.71979 0
M  V30 4332 C 414.687 3.29906 2.66502 0
M  V30 4333 N 415.078 4.50154 2.30641 0
M  V30 4334 C 413.376 3.32203 2.97585 0
M  V30 4335 C 414.077 5.32209 2.34794 0
M  V30 4336 N 413.053 4.70258 2.72688 0
M  V30 4337 H 416.855 2.73746 1.0696 0
M  V30 4338 H 414.369 1.54635 0.496167 0
M  V30 4339 H 416.366 2.27882 3.49107 0
M  V30 4340 H 415.026 1.2023 3.0162 0
M  V30 4341 H 416.037 4.76515 2.02865 0
M  V30 4342 H 412.714 2.53101 3.32034 0
M  V30 4343 H 414.104 6.38321 2.09753 0
M  V30 4344 N 416.824 -0.551391 1.4764 0
M  V30 4345 C 418.072 -1.30572 1.54258 0
M  V30 4346 C 418.393 -1.93877 0.208963 0
M  V30 4347 O 417.663 -1.80234 -0.767619 0
M  V30 4348 H 416.243 -0.484894 0.568231 0
M  V30 4349 H 418.905 -0.643402 1.83974 0
M  V30 4350 H 418.001 -2.09621 2.31226 0
M  V30 4351 N 418.302 -1.35869 -0.798587 0
M  V30 4352 C 419.265 -1.29307 -1.89242 0
M  V30 4353 C 420.265 -0.202747 -1.59517 0
M  V30 4354 O 421.455 -0.456957 -1.681 0
M  V30 4355 C 418.587 -1.00229 -3.25833 0
M  V30 4356 H 419.78 -2.26576 -1.96478 0
M  V30 4357 H 417.333 -1.20509 -0.995358 0
M  V30 4358 H 418.068 -0.033801 -3.24282 0
M  V30 4359 H 417.853 -1.79121 -3.48795 0
M  V30 4360 H 419.343 -0.98219 -4.05885 0
M  V30 4361 N 419.78 1.02168 -1.19998 0
M  V30 4362 C 421.028 1.75338 -1.00504 0
M  V30 4363 C 421.349 1.89387 0.464506 0
M  V30 4364 O 420.619 1.43268 1.33608 0
M  V30 4365 H 419.199 0.649564 -0.368885 0
M  V30 4366 H 421.861 1.23205 -1.51018 0
M  V30 4367 H 420.957 2.75892 -1.45912 0
M  V30 4368 N 421.258 1.00505 1.21394 0
M  V30 4369 C 422.188 0.585684 2.26035 0
M  V30 4370 C 423.169 -0.393525 1.65485 0
M  V30 4371 O 424.354 -0.281497 1.92149 0
M  V30 4372 C 421.484 -0.0884283 3.47187 0
M  V30 4373 C 420.438 0.810567 4.20254 0
M  V30 4374 C 419.764 0.00286382 5.347 0
M  V30 4375 C 421.064 2.1132 4.77641 0
M  V30 4376 H 422.758 1.46039 2.61368 0
M  V30 4377 H 420.304 0.703648 1.25638 0
M  V30 4378 H 422.257 -0.393286 4.19561 0
M  V30 4379 H 420.981 -0.997766 3.10986 0
M  V30 4380 H 419.64 1.09925 3.49731 0
M  V30 4381 H 419.288 -0.907765 4.94741 0
M  V30 4382 H 418.988 0.601444 5.84514 0
M  V30 4383 H 420.512 -0.295808 6.09883 0
M  V30 4384 H 421.926 1.87148 5.41893 0
M  V30 4385 H 420.323 2.66164 5.37845 0
M  V30 4386 H 421.393 2.78393 3.9702 0
M  V30 4387 N 422.737 -1.36956 0.779787 0
M  V30 4388 C 423.7 -2.2851 0.177662 0
M  V30 4389 C 424.7 -1.48393 -0.619377 0
M  V30 4390 O 425.89 -1.68505 -0.441785 0
M  V30 4391 C 423.022 -3.32428 -0.755279 0
M  V30 4392 H 424.215 -2.83269 0.984823 0
M  V30 4393 H 421.768 -1.46358 0.548544 0
M  V30 4394 H 422.503 -2.82808 -1.58714 0
M  V30 4395 H 422.288 -3.91659 -0.185817 0
M  V30 4396 H 423.778 -4.00824 -1.17174 0
M  V30 4397 N 424.215 -0.530993 -1.48385 0
M  V30 4398 C 425.464 0.00474348 -2.01699 0
M  V30 4399 C 425.777 1.35227 -1.41325 0
M  V30 4400 O 426.983 1.97643 -1.86144 0
M  V30 4401 C 425.439 0.0588473 -3.59852 0
M  V30 4402 C 425.047 -1.28385 -4.2921 0
M  V30 4403 C 426.791 0.543358 -4.21008 0
M  V30 4404 C 424.698 -1.19028 -5.79298 0
M  V30 4405 H 423.628 0.00554317 -0.75398 0
M  V30 4406 H 426.279 -0.674924 -1.70637 0
M  V30 4407 H 424.661 0.803612 -3.8776 0
M  V30 4408 H 425.835 -2.04426 -4.12973 0
M  V30 4409 H 424.15 -1.70418 -3.7993 0
M  V30 4410 H 426.747 0.631351 -5.3096 0
M  V30 4411 H 427.09 1.54937 -3.86394 0
M  V30 4412 H 427.623 -0.145754 -3.97533 0
M  V30 4413 H 424.362 -2.17147 -6.18488 0
M  V30 4414 H 423.882 -0.471246 -5.97946 0
M  V30 4415 H 425.561 -0.881365 -6.40969 0
M  V30 4416 N 425.693 1.55336 -0.266172 0
M  V30 4417 C 426.939 1.99692 0.353681 0
M  V30 4418 C 427.272 1.1543 1.56172 0
M  V30 4419 O 426.547 0.222218 1.93226 0
M  V30 4420 C 426.83 3.52316 0.74466 0
M  V30 4421 C 426.683 4.47337 -0.470101 0
M  V30 4422 C 428.002 4.10588 1.58447 0
M  V30 4423 H 425.121 0.725961 0.12708 0
M  V30 4424 H 427.763 1.86336 -0.371333 0
M  V30 4425 H 425.913 3.63829 1.36239 0
M  V30 4426 H 427.585 4.4778 -1.10864 0
M  V30 4427 H 425.828 4.19364 -1.10978 0
M  V30 4428 H 426.499 5.51788 -0.15291 0
M  V30 4429 H 428.975 4.02297 1.06286 0
M  V30 4430 H 427.851 5.17607 1.82686 0
M  V30 4431 H 428.112 3.60253 2.56262 0
M  V30 4432 N 427.171 -0.0066808 1.57599 0
M  V30 4433 C 428.418 -0.69292 1.90276 0
M  V30 4434 C 428.746 -1.74148 0.866192 0
M  V30 4435 O 428.001 -1.95268 -0.129933 0
M  V30 4436 C 428.3 -1.37939 3.29708 0
M  V30 4437 C 427.966 -0.464679 4.48499 0
M  V30 4438 C 426.628 -0.212809 4.80729 0
M  V30 4439 C 428.98 0.16551 5.20937 0
M  V30 4440 C 426.308 0.677653 5.82773 0
M  V30 4441 C 428.66 1.04381 6.23929 0
M  V30 4442 C 427.324 1.30492 6.54621 0
M  V30 4443 H 426.594 -0.253558 0.696268 0
M  V30 4444 H 429.241 0.0474123 1.91441 0
M  V30 4445 H 427.546 -2.1936 3.24636 0
M  V30 4446 H 429.243 -1.9163 3.52249 0
M  V30 4447 H 425.833 -0.671153 4.23313 0
M  V30 4448 H 430.017 -0.0160756 4.96297 0
M  V30 4449 H 425.273 0.88803 6.04917 0
M  V30 4450 H 429.447 1.53851 6.79193 0
M  V30 4451 H 427.074 1.99662 7.33512 0
M  V30 4452 N 428.649 -1.55105 -0.279332 0
M  V30 4453 C 430.06 -1.66186 -0.850832 0
M  V30 4454 C 430.411 -0.584707 -1.87285 0
M  V30 4455 O 429.536 0.274919 -2.14647 0
M  V30 4456 C 430.131 -3.01264 -1.55001 0
M  V30 4457 C 428.69 -3.14394 -2.06963 0
M  V30 4458 C 427.837 -2.61959 -0.909536 0
M  V30 4459 H 430.788 -1.58602 -0.0558235 0
M  V30 4460 H 430.809 -2.93899 -2.41669 0
M  V30 4461 H 430.321 -3.7964 -0.805931 0
M  V30 4462 H 428.422 -2.4078 -2.84352 0
M  V30 4463 H 428.535 -4.20867 -2.28928 0
M  V30 4464 H 426.899 -2.18957 -1.30116 0
M  V30 4465 H 427.682 -3.42833 -0.179062 0
M  V30 4466 N 430.127 0.543554 -1.4793 0
M  V30 4467 C 431.09 1.63156 -1.60975 0
M  V30 4468 C 432.09 1.53346 -0.483899 0
M  V30 4469 O 433.28 1.5726 -0.749339 0
M  V30 4470 C 430.412 3.02743 -1.56716 0
M  V30 4471 H 431.605 1.52934 -2.57975 0
M  V30 4472 H 429.158 0.764557 -1.36324 0
M  V30 4473 H 429.893 3.18484 -0.611418 0
M  V30 4474 H 429.678 3.11272 -2.38438 0
M  V30 4475 H 431.168 3.81871 -1.6901 0
M  V30 4476 N 431.605 1.3629 0.791371 0
M  V30 4477 C 432.851 1.31613 1.5508 0
M  V30 4478 C 433.206 -0.104372 1.92117 0
M  V30 4479 O 432.499 -1.05845 1.5971 0
M  V30 4480 C 432.693 2.17068 2.8393 0
M  V30 4481 C 432.522 3.67285 2.59484 0
M  V30 4482 C 431.292 4.36469 2.54604 0
M  V30 4483 C 433.49 4.60595 2.28816 0
M  V30 4484 N 431.472 5.7234 2.22036 0
M  V30 4485 C 432.843 5.847 2.06218 0
M  V30 4486 C 434.898 4.4918 2.14806 0
M  V30 4487 C 433.601 6.98671 1.71028 0
M  V30 4488 C 435.627 5.63017 1.81014 0
M  V30 4489 C 434.989 6.86159 1.59263 0
M  V30 4490 H 431.088 0.536878 0.568582 0
M  V30 4491 H 433.672 1.71323 0.925007 0
M  V30 4492 H 431.843 1.79605 3.44378 0
M  V30 4493 H 433.575 2.03795 3.49642 0
M  V30 4494 H 430.33 3.89249 2.69782 0
M  V30 4495 H 430.754 6.44093 2.08503 0
M  V30 4496 H 435.396 3.54564 2.30313 0
M  V30 4497 H 433.114 7.9324 1.54259 0
M  V30 4498 H 436.7 5.56146 1.70861 0
M  V30 4499 H 435.58 7.72753 1.335 0
M  V30 4500 N 433.083 -1.0153 1.20538 0
M  V30 4501 C 434.016 -2.09759 0.898695 0
M  V30 4502 C 434.994 -1.61909 -0.149733 0
M  V30 4503 O 436.178 -1.88486 -0.0230293 0
M  V30 4504 C 433.305 -3.36913 0.347512 0
M  V30 4505 C 432.351 -4.03655 1.37713 0
M  V30 4506 S 433.184 -4.47402 2.94265 0
M  V30 4507 C 434.34 -5.77756 2.40726 0
M  V30 4508 H 434.573 -2.3545 1.81523 0
M  V30 4509 H 432.106 -1.14665 1.03399 0
M  V30 4510 H 434.064 -4.10484 0.0360518 0
M  V30 4511 H 432.725 -3.09291 -0.547546 0
M  V30 4512 H 431.918 -4.9514 0.940872 0
M  V30 4513 H 431.52 -3.36313 1.63614 0
M  V30 4514 H 433.812 -6.52994 1.80569 0
M  V30 4515 H 434.755 -6.2618 3.30612 0
M  V30 4516 H 435.163 -5.34081 1.82806 0
M  V30 4517 N 434.561 -1.01147 -1.20859 0
M  V30 4518 C 435.508 -0.577354 -2.23462 0
M  V30 4519 C 436.478 0.399922 -1.61214 0
M  V30 4520 O 437.663 0.300515 -1.88419 0
M  V30 4521 C 434.803 0.083372 -3.44999 0
M  V30 4522 C 433.916 -0.937856 -4.21697 0
M  V30 4523 C 433.051 -0.248717 -5.30617 0
M  V30 4524 C 432.09 -1.25705 -5.99053 0
M  V30 4525 N 431.227 -0.594939 -6.99575 0
M  V30 4526 H 436.067 -1.45695 -2.59956 0
M  V30 4527 H 433.604 -0.729428 -1.27741 0
M  V30 4528 H 435.562 0.483535 -4.14388 0
M  V30 4529 H 434.192 0.926645 -3.09214 0
M  V30 4530 H 433.244 -1.45622 -3.51423 0
M  V30 4531 H 434.556 -1.70493 -4.68757 0
M  V30 4532 H 433.71 0.207215 -6.06346 0
M  V30 4533 H 432.449 0.55071 -4.84581 0
M  V30 4534 H 431.454 -1.72343 -5.2209 0
M  V30 4535 H 432.679 -2.05767 -6.47176 0
M  V30 4536 H 430.625 0.184713 -6.5574 0
M  V30 4537 H 430.542 -1.30017 -7.44736 0
M  V30 4538 H 431.81 -0.162427 -7.79331 0
M  V30 4539 N 436.039 1.36541 -0.78704 0
M  V30 4540 C 437.269 2.03266 -0.369662 0
M  V30 4541 C 437.677 1.59481 1.01796 0
M  V30 4542 O 437.02 0.778612 1.66383 0
M  V30 4543 C 437.082 3.57779 -0.351371 0
M  V30 4544 C 436.746 4.24756 -1.68617 0
M  V30 4545 C 437.743 4.47811 -2.64124 0
M  V30 4546 C 435.428 4.62277 -1.96481 0
M  V30 4547 C 437.422 5.07464 -3.85693 0
M  V30 4548 C 435.109 5.21649 -3.18317 0
M  V30 4549 C 436.107 5.44182 -4.12741 0
M  V30 4550 O 435.795 6.02307 -5.32429 0
M  V30 4551 H 435.527 0.658977 -0.150751 0
M  V30 4552 H 438.081 1.75548 -1.0664 0
M  V30 4553 H 436.311 3.84606 0.401847 0
M  V30 4554 H 438 4.05879 0.0410147 0
M  V30 4555 H 438.766 4.19221 -2.43883 0
M  V30 4556 H 434.645 4.44065 -1.23805 0
M  V30 4557 H 438.189 5.24968 -4.59407 0
M  V30 4558 H 434.086 5.49664 -3.38437 0
M  V30 4559 H 434.854 6.20775 -5.33461 0
M  V30 4560 N 437.518 0.538854 1.48102 0
M  V30 4561 C 438.764 0.00801365 2.02798 0
M  V30 4562 C 439.097 -1.3309 1.41424 0
M  V30 4563 O 438.372 -1.86169 0.563158 0
M  V30 4564 C 438.655 -0.104589 3.59948 0
M  V30 4565 C 438.508 1.26012 4.31788 0
M  V30 4566 C 439.827 -0.827055 4.32259 0
M  V30 4567 H 436.946 0.00438624 0.736987 0
M  V30 4568 H 439.588 0.6976 1.7673 0
M  V30 4569 H 437.738 -0.691893 3.82289 0
M  V30 4570 H 439.41 1.88922 4.2084 0
M  V30 4571 H 437.653 1.83968 3.92859 0
M  V30 4572 H 438.324 1.13424 5.40221 0
M  V30 4573 H 440.8 -0.328578 4.14801 0
M  V30 4574 H 439.676 -0.87476 5.41885 0
M  V30 4575 H 439.937 -1.87927 4.0017 0
M  V30 4576 N 438.996 -1.55193 0.274407 0
M  V30 4577 C 440.226 -2.03692 -0.345442 0
M  V30 4578 C 440.634 -1.15224 -1.50067 0
M  V30 4579 O 439.977 -0.164749 -1.8296 0
M  V30 4580 C 440.039 -3.48325 -0.88939 0
M  V30 4581 C 439.703 -4.56794 0.137115 0
M  V30 4582 C 440.7 -5.11028 0.956378 0
M  V30 4583 C 438.385 -5.01568 0.27115 0
M  V30 4584 C 440.379 -6.08552 1.89587 0
M  V30 4585 C 438.066 -5.98918 1.21412 0
M  V30 4586 C 439.064 -6.52291 2.02498 0
M  V30 4587 O 438.752 -7.47738 2.952 0
M  V30 4588 H 438.484 -0.670893 -0.0829332 0
M  V30 4589 H 441.038 -2.01387 0.404056 0
M  V30 4590 H 439.268 -3.47867 -1.68895 0
M  V30 4591 H 440.957 -3.80167 -1.42225 0
M  V30 4592 H 441.723 -4.7725 0.863559 0
M  V30 4593 H 437.602 -4.5967 -0.349987 0
M  V30 4594 H 441.146 -6.50137 2.52918 0
M  V30 4595 H 437.043 -6.32114 1.30776 0
M  V30 4596 H 437.811 -7.65451 2.89874 0
M  V30 4597 N 440.474 -0.00167713 -1.576 0
M  V30 4598 C 441.89 0.354422 -1.55615 0
M  V30 4599 C 442.09 1.74679 -1.00447 0
M  V30 4600 O 441.146 2.4428 -0.639022 0
M  V30 4601 C 442.459 0.22812 -2.99833 0
M  V30 4602 C 444.007 0.302934 -3.11531 0
M  V30 4603 C 444.482 0.205737 -4.57538 0
M  V30 4604 N 445.973 0.263584 -4.62449 0
M  V30 4605 C 446.708 0.211742 -5.73009 0
M  V30 4606 N 446.204 0.110399 -6.92712 0
M  V30 4607 N 447.997 0.263729 -5.61481 0
M  V30 4608 H 440.148 -0.912498 -1.918 0
M  V30 4609 H 442.411 -0.349928 -0.881053 0
M  V30 4610 H 442.117 -0.729934 -3.44042 0
M  V30 4611 H 441.991 1.00951 -3.6344 0
M  V30 4612 H 444.378 1.25143 -2.67251 0
M  V30 4613 H 444.459 -0.508357 -2.50698 0
M  V30 4614 H 444.103 -0.739225 -5.02492 0
M  V30 4615 H 444.033 1.03554 -5.16318 0
M  V30 4616 H 446.524 0.343173 -3.76339 0
M  V30 4617 H 446.837 0.0767828 -7.72762 0
M  V30 4618 H 445.182 0.0760025 -6.94958 0
M  V30 4619 H 448.373 0.34111 -4.66855 0
M  V30 4620 H 448.546 0.219862 -6.47627 0
M  V30 4621 N 441.952 1.55251 0.271103 0
M  V30 4622 C 442.899 1.88261 1.33516 0
M  V30 4623 C 443.869 0.734296 1.48988 0
M  V30 4624 O 445.054 0.985741 1.63364 0
M  V30 4625 C 442.194 2.16168 2.69008 0
M  V30 4626 C 441.307 3.43678 2.61743 0
M  V30 4627 C 440.442 3.61276 3.89427 0
M  V30 4628 C 439.481 4.82472 3.7668 0
M  V30 4629 N 438.618 4.96717 4.96202 0
M  V30 4630 H 443.458 2.79015 1.04665 0
M  V30 4631 H 440.995 1.38137 0.505618 0
M  V30 4632 H 442.953 2.30349 3.47844 0
M  V30 4633 H 441.583 1.28646 2.96057 0
M  V30 4634 H 440.635 3.37959 1.74607 0
M  V30 4635 H 441.947 4.3265 2.48224 0
M  V30 4636 H 441.101 3.75284 4.76704 0
M  V30 4637 H 439.84 2.70492 4.05814 0
M  V30 4638 H 438.845 4.68465 2.87786 0
M  V30 4639 H 440.07 5.74692 3.61809 0
M  V30 4640 H 438.016 4.08865 5.12997 0
M  V30 4641 H 437.933 5.79738 4.85222 0
M  V30 4642 H 439.201 5.15113 5.85046 0
M  V30 4643 N 443.43 -0.535701 1.48216 0
M  V30 4644 C 444.378 -1.66179 1.62749 0
M  V30 4645 C 445.372 -1.62034 0.49409 0
M  V30 4646 O 446.578 -1.6696 0.672624 0
M  V30 4647 H 442.953 -0.550244 0.512578 0
M  V30 4648 H 444.924 -1.51063 2.57337 0
M  V30 4649 C 443.673 -3.04471 1.67907 0
M  V30 4650 H 442.996 -3.08351 2.54479 0
M  V30 4651 H 444.436 -3.82894 1.82121 0
M  V30 4652 C 442.895 -3.34314 0.416596 0
M  V30 4653 O 443.425 -3.98905 -0.473014 0
M  V30 4654 N 441.631 -2.89149 0.290038 0
M  V30 4655 H 441.178 -2.36764 1.01493 0
M  V30 4656 H 441.136 -3.09486 -0.55367 0
M  V30 4657 N 444.908 -1.36708 -0.784132 0
M  V30 4658 C 446.319 -1.27947 -1.35965 0
M  V30 4659 C 446.67 0.0784013 -1.96043 0
M  V30 4660 O 445.795 0.979989 -1.92938 0
M  V30 4661 C 446.39 -2.31689 -2.47195 0
M  V30 4662 C 444.949 -2.26601 -3.00548 0
M  V30 4663 C 444.096 -2.16184 -1.73666 0
M  V30 4664 H 447.047 -1.4751 -0.585358 0
M  V30 4665 H 447.068 -1.95638 -3.26352 0
M  V30 4666 H 446.58 -3.30506 -2.03439 0
M  V30 4667 H 444.681 -1.31268 -3.48711 0
M  V30 4668 H 444.794 -3.19508 -3.57004 0
M  V30 4669 H 443.158 -1.62524 -1.96107 0
M  V30 4670 H 443.941 -3.16896 -1.32031 0
M  V30 4671 N 446.386 1.0089 -1.21074 0
M  V30 4672 C 447.349 2.0775 -0.968129 0
M  V30 4673 C 448.349 1.6069 0.0593445 0
M  V30 4674 O 449.539 1.73293 -0.177525 0
M  V30 4675 C 446.671 3.37794 -0.459108 0
M  V30 4676 H 447.864 2.30707 -1.9161 0
M  V30 4677 H 445.417 1.17807 -1.02719 0
M  V30 4678 H 446.152 3.20516 0.49397 0
M  V30 4679 H 445.937 3.7328 -1.20019 0
M  V30 4680 H 447.427 4.16454 -0.309099 0
M  V30 4681 N 447.864 1.01787 1.20321 0
M  V30 4682 C 448.796 0.547357 2.22568 0
M  V30 4683 C 449.809 -0.370922 1.58518 0
M  V30 4684 O 450.998 -0.169067 1.77698 0
M  V30 4685 C 448.098 -0.223031 3.38165 0
M  V30 4686 C 447.271 0.697472 4.31803 0
M  V30 4687 C 446.33 -0.025562 5.26194 0
M  V30 4688 O 445.356 0.597367 5.66057 0
M  V30 4689 N 446.558 -1.29999 5.65757 0
M  V30 4690 H 449.323 1.42668 2.63564 0
M  V30 4691 H 446.884 0.895552 1.34876 0
M  V30 4692 H 448.876 -0.716002 3.98316 0
M  V30 4693 H 447.446 -1.00366 2.9605 0
M  V30 4694 H 446.666 1.37073 3.69601 0
M  V30 4695 H 447.954 1.32347 4.91286 0
M  V30 4696 H 447.352 -1.827 5.35385 0
M  V30 4697 H 445.909 -1.73766 6.28211 0
M  V30 4698 N 449.342 -1.36122 0.79427 0
M  V30 4699 C 450.589 -1.99111 0.368905 0
M  V30 4700 C 450.917 -1.63032 -1.0607 0
M  V30 4701 O 450.172 -0.879303 -1.74833 0
M  V30 4702 C 450.471 -3.5409 0.48527 0
M  V30 4703 C 450.137 -4.10003 1.87638 0
M  V30 4704 C 448.799 -4.24986 2.257 0
M  V30 4705 C 451.151 -4.40423 2.78706 0
M  V30 4706 C 448.479 -4.67701 3.54221 0
M  V30 4707 C 450.831 -4.84573 4.0666 0
M  V30 4708 C 449.495 -4.97761 4.44737 0
M  V30 4709 H 448.765 -0.7286 0.134992 0
M  V30 4710 H 451.412 -1.62534 1.01267 0
M  V30 4711 H 449.717 -3.91052 -0.241984 0
M  V30 4712 H 451.414 -4.00766 0.137109 0
M  V30 4713 H 448.004 -3.98784 1.57064 0
M  V30 4714 H 452.188 -4.28412 2.50553 0
M  V30 4715 H 447.444 -4.761 3.83587 0
M  V30 4716 H 451.618 -5.07074 4.77336 0
M  V30 4717 H 449.245 -5.30618 5.44379 0
M  V30 4718 N 450.82 -0.546701 -1.47814 0
M  V30 4719 C 451.73 0.21026 -2.33656 0
M  V30 4720 C 452.746 0.922413 -1.47538 0
M  V30 4721 O 453.922 0.893652 -1.80488 0
M  V30 4722 C 450.987 1.23348 -3.24016 0
M  V30 4723 C 450.048 0.529883 -4.26017 0
M  V30 4724 C 449.281 1.50435 -5.12059 0
M  V30 4725 O 449.504 2.73837 -5.00369 0
M  V30 4726 O 448.438 1.03459 -5.92942 0
M  V30 4727 H 452.264 -0.493605 -2.99662 0
M  V30 4728 H 449.849 -0.307427 -1.46203 0
M  V30 4729 H 451.731 1.82438 -3.79861 0
M  V30 4730 H 450.406 1.91945 -2.60651 0
M  V30 4731 H 449.313 -0.101948 -3.73961 0
M  V30 4732 H 450.646 -0.11445 -4.92067 0
M  V30 4733 N 452.299 1.55045 -0.282633 0
M  V30 4734 C 453.715 1.59441 0.0712997 0
M  V30 4735 C 453.915 1.2998 1.53972 0
M  V30 4736 O 452.971 1.06431 2.28973 0
M  V30 4737 C 454.284 2.99097 -0.310104 0
M  V30 4738 C 455.832 3.1194 -0.257343 0
M  V30 4739 C 456.307 4.53875 -0.613297 0
M  V30 4740 N 457.798 4.5974 -0.565134 0
M  V30 4741 C 458.533 5.67603 -0.81326 0
M  V30 4742 N 458.029 6.83582 -1.1264 0
M  V30 4743 N 459.822 5.57187 -0.741553 0
M  V30 4744 H 451.973 1.72458 -1.23984 0
M  V30 4745 H 454.236 0.804549 -0.501403 0
M  V30 4746 H 453.942 3.25516 -1.33163 0
M  V30 4747 H 453.816 3.75616 0.345366 0
M  V30 4748 H 456.203 2.85281 0.754905 0
M  V30 4749 H 456.284 2.37618 -0.947178 0
M  V30 4750 H 455.928 4.81261 -1.62327 0
M  V30 4751 H 455.858 5.26508 0.09841 0
M  V30 4752 H 458.349 3.76427 -0.333294 0
M  V30 4753 H 458.662 7.6175 -1.30219 0
M  V30 4754 H 457.007 6.85179 -1.16425 0
M  V30 4755 H 460.198 4.65457 -0.496705 0
M  V30 4756 H 460.371 6.41171 -0.938306 0
M  V30 4757 N 453.777 0.010035 1.57597 0
M  V30 4758 C 455.024 -0.6727 1.91 0
M  V30 4759 C 455.352 -1.73219 0.884614 0
M  V30 4760 O 454.607 -1.95395 -0.109215 0
M  V30 4761 C 454.906 -1.34434 3.31153 0
M  V30 4762 C 454.572 -0.417083 4.48967 0
M  V30 4763 C 453.234 -0.161809 4.80928 0
M  V30 4764 C 455.586 0.220753 5.20732 0
M  V30 4765 C 452.914 0.739426 5.82022 0
M  V30 4766 C 455.266 1.10993 6.22787 0
M  V30 4767 C 453.93 1.37428 6.532 0
M  V30 4768 H 453.2 -0.246158 0.698918 0
M  V30 4769 H 455.847 0.0677145 1.9138 0
M  V30 4770 H 454.152 -2.15905 3.26944 0
M  V30 4771 H 455.849 -1.87883 3.54261 0
M  V30 4772 H 452.439 -0.626217 4.24001 0
M  V30 4773 H 456.623 0.0365643 4.96287 0
M  V30 4774 H 451.879 0.952139 6.03941 0
M  V30 4775 H 456.053 1.61046 6.77523 0
M  V30 4776 H 453.68 2.0743 7.31353 0
M  V30 4777 N 455.255 -1.55392 -0.262866 0
M  V30 4778 C 456.218 -1.88181 -1.30846 0
M  V30 4779 C 457.218 -0.757079 -1.41862 0
M  V30 4780 O 458.408 -1.02519 -1.40838 0
M  V30 4781 C 455.54 -2.09609 -2.68844 0
M  V30 4782 H 456.733 -2.81659 -1.02997 0
M  V30 4783 H 454.286 -1.48039 -0.501414 0
M  V30 4784 H 455.021 -1.18547 -3.01856 0
M  V30 4785 H 454.806 -2.91508 -2.62231 0
M  V30 4786 H 456.296 -2.36215 -3.44372 0
M  V30 4787 N 456.733 0.527833 -1.48498 0
M  V30 4788 C 457.68 1.6322 -1.6318 0
M  V30 4789 C 458.65 1.59199 -0.473815 0
M  V30 4790 O 459.835 1.77591 -0.697563 0
M  V30 4791 C 456.975 3.01474 -1.67951 0
M  V30 4792 C 456.088 3.15713 -2.94871 0
M  V30 4793 C 455.223 4.44539 -2.90789 0
M  V30 4794 C 454.262 4.52315 -4.12404 0
M  V30 4795 N 453.399 5.72533 -4.06387 0
M  V30 4796 H 458.239 1.50011 -2.57489 0
M  V30 4797 H 455.776 0.730298 -1.27691 0
M  V30 4798 H 457.734 3.81572 -1.68698 0
M  V30 4799 H 456.364 3.1345 -0.771306 0
M  V30 4800 H 455.416 2.28854 -3.03859 0
M  V30 4801 H 456.728 3.1732 -3.8485 0
M  V30 4802 H 455.882 5.3293 -2.89949 0
M  V30 4803 H 454.621 4.45457 -1.98542 0
M  V30 4804 H 453.626 3.62331 -4.13517 0
M  V30 4805 H 454.851 4.53134 -5.05812 0
M  V30 4806 H 452.797 5.74344 -3.16962 0
M  V30 4807 H 452.714 5.75643 -4.90073 0
M  V30 4808 H 453.982 6.63204 -4.0961 0
M  V30 4809 N 458.211 1.37122 0.776871 0
M  V30 4810 C 459.158 1.3247 1.88998 0
M  V30 4811 C 460.128 0.191143 1.64997 0
M  V30 4812 O 461.313 0.379683 1.86984 0
M  V30 4813 C 458.453 1.13241 3.25992 0
M  V30 4814 C 457.566 2.35782 3.61982 0
M  V30 4815 C 456.701 2.09465 4.88158 0
M  V30 4816 C 455.74 3.279 5.16864 0
M  V30 4817 N 454.877 3.01167 6.34226 0
M  V30 4818 H 459.717 2.27642 1.9231 0
M  V30 4819 H 457.254 1.13125 0.94027 0
M  V30 4820 H 459.212 1.00115 4.0501 0
M  V30 4821 H 457.842 0.217186 3.22069 0
M  V30 4822 H 456.894 2.59666 2.77989 0
M  V30 4823 H 458.206 3.24125 3.79137 0
M  V30 4824 H 457.36 1.93341 5.75069 0
M  V30 4825 H 456.099 1.18452 4.73097 0
M  V30 4826 H 455.104 3.44569 4.2843 0
M  V30 4827 H 456.329 4.19757 5.33836 0
M  V30 4828 H 454.275 2.12779 6.20533 0
M  V30 4829 H 454.192 3.83052 6.51772 0
M  V30 4830 H 455.46 2.88649 7.24087 0
M  V30 4831 N 459.689 -1.00246 1.21608 0
M  V30 4832 C 460.938 -1.73476 1.02902 0
M  V30 4833 C 461.251 -1.90643 -0.437561 0
M  V30 4834 O 462.457 -2.61105 -0.74407 0
M  V30 4835 C 460.913 -3.12079 1.79261 0
M  V30 4836 C 460.521 -3.02877 3.30106 0
M  V30 4837 C 462.265 -3.89421 1.68972 0
M  V30 4838 C 460.172 -4.36575 3.98944 0
M  V30 4839 H 459.102 -0.650408 0.381425 0
M  V30 4840 H 461.753 -1.11985 1.45367 0
M  V30 4841 H 460.135 -3.74196 1.2959 0
M  V30 4842 H 461.309 -2.49983 3.87098 0
M  V30 4843 H 459.624 -2.39022 3.40965 0
M  V30 4844 H 462.221 -4.88362 2.17731 0
M  V30 4845 H 462.564 -4.1122 0.648397 0
M  V30 4846 H 463.097 -3.33963 2.16133 0
M  V30 4847 H 459.836 -4.19978 5.03288 0
M  V30 4848 H 459.356 -4.8942 3.4674 0
M  V30 4849 H 461.035 -5.05364 4.04 0
M  V30 4850 N 461.167 -1.02423 -1.1978 0
M  V30 4851 C 462.414 -0.717988 -1.89344 0
M  V30 4852 C 462.742 0.753036 -1.79331 0
M  V30 4853 O 461.997 1.56355 -1.17692 0
M  V30 4854 C 462.296 -1.1088 -3.39765 0
M  V30 4855 C 461.962 -2.57731 -3.6998 0
M  V30 4856 C 460.624 -2.97854 -3.77937 0
M  V30 4857 C 462.976 -3.52763 -3.83677 0
M  V30 4858 C 460.304 -4.31931 -3.97054 0
M  V30 4859 C 462.656 -4.86538 -4.04306 0
M  V30 4860 C 461.32 -5.26356 -4.10494 0
M  V30 4861 H 460.59 -0.26273 -0.692859 0
M  V30 4862 H 463.237 -1.28623 -1.41875 0
M  V30 4863 H 461.542 -0.459094 -3.89101 0
M  V30 4864 H 463.239 -0.849432 -3.919 0
M  V30 4865 H 459.829 -2.25646 -3.64393 0
M  V30 4866 H 464.013 -3.2292 -3.76877 0
M  V30 4867 H 459.269 -4.62324 -4.00083 0
M  V30 4868 H 463.443 -5.60093 -4.13846 0
M  V30 4869 H 461.07 -6.3026 -4.2506 0
M  V30 4870 N 462.645 1.35699 -0.801477 0
M  V30 4871 C 463.893 1.9852 -0.37871 0
M  V30 4872 C 464.214 1.63907 1.05638 0
M  V30 4873 O 463.484 0.919013 1.73006 0
M  V30 4874 H 462.064 0.734322 -0.137042 0
M  V30 4875 H 464.726 1.65697 -1.02619 0
M  V30 4876 H 463.822 3.08382 -0.480284 0
M  V30 4877 N 464.123 0.554532 1.47522 0
M  V30 4878 C 465.37 0.029479 2.02479 0
M  V30 4879 C 465.698 -1.31929 1.42916 0
M  V30 4880 O 464.953 -1.87112 0.573385 0
M  V30 4881 C 465.252 -0.115927 3.57212 0
M  V30 4882 C 464.918 1.16161 4.3568 0
M  V30 4883 C 463.58 1.51168 4.56839 0
M  V30 4884 C 465.932 2.0083 4.80954 0
M  V30 4885 C 463.26 2.70696 5.2052 0
M  V30 4886 C 465.612 3.19559 5.45953 0
M  V30 4887 C 464.276 3.54882 5.65345 0
M  V30 4888 H 463.546 0.0107871 0.740921 0
M  V30 4889 H 466.193 0.725506 1.77225 0
M  V30 4890 H 464.498 -0.894902 3.81443 0
M  V30 4891 H 466.195 -0.53749 3.97381 0
M  V30 4892 H 462.785 0.879026 4.19489 0
M  V30 4893 H 466.969 1.75093 4.64388 0
M  V30 4894 H 462.225 2.98236 5.33728 0
M  V30 4895 H 466.399 3.85456 5.79997 0
M  V30 4896 H 464.026 4.47596 6.1446 0
M  V30 4897 N 465.601 -1.54893 0.290851 0
M  V30 4898 C 466.511 -2.26812 -0.59945 0
M  V30 4899 C 467.527 -1.29963 -1.15696 0
M  V30 4900 O 468.703 -1.62928 -1.18391 0
M  V30 4901 C 465.768 -2.98716 -1.75982 0
M  V30 4902 C 464.829 -4.1108 -1.2374 0
M  V30 4903 C 464.062 -4.79546 -2.34246 0
M  V30 4904 O 464.285 -4.47309 -3.53936 0
M  V30 4905 O 463.219 -5.67165 -2.01512 0
M  V30 4906 H 467.045 -3.03696 -0.0163561 0
M  V30 4907 H 464.63 -1.49289 0.0576755 0
M  V30 4908 H 466.512 -3.43851 -2.43607 0
M  V30 4909 H 465.187 -2.24737 -2.3297 0
M  V30 4910 H 464.094 -3.70367 -0.527163 0
M  V30 4911 H 465.427 -4.87007 -0.71307 0
M  V30 4912 N 467.08 -0.0183926 -1.57589 0
M  V30 4913 C 468.328 0.661253 -1.90976 0
M  V30 4914 C 468.649 1.73281 -0.894353 0
M  V30 4915 O 467.919 1.9579 0.0656788 0
M  V30 4916 H 466.499 0.247233 -0.704901 0
M  V30 4917 H 469.161 -0.0636639 -1.94796 0
M  V30 4918 H 468.257 1.12083 -2.9128 0
M  V30 4919 N 468.558 1.5553 0.254621 0
M  V30 4920 C 469.468 1.92789 1.33677 0
M  V30 4921 C 470.484 0.827356 1.53071 0
M  V30 4922 O 471.66 1.12807 1.66843 0
M  V30 4923 C 468.725 2.20827 2.67275 0
M  V30 4924 C 467.786 3.4427 2.5647 0
M  V30 4925 C 467.019 3.70961 3.83697 0
M  V30 4926 O 467.242 2.99852 4.85227 0
M  V30 4927 O 466.176 4.64491 3.82794 0
M  V30 4928 H 470.002 2.84945 1.05071 0
M  V30 4929 H 467.587 1.42312 0.454723 0
M  V30 4930 H 469.469 2.40204 3.46237 0
M  V30 4931 H 468.144 1.31851 2.9563 0
M  V30 4932 H 467.051 3.30209 1.75821 0
M  V30 4933 H 468.384 4.33524 2.33062 0
M  V30 4934 N 470.036 -0.519951 1.48776 0
M  V30 4935 C 471.284 -1.2727 1.56993 0
M  V30 4936 C 471.605 -1.9339 0.25004 0
M  V30 4937 O 470.875 -1.81822 -0.729216 0
M  V30 4938 H 469.455 -0.472732 0.578389 0
M  V30 4939 H 472.117 -0.604234 1.85297 0
M  V30 4940 H 471.213 -2.04669 2.3562 0
M  V30 4941 N 471.514 -1.37532 -0.769588 0
M  V30 4942 C 472.424 -1.35668 -1.91393 0
M  V30 4943 C 473.44 -0.255954 -1.72107 0
M  V30 4944 O 474.616 -0.491704 -1.95305 0
M  V30 4945 C 471.681 -1.16481 -3.26547 0
M  V30 4946 C 470.742 -2.36212 -3.58472 0
M  V30 4947 C 469.975 -2.17932 -4.87177 0
M  V30 4948 O 470.198 -1.1647 -5.58382 0
M  V30 4949 O 469.132 -3.06167 -5.18214 0
M  V30 4950 H 472.958 -2.32055 -1.95918 0
M  V30 4951 H 470.543 -1.18284 -0.912641 0
M  V30 4952 H 472.425 -1.07778 -4.07384 0
M  V30 4953 H 471.1 -0.231687 -3.2287 0
M  V30 4954 H 470.007 -2.50488 -2.77861 0
M  V30 4955 H 471.34 -3.281 -3.66894 0
M  V30 4956 N 472.992 0.995999 -1.22138 0
M  V30 4957 C 473.902 2.11985 -1.00496 0
M  V30 4958 C 474.918 1.7394 0.0457701 0
M  V30 4959 O 476.094 2.00868 -0.146273 0
M  V30 4960 C 473.159 3.41779 -0.582086 0
M  V30 4961 C 472.22 3.93943 -1.70608 0
M  V30 4962 C 471.453 5.17542 -1.30328 0
M  V30 4963 O 471.676 5.70114 -0.180743 0
M  V30 4964 O 470.61 5.63382 -2.11861 0
M  V30 4965 H 474.436 2.33123 -1.94647 0
M  V30 4966 H 472.021 1.10358 -1.00705 0
M  V30 4967 H 473.903 4.1989 -0.356467 0
M  V30 4968 H 472.578 3.22007 0.330592 0
M  V30 4969 H 471.485 3.17019 -1.98619 0
M  V30 4970 H 472.818 4.18141 -2.59651 0
M  V30 4971 N 474.47 1.03057 1.19235 0
M  V30 4972 C 475.4 0.633497 2.24742 0
M  V30 4973 C 476.381 -0.358335 1.66283 0
M  V30 4974 O 477.566 -0.240676 1.92703 0
M  V30 4975 C 474.696 -0.0147648 3.47297 0
M  V30 4976 C 473.65 0.899527 4.18441 0
M  V30 4977 C 472.976 0.116281 5.34574 0
M  V30 4978 C 474.276 2.21404 4.73051 0
M  V30 4979 H 475.97 1.5155 2.58211 0
M  V30 4980 H 473.516 0.73014 1.24117 0
M  V30 4981 H 475.469 -0.304202 4.20301 0
M  V30 4982 H 474.193 -0.931577 3.13032 0
M  V30 4983 H 472.852 1.17319 3.47321 0
M  V30 4984 H 472.5 -0.802619 4.96555 0
M  V30 4985 H 472.2 0.725293 5.83107 0
M  V30 4986 H 473.724 -0.166376 6.10373 0
M  V30 4987 H 475.138 1.98601 5.37802 0
M  V30 4988 H 473.535 2.77512 5.32078 0
M  V30 4989 H 474.605 2.86752 3.91026 0
M  V30 4990 N 475.948 -1.35272 0.808662 0
M  V30 4991 C 477.197 -1.97963 0.386483 0
M  V30 4992 C 477.51 -1.64866 -1.05255 0
M  V30 4993 O 478.716 -2.20937 -1.57794 0
M  V30 4994 C 477.172 -3.54162 0.640096 0
M  V30 4995 C 476.78 -3.96166 2.0918 0
M  V30 4996 C 478.524 -4.23553 0.283376 0
M  V30 4997 C 476.431 -5.4522 2.29106 0
M  V30 4998 H 475.361 -0.740742 0.140774 0
M  V30 4999 H 478.012 -1.5431 0.993012 0
M  V30 5000 H 476.394 -3.95983 -0.0364117 0
M  V30 5001 H 477.568 -3.65491 2.80629 0
M  V30 5002 H 475.883 -3.3967 2.40859 0
M  V30 5003 H 478.48 -5.33124 0.410273 0
M  V30 5004 H 478.823 -4.09105 -0.770659 0
M  V30 5005 H 479.356 -3.8716 0.913884 0
M  V30 5006 H 476.095 -5.64638 3.32962 0
M  V30 5007 H 475.615 -5.77457 1.62184 0
M  V30 5008 H 477.294 -6.1171 2.1076 0
M  V30 5009 N 477.426 -0.562348 -1.47226 0
M  V30 5010 C 478.356 0.170627 -2.32876 0
M  V30 5011 C 479.337 0.903748 -1.44106 0
M  V30 5012 O 480.522 0.883206 -1.72954 0
M  V30 5013 C 477.652 1.19786 -3.25989 0
M  V30 5014 C 476.606 0.580875 -4.2404 0
M  V30 5015 C 475.932 1.71311 -5.06514 0
M  V30 5016 C 477.232 -0.468714 -5.20193 0
M  V30 5017 H 478.926 -0.544441 -2.94408 0
M  V30 5018 H 476.472 -0.263271 -1.41573 0
M  V30 5019 H 478.425 1.71884 -3.84752 0
M  V30 5020 H 477.149 1.94294 -2.62521 0
M  V30 5021 H 475.808 0.0811538 -3.6651 0
M  V30 5022 H 475.456 2.44736 -4.39447 0
M  V30 5023 H 475.156 1.30604 -5.72902 0
M  V30 5024 H 476.68 2.23725 -5.68137 0
M  V30 5025 H 478.094 -0.0336028 -5.7329 0
M  V30 5026 H 476.491 -0.794957 -5.94811 0
M  V30 5027 H 477.561 -1.36269 -4.65359 0
M  V30 5028 N 478.904 1.54736 -0.299062 0
M  V30 5029 C 479.851 2.23448 0.577899 0
M  V30 5030 C 480.821 1.21637 1.13109 0
M  V30 5031 O 482.006 1.50252 1.17597 0
M  V30 5032 C 479.146 2.9774 1.74484 0
M  V30 5033 C 478.259 4.1432 1.22323 0
M  V30 5034 C 477.394 4.76199 2.35388 0
M  V30 5035 C 476.433 5.84927 1.80351 0
M  V30 5036 N 475.57 6.4077 2.86982 0
M  V30 5037 H 480.41 2.97996 -0.0146545 0
M  V30 5038 H 477.947 1.47088 -0.0190013 0
M  V30 5039 H 479.905 3.39045 2.43114 0
M  V30 5040 H 478.535 2.25572 2.30905 0
M  V30 5041 H 477.587 3.7797 0.429249 0
M  V30 5042 H 478.899 4.92659 0.780309 0
M  V30 5043 H 478.053 5.20346 3.11969 0
M  V30 5044 H 476.792 3.97188 2.83006 0
M  V30 5045 H 475.797 5.40207 1.02259 0
M  V30 5046 H 477.022 6.65821 1.3364 0
M  V30 5047 H 474.968 5.64643 3.33938 0
M  V30 5048 H 474.885 7.1445 2.4718 0
M  V30 5049 H 476.153 6.89574 3.63466 0
M  V30 5050 N 480.382 0.0267497 1.57577 0
M  V30 5051 C 481.63 -0.651116 1.91324 0
M  V30 5052 C 481.951 -1.72804 0.90353 0
M  V30 5053 O 481.221 -1.95822 -0.0552946 0
M  V30 5054 H 479.801 -0.243491 0.706202 0
M  V30 5055 H 482.463 0.0739935 1.94759 0
M  V30 5056 H 481.559 -1.10536 2.9187 0
M  V30 5057 N 481.861 -1.55662 -0.24637 0
M  V30 5058 C 483.11 -1.7672 -0.972254 0
M  V30 5059 C 483.423 -0.59078 -1.86465 0
M  V30 5060 O 484.629 -0.684391 -2.62732 0
M  V30 5061 C 483.085 -3.12869 -1.7788 0
M  V30 5062 C 482.693 -4.38161 -0.933768 0
M  V30 5063 C 484.437 -3.43265 -2.49738 0
M  V30 5064 C 482.344 -5.6534 -1.73623 0
M  V30 5065 H 481.274 -0.658795 -0.366749 0
M  V30 5066 H 483.925 -1.82092 -0.226902 0
M  V30 5067 H 482.307 -3.01606 -2.56612 0
M  V30 5068 H 483.481 -4.60413 -0.188736 0
M  V30 5069 H 481.796 -4.15102 -0.328488 0
M  V30 5070 H 484.393 -4.35501 -3.10231 0
M  V30 5071 H 484.736 -2.64614 -3.2138 0
M  V30 5072 H 485.269 -3.55746 -1.78016 0
M  V30 5073 H 482.008 -6.46814 -1.06354 0
M  V30 5074 H 481.528 -5.47188 -2.45653 0
M  V30 5075 H 483.207 -6.04616 -2.30323 0
M  V30 5076 N 483.339 0.512053 -1.4905 0
M  V30 5077 C 484.249 1.64139 -1.67617 0
M  V30 5078 C 485.265 1.64786 -0.558701 0
M  V30 5079 O 486.441 1.8341 -0.832034 0
M  V30 5080 C 483.506 3.00548 -1.72835 0
M  V30 5081 C 482.567 3.10615 -2.96339 0
M  V30 5082 C 481.8 4.40517 -3.01298 0
M  V30 5083 O 482.023 5.28671 -2.14157 0
M  V30 5084 O 480.957 4.55325 -3.93653 0
M  V30 5085 H 484.783 1.51407 -2.63267 0
M  V30 5086 H 482.368 0.687131 -1.32661 0
M  V30 5087 H 484.25 3.81641 -1.78683 0
M  V30 5088 H 482.925 3.13566 -0.803616 0
M  V30 5089 H 481.832 2.2875 -2.96014 0
M  V30 5090 H 483.165 3.0252 -3.88256 0
M  V30 5091 N 484.817 1.37938 0.762283 0
M  V30 5092 C 485.78 1.34279 1.85747 0
M  V30 5093 C 486.78 0.244969 1.58923 0
M  V30 5094 O 487.97 0.501365 1.66829 0
M  V30 5095 C 485.102 1.08833 3.23061 0
M  V30 5096 H 486.295 2.31705 1.90401 0
M  V30 5097 H 483.848 1.23105 0.963057 0
M  V30 5098 H 484.583 0.119767 3.24079 0
M  V30 5099 H 484.368 1.88306 3.43923 0
M  V30 5100 H 485.858 1.08946 4.03138 0
M  V30 5101 N 486.295 -0.989507 1.22664 0
M  V30 5102 C 487.542 -1.72953 1.05325 0
M  V30 5103 C 487.87 -1.90104 -0.411168 0
M  V30 5104 O 487.125 -1.44386 -1.32103 0
M  V30 5105 C 487.424 -3.13649 1.71345 0
M  V30 5106 C 487.09 -3.16403 3.21248 0
M  V30 5107 C 485.752 -3.16862 3.62149 0
M  V30 5108 C 488.104 -3.12428 4.17179 0
M  V30 5109 C 485.432 -3.11051 4.97458 0
M  V30 5110 C 487.784 -3.08159 5.52468 0
M  V30 5111 C 486.448 -3.06935 5.92746 0
M  V30 5112 H 485.718 -0.632881 0.385412 0
M  V30 5113 H 488.365 -1.15863 1.52473 0
M  V30 5114 H 486.67 -3.74069 1.16532 0
M  V30 5115 H 488.367 -3.69658 1.55416 0
M  V30 5116 H 484.957 -3.16798 2.88682 0
M  V30 5117 H 489.141 -3.11221 3.86595 0
M  V30 5118 H 484.397 -3.0845 5.27891 0
M  V30 5119 H 488.571 -3.04039 6.26525 0
M  V30 5120 H 486.198 -3.02186 6.97558 0
M  V30 5121 N 487.773 -1.03688 -1.18687 0
M  V30 5122 C 488.72 -0.624624 -2.22187 0
M  V30 5123 C 489.69 0.365636 -1.62026 0
M  V30 5124 O 490.875 0.260481 -1.89014 0
M  V30 5125 C 488.015 0.0101738 -3.45099 0
M  V30 5126 C 487.128 -1.02709 -4.19613 0
M  V30 5127 C 486.263 -0.361213 -5.2997 0
M  V30 5128 C 485.302 -1.38384 -5.96252 0
M  V30 5129 N 484.439 -0.743196 -6.98155 0
M  V30 5130 H 489.279 -1.51176 -2.56807 0
M  V30 5131 H 486.816 -0.75636 -1.26165 0
M  V30 5132 H 488.774 0.395528 -4.15321 0
M  V30 5133 H 487.404 0.860848 -3.1111 0
M  V30 5134 H 486.456 -1.53043 -3.48256 0
M  V30 5135 H 487.768 -1.80398 -4.65036 0
M  V30 5136 H 486.922 0.0785537 -6.06649 0
M  V30 5137 H 485.661 0.447799 -4.8564 0
M  V30 5138 H 484.666 -1.83378 -5.18317 0
M  V30 5139 H 485.891 -2.19448 -6.42666 0
M  V30 5140 H 483.837 0.0455789 -6.55984 0
M  V30 5141 H 483.754 -1.45784 -7.41811 0
M  V30 5142 H 485.022 -0.327698 -7.78811 0
M  V30 5143 N 489.251 1.34841 -0.815825 0
M  V30 5144 C 490.199 2.31549 -0.220888 0
M  V30 5145 C 491.193 1.5707 0.634457 0
M  V30 5146 O 492.399 1.72125 0.526589 0
M  V30 5147 H 488.774 0.750153 -0.0526782 0
M  V30 5148 H 490.745 2.7926 -1.05149 0
M  V30 5149 C 489.494 3.42335 0.608427 0
M  V30 5150 H 488.817 3.9978 -0.0404121 0
M  V30 5151 H 490.257 4.12258 0.990931 0
M  V30 5152 C 488.716 2.86173 1.77782 0
M  V30 5153 O 489.246 2.80474 2.87571 0
M  V30 5154 N 487.452 2.43093 1.59229 0
M  V30 5155 H 486.999 2.47928 0.699237 0
M  V30 5156 H 486.957 2.05866 2.37627 0
M  V30 5157 N 490.729 0.570148 1.46925 0
M  V30 5158 C 491.975 0.0593124 2.03314 0
M  V30 5159 C 492.33 -1.28139 1.43521 0
M  V30 5160 O 491.623 -1.82411 0.586245 0
M  V30 5161 C 491.817 -0.0780336 3.57315 0
M  V30 5162 C 491.646 1.2478 4.32042 0
M  V30 5163 C 490.416 1.81859 4.7144 0
M  V30 5164 C 492.614 2.16808 4.66368 0
M  V30 5165 N 490.596 3.08313 5.30864 0
M  V30 5166 C 491.967 3.27845 5.2623 0
M  V30 5167 C 494.022 2.16643 4.48297 0
M  V30 5168 C 492.725 4.38832 5.69929 0
M  V30 5169 C 494.751 3.26652 4.93004 0
M  V30 5170 C 494.113 4.36408 5.52926 0
M  V30 5171 H 490.212 0.0641804 0.779362 0
M  V30 5172 H 492.796 0.760285 1.79242 0
M  V30 5173 H 490.967 -0.748151 3.81126 0
M  V30 5174 H 492.699 -0.59211 4.00345 0
M  V30 5175 H 489.454 1.35502 4.53802 0
M  V30 5176 H 489.878 3.72802 5.65108 0
M  V30 5177 H 494.52 1.33065 4.01315 0
M  V30 5178 H 492.238 5.23162 6.15896 0
M  V30 5179 H 495.824 3.27627 4.80782 0
M  V30 5180 H 494.704 5.20127 5.86888 0
M  V30 5181 N 492.207 -1.54576 0.307264 0
M  V30 5182 C 493.137 -2.26708 -0.55907 0
M  V30 5183 C 494.118 -1.26893 -1.1328 0
M  V30 5184 O 495.303 -1.55677 -1.16097 0
M  V30 5185 C 492.433 -3.01259 -1.72801 0
M  V30 5186 C 491.387 -4.08275 -1.28435 0
M  V30 5187 C 490.713 -4.70575 -2.53895 0
M  V30 5188 C 492.013 -5.2068 -0.411038 0
M  V30 5189 H 493.707 -2.9937 0.042576 0
M  V30 5190 H 491.253 -1.43983 0.0219173 0
M  V30 5191 H 493.206 -3.50444 -2.34023 0
M  V30 5192 H 491.93 -2.26187 -2.356 0
M  V30 5193 H 490.589 -3.59949 -0.695161 0
M  V30 5194 H 490.237 -3.92136 -3.15021 0
M  V30 5195 H 489.937 -5.42854 -2.24908 0
M  V30 5196 H 491.461 -5.22527 -3.15908 0
M  V30 5197 H 492.875 -5.65721 -0.929097 0
M  V30 5198 H 491.272 -5.99716 -0.214664 0
M  V30 5199 H 492.342 -4.81629 0.562287 0
M  V30 5200 N 493.685 -0.035106 -1.57561 0
M  V30 5201 C 494.632 0.94474 -2.10578 0
M  V30 5202 C 495.602 1.3192 -1.00927 0
M  V30 5203 O 496.787 1.41147 -1.28382 0
M  V30 5204 C 493.927 2.21982 -2.64231 0
M  V30 5205 C 493.04 1.90128 -3.87911 0
M  V30 5206 C 492.175 3.11975 -4.29936 0
M  V30 5207 C 491.214 2.75968 -5.46359 0
M  V30 5208 N 490.351 3.90459 -5.83512 0
M  V30 5209 H 495.191 0.485717 -2.94015 0
M  V30 5210 H 492.728 0.228143 -1.4532 0
M  V30 5211 H 494.686 2.96572 -2.9343 0
M  V30 5212 H 493.316 2.6549 -1.83616 0
M  V30 5213 H 492.368 1.05755 -3.65404 0
M  V30 5214 H 493.68 1.59613 -4.72573 0
M  V30 5215 H 492.834 3.9488 -4.60603 0
M  V30 5216 H 491.573 3.45657 -3.44053 0
M  V30 5217 H 490.578 1.91478 -5.1538 0
M  V30 5218 H 491.803 2.43497 -6.33945 0
M  V30 5219 H 489.749 4.23971 -5.00584 0
M  V30 5220 H 489.666 3.63588 -6.62827 0
M  V30 5221 H 490.934 4.7405 -6.18787 0
M  V30 5222 N 495.163 1.55791 0.238111 0
M  V30 5223 C 496.11 1.9105 1.29493 0
M  V30 5224 C 497.08 0.765733 1.47397 0
M  V30 5225 O 498.265 1.02017 1.61236 0
M  V30 5226 C 495.405 2.21826 2.64362 0
M  V30 5227 C 494.518 3.49153 2.54394 0
M  V30 5228 C 493.653 3.69455 3.81676 0
M  V30 5229 C 492.692 4.90353 3.66361 0
M  V30 5230 N 491.829 5.07131 4.85554 0
M  V30 5231 H 496.669 2.81172 0.987233 0
M  V30 5232 H 494.206 1.39179 0.476203 0
M  V30 5233 H 496.164 2.37675 3.4288 0
M  V30 5234 H 494.794 1.34897 2.93262 0
M  V30 5235 H 493.846 3.41587 1.67399 0
M  V30 5236 H 495.158 4.37818 2.38991 0
M  V30 5237 H 494.312 3.85311 4.68636 0
M  V30 5238 H 493.051 2.7904 3.99985 0
M  V30 5239 H 492.056 4.74464 2.77784 0
M  V30 5240 H 493.281 5.82237 3.49538 0
M  V30 5241 H 491.227 4.19654 5.04209 0
M  V30 5242 H 491.144 5.89899 4.72816 0
M  V30 5243 H 492.412 5.27407 5.73988 0
M  V30 5244 N 496.642 -0.504142 1.49319 0
M  V30 5245 C 497.888 -1.26033 1.58882 0
M  V30 5246 C 498.221 -1.92268 0.273274 0
M  V30 5247 O 497.496 -1.80567 -0.72291 0
M  V30 5248 C 497.779 -2.32976 2.7458 0
M  V30 5249 C 497.632 -1.71263 4.1592 0
M  V30 5250 C 498.951 -3.34561 2.85932 0
M  V30 5251 H 496.07 -0.456863 0.578312 0
M  V30 5252 H 498.712 -0.558965 1.81592 0
M  V30 5253 H 496.862 -2.92796 2.55348 0
M  V30 5254 H 498.534 -1.15294 4.4666 0
M  V30 5255 H 496.777 -1.01686 4.21714 0
M  V30 5256 H 497.448 -2.48816 4.92742 0
M  V30 5257 H 499.924 -2.84727 3.0343 0
M  V30 5258 H 498.8 -4.06754 3.68568 0
M  V30 5259 H 499.061 -3.96695 1.95154 0
M  V30 5260 N 498.12 -1.38341 -0.754957 0
M  V30 5261 C 499.368 -1.34208 -1.51105 0
M  V30 5262 C 499.689 0.0677634 -1.94882 0
M  V30 5263 O 498.959 1.01517 -1.67544 0
M  V30 5264 H 497.539 -0.493819 -0.560493 0
M  V30 5265 H 500.201 -1.73005 -0.897507 0
M  V30 5266 H 499.297 -1.99203 -2.4026 0
M  V30 5267 N 499.598 0.982988 -1.23187 0
M  V30 5268 C 500.561 2.05649 -1.01198 0
M  V30 5269 C 501.561 1.6078 0.0252464 0
M  V30 5270 O 502.751 1.72878 -0.214243 0
M  V30 5271 C 499.883 3.36744 -0.530656 0
M  V30 5272 H 501.076 2.2659 -1.96461 0
M  V30 5273 H 498.629 1.15602 -1.05195 0
M  V30 5274 H 499.364 3.21492 0.425873 0
M  V30 5275 H 499.149 3.7065 -1.2791 0
M  V30 5276 H 500.639 4.15705 -0.397366 0
M  V30 5277 N 501.076 1.04316 1.18135 0
M  V30 5278 C 502.487 0.775505 1.69832 0
M  V30 5279 C 502.838 -0.703348 1.8316 0
M  V30 5280 O 501.963 -1.54729 1.51287 0
M  V30 5281 C 502.558 1.40112 3.0847 0
M  V30 5282 C 501.117 1.18172 3.57368 0
M  V30 5283 C 500.264 1.49022 2.33854 0
M  V30 5284 H 503.215 1.20925 1.02775 0
M  V30 5285 H 503.236 0.805672 3.71873 0
M  V30 5286 H 502.748 2.47744 2.98738 0
M  V30 5287 H 500.849 0.124258 3.72393 0
M  V30 5288 H 500.962 1.8805 4.40652 0
M  V30 5289 H 499.326 0.909995 2.37889 0
M  V30 5290 H 500.109 2.57768 2.26738 0
M  V30 5291 N 502.554 -1.34406 0.822964 0
M  V30 5292 C 503.8 -1.98578 0.411666 0
M  V30 5293 C 504.133 -1.65093 -1.02264 0
M  V30 5294 O 503.408 -0.92258 -1.71227 0
M  V30 5295 C 503.691 -3.54823 0.614235 0
M  V30 5296 C 503.544 -3.9805 2.09466 0
M  V30 5297 C 504.863 -4.40071 0.050221 0
M  V30 5298 H 501.982 -0.721355 0.151047 0
M  V30 5299 H 504.624 -1.59301 1.03554 0
M  V30 5300 H 502.774 -3.88411 0.0831774 0
M  V30 5301 H 504.446 -3.74795 2.68936 0
M  V30 5302 H 502.689 -3.4836 2.5851 0
M  V30 5303 H 503.36 -5.06819 2.18721 0
M  V30 5304 H 505.836 -4.13037 0.503953 0
M  V30 5305 H 504.712 -5.48452 0.221759 0
M  V30 5306 H 504.973 -4.29576 -1.04482 0
M  V30 5307 N 504.032 -0.577932 -1.46621 0
M  V30 5308 C 505.257 -0.0652536 -2.07297 0
M  V30 5309 C 505.682 1.22828 -1.4246 0
M  V30 5310 O 505.04 1.74075 -0.506718 0
M  V30 5311 C 505.088 0.0920589 -3.60482 0
M  V30 5312 O 504.192 1.14972 -3.96049 0
M  V30 5313 H 503.533 -0.06065 -0.661224 0
M  V30 5314 H 506.063 -0.799515 -1.88332 0
M  V30 5315 H 506.073 0.299741 -4.06897 0
M  V30 5316 H 504.748 -0.852612 -4.07067 0
M  V30 5317 H 503.325 0.920879 -3.61351 0
M  V30 5318 N 505.51 1.54411 -0.315457 0
M  V30 5319 C 506.44 2.27002 0.547039 0
M  V30 5320 C 507.421 1.27492 1.12605 0
M  V30 5321 O 508.606 1.5629 1.15269 0
M  V30 5322 C 505.736 3.02171 1.71201 0
M  V30 5323 C 504.69 4.0895 1.26268 0
M  V30 5324 C 504.016 4.71915 2.51396 0
M  V30 5325 C 505.316 5.20891 0.383419 0
M  V30 5326 H 507.01 2.99343 -0.0584517 0
M  V30 5327 H 504.556 1.4397 -0.0295527 0
M  V30 5328 H 506.509 3.51681 2.32161 0
M  V30 5329 H 505.233 2.27433 2.34397 0
M  V30 5330 H 503.892 3.60312 0.676062 0
M  V30 5331 H 503.54 3.93801 3.12937 0
M  V30 5332 H 503.24 5.44039 2.22026 0
M  V30 5333 H 504.764 5.24195 3.13133 0
M  V30 5334 H 506.178 5.66206 0.899082 0
M  V30 5335 H 504.575 5.99821 0.182857 0
M  V30 5336 H 505.645 4.81324 -0.587821 0
M  V30 5337 N 506.988 0.0434614 1.5754 0
M  V30 5338 C 507.935 -0.93356 2.11077 0
M  V30 5339 C 508.905 -1.31383 1.01626 0
M  V30 5340 O 510.09 -1.40465 1.29129 0
M  V30 5341 C 507.23 -2.20578 2.65404 0
M  V30 5342 C 506.343 -1.88068 3.88914 0
M  V30 5343 C 505.478 -3.09691 4.31584 0
M  V30 5344 C 504.517 -2.73067 5.47815 0
M  V30 5345 N 503.654 -3.87359 5.85574 0
M  V30 5346 H 508.494 -0.470118 2.94268 0
M  V30 5347 H 506.031 -0.220434 1.45439 0
M  V30 5348 H 507.989 -2.95011 2.94999 0
M  V30 5349 H 506.619 -2.64513 1.85021 0
M  V30 5350 H 505.671 -1.03816 3.6596 0
M  V30 5351 H 506.983 -1.57104 4.73413 0
M  V30 5352 H 506.137 -3.92431 4.62691 0
M  V30 5353 H 504.876 -3.43827 3.45882 0
M  V30 5354 H 503.881 -1.88742 5.16388 0
M  V30 5355 H 505.106 -2.40131 6.35227 0
M  V30 5356 H 503.052 -4.21311 5.02825 0
M  V30 5357 H 502.969 -3.60068 6.64746 0
M  V30 5358 H 504.237 -4.70761 6.21292 0
M  V30 5359 N 508.466 -1.55915 -0.229846 0
M  V30 5360 C 509.743 -1.6932 -0.979295 0
M  V30 5361 C 510.123 -0.588321 -2.02736 0
M  V30 5362 O 509.471 0.40586 -2.24867 0
M  V30 5363 C 509.681 -3.10305 -1.59724 0
M  V30 5364 C 511.029 -3.6945 -2.09264 0
M  V30 5365 O 512.053 -3.13214 -1.69633 0
M  V30 5366 O 510.912 -4.68072 -2.82082 0
M  V30 5367 H 508.006 -0.689314 -0.456919 0
M  V30 5368 H 510.552 -1.68238 -0.222283 0
M  V30 5369 H 509.324 -3.82177 -0.840039 0
M  V30 5370 H 508.947 -3.1547 -2.42001 0
M  V30 5371 N 509.944 0.496216 -1.49584 0
M  V30 5372 C 510.907 1.57952 -1.66084 0
M  V30 5373 C 511.907 1.51729 -0.53244 0
M  V30 5374 O 513.097 1.54796 -0.79899 0
M  V30 5375 C 510.229 2.97604 -1.66268 0
M  V30 5376 H 511.422 1.44649 -2.6271 0
M  V30 5377 H 508.975 0.7208 -1.38687 0
M  V30 5378 H 509.71 3.16378 -0.712432 0
M  V30 5379 H 509.495 3.03528 -2.4822 0
M  V30 5380 H 510.985 3.76301 -1.81073 0
M  V30 5381 N 511.423 1.38739 0.74761 0
M  V30 5382 C 512.671 1.35007 1.50391 0
M  V30 5383 C 512.992 -0.0574274 1.94915 0
M  V30 5384 O 512.262 -1.00628 1.6808 0
M  V30 5385 H 510.842 0.496784 0.557866 0
M  V30 5386 H 513.504 1.73479 0.888319 0
M  V30 5387 H 512.6 2.00474 2.392 0
M  V30 5388 N 512.901 -0.976442 1.23707 0
M  V30 5389 C 514.15 -1.71254 1.06559 0
M  V30 5390 C 514.463 -1.91528 -0.397024 0
M  V30 5391 O 515.669 -2.62625 -0.688518 0
M  V30 5392 C 514.125 -3.08207 1.8584 0
M  V30 5393 C 513.733 -2.95806 3.36456 0
M  V30 5394 C 515.477 -3.85749 1.77194 0
M  V30 5395 C 513.384 -4.28015 4.08114 0
M  V30 5396 H 512.314 -0.642171 0.395136 0
M  V30 5397 H 514.965 -1.08877 1.4771 0
M  V30 5398 H 513.347 -3.71363 1.37498 0
M  V30 5399 H 514.521 -2.41716 3.92314 0
M  V30 5400 H 512.836 -2.31736 3.45959 0
M  V30 5401 H 515.433 -4.83633 2.28041 0
M  V30 5402 H 515.776 -4.09752 0.735477 0
M  V30 5403 H 516.309 -3.29303 2.23169 0
M  V30 5404 H 513.048 -4.09208 5.12083 0
M  V30 5405 H 512.568 -4.81955 3.57043 0
M  V30 5406 H 514.247 -4.96681 4.14629 0
M  V30 5407 N 514.379 -1.04941 -1.1758 0
M  V30 5408 C 515.79 -0.784501 -1.69418 0
M  V30 5409 C 516.141 0.693625 -1.8353 0
M  V30 5410 O 515.266 1.53925 -1.52106 0
M  V30 5411 C 515.861 -1.41746 -3.07723 0
M  V30 5412 C 514.42 -1.20066 -3.56737 0
M  V30 5413 C 513.567 -1.5026 -2.33061 0
M  V30 5414 H 516.518 -1.21469 -1.02133 0
M  V30 5415 H 516.539 -0.825381 -3.7144 0
M  V30 5416 H 516.051 -2.49325 -2.9742 0
M  V30 5417 H 514.152 -0.144006 -3.72322 0
M  V30 5418 H 514.265 -1.90384 -4.39648 0
M  V30 5419 H 512.629 -0.922598 -2.37403 0
M  V30 5420 H 513.412 -2.58967 -2.25368 0
M  V30 5421 N 515.857 1.33968 -0.830081 0
M  V30 5422 C 516.767 2.33164 -0.259207 0
M  V30 5423 C 517.783 1.62951 0.610164 0
M  V30 5424 O 518.959 1.94668 0.516369 0
M  V30 5425 C 516.024 3.42088 0.563598 0
M  V30 5426 C 515.085 4.28037 -0.329014 0
M  V30 5427 C 514.318 5.3176 0.454616 0
M  V30 5428 O 514.541 5.44876 1.6872 0
M  V30 5429 O 513.475 6.01669 -0.166794 0
M  V30 5430 H 517.301 2.83832 -1.08041 0
M  V30 5431 H 514.886 1.37154 -0.59239 0
M  V30 5432 H 516.768 4.08581 1.03147 0
M  V30 5433 H 515.443 2.93651 1.36201 0
M  V30 5434 H 514.35 3.64443 -0.844538 0
M  V30 5435 H 515.683 4.79934 -1.09196 0
M  V30 5436 N 517.335 0.585699 1.46312 0
M  V30 5437 C 518.245 -0.148236 2.34131 0
M  V30 5438 C 519.261 -0.882972 1.49932 0
M  V30 5439 O 520.437 -0.845484 1.82794 0
M  V30 5440 C 517.502 -1.14714 3.27172 0
M  V30 5441 C 516.563 -0.416746 4.27272 0
M  V30 5442 C 515.796 -1.36806 5.15868 0
M  V30 5443 O 516.019 -2.60475 5.07454 0
M  V30 5444 O 514.953 -0.877018 5.95476 0
M  V30 5445 H 518.779 0.572882 2.98248 0
M  V30 5446 H 516.364 0.346082 1.45336 0
M  V30 5447 H 518.246 -1.72303 3.84564 0
M  V30 5448 H 516.921 -1.84967 2.65648 0
M  V30 5449 H 515.828 0.201061 3.73559 0
M  V30 5450 H 517.161 0.244872 4.9159 0
M  V30 5451 N 518.813 -1.54241 0.323641 0
M  V30 5452 C 520.09 -1.92741 -0.333181 0
M  V30 5453 C 520.47 -1.25326 -1.69872 0
M  V30 5454 O 519.818 -0.396991 -2.25025 0
M  V30 5455 C 520.028 -3.46399 -0.425322 0
M  V30 5456 C 521.376 -4.19029 -0.68557 0
M  V30 5457 O 522.4 -3.52555 -0.50824 0
M  V30 5458 O 521.259 -5.36751 -1.02767 0
M  V30 5459 H 518.353 -0.804811 -0.190286 0
M  V30 5460 H 520.899 -1.65542 0.373361 0
M  V30 5461 H 519.671 -3.87643 0.533737 0
M  V30 5462 H 519.294 -3.79704 -1.17944 0
M  V30 5463 N 520.291 -0.0518155 -1.57515 0
M  V30 5464 C 521.54 0.621286 -1.91893 0
M  V30 5465 C 521.853 1.71966 -0.932052 0
M  V30 5466 O 523.059 2.45096 -1.16791 0
M  V30 5467 C 521.515 1.15641 -3.40816 0
M  V30 5468 C 521.123 0.0901146 -4.47909 0
M  V30 5469 C 522.867 1.80472 -3.84227 0
M  V30 5470 C 520.774 0.638154 -5.87947 0
M  V30 5471 H 519.704 0.235835 -0.716169 0
M  V30 5472 H 522.355 -0.120809 -1.83102 0
M  V30 5473 H 520.737 1.95084 -3.44613 0
M  V30 5474 H 521.911 -0.683525 -4.55702 0
M  V30 5475 H 520.226 -0.460774 -4.13843 0
M  V30 5476 H 522.823 2.22471 -4.86221 0
M  V30 5477 H 523.166 2.65669 -3.20508 0
M  V30 5478 H 523.699 1.07683 -3.82948 0
M  V30 5479 H 520.438 -0.176202 -6.55263 0
M  V30 5480 H 519.958 1.37976 -5.83714 0
M  V30 5481 H 521.637 1.12085 -6.37217 0
M  V30 5482 N 521.769 1.56035 0.221574 0
M  V30 5483 C 523.046 1.69837 0.970301 0
M  V30 5484 C 523.426 0.599065 2.02421 0
M  V30 5485 O 522.774 -0.393929 2.25079 0
M  V30 5486 C 522.984 3.11148 1.58076 0
M  V30 5487 C 524.332 3.70555 2.07302 0
M  V30 5488 O 525.356 3.14109 1.6797 0
M  V30 5489 O 524.215 4.69562 2.79596 0
M  V30 5490 H 521.309 0.691727 0.453257 0
M  V30 5491 H 523.855 1.68353 0.213358 0
M  V30 5492 H 522.627 3.82617 0.819759 0
M  V30 5493 H 522.25 3.16749 2.40324 0
M  V30 5494 N 523.247 -0.488276 1.49845 0
M  V30 5495 C 524.194 -1.58836 1.67451 0
M  V30 5496 C 525.164 -1.57886 0.515857 0
M  V30 5497 O 526.349 -1.75679 0.744403 0
M  V30 5498 C 523.489 -2.96915 1.75885 0
M  V30 5499 C 522.602 -3.07784 3.03138 0
M  V30 5500 C 521.737 -4.36673 3.02473 0
M  V30 5501 C 520.776 -4.41222 4.24252 0
M  V30 5502 N 519.913 -5.61557 4.21424 0
M  V30 5503 H 524.753 -1.43131 2.61376 0
M  V30 5504 H 522.29 -0.696186 1.29583 0
M  V30 5505 H 524.248 -3.76965 1.78755 0
M  V30 5506 H 522.878 -3.11295 0.85414 0
M  V30 5507 H 521.93 -2.20717 3.09819 0
M  V30 5508 H 523.242 -3.07005 3.93128 0
M  V30 5509 H 522.396 -5.25055 3.03977 0
M  V30 5510 H 521.135 -4.40037 2.10283 0
M  V30 5511 H 520.14 -3.5124 4.22978 0
M  V30 5512 H 521.365 -4.39564 5.17649 0
M  V30 5513 H 519.311 -5.65738 3.32078 0
M  V30 5514 H 519.228 -5.62447 5.05163 0
M  V30 5515 H 520.496 -6.52111 4.2705 0
M  V30 5516 N 524.725 -1.39134 -0.740242 0
M  V30 5517 C 525.974 -1.35384 -1.49512 0
M  V30 5518 C 526.287 0.04919 -1.95538 0
M  V30 5519 O 527.493 0.209257 -2.70692 0
M  V30 5520 C 525.949 -2.37812 -2.70136 0
M  V30 5521 C 525.557 -3.83804 -2.31081 0
M  V30 5522 C 527.301 -2.4313 -3.47977 0
M  V30 5523 C 525.208 -4.77886 -3.48395 0
M  V30 5524 H 524.138 -0.503297 -0.561434 0
M  V30 5525 H 526.789 -1.64754 -0.807974 0
M  V30 5526 H 525.171 -2.01505 -3.40899 0
M  V30 5527 H 526.345 -4.29123 -1.67898 0
M  V30 5528 H 524.66 -3.81732 -1.66343 0
M  V30 5529 H 527.257 -3.10614 -4.35228 0
M  V30 5530 H 527.6 -1.45423 -3.90074 0
M  V30 5531 H 528.133 -2.78304 -2.84239 0
M  V30 5532 H 524.872 -5.76836 -3.11353 0
M  V30 5533 H 524.392 -4.3725 -4.10576 0
M  V30 5534 H 526.071 -4.96538 -4.148 0
M  V30 5535 N 526.204 0.969867 -1.24223 0
M  V30 5536 C 527.45 1.7151 -1.08223 0
M  V30 5537 C 527.783 1.90478 0.37838 0
M  V30 5538 O 527.058 1.4647 1.27971 0
M  V30 5539 C 527.341 3.10714 -1.82013 0
M  V30 5540 C 527.194 2.9925 -3.35811 0
M  V30 5541 C 528.513 4.10332 -1.59108 0
M  V30 5542 H 525.632 0.622499 -0.394543 0
M  V30 5543 H 528.274 1.1284 -1.52863 0
M  V30 5544 H 526.424 3.608 -1.44068 0
M  V30 5545 H 528.096 2.56608 -3.83341 0
M  V30 5546 H 526.339 2.35512 -3.64303 0
M  V30 5547 H 527.01 3.97857 -3.82641 0
M  V30 5548 H 529.486 3.69097 -1.92111 0
M  V30 5549 H 528.362 5.05804 -2.13198 0
M  V30 5550 H 528.623 4.38926 -0.528832 0
M  V30 5551 N 527.682 1.05563 1.17022 0
M  V30 5552 C 528.959 0.68165 1.83338 0
M  V30 5553 C 529.339 -0.837665 1.93769 0
M  V30 5554 O 528.687 -1.74507 1.47511 0
M  V30 5555 C 528.897 1.375 3.20772 0
M  V30 5556 C 530.245 1.51545 3.96635 0
M  V30 5557 O 531.269 1.33431 3.30264 0
M  V30 5558 O 530.128 1.812 5.15586 0
M  V30 5559 H 527.222 0.240412 0.791285 0
M  V30 5560 H 529.768 1.15545 1.24288 0
M  V30 5561 H 528.54 2.41135 3.08171 0
M  V30 5562 H 528.163 0.890798 3.87493 0
M  V30 5563 N 529.16 -1.33526 0.837174 0
M  V30 5564 C 530.108 -2.31168 0.257698 0
M  V30 5565 C 531.102 -1.5806 -0.609388 0
M  V30 5566 O 532.308 -1.72941 -0.499139 0
M  V30 5567 H 528.683 -0.74922 0.0646058 0
M  V30 5568 H 530.654 -2.77552 1.09578 0
M  V30 5569 C 529.403 -3.4326 -0.553887 0
M  V30 5570 H 528.726 -3.99665 0.104008 0
M  V30 5571 H 530.166 -4.13782 -0.925219 0
M  V30 5572 C 528.625 -2.88965 -1.73207 0
M  V30 5573 O 529.155 -2.85013 -2.83073 0
M  V30 5574 N 527.361 -2.45596 -1.55342 0
M  V30 5575 H 526.908 -2.49009 -0.659705 0
M  V30 5576 H 526.866 -2.0962 -2.34322 0
M  V30 5577 N 530.638 -0.59345 -1.46 0
M  V30 5578 C 531.884 -0.0832754 -2.02629 0
M  V30 5579 C 532.217 1.27749 -1.46266 0
M  V30 5580 O 531.492 1.8395 -0.631866 0
M  V30 5581 C 531.775 -0.0290756 -3.60088 0
M  V30 5582 C 531.628 -1.41951 -4.26814 0
M  V30 5583 C 532.947 0.666055 -4.35031 0
M  V30 5584 H 530.066 -0.031736 -0.736316 0
M  V30 5585 H 532.708 -0.762711 -1.74019 0
M  V30 5586 H 530.858 0.549532 -3.84594 0
M  V30 5587 H 532.53 -2.04411 -4.13538 0
M  V30 5588 H 530.773 -1.98422 -3.8576 0
M  V30 5589 H 531.444 -1.33395 -5.3564 0
M  V30 5590 H 533.92 0.174401 -4.15734 0
M  V30 5591 H 532.796 0.673041 -5.44758 0
M  V30 5592 H 533.057 1.72946 -4.06869 0
M  V30 5593 N 532.116 1.54067 -0.331816 0
M  V30 5594 C 533.049 2.20886 0.573127 0
M  V30 5595 C 534.027 1.18876 1.10938 0
M  V30 5596 O 535.211 1.47649 1.17184 0
M  V30 5597 C 532.338 2.87706 1.78726 0
M  V30 5598 C 531.384 4.03505 1.38152 0
M  V30 5599 S 532.217 5.33919 0.41123 0
M  V30 5600 C 533.373 6.04236 1.63246 0
M  V30 5601 H 533.606 2.97299 0.00555737 0
M  V30 5602 H 531.139 1.53964 -0.115893 0
M  V30 5603 H 533.097 3.26825 2.48386 0
M  V30 5604 H 531.758 2.1108 2.32603 0
M  V30 5605 H 530.951 4.49152 2.28645 0
M  V30 5606 H 530.553 3.66102 0.764524 0
M  V30 5607 H 532.845 6.26917 2.56869 0
M  V30 5608 H 533.788 6.97546 1.218 0
M  V30 5609 H 534.196 5.34247 1.82318 0
M  V30 5610 N 533.594 0.0601682 1.57485 0
M  V30 5611 C 534.524 -0.90889 2.15085 0
M  V30 5612 C 535.505 -1.31838 1.07484 0
M  V30 5613 O 536.69 -1.3915 1.35466 0
M  V30 5614 C 533.82 -2.18059 2.7031 0
M  V30 5615 C 532.774 -1.91088 3.82974 0
M  V30 5616 C 532.1 -3.24789 4.24754 0
M  V30 5617 C 533.4 -1.22535 5.07723 0
M  V30 5618 H 535.094 -0.429093 2.96309 0
M  V30 5619 H 532.64 -0.204952 1.42534 0
M  V30 5620 H 534.593 -2.86258 3.09248 0
M  V30 5621 H 533.317 -2.6826 1.8629 0
M  V30 5622 H 531.976 -1.25297 3.44523 0
M  V30 5623 H 531.624 -3.72809 3.37672 0
M  V30 5624 H 531.324 -3.07538 5.00694 0
M  V30 5625 H 532.848 -3.94205 4.66299 0
M  V30 5626 H 534.262 -1.80783 5.4405 0
M  V30 5627 H 532.659 -1.1558 5.88864 0
M  V30 5628 H 533.729 -0.202692 4.84476 0
M  V30 5629 N 535.072 -1.5615 -0.213296 0
M  V30 5630 C 536.002 -1.96109 -1.26742 0
M  V30 5631 C 536.983 -0.830448 -1.48451 0
M  V30 5632 O 538.168 -1.09339 -1.60495 0
M  V30 5633 C 535.298 -2.28492 -2.61551 0
M  V30 5634 C 534.252 -3.44124 -2.54485 0
M  V30 5635 C 533.578 -3.62134 -3.93399 0
M  V30 5636 C 534.878 -4.78855 -2.08556 0
M  V30 5637 H 536.572 -2.84412 -0.935434 0
M  V30 5638 H 534.118 -1.36836 -0.44854 0
M  V30 5639 H 536.071 -2.55039 -3.3546 0
M  V30 5640 H 534.795 -1.37052 -2.96453 0
M  V30 5641 H 533.454 -3.17639 -1.83033 0
M  V30 5642 H 533.102 -2.68055 -4.25623 0
M  V30 5643 H 532.802 -4.39913 -3.89551 0
M  V30 5644 H 534.326 -3.91038 -4.68958 0
M  V30 5645 H 535.74 -5.04552 -2.72213 0
M  V30 5646 H 534.137 -5.59975 -2.1575 0
M  V30 5647 H 535.207 -4.73657 -1.03811 0
M  V30 5648 N 536.55 0.480323 -1.50102 0
M  V30 5649 C 537.796 1.23489 -1.60867 0
M  V30 5650 C 538.129 1.91809 -0.303827 0
M  V30 5651 O 537.404 1.81694 0.694092 0
M  V30 5652 C 537.687 2.28578 -2.78252 0
M  V30 5653 C 537.54 1.64624 -4.18592 0
M  V30 5654 C 538.859 3.2997 -2.91218 0
M  V30 5655 H 535.978 0.447605 -0.585507 0
M  V30 5656 H 538.62 0.530005 -1.82458 0
M  V30 5657 H 536.77 2.88697 -2.59974 0
M  V30 5658 H 538.442 1.08173 -4.48438 0
M  V30 5659 H 536.685 0.949645 -4.23278 0
M  V30 5660 H 537.356 2.40946 -4.96638 0
M  V30 5661 H 539.832 2.79864 -3.07921 0
M  V30 5662 H 538.708 4.00839 -3.74993 0
M  V30 5663 H 538.969 3.93541 -2.0144 0
M  V30 5664 N 538.028 1.39524 0.732853 0
M  V30 5665 C 538.938 1.40695 1.87729 0
M  V30 5666 C 539.954 0.301496 1.71368 0
M  V30 5667 O 541.13 0.543313 1.93933 0
M  V30 5668 C 538.195 1.25098 3.23344 0
M  V30 5669 C 537.256 2.45634 3.52083 0
M  V30 5670 C 536.489 2.30772 4.81228 0
M  V30 5671 O 536.712 1.31233 5.55098 0
M  V30 5672 O 535.646 3.19799 5.09914 0
M  V30 5673 H 539.472 2.37168 1.89697 0
M  V30 5674 H 537.057 1.20663 0.880959 0
M  V30 5675 H 538.939 1.18541 4.04383 0
M  V30 5676 H 537.614 0.317209 3.22142 0
M  V30 5677 H 536.521 2.57767 2.71122 0
M  V30 5678 H 537.854 3.37712 3.58066 0
M  V30 5679 N 539.506 -0.963266 1.24736 0
M  V30 5680 C 540.453 -2.05857 1.04363 0
M  V30 5681 C 541.423 -1.6604 -0.0444951 0
M  V30 5682 O 542.608 -1.90477 0.110999 0
M  V30 5683 C 539.748 -3.38745 0.659235 0
M  V30 5684 C 538.861 -3.9173 1.82131 0
M  V30 5685 C 537.996 -5.12906 1.38208 0
M  V30 5686 C 537.035 -5.58098 2.51382 0
M  V30 5687 N 536.172 -6.7049 2.08295 0
M  V30 5688 H 541.012 -2.22616 1.98107 0
M  V30 5689 H 538.549 -1.09103 0.986661 0
M  V30 5690 H 540.507 -4.15107 0.417371 0
M  V30 5691 H 539.137 -3.21898 -0.241201 0
M  V30 5692 H 538.189 -3.11966 2.17672 0
M  V30 5693 H 539.501 -4.21225 2.67153 0
M  V30 5694 H 538.655 -5.96657 1.09935 0
M  V30 5695 H 537.394 -4.85105 0.502456 0
M  V30 5696 H 536.399 -4.72917 2.80409 0
M  V30 5697 H 537.624 -5.87911 3.39909 0
M  V30 5698 H 535.57 -6.44416 1.22737 0
M  V30 5699 H 535.487 -6.99458 2.86869 0
M  V30 5700 H 536.755 -7.57672 1.83175 0
M  V30 5701 N 540.985 -1.06182 -1.16461 0
M  V30 5702 C 541.933 -0.665716 -2.2287 0
M  V30 5703 C 542.927 0.317822 -1.66392 0
M  V30 5704 O 544.133 0.182807 -1.79069 0
M  V30 5705 H 540.508 -0.197148 -0.725697 0
M  V30 5706 H 542.479 -1.57307 -2.53569 0
M  V30 5707 C 541.228 -0.0669803 -3.47635 0
M  V30 5708 H 540.551 -0.814899 -3.91407 0
M  V30 5709 H 541.991 0.172669 -4.23648 0
M  V30 5710 C 540.45 1.18913 -3.15216 0
M  V30 5711 O 540.98 2.27723 -3.30916 0
M  V30 5712 N 539.186 1.09066 -2.69357 0
M  V30 5713 H 538.733 0.20518 -2.56782 0
M  V30 5714 H 538.691 1.93195 -2.48039 0
M  V30 5715 N 542.463 1.3308 -0.844243 0
M  V30 5716 C 543.393 2.3161 -0.296493 0
M  V30 5717 C 544.374 1.59215 0.598707 0
M  V30 5718 O 545.559 1.87077 0.521134 0
M  V30 5719 C 542.689 3.43313 0.524762 0
M  V30 5720 C 541.643 4.27115 -0.275106 0
M  V30 5721 C 540.969 5.30483 0.670236 0
M  V30 5722 C 542.269 5.00443 -1.49514 0
M  V30 5723 H 543.963 2.77672 -1.11976 0
M  V30 5724 H 541.509 1.33496 -0.539899 0
M  V30 5725 H 543.462 4.11273 0.918298 0
M  V30 5726 H 542.186 2.95952 1.3813 0
M  V30 5727 H 540.845 3.60787 -0.650267 0
M  V30 5728 H 540.493 4.79379 1.52332 0
M  V30 5729 H 540.193 5.87435 0.139123 0
M  V30 5730 H 541.717 6.01308 1.06117 0
M  V30 5731 H 543.131 5.61141 -1.17447 0
M  V30 5732 H 541.528 5.67071 -1.96343 0
M  V30 5733 H 542.598 4.28906 -2.26202 0
M  V30 5734 N 543.941 0.601185 1.45683 0
M  V30 5735 C 544.888 -0.121396 2.30481 0
M  V30 5736 C 545.858 -0.866232 1.41724 0
M  V30 5737 O 547.043 -0.85324 1.70659 0
M  V30 5738 C 544.183 -1.11704 3.26521 0
M  V30 5739 C 543.296 -0.373741 4.3038 0
M  V30 5740 C 542.431 -1.35854 5.13534 0
M  V30 5741 C 541.47 -0.602689 6.09126 0
M  V30 5742 N 540.607 -1.53645 6.85082 0
M  V30 5743 H 545.447 0.607732 2.91737 0
M  V30 5744 H 542.984 0.311502 1.43764 0
M  V30 5745 H 544.942 -1.70735 3.80664 0
M  V30 5746 H 543.572 -1.81366 2.67032 0
M  V30 5747 H 542.624 0.331962 3.78949 0
M  V30 5748 H 543.936 0.2163 4.98331 0
M  V30 5749 H 543.09 -2.02111 5.72046 0
M  V30 5750 H 541.829 -1.98251 4.45587 0
M  V30 5751 H 540.834 0.0735482 5.49751 0
M  V30 5752 H 542.059 0.0161467 6.79098 0
M  V30 5753 H 540.005 -2.14819 6.1983 0
M  V30 5754 H 539.922 -0.999688 7.49361 0
M  V30 5755 H 541.19 -2.1888 7.48139 0
M  V30 5756 N 545.419 -1.53889 0.339982 0
M  V30 5757 C 546.83 -1.86139 -0.144671 0
M  V30 5758 C 547.181 -1.2613 -1.50285 0
M  V30 5759 O 546.306 -0.573515 -2.08662 0
M  V30 5760 C 546.901 -3.37728 -0.269285 0
M  V30 5761 C 545.46 -3.69868 -0.698168 0
M  V30 5762 C 544.607 -2.76777 0.170249 0
M  V30 5763 H 547.558 -1.48503 0.559704 0
M  V30 5764 H 547.579 -3.64331 -1.0974 0
M  V30 5765 H 547.091 -3.81375 0.719366 0
M  V30 5766 H 545.192 -3.31764 -1.69597 0
M  V30 5767 H 545.305 -4.76582 -0.490533 0
M  V30 5768 H 543.669 -2.52188 -0.356844 0
M  V30 5769 H 544.452 -3.23253 1.15597 0
M  V30 5770 N 546.897 -0.0685191 -1.57451 0
M  V30 5771 C 547.844 0.899861 -2.12535 0
M  V30 5772 C 548.814 1.29749 -1.03703 0
M  V30 5773 O 549.999 1.38392 -1.31348 0
M  V30 5774 C 547.139 2.16328 -2.6888 0
M  V30 5775 C 546.252 1.81857 -3.91857 0
M  V30 5776 C 545.387 3.02786 -4.36457 0
M  V30 5777 C 544.426 2.64317 -5.5209 0
M  V30 5778 N 543.563 3.77994 -5.91663 0
M  V30 5779 H 548.403 0.423243 -2.94979 0
M  V30 5780 H 545.94 0.197268 -1.45771 0
M  V30 5781 H 547.898 2.90281 -2.99655 0
M  V30 5782 H 546.528 2.61536 -1.89206 0
M  V30 5783 H 545.58 0.979808 -3.67565 0
M  V30 5784 H 546.892 1.49553 -4.75852 0
M  V30 5785 H 546.046 3.85021 -4.68875 0
M  V30 5786 H 544.785 3.38281 -3.51308 0
M  V30 5787 H 543.79 1.80503 -5.19325 0
M  V30 5788 H 545.015 2.29995 -6.38967 0
M  V30 5789 H 542.961 4.13258 -5.09464 0
M  V30 5790 H 542.878 3.49447 -6.7039 0
M  V30 5791 H 544.146 4.60818 -6.28703 0
M  V30 5792 N 548.375 1.56261 0.205012 0
M  V30 5793 C 549.623 1.79684 0.925096 0
M  V30 5794 C 549.944 0.63989 1.84202 0
M  V30 5795 O 549.214 -0.342345 1.92885 0
M  V30 5796 H 547.794 0.662774 0.344587 0
M  V30 5797 H 550.456 1.93734 0.212899 0
M  V30 5798 H 549.552 2.72467 1.52211 0
M  V30 5799 N 549.853 -0.472356 1.50355 0
M  V30 5800 C 550.816 -1.5529 1.68576 0
M  V30 5801 C 551.816 -1.50863 0.556511 0
M  V30 5802 O 553.006 -1.53505 0.823516 0
M  V30 5803 C 550.138 -2.94921 1.70981 0
M  V30 5804 H 551.331 -1.40451 2.64978 0
M  V30 5805 H 548.884 -0.698645 1.39816 0
M  V30 5806 H 549.619 -3.15204 0.762675 0
M  V30 5807 H 549.404 -2.99541 2.53017 0
M  V30 5808 H 550.894 -3.73372 1.87037 0
M  V30 5809 N 551.331 -1.39911 -0.725443 0
M  V30 5810 C 552.556 -1.41137 -1.5197 0
M  V30 5811 C 552.981 -0.010262 -1.88097 0
M  V30 5812 O 552.339 0.979184 -1.52583 0
M  V30 5813 C 552.387 -2.2994 -2.77777 0
M  V30 5814 O 551.491 -1.73586 -3.74088 0
M  V30 5815 H 550.832 -0.480219 -0.458569 0
M  V30 5816 H 553.362 -1.84023 -0.894249 0
M  V30 5817 H 553.372 -2.44785 -3.26411 0
M  V30 5818 H 552.047 -3.31759 -2.50816 0
M  V30 5819 H 550.624 -1.68035 -3.32894 0
M  V30 5820 N 552.809 0.956637 -1.25245 0
M  V30 5821 C 553.739 2.07058 -1.07931 0
M  V30 5822 C 554.72 1.70096 0.0110361 0
M  V30 5823 O 555.905 1.93555 -0.158121 0
M  V30 5824 C 553.035 3.40272 -0.695124 0
M  V30 5825 C 551.989 3.91235 -1.73549 0
M  V30 5826 C 551.315 5.20921 -1.20604 0
M  V30 5827 C 552.615 4.17837 -3.13385 0
M  V30 5828 H 554.309 2.218 -2.01109 0
M  V30 5829 H 551.855 1.06581 -0.968326 0
M  V30 5830 H 553.808 4.1765 -0.560949 0
M  V30 5831 H 552.532 3.25462 0.272355 0
M  V30 5832 H 551.191 3.16025 -1.85807 0
M  V30 5833 H 550.839 5.02479 -0.228846 0
M  V30 5834 H 550.539 5.55987 -1.90136 0
M  V30 5835 H 552.063 6.00897 -1.08421 0
M  V30 5836 H 553.477 4.8588 -3.04292 0
M  V30 5837 H 551.874 4.64154 -3.80369 0
M  V30 5838 H 552.944 3.2419 -3.60595 0
M  V30 5839 N 554.287 1.06798 1.15896 0
M  V30 5840 C 555.535 0.786211 1.8618 0
M  V30 5841 C 555.856 -0.689547 1.82401 0
M  V30 5842 O 555.126 -1.49913 1.26107 0
M  V30 5843 H 553.706 0.287843 0.689315 0
M  V30 5844 H 556.368 1.35055 1.40521 0
M  V30 5845 H 555.464 1.1157 2.91477 0
M  V30 5846 N 555.766 -1.3263 0.851289 0
M  V30 5847 C 557.182 -1.50162 0.5407 0
M  V30 5848 C 557.382 -1.78788 -0.929369 0
M  V30 5849 O 556.438 -1.85545 -1.71258 0
M  V30 5850 C 557.751 -2.64803 1.42478 0
M  V30 5851 C 559.299 -2.78688 1.42485 0
M  V30 5852 C 559.774 -3.96405 2.29407 0
M  V30 5853 N 561.265 -4.0366 2.27184 0
M  V30 5854 C 562 -4.93971 2.9117 0
M  V30 5855 N 561.496 -5.89313 3.64256 0
M  V30 5856 N 563.289 -4.87066 2.80576 0
M  V30 5857 H 555.44 -1.12315 1.80275 0
M  V30 5858 H 557.703 -0.553266 0.769806 0
M  V30 5859 H 557.409 -2.50368 2.46999 0
M  V30 5860 H 557.283 -3.60506 1.10974 0
M  V30 5861 H 559.67 -2.92547 0.387304 0
M  V30 5862 H 559.751 -1.83708 1.78002 0
M  V30 5863 H 559.395 -3.83304 3.33228 0
M  V30 5864 H 559.325 -4.90654 1.91224 0
M  V30 5865 H 561.816 -3.35435 1.74045 0
M  V30 5866 H 562.129 -6.54913 4.10255 0
M  V30 5867 H 560.474 -5.8935 3.68364 0
M  V30 5868 H 563.665 -4.11552 2.23031 0
M  V30 5869 H 563.838 -5.57248 3.30725 0
M  V30 5870 N 557.244 -0.608902 -1.45362 0
M  V30 5871 C 558.493 -0.10218 -2.01441 0
M  V30 5872 C 558.806 1.27546 -1.48295 0
M  V30 5873 O 560.012 1.87498 -1.96359 0
M  V30 5874 C 558.468 -0.131985 -3.59658 0
M  V30 5875 C 558.076 -1.50956 -4.21801 0
M  V30 5876 C 559.82 0.319427 -4.23296 0
M  V30 5877 C 557.727 -1.49568 -5.72174 0
M  V30 5878 H 556.657 -0.0344314 -0.753213 0
M  V30 5879 H 559.308 -0.764426 -1.6682 0
M  V30 5880 H 557.69 0.596939 -3.91475 0
M  V30 5881 H 558.864 -2.26029 -4.01556 0
M  V30 5882 H 557.179 -1.90318 -3.70362 0
M  V30 5883 H 559.776 0.349013 -5.3356 0
M  V30 5884 H 560.119 1.34237 -3.94064 0
M  V30 5885 H 560.652 -0.356273 -3.96201 0
M  V30 5886 H 557.391 -2.49626 -6.06108 0
M  V30 5887 H 556.911 -0.787542 -5.94607 0
M  V30 5888 H 558.59 -1.21989 -6.35396 0
M  V30 5889 N 558.722 1.53707 -0.348139 0
M  V30 5890 C 559.655 2.21481 0.549667 0
M  V30 5891 C 560.633 1.20046 1.09671 0
M  V30 5892 O 561.817 1.48883 1.15612 0
M  V30 5893 C 558.944 2.89585 1.75664 0
M  V30 5894 C 557.99 4.04948 1.33864 0
M  V30 5895 S 558.823 5.34325 0.354577 0
M  V30 5896 C 559.979 6.05934 1.56828 0
M  V30 5897 H 560.212 2.97289 -0.0259755 0
M  V30 5898 H 557.745 1.53833 -0.132216 0
M  V30 5899 H 559.703 3.29441 2.44906 0
M  V30 5900 H 558.364 2.13535 2.30351 0
M  V30 5901 H 557.557 4.51552 2.23868 0
M  V30 5902 H 557.159 3.66893 0.725651 0
M  V30 5903 H 559.451 6.29606 2.50205 0
M  V30 5904 H 560.394 6.98799 1.14395 0
M  V30 5905 H 560.802 5.36151 1.76642 0
M  V30 5906 N 560.2 0.0768682 1.57412 0
M  V30 5907 C 561.446 -0.591961 1.93968 0
M  V30 5908 C 561.779 -1.68954 0.9575 0
M  V30 5909 O 561.054 -1.94496 -0.0124675 0
M  V30 5910 C 561.337 -1.16418 3.40762 0
M  V30 5911 C 561.19 -0.0728933 4.49741 0
M  V30 5912 C 562.509 -2.06814 3.88479 0
M  V30 5913 H 559.628 -0.213716 0.705333 0
M  V30 5914 H 562.27 0.14387 1.89455 0
M  V30 5915 H 560.42 -1.79128 3.4474 0
M  V30 5916 H 562.092 0.560446 4.57883 0
M  V30 5917 H 560.335 0.595859 4.29688 0
M  V30 5918 H 561.006 -0.513755 5.49604 0
M  V30 5919 H 563.482 -1.54033 3.8654 0
M  V30 5920 H 562.358 -2.43785 4.91793 0
M  V30 5921 H 562.619 -2.97844 3.26713 0
M  V30 5922 N 561.678 -1.56367 -0.196722 0
M  V30 5923 C 562.608 -1.97442 -1.24655 0
M  V30 5924 C 563.589 -0.846147 -1.47561 0
M  V30 5925 O 564.774 -1.11035 -1.59326 0
M  V30 5926 C 561.904 -2.31253 -2.59112 0
M  V30 5927 C 560.858 -3.46804 -2.50821 0
M  V30 5928 C 560.184 -3.66286 -3.89536 0
M  V30 5929 C 561.484 -4.8104 -2.03465 0
M  V30 5930 H 563.178 -2.85388 -0.905216 0
M  V30 5931 H 560.724 -1.37304 -0.434002 0
M  V30 5932 H 562.677 -2.58583 -3.32736 0
M  V30 5933 H 561.401 -1.40188 -2.94983 0
M  V30 5934 H 560.06 -3.19563 -1.79653 0
M  V30 5935 H 559.708 -2.72555 -4.22756 0
M  V30 5936 H 559.408 -4.4402 -3.84864 0
M  V30 5937 H 560.932 -3.9599 -4.64784 0
M  V30 5938 H 562.346 -5.07411 -2.66846 0
M  V30 5939 H 560.743 -5.62232 -2.09798 0
M  V30 5940 H 561.813 -4.74732 -0.98781 0
M  V30 5941 N 563.156 0.464375 -1.50603 0
M  V30 5942 C 564.066 1.58723 -1.72754 0
M  V30 5943 C 565.082 1.62925 -0.610844 0
M  V30 5944 O 566.258 1.8067 -0.889963 0
M  V30 5945 C 563.323 2.94897 -1.82309 0
M  V30 5946 C 562.384 3.0103 -3.06071 0
M  V30 5947 C 561.617 4.30708 -3.1516 0
M  V30 5948 O 561.84 5.2159 -2.30868 0
M  V30 5949 O 560.774 4.42571 -4.0794 0
M  V30 5950 H 564.6 1.42954 -2.67951 0
M  V30 5951 H 562.185 0.644579 -1.3478 0
M  V30 5952 H 564.067 3.75764 -1.90735 0
M  V30 5953 H 562.742 3.10851 -0.902967 0
M  V30 5954 H 561.649 2.19217 -3.03142 0
M  V30 5955 H 562.982 2.90014 -3.97684 0
M  V30 5956 N 564.634 1.40294 0.718013 0
M  V30 5957 C 566.05 1.2227 1.02577 0
M  V30 5958 C 566.25 0.0961976 2.0127 0
M  V30 5959 O 565.306 -0.546695 2.46511 0
M  V30 5960 C 566.619 2.56348 1.57182 0
M  V30 5961 C 568.167 2.6334 1.69178 0
M  V30 5962 C 568.642 3.9768 2.27188 0
M  V30 5963 N 570.133 3.99409 2.34578 0
M  V30 5964 C 570.868 5.00141 2.8044 0
M  V30 5965 N 570.364 6.11268 3.26073 0
M  V30 5966 N 572.157 4.87511 2.79802 0
M  V30 5967 H 564.308 2.12304 0.0637899 0
M  V30 5968 H 566.571 0.943632 0.0909036 0
M  V30 5969 H 566.277 3.3942 0.921262 0
M  V30 5970 H 566.151 2.77266 2.55741 0
M  V30 5971 H 568.538 1.80641 2.33351 0
M  V30 5972 H 568.619 2.46255 0.692247 0
M  V30 5973 H 568.263 4.80817 1.63638 0
M  V30 5974 H 568.193 4.12093 3.27852 0
M  V30 5975 H 570.684 3.19162 2.02346 0
M  V30 5976 H 570.997 6.84023 3.59628 0
M  V30 5977 H 569.342 6.14837 3.24038 0
M  V30 5978 H 572.533 3.9979 2.43487 0
M  V30 5979 H 572.706 5.66158 3.15228 0
M  V30 5980 N 566.112 -0.949982 1.2575 0
M  V30 5981 C 567.022 -2.08109 1.08295 0
M  V30 5982 C 568.038 -1.7399 0.0188181 0
M  V30 5983 O 569.214 -2.00187 0.220724 0
M  V30 5984 C 566.279 -3.39383 0.708534 0
M  V30 5985 C 565.34 -3.8734 1.85111 0
M  V30 5986 C 564.573 -5.12349 1.49447 0
M  V30 5987 O 564.796 -5.6905 0.392212 0
M  V30 5988 O 563.73 -5.5513 2.32624 0
M  V30 5989 H 567.556 -2.25738 2.03165 0
M  V30 5990 H 565.141 -1.06545 1.04731 0
M  V30 5991 H 567.023 -4.18277 0.512061 0
M  V30 5992 H 565.698 -3.23013 -0.210854 0
M  V30 5993 H 564.605 -3.09429 2.10248 0
M  V30 5994 H 565.938 -4.08216 2.74991 0
M  V30 5995 N 567.59 -1.07411 -1.15328 0
M  V30 5996 C 568.867 -0.710732 -1.82231 0
M  V30 5997 C 569.247 0.806732 -1.95077 0
M  V30 5998 O 568.595 1.72139 -1.50268 0
M  V30 5999 C 568.805 -1.42586 -3.18544 0
M  V30 6000 C 570.153 -1.57836 -3.94174 0
M  V30 6001 O 571.177 -1.38669 -3.281 0
M  V30 6002 O 570.036 -1.8938 -5.12638 0
M  V30 6003 H 567.13 -0.25297 -0.78736 0
M  V30 6004 H 569.676 -1.17508 -1.22434 0
M  V30 6005 H 568.448 -2.46008 -3.04296 0
M  V30 6006 H 568.071 -0.952332 -3.86026 0
M  V30 6007 N 569.068 1.32177 -0.85831 0
M  V30 6008 C 570.314 1.97417 -0.46417 0
M  V30 6009 C 570.647 1.67746 0.978514 0
M  V30 6010 O 569.922 0.967654 1.68721 0
M  V30 6011 C 570.205 3.53069 -0.708094 0
M  V30 6012 C 570.058 3.92357 -2.19946 0
M  V30 6013 C 571.377 4.39783 -0.166881 0
M  V30 6014 H 568.496 0.717097 -0.17012 0
M  V30 6015 H 571.138 1.56499 -1.07741 0
M  V30 6016 H 569.288 3.88054 -0.186128 0
M  V30 6017 H 570.96 3.67533 -2.78779 0
M  V30 6018 H 569.203 3.41384 -2.67656 0
M  V30 6019 H 569.874 5.00841 -2.32082 0
M  V30 6020 H 572.35 4.11556 -0.613285 0
M  V30 6021 H 571.226 5.47671 -0.367093 0
M  V30 6022 H 571.487 4.32196 0.930559 0
M  V30 6023 N 570.547 0.616602 1.45037 0
M  V30 6024 C 571.963 0.280994 1.57107 0
M  V30 6025 C 572.163 -1.21627 1.60653 0
M  V30 6026 O 571.219 -1.9997 1.54169 0
M  V30 6027 C 572.532 0.960116 2.8496 0
M  V30 6028 C 574.08 0.936884 2.98649 0
M  V30 6029 C 574.555 1.59619 4.29285 0
M  V30 6030 N 576.046 1.5621 4.36065 0
M  V30 6031 C 576.781 2.04131 5.35834 0
M  V30 6032 N 576.277 2.60177 6.4209 0
M  V30 6033 N 578.07 1.94845 5.27249 0
M  V30 6034 H 570.221 1.58867 1.40979 0
M  V30 6035 H 572.484 0.666024 0.674623 0
M  V30 6036 H 572.19 2.01473 2.88273 0
M  V30 6037 H 572.064 0.488921 3.74018 0
M  V30 6038 H 574.451 -0.109209 2.94898 0
M  V30 6039 H 574.532 1.44643 2.10979 0
M  V30 6040 H 574.176 2.64166 4.33796 0
M  V30 6041 H 574.106 1.06159 5.15789 0
M  V30 6042 H 576.597 1.15276 3.59889 0
M  V30 6043 H 576.91 2.94513 7.1448 0
M  V30 6044 H 575.255 2.64221 6.42816 0
M  V30 6045 H 578.446 1.50792 4.43147 0
M  V30 6046 H 578.619 2.32504 6.04852 0
M  V30 6047 N 572.025 -1.5352 0.356285 0
M  V30 6048 C 572.935 -2.29151 -0.502712 0
M  V30 6049 C 573.951 -1.34753 -1.1008 0
M  V30 6050 O 575.127 -1.67803 -1.11374 0
M  V30 6051 C 572.192 -3.05911 -1.63154 0
M  V30 6052 C 571.253 -4.15958 -1.06194 0
M  V30 6053 C 570.486 -4.8905 -2.13696 0
M  V30 6054 O 570.709 -4.61919 -3.34645 0
M  V30 6055 O 569.643 -5.75202 -1.77275 0
M  V30 6056 H 573.469 -3.03492 0.112466 0
M  V30 6057 H 571.054 -1.4891 0.120942 0
M  V30 6058 H 572.936 -3.53874 -2.28804 0
M  V30 6059 H 571.611 -2.34415 -2.23229 0
M  V30 6060 H 570.518 -3.7227 -0.369603 0
M  V30 6061 H 571.851 -4.89593 -0.505872 0
M  V30 6062 N 573.503 -0.0852151 -1.57369 0
M  V30 6063 C 574.752 0.580443 -1.93168 0
M  V30 6064 C 575.065 1.6995 -0.968319 0
M  V30 6065 O 576.271 2.42564 -1.21963 0
M  V30 6066 C 574.727 1.08386 -3.43192 0
M  V30 6067 C 574.335 -0.00491388 -4.48 0
M  V30 6068 C 576.079 1.72281 -3.87968 0
M  V30 6069 C 573.986 0.513299 -5.89168 0
M  V30 6070 H 572.916 0.22059 -0.72101 0
M  V30 6071 H 575.567 -0.159621 -1.82804 0
M  V30 6072 H 573.949 1.8773 -3.48674 0
M  V30 6073 H 575.123 -0.780032 -4.5415 0
M  V30 6074 H 573.438 -0.548453 -4.12772 0
M  V30 6075 H 576.035 2.12108 -4.9083 0
M  V30 6076 H 576.378 2.58811 -3.26071 0
M  V30 6077 H 576.911 0.995359 -3.85146 0
M  V30 6078 H 573.65 -0.315153 -6.54742 0
M  V30 6079 H 573.17 1.25564 -5.8651 0
M  V30 6080 H 574.849 0.985433 -6.39451 0
M  V30 6081 N 574.981 1.5647 0.188427 0
M  V30 6082 C 575.911 1.98101 1.23606 0
M  V30 6083 C 576.892 0.853961 1.47111 0
M  V30 6084 O 578.077 1.11879 1.58735 0
M  V30 6085 C 575.207 2.32624 2.57882 0
M  V30 6086 C 574.161 3.48129 2.48978 0
M  V30 6087 C 573.487 3.68347 3.87588 0
M  V30 6088 C 574.787 4.82112 2.00911 0
M  V30 6089 H 576.481 2.85864 0.890068 0
M  V30 6090 H 574.027 1.37532 0.426714 0
M  V30 6091 H 575.98 2.60343 3.3136 0
M  V30 6092 H 574.704 1.41751 2.94235 0
M  V30 6093 H 573.363 3.20511 1.77956 0
M  V30 6094 H 573.011 2.74793 4.21305 0
M  V30 6095 H 572.711 4.46055 3.82503 0
M  V30 6096 H 574.235 3.98449 4.62678 0
M  V30 6097 H 575.649 5.08819 2.64151 0
M  V30 6098 H 574.046 5.63337 2.06814 0
M  V30 6099 H 575.116 4.75249 0.96262 0
M  V30 6100 N 576.459 -0.456382 1.50847 0
M  V30 6101 C 577.406 -1.55249 1.70782 0
M  V30 6102 C 578.376 -1.56757 0.549231 0
M  V30 6103 O 579.561 -1.74061 0.7815 0
M  V30 6104 C 576.701 -2.93118 1.82143 0
M  V30 6105 C 575.814 -3.01285 3.09598 0
M  V30 6106 C 574.949 -4.30159 3.11667 0
M  V30 6107 C 573.988 -4.32124 4.33515 0
M  V30 6108 N 573.125 -5.52492 4.3324 0
M  V30 6109 H 577.965 -1.37555 2.64353 0
M  V30 6110 H 575.502 -0.668543 1.3103 0
M  V30 6111 H 577.46 -3.73088 1.86711 0
M  V30 6112 H 576.09 -3.09413 0.919978 0
M  V30 6113 H 575.142 -2.14096 3.14431 0
M  V30 6114 H 576.454 -2.98597 3.99551 0
M  V30 6115 H 575.608 -5.18489 3.15046 0
M  V30 6116 H 574.347 -4.35477 2.1957 0
M  V30 6117 H 573.352 -3.42189 4.30333 0
M  V30 6118 H 574.577 -4.28485 5.26856 0
M  V30 6119 H 572.523 -5.58567 3.44004 0
M  V30 6120 H 572.44 -5.51605 5.16979 0
M  V30 6121 H 573.708 -6.42906 4.40786 0
M  V30 6122 N 577.937 -1.40673 -0.710563 0
M  V30 6123 C 578.867 -1.44095 -1.83736 0
M  V30 6124 C 579.848 -0.301286 -1.67411 0
M  V30 6125 O 581.033 -0.510618 -1.87367 0
M  V30 6126 C 578.163 -1.30773 -3.21738 0
M  V30 6127 C 577.117 -2.42395 -3.52745 0
M  V30 6128 C 576.443 -2.14147 -4.89944 0
M  V30 6129 C 577.743 -3.84738 -3.53234 0
M  V30 6130 H 579.437 -2.38396 -1.81129 0
M  V30 6131 H 576.983 -1.14746 -0.870017 0
M  V30 6132 H 578.936 -1.31783 -4.00264 0
M  V30 6133 H 577.66 -0.329507 -3.24934 0
M  V30 6134 H 576.319 -2.40643 -2.76562 0
M  V30 6135 H 575.967 -1.14703 -4.89747 0
M  V30 6136 H 575.667 -2.88934 -5.11655 0
M  V30 6137 H 577.191 -2.16848 -5.70797 0
M  V30 6138 H 578.605 -3.88286 -4.2179 0
M  V30 6139 H 577.002 -4.59085 -3.86473 0
M  V30 6140 H 578.072 -4.13962 -2.52514 0
M  V30 6141 N 579.415 0.9433 -1.26252 0
M  V30 6142 C 580.378 2.02326 -1.07689 0
M  V30 6143 C 581.378 1.60779 -0.0259174 0
M  V30 6144 O 582.568 1.72108 -0.269134 0
M  V30 6145 C 579.7 3.34886 -0.63752 0
M  V30 6146 H 580.893 2.20225 -2.0357 0
M  V30 6147 H 578.446 1.12197 -1.08819 0
M  V30 6148 H 579.181 3.22684 0.323377 0
M  V30 6149 H 578.966 3.66393 -1.39637 0
M  V30 6150 H 580.456 4.14231 -0.529418 0
M  V30 6151 N 580.893 1.08022 1.14757 0
M  V30 6152 C 581.856 0.71048 2.1791 0
M  V30 6153 C 582.856 -0.252731 1.58801 0
M  V30 6154 O 584.046 -0.0327915 1.74169 0
M  V30 6155 C 581.178 0.0483203 3.40866 0
M  V30 6156 H 582.371 1.62384 2.52134 0
M  V30 6157 H 579.924 0.877595 1.29337 0
M  V30 6158 H 580.659 -0.876959 3.12218 0
M  V30 6159 H 580.444 0.741189 3.85031 0
M  V30 6160 H 581.934 -0.195471 4.17142 0
M  V30 6161 N 582.371 -1.3172 0.865308 0
M  V30 6162 C 583.318 -2.2863 0.315736 0
M  V30 6163 C 584.288 -1.55524 -0.583213 0
M  V30 6164 O 585.473 -1.83694 -0.51585 0
M  V30 6165 C 582.613 -3.41735 -0.480773 0
M  V30 6166 C 581.726 -4.297 0.445167 0
M  V30 6167 C 580.861 -5.29944 -0.365012 0
M  V30 6168 C 579.9 -6.09554 0.557651 0
M  V30 6169 N 579.037 -7.01768 -0.215994 0
M  V30 6170 H 583.877 -2.75026 1.14736 0
M  V30 6171 H 581.414 -1.35302 0.577209 0
M  V30 6172 H 583.372 -4.06045 -0.958306 0
M  V30 6173 H 582.002 -2.96461 -1.27714 0
M  V30 6174 H 581.054 -3.65875 1.04113 0
M  V30 6175 H 582.366 -4.85295 1.15284 0
M  V30 6176 H 581.52 -5.99908 -0.905255 0
M  V30 6177 H 580.259 -4.74994 -1.106 0
M  V30 6178 H 579.264 -5.38485 1.10969 0
M  V30 6179 H 580.489 -6.66591 1.29742 0
M  V30 6180 H 578.435 -6.49232 -0.939878 0
M  V30 6181 H 578.352 -7.54762 0.432431 0
M  V30 6182 H 579.62 -7.76002 -0.737618 0
M  V30 6183 O 583.888 -0.764371 -1.42266 0
M  V30 6184 H 584.579 -0.325849 -1.9094 0
M  V30 END ATOM
M  V30 BEGIN BOND
M  V30 END BOND
M  V30 END CTAB
M  END
$$$$
