drugbank_target|Q9WZC2 Polyamine aminopropyltransferase (DB02844)
 OpenBabel12092119583D

  0  0  0     0  0            999 V3000
M  V30 BEGIN CTAB
M  V30 COUNTS 4768 4830 0 0 0
M  V30 BEGIN ATOM
M  V30 1 H -0.908 1.98254 -0.117106 0
M  V30 2 N 0 1.576 0 0
M  V30 3 C 0.933 2.03868 1.02534 0
M  V30 4 C 1.911 0.928543 1.3348 0
M  V30 5 O 3.095 1.19667 1.45644 0
M  V30 6 C 0.222 2.43627 2.35294 0
M  V30 7 C -0.732 3.65373 2.2001 0
M  V30 8 S 0.101 5.13292 1.52614 0
M  V30 9 C 1.257 5.56322 2.86805 0
M  V30 10 H 1.49 2.90518 0.631377 0
M  V30 11 H -0.977 1.52953 0.210867 0
M  V30 12 H 0.981 2.67203 3.11629 0
M  V30 13 H -0.358 1.57376 2.7183 0
M  V30 14 H -1.165 3.90944 3.18086 0
M  V30 15 H -1.563 3.418 1.51819 0
M  V30 16 H 0.729 5.58782 3.83104 0
M  V30 17 H 1.672 6.56266 2.65933 0
M  V30 18 H 2.08 4.83886 2.90714 0
M  V30 19 N 1.4781 -0.272755 1.55222 0
M  V30 20 C 2.8941 -0.619959 1.47067 0
M  V30 21 C 3.0941 -1.895 0.684978 0
M  V30 22 O 2.1501 -2.51675 0.203931 0
M  V30 23 C 3.4631 -0.746693 2.91282 0
M  V30 24 C 5.0111 -0.840731 3.01497 0
M  V30 25 C 5.4861 -0.99924 4.46967 0
M  V30 26 N 6.9771 -1.06476 4.50796 0
M  V30 27 C 7.7121 -1.20621 5.6057 0
M  V30 28 N 7.2081 -1.31483 6.80209 0
M  V30 29 N 9.0011 -1.23733 5.48312 0
M  V30 30 H 1.1521 0.564606 2.04758 0
M  V30 31 H 3.4151 0.191177 0.928523 0
M  V30 32 H 3.1211 0.119753 3.51496 0
M  V30 33 H 2.9951 -1.6269 3.40311 0
M  V30 34 H 5.3821 -1.69764 2.41379 0
M  V30 35 H 5.4631 0.0640874 2.5572 0
M  V30 36 H 5.1071 -0.146984 5.07687 0
M  V30 37 H 5.0371 -1.91871 4.90401 0
M  V30 38 H 7.5281 -0.993196 3.64615 0
M  V30 39 H 7.8411 -1.42111 7.59621 0
M  V30 40 H 6.1861 -1.28487 6.8302 0
M  V30 41 H 9.3771 -1.14877 4.53785 0
M  V30 42 H 9.5501 -1.34412 6.33906 0
M  V30 43 N 2.9562 -1.48159 -0.537278 0
M  V30 44 C 4.1842 -1.59454 -1.31841 0
M  V30 45 C 4.5992 -0.252065 -1.8711 0
M  V30 46 O 3.9562 0.757621 -1.66031 0
M  V30 47 C 4.0072 -2.63546 -2.47439 0
M  V30 48 O 3.7282 -3.92583 -1.94449 0
M  V30 49 C 5.2292 -2.85212 -3.39366 0
M  V30 50 H 2.4492 -0.53785 -0.401196 0
M  V30 51 H 4.9932 -1.93932 -0.648891 0
M  V30 52 H 3.1482 -2.31946 -3.1029 0
M  V30 53 H 3.5622 -4.49629 -2.70063 0
M  V30 54 H 5.0362 -3.61863 -4.16844 0
M  V30 55 H 5.5132 -1.93765 -3.94147 0
M  V30 56 H 6.1192 -3.18086 -2.82314 0
M  V30 57 N 4.4343 0.785586 -1.36625 0
M  V30 58 C 5.3643 1.91259 -1.33949 0
M  V30 59 C 6.3453 1.68795 -0.210325 0
M  V30 60 O 7.5303 1.89854 -0.408561 0
M  V30 61 C 4.6603 3.28339 -1.13186 0
M  V30 62 C 3.6143 3.65335 -2.22967 0
M  V30 63 C 2.9403 5.00806 -1.87342 0
M  V30 64 C 4.2403 3.7352 -3.65075 0
M  V30 65 H 5.9343 1.93755 -2.28253 0
M  V30 66 H 3.4803 0.930788 -1.09874 0
M  V30 67 H 5.4333 4.06804 -1.09948 0
M  V30 68 H 4.1573 3.2624 -0.153332 0
M  V30 69 H 2.8163 2.89169 -2.25337 0
M  V30 70 H 2.4643 4.95233 -0.880545 0
M  V30 71 H 2.1643 5.26529 -2.60846 0
M  V30 72 H 3.6883 5.81687 -1.85667 0
M  V30 73 H 5.1023 4.42168 -3.64911 0
M  V30 74 H 3.4993 4.10731 -4.37516 0
M  V30 75 H 4.5693 2.74527 -3.99703 0
M  V30 76 N 5.9124 1.20967 1.01018 0
M  V30 77 C 6.8594 0.964281 2.09691 0
M  V30 78 C 7.8294 -0.107853 1.65749 0
M  V30 79 O 9.0144 0.0381987 1.90762 0
M  V30 80 C 6.1544 0.52943 3.41015 0
M  V30 81 C 5.2674 1.67043 3.98398 0
M  V30 82 C 4.4024 1.18525 5.17808 0
M  V30 83 C 3.4414 2.29892 5.67288 0
M  V30 84 N 2.5784 1.82546 6.77954 0
M  V30 85 H 7.4184 1.89463 2.30017 0
M  V30 86 H 4.9554 0.944289 1.1279 0
M  V30 87 H 6.9134 0.258588 4.16398 0
M  V30 88 H 5.5434 -0.363919 3.20742 0
M  V30 89 H 4.5954 2.05603 3.20049 0
M  V30 90 H 5.9074 2.50877 4.31117 0
M  V30 91 H 5.0614 0.870762 6.00419 0
M  V30 92 H 3.8004 0.316887 4.86669 0
M  V30 93 H 2.8054 2.6215 4.83278 0
M  V30 94 H 4.0304 3.17216 6.00459 0
M  V30 95 H 1.9764 0.980454 6.48632 0
M  V30 96 H 1.8934 2.59956 7.09901 0
M  V30 97 H 3.1614 1.54115 7.64113 0
M  V30 98 N 7.3905 -1.2043 1.01659 0
M  V30 99 C 8.3005 -2.2689 0.596484 0
M  V30 100 C 9.3165 -1.70107 -0.36599 0
M  V30 101 O 10.4925 -2.00117 -0.226942 0
M  V30 102 C 7.5575 -3.4665 -0.0586659 0
M  V30 103 C 6.6185 -4.18662 0.949751 0
M  V30 104 C 5.8515 -5.32705 0.32577 0
M  V30 105 O 6.0745 -5.63656 -0.874509 0
M  V30 106 O 5.0085 -5.92803 1.04249 0
M  V30 107 H 8.8345 -2.65041 1.4828 0
M  V30 108 H 6.4195 -1.27048 0.786082 0
M  V30 109 H 8.3015 -4.19256 -0.424564 0
M  V30 110 H 6.9765 -3.10375 -0.91918 0
M  V30 111 H 5.8835 -3.48229 1.36702 0
M  V30 112 H 7.2165 -4.58878 1.78023 0
M  V30 113 N 8.8686 -0.792821 -1.36206 0
M  V30 114 C 9.7986 -0.207853 -2.32573 0
M  V30 115 C 10.7796 0.659055 -1.56813 0
M  V30 116 O 11.9646 0.592176 -1.84951 0
M  V30 117 C 9.0946 0.655449 -3.41059 0
M  V30 118 C 8.0486 -0.111842 -4.27854 0
M  V30 119 C 7.3746 0.872274 -5.27537 0
M  V30 120 C 8.6746 -1.30299 -5.05786 0
M  V30 121 H 10.3686 -1.01294 -2.81744 0
M  V30 122 H 7.9146 -0.48854 -1.3546 0
M  V30 123 H 9.8676 1.07464 -4.07467 0
M  V30 124 H 8.5916 1.49328 -2.90463 0
M  V30 125 H 7.2506 -0.512053 -3.63006 0
M  V30 126 H 6.8986 1.70523 -4.73214 0
M  V30 127 H 6.5986 0.363291 -5.86476 0
M  V30 128 H 8.1226 1.28996 -5.96818 0
M  V30 129 H 9.5366 -0.959379 -5.65216 0
M  V30 130 H 7.9336 -1.7455 -5.74154 0
M  V30 131 H 9.0036 -2.09663 -4.37229 0
M  V30 132 N 10.3467 1.47872 -0.545128 0
M  V30 133 C 11.2567 2.33633 0.212746 0
M  V30 134 C 12.2727 1.4744 0.923983 0
M  V30 135 O 13.4487 1.80393 0.895572 0
M  V30 136 C 10.5137 3.23884 1.23693 0
M  V30 137 C 9.5747 4.25961 0.534417 0
M  V30 138 C 8.8077 5.11899 1.5098 0
M  V30 139 O 9.0307 5.00077 2.7437 0
M  V30 140 O 7.9647 5.92831 1.0409 0
M  V30 141 H 11.7907 2.99714 -0.490416 0
M  V30 142 H 9.3757 1.46235 -0.305871 0
M  V30 143 H 11.2577 3.79666 1.82843 0
M  V30 144 H 9.9327 2.60446 1.92222 0
M  V30 145 H 8.8397 3.73972 -0.0979679 0
M  V30 146 H 10.1727 4.92079 -0.109213 0
M  V30 147 N 11.8248 0.280983 1.55075 0
M  V30 148 C 13.2408 -0.0729964 1.59433 0
M  V30 149 C 13.4408 -1.5411 1.29817 0
M  V30 150 O 12.4968 -2.29086 1.06187 0
M  V30 151 C 13.8098 0.306921 2.9913 0
M  V30 152 C 15.3578 0.254023 3.11968 0
M  V30 153 C 15.8328 0.608467 4.5394 0
M  V30 154 N 17.3238 0.560241 4.59799 0
M  V30 155 C 18.0588 0.80722 5.6769 0
M  V30 156 N 17.5548 1.11912 6.83701 0
M  V30 157 N 19.3478 0.735623 5.57266 0
M  V30 158 H 11.4988 1.238 1.7259 0
M  V30 159 H 13.7618 0.500547 0.805082 0
M  V30 160 H 13.4678 1.32816 3.25657 0
M  V30 161 H 13.3418 -0.349363 3.75579 0
M  V30 162 H 15.7288 -0.75794 2.852 0
M  V30 163 H 15.8098 0.944649 2.37718 0
M  V30 164 H 15.4538 1.61814 4.81434 0
M  V30 165 H 15.3838 -0.104013 5.26497 0
M  V30 166 H 17.8748 0.329288 3.76463 0
M  V30 167 H 18.1878 1.29409 7.61888 0
M  V30 168 H 16.5328 1.15695 6.85303 0
M  V30 169 H 19.7238 0.491752 4.6551 0
M  V30 170 H 19.8968 0.931482 6.4127 0
M  V30 171 N 13.3029 -1.57598 0.00835791 0
M  V30 172 C 14.2129 -2.12385 -0.996487 0
M  V30 173 C 15.2289 -1.07108 -1.37127 0
M  V30 174 O 16.4049 -1.39055 -1.4569 0
M  V30 175 C 13.4699 -2.62314 -2.26699 0
M  V30 176 C 12.5309 -3.82225 -1.95456 0
M  V30 177 C 11.7639 -4.29763 -3.16449 0
M  V30 178 O 11.9869 -3.76584 -4.28416 0
M  V30 179 O 10.9209 -5.21832 -2.99958 0
M  V30 180 H 14.7469 -2.98479 -0.560725 0
M  V30 181 H 12.3319 -1.47903 -0.210987 0
M  V30 182 H 14.2139 -2.94589 -3.01322 0
M  V30 183 H 12.8889 -1.79313 -2.69497 0
M  V30 184 H 11.7959 -3.54909 -1.18282 0
M  V30 185 H 13.1289 -4.66324 -1.57489 0
M  V30 186 N 14.781 0.264519 -1.55364 0
M  V30 187 C 15.711 1.33121 -1.91836 0
M  V30 188 C 16.692 1.51101 -0.781192 0
M  V30 189 O 17.877 1.64003 -1.04003 0
M  V30 190 C 15.007 2.68921 -2.19769 0
M  V30 191 C 13.961 2.65661 -3.35571 0
M  V30 192 C 13.287 4.05093 -3.49004 0
M  V30 193 C 14.587 2.24187 -4.71739 0
M  V30 194 H 16.281 1.02844 -2.81182 0
M  V30 195 H 13.827 0.493286 -1.35287 0
M  V30 196 H 15.78 3.43663 -2.43872 0
M  V30 197 H 14.504 3.00799 -1.27231 0
M  V30 198 H 13.163 1.93377 -3.1145 0
M  V30 199 H 12.811 4.34206 -2.53917 0
M  V30 200 H 12.511 4.03804 -4.26868 0
M  V30 201 H 14.035 4.81561 -3.75408 0
M  V30 202 H 15.449 2.88654 -4.9533 0
M  V30 203 H 13.846 2.34044 -5.52579 0
M  V30 204 H 14.916 1.19327 -4.69988 0
M  V30 205 N 16.2591 1.48442 0.529413 0
M  V30 206 C 17.1911 1.59095 1.64989 0
M  V30 207 C 18.2041 0.475212 1.5571 0
M  V30 208 O 19.3931 0.746081 1.6216 0
M  V30 209 C 16.4931 1.50518 3.0364 0
M  V30 210 C 15.6661 2.77142 3.38395 0
M  V30 211 C 14.7251 2.62012 4.56329 0
M  V30 212 O 13.7511 3.35898 4.59522 0
M  V30 213 N 14.9531 1.71667 5.54536 0
M  V30 214 H 17.7181 2.55723 1.56287 0
M  V30 215 H 15.2791 1.45173 0.716697 0
M  V30 216 H 17.2711 1.38091 3.80412 0
M  V30 217 H 15.8411 0.618627 3.06418 0
M  V30 218 H 15.0611 3.0413 2.50796 0
M  V30 219 H 16.3491 3.61146 3.58401 0
M  V30 220 H 15.7471 1.10841 5.54735 0
M  V30 221 H 14.3041 1.65178 6.30523 0
M  V30 222 N 17.7372 -0.778329 1.37039 0
M  V30 223 C 19.1482 -1.35421 1.28523 0
M  V30 224 C 19.4992 -1.96075 -0.0700901 0
M  V30 225 O 18.6242 -1.93352 -0.971801 0
M  V30 226 C 19.2192 -2.46211 2.32735 0
M  V30 227 C 17.7782 -2.99585 2.27873 0
M  V30 228 C 16.9252 -1.72748 2.16918 0
M  V30 229 H 19.8762 -0.5791 1.47757 0
M  V30 230 H 19.8972 -3.2552 1.9702 0
M  V30 231 H 19.4092 -2.02036 3.31365 0
M  V30 232 H 17.5102 -3.48152 1.32745 0
M  V30 233 H 17.6232 -3.55646 3.21018 0
M  V30 234 H 15.9872 -1.95416 1.63354 0
M  V30 235 H 16.7702 -1.30686 3.17452 0
M  V30 236 N 19.2153 -1.21501 -1.00376 0
M  V30 237 C 20.6313 -0.972629 -1.26539 0
M  V30 238 C 20.8313 0.340257 -1.98606 0
M  V30 239 O 19.8873 1.06561 -2.28913 0
M  V30 240 C 21.2003 -2.16404 -2.08781 0
M  V30 241 C 22.7483 -2.20643 -2.22004 0
M  V30 242 C 23.2233 -3.39306 -3.07629 0
M  V30 243 N 24.7143 -3.39401 -3.15217 0
M  V30 244 C 25.4493 -4.27867 -3.81729 0
M  V30 245 N 24.9453 -5.26533 -4.5026 0
M  V30 246 N 26.7383 -4.15672 -3.78382 0
M  V30 247 H 18.8893 -2.05929 -0.520281 0
M  V30 248 H 21.1523 -0.901803 -0.292328 0
M  V30 249 H 20.8583 -3.11554 -1.63178 0
M  V30 250 H 20.7323 -2.15567 -3.09533 0
M  V30 251 H 23.1193 -1.26048 -2.66825 0
M  V30 252 H 23.2003 -2.25523 -1.20718 0
M  V30 253 H 22.8443 -4.34195 -2.63509 0
M  V30 254 H 22.7743 -3.31665 -4.09031 0
M  V30 255 H 25.2653 -2.67997 -2.66432 0
M  V30 256 H 25.5783 -5.90337 -4.98721 0
M  V30 257 H 23.9233 -5.30457 -4.49044 0
M  V30 258 H 27.1143 -3.3785 -3.23998 0
M  V30 259 H 27.2873 -4.84825 -4.2994 0
M  V30 260 N 20.6934 1.19889 -1.02296 0
M  V30 261 C 21.6254 2.22334 -0.556787 0
M  V30 262 C 22.6384 1.58674 0.364199 0
M  V30 263 O 23.8274 1.77768 0.161533 0
M  V30 264 C 20.9274 3.38257 0.208694 0
M  V30 265 C 20.1004 4.31504 -0.71577 0
M  V30 266 C 19.1594 5.262 0.00325597 0
M  V30 267 O 18.1854 5.65798 -0.621357 0
M  V30 268 N 19.3874 5.66303 1.27599 0
M  V30 269 H 22.1524 2.62957 -1.43784 0
M  V30 270 H 19.7134 1.34495 -0.901261 0
M  V30 271 H 21.7054 3.98616 0.699111 0
M  V30 272 H 20.2754 2.96472 0.991102 0
M  V30 273 H 19.4954 3.69016 -1.38638 0
M  V30 274 H 20.7834 4.9072 -1.34428 0
M  V30 275 H 20.1814 5.36155 1.80429 0
M  V30 276 H 18.7384 6.28942 1.71102 0
M  V30 277 N 22.1715 0.800033 1.35784 0
M  V30 278 C 23.1215 0.178654 2.27299 0
M  V30 279 C 24.1055 -0.643667 1.47464 0
M  V30 280 O 25.2975 -0.502 1.69732 0
M  V30 281 C 22.4265 -0.677194 3.36555 0
M  V30 282 C 21.5125 0.154497 4.23818 0
M  V30 283 N 21.9035 1.21427 4.91008 0
M  V30 284 C 20.2015 -0.0649462 4.45953 0
M  V30 285 C 20.9025 1.72147 5.55644 0
M  V30 286 N 19.8785 1.02897 5.33773 0
M  V30 287 H 23.6805 0.989637 2.76737 0
M  V30 288 H 21.1945 0.64054 1.49234 0
M  V30 289 H 23.1915 -1.13835 4.01058 0
M  V30 290 H 21.8515 -1.4866 2.8867 0
M  V30 291 H 22.8625 1.59684 4.92668 0
M  V30 292 H 19.5395 -0.844016 4.0888 0
M  V30 293 H 20.9295 2.60683 6.19269 0
M  V30 294 N 23.6496 -1.47581 0.552962 0
M  V30 295 C 24.5796 -2.32762 -0.185451 0
M  V30 296 C 25.5606 -1.43527 -0.912905 0
M  V30 297 O 26.7456 -1.72388 -0.894201 0
M  V30 298 C 23.8756 -3.25219 -1.21859 0
M  V30 299 C 22.8296 -4.23661 -0.607864 0
M  V30 300 C 22.1556 -5.05413 -1.74533 0
M  V30 301 C 23.4556 -5.20481 0.435582 0
M  V30 302 H 25.1496 -2.94749 0.525684 0
M  V30 303 H 22.6956 -1.41738 0.254251 0
M  V30 304 H 24.6486 -3.8365 -1.7433 0
M  V30 305 H 23.3726 -2.61279 -1.95961 0
M  V30 306 H 22.0316 -3.66451 -0.104489 0
M  V30 307 H 21.6796 -4.3788 -2.47529 0
M  V30 308 H 21.3796 -5.72059 -1.34249 0
M  V30 309 H 22.9036 -5.66701 -2.27338 0
M  V30 310 H 24.3176 -5.733 -0.00290157 0
M  V30 311 H 22.7146 -5.95305 0.757067 0
M  V30 312 H 23.7846 -4.66217 1.33303 0
M  V30 313 N 25.1277 -0.289203 -1.54924 0
M  V30 314 C 26.3737 0.316922 -2.00916 0
M  V30 315 C 26.7287 1.52424 -1.17408 0
M  V30 316 O 26.0217 1.90097 -0.239536 0
M  V30 317 C 26.2157 0.736119 -3.49737 0
M  V30 318 C 26.0447 -0.429036 -4.47649 0
M  V30 319 C 24.8147 -0.917311 -4.96904 0
M  V30 320 C 27.0127 -1.27016 -4.98369 0
M  V30 321 N 24.9947 -2.05046 -5.78644 0
M  V30 322 C 26.3657 -2.25097 -5.77695 0
M  V30 323 C 28.4207 -1.30188 -4.80578 0
M  V30 324 C 27.1237 -3.26114 -6.41126 0
M  V30 325 C 29.1497 -2.30057 -5.44819 0
M  V30 326 C 28.5117 -3.2687 -6.23968 0
M  V30 327 H 24.6107 0.0807535 -0.777819 0
M  V30 328 H 27.1947 -0.416434 -1.90194 0
M  V30 329 H 25.3657 1.43867 -3.60773 0
M  V30 330 H 27.0977 1.32078 -3.82541 0
M  V30 331 H 23.8527 -0.494248 -4.71014 0
M  V30 332 H 24.2767 -2.62108 -6.24202 0
M  V30 333 H 28.9187 -0.567163 -4.18979 0
M  V30 334 H 26.6367 -4.00512 -7.01866 0
M  V30 335 H 30.2227 -2.33271 -5.32988 0
M  V30 336 H 29.1027 -4.02883 -6.72796 0
M  V30 337 N 26.6058 1.57591 -0.0167156 0
M  V30 338 C 27.8358 1.95292 0.674149 0
M  V30 339 C 28.2438 0.891097 1.66901 0
M  V30 340 O 27.5868 -0.136908 1.83189 0
M  V30 341 C 27.6488 3.29072 1.44747 0
M  V30 342 C 27.3128 4.52879 0.612331 0
M  V30 343 C 28.3098 5.1979 -0.107126 0
M  V30 344 C 25.9948 4.99242 0.553381 0
M  V30 345 C 27.9888 6.31375 -0.874339 0
M  V30 346 C 25.6758 6.10713 -0.217546 0
M  V30 347 C 26.6738 6.76637 -0.930123 0
M  V30 348 O 26.3618 7.85969 -1.68844 0
M  V30 349 H 26.0938 0.648275 0.191615 0
M  V30 350 H 28.6478 2.05284 -0.0690148 0
M  V30 351 H 26.8778 3.15535 2.2355 0
M  V30 352 H 28.5668 3.51764 2.02526 0
M  V30 353 H 29.3328 4.84948 -0.0708392 0
M  V30 354 H 25.2118 4.47744 1.09757 0
M  V30 355 H 28.7558 6.82764 -1.43106 0
M  V30 356 H 24.6528 6.44994 -0.255593 0
M  V30 357 H 25.4208 8.02571 -1.6069 0
M  V30 358 N 28.0839 -0.256276 1.55502 0
M  V30 359 C 29.3309 -0.985619 1.76895 0
M  V30 360 C 29.6589 -1.85671 0.579355 0
M  V30 361 O 28.9139 -1.90744 -0.437651 0
M  V30 362 C 29.2129 -1.88432 3.03691 0
M  V30 363 C 28.8789 -1.16936 4.35473 0
M  V30 364 C 27.5409 -0.97173 4.71286 0
M  V30 365 C 29.8929 -0.661889 5.1698 0
M  V30 366 C 27.2209 -0.254179 5.86149 0
M  V30 367 C 29.5729 0.042149 6.32586 0
M  V30 368 C 28.2369 0.25134 6.67027 0
M  V30 369 H 27.5069 -0.360663 0.647304 0
M  V30 370 H 30.1539 -0.256483 1.89775 0
M  V30 371 H 28.4589 -2.68021 2.85783 0
M  V30 372 H 30.1559 -2.45015 3.1744 0
M  V30 373 H 26.7459 -1.33332 4.07333 0
M  V30 374 H 30.9299 -0.802145 4.89775 0
M  V30 375 H 26.1859 -0.0815408 6.11346 0
M  V30 376 H 30.3599 0.443049 6.94989 0
M  V30 377 H 27.9869 0.809314 7.5588 0
M  V30 378 N 29.562 -1.4872 -0.521534 0
M  V30 379 C 30.472 -1.66569 -1.65203 0
M  V30 380 C 31.488 -0.548197 -1.65139 0
M  V30 381 O 32.664 -0.820339 -1.83936 0
M  V30 382 C 29.729 -1.70917 -3.01642 0
M  V30 383 C 28.79 -2.94356 -3.12495 0
M  V30 384 C 28.023 -2.98487 -4.42426 0
M  V30 385 O 28.246 -2.10786 -5.30024 0
M  V30 386 O 27.18 -3.90746 -4.57822 0
M  V30 387 H 31.006 -2.62298 -1.5308 0
M  V30 388 H 28.591 -1.3222 -0.695565 0
M  V30 389 H 30.473 -1.7625 -3.82771 0
M  V30 390 H 29.148 -0.783633 -3.14071 0
M  V30 391 H 28.055 -2.94552 -2.3063 0
M  V30 392 H 29.388 -3.86322 -3.04986 0
M  V30 393 N 31.0401 0.771051 -1.3745 0
M  V30 394 C 32.2701 1.55789 -1.35696 0
M  V30 395 C 32.6781 1.89107 0.0594523 0
M  V30 396 O 32.0211 1.51984 1.03183 0
M  V30 397 C 32.0831 2.89515 -2.13123 0
M  V30 398 C 31.7471 2.78829 -3.62082 0
M  V30 399 C 32.7441 2.49812 -4.5595 0
M  V30 400 C 30.4291 2.9683 -4.05213 0
M  V30 401 C 32.4231 2.38923 -5.90927 0
M  V30 402 C 30.1101 2.85562 -5.40276 0
M  V30 403 C 31.1081 2.56649 -6.32946 0
M  V30 404 O 30.7961 2.45408 -7.65526 0
M  V30 405 H 30.5281 0.489257 -0.466481 0
M  V30 406 H 33.0821 0.963446 -1.81403 0
M  V30 407 H 31.3121 3.51081 -1.62107 0
M  V30 408 H 33.0011 3.50915 -2.03994 0
M  V30 409 H 33.7671 2.3559 -4.23937 0
M  V30 410 H 29.6461 3.18335 -3.33442 0
M  V30 411 H 33.1901 2.16277 -6.63227 0
M  V30 412 H 29.0871 2.99351 -5.71891 0
M  V30 413 H 29.8551 2.60753 -7.75855 0
M  V30 414 N 32.5182 1.22032 0.997298 0
M  V30 415 C 33.7482 1.06686 1.76923 0
M  V30 416 C 34.1562 -0.385838 1.85224 0
M  V30 417 O 33.4992 -1.27929 1.31833 0
M  V30 418 C 33.5612 1.59802 3.22031 0
M  V30 419 C 33.2252 3.08362 3.37286 0
M  V30 420 C 34.2222 4.05835 3.24952 0
M  V30 421 C 31.9072 3.47727 3.6248 0
M  V30 422 C 33.9012 5.4066 3.37588 0
M  V30 423 C 31.5882 4.82701 3.74757 0
M  V30 424 C 32.5862 5.78977 3.62319 0
M  V30 425 O 32.2742 7.11502 3.74193 0
M  V30 426 H 32.0062 0.374767 0.562606 0
M  V30 427 H 34.5602 1.61991 1.26286 0
M  V30 428 H 32.7902 0.989003 3.73839 0
M  V30 429 H 34.4792 1.40184 3.80924 0
M  V30 430 H 35.2452 3.76766 3.05405 0
M  V30 431 H 31.1242 2.73317 3.7124 0
M  V30 432 H 34.6682 6.15788 3.27796 0
M  V30 433 H 30.5652 5.11453 3.9381 0
M  V30 434 H 31.3332 7.19019 3.91093 0
M  V30 435 N 33.9963 -1.19345 1.0293 0
M  V30 436 C 35.2243 -1.92997 0.745644 0
M  V30 437 C 35.6393 -1.75519 -0.695589 0
M  V30 438 O 34.9963 -1.07737 -1.47306 0
M  V30 439 C 35.0473 -3.44741 1.08792 0
M  V30 440 O 34.7683 -3.61658 2.47256 0
M  V30 441 C 36.2693 -4.35515 0.827129 0
M  V30 442 H 33.4893 -0.613042 0.272801 0
M  V30 443 H 36.0333 -1.51473 1.3739 0
M  V30 444 H 34.1883 -3.84097 0.504832 0
M  V30 445 H 34.6023 -4.55514 2.60015 0
M  V30 446 H 36.0763 -5.40589 1.11658 0
M  V30 447 H 36.5533 -4.38552 -0.238436 0
M  V30 448 H 37.1593 -4.01841 1.39297 0
M  V30 449 N 35.4744 -0.807222 -1.35358 0
M  V30 450 C 36.7224 -0.387122 -1.98358 0
M  V30 451 C 37.0434 1.04942 -1.64354 0
M  V30 452 O 36.3134 1.72615 -0.926339 0
M  V30 453 H 34.8934 -0.140154 -0.733734 0
M  V30 454 H 37.5554 -1.0332 -1.6526 0
M  V30 455 H 36.6514 -0.493352 -3.08176 0
M  V30 456 N 36.9525 1.47285 -0.560781 0
M  V30 457 C 37.9005 2.31756 0.197942 0
M  V30 458 C 38.8945 1.43146 0.905854 0
M  V30 459 O 40.1005 1.59891 0.826733 0
M  V30 460 H 36.4755 0.747438 0.0827049 0
M  V30 461 H 38.4465 2.9359 -0.533629 0
M  V30 462 C 37.1955 3.25874 1.21249 0
M  V30 463 H 36.5185 3.94023 0.67719 0
M  V30 464 H 37.9585 3.87803 1.71419 0
M  V30 465 C 36.4175 2.49651 2.26221 0
M  V30 466 O 36.9475 2.24355 3.33208 0
M  V30 467 N 35.1535 2.10597 2.00243 0
M  V30 468 H 34.7005 2.31369 1.13252 0
M  V30 469 H 34.6585 1.59913 2.70694 0
M  V30 470 N 38.4306 0.297415 1.54768 0
M  V30 471 C 39.3786 -0.596051 2.24833 0
M  V30 472 C 40.3726 -1.13992 1.25308 0
M  V30 473 O 41.5786 -1.09098 1.4317 0
M  V30 474 H 37.9536 -0.210814 0.721846 0
M  V30 475 H 39.9246 0.0174667 2.98395 0
M  V30 476 C 38.6736 -1.75818 2.99972 0
M  V30 477 H 37.9966 -1.3489 3.76357 0
M  V30 478 H 39.4366 -2.35949 3.52284 0
M  V30 479 C 37.8956 -2.66014 2.06732 0
M  V30 480 O 38.4256 -3.67009 1.63302 0
M  V30 481 N 36.6316 -2.33669 1.72763 0
M  V30 482 H 36.1786 -1.51586 2.08277 0
M  V30 483 H 36.1366 -2.94285 1.10652 0
M  V30 484 N 39.9087 -1.5758 0.0250728 0
M  V30 485 C 41.1547 -1.91917 -0.655413 0
M  V30 486 C 41.4877 -0.901433 -1.72011 0
M  V30 487 O 40.7627 0.0764069 -1.9435 0
M  V30 488 C 41.0457 -3.36751 -1.27558 0
M  V30 489 C 40.8987 -4.49258 -0.220719 0
M  V30 490 C 42.2177 -3.81469 -2.19475 0
M  V30 491 H 39.3367 -0.697925 -0.23679 0
M  V30 492 H 41.9787 -1.89825 0.0815036 0
M  V30 493 H 40.1287 -3.38664 -1.90365 0
M  V30 494 H 41.8007 -4.59478 0.409601 0
M  V30 495 H 40.0437 -4.31415 0.454264 0
M  V30 496 H 40.7147 -5.47618 -0.694175 0
M  V30 497 H 43.1907 -3.81266 -1.66659 0
M  V30 498 H 42.0667 -4.83512 -2.59822 0
M  V30 499 H 42.3277 -3.16744 -3.08424 0
M  V30 500 N 41.3868 0.248026 -1.55636 0
M  V30 501 C 42.6348 0.974295 -1.77065 0
M  V30 502 C 42.9558 1.85897 -0.588849 0
M  V30 503 O 42.2258 1.91868 0.395407 0
M  V30 504 H 40.8058 0.362733 -0.653019 0
M  V30 505 H 43.4678 0.266244 -1.93073 0
M  V30 506 H 42.5638 1.59667 -2.68166 0
M  V30 507 N 42.8649 1.48995 0.513639 0
M  V30 508 C 43.7949 1.67636 1.62544 0
M  V30 509 C 44.7759 0.525087 1.61793 0
M  V30 510 O 45.9609 0.759502 1.78732 0
M  V30 511 C 43.0909 1.73114 3.01079 0
M  V30 512 C 42.0449 2.87905 3.16693 0
M  V30 513 C 41.3709 2.78486 4.56453 0
M  V30 514 C 42.6709 4.29005 2.97913 0
M  V30 515 H 44.3649 2.60716 1.47198 0
M  V30 516 H 41.9109 1.25465 0.706714 0
M  V30 517 H 43.8639 1.84742 3.78746 0
M  V30 518 H 42.5879 0.766241 3.17484 0
M  V30 519 H 41.2469 2.75859 2.41448 0
M  V30 520 H 40.8949 1.7993 4.69717 0
M  V30 521 H 40.5949 3.55523 4.67843 0
M  V30 522 H 42.1189 2.92104 5.36197 0
M  V30 523 H 43.5329 4.41798 3.65359 0
M  V30 524 H 41.9299 5.07166 3.20785 0
M  V30 525 H 42.9999 4.44329 1.94165 0
M  V30 526 N 44.343 -0.763751 1.37857 0
M  V30 527 C 45.59 -1.52257 1.33506 0
M  V30 528 C 45.918 -1.94343 -0.078022 0
M  V30 529 O 45.173 -1.64958 -1.05297 0
M  V30 530 C 45.472 -2.79499 2.22745 0
M  V30 531 C 45.138 -2.56426 3.70886 0
M  V30 532 C 43.8 -2.49842 4.11257 0
M  V30 533 C 46.152 -2.36008 4.64704 0
M  V30 534 C 43.48 -2.20841 5.43549 0
M  V30 535 C 45.832 -2.0853 5.97242 0
M  V30 536 C 44.496 -2.00396 6.36709 0
M  V30 537 H 43.766 -0.557149 0.488534 0
M  V30 538 H 46.413 -0.879073 1.70131 0
M  V30 539 H 44.718 -3.48447 1.79142 0
M  V30 540 H 46.415 -3.37413 2.16688 0
M  V30 541 H 43.005 -2.62416 3.38874 0
M  V30 542 H 47.189 -2.40079 4.34368 0
M  V30 543 H 42.445 -2.13045 5.73081 0
M  V30 544 H 46.619 -1.91732 6.69486 0
M  V30 545 H 44.246 -1.77688 7.39142 0
M  V30 546 N 45.8211 -1.22559 -0.990812 0
M  V30 547 C 46.7541 -0.940773 -2.07905 0
M  V30 548 C 47.7321 0.117082 -1.62178 0
M  V30 549 O 48.9161 -0.0149506 -1.88494 0
M  V30 550 C 46.0431 -0.415321 -3.36144 0
M  V30 551 C 45.0891 -1.45818 -4.00799 0
M  V30 552 S 45.9221 -3.03219 -4.41382 0
M  V30 553 C 47.0781 -2.52317 -5.72789 0
M  V30 554 H 47.3111 -1.8623 -2.31745 0
M  V30 555 H 44.8441 -1.05688 -1.12558 0
M  V30 556 H 46.8021 -0.118747 -4.10328 0
M  V30 557 H 45.4631 0.485121 -3.10331 0
M  V30 558 H 44.6561 -1.04044 -4.93144 0
M  V30 559 H 44.2581 -1.70356 -3.32949 0
M  V30 560 H 46.5501 -1.93688 -6.49224 0
M  V30 561 H 47.4931 -3.43161 -6.19392 0
M  V30 562 H 47.9011 -1.93529 -5.30289 0
M  V30 563 N 47.2992 1.18797 -1.03562 0
M  V30 564 C 48.2462 2.22253 -0.622259 0
M  V30 565 C 49.2162 1.61987 0.36736 0
M  V30 566 O 50.4012 1.88986 0.262492 0
M  V30 567 C 47.5412 3.45097 0.0138462 0
M  V30 568 C 46.6542 4.19722 -1.02263 0
M  V30 569 C 45.7892 5.30009 -0.355573 0
M  V30 570 C 44.8282 5.96399 -1.37749 0
M  V30 571 N 43.9652 6.98234 -0.735766 0
M  V30 572 H 48.8052 2.56968 -1.50903 0
M  V30 573 H 46.3422 1.26245 -0.755017 0
M  V30 574 H 48.3002 4.15279 0.399948 0
M  V30 575 H 46.9302 3.11018 0.864158 0
M  V30 576 H 45.9822 3.48418 -1.52673 0
M  V30 577 H 47.2942 4.65227 -1.79903 0
M  V30 578 H 46.4482 6.0664 0.0850095 0
M  V30 579 H 45.1872 4.85592 0.452967 0
M  V30 580 H 44.1922 5.18512 -1.82826 0
M  V30 581 H 45.4172 6.42899 -2.18764 0
M  V30 582 H 43.3632 6.55979 0.0525597 0
M  V30 583 H 43.2802 7.41965 -1.44995 0
M  V30 584 H 44.5482 7.78845 -0.31941 0
M  V30 585 N 48.7773 0.814389 1.34928 0
M  V30 586 C 49.7103 0.175641 2.27523 0
M  V30 587 C 50.6883 -0.662953 1.48471 0
M  V30 588 O 51.8723 -0.628545 1.77712 0
M  V30 589 C 48.9993 -0.755516 3.30166 0
M  V30 590 C 48.0453 0.00445305 4.265 0
M  V30 591 S 48.8783 1.34582 5.18313 0
M  V30 592 C 50.0343 0.419315 6.24494 0
M  V30 593 H 50.2673 0.960691 2.8135 0
M  V30 594 H 47.8003 0.609846 1.41846 0
M  V30 595 H 49.7583 -1.28723 3.89796 0
M  V30 596 H 48.4193 -1.51402 2.75202 0
M  V30 597 H 47.6123 -0.703077 4.99072 0
M  V30 598 H 47.2143 0.466447 3.7108 0
M  V30 599 H 49.5063 -0.392432 6.76362 0
M  V30 600 H 50.4493 1.11446 6.99275 0
M  V30 601 H 50.8573 0.0115389 5.64499 0
M  V30 602 N 50.2554 -1.46986 0.568584 0
M  V30 603 C 51.2034 -2.31858 -0.185649 0
M  V30 604 C 52.1974 -1.43624 -0.898249 0
M  V30 605 O 53.4034 -1.60327 -0.818242 0
M  V30 606 H 49.7784 -0.747866 -0.0787399 0
M  V30 607 H 51.7494 -2.93303 0.549191 0
M  V30 608 C 50.4984 -3.26513 -1.19519 0
M  V30 609 H 49.8214 -3.94377 -0.656285 0
M  V30 610 H 51.2614 -3.88707 -1.6936 0
M  V30 611 C 49.7204 -2.50847 -2.24894 0
M  V30 612 O 50.2504 -2.26119 -3.32014 0
M  V30 613 N 48.4564 -2.11656 -1.99124 0
M  V30 614 H 48.0034 -2.31966 -1.12024 0
M  V30 615 H 47.9614 -1.61347 -2.69842 0
M  V30 616 N 51.7335 -0.305618 -1.54608 0
M  V30 617 C 53.1495 0.0476228 -1.59529 0
M  V30 618 C 53.3495 1.52025 -1.32252 0
M  V30 619 O 52.4055 2.27368 -1.09818 0
M  V30 620 C 53.7185 -0.354471 -2.98603 0
M  V30 621 C 55.2665 -0.303622 -3.11524 0
M  V30 622 C 55.7415 -0.680608 -4.52915 0
M  V30 623 N 57.2325 -0.63332 -4.5885 0
M  V30 624 C 57.9675 -0.897432 -5.66334 0
M  V30 625 N 57.4635 -1.22775 -6.81834 0
M  V30 626 N 59.2565 -0.824186 -5.56025 0
M  V30 627 H 51.4075 -1.2653 -1.70599 0
M  V30 628 H 53.6705 -0.513291 -0.797017 0
M  V30 629 H 53.3765 -1.3798 -3.23503 0
M  V30 630 H 53.2505 0.289568 -3.76087 0
M  V30 631 H 55.6375 0.712472 -2.8637 0
M  V30 632 H 55.7185 -0.982348 -2.36185 0
M  V30 633 H 55.3625 -1.69453 -4.78799 0
M  V30 634 H 55.2925 0.0202385 -5.26596 0
M  V30 635 H 57.7835 -0.389138 -3.75891 0
M  V30 636 H 58.0965 -1.41513 -7.59733 0
M  V30 637 H 56.4415 -1.26583 -6.83375 0
M  V30 638 H 59.6325 -0.565748 -4.64669 0
M  V30 639 H 59.8055 -1.03338 -6.39707 0
M  V30 640 N 53.2116 1.57565 -0.0334293 0
M  V30 641 C 54.4576 1.92262 0.645226 0
M  V30 642 C 54.7906 0.910543 1.71531 0
M  V30 643 O 54.0656 -0.066099 1.94388 0
M  V30 644 C 54.3486 3.37422 1.2577 0
M  V30 645 C 54.2016 4.49369 0.196891 0
M  V30 646 C 55.5206 3.82628 2.17449 0
M  V30 647 H 52.6396 0.699171 0.233085 0
M  V30 648 H 55.2816 1.89779 -0.0915694 0
M  V30 649 H 53.4316 3.39669 1.88566 0
M  V30 650 H 55.1036 4.59254 -0.433962 0
M  V30 651 H 53.3466 4.31168 -0.477137 0
M  V30 652 H 54.0176 5.47978 0.665124 0
M  V30 653 H 56.4936 3.82145 1.64634 0
M  V30 654 H 55.3696 4.84883 2.57254 0
M  V30 655 H 55.6306 3.18376 3.0674 0
M  V30 656 N 54.6897 -0.239769 1.55765 0
M  V30 657 C 55.9387 -0.964754 1.77131 0
M  V30 658 C 56.2517 -1.86213 0.59868 0
M  V30 659 O 57.4577 -2.6244 0.695522 0
M  V30 660 C 55.9137 -1.76552 3.1362 0
M  V30 661 C 55.5217 -0.915185 4.38553 0
M  V30 662 C 57.2657 -2.48281 3.44321 0
M  V30 663 C 55.1727 -1.71225 5.66071 0
M  V30 664 H 54.1027 -0.363953 0.660344 0
M  V30 665 H 56.7537 -0.219181 1.82186 0
M  V30 666 H 55.1357 -2.55331 3.02691 0
M  V30 667 H 56.3097 -0.169217 4.60489 0
M  V30 668 H 54.6247 -0.310889 4.15238 0
M  V30 669 H 57.2217 -3.08382 4.36812 0
M  V30 670 H 57.5647 -3.20256 2.65973 0
M  V30 671 H 58.0977 -1.76507 3.56497 0
M  V30 672 H 54.8367 -1.03612 6.4726 0
M  V30 673 H 54.3567 -2.43331 5.48224 0
M  V30 674 H 56.0357 -2.27758 6.05587 0
M  V30 675 N 56.1678 -1.49265 -0.50573 0
M  V30 676 C 57.3978 -1.61979 -1.28243 0
M  V30 677 C 57.8058 -0.288576 -1.86986 0
M  V30 678 O 57.1488 0.735408 -1.68337 0
M  V30 679 C 57.2108 -2.62632 -2.45489 0
M  V30 680 C 56.8748 -4.071 -2.07651 0
M  V30 681 C 57.8718 -4.94049 -1.61901 0
M  V30 682 C 55.5568 -4.52801 -2.17431 0
M  V30 683 C 57.5508 -6.24736 -1.26428 0
M  V30 684 C 55.2378 -5.83503 -1.8157 0
M  V30 685 C 56.2358 -6.69294 -1.36142 0
M  V30 686 O 55.9238 -7.9756 -1.00764 0
M  V30 687 H 55.6558 -0.54834 -0.395347 0
M  V30 688 H 58.2098 -1.96002 -0.614204 0
M  V30 689 H 56.4398 -2.2378 -3.15372 0
M  V30 690 H 58.1288 -2.64925 -3.07522 0
M  V30 691 H 58.8948 -4.5997 -1.53795 0
M  V30 692 H 54.7738 -3.86196 -2.51742 0
M  V30 693 H 58.3178 -6.91652 -0.908992 0
M  V30 694 H 54.2148 -6.17112 -1.89324 0
M  V30 695 H 54.9828 -8.10529 -1.13952 0
M  V30 696 N 57.6459 0.756429 -1.3826 0
M  V30 697 C 58.8709 1.55077 -1.37717 0
M  V30 698 C 59.2959 1.88073 0.03164 0
M  V30 699 O 58.6539 1.50364 1.01293 0
M  V30 700 C 58.7019 2.8283 -2.23695 0
M  V30 701 O 57.8059 3.77862 -1.6521 0
M  V30 702 H 57.1469 0.469152 -0.469885 0
M  V30 703 H 59.6769 0.935019 -1.81985 0
M  V30 704 H 59.6869 3.31783 -2.37453 0
M  V30 705 H 58.3619 2.58144 -3.2609 0
M  V30 706 H 56.9389 3.36555 -1.60578 0
M  V30 707 N 59.124 1.23083 0.984299 0
M  V30 708 C 60.372 1.05848 1.72165 0
M  V30 709 C 60.693 -0.406049 1.90726 0
M  V30 710 O 59.963 -1.29139 1.47309 0
M  V30 711 H 58.543 0.388685 0.637913 0
M  V30 712 H 61.205 1.54736 1.18503 0
M  V30 713 H 60.301 1.54327 2.71274 0
M  V30 714 N 60.6021 -1.18246 1.0419 0
M  V30 715 C 61.5341 -2.2142 0.592088 0
M  V30 716 C 62.5471 -1.59233 -0.338909 0
M  V30 717 O 63.7361 -1.78002 -0.133231 0
M  V30 718 C 60.8361 -3.38546 -0.154854 0
M  V30 719 C 60.0091 -4.3031 0.784328 0
M  V30 720 C 59.0681 -5.26138 0.0804583 0
M  V30 721 O 58.0941 -5.64738 0.711292 0
M  V30 722 N 59.2961 -5.68261 -1.18574 0
M  V30 723 H 62.0611 -2.60636 1.47949 0
M  V30 724 H 59.6221 -1.33044 0.922544 0
M  V30 725 H 61.6141 -3.99678 -0.635606 0
M  V30 726 H 60.1841 -2.98012 -0.943811 0
M  V30 727 H 59.4041 -3.66764 1.44491 0
M  V30 728 H 60.6921 -4.8852 1.42218 0
M  V30 729 H 60.0901 -5.38957 -1.71876 0
M  V30 730 H 58.6471 -6.31584 -1.61074 0
M  V30 731 N 62.0802 -0.821533 -1.34494 0
M  V30 732 C 63.3052 -0.420873 -2.03085 0
M  V30 733 C 63.7302 0.964915 -1.61465 0
M  V30 734 O 63.0882 1.62763 -0.798607 0
M  V30 735 C 63.1362 -0.529414 -3.56693 0
M  V30 736 O 62.2402 0.451302 -4.09923 0
M  V30 737 H 61.5812 -0.173489 -0.640935 0
M  V30 738 H 64.1112 -1.11157 -1.71771 0
M  V30 739 H 64.1212 -0.404671 -4.05988 0
M  V30 740 H 62.7962 -1.54014 -3.86332 0
M  V30 741 H 61.3732 0.285558 -3.71805 0
M  V30 742 N 63.5583 1.46682 -0.576371 0
M  V30 743 C 64.8353 1.95599 0.00703437 0
M  V30 744 C 65.2153 1.51904 1.46589 0
M  V30 745 O 64.5633 0.766755 2.15251 0
M  V30 746 C 64.7733 3.4864 -0.158404 0
M  V30 747 C 66.1213 4.24594 -0.0229439 0
M  V30 748 O 67.1453 3.56094 -0.0869173 0
M  V30 749 O 66.0043 5.46373 0.118015 0
M  V30 750 H 63.0983 0.825275 0.053384 0
M  V30 751 H 65.6443 1.56996 -0.644244 0
M  V30 752 H 64.4163 3.7331 -1.17282 0
M  V30 753 H 64.0393 3.94057 0.5296 0
M  V30 754 N 65.0364 0.313813 1.54444 0
M  V30 755 C 66.2854 -0.292519 1.99568 0
M  V30 756 C 66.5984 -1.54011 1.20582 0
M  V30 757 O 67.8044 -2.22183 1.56035 0
M  V30 758 C 66.2604 -0.571752 3.55329 0
M  V30 759 C 65.8684 0.658229 4.43138 0
M  V30 760 C 67.6124 -1.13857 4.08946 0
M  V30 761 C 65.5194 0.351439 5.90355 0
M  V30 762 H 64.4494 -0.113079 0.745472 0
M  V30 763 H 67.1004 0.424518 1.78522 0
M  V30 764 H 65.4824 -1.34872 3.72325 0
M  V30 765 H 66.6564 1.43403 4.37918 0
M  V30 766 H 64.9714 1.14458 4.0036 0
M  V30 767 H 67.5684 -1.38257 5.16516 0
M  V30 768 H 67.9114 -2.08489 3.6033 0
M  V30 769 H 68.4444 -0.423015 3.95544 0
M  V30 770 H 65.1834 1.26667 6.43145 0
M  V30 771 H 64.7034 -0.386842 5.98551 0
M  V30 772 H 66.3824 -0.0423134 6.46986 0
M  V30 773 N 66.5145 -1.57545 0.0417849 0
M  V30 774 C 67.4465 -2.07904 -0.964799 0
M  V30 775 C 68.4595 -1.00497 -1.28079 0
M  V30 776 O 69.6485 -1.28087 -1.24322 0
M  V30 777 C 66.7485 -2.49928 -2.28887 0
M  V30 778 C 65.9215 -3.80562 -2.15619 0
M  V30 779 C 64.9805 -4.08999 -3.31069 0
M  V30 780 O 64.0065 -4.79061 -3.0739 0
M  V30 781 N 65.2085 -3.6017 -4.55256 0
M  V30 782 H 67.9735 -2.94886 -0.535029 0
M  V30 783 H 65.5345 -1.61252 -0.144681 0
M  V30 784 H 67.5265 -2.66034 -3.04972 0
M  V30 785 H 66.0965 -1.68245 -2.63463 0
M  V30 786 H 65.3165 -3.74129 -1.24183 0
M  V30 787 H 66.6045 -4.66126 -2.03971 0
M  V30 788 H 66.0025 -3.03512 -4.77386 0
M  V30 789 H 64.5595 -3.81532 -5.28466 0
M  V30 790 N 67.9926 0.231505 -1.5589 0
M  V30 791 C 69.4086 0.580748 -1.48659 0
M  V30 792 C 69.6086 1.87617 -0.73498 0
M  V30 793 O 68.6646 2.51046 -0.270586 0
M  V30 794 C 69.9776 0.669202 -2.93159 0
M  V30 795 C 71.5256 0.760499 -3.03621 0
M  V30 796 C 72.0006 0.880383 -4.49459 0
M  V30 797 N 73.4916 0.944861 -4.53461 0
M  V30 798 C 74.2266 1.05716 -5.63571 0
M  V30 799 N 73.7226 1.13403 -6.83456 0
M  V30 800 N 75.5156 1.09152 -5.514 0
M  V30 801 H 67.6666 -0.618695 -2.03189 0
M  V30 802 H 69.9296 -0.215728 -0.923128 0
M  V30 803 H 69.6356 -0.212904 -3.51055 0
M  V30 804 H 69.5096 1.5361 -3.44505 0
M  V30 805 H 71.8966 1.63305 -2.45796 0
M  V30 806 H 71.9776 -0.131864 -2.5546 0
M  V30 807 H 71.6216 0.0123284 -5.07899 0
M  V30 808 H 71.5516 1.78802 -4.95316 0
M  V30 809 H 74.0426 0.896176 -3.6712 0
M  V30 810 H 74.3556 1.21921 -7.63122 0
M  V30 811 H 72.7006 1.10333 -6.86186 0
M  V30 812 H 75.8916 1.02805 -4.56671 0
M  V30 813 H 76.0646 1.17558 -6.37247 0
M  V30 814 N 69.4707 1.49531 0.497807 0
M  V30 815 C 70.7197 1.58426 1.24837 0
M  V30 816 C 71.0327 0.277643 1.93619 0
M  V30 817 O 72.2387 0.24517 2.70391 0
M  V30 818 C 70.6947 2.79538 2.26686 0
M  V30 819 C 70.3027 4.16971 1.63828 0
M  V30 820 C 72.0467 2.97764 3.0255 0
M  V30 821 C 69.9537 5.29301 2.63807 0
M  V30 822 H 68.8837 0.58989 0.469623 0
M  V30 823 H 71.5347 1.75923 0.521857 0
M  V30 824 H 69.9167 2.55542 3.02514 0
M  V30 825 H 71.0907 4.51116 0.939711 0
M  V30 826 H 69.4057 4.04129 1.00342 0
M  V30 827 H 72.0027 3.78856 3.77323 0
M  V30 828 H 72.3457 2.08448 3.60354 0
M  V30 829 H 72.8787 3.21815 2.33838 0
M  V30 830 H 69.6177 6.20687 2.10779 0
M  V30 831 H 69.1377 4.99606 3.31894 0
M  V30 832 H 70.8167 5.58768 3.2617 0
M  V30 833 N 70.9488 -0.749086 1.3866 0
M  V30 834 C 72.2258 -1.4992 1.25632 0
M  V30 835 C 72.6058 -2.10633 -0.140317 0
M  V30 836 O 71.9538 -1.97437 -1.15025 0
M  V30 837 C 72.1638 -2.56195 2.36992 0
M  V30 838 C 73.5118 -3.22972 2.75634 0
M  V30 839 O 74.5358 -2.66502 2.36337 0
M  V30 840 O 73.3948 -4.25122 3.43415 0
M  V30 841 H 70.4888 -0.665067 0.491544 0
M  V30 842 H 73.0348 -0.784113 1.50498 0
M  V30 843 H 71.8068 -2.09612 3.30422 0
M  V30 844 H 71.4298 -3.35279 2.13714 0
M  V30 845 N 72.4269 -1.23603 -0.977757 0
M  V30 846 C 73.6759 -1.06377 -1.71368 0
M  V30 847 C 73.9889 0.399062 -1.91486 0
M  V30 848 O 75.1949 0.691312 -2.62551 0
M  V30 849 C 73.6509 -1.85512 -3.08404 0
M  V30 850 C 73.2589 -3.36141 -2.96164 0
M  V30 851 C 75.0029 -1.76783 -3.85938 0
M  V30 852 C 72.9099 -4.07659 -4.28449 0
M  V30 853 H 71.8399 -0.394452 -0.642591 0
M  V30 854 H 74.4909 -1.47594 -1.09034 0
M  V30 855 H 72.8729 -1.37103 -3.71509 0
M  V30 856 H 74.0469 -3.92056 -2.42133 0
M  V30 857 H 72.3619 -3.45712 -2.32104 0
M  V30 858 H 74.9589 -2.27526 -4.83876 0
M  V30 859 H 75.3019 -0.731116 -4.0983 0
M  V30 860 H 75.8349 -2.22818 -3.2954 0
M  V30 861 H 72.5739 -5.11648 -4.09752 0
M  V30 862 H 72.0939 -3.5653 -4.82334 0
M  V30 863 H 73.7729 -4.141 -4.97122 0
M  V30 864 N 73.905 1.17692 -1.04816 0
M  V30 865 C 75.152 1.87859 -0.75599 0
M  V30 866 C 75.48 1.80812 0.716752 0
M  V30 867 O 74.735 1.20819 1.53952 0
M  V30 868 C 75.034 3.37462 -1.17703 0
M  V30 869 C 74.7 3.64713 -2.65133 0
M  V30 870 C 73.362 3.71859 -3.05408 0
M  V30 871 C 75.714 3.76492 -3.60421 0
M  V30 872 C 73.042 3.88271 -4.39843 0
M  V30 873 C 75.394 3.94421 -4.94585 0
M  V30 874 C 74.058 3.99806 -5.3452 0
M  V30 875 H 73.328 0.687425 -0.276636 0
M  V30 876 H 75.975 1.39255 -1.31455 0
M  V30 877 H 74.28 3.88097 -0.537395 0
M  V30 878 H 75.977 3.90109 -0.928218 0
M  V30 879 H 72.567 3.59772 -2.32942 0
M  V30 880 H 76.751 3.70295 -3.30447 0
M  V30 881 H 72.007 3.90687 -4.70291 0
M  V30 882 H 76.181 4.02477 -5.68318 0
M  V30 883 H 73.808 4.12276 -6.38696 0
M  V30 884 N 75.3831 0.828654 1.34056 0
M  V30 885 C 76.2931 0.256725 2.33191 0
M  V30 886 C 77.3091 -0.611898 1.62886 0
M  V30 887 O 78.4851 -0.51844 1.94613 0
M  V30 888 C 75.5501 -0.567238 3.42028 0
M  V30 889 C 74.6111 0.324458 4.28072 0
M  V30 890 C 73.8441 -0.460274 5.31712 0
M  V30 891 O 74.0671 -1.693 5.44696 0
M  V30 892 O 73.0011 0.160391 6.01686 0
M  V30 893 H 76.8271 1.07739 2.83947 0
M  V30 894 H 74.4121 0.59093 1.37217 0
M  V30 895 H 76.2941 -1.03582 4.08471 0
M  V30 896 H 74.9691 -1.36513 2.93506 0
M  V30 897 H 73.8761 0.840659 3.64532 0
M  V30 898 H 75.2091 1.08685 4.8005 0
M  V30 899 N 76.8612 -1.46375 0.584142 0
M  V30 900 C 77.8092 -2.32042 -0.161047 0
M  V30 901 C 78.8032 -1.44569 -0.882966 0
M  V30 902 O 80.0092 -1.61186 -0.801191 0
M  V30 903 H 76.3842 -0.748659 -0.0708033 0
M  V30 904 H 78.3552 -2.92704 0.580269 0
M  V30 905 C 77.1042 -3.27762 -1.1605 0
M  V30 906 H 76.4272 -3.95051 -0.614419 0
M  V30 907 H 77.8672 -3.90481 -1.65228 0
M  V30 908 C 76.3262 -2.53218 -2.22221 0
M  V30 909 O 76.8562 -2.29628 -3.29597 0
M  V30 910 N 75.0622 -2.13756 -1.96868 0
M  V30 911 H 74.6092 -2.33142 -1.09557 0
M  V30 912 H 74.5672 -1.642 -2.68115 0
M  V30 913 N 78.3393 -0.321999 -1.54275 0
M  V30 914 C 79.7503 0.166384 -1.85957 0
M  V30 915 C 80.1013 1.51747 -1.24367 0
M  V30 916 O 79.2263 2.09317 -0.549124 0
M  V30 917 C 79.8213 0.308681 -3.37391 0
M  V30 918 C 78.3803 0.741286 -3.69028 0
M  V30 919 C 77.5273 -0.137937 -2.76957 0
M  V30 920 H 80.4783 -0.542335 -1.49146 0
M  V30 921 H 80.4993 1.13984 -3.63026 0
M  V30 922 H 80.0113 -0.674809 -3.82188 0
M  V30 923 H 78.1123 1.73458 -3.29762 0
M  V30 924 H 78.2253 0.546118 -4.75977 0
M  V30 925 H 76.5893 0.386251 -2.51754 0
M  V30 926 H 77.3723 -1.11816 -3.2458 0
M  V30 927 N 79.8174 1.5752 -0.0501392 0
M  V30 928 C 81.0944 1.83996 0.663685 0
M  V30 929 C 81.4744 0.938339 1.89099 0
M  V30 930 O 80.8224 -0.00087759 2.285 0
M  V30 931 C 81.0324 3.33702 1.02196 0
M  V30 932 C 82.3804 4.00691 1.40469 0
M  V30 933 O 83.4044 3.38321 1.11433 0
M  V30 934 O 82.2634 5.10658 1.94654 0
M  V30 935 H 79.3574 0.759385 0.32751 0
M  V30 936 H 81.9034 1.69514 -0.0794238 0
M  V30 937 H 80.6754 3.91015 0.149364 0
M  V30 938 H 80.2984 3.53368 1.82255 0
M  V30 939 N 81.2955 -0.223234 1.56011 0
M  V30 940 C 82.2255 -1.27988 1.95298 0
M  V30 941 C 83.2065 -1.48976 0.820979 0
M  V30 942 O 84.3915 -1.61188 1.08315 0
M  V30 943 C 81.5215 -2.63 2.26822 0
M  V30 944 C 80.4755 -2.56671 3.42497 0
M  V30 945 C 79.8015 -3.95697 3.59622 0
M  V30 946 C 81.1015 -2.11601 4.77517 0
M  V30 947 H 82.7955 -0.953525 2.8381 0
M  V30 948 H 80.3415 -0.457244 1.36548 0
M  V30 949 H 82.2945 -3.37077 2.52898 0
M  V30 950 H 81.0185 -2.9732 1.35161 0
M  V30 951 H 79.6775 -1.85051 3.16467 0
M  V30 952 H 79.3255 -4.27322 2.6534 0
M  V30 953 H 79.0255 -3.92345 4.37424 0
M  V30 954 H 80.5495 -4.71438 3.88044 0
M  V30 955 H 81.9635 -2.7542 5.02809 0
M  V30 956 H 80.3605 -2.19311 5.5859 0
M  V30 957 H 81.4305 -1.06824 4.72987 0
M  V30 958 N 82.7736 -1.49793 -0.48987 0
M  V30 959 C 84.0216 -1.59525 -1.24081 0
M  V30 960 C 84.3426 -0.288953 -1.92847 0
M  V30 961 O 83.6126 0.692436 -1.83254 0
M  V30 962 H 82.1926 -0.587796 -0.460983 0
M  V30 963 H 84.8546 -1.86477 -0.566778 0
M  V30 964 H 83.9506 -2.39696 -1.99881 0
M  V30 965 N 84.2517 0.741722 -1.39055 0
M  V30 966 C 85.4977 1.50336 -1.36113 0
M  V30 967 C 85.8307 1.94148 0.0450796 0
M  V30 968 O 85.1057 1.66301 1.00868 0
M  V30 969 C 85.3887 2.74773 -2.32749 0
M  V30 970 C 85.2417 2.37023 -3.82283 0
M  V30 971 C 86.5607 3.76846 -2.27322 0
M  V30 972 H 83.6797 0.545351 -0.495743 0
M  V30 973 H 86.3217 0.848624 -1.69995 0
M  V30 974 H 84.4717 3.30639 -2.03986 0
M  V30 975 H 86.1437 1.8684 -4.21768 0
M  V30 976 H 84.3867 1.69334 -3.99385 0
M  V30 977 H 85.0577 3.26104 -4.45376 0
M  V30 978 H 87.5337 3.30548 -2.5274 0
M  V30 979 H 86.4097 4.6159 -2.97028 0
M  V30 980 H 86.6707 4.23286 -1.27599 0
M  V30 981 N 85.7298 1.2412 0.971189 0
M  V30 982 C 86.9758 1.08041 1.71625 0
M  V30 983 C 87.3088 -0.380407 1.90438 0
M  V30 984 O 86.5838 -1.28127 1.46334 0
M  V30 985 C 86.8668 1.81682 3.10908 0
M  V30 986 C 86.7198 3.35493 2.99608 0
M  V30 987 C 88.0388 1.58671 4.10501 0
M  V30 988 H 85.1578 0.39388 0.622919 0
M  V30 989 H 87.7998 1.52743 1.13003 0
M  V30 990 H 85.9498 1.43684 3.60953 0
M  V30 991 H 87.6218 3.83068 2.57015 0
M  V30 992 H 85.8648 3.64052 2.35899 0
M  V30 993 H 86.5358 3.82217 3.98264 0
M  V30 994 H 89.0118 1.91719 3.69301 0
M  V30 995 H 87.8878 2.1266 5.06031 0
M  V30 996 H 88.1488 0.524161 4.38982 0
M  V30 997 N 87.2079 -1.17134 1.05439 0
M  V30 998 C 88.4549 -1.87456 0.765942 0
M  V30 999 C 88.7829 -1.81189 -0.707153 0
M  V30 1000 O 88.0379 -1.21633 -1.5331 0
M  V30 1001 C 88.3369 -3.36833 1.19491 0
M  V30 1002 C 88.0029 -3.63301 2.67063 0
M  V30 1003 C 86.6649 -3.70234 3.07376 0
M  V30 1004 C 89.0169 -3.74575 3.62413 0
M  V30 1005 C 86.3449 -3.85933 4.41896 0
M  V30 1006 C 88.6969 -3.91793 4.9667 0
M  V30 1007 C 87.3609 -3.96966 5.36633 0
M  V30 1008 H 86.6309 -0.685948 0.280278 0
M  V30 1009 H 89.2779 -1.38556 1.32192 0
M  V30 1010 H 87.5829 -3.87807 0.557969 0
M  V30 1011 H 89.2799 -3.89611 0.948893 0
M  V30 1012 H 85.8699 -3.58532 2.34846 0
M  V30 1013 H 90.0539 -3.68537 3.32406 0
M  V30 1014 H 85.3099 -3.88187 4.72357 0
M  V30 1015 H 89.4839 -3.99458 5.70444 0
M  V30 1016 H 87.1109 -4.08883 6.40874 0
M  V30 1017 N 88.686 -0.835752 -1.33615 0
M  V30 1018 C 89.649 -0.272 -2.2758 0
M  V30 1019 C 90.649 0.557487 -1.50827 0
M  V30 1020 O 91.839 0.37173 -1.70188 0
M  V30 1021 C 88.971 0.617173 -3.35267 0
M  V30 1022 H 90.164 -1.10111 -2.78954 0
M  V30 1023 H 87.717 -0.608594 -1.43965 0
M  V30 1024 H 88.452 1.46884 -2.89129 0
M  V30 1025 H 88.237 0.0237066 -3.92093 0
M  V30 1026 H 89.727 1.005 -4.05326 0
M  V30 1027 N 90.1641 1.46063 -0.591896 0
M  V30 1028 C 91.0941 2.33172 0.123673 0
M  V30 1029 C 92.0751 1.45897 0.87453 0
M  V30 1030 O 93.2601 1.74698 0.848181 0
M  V30 1031 C 90.3901 3.28336 1.13194 0
M  V30 1032 C 89.3441 4.25124 0.495324 0
M  V30 1033 C 88.6701 5.09863 1.61071 0
M  V30 1034 C 89.9701 5.19143 -0.573425 0
M  V30 1035 H 91.6641 2.93252 -0.603646 0
M  V30 1036 H 89.2101 1.41014 -0.291741 0
M  V30 1037 H 91.1631 3.88137 1.64097 0
M  V30 1038 H 89.8871 2.66383 1.88965 0
M  V30 1039 H 88.5461 3.66599 0.00729452 0
M  V30 1040 H 88.1941 4.44288 2.35832 0
M  V30 1041 H 87.8941 5.75417 1.19035 0
M  V30 1042 H 89.4181 5.72529 2.12233 0
M  V30 1043 H 90.8321 5.73106 -0.1491 0
M  V30 1044 H 89.2291 5.93089 -0.914636 0
M  V30 1045 H 90.2991 4.62519 -1.45617 0
M  V30 1046 N 91.6422 0.330177 1.54103 0
M  V30 1047 C 92.9192 -0.325007 1.92881 0
M  V30 1048 C 93.2992 -1.6934 1.26045 0
M  V30 1049 O 92.6472 -2.24855 0.406526 0
M  V30 1050 C 92.8572 -0.410634 3.46576 0
M  V30 1051 C 94.2052 -0.667801 4.19316 0
M  V30 1052 O 95.2292 -0.49329 3.52768 0
M  V30 1053 O 94.0882 -1.00491 5.37181 0
M  V30 1054 H 91.1822 -0.186873 0.80561 0
M  V30 1055 H 93.7282 0.380376 1.65382 0
M  V30 1056 H 92.5002 0.550164 3.87413 0
M  V30 1057 H 92.1232 -1.16333 3.802 0
M  V30 1058 N 93.1203 -1.57491 0.0584922 0
M  V30 1059 C 94.3683 -1.92597 -0.612436 0
M  V30 1060 C 94.6893 -0.938162 -1.70949 0
M  V30 1061 O 93.9593 0.0158301 -1.95894 0
M  V30 1062 H 92.5393 -0.710964 -0.229214 0
M  V30 1063 H 95.2013 -1.94571 0.113218 0
M  V30 1064 H 94.2973 -2.94038 -1.04633 0
M  V30 1065 N 94.5984 0.214957 -1.56127 0
M  V30 1066 C 95.8474 0.936451 -1.78643 0
M  V30 1067 C 96.1604 1.85237 -0.628229 0
M  V30 1068 O 97.3664 2.613 -0.737186 0
M  V30 1069 C 95.8224 1.7154 -3.16389 0
M  V30 1070 C 95.4304 0.845299 -4.39953 0
M  V30 1071 C 97.1744 2.42772 -3.48227 0
M  V30 1072 C 95.0814 1.62198 -5.68723 0
M  V30 1073 H 94.0114 0.353401 -0.666051 0
M  V30 1074 H 96.6624 0.190169 -1.82512 0
M  V30 1075 H 95.0444 2.50484 -3.06715 0
M  V30 1076 H 96.2184 0.0959353 -4.607 0
M  V30 1077 H 94.5334 0.244789 -4.1568 0
M  V30 1078 H 97.1304 3.01394 -4.41663 0
M  V30 1079 H 97.4734 3.15984 -2.71035 0
M  V30 1080 H 98.0064 1.70813 -3.5926 0
M  V30 1081 H 94.7454 0.933011 -6.48826 0
M  V30 1082 H 94.2654 2.34579 -5.52026 0
M  V30 1083 H 95.9444 2.18095 -6.09133 0
M  V30 1084 N 96.0765 1.50051 0.48192 0
M  V30 1085 C 97.3045 1.64237 1.25832 0
M  V30 1086 C 97.7195 0.321336 1.86045 0
M  V30 1087 O 97.0765 -0.695478 1.68729 0
M  V30 1088 C 97.1275 2.72548 2.37487 0
M  V30 1089 O 96.8485 3.99529 1.79745 0
M  V30 1090 C 98.3495 2.9761 3.28547 0
M  V30 1091 H 95.5695 0.55237 0.380957 0
M  V30 1092 H 98.1135 1.96207 0.576467 0
M  V30 1093 H 96.2685 2.43303 3.01467 0
M  V30 1094 H 96.6825 4.59342 2.5319 0
M  V30 1095 H 98.1565 3.77084 4.03127 0
M  V30 1096 H 98.6335 2.0826 3.86684 0
M  V30 1097 H 99.2395 3.28345 2.70314 0
M  V30 1098 N 97.5546 -0.734337 1.39446 0
M  V30 1099 C 98.4876 -1.85715 1.32609 0
M  V30 1100 C 99.4656 -1.6137 0.199636 0
M  V30 1101 O 100.65 -1.84626 0.380195 0
M  V30 1102 C 97.7766 -3.21709 1.05929 0
M  V30 1103 C 96.8226 -3.64913 2.20773 0
M  V30 1104 S 97.6556 -3.74203 3.83056 0
M  V30 1105 C 98.8116 -5.12986 3.58603 0
M  V30 1106 H 99.0446 -1.91232 2.27635 0
M  V30 1107 H 96.5776 -0.899263 1.25509 0
M  V30 1108 H 98.5356 -4.00236 0.912203 0
M  V30 1109 H 97.1966 -3.13848 0.125883 0
M  V30 1110 H 96.3896 -4.63606 1.97699 0
M  V30 1111 H 95.9916 -2.93593 2.31688 0
M  V30 1112 H 98.2836 -5.99339 3.15909 0
M  V30 1113 H 99.2266 -5.41088 4.5676 0
M  V30 1114 H 99.6346 -4.82694 2.9269 0
M  V30 1115 N 99.0327 -1.24633 -0.964593 0
M  V30 1116 C 100.261 -1.11501 -1.74285 0
M  V30 1117 C 100.676 0.332165 -1.85855 0
M  V30 1118 O 100.033 1.22903 -1.34911 0
M  V30 1119 C 100.084 -1.75258 -3.16175 0
M  V30 1120 O 99.8047 -3.14318 -3.05182 0
M  V30 1121 C 101.306 -1.67776 -4.10324 0
M  V30 1122 H 98.5257 -0.389407 -0.546446 0
M  V30 1123 H 101.07 -1.64801 -1.21083 0
M  V30 1124 H 99.2247 -1.25954 -3.66353 0
M  V30 1125 H 99.6387 -3.4551 -3.94618 0
M  V30 1126 H 101.113 -2.17064 -5.0753 0
M  V30 1127 H 101.59 -0.639584 -4.34518 0
M  V30 1128 H 102.196 -2.16522 -3.66058 0
M  V30 1129 N 100.511 1.16574 -1.06058 0
M  V30 1130 C 101.739 1.90952 -0.796552 0
M  V30 1131 C 102.154 1.77302 0.648808 0
M  V30 1132 O 101.511 1.11605 1.44397 0
M  V30 1133 C 101.562 3.41736 -1.17894 0
M  V30 1134 O 101.283 3.54975 -2.56758 0
M  V30 1135 C 102.784 4.33169 -0.942308 0
M  V30 1136 H 100.004 0.605594 -0.288959 0
M  V30 1137 H 102.548 1.47777 -1.41358 0
M  V30 1138 H 100.703 3.82623 -0.606491 0
M  V30 1139 H 101.117 4.4846 -2.72 0
M  V30 1140 H 102.591 5.37439 -1.25952 0
M  V30 1141 H 103.068 4.3903 0.122078 0
M  V30 1142 H 103.674 3.98007 -1.49902 0
M  V30 1143 N 101.989 0.842826 1.3317 0
M  V30 1144 C 102.899 0.281444 2.32906 0
M  V30 1145 C 103.915 -0.594587 1.63526 0
M  V30 1146 O 105.091 -0.49777 1.95152 0
M  V30 1147 C 102.156 -0.530929 3.42611 0
M  V30 1148 C 101.217 0.369843 4.27704 0
M  V30 1149 C 100.45 -0.403853 5.3217 0
M  V30 1150 O 100.673 -1.63513 5.46461 0
M  V30 1151 O 99.6069 0.224199 6.01482 0
M  V30 1152 H 103.433 1.10744 2.82789 0
M  V30 1153 H 101.018 0.60545 1.36582 0
M  V30 1154 H 102.9 -0.992437 4.09547 0
M  V30 1155 H 101.575 -1.33392 2.94938 0
M  V30 1156 H 100.482 0.879275 3.6362 0
M  V30 1157 H 101.815 1.13771 4.78871 0
M  V30 1158 N 103.467 -1.45747 0.599634 0
M  V30 1159 C 104.414 -2.30467 -0.123849 0
M  V30 1160 C 105.384 -1.41632 -0.86774 0
M  V30 1161 O 106.569 -1.70568 -0.855056 0
M  V30 1162 C 103.709 -3.26402 -1.12051 0
M  V30 1163 C 102.822 -4.3034 -0.37832 0
M  V30 1164 C 101.957 -5.13389 -1.364 0
M  V30 1165 C 100.996 -6.09061 -0.609171 0
M  V30 1166 N 100.133 -6.84918 -1.54374 0
M  V30 1167 H 104.973 -2.91802 0.604627 0
M  V30 1168 H 102.51 -1.43797 0.309972 0
M  V30 1169 H 104.468 -3.80482 -1.7114 0
M  V30 1170 H 103.098 -2.66839 -1.8165 0
M  V30 1171 H 102.15 -3.78984 0.327929 0
M  V30 1172 H 103.462 -4.98354 0.210997 0
M  V30 1173 H 102.616 -5.7183 -2.02719 0
M  V30 1174 H 101.355 -4.45376 -1.98725 0
M  V30 1175 H 100.36 -5.49758 0.0676979 0
M  V30 1176 H 101.585 -6.79099 0.00891991 0
M  V30 1177 H 99.531 -6.19601 -2.15478 0
M  V30 1178 H 99.448 -7.49254 -1.00766 0
M  V30 1179 H 100.716 -7.47906 -2.19676 0
M  V30 1180 N 104.945 -0.338344 -1.53925 0
M  V30 1181 C 106.222 0.314774 -1.93051 0
M  V30 1182 C 106.602 1.68669 -1.26941 0
M  V30 1183 O 105.95 2.24636 -0.418445 0
M  V30 1184 C 106.16 0.392249 -3.46789 0
M  V30 1185 C 107.508 0.645554 -4.19664 0
M  V30 1186 O 108.532 0.474575 -3.53024 0
M  V30 1187 O 107.391 0.976408 -5.37707 0
M  V30 1188 H 104.485 0.182598 -0.80659 0
M  V30 1189 H 107.031 -0.389141 -1.65178 0
M  V30 1190 H 105.803 -0.570702 -3.87116 0
M  V30 1191 H 105.426 1.14316 -3.80812 0
M  V30 1192 N 106.423 1.57458 -0.0668435 0
M  V30 1193 C 107.333 2.15937 0.916975 0
M  V30 1194 C 108.349 1.12123 1.33058 0
M  V30 1195 O 109.525 1.44366 1.40429 0
M  V30 1196 C 106.59 2.70547 2.16807 0
M  V30 1197 C 105.651 3.89215 1.81135 0
M  V30 1198 C 104.884 4.41211 3.0028 0
M  V30 1199 O 105.107 3.92225 4.14144 0
M  V30 1200 O 104.041 5.32605 2.80384 0
M  V30 1201 H 107.867 3.00354 0.449561 0
M  V30 1202 H 105.452 1.48584 0.155949 0
M  V30 1203 H 107.334 3.0557 2.90181 0
M  V30 1204 H 106.009 1.89192 2.62656 0
M  V30 1205 H 104.916 3.59054 1.05028 0
M  V30 1206 H 106.249 4.71848 1.40073 0
M  V30 1207 N 107.901 -0.206675 1.56239 0
M  V30 1208 C 109.148 -0.928842 1.79941 0
M  V30 1209 C 109.476 -1.83734 0.638131 0
M  V30 1210 O 108.731 -1.92039 -0.376746 0
M  V30 1211 C 109.03 -1.78675 3.09532 0
M  V30 1212 C 108.696 -1.03022 4.38973 0
M  V30 1213 C 107.358 -0.821302 4.74139 0
M  V30 1214 C 109.71 -0.497081 5.18824 0
M  V30 1215 C 107.038 -0.0675719 5.86661 0
M  V30 1216 C 109.39 0.24338 6.32132 0
M  V30 1217 C 108.054 0.463422 6.65889 0
M  V30 1218 H 107.324 -0.339887 0.658451 0
M  V30 1219 H 109.971 -0.195977 1.90495 0
M  V30 1220 H 108.276 -2.58794 2.94165 0
M  V30 1221 H 109.973 -2.34792 3.25075 0
M  V30 1222 H 106.563 -1.20306 4.11369 0
M  V30 1223 H 110.747 -0.645921 4.92079 0
M  V30 1224 H 106.003 0.112995 6.11296 0
M  V30 1225 H 110.177 0.66393 6.93228 0
M  V30 1226 H 107.804 1.04938 7.52922 0
M  V30 1227 N 109.379 -1.50304 -0.473955 0
M  V30 1228 C 110.312 -1.63595 -1.59097 0
M  V30 1229 C 111.29 -0.484142 -1.55225 0
M  V30 1230 O 112.474 -0.703271 -1.7489 0
M  V30 1231 C 109.601 -1.61589 -2.97669 0
M  V30 1232 C 108.647 -2.82295 -3.19705 0
M  V30 1233 S 109.48 -4.43635 -2.99913 0
M  V30 1234 C 110.636 -4.44317 -4.40832 0
M  V30 1235 H 110.869 -2.58082 -1.47583 0
M  V30 1236 H 108.402 -1.39531 -0.661087 0
M  V30 1237 H 110.36 -1.61116 -3.7756 0
M  V30 1238 H 109.021 -0.683421 -3.06575 0
M  V30 1239 H 108.214 -2.77188 -4.20931 0
M  V30 1240 H 107.816 -2.8032 -2.47582 0
M  V30 1241 H 110.108 -4.17703 -5.33414 0
M  V30 1242 H 111.051 -5.45911 -4.50984 0
M  V30 1243 H 111.459 -3.74059 -4.22777 0
M  V30 1244 N 110.857 0.726932 -1.39834 0
M  V30 1245 C 112.087 1.51393 -1.40583 0
M  V30 1246 C 112.495 1.892 -0.000740625 0
M  V30 1247 O 111.838 1.55189 0.982951 0
M  V30 1248 C 111.9 2.82588 -2.22226 0
M  V30 1249 C 111.564 2.67169 -3.70769 0
M  V30 1250 C 112.561 2.3518 -4.63666 0
M  V30 1251 C 110.246 2.83788 -4.14451 0
M  V30 1252 C 112.24 2.20002 -5.98229 0
M  V30 1253 C 109.927 2.68229 -5.49087 0
M  V30 1254 C 110.925 2.36382 -6.4079 0
M  V30 1255 O 110.613 2.2093 -7.72946 0
M  V30 1256 H 110.345 0.474168 -0.48181 0
M  V30 1257 H 112.899 0.905247 -1.84376 0
M  V30 1258 H 111.129 3.45746 -1.73195 0
M  V30 1259 H 112.818 3.44247 -2.15055 0
M  V30 1260 H 113.584 2.21984 -4.31217 0
M  V30 1261 H 109.463 3.07566 -3.43401 0
M  V30 1262 H 113.007 1.95067 -6.69772 0
M  V30 1263 H 108.904 2.81006 -5.81125 0
M  V30 1264 H 109.672 2.35937 -7.83757 0
M  V30 1265 N 112.336 1.25143 0.95797 0
M  V30 1266 C 113.286 1.01924 2.0395 0
M  V30 1267 C 114.27 -0.0427175 1.60843 0
M  V30 1268 O 115.462 0.17221 1.7616 0
M  V30 1269 C 112.591 0.636373 3.3735 0
M  V30 1270 C 111.677 1.73492 3.8699 0
M  V30 1271 N 112.068 2.96945 4.0946 0
M  V30 1272 C 110.366 1.61467 4.15746 0
M  V30 1273 C 111.067 3.68228 4.50315 0
M  V30 1274 N 110.043 2.95833 4.56053 0
M  V30 1275 H 113.845 1.95653 2.19311 0
M  V30 1276 H 111.359 1.15413 1.14253 0
M  V30 1277 H 113.356 0.451233 4.14451 0
M  V30 1278 H 112.016 -0.293621 3.2337 0
M  V30 1279 H 113.027 3.33025 3.96629 0
M  V30 1280 H 109.704 0.753394 4.10646 0
M  V30 1281 H 111.094 4.74178 4.76031 0
M  V30 1282 N 113.814 -1.1601 1.06675 0
M  V30 1283 C 114.724 -2.24156 0.692179 0
M  V30 1284 C 115.74 -1.71507 -0.293513 0
M  V30 1285 O 116.916 -2.009 -0.141861 0
M  V30 1286 C 113.981 -3.46587 0.0884131 0
M  V30 1287 C 113.042 -4.14257 1.12646 0
M  V30 1288 C 112.275 -5.30844 0.551416 0
M  V30 1289 O 112.498 -5.66858 -0.634656 0
M  V30 1290 O 111.432 -5.87848 1.29298 0
M  V30 1291 H 115.258 -2.58513 1.59388 0
M  V30 1292 H 112.843 -1.23599 0.83926 0
M  V30 1293 H 114.725 -4.20679 -0.246361 0
M  V30 1294 H 113.4 -3.13994 -0.786712 0
M  V30 1295 H 112.307 -3.42118 1.51348 0
M  V30 1296 H 113.64 -4.50914 1.97325 0
M  V30 1297 N 115.292 -0.849877 -1.32721 0
M  V30 1298 C 116.225 -0.235903 -2.26977 0
M  V30 1299 C 117.203 0.623355 -1.50177 0
M  V30 1300 O 118.387 0.581207 -1.79316 0
M  V30 1301 C 115.514 0.667712 -3.32053 0
M  V30 1302 C 114.56 -0.11753 -4.26338 0
M  V30 1303 S 115.393 -1.48277 -5.14562 0
M  V30 1304 C 116.549 -0.584741 -6.23163 0
M  V30 1305 H 116.782 -1.03495 -2.78704 0
M  V30 1306 H 114.315 -0.64724 -1.40179 0
M  V30 1307 H 116.273 1.18343 -3.93072 0
M  V30 1308 H 114.934 1.44052 -2.7912 0
M  V30 1309 H 114.127 0.57051 -5.00761 0
M  V30 1310 H 113.729 -0.564668 -3.69713 0
M  V30 1311 H 116.021 0.212968 -6.77165 0
M  V30 1312 H 116.964 -1.29947 -6.96074 0
M  V30 1313 H 117.372 -0.161202 -5.6427 0
M  V30 1314 N 116.77 1.45427 -0.607355 0
M  V30 1315 C 117.7 2.3329 0.0989352 0
M  V30 1316 C 118.681 1.46816 0.859007 0
M  V30 1317 O 119.866 1.75588 0.829604 0
M  V30 1318 C 116.996 3.29518 1.09705 0
M  V30 1319 C 115.95 4.25626 0.450206 0
M  V30 1320 C 115.276 5.11542 1.55655 0
M  V30 1321 C 116.576 5.18505 -0.628455 0
M  V30 1322 H 118.27 2.92595 -0.634716 0
M  V30 1323 H 115.816 1.40696 -0.306681 0
M  V30 1324 H 117.769 3.89855 1.59971 0
M  V30 1325 H 116.493 2.68372 1.86129 0
M  V30 1326 H 115.152 3.66586 -0.0315886 0
M  V30 1327 H 114.8 4.46765 2.31107 0
M  V30 1328 H 114.5 5.76647 1.12925 0
M  V30 1329 H 116.024 5.74748 2.06148 0
M  V30 1330 H 117.438 5.72916 -0.209877 0
M  V30 1331 H 115.835 5.92085 -0.977489 0
M  V30 1332 H 116.905 4.60948 -1.50514 0
M  V30 1333 N 118.248 0.346503 1.53744 0
M  V30 1334 C 119.211 -0.496439 2.23759 0
M  V30 1335 C 120.211 -1.0252 1.2388 0
M  V30 1336 O 121.401 -0.913974 1.48297 0
M  V30 1337 C 118.533 -1.69187 2.95954 0
M  V30 1338 H 119.726 0.115952 2.99676 0
M  V30 1339 H 117.279 0.0978939 1.55993 0
M  V30 1340 H 118.014 -2.34288 2.24231 0
M  V30 1341 H 117.799 -1.31989 3.69217 0
M  V30 1342 H 119.289 -2.28969 3.49232 0
M  V30 1343 N 119.726 -1.57421 0.075193 0
M  V30 1344 C 120.676 -2.09441 -0.901025 0
M  V30 1345 C 121.66 -1.00486 -1.25663 0
M  V30 1346 O 122.852 -1.2679 -1.23504 0
M  V30 1347 C 119.981 -2.66233 -2.16737 0
M  V30 1348 C 119.067 -3.82198 -1.83808 0
M  V30 1349 N 119.458 -4.91028 -1.21345 0
M  V30 1350 C 117.756 -3.91558 -2.13538 0
M  V30 1351 C 118.457 -5.71852 -1.06585 0
M  V30 1352 N 117.433 -5.20233 -1.57667 0
M  V30 1353 H 121.235 -2.90972 -0.413815 0
M  V30 1354 H 118.749 -1.6189 -0.128601 0
M  V30 1355 H 120.746 -3.01819 -2.87595 0
M  V30 1356 H 119.406 -1.8615 -2.66042 0
M  V30 1357 H 120.417 -5.10323 -0.88268 0
M  V30 1358 H 117.094 -3.22454 -2.65197 0
M  V30 1359 H 118.484 -6.69401 -0.578933 0
M  V30 1360 N 121.204 0.198386 -1.56346 0
M  V30 1361 C 122.45 0.920648 -1.80698 0
M  V30 1362 C 122.783 1.83045 -0.648697 0
M  V30 1363 O 122.058 1.91308 0.350925 0
M  V30 1364 C 122.341 1.73971 -3.15287 0
M  V30 1365 C 122.194 0.85485 -4.41602 0
M  V30 1366 C 123.513 2.71296 -3.46535 0
M  V30 1367 H 120.632 0.333261 -0.657348 0
M  V30 1368 H 123.274 0.188198 -1.89066 0
M  V30 1369 H 121.424 2.36416 -3.08285 0
M  V30 1370 H 123.096 0.245362 -4.60647 0
M  V30 1371 H 121.339 0.161398 -4.335 0
M  V30 1372 H 122.01 1.46286 -5.32264 0
M  V30 1373 H 124.486 2.18983 -3.53816 0
M  V30 1374 H 123.362 3.2569 -4.41834 0
M  V30 1375 H 123.623 3.5018 -2.69864 0
M  V30 1376 N 122.682 1.50554 0.465978 0
M  V30 1377 C 124.093 1.54599 1.04671 0
M  V30 1378 C 124.444 0.352488 1.93008 0
M  V30 1379 O 123.569 -0.534044 2.09707 0
M  V30 1380 C 124.164 2.80166 1.90505 0
M  V30 1381 C 122.723 2.86876 2.43678 0
M  V30 1382 C 121.87 2.48947 1.22151 0
M  V30 1383 H 124.821 1.56744 0.248384 0
M  V30 1384 H 124.842 2.62311 2.75633 0
M  V30 1385 H 124.354 3.67013 1.26186 0
M  V30 1386 H 122.455 2.04393 3.11536 0
M  V30 1387 H 122.568 3.89885 2.78436 0
M  V30 1388 H 120.932 2.01498 1.5579 0
M  V30 1389 H 121.715 3.38107 0.594866 0
M  V30 1390 N 124.16 -0.719506 1.40217 0
M  V30 1391 C 125.093 -1.84298 1.34571 0
M  V30 1392 C 126.071 -1.61149 0.216741 0
M  V30 1393 O 127.255 -1.84212 0.399756 0
M  V30 1394 C 124.382 -3.20568 1.09335 0
M  V30 1395 C 123.428 -3.62551 2.24631 0
M  V30 1396 S 124.261 -3.7012 3.87004 0
M  V30 1397 C 125.417 -5.09154 3.64024 0
M  V30 1398 H 125.65 -1.88807 2.2965 0
M  V30 1399 H 123.183 -0.885901 1.26456 0
M  V30 1400 H 125.141 -3.99246 0.954602 0
M  V30 1401 H 123.802 -3.13696 0.159164 0
M  V30 1402 H 122.995 -4.61483 2.02606 0
M  V30 1403 H 122.597 -2.91119 2.34789 0
M  V30 1404 H 124.889 -5.95955 3.22248 0
M  V30 1405 H 125.832 -5.36213 4.62473 0
M  V30 1406 H 126.24 -4.79562 2.97793 0
M  V30 1407 N 125.638 -1.25649 -0.95132 0
M  V30 1408 C 126.885 -1.10594 -1.69633 0
M  V30 1409 C 127.213 0.352515 -1.91279 0
M  V30 1410 O 126.468 1.27601 -1.4838 0
M  V30 1411 C 126.767 -1.80909 -3.08231 0
M  V30 1412 C 126.433 -3.30825 -3.06375 0
M  V30 1413 C 125.095 -3.71722 -3.05576 0
M  V30 1414 C 127.447 -4.26589 -2.99452 0
M  V30 1415 C 124.775 -5.06788 -2.95606 0
M  V30 1416 C 127.127 -5.61683 -2.91024 0
M  V30 1417 C 125.791 -6.01904 -2.88562 0
M  V30 1418 H 125.061 -0.404691 -0.620731 0
M  V30 1419 H 127.708 -1.55964 -1.11119 0
M  V30 1420 H 126.013 -1.27979 -3.70309 0
M  V30 1421 H 127.71 -1.6671 -3.64704 0
M  V30 1422 H 124.3 -2.98287 -3.07771 0
M  V30 1423 H 128.484 -3.95982 -2.99185 0
M  V30 1424 H 123.74 -5.37126 -2.92071 0
M  V30 1425 H 127.914 -6.35578 -2.84629 0
M  V30 1426 H 125.541 -7.06521 -2.80593 0
M  V30 1427 N 127.117 1.15442 -1.07289 0
M  V30 1428 C 128.047 2.22312 -0.714107 0
M  V30 1429 C 129.028 1.67467 0.298155 0
M  V30 1430 O 130.213 1.93445 0.171048 0
M  V30 1431 C 127.343 3.47124 -0.110448 0
M  V30 1432 C 126.297 4.14926 -1.04979 0
M  V30 1433 C 125.623 5.33807 -0.308924 0
M  V30 1434 C 126.923 4.64762 -2.38314 0
M  V30 1435 H 128.617 2.5258 -1.6076 0
M  V30 1436 H 126.163 1.21404 -0.77441 0
M  V30 1437 H 128.116 4.21124 0.152482 0
M  V30 1438 H 126.84 3.16187 0.81812 0
M  V30 1439 H 125.499 3.42866 -1.29764 0
M  V30 1440 H 125.147 4.99126 0.623084 0
M  V30 1441 H 124.847 5.80113 -0.935036 0
M  V30 1442 H 126.371 6.10576 -0.0537771 0
M  V30 1443 H 127.785 5.30292 -2.1786 0
M  V30 1444 H 126.182 5.21728 -2.96514 0
M  V30 1445 H 127.252 3.80434 -3.00663 0
M  V30 1446 N 128.595 0.856903 1.32268 0
M  V30 1447 C 129.545 0.274899 2.26337 0
M  V30 1448 C 130.529 -0.580543 1.50062 0
M  V30 1449 O 131.721 -0.429559 1.71708 0
M  V30 1450 C 128.85 -0.533841 3.39124 0
M  V30 1451 C 127.936 0.334114 4.22782 0
M  V30 1452 N 128.327 1.42143 4.85416 0
M  V30 1453 C 126.625 0.124256 4.45827 0
M  V30 1454 C 127.326 1.95559 5.47843 0
M  V30 1455 N 126.302 1.25444 5.28928 0
M  V30 1456 H 130.104 1.10612 2.72291 0
M  V30 1457 H 127.618 0.703258 1.46383 0
M  V30 1458 H 129.615 -0.96722 4.05525 0
M  V30 1459 H 128.275 -1.36283 2.94715 0
M  V30 1460 H 129.286 1.80436 4.85451 0
M  V30 1461 H 125.963 -0.669837 4.12092 0
M  V30 1462 H 127.353 2.86714 6.07655 0
M  V30 1463 N 130.073 -1.45103 0.615059 0
M  V30 1464 C 131.484 -1.85654 0.197383 0
M  V30 1465 C 131.835 -1.51433 -1.24749 0
M  V30 1466 O 130.96 -0.944608 -1.94695 0
M  V30 1467 C 131.555 -3.36972 0.351448 0
M  V30 1468 C 130.114 -3.76398 -0.011593 0
M  V30 1469 C 129.261 -2.69024 0.672394 0
M  V30 1470 H 132.212 -1.35797 0.821263 0
M  V30 1471 H 132.233 -3.78239 -0.414227 0
M  V30 1472 H 131.745 -3.61847 1.40314 0
M  V30 1473 H 129.846 -3.5714 -1.06217 0
M  V30 1474 H 129.959 -4.77532 0.387265 0
M  V30 1475 H 128.323 -2.54465 0.109284 0
M  V30 1476 H 129.106 -2.96735 1.72636 0
M  V30 1477 N 131.551 -0.354651 -1.53558 0
M  V30 1478 C 132.499 0.512195 -2.26891 0
M  V30 1479 C 133.493 1.09263 -1.29452 0
M  V30 1480 O 134.699 1.03709 -1.47121 0
M  V30 1481 H 131.074 0.183878 -0.729173 0
M  V30 1482 H 133.045 -0.128202 -2.98124 0
M  V30 1483 C 131.794 1.64563 -3.06291 0
M  V30 1484 H 131.117 1.20829 -3.81104 0
M  V30 1485 H 132.557 2.22711 -3.60799 0
M  V30 1486 C 131.016 2.58158 -2.16462 0
M  V30 1487 O 131.546 3.60695 -1.76811 0
M  V30 1488 N 129.752 2.27096 -1.81317 0
M  V30 1489 H 129.299 1.43751 -2.1376 0
M  V30 1490 H 129.257 2.89975 -1.21498 0
M  V30 1491 N 133.029 1.57378 -0.0835403 0
M  V30 1492 C 134.44 1.81261 0.447358 0
M  V30 1493 C 134.791 0.998331 1.68902 0
M  V30 1494 O 133.916 0.224282 2.15235 0
M  V30 1495 C 134.511 3.28767 0.818386 0
M  V30 1496 C 133.07 3.53455 1.29409 0
M  V30 1497 C 132.217 2.75831 0.285024 0
M  V30 1498 H 135.168 1.5566 -0.309115 0
M  V30 1499 H 135.189 3.41459 1.67887 0
M  V30 1500 H 134.701 3.88006 -0.0855019 0
M  V30 1501 H 132.802 2.99534 2.21608 0
M  V30 1502 H 132.915 4.62128 1.2639 0
M  V30 1503 H 131.279 2.42947 0.764767 0
M  V30 1504 H 132.062 3.37813 -0.611341 0
M  V30 1505 N 134.507 -0.190092 1.56449 0
M  V30 1506 C 135.454 -1.23557 1.94942 0
M  V30 1507 C 136.424 -1.44972 0.810696 0
M  V30 1508 O 137.609 -1.58023 1.06927 0
M  V30 1509 C 134.749 -2.57416 2.2985 0
M  V30 1510 C 133.862 -2.43537 3.5681 0
M  V30 1511 C 132.997 -3.70134 3.81017 0
M  V30 1512 C 132.036 -3.51109 5.01387 0
M  V30 1513 N 131.173 -4.6973 5.21822 0
M  V30 1514 H 136.013 -0.900304 2.84075 0
M  V30 1515 H 133.55 -0.43318 1.40577 0
M  V30 1516 H 135.508 -3.35409 2.48106 0
M  V30 1517 H 134.138 -2.88975 1.43852 0
M  V30 1518 H 133.19 -1.56816 3.46573 0
M  V30 1519 H 134.502 -2.25415 4.4496 0
M  V30 1520 H 133.656 -4.56566 3.9954 0
M  V30 1521 H 132.395 -3.91215 2.91207 0
M  V30 1522 H 131.4 -2.63063 4.82782 0
M  V30 1523 H 132.625 -3.31468 5.9271 0
M  V30 1524 H 130.571 -4.91065 4.34961 0
M  V30 1525 H 130.488 -4.54452 6.0416 0
M  V30 1526 H 131.756 -5.57499 5.44808 0
M  V30 1527 N 135.985 -1.50799 -0.457987 0
M  V30 1528 C 136.932 -1.70617 -1.5543 0
M  V30 1529 C 137.902 -0.547562 -1.56815 0
M  V30 1530 O 139.087 -0.779647 -1.74144 0
M  V30 1531 C 136.227 -1.81831 -2.93311 0
M  V30 1532 C 135.34 -3.09278 -3.01615 0
M  V30 1533 C 134.475 -3.11209 -4.30491 0
M  V30 1534 C 133.514 -4.33055 -4.32585 0
M  V30 1535 N 132.651 -4.32652 -5.52952 0
M  V30 1536 H 137.491 -2.64207 -1.37836 0
M  V30 1537 H 135.028 -1.30959 -0.669937 0
M  V30 1538 H 136.986 -1.86314 -3.73287 0
M  V30 1539 H 135.616 -0.916685 -3.0951 0
M  V30 1540 H 134.668 -3.14203 -2.1443 0
M  V30 1541 H 135.98 -3.99233 -2.99022 0
M  V30 1542 H 135.134 -3.14494 -5.18824 0
M  V30 1543 H 133.873 -2.19106 -4.35711 0
M  V30 1544 H 132.878 -4.29969 -3.42647 0
M  V30 1545 H 134.103 -5.264 -4.29046 0
M  V30 1546 H 132.049 -3.43409 -5.58933 0
M  V30 1547 H 131.966 -5.16392 -5.52155 0
M  V30 1548 H 133.234 -4.40101 -6.43375 0
M  V30 1549 N 137.463 0.71206 -1.40597 0
M  V30 1550 C 138.709 1.47416 -1.39271 0
M  V30 1551 C 139.042 1.942 0.00388791 0
M  V30 1552 O 138.317 1.68403 0.973179 0
M  V30 1553 C 138.6 2.69774 -2.38525 0
M  V30 1554 C 138.453 2.28861 -3.87224 0
M  V30 1555 C 139.772 3.71939 -2.35264 0
M  V30 1556 H 136.891 0.534713 -0.5072 0
M  V30 1557 H 139.533 0.812375 -1.71757 0
M  V30 1558 H 137.683 3.26238 -2.10953 0
M  V30 1559 H 139.355 1.77852 -4.25636 0
M  V30 1560 H 137.598 1.60824 -4.02887 0
M  V30 1561 H 138.269 3.16584 -4.52193 0
M  V30 1562 H 140.745 3.25113 -2.59694 0
M  V30 1563 H 139.621 4.55186 -3.06753 0
M  V30 1564 H 139.882 4.20484 -1.36549 0
M  V30 1565 N 138.941 1.26152 0.944643 0
M  V30 1566 C 139.871 1.09902 2.06019 0
M  V30 1567 C 140.852 0.00519538 1.70099 0
M  V30 1568 O 142.037 0.176583 1.93396 0
M  V30 1569 C 139.167 0.727562 3.39594 0
M  V30 1570 C 138.121 1.77274 3.89561 0
M  V30 1571 C 137.447 1.25569 5.19747 0
M  V30 1572 C 138.747 3.17357 4.14827 0
M  V30 1573 H 140.441 2.03217 2.19871 0
M  V30 1574 H 137.987 0.978452 1.05652 0
M  V30 1575 H 139.94 0.600777 4.17095 0
M  V30 1576 H 138.664 -0.241287 3.25707 0
M  V30 1577 H 137.323 1.88814 3.14237 0
M  V30 1578 H 136.971 0.276783 5.02238 0
M  V30 1579 H 136.671 1.95433 5.54148 0
M  V30 1580 H 138.195 1.1415 5.99835 0
M  V30 1581 H 139.609 3.08914 4.82954 0
M  V30 1582 H 138.006 3.84781 4.60504 0
M  V30 1583 H 139.076 3.63673 3.20734 0
M  V30 1584 N 140.419 -1.14872 1.07899 0
M  V30 1585 C 141.668 -1.85135 0.800499 0
M  V30 1586 C 141.981 -1.83547 -0.676014 0
M  V30 1587 O 143.187 -2.49548 -1.06948 0
M  V30 1588 C 141.643 -3.3231 1.38197 0
M  V30 1589 C 141.251 -3.42329 2.8899 0
M  V30 1590 C 142.995 -4.0772 1.18174 0
M  V30 1591 C 140.902 -4.83684 3.403 0
M  V30 1592 H 139.832 -0.693563 0.29578 0
M  V30 1593 H 142.483 -1.29532 1.29976 0
M  V30 1594 H 140.865 -3.87618 0.810431 0
M  V30 1595 H 142.039 -2.97097 3.52236 0
M  V30 1596 H 140.354 -2.80369 3.07867 0
M  V30 1597 H 142.951 -5.12049 1.5398 0
M  V30 1598 H 143.294 -4.16124 0.12117 0
M  V30 1599 H 143.827 -3.58696 1.71994 0
M  V30 1600 H 140.566 -4.80465 4.45907 0
M  V30 1601 H 140.086 -5.29474 2.81811 0
M  V30 1602 H 141.765 -5.52558 3.36584 0
M  V30 1603 N 141.898 -0.863906 -1.31812 0
M  V30 1604 C 143.147 -0.46801 -1.96195 0
M  V30 1605 C 143.46 0.983474 -1.69077 0
M  V30 1606 O 144.666 1.48523 -2.27273 0
M  V30 1607 C 143.122 -0.785995 -3.51212 0
M  V30 1608 C 142.73 -2.25383 -3.87178 0
M  V30 1609 C 144.474 -0.458274 -4.22019 0
M  V30 1610 C 142.381 -2.51455 -5.3528 0
M  V30 1611 H 141.311 -0.171283 -0.734287 0
M  V30 1612 H 143.962 -1.05597 -1.50072 0
M  V30 1613 H 142.344 -0.127359 -3.95795 0
M  V30 1614 H 143.518 -2.95502 -3.53575 0
M  V30 1615 H 141.833 -2.54698 -3.2942 0
M  V30 1616 H 144.43 -0.630369 -5.30971 0
M  V30 1617 H 144.773 0.600834 -4.11941 0
M  V30 1618 H 145.306 -1.07319 -3.8305 0
M  V30 1619 H 142.045 -3.56025 -5.50387 0
M  V30 1620 H 141.565 -1.85923 -5.70257 0
M  V30 1621 H 143.244 -2.35874 -6.02472 0
M  V30 1622 N 143.376 1.44774 -0.622745 0
M  V30 1623 C 144.624 2.01721 -0.123655 0
M  V30 1624 C 144.945 1.49172 1.25589 0
M  V30 1625 O 144.215 0.691974 1.83272 0
M  V30 1626 H 142.795 0.745777 -0.0427225 0
M  V30 1627 H 145.457 1.77382 -0.807559 0
M  V30 1628 H 144.553 3.11984 -0.0849534 0
M  V30 1629 N 144.854 0.36279 1.53368 0
M  V30 1630 C 146.102 -0.227326 2.00817 0
M  V30 1631 C 146.423 -1.49511 1.25186 0
M  V30 1632 O 145.693 -1.92482 0.364348 0
M  V30 1633 H 144.273 -0.0869923 0.741917 0
M  V30 1634 H 146.935 0.488381 1.88682 0
M  V30 1635 H 146.031 -0.456273 3.08747 0
M  V30 1636 N 146.332 -1.57332 0.0918853 0
M  V30 1637 C 147.58 -1.93853 -0.571446 0
M  V30 1638 C 147.901 -0.974212 -1.6892 0
M  V30 1639 O 147.171 -0.0257254 -1.95883 0
M  V30 1640 H 145.751 -0.715666 -0.214082 0
M  V30 1641 H 148.413 -1.94287 0.154464 0
M  V30 1642 H 147.509 -2.96191 -0.983729 0
M  V30 1643 N 147.81 0.181792 -1.56548 0
M  V30 1644 C 149.087 0.926765 -1.72251 0
M  V30 1645 C 149.467 2.00831 -0.650386 0
M  V30 1646 O 148.815 2.26008 0.336521 0
M  V30 1647 C 149.025 1.50106 -3.1507 0
M  V30 1648 C 150.373 1.97805 -3.75711 0
M  V30 1649 O 151.397 1.59922 -3.18282 0
M  V30 1650 O 150.256 2.67555 -4.76525 0
M  V30 1651 H 147.35 0.435506 -0.703039 0
M  V30 1652 H 149.896 0.170443 -1.68842 0
M  V30 1653 H 148.668 0.72212 -3.84579 0
M  V30 1654 H 148.291 2.32186 -3.22763 0
M  V30 1655 N 149.288 1.51039 0.449983 0
M  V30 1656 C 150.536 1.62759 1.19808 0
M  V30 1657 C 150.857 0.339981 1.92013 0
M  V30 1658 O 150.127 -0.643606 1.85026 0
M  V30 1659 H 148.707 0.599811 0.445237 0
M  V30 1660 H 151.369 1.87914 0.517138 0
M  V30 1661 H 150.465 2.44911 1.93455 0
M  V30 1662 N 150.766 -0.704594 1.40972 0
M  V30 1663 C 152.014 -1.46169 1.39568 0
M  V30 1664 C 152.335 -1.95 0.00253745 0
M  V30 1665 O 151.605 -1.71095 -0.954114 0
M  V30 1666 H 150.185 -0.542326 0.513704 0
M  V30 1667 H 152.847 -0.834553 1.76128 0
M  V30 1668 H 151.943 -2.32922 2.07735 0
M  V30 1669 N 152.244 -1.26651 -0.937939 0
M  V30 1670 C 153.472 -1.15173 -1.7188 0
M  V30 1671 C 153.887 0.292668 -1.86518 0
M  V30 1672 O 153.244 1.20014 -1.37488 0
M  V30 1673 C 153.295 -1.81925 -3.12387 0
M  V30 1674 O 153.016 -3.2072 -2.98446 0
M  V30 1675 C 154.517 -1.76442 -4.06673 0
M  V30 1676 H 151.737 -0.400911 -0.538063 0
M  V30 1677 H 154.281 -1.67332 -1.1756 0
M  V30 1678 H 152.436 -1.33696 -3.63599 0
M  V30 1679 H 152.85 -3.53802 -3.872 0
M  V30 1680 H 154.324 -2.27781 -5.02812 0
M  V30 1681 H 154.801 -0.731608 -4.33064 0
M  V30 1682 H 155.407 -2.24238 -3.61382 0
M  V30 1683 N 153.722 1.14298 -1.08507 0
M  V30 1684 C 154.652 2.21542 -0.737646 0
M  V30 1685 C 155.633 1.67773 0.280377 0
M  V30 1686 O 156.818 1.93616 0.150521 0
M  V30 1687 C 153.948 3.46988 -0.147259 0
M  V30 1688 C 152.902 4.13789 -1.09374 0
M  V30 1689 C 152.228 5.33449 -0.365524 0
M  V30 1690 C 153.528 4.62208 -2.4323 0
M  V30 1691 H 155.222 2.5086 -1.6343 0
M  V30 1692 H 152.768 1.20576 -0.787243 0
M  V30 1693 H 154.721 4.21262 0.107808 0
M  V30 1694 H 153.445 3.17037 0.784538 0
M  V30 1695 H 152.104 3.4147 -1.33393 0
M  V30 1696 H 151.752 4.99759 0.57011 0
M  V30 1697 H 151.452 5.79088 -0.996512 0
M  V30 1698 H 152.976 6.10485 -0.118534 0
M  V30 1699 H 154.39 5.27952 -2.23472 0
M  V30 1700 H 152.787 5.18553 -3.02031 0
M  V30 1701 H 153.857 3.77224 -3.04681 0
M  V30 1702 N 155.201 0.870884 1.31352 0
M  V30 1703 C 156.617 0.562932 1.49343 0
M  V30 1704 C 156.817 -0.902725 1.80148 0
M  V30 1705 O 155.873 -1.68484 1.88067 0
M  V30 1706 C 157.186 1.46393 2.62659 0
M  V30 1707 C 158.734 1.46607 2.76542 0
M  V30 1708 C 159.209 2.35266 3.92955 0
M  V30 1709 N 160.7 2.33151 4.00243 0
M  V30 1710 C 161.435 2.98471 4.89594 0
M  V30 1711 N 160.931 3.72964 5.8384 0
M  V30 1712 N 162.724 2.87775 4.82848 0
M  V30 1713 H 154.875 1.81923 1.09626 0
M  V30 1714 H 157.138 0.777934 0.541777 0
M  V30 1715 H 156.844 2.50689 2.46674 0
M  V30 1716 H 156.718 1.16314 3.58819 0
M  V30 1717 H 159.105 0.43069 2.9194 0
M  V30 1718 H 159.186 1.8071 1.81046 0
M  V30 1719 H 158.83 3.38881 3.78315 0
M  V30 1720 H 158.76 1.98487 4.87761 0
M  V30 1721 H 161.251 1.79006 3.32814 0
M  V30 1722 H 161.564 4.19932 6.4875 0
M  V30 1723 H 159.909 3.77073 5.83816 0
M  V30 1724 H 163.1 2.29116 4.08195 0
M  V30 1725 H 163.273 3.38961 5.52277 0
M  V30 1726 N 156.679 -1.44442 0.630414 0
M  V30 1727 C 157.589 -2.34476 -0.0761693 0
M  V30 1728 C 158.605 -1.52576 -0.836449 0
M  V30 1729 O 159.781 -1.85307 -0.788874 0
M  V30 1730 C 156.846 -3.30545 -1.04599 0
M  V30 1731 C 155.907 -4.28352 -0.28516 0
M  V30 1732 C 155.14 -5.19831 -1.20878 0
M  V30 1733 O 155.363 -5.15223 -2.44747 0
M  V30 1734 O 154.297 -5.97892 -0.693491 0
M  V30 1735 H 158.123 -2.96345 0.664324 0
M  V30 1736 H 155.708 -1.44203 0.39061 0
M  V30 1737 H 157.59 -3.89681 -1.60396 0
M  V30 1738 H 156.265 -2.7121 -1.76711 0
M  V30 1739 H 155.172 -3.72764 0.315837 0
M  V30 1740 H 156.505 -4.90605 0.395924 0
M  V30 1741 N 158.157 -0.370918 -1.53173 0
M  V30 1742 C 159.403 0.217423 -2.01631 0
M  V30 1743 C 159.736 1.47983 -1.25756 0
M  V30 1744 O 159.011 1.91274 -0.352764 0
M  V30 1745 C 159.294 0.503982 -3.56556 0
M  V30 1746 C 159.147 -0.77243 -4.43118 0
M  V30 1747 C 160.466 1.30234 -4.20389 0
M  V30 1748 H 157.585 0.0775486 -0.732909 0
M  V30 1749 H 160.227 -0.496863 -1.83388 0
M  V30 1750 H 158.377 1.11248 -3.72231 0
M  V30 1751 H 160.049 -1.4098 -4.39229 0
M  V30 1752 H 158.292 -1.39167 -4.10871 0
M  V30 1753 H 158.963 -0.526815 -5.4948 0
M  V30 1754 H 161.439 0.787546 -4.08579 0
M  V30 1755 H 160.315 1.47158 -5.28806 0
M  V30 1756 H 160.576 2.31237 -3.76805 0
M  V30 1757 N 159.635 1.57281 -0.100228 0
M  V30 1758 C 160.565 2.17328 0.853857 0
M  V30 1759 C 161.546 1.10804 1.2906 0
M  V30 1760 O 162.731 1.38963 1.35657 0
M  V30 1761 C 159.861 2.75772 2.11109 0
M  V30 1762 C 158.815 3.87713 1.81279 0
M  V30 1763 C 158.141 4.32882 3.13874 0
M  V30 1764 C 159.441 5.10677 1.09574 0
M  V30 1765 H 161.135 2.97305 0.353545 0
M  V30 1766 H 158.681 1.43009 0.168612 0
M  V30 1767 H 160.634 3.16433 2.78296 0
M  V30 1768 H 159.358 1.93057 2.63432 0
M  V30 1769 H 158.017 3.476 1.16489 0
M  V30 1770 H 157.665 3.47051 3.64095 0
M  V30 1771 H 157.365 5.08358 2.94696 0
M  V30 1772 H 158.889 4.7618 3.82211 0
M  V30 1773 H 160.303 5.48474 1.66879 0
M  V30 1774 H 158.7 5.91615 1.00557 0
M  V30 1775 H 159.77 4.84835 0.0793299 0
M  V30 1776 N 161.113 -0.173488 1.56642 0
M  V30 1777 C 162.06 -1.21482 1.96242 0
M  V30 1778 C 163.03 -1.44104 0.826027 0
M  V30 1779 O 164.215 -1.5688 1.08597 0
M  V30 1780 C 161.355 -2.54964 2.32567 0
M  V30 1781 C 160.468 -2.39739 3.59373 0
M  V30 1782 C 159.603 -3.66072 3.84921 0
M  V30 1783 C 158.642 -3.45771 5.05083 0
M  V30 1784 N 157.779 -4.64169 5.26775 0
M  V30 1785 H 162.619 -0.870123 2.85014 0
M  V30 1786 H 160.156 -0.418245 1.41029 0
M  V30 1787 H 162.114 -3.32758 2.5165 0
M  V30 1788 H 160.744 -2.87433 1.46908 0
M  V30 1789 H 159.796 -1.53131 3.48217 0
M  V30 1790 H 161.108 -2.20683 4.47326 0
M  V30 1791 H 160.262 -4.52303 4.0436 0
M  V30 1792 H 159.001 -3.88105 2.9534 0
M  V30 1793 H 158.006 -2.57927 4.85545 0
M  V30 1794 H 159.231 -3.25163 5.96193 0
M  V30 1795 H 157.177 -4.86425 4.40144 0
M  V30 1796 H 157.094 -4.48019 6.08946 0
M  V30 1797 H 158.362 -5.51689 5.5069 0
M  V30 1798 N 162.591 -1.51276 -0.441967 0
M  V30 1799 C 163.541 -1.6864 -1.53442 0
M  V30 1800 C 164.525 -0.540444 -1.51552 0
M  V30 1801 O 165.717 -0.796157 -1.58083 0
M  V30 1802 C 162.846 -1.8106 -2.91672 0
M  V30 1803 C 161.932 -3.01424 -2.98336 0
M  V30 1804 N 162.323 -4.2467 -2.74752 0
M  V30 1805 C 160.621 -3.00584 -3.29493 0
M  V30 1806 C 161.322 -5.05891 -2.87139 0
M  V30 1807 N 160.298 -4.40442 -3.18609 0
M  V30 1808 H 164.1 -2.61598 -1.33954 0
M  V30 1809 H 161.614 -1.4886 -0.6492 0
M  V30 1810 H 163.611 -1.91609 -3.70259 0
M  V30 1811 H 162.271 -0.892795 -3.12185 0
M  V30 1812 H 163.282 -4.53691 -2.49769 0
M  V30 1813 H 159.959 -2.18417 -3.55809 0
M  V30 1814 H 161.349 -6.13983 -2.72899 0
M  V30 1815 N 164.069 0.697108 -1.41344 0
M  V30 1816 C 165.346 1.45154 -1.31109 0
M  V30 1817 C 165.726 2.11009 0.0620449 0
M  V30 1818 O 165.074 2.01571 1.07618 0
M  V30 1819 C 165.284 2.47223 -2.46337 0
M  V30 1820 C 166.632 3.1252 -2.87431 0
M  V30 1821 O 167.656 2.57547 -2.46065 0
M  V30 1822 O 166.515 4.12083 -3.58957 0
M  V30 1823 H 163.609 0.646365 -0.515889 0
M  V30 1824 H 166.155 0.727716 -1.53305 0
M  V30 1825 H 164.927 1.97204 -3.37974 0
M  V30 1826 H 164.55 3.27116 -2.2601 0
M  V30 1827 N 165.547 1.27147 0.931209 0
M  V30 1828 C 166.772 1.16191 1.71797 0
M  V30 1829 C 167.197 -0.278004 1.86034 0
M  V30 1830 O 166.555 -1.20137 1.35782 0
M  V30 1831 C 166.603 1.84673 3.09723 0
M  V30 1832 O 165.707 1.14231 3.96264 0
M  V30 1833 H 165.048 0.404303 0.526721 0
M  V30 1834 H 167.578 1.68152 1.1656 0
M  V30 1835 H 167.588 1.91893 3.60057 0
M  V30 1836 H 166.263 2.89421 2.98677 0
M  V30 1837 H 164.84 1.15056 3.54706 0
M  V30 1838 N 167.025 -1.13721 1.09112 0
M  V30 1839 C 168.271 -1.85198 0.826414 0
M  V30 1840 C 168.604 -1.83129 -0.646319 0
M  V30 1841 O 167.879 -1.2671 -1.47563 0
M  V30 1842 C 168.162 -3.33507 1.35812 0
M  V30 1843 C 168.015 -3.44108 2.89672 0
M  V30 1844 C 169.334 -4.28838 0.989256 0
M  V30 1845 H 166.453 -0.67243 0.301675 0
M  V30 1846 H 169.095 -1.33499 1.35197 0
M  V30 1847 H 167.245 -3.77666 0.911082 0
M  V30 1848 H 168.917 -3.08684 3.428 0
M  V30 1849 H 167.16 -2.85087 3.26967 0
M  V30 1850 H 167.831 -4.48388 3.21951 0
M  V30 1851 H 170.307 -3.92734 1.37475 0
M  V30 1852 H 169.183 -5.31051 1.38838 0
M  V30 1853 H 169.444 -4.4198 -0.102924 0
M  V30 1854 N 168.503 -0.877838 -1.30888 0
M  V30 1855 C 169.413 -0.343096 -2.32078 0
M  V30 1856 C 170.429 0.551022 -1.65045 0
M  V30 1857 O 171.605 0.445854 -1.96403 0
M  V30 1858 C 168.67 0.439905 -3.43898 0
M  V30 1859 C 167.731 -0.483111 -4.26573 0
M  V30 1860 C 166.964 0.262616 -5.33053 0
M  V30 1861 O 167.187 1.48967 -5.50604 0
M  V30 1862 O 166.121 -0.383593 -6.00676 0
M  V30 1863 H 169.947 -1.18203 -2.79753 0
M  V30 1864 H 167.532 -0.64145 -1.34929 0
M  V30 1865 H 169.414 0.883504 -4.12034 0
M  V30 1866 H 168.089 1.25526 -2.98371 0
M  V30 1867 H 166.996 -0.975374 -3.61161 0
M  V30 1868 H 168.329 -1.26427 -4.75686 0
M  V30 1869 N 169.982 1.44106 -0.638065 0
M  V30 1870 C 170.929 2.30715 0.062701 0
M  V30 1871 C 171.899 1.43882 0.829883 0
M  V30 1872 O 173.084 1.72775 0.809532 0
M  V30 1873 C 170.224 3.29258 1.03358 0
M  V30 1874 C 169.337 4.31192 0.26409 0
M  V30 1875 C 168.472 5.16825 1.22741 0
M  V30 1876 C 167.511 6.10462 0.447475 0
M  V30 1877 N 166.648 6.8877 1.36161 0
M  V30 1878 H 171.488 2.90096 -0.681781 0
M  V30 1879 H 169.025 1.42925 -0.347988 0
M  V30 1880 H 170.983 3.84886 1.60992 0
M  V30 1881 H 169.613 2.71562 1.74511 0
M  V30 1882 H 168.665 3.77981 -0.428295 0
M  V30 1883 H 169.977 4.97619 -0.343052 0
M  V30 1884 H 169.131 5.77004 1.87487 0
M  V30 1885 H 167.87 4.50488 1.86847 0
M  V30 1886 H 166.875 5.49386 -0.213433 0
M  V30 1887 H 168.1 6.78837 -0.188968 0
M  V30 1888 H 166.046 6.25096 1.98975 0
M  V30 1889 H 165.963 7.51663 0.808656 0
M  V30 1890 H 167.231 7.53467 1.99769 0
M  V30 1891 N 171.46 0.379036 1.52974 0
M  V30 1892 C 172.423 -0.448865 2.24762 0
M  V30 1893 C 173.423 -0.998689 1.26027 0
M  V30 1894 O 174.613 -0.882313 1.50203 0
M  V30 1895 C 171.745 -1.62872 2.99476 0
M  V30 1896 H 172.938 0.179491 2.99362 0
M  V30 1897 H 170.491 0.13096 1.5575 0
M  V30 1898 H 171.226 -2.29479 2.29151 0
M  V30 1899 H 171.011 -1.24128 3.71934 0
M  V30 1900 H 172.501 -2.2151 3.5401 0
M  V30 1901 N 172.938 -1.57226 0.108567 0
M  V30 1902 C 174.187 -1.94008 -0.551703 0
M  V30 1903 C 174.5 -0.993442 -1.68494 0
M  V30 1904 O 175.706 -1.25551 -2.40726 0
M  V30 1905 C 174.162 -3.44763 -1.03279 0
M  V30 1906 C 173.77 -4.47943 0.0714193 0
M  V30 1907 C 175.514 -3.90483 -1.66503 0
M  V30 1908 C 173.421 -5.89865 -0.425779 0
M  V30 1909 H 172.351 -0.724206 -0.209863 0
M  V30 1910 H 175.002 -1.82547 0.186741 0
M  V30 1911 H 173.384 -3.51422 -1.82533 0
M  V30 1912 H 174.558 -4.52942 0.847365 0
M  V30 1913 H 172.873 -4.11913 0.609669 0
M  V30 1914 H 175.47 -4.93925 -2.04798 0
M  V30 1915 H 175.813 -3.29877 -2.53942 0
M  V30 1916 H 176.346 -3.86581 -0.938074 0
M  V30 1917 H 173.085 -6.54202 0.412316 0
M  V30 1918 H 172.605 -5.88309 -1.16843 0
M  V30 1919 H 174.284 -6.40844 -0.890397 0
M  V30 1920 N 174.416 0.165178 -1.56732 0
M  V30 1921 C 175.346 1.20651 -1.99914 0
M  V30 1922 C 176.327 1.45827 -0.875705 0
M  V30 1923 O 177.512 1.57057 -1.14223 0
M  V30 1924 C 174.642 2.54401 -2.36427 0
M  V30 1925 C 173.596 2.43782 -3.51787 0
M  V30 1926 C 172.922 3.82078 -3.7406 0
M  V30 1927 C 174.222 1.93732 -4.85041 0
M  V30 1928 H 175.916 0.847534 -2.87154 0
M  V30 1929 H 173.462 0.40625 -1.38151 0
M  V30 1930 H 175.415 3.27458 -2.65234 0
M  V30 1931 H 174.139 2.92098 -1.46103 0
M  V30 1932 H 172.798 1.73178 -3.23117 0
M  V30 1933 H 172.446 4.17179 -2.81017 0
M  V30 1934 H 172.146 3.7584 -4.51684 0
M  V30 1935 H 173.67 4.56712 -4.05274 0
M  V30 1936 H 175.084 2.56569 -5.12684 0
M  V30 1937 H 173.481 1.98428 -5.66345 0
M  V30 1938 H 174.551 0.891962 -4.76626 0
M  V30 1939 N 175.894 1.51508 0.433938 0
M  V30 1940 C 177.134 1.66006 1.19253 0
M  V30 1941 C 177.498 0.369868 1.88404 0
M  V30 1942 O 178.699 0.39066 2.65946 0
M  V30 1943 C 176.97 2.83229 2.17981 0
M  V30 1944 S 178.529 3.18075 3.02281 0
M  V30 1945 H 175.347 0.584821 0.404358 0
M  V30 1946 H 177.949 1.89425 0.48357 0
M  V30 1947 H 176.653 3.75407 1.65824 0
M  V30 1948 H 176.184 2.6201 2.93453 0
M  V30 1949 H 178.199 2.64772 4.19655 0
M  V30 1950 N 177.372 -0.689602 1.41712 0
M  V30 1951 C 178.282 -1.83314 1.46401 0
M  V30 1952 C 179.298 -1.7036 0.35405 0
M  V30 1953 O 180.474 -1.92171 0.602692 0
M  V30 1954 C 177.539 -3.19344 1.34982 0
M  V30 1955 C 176.6 -3.44363 2.56344 0
M  V30 1956 C 175.833 -4.73904 2.45461 0
M  V30 1957 O 176.056 -5.508 1.48241 0
M  V30 1958 O 174.99 -4.99839 3.35328 0
M  V30 1959 H 178.816 -1.82314 2.42889 0
M  V30 1960 H 176.401 -0.843438 1.23315 0
M  V30 1961 H 178.283 -4.00547 1.3092 0
M  V30 1962 H 176.958 -3.21014 0.41612 0
M  V30 1963 H 175.865 -2.63067 2.65982 0
M  V30 1964 H 177.198 -3.47512 3.48563 0
M  V30 1965 N 178.85 -1.27639 -0.924453 0
M  V30 1966 C 180.096 -1.14336 -1.67497 0
M  V30 1967 C 180.429 0.309465 -1.91718 0
M  V30 1968 O 179.704 1.22608 -1.50989 0
M  V30 1969 C 179.987 -1.93096 -3.0395 0
M  V30 1970 C 179.84 -3.46381 -2.8695 0
M  V30 1971 C 181.159 -1.73798 -4.0433 0
M  V30 1972 H 178.278 -0.416728 -0.607871 0
M  V30 1973 H 180.92 -1.56832 -1.07256 0
M  V30 1974 H 179.07 -1.56982 -3.55372 0
M  V30 1975 H 180.742 -3.92343 -2.42621 0
M  V30 1976 H 178.985 -3.72557 -2.22225 0
M  V30 1977 H 179.656 -3.96735 -3.83804 0
M  V30 1978 H 182.132 -2.05293 -3.61931 0
M  V30 1979 H 181.008 -2.31294 -4.97789 0
M  V30 1980 H 181.269 -0.686725 -4.36734 0
M  V30 1981 N 180.328 1.1314 -1.09713 0
M  V30 1982 C 181.605 1.80762 -0.747302 0
M  V30 1983 C 181.985 1.96663 0.767265 0
M  V30 1984 O 181.333 1.53706 1.69076 0
M  V30 1985 C 181.543 3.15606 -1.48975 0
M  V30 1986 C 182.891 3.90914 -1.65746 0
M  V30 1987 O 183.915 3.25239 -1.45251 0
M  V30 1988 O 182.774 5.08718 -1.9967 0
M  V30 1989 H 179.868 0.782103 -0.268782 0
M  V30 1990 H 182.414 1.20041 -1.19951 0
M  V30 1991 H 181.186 2.99278 -2.52088 0
M  V30 1992 H 180.809 3.84029 -1.02991 0
M  V30 1993 N 181.806 0.884767 1.30421 0
M  V30 1994 C 183.054 0.502112 1.95763 0
M  V30 1995 C 183.375 -0.951815 1.70192 0
M  V30 1996 O 182.645 -1.6692 1.0254 0
M  V30 1997 H 181.225 0.182694 0.724315 0
M  V30 1998 H 183.887 1.1278 1.58955 0
M  V30 1999 H 182.983 0.672188 3.04775 0
M  V30 2000 N 183.284 -1.43765 0.645699 0
M  V30 2001 C 184.214 -2.33471 -0.0370477 0
M  V30 2002 C 185.195 -1.49042 -0.819779 0
M  V30 2003 O 186.38 -1.77726 -0.782758 0
M  V30 2004 C 183.51 -3.32311 -1.0093 0
M  V30 2005 C 182.464 -4.2667 -0.337201 0
M  V30 2006 C 181.79 -5.1549 -1.42037 0
M  V30 2007 C 183.09 -5.16657 0.765706 0
M  V30 2008 H 184.784 -2.90809 0.712069 0
M  V30 2009 H 182.33 -1.39834 0.343876 0
M  V30 2010 H 184.283 -3.9396 -1.49578 0
M  V30 2011 H 183.007 -2.73213 -1.78948 0
M  V30 2012 H 181.666 -3.66374 0.128771 0
M  V30 2013 H 181.314 -4.52735 -2.1918 0
M  V30 2014 H 181.014 -5.79438 -0.975966 0
M  V30 2015 H 182.538 -5.80012 -1.90838 0
M  V30 2016 H 183.952 -5.72158 0.361702 0
M  V30 2017 H 182.349 -5.89286 1.13413 0
M  V30 2018 H 183.419 -4.56796 1.62683 0
M  V30 2019 N 184.763 -0.387143 -1.52771 0
M  V30 2020 C 186.009 0.196025 -2.0185 0
M  V30 2021 C 186.342 1.46641 -1.27319 0
M  V30 2022 O 185.617 1.90889 -0.373032 0
M  V30 2023 C 185.9 0.466136 -3.5707 0
M  V30 2024 C 185.753 -0.819385 -4.42274 0
M  V30 2025 C 187.072 1.25768 -4.21747 0
M  V30 2026 H 184.191 0.0697708 -0.73369 0
M  V30 2027 H 186.833 -0.516286 -1.82851 0
M  V30 2028 H 184.983 1.07293 -3.7339 0
M  V30 2029 H 186.655 -1.4563 -4.37709 0
M  V30 2030 H 184.898 -1.43517 -4.09372 0
M  V30 2031 H 185.569 -0.585065 -5.48891 0
M  V30 2032 H 188.045 0.744167 -4.09391 0
M  V30 2033 H 186.921 1.41541 -5.30337 0
M  V30 2034 H 187.182 2.27228 -3.79236 0
M  V30 2035 N 186.241 1.57166 -0.116904 0
M  V30 2036 C 187.49 1.94298 0.541407 0
M  V30 2037 C 187.803 1.00236 1.67964 0
M  V30 2038 O 189.009 1.26826 2.40057 0
M  V30 2039 C 187.465 3.45306 1.01449 0
M  V30 2040 C 187.073 4.47899 -0.0951738 0
M  V30 2041 C 188.817 3.91361 1.6443 0
M  V30 2042 C 186.724 5.90083 0.394491 0
M  V30 2043 H 185.654 0.725308 0.206019 0
M  V30 2044 H 188.305 1.82446 -0.196419 0
M  V30 2045 H 186.687 3.52385 1.80667 0
M  V30 2046 H 187.861 4.52486 -0.871374 0
M  V30 2047 H 186.176 4.11583 -0.631505 0
M  V30 2048 H 188.773 4.95004 2.02176 0
M  V30 2049 H 189.116 3.3122 2.52189 0
M  V30 2050 H 189.649 3.87073 0.917559 0
M  V30 2051 H 186.388 6.53974 -0.447004 0
M  V30 2052 H 185.908 5.88921 1.13722 0
M  V30 2053 H 187.587 6.41307 0.856399 0
M  V30 2054 N 187.719 -0.156864 1.56817 0
M  V30 2055 C 188.629 -1.2136 2.00771 0
M  V30 2056 C 189.645 -1.47598 0.921459 0
M  V30 2057 O 190.821 -1.59462 1.2302 0
M  V30 2058 C 187.886 -2.52943 2.37109 0
M  V30 2059 C 186.947 -2.34439 3.59634 0
M  V30 2060 C 186.18 -3.59748 3.94229 0
M  V30 2061 O 186.403 -4.65526 3.29609 0
M  V30 2062 O 185.337 -3.52998 4.8752 0
M  V30 2063 H 189.163 -0.870468 2.90958 0
M  V30 2064 H 186.748 -0.36484 1.44877 0
M  V30 2065 H 188.63 -3.30538 2.61386 0
M  V30 2066 H 187.305 -2.86806 1.5008 0
M  V30 2067 H 186.212 -1.54828 3.40557 0
M  V30 2068 H 187.545 -2.05496 4.4725 0
M  V30 2069 N 189.197 -1.51736 -0.425897 0
M  V30 2070 C 190.16 -1.73271 -1.50032 0
M  V30 2071 C 191.16 -0.602639 -1.4908 0
M  V30 2072 O 192.35 -0.87033 -1.509 0
M  V30 2073 C 189.482 -1.79969 -2.89523 0
M  V30 2074 H 190.675 -2.69172 -1.32237 0
M  V30 2075 H 188.228 -1.41899 -0.65532 0
M  V30 2076 H 188.963 -0.859241 -3.1271 0
M  V30 2077 H 188.748 -2.62109 -2.91619 0
M  V30 2078 H 190.238 -1.9843 -3.67444 0
M  V30 2079 N 190.675 0.682077 -1.42076 0
M  V30 2080 C 191.638 1.77756 -1.44691 0
M  V30 2081 C 192.638 1.5726 -0.335535 0
M  V30 2082 O 193.828 1.63686 -0.596037 0
M  V30 2083 C 190.96 3.16301 -1.27146 0
M  V30 2084 H 192.153 1.76826 -2.42224 0
M  V30 2085 H 189.706 0.891012 -1.28416 0
M  V30 2086 H 190.441 3.22862 -0.305075 0
M  V30 2087 H 190.226 3.32581 -2.07683 0
M  V30 2088 H 191.716 3.96241 -1.31843 0
M  V30 2089 N 192.153 1.28127 0.917671 0
M  V30 2090 C 193.569 1.05749 1.19538 0
M  V30 2091 C 193.769 -0.202633 2.00479 0
M  V30 2092 O 192.825 -0.905382 2.3571 0
M  V30 2093 C 194.138 2.30273 1.93378 0
M  V30 2094 C 195.686 2.35412 2.06277 0
M  V30 2095 C 196.161 3.59692 2.83524 0
M  V30 2096 N 197.652 3.60309 2.91087 0
M  V30 2097 C 198.387 4.53147 3.51348 0
M  V30 2098 N 197.883 5.563 4.12919 0
M  V30 2099 N 199.676 4.40751 3.48849 0
M  V30 2100 H 191.827 2.09024 0.377184 0
M  V30 2101 H 194.09 0.919798 0.22951 0
M  V30 2102 H 193.796 3.22055 1.41328 0
M  V30 2103 H 193.67 2.36378 2.93947 0
M  V30 2104 H 196.057 1.4413 2.57508 0
M  V30 2105 H 196.138 2.33304 1.04895 0
M  V30 2106 H 195.782 4.51316 2.32973 0
M  V30 2107 H 195.712 3.59054 3.85211 0
M  V30 2108 H 198.203 2.85714 2.47338 0
M  V30 2109 H 198.516 6.2329 4.56869 0
M  V30 2110 H 196.861 5.60131 4.11435 0
M  V30 2111 H 200.052 3.59367 2.99955 0
M  V30 2112 H 200.225 5.13291 3.9552 0
M  V30 2113 N 193.631 -1.12557 1.10312 0
M  V30 2114 C 194.578 -2.18247 0.750781 0
M  V30 2115 C 195.548 -1.63853 -0.272293 0
M  V30 2116 O 196.733 -1.90195 -0.151862 0
M  V30 2117 C 193.873 -3.44591 0.187379 0
M  V30 2118 C 192.986 -4.13046 1.2656 0
M  V30 2119 C 192.121 -5.27034 0.663978 0
M  V30 2120 C 191.16 -5.87353 1.72287 0
M  V30 2121 N 190.297 -6.92757 1.1416 0
M  V30 2122 H 195.137 -2.47732 1.65628 0
M  V30 2123 H 192.674 -1.21629 0.827337 0
M  V30 2124 H 194.632 -4.16904 -0.157148 0
M  V30 2125 H 193.262 -3.15527 -0.681355 0
M  V30 2126 H 192.314 -3.38924 1.72727 0
M  V30 2127 H 193.626 -4.53947 2.06721 0
M  V30 2128 H 192.78 -6.06104 0.268824 0
M  V30 2129 H 191.519 -4.87407 -0.169082 0
M  V30 2130 H 190.524 -5.06971 2.12746 0
M  V30 2131 H 191.749 -6.29051 2.55875 0
M  V30 2132 H 189.695 -6.5517 0.329984 0
M  V30 2133 H 189.612 -7.3225 1.88007 0
M  V30 2134 H 190.88 -7.75658 0.772956 0
M  V30 2135 N 195.109 -0.891671 -1.2995 0
M  V30 2136 C 196.339 -0.527893 -1.99742 0
M  V30 2137 C 196.747 0.88979 -1.66971 0
M  V30 2138 O 196.09 1.59766 -0.906667 0
M  V30 2139 C 196.152 -0.630804 -3.53922 0
M  V30 2140 C 195.816 -2.01401 -4.10228 0
M  V30 2141 C 196.813 -2.98422 -4.25724 0
M  V30 2142 C 194.498 -2.32121 -4.45449 0
M  V30 2143 C 196.492 -4.24293 -4.75662 0
M  V30 2144 C 194.179 -3.58237 -4.95086 0
M  V30 2145 C 195.177 -4.54137 -5.10146 0
M  V30 2146 O 194.865 -5.78014 -5.58708 0
M  V30 2147 H 194.597 -0.201953 -0.645129 0
M  V30 2148 H 197.151 -1.20076 -1.66646 0
M  V30 2149 H 195.381 0.0990616 -3.86573 0
M  V30 2150 H 197.07 -0.277338 -4.04951 0
M  V30 2151 H 197.836 -2.76001 -3.98809 0
M  V30 2152 H 193.715 -1.5824 -4.32991 0
M  V30 2153 H 197.259 -4.99153 -4.87332 0
M  V30 2154 H 193.156 -3.80491 -5.21437 0
M  V30 2155 H 193.924 -5.8049 -5.77039 0
M  V30 2156 N 196.587 1.43421 -0.653314 0
M  V30 2157 C 197.517 2.33487 0.0246656 0
M  V30 2158 C 198.498 1.49475 0.811863 0
M  V30 2159 O 199.683 1.78139 0.773322 0
M  V30 2160 C 196.813 3.32841 0.99166 0
M  V30 2161 C 195.767 4.26842 0.314568 0
M  V30 2162 C 195.093 5.16236 1.39302 0
M  V30 2163 C 196.393 5.16243 -0.793095 0
M  V30 2164 H 198.087 2.90427 -0.727481 0
M  V30 2165 H 195.633 1.39649 -0.351287 0
M  V30 2166 H 197.586 3.94747 1.47487 0
M  V30 2167 H 196.31 2.74158 1.77497 0
M  V30 2168 H 194.969 3.663 -0.148199 0
M  V30 2169 H 194.617 4.53891 2.16776 0
M  V30 2170 H 194.317 5.79948 0.945223 0
M  V30 2171 H 195.841 5.81015 1.87759 0
M  V30 2172 H 197.255 5.71958 -0.392039 0
M  V30 2173 H 195.652 5.88676 -1.16536 0
M  V30 2174 H 196.722 4.55927 -1.65103 0
M  V30 2175 N 198.065 0.39524 1.52563 0
M  V30 2176 C 199.012 -0.437036 2.26624 0
M  V30 2177 C 199.982 -1.05281 1.28472 0
M  V30 2178 O 201.167 -1.07971 1.57311 0
M  V30 2179 C 198.307 -1.55524 3.08069 0
M  V30 2180 C 197.42 -0.961745 4.21158 0
M  V30 2181 C 196.555 -2.05149 4.89987 0
M  V30 2182 C 195.594 -1.4342 5.95061 0
M  V30 2183 N 194.731 -2.46351 6.57462 0
M  V30 2184 H 199.571 0.200976 2.97322 0
M  V30 2185 H 197.108 0.110944 1.46681 0
M  V30 2186 H 199.066 -2.21437 3.53584 0
M  V30 2187 H 197.696 -2.16348 2.3957 0
M  V30 2188 H 196.748 -0.192048 3.79915 0
M  V30 2189 H 198.06 -0.470701 4.96574 0
M  V30 2190 H 197.214 -2.78819 5.38837 0
M  V30 2191 H 195.953 -2.57615 4.14109 0
M  V30 2192 H 194.958 -0.682774 5.45544 0
M  V30 2193 H 196.183 -0.917416 6.72875 0
M  V30 2194 H 194.129 -2.97975 5.8442 0
M  V30 2195 H 194.046 -2.02019 7.28508 0
M  V30 2196 H 195.314 -3.19633 7.10954 0
M  V30 2197 N 199.544 -1.57102 0.125237 0
M  V30 2198 C 200.476 -2.12726 -0.853237 0
M  V30 2199 C 201.489 -1.07145 -1.22571 0
M  V30 2200 O 202.678 -1.34497 -1.17358 0
M  V30 2201 C 199.778 -2.61709 -2.15317 0
M  V30 2202 C 198.951 -3.91456 -1.95143 0
M  V30 2203 C 198.01 -4.25973 -3.08923 0
M  V30 2204 O 197.036 -4.94682 -2.81564 0
M  V30 2205 N 198.238 -3.83795 -4.35524 0
M  V30 2206 H 201.003 -2.97307 -0.377964 0
M  V30 2207 H 198.564 -1.61792 -0.0590011 0
M  V30 2208 H 200.556 -2.81826 -2.90441 0
M  V30 2209 H 199.126 -1.81974 -2.54174 0
M  V30 2210 H 198.346 -3.80185 -1.04177 0
M  V30 2211 H 199.634 -4.76283 -1.78976 0
M  V30 2212 H 199.032 -3.2839 -4.60626 0
M  V30 2213 H 197.589 -4.09008 -5.07499 0
M  V30 2214 N 201.022 0.148545 -1.56898 0
M  V30 2215 C 202.25 0.876389 -1.87422 0
M  V30 2216 C 202.665 1.74809 -0.713256 0
M  V30 2217 O 202.022 1.79725 0.317025 0
M  V30 2218 C 202.073 1.73438 -3.17178 0
M  V30 2219 O 201.794 0.897809 -4.28802 0
M  V30 2220 C 203.295 2.56993 -3.61205 0
M  V30 2221 H 200.515 0.253489 -0.621277 0
M  V30 2222 H 203.059 0.141798 -2.04008 0
M  V30 2223 H 201.214 2.42205 -3.0235 0
M  V30 2224 H 201.628 1.48672 -5.02988 0
M  V30 2225 H 203.102 3.12773 -4.54838 0
M  V30 2226 H 203.579 3.32958 -2.86419 0
M  V30 2227 H 204.185 1.9352 -3.78722 0
M  V30 2228 N 202.5 1.5196 0.417844 0
M  V30 2229 C 203.725 1.69717 1.1921 0
M  V30 2230 C 204.15 0.402148 1.83751 0
M  V30 2231 O 203.508 -0.639593 1.69643 0
M  V30 2232 C 203.556 2.82794 2.2374 0
M  V30 2233 O 202.66 2.47756 3.29683 0
M  V30 2234 H 202.001 0.565263 0.348387 0
M  V30 2235 H 204.531 1.98621 0.490985 0
M  V30 2236 H 204.541 3.07452 2.68212 0
M  V30 2237 H 203.216 3.76756 1.76146 0
M  V30 2238 H 201.793 2.33739 2.90552 0
M  V30 2239 N 203.978 -0.674533 1.42435 0
M  V30 2240 C 205.218 -1.4466 1.44405 0
M  V30 2241 C 205.582 -1.91911 0.0585784 0
M  V30 2242 O 206.783 -2.68759 -0.0469991 0
M  V30 2243 C 205.054 -2.61136 2.44013 0
M  V30 2244 S 206.613 -3.49981 2.64687 0
M  V30 2245 H 203.431 -0.494074 0.511284 0
M  V30 2246 H 206.033 -0.785162 1.7904 0
M  V30 2247 H 204.737 -2.24662 3.43446 0
M  V30 2248 H 204.268 -3.32153 2.10803 0
M  V30 2249 H 206.283 -4.57124 1.93007 0
M  V30 2250 N 205.456 -1.28612 -0.910864 0
M  V30 2251 C 206.704 -1.15705 -1.65701 0
M  V30 2252 C 207.025 0.29416 -1.92769 0
M  V30 2253 O 206.295 1.20331 -1.54588 0
M  V30 2254 H 204.875 -0.425216 -0.614167 0
M  V30 2255 H 207.537 -1.61381 -1.0928 0
M  V30 2256 H 206.633 -1.6988 -2.61815 0
M  V30 2257 N 206.934 1.1197 -1.10907 0
M  V30 2258 C 208.181 1.83588 -0.854507 0
M  V30 2259 C 208.509 1.84357 0.6199 0
M  V30 2260 O 207.764 1.28809 1.47332 0
M  V30 2261 C 208.063 3.30749 -1.35425 0
M  V30 2262 C 207.729 3.50146 -2.84093 0
M  V30 2263 C 206.391 3.55148 -3.2469 0
M  V30 2264 C 208.743 3.56857 -3.79872 0
M  V30 2265 C 206.071 3.6441 -4.59806 0
M  V30 2266 C 208.423 3.6765 -5.14797 0
M  V30 2267 C 207.087 3.7091 -5.54961 0
M  V30 2268 H 206.357 0.671795 -0.312686 0
M  V30 2269 H 209.004 1.32091 -1.38652 0
M  V30 2270 H 207.309 3.84703 -0.742361 0
M  V30 2271 H 209.006 3.8464 -1.1337 0
M  V30 2272 H 205.596 3.46919 -2.51685 0
M  V30 2273 H 209.78 3.52258 -3.49611 0
M  V30 2274 H 205.036 3.65208 -4.9034 0
M  V30 2275 H 209.21 3.71786 -5.88853 0
M  V30 2276 H 206.837 3.7784 -6.59652 0
M  V30 2277 N 208.412 0.89855 1.29475 0
M  V30 2278 C 209.689 0.443416 1.90508 0
M  V30 2279 C 210.069 -1.07685 1.81569 0
M  V30 2280 O 209.417 -1.9182 1.24166 0
M  V30 2281 C 209.627 0.956708 3.35631 0
M  V30 2282 C 210.975 0.999728 4.12663 0
M  V30 2283 O 211.999 0.904299 3.4453 0
M  V30 2284 O 210.858 1.14289 5.34416 0
M  V30 2285 H 207.952 0.138025 0.815401 0
M  V30 2286 H 210.498 0.98834 1.37949 0
M  V30 2287 H 209.27 2.00067 3.36287 0
M  V30 2288 H 208.893 0.391728 3.95666 0
M  V30 2289 N 209.89 -1.43072 0.660911 0
M  V30 2290 C 211.167 -1.95307 0.107017 0
M  V30 2291 C 211.547 -1.60192 -1.37484 0
M  V30 2292 O 210.895 -0.890949 -2.10415 0
M  V30 2293 C 211.105 -3.47124 0.361402 0
M  V30 2294 C 212.453 -4.23738 0.270455 0
M  V30 2295 O 213.477 -3.54981 0.294382 0
M  V30 2296 O 212.336 -5.46131 0.200737 0
M  V30 2297 H 209.43 -0.826984 -0.00517729 0
M  V30 2298 H 211.976 -1.52972 0.734681 0
M  V30 2299 H 210.748 -3.65837 1.38848 0
M  V30 2300 H 210.371 -3.96475 -0.298953 0
M  V30 2301 N 211.368 -0.403325 -1.52352 0
M  V30 2302 C 212.779 0.0675782 -1.86578 0
M  V30 2303 C 213.13 1.44941 -1.32236 0
M  V30 2304 O 212.255 2.06112 -0.659307 0
M  V30 2305 C 212.85 0.129404 -3.38553 0
M  V30 2306 C 211.409 0.544629 -3.72439 0
M  V30 2307 C 210.556 -0.284551 -2.75836 0
M  V30 2308 H 213.507 -0.620631 -1.46061 0
M  V30 2309 H 213.528 0.94581 -3.68558 0
M  V30 2310 H 213.04 -0.87645 -3.78074 0
M  V30 2311 H 211.141 1.55734 -3.38493 0
M  V30 2312 H 211.254 0.293046 -4.78203 0
M  V30 2313 H 209.618 0.252258 -2.53448 0
M  V30 2314 H 210.401 -1.28865 -3.18196 0
M  V30 2315 N 212.846 1.57033 -0.133567 0
M  V30 2316 C 214.262 1.58035 0.222944 0
M  V30 2317 C 214.462 1.14713 1.6566 0
M  V30 2318 O 213.518 0.841218 2.38075 0
M  V30 2319 C 214.831 3.00691 -0.0236116 0
M  V30 2320 C 216.379 3.12973 0.0411512 0
M  V30 2321 C 216.854 4.57654 -0.177899 0
M  V30 2322 N 218.345 4.63033 -0.124365 0
M  V30 2323 C 219.08 5.72771 -0.268553 0
M  V30 2324 N 218.576 6.91206 -0.46972 0
M  V30 2325 N 220.369 5.61718 -0.2071 0
M  V30 2326 H 212.52 1.8349 -1.06981 0
M  V30 2327 H 214.783 0.848677 -0.422436 0
M  V30 2328 H 214.489 3.36726 -1.0153 0
M  V30 2329 H 214.363 3.70614 0.701808 0
M  V30 2330 H 216.75 2.76787 1.02338 0
M  V30 2331 H 216.831 2.45564 -0.716383 0
M  V30 2332 H 216.475 4.94542 -1.15717 0
M  V30 2333 H 216.405 5.23173 0.599797 0
M  V30 2334 H 218.896 3.7789 0.027011 0
M  V30 2335 H 219.209 7.70693 -0.570212 0
M  V30 2336 H 217.554 6.93156 -0.505876 0
M  V30 2337 H 220.745 4.68072 -0.0507986 0
M  V30 2338 H 220.918 6.47195 -0.322909 0
M  V30 2339 N 214.325 -0.140222 1.56975 0
M  V30 2340 C 215.288 -1.15689 1.97861 0
M  V30 2341 C 216.288 -1.3549 0.865974 0
M  V30 2342 O 217.478 -1.32367 1.13246 0
M  V30 2343 C 214.61 -2.51582 2.30042 0
M  V30 2344 H 215.803 -0.805971 2.88867 0
M  V30 2345 H 213.356 -0.383801 1.51515 0
M  V30 2346 H 214.091 -2.91632 1.41849 0
M  V30 2347 H 213.876 -2.38569 3.11171 0
M  V30 2348 H 215.366 -3.24792 2.62488 0
M  V30 2349 N 215.803 -1.52179 -0.40978 0
M  V30 2350 C 216.713 -1.78364 -1.52392 0
M  V30 2351 C 217.729 -0.669183 -1.60617 0
M  V30 2352 O 218.905 -0.954518 -1.77344 0
M  V30 2353 C 215.97 -1.92822 -2.88133 0
M  V30 2354 C 215.031 -3.16725 -2.898 0
M  V30 2355 C 214.264 -3.30483 -4.19067 0
M  V30 2356 O 214.487 -2.49522 -5.12928 0
M  V30 2357 O 213.421 -4.2363 -4.27576 0
M  V30 2358 H 217.247 -2.72931 -1.33201 0
M  V30 2359 H 214.832 -1.37016 -0.59557 0
M  V30 2360 H 216.714 -2.04157 -3.68643 0
M  V30 2361 H 215.389 -1.01444 -3.07393 0
M  V30 2362 H 214.296 -3.10848 -2.08146 0
M  V30 2363 H 215.629 -4.07881 -2.75489 0
M  V30 2364 N 217.281 0.66697 -1.42791 0
M  V30 2365 C 218.53 1.42278 -1.42968 0
M  V30 2366 C 218.843 1.9553 -0.0524489 0
M  V30 2367 O 220.049 2.71414 0.068363 0
M  V30 2368 C 218.505 2.57418 -2.51524 0
M  V30 2369 C 218.113 2.10832 -3.9529 0
M  V30 2370 C 219.857 3.34878 -2.60877 0
M  V30 2371 C 217.764 3.23101 -4.95338 0
M  V30 2372 H 216.694 0.534533 -0.531781 0
M  V30 2373 H 219.345 0.721302 -1.68729 0
M  V30 2374 H 217.727 3.29971 -2.18941 0
M  V30 2375 H 218.901 1.4538 -4.37266 0
M  V30 2376 H 217.216 1.46289 -3.89857 0
M  V30 2377 H 219.813 4.18505 -3.32802 0
M  V30 2378 H 220.156 3.81993 -1.6549 0
M  V30 2379 H 220.689 2.69398 -2.92693 0
M  V30 2380 H 217.428 2.80969 -5.9223 0
M  V30 2381 H 216.948 3.87309 -4.57987 0
M  V30 2382 H 218.627 3.88447 -5.17415 0
M  V30 2383 N 218.759 1.29093 0.90403 0
M  V30 2384 C 220.005 1.16986 1.65656 0
M  V30 2385 C 220.338 -0.278925 1.92186 0
M  V30 2386 O 219.613 -1.2019 1.5292 0
M  V30 2387 C 219.896 1.97908 3.0084 0
M  V30 2388 C 219.749 3.50903 2.81403 0
M  V30 2389 C 221.068 1.80208 4.01513 0
M  V30 2390 H 218.187 0.426346 0.601164 0
M  V30 2391 H 220.829 1.58518 1.04747 0
M  V30 2392 H 218.979 1.62616 3.52829 0
M  V30 2393 H 220.651 3.96153 2.36348 0
M  V30 2394 H 218.894 3.76045 2.1627 0
M  V30 2395 H 219.565 4.02791 3.77443 0
M  V30 2396 H 222.041 2.11025 3.58619 0
M  V30 2397 H 220.917 2.39184 4.94047 0
M  V30 2398 H 221.178 0.756119 4.35586 0
M  V30 2399 N 220.237 -1.11381 1.11499 0
M  V30 2400 C 221.486 -1.82494 0.858993 0
M  V30 2401 C 221.799 -1.85605 -0.617278 0
M  V30 2402 O 223.005 -2.52824 -0.989552 0
M  V30 2403 C 221.461 -3.27745 1.48699 0
M  V30 2404 C 221.069 -3.32961 2.99735 0
M  V30 2405 C 222.813 -4.03754 1.31085 0
M  V30 2406 C 220.72 -4.72612 3.55516 0
M  V30 2407 H 219.65 -0.683802 0.317696 0
M  V30 2408 H 222.301 -1.25331 1.34031 0
M  V30 2409 H 220.683 -3.84844 0.933339 0
M  V30 2410 H 221.857 -2.85741 3.61509 0
M  V30 2411 H 220.172 -2.70433 3.16631 0
M  V30 2412 H 222.769 -5.06891 1.70192 0
M  V30 2413 H 223.112 -4.15527 0.253496 0
M  V30 2414 H 223.645 -3.53043 1.83318 0
M  V30 2415 H 220.384 -4.66036 4.60967 0
M  V30 2416 H 219.904 -5.2024 2.98513 0
M  V30 2417 H 221.583 -5.4157 3.53992 0
M  V30 2418 N 221.715 -0.905404 -1.28997 0
M  V30 2419 C 222.678 -0.392253 -2.25819 0
M  V30 2420 C 223.678 0.476753 -1.5357 0
M  V30 2421 O 224.868 0.280994 -1.71919 0
M  V30 2422 C 222 0.438588 -3.38067 0
M  V30 2423 H 223.193 -1.24743 -2.72725 0
M  V30 2424 H 220.746 -0.684051 -1.40536 0
M  V30 2425 H 221.481 1.31352 -2.96508 0
M  V30 2426 H 221.266 -0.184167 -3.91667 0
M  V30 2427 H 222.756 0.78873 -4.10084 0
M  V30 2428 N 223.193 1.4272 -0.668489 0
M  V30 2429 C 224.141 2.32586 0.0254857 0
M  V30 2430 C 225.135 1.49471 0.797176 0
M  V30 2431 O 226.341 1.65583 0.705853 0
M  V30 2432 H 222.716 0.751514 0.0270339 0
M  V30 2433 H 224.687 2.88823 -0.749936 0
M  V30 2434 C 223.436 3.3397 0.967427 0
M  V30 2435 H 222.759 3.97961 0.383048 0
M  V30 2436 H 224.199 3.9945 1.42181 0
M  V30 2437 C 222.658 2.65744 2.0708 0
M  V30 2438 O 223.188 2.48454 3.15648 0
M  V30 2439 N 221.394 2.2487 1.8407 0
M  V30 2440 H 220.941 2.39132 0.95778 0
M  V30 2441 H 220.899 1.79552 2.58086 0
M  V30 2442 N 224.671 0.411399 1.52136 0
M  V30 2443 C 225.919 -0.163322 2.01439 0
M  V30 2444 C 226.24 -1.45453 1.29879 0
M  V30 2445 O 225.51 -1.91225 0.4254 0
M  V30 2446 H 224.09 -0.0633447 0.744309 0
M  V30 2447 H 226.752 0.548161 1.87033 0
M  V30 2448 H 225.848 -0.357817 3.10042 0
M  V30 2449 N 226.149 -1.5696 0.141893 0
M  V30 2450 C 227.112 -2.15316 -0.785587 0
M  V30 2451 C 228.112 -1.09366 -1.1788 0
M  V30 2452 O 229.302 -1.35031 -1.10056 0
M  V30 2453 C 226.434 -2.71211 -2.06537 0
M  V30 2454 H 227.627 -2.98608 -0.278041 0
M  V30 2455 H 225.18 -1.5593 -0.107519 0
M  V30 2456 H 225.915 -1.91571 -2.6167 0
M  V30 2457 H 225.7 -3.4872 -1.79268 0
M  V30 2458 H 227.19 -3.16189 -2.72789 0
M  V30 2459 N 227.627 0.131896 -1.57047 0
M  V30 2460 C 228.537 1.1815 -2.02676 0
M  V30 2461 C 229.553 1.46113 -0.944824 0
M  V30 2462 O 230.729 1.57485 -1.25541 0
M  V30 2463 C 227.794 2.49139 -2.41103 0
M  V30 2464 C 226.855 2.28688 -3.63318 0
M  V30 2465 C 226.088 3.53431 -3.99903 0
M  V30 2466 O 226.311 4.60223 -3.36973 0
M  V30 2467 O 225.245 3.45198 -4.93074 0
M  V30 2468 H 229.071 0.824069 -2.92306 0
M  V30 2469 H 226.656 0.341745 -1.45439 0
M  V30 2470 H 228.538 3.26338 -2.66611 0
M  V30 2471 H 227.213 2.84382 -1.54624 0
M  V30 2472 H 226.12 1.4939 -3.42977 0
M  V30 2473 H 227.453 1.98355 -4.50462 0
M  V30 2474 N 229.106 1.52395 0.401703 0
M  V30 2475 C 230.336 1.70429 1.1678 0
M  V30 2476 C 230.744 0.416702 1.84554 0
M  V30 2477 O 230.087 -0.617697 1.73003 0
M  V30 2478 C 230.149 2.78919 2.26814 0
M  V30 2479 C 229.813 4.20437 1.79113 0
M  V30 2480 C 230.81 5.04028 1.27482 0
M  V30 2481 C 228.495 4.66704 1.85722 0
M  V30 2482 C 230.489 6.31961 0.830913 0
M  V30 2483 C 228.176 5.94625 1.40942 0
M  V30 2484 C 229.174 6.77082 0.897128 0
M  V30 2485 O 228.862 8.02607 0.455822 0
M  V30 2486 H 228.594 0.574272 0.356634 0
M  V30 2487 H 231.148 1.99767 0.477724 0
M  V30 2488 H 229.378 2.44973 2.99207 0
M  V30 2489 H 231.067 2.8548 2.88541 0
M  V30 2490 H 231.833 4.69471 1.21744 0
M  V30 2491 H 227.712 4.0262 2.24539 0
M  V30 2492 H 231.256 6.96271 0.430368 0
M  V30 2493 H 227.153 6.28688 1.46362 0
M  V30 2494 H 227.921 8.16453 0.578457 0
M  V30 2495 N 230.584 -0.659388 1.43143 0
M  V30 2496 C 231.83 -1.42145 1.44647 0
M  V30 2497 C 232.163 -1.9408 0.0681907 0
M  V30 2498 O 231.438 -1.71899 -0.910007 0
M  V30 2499 C 231.721 -2.60735 2.48373 0
M  V30 2500 C 231.574 -2.14332 3.95451 0
M  V30 2501 C 232.893 -3.62951 2.48906 0
M  V30 2502 H 230.012 -0.51552 0.526696 0
M  V30 2503 H 232.654 -0.748069 1.74654 0
M  V30 2504 H 230.804 -3.18184 2.22916 0
M  V30 2505 H 232.476 -1.61932 4.31944 0
M  V30 2506 H 230.719 -1.4576 4.08578 0
M  V30 2507 H 231.39 -2.99583 4.63631 0
M  V30 2508 H 233.866 -3.1525 2.71582 0
M  V30 2509 H 232.742 -4.43487 3.23435 0
M  V30 2510 H 233.003 -4.15126 1.52061 0
M  V30 2511 N 232.062 -1.29571 -0.897171 0
M  V30 2512 C 233.478 -1.07637 -1.17841 0
M  V30 2513 C 233.678 0.170713 -2.00776 0
M  V30 2514 O 232.734 0.867768 -2.3712 0
M  V30 2515 C 234.047 -2.3332 -1.8969 0
M  V30 2516 C 235.595 -2.38664 -2.02505 0
M  V30 2517 C 236.07 -3.64157 -2.77765 0
M  V30 2518 N 237.561 -3.64894 -2.85318 0
M  V30 2519 C 238.296 -4.58679 -3.44094 0
M  V30 2520 N 237.792 -5.62799 -4.04017 0
M  V30 2521 N 239.585 -4.46245 -3.41793 0
M  V30 2522 H 231.736 -2.09598 -0.343883 0
M  V30 2523 H 233.999 -0.923333 -0.214848 0
M  V30 2524 H 233.705 -3.24262 -1.36187 0
M  V30 2525 H 233.579 -2.41025 -2.9015 0
M  V30 2526 H 235.966 -1.48208 -2.55183 0
M  V30 2527 H 236.047 -2.34943 -1.01171 0
M  V30 2528 H 235.691 -4.54965 -2.25763 0
M  V30 2529 H 235.621 -3.65137 -3.7945 0
M  V30 2530 H 238.112 -2.89613 -2.42761 0
M  V30 2531 H 238.425 -6.3048 -4.46895 0
M  V30 2532 H 236.77 -5.66605 -4.02472 0
M  V30 2533 H 239.961 -3.64094 -2.94199 0
M  V30 2534 H 240.134 -5.19518 -3.87304 0
M  V30 2535 N 233.54 1.10788 -1.12088 0
M  V30 2536 C 234.487 2.17025 -0.785407 0
M  V30 2537 C 235.457 1.64265 0.246191 0
M  V30 2538 O 236.642 1.90412 0.121584 0
M  V30 2539 C 233.782 3.44249 -0.242177 0
M  V30 2540 C 232.895 4.1098 -1.33115 0
M  V30 2541 C 232.03 5.25911 -0.747741 0
M  V30 2542 C 231.069 5.84538 -1.81609 0
M  V30 2543 N 230.206 6.90853 -1.25167 0
M  V30 2544 H 235.046 2.45066 -1.69548 0
M  V30 2545 H 232.583 1.20297 -0.846582 0
M  V30 2546 H 234.541 4.17101 0.0908026 0
M  V30 2547 H 233.171 3.16571 0.631072 0
M  V30 2548 H 232.223 3.36133 -1.78097 0
M  V30 2549 H 233.535 4.50601 -2.13917 0
M  V30 2550 H 232.689 6.056 -0.365216 0
M  V30 2551 H 231.428 4.87614 0.0915188 0
M  V30 2552 H 230.433 5.03522 -2.20785 0
M  V30 2553 H 231.658 6.249 -2.6585 0
M  V30 2554 H 229.604 6.54562 -0.434174 0
M  V30 2555 H 229.521 7.29166 -1.99633 0
M  V30 2556 H 230.789 7.7433 -0.896259 0
M  V30 2557 N 235.018 0.912232 1.28515 0
M  V30 2558 C 236.265 0.544599 1.95039 0
M  V30 2559 C 236.593 -0.911435 1.71823 0
M  V30 2560 O 235.848 -1.66317 1.03137 0
M  V30 2561 C 236.147 0.798392 3.48368 0
M  V30 2562 C 235.813 2.23374 3.91682 0
M  V30 2563 C 234.475 2.62617 4.03219 0
M  V30 2564 C 236.827 3.16786 4.13879 0
M  V30 2565 C 234.155 3.94429 4.3433 0
M  V30 2566 C 236.507 4.48161 4.46469 0
M  V30 2567 C 235.171 4.8726 4.56217 0
M  V30 2568 H 234.441 0.199283 0.7137 0
M  V30 2569 H 237.088 1.15327 1.52879 0
M  V30 2570 H 235.393 0.106908 3.91654 0
M  V30 2571 H 237.09 0.493141 3.97956 0
M  V30 2572 H 233.68 1.91922 3.83228 0
M  V30 2573 H 237.864 2.87677 4.0442 0
M  V30 2574 H 233.12 4.24426 4.40082 0
M  V30 2575 H 237.294 5.20559 4.62592 0
M  V30 2576 H 234.921 5.89431 4.80078 0
M  V30 2577 N 236.496 -1.42363 0.676048 0
M  V30 2578 C 237.443 -2.308 -0.00150904 0
M  V30 2579 C 238.413 -1.46032 -0.791444 0
M  V30 2580 O 239.598 -1.74861 -0.76344 0
M  V30 2581 C 236.738 -3.31883 -0.945919 0
M  V30 2582 C 235.851 -4.31741 -0.149675 0
M  V30 2583 C 234.986 -5.19898 -1.08995 0
M  V30 2584 C 234.025 -6.11434 -0.285465 0
M  V30 2585 N 233.162 -6.92138 -1.17851 0
M  V30 2586 H 238.002 -2.88187 0.758455 0
M  V30 2587 H 235.539 -1.41952 0.38576 0
M  V30 2588 H 237.497 -3.89019 -1.50731 0
M  V30 2589 H 236.127 -2.76093 -1.6725 0
M  V30 2590 H 235.179 -3.76713 0.528359 0
M  V30 2591 H 236.491 -4.96534 0.474866 0
M  V30 2592 H 235.645 -5.81772 -1.72123 0
M  V30 2593 H 234.384 -4.55284 -1.74837 0
M  V30 2594 H 233.389 -5.48627 0.359018 0
M  V30 2595 H 234.614 -6.78097 0.368883 0
M  V30 2596 H 232.56 -6.30152 -1.82332 0
M  V30 2597 H 232.477 -7.53542 -0.609082 0
M  V30 2598 H 233.745 -7.58499 -1.79722 0
M  V30 2599 N 237.974 -0.419461 -1.51915 0
M  V30 2600 C 238.922 0.415502 -2.28859 0
M  V30 2601 C 239.916 1.03674 -1.3397 0
M  V30 2602 O 241.122 0.973757 -1.51387 0
M  V30 2603 H 237.497 0.152786 -0.736315 0
M  V30 2604 H 239.468 -0.254531 -2.97312 0
M  V30 2605 C 238.217 1.51425 -3.12995 0
M  V30 2606 H 237.54 1.04556 -3.85886 0
M  V30 2607 H 238.98 2.07208 -3.6992 0
M  V30 2608 C 237.439 2.48745 -2.27217 0
M  V30 2609 O 237.969 3.52871 -1.9195 0
M  V30 2610 N 236.175 2.19202 -1.90785 0
M  V30 2611 H 235.722 1.34556 -2.19664 0
M  V30 2612 H 235.68 2.84561 -1.33687 0
M  V30 2613 N 239.452 1.56882 -0.150215 0
M  V30 2614 C 240.362 2.20494 0.801222 0
M  V30 2615 C 241.378 1.19019 1.26927 0
M  V30 2616 O 242.554 1.51607 1.32579 0
M  V30 2617 C 239.619 2.81659 2.02161 0
M  V30 2618 C 238.68 3.9827 1.60249 0
M  V30 2619 C 237.913 4.56508 2.7647 0
M  V30 2620 O 238.136 4.13627 3.92771 0
M  V30 2621 O 237.07 5.46719 2.51757 0
M  V30 2622 H 240.896 3.02315 0.289717 0
M  V30 2623 H 238.481 1.49202 0.0769684 0
M  V30 2624 H 240.363 3.20522 2.73576 0
M  V30 2625 H 239.038 2.02849 2.52258 0
M  V30 2626 H 237.945 3.64117 0.858477 0
M  V30 2627 H 239.278 4.78609 1.14864 0
M  V30 2628 N 240.93 -0.123565 1.57115 0
M  V30 2629 C 242.177 -0.832153 1.84612 0
M  V30 2630 C 242.505 -1.80093 0.734627 0
M  V30 2631 O 241.76 -1.93766 -0.27442 0
M  V30 2632 C 242.059 -1.62016 3.18568 0
M  V30 2633 C 241.725 -0.796084 4.43817 0
M  V30 2634 C 240.387 -0.568816 4.77826 0
M  V30 2635 C 242.739 -0.221364 5.2073 0
M  V30 2636 C 240.067 0.243499 5.86194 0
M  V30 2637 C 242.419 0.578117 6.29953 0
M  V30 2638 C 241.083 0.815744 6.62497 0
M  V30 2639 H 240.353 -0.304507 0.675542 0
M  V30 2640 H 243 -0.0947248 1.91266 0
M  V30 2641 H 241.305 -2.42837 3.0747 0
M  V30 2642 H 243.002 -2.17231 3.37064 0
M  V30 2643 H 239.592 -0.983307 4.17168 0
M  V30 2644 H 243.776 -0.384173 4.94811 0
M  V30 2645 H 239.032 0.436871 6.09837 0
M  V30 2646 H 243.206 1.03046 6.88734 0
M  V30 2647 H 240.833 1.44701 7.46301 0
M  V30 2648 N 242.408 -1.52605 -0.393616 0
M  V30 2649 C 243.685 -1.58001 -1.15304 0
M  V30 2650 C 244.065 -0.370385 -2.07825 0
M  V30 2651 O 243.413 0.641638 -2.19306 0
M  V30 2652 C 243.623 -2.91652 -1.91677 0
M  V30 2653 C 244.971 -3.4522 -2.47201 0
M  V30 2654 O 245.995 -2.93495 -2.01839 0
M  V30 2655 O 244.854 -4.35579 -3.3005 0
M  V30 2656 H 241.948 -0.637068 -0.527327 0
M  V30 2657 H 244.494 -1.64939 -0.399141 0
M  V30 2658 H 243.266 -3.71136 -1.23992 0
M  V30 2659 H 242.889 -2.88077 -2.74039 0
M  V30 2660 N 243.887 0.651787 -1.4349 0
M  V30 2661 C 245.133 1.41376 -1.45398 0
M  V30 2662 C 245.466 1.94041 -0.0784823 0
M  V30 2663 O 244.741 1.72379 0.900878 0
M  V30 2664 C 245.024 2.59414 -2.49752 0
M  V30 2665 C 244.877 2.12232 -3.96582 0
M  V30 2666 C 246.196 3.61626 -2.50827 0
M  V30 2667 H 243.315 0.512719 -0.529422 0
M  V30 2668 H 245.957 0.738796 -1.75048 0
M  V30 2669 H 244.107 3.16997 -2.246 0
M  V30 2670 H 245.779 1.59639 -4.32797 0
M  V30 2671 H 244.022 1.43592 -4.09346 0
M  V30 2672 H 244.693 2.9712 -4.65214 0
M  V30 2673 H 247.169 3.13805 -2.7325 0
M  V30 2674 H 246.045 4.41766 -3.25783 0
M  V30 2675 H 246.306 4.14314 -1.5426 0
M  V30 2676 N 245.365 1.30045 0.890287 0
M  V30 2677 C 246.614 1.17929 1.63633 0
M  V30 2678 C 246.927 -0.266204 1.9378 0
M  V30 2679 O 248.133 -0.508804 2.6669 0
M  V30 2680 C 246.589 2.06317 2.94892 0
M  V30 2681 C 246.197 3.55745 2.72305 0
M  V30 2682 C 247.941 2.0295 3.72843 0
M  V30 2683 C 245.848 4.36205 3.99348 0
M  V30 2684 H 244.778 0.437782 0.613892 0
M  V30 2685 H 247.429 1.54754 0.986075 0
M  V30 2686 H 245.811 1.6237 3.61182 0
M  V30 2687 H 246.985 4.07805 2.1455 0
M  V30 2688 H 245.3 3.6088 2.07737 0
M  V30 2689 H 247.897 2.60319 4.67053 0
M  V30 2690 H 248.24 1.0117 4.0382 0
M  V30 2691 H 248.773 2.4499 3.13408 0
M  V30 2692 H 245.512 5.38659 3.73533 0
M  V30 2693 H 245.032 3.8891 4.56628 0
M  V30 2694 H 246.711 4.47362 4.67415 0
M  V30 2695 N 246.843 -1.10192 1.12674 0
M  V30 2696 C 248.092 -1.81573 0.8783 0
M  V30 2697 C 248.405 -1.86249 -0.597557 0
M  V30 2698 O 249.611 -2.5386 -0.962681 0
M  V30 2699 C 248.067 -3.26149 1.52167 0
M  V30 2700 C 247.675 -3.29763 3.03249 0
M  V30 2701 C 249.419 -4.0234 1.3536 0
M  V30 2702 C 247.326 -4.68815 3.60508 0
M  V30 2703 H 246.256 -0.680394 0.324931 0
M  V30 2704 H 248.907 -1.23902 1.35353 0
M  V30 2705 H 247.289 -3.83832 0.974104 0
M  V30 2706 H 248.463 -2.8189 3.6452 0
M  V30 2707 H 246.778 -2.67059 3.19481 0
M  V30 2708 H 249.375 -5.05058 1.75559 0
M  V30 2709 H 249.718 -4.15235 0.297554 0
M  V30 2710 H 250.251 -3.51079 1.87052 0
M  V30 2711 H 246.99 -4.61121 4.65884 0
M  V30 2712 H 246.51 -5.17045 3.04014 0
M  V30 2713 H 248.189 -5.37785 3.59717 0
M  V30 2714 N 248.321 -0.919034 -1.28029 0
M  V30 2715 C 249.57 -0.550802 -1.94034 0
M  V30 2716 C 249.883 0.910877 -1.73096 0
M  V30 2717 O 251.089 1.3875 -2.33368 0
M  V30 2718 C 249.545 -0.934249 -3.47563 0
M  V30 2719 C 249.153 -2.41602 -3.7727 0
M  V30 2720 C 250.897 -0.636854 -4.19696 0
M  V30 2721 C 248.804 -2.73932 -5.24133 0
M  V30 2722 H 247.734 -0.202273 -0.726362 0
M  V30 2723 H 250.385 -1.11867 -1.45458 0
M  V30 2724 H 248.767 -0.295115 -3.94899 0
M  V30 2725 H 249.941 -3.10233 -3.40723 0
M  V30 2726 H 248.256 -2.68441 -3.18321 0
M  V30 2727 H 250.853 -0.855005 -5.2782 0
M  V30 2728 H 251.196 0.425575 -4.14119 0
M  V30 2729 H 251.729 -1.23469 -3.78154 0
M  V30 2730 H 248.468 -3.79049 -5.34792 0
M  V30 2731 H 247.988 -2.09942 -5.61858 0
M  V30 2732 H 249.667 -2.61215 -5.91925 0
M  V30 2733 N 249.799 1.42003 -0.683588 0
M  V30 2734 C 251.076 1.95112 -0.138075 0
M  V30 2735 C 251.456 1.62359 1.34918 0
M  V30 2736 O 250.804 0.924311 2.08971 0
M  V30 2737 C 251.014 3.46505 -0.416581 0
M  V30 2738 C 252.362 4.23254 -0.337834 0
M  V30 2739 O 253.386 3.54468 -0.35082 0
M  V30 2740 O 252.245 5.45743 -0.287596 0
M  V30 2741 H 249.339 0.826961 -0.00797996 0
M  V30 2742 H 251.885 1.51784 -0.758924 0
M  V30 2743 H 250.657 3.63582 -1.4465 0
M  V30 2744 H 250.28 3.969 0.235839 0
M  V30 2745 N 251.277 0.427512 1.51691 0
M  V30 2746 C 252.502 -0.143601 2.06902 0
M  V30 2747 C 252.927 -1.36536 1.29382 0
M  V30 2748 O 252.285 -1.78289 0.329043 0
M  V30 2749 C 252.333 -0.454207 3.57728 0
M  V30 2750 O 251.437 -1.54228 3.82475 0
M  V30 2751 H 250.778 -0.00617128 0.663971 0
M  V30 2752 H 253.308 0.606014 1.95419 0
M  V30 2753 H 253.318 -0.707525 4.01818 0
M  V30 2754 H 251.993 0.438812 4.13579 0
M  V30 2755 H 250.57 -1.2797 3.50254 0
M  V30 2756 N 252.755 -1.56801 0.158532 0
M  V30 2757 C 253.983 -2.00859 -0.496303 0
M  V30 2758 C 254.398 -1.03871 -1.57659 0
M  V30 2759 O 253.755 -0.0375165 -1.82461 0
M  V30 2760 C 253.806 -3.4479 -1.08638 0
M  V30 2761 O 253.527 -4.38072 -0.0492322 0
M  V30 2762 C 255.028 -4.04185 -1.8207 0
M  V30 2763 H 252.248 -0.65864 -0.128199 0
M  V30 2764 H 254.792 -2.02885 0.256506 0
M  V30 2765 H 252.947 -3.43579 -1.78975 0
M  V30 2766 H 253.361 -5.2227 -0.483102 0
M  V30 2767 H 254.835 -5.06857 -2.18633 0
M  V30 2768 H 255.312 -3.45549 -2.71095 0
M  V30 2769 H 255.918 -4.0906 -1.16405 0
M  V30 2770 N 254.233 0.115231 -1.57178 0
M  V30 2771 C 255.51 0.852873 -1.76027 0
M  V30 2772 C 255.89 1.97892 -0.73498 0
M  V30 2773 O 255.238 2.27232 0.24036 0
M  V30 2774 C 255.448 1.36608 -3.21153 0
M  V30 2775 C 256.796 1.81692 -3.83762 0
M  V30 2776 O 257.82 1.46278 -3.24779 0
M  V30 2777 O 256.679 2.47104 -4.87444 0
M  V30 2778 H 253.773 0.405296 -0.720877 0
M  V30 2779 H 256.319 0.0986785 -1.69413 0
M  V30 2780 H 255.091 0.558357 -3.87296 0
M  V30 2781 H 254.714 2.18287 -3.3232 0
M  V30 2782 N 255.711 1.52812 0.385517 0
M  V30 2783 C 257.122 1.5993 0.963293 0
M  V30 2784 C 257.473 0.454302 1.90868 0
M  V30 2785 O 256.598 -0.422132 2.12243 0
M  V30 2786 C 257.193 2.89871 1.75387 0
M  V30 2787 C 255.752 2.99389 2.28129 0
M  V30 2788 C 254.899 2.55071 1.08783 0
M  V30 2789 H 257.85 1.5784 0.164948 0
M  V30 2790 H 257.871 2.76553 2.61341 0
M  V30 2791 H 257.383 3.73186 1.06554 0
M  V30 2792 H 255.484 2.20619 3.00263 0
M  V30 2793 H 255.597 4.04096 2.57377 0
M  V30 2794 H 253.961 2.09473 1.4489 0
M  V30 2795 H 254.744 3.40785 0.414807 0
M  V30 2796 N 257.189 -0.644168 1.43834 0
M  V30 2797 C 258.417 -1.43147 1.49387 0
M  V30 2798 C 258.832 -1.88452 0.114583 0
M  V30 2799 O 258.189 -1.60047 -0.876989 0
M  V30 2800 C 258.24 -2.66046 2.44748 0
M  V30 2801 O 257.961 -2.22633 3.77314 0
M  V30 2802 C 259.462 -3.59311 2.59635 0
M  V30 2803 H 256.682 -0.439447 0.507077 0
M  V30 2804 H 259.226 -0.78895 1.88669 0
M  V30 2805 H 257.381 -3.26418 2.08638 0
M  V30 2806 H 257.795 -3.02216 4.28679 0
M  V30 2807 H 259.269 -4.42187 3.30416 0
M  V30 2808 H 259.746 -4.07259 1.64427 0
M  V30 2809 H 260.352 -3.04816 2.96593 0
M  V30 2810 N 258.668 -1.30515 -0.883378 0
M  V30 2811 C 259.631 -1.1701 -1.97082 0
M  V30 2812 C 260.631 -0.10089 -1.60483 0
M  V30 2813 O 261.821 -0.349127 -1.70666 0
M  V30 2814 C 258.953 -0.793045 -3.31547 0
M  V30 2815 H 260.146 -2.13622 -2.10489 0
M  V30 2816 H 257.699 -1.13935 -1.06998 0
M  V30 2817 H 258.434 0.172499 -3.23841 0
M  V30 2818 H 258.219 -1.56576 -3.5948 0
M  V30 2819 H 259.709 -0.722073 -4.1131 0
M  V30 2820 N 260.146 1.09593 -1.13257 0
M  V30 2821 C 261.394 1.81375 -0.891492 0
M  V30 2822 C 261.715 1.86049 0.584009 0
M  V30 2823 O 260.985 1.34481 1.42449 0
M  V30 2824 H 259.565 0.671708 -0.326828 0
M  V30 2825 H 262.227 1.3256 -1.42877 0
M  V30 2826 H 261.323 2.84612 -1.28071 0
M  V30 2827 N 261.624 0.925811 1.2754 0
M  V30 2828 C 262.556 0.380753 2.26015 0
M  V30 2829 C 263.569 -0.487485 1.5533 0
M  V30 2830 O 264.758 -0.300413 1.75954 0
M  V30 2831 C 261.858 -0.473259 3.35579 0
M  V30 2832 C 261.031 0.375249 4.35787 0
M  V30 2833 C 260.09 -0.415809 5.24555 0
M  V30 2834 O 259.116 0.175834 5.68928 0
M  V30 2835 N 260.318 -1.71607 5.54555 0
M  V30 2836 H 263.083 1.22725 2.73421 0
M  V30 2837 H 260.644 0.793037 1.41147 0
M  V30 2838 H 262.636 -1.00949 3.91907 0
M  V30 2839 H 261.206 -1.2205 2.87789 0
M  V30 2840 H 260.426 1.09279 3.7875 0
M  V30 2841 H 261.714 0.955399 4.99749 0
M  V30 2842 H 261.112 -2.2191 5.20358 0
M  V30 2843 H 259.669 -2.19887 6.1359 0
M  V30 2844 N 263.102 -1.41638 0.69111 0
M  V30 2845 C 264.35 -2.00902 0.219758 0
M  V30 2846 C 264.671 -1.54994 -1.18329 0
M  V30 2847 O 263.941 -0.778628 -1.79762 0
M  V30 2848 H 262.521 -0.74289 0.0782558 0
M  V30 2849 H 265.183 -1.73327 0.891271 0
M  V30 2850 H 264.279 -3.11224 0.233708 0
M  V30 2851 N 264.58 -0.43555 -1.51462 0
M  V30 2852 C 265.828 0.131254 -2.01673 0
M  V30 2853 C 266.149 1.43368 -1.32177 0
M  V30 2854 O 265.419 1.90524 -0.455769 0
M  V30 2855 H 263.999 0.0514954 -0.745223 0
M  V30 2856 H 266.661 -0.577847 -1.86137 0
M  V30 2857 H 265.757 0.308446 -3.10572 0
M  V30 2858 N 266.058 1.56714 -0.166846 0
M  V30 2859 C 267.008 2.14338 0.777382 0
M  V30 2860 C 267.992 1.07642 1.19591 0
M  V30 2861 O 269.184 1.33775 1.15902 0
M  V30 2862 C 266.313 2.78417 2.00846 0
M  V30 2863 C 265.399 3.92264 1.61212 0
M  V30 2864 N 265.79 4.97268 0.925104 0
M  V30 2865 C 264.088 4.03342 1.90346 0
M  V30 2866 C 264.789 5.77093 0.730627 0
M  V30 2867 N 263.765 5.2854 1.27067 0
M  V30 2868 H 267.567 2.9289 0.243466 0
M  V30 2869 H 265.081 1.62364 0.0339954 0
M  V30 2870 H 267.078 3.18073 2.69509 0
M  V30 2871 H 265.738 2.01344 2.54736 0
M  V30 2872 H 266.749 5.14601 0.583646 0
M  V30 2873 H 263.426 3.37368 2.45946 0
M  V30 2874 H 264.816 6.71638 0.187668 0
M  V30 2875 N 267.536 -0.106894 1.57237 0
M  V30 2876 C 268.466 -1.13148 2.04254 0
M  V30 2877 C 269.447 -1.42476 0.929224 0
M  V30 2878 O 270.632 -1.52709 1.19973 0
M  V30 2879 C 267.762 -2.4545 2.45706 0
M  V30 2880 C 266.716 -2.30558 3.60592 0
M  V30 2881 C 266.042 -3.67931 3.87983 0
M  V30 2882 C 267.342 -1.75597 4.91897 0
M  V30 2883 H 269.036 -0.740374 2.90101 0
M  V30 2884 H 266.582 -0.354696 1.39563 0
M  V30 2885 H 268.535 -3.17389 2.77205 0
M  V30 2886 H 267.259 -2.86475 1.56843 0
M  V30 2887 H 265.918 -1.61067 3.29322 0
M  V30 2888 H 265.566 -4.06462 2.96306 0
M  V30 2889 H 265.266 -3.58817 4.65322 0
M  V30 2890 H 266.79 -4.41356 4.21945 0
M  V30 2891 H 268.204 -2.37364 5.21854 0
M  V30 2892 H 266.601 -1.77272 5.73319 0
M  V30 2893 H 267.671 -0.714451 4.79608 0
M  V30 2894 N 269.014 -1.53014 -0.377408 0
M  V30 2895 C 270.261 -1.68623 -1.12128 0
M  V30 2896 C 270.589 -0.431997 -1.89642 0
M  V30 2897 O 269.844 0.585855 -1.86725 0
M  V30 2898 C 270.143 -2.87982 -2.11663 0
M  V30 2899 C 269.809 -4.24964 -1.50719 0
M  V30 2900 C 268.471 -4.62217 -1.33825 0
M  V30 2901 C 270.823 -5.10199 -1.06519 0
M  V30 2902 C 268.151 -5.82352 -0.712963 0
M  V30 2903 C 270.503 -6.30969 -0.453955 0
M  V30 2904 C 269.167 -6.66944 -0.272411 0
M  V30 2905 H 268.437 -0.617034 -0.410305 0
M  V30 2906 H 271.084 -1.8718 -0.404484 0
M  V30 2907 H 269.389 -2.63889 -2.89603 0
M  V30 2908 H 271.086 -2.97253 -2.6915 0
M  V30 2909 H 267.676 -3.95626 -1.64858 0
M  V30 2910 H 271.86 -4.81978 -1.18368 0
M  V30 2911 H 267.116 -6.08824 -0.560611 0
M  V30 2912 H 271.29 -6.96324 -0.103217 0
M  V30 2913 H 268.917 -7.59898 0.214181 0
M  V30 2914 N 270.492 0.636531 -1.44174 0
M  V30 2915 C 271.72 1.42353 -1.50144 0
M  V30 2916 C 272.135 1.88389 -0.124575 0
M  V30 2917 O 271.492 1.6051 0.868489 0
M  V30 2918 C 271.543 2.64744 -2.46156 0
M  V30 2919 O 271.264 2.20629 -3.7849 0
M  V30 2920 C 272.765 3.57929 -2.61537 0
M  V30 2921 H 269.985 0.436752 -0.5094 0
M  V30 2922 H 272.529 0.778933 -1.89084 0
M  V30 2923 H 270.684 3.25307 -2.10366 0
M  V30 2924 H 271.098 2.99938 -4.30276 0
M  V30 2925 H 272.572 4.40428 -3.32757 0
M  V30 2926 H 273.049 4.06382 -1.66585 0
M  V30 2927 H 273.655 3.03238 -2.98206 0
M  V30 2928 N 271.97 1.30982 0.876444 0
M  V30 2929 C 272.88 1.2003 2.01569 0
M  V30 2930 C 273.896 0.11838 1.73597 0
M  V30 2931 O 275.072 0.33495 1.98595 0
M  V30 2932 C 272.137 0.901637 3.34771 0
M  V30 2933 C 271.198 2.06979 3.76109 0
M  V30 2934 C 270.431 1.78529 5.02954 0
M  V30 2935 O 270.654 0.717296 5.65872 0
M  V30 2936 O 269.588 2.64019 5.40905 0
M  V30 2937 H 273.414 2.15753 2.13739 0
M  V30 2938 H 270.999 1.10658 1.00375 0
M  V30 2939 H 272.881 0.750645 4.1466 0
M  V30 2940 H 271.556 -0.0256141 3.2369 0
M  V30 2941 H 270.463 2.27616 2.96887 0
M  V30 2942 H 271.796 2.97907 3.91807 0
M  V30 2943 N 273.449 -1.08991 1.13837 0
M  V30 2944 C 274.359 -2.19301 0.833333 0
M  V30 2945 C 275.375 -1.73026 -0.183847 0
M  V30 2946 O 276.551 -2.01395 -0.0138092 0
M  V30 2947 C 273.616 -3.45323 0.308651 0
M  V30 2948 C 272.677 -4.06255 1.38764 0
M  V30 2949 C 271.91 -5.26262 0.887896 0
M  V30 2950 O 272.133 -5.69747 -0.27287 0
M  V30 2951 O 271.067 -5.78435 1.66421 0
M  V30 2952 H 274.893 -2.47854 1.75506 0
M  V30 2953 H 272.478 -1.18012 0.916166 0
M  V30 2954 H 274.36 -4.21394 0.0216739 0
M  V30 2955 H 273.035 -3.18362 -0.585431 0
M  V30 2956 H 271.942 -3.318 1.72799 0
M  V30 2957 H 273.275 -4.37452 2.25602 0
M  V30 2958 N 274.927 -0.932562 -1.27047 0
M  V30 2959 C 276.174 -0.575559 -1.94148 0
M  V30 2960 C 276.502 0.883984 -1.73251 0
M  V30 2961 O 275.757 1.64655 -1.0577 0
M  V30 2962 C 276.056 -0.853713 -3.47054 0
M  V30 2963 C 275.722 -2.29577 -3.88079 0
M  V30 2964 C 274.384 -2.68999 -3.9899 0
M  V30 2965 C 276.736 -3.23331 -4.08787 0
M  V30 2966 C 274.064 -4.01289 -4.28 0
M  V30 2967 C 276.416 -4.55207 -4.39282 0
M  V30 2968 C 275.08 -4.94457 -4.48407 0
M  V30 2969 H 274.35 -0.210612 -0.710439 0
M  V30 2970 H 276.997 -1.17744 -1.51025 0
M  V30 2971 H 275.302 -0.169204 -3.91434 0
M  V30 2972 H 276.999 -0.55639 -3.97121 0
M  V30 2973 H 273.589 -1.97994 -3.80127 0
M  V30 2974 H 277.773 -2.94074 -3.99793 0
M  V30 2975 H 273.029 -4.31374 -4.33275 0
M  V30 2976 H 277.203 -5.27852 -4.54252 0
M  V30 2977 H 274.83 -5.96994 -4.7064 0
M  V30 2978 N 276.405 1.4127 -0.698611 0
M  V30 2979 C 277.635 2.05205 -0.239644 0
M  V30 2980 C 278.043 1.52684 1.11733 0
M  V30 2981 O 277.386 0.671222 1.70998 0
M  V30 2982 C 277.448 3.59289 -0.123126 0
M  V30 2983 C 277.112 4.34619 -1.41263 0
M  V30 2984 C 278.109 4.63701 -2.35111 0
M  V30 2985 C 275.794 4.73837 -1.66684 0
M  V30 2986 C 277.788 5.30966 -3.52639 0
M  V30 2987 C 275.475 5.40837 -2.84498 0
M  V30 2988 C 276.473 5.69329 -3.77298 0
M  V30 2989 O 276.161 6.34949 -4.93047 0
M  V30 2990 H 275.893 0.66723 -0.108537 0
M  V30 2991 H 278.447 1.81974 -0.952602 0
M  V30 2992 H 276.677 3.81272 0.645628 0
M  V30 2993 H 278.366 4.04797 0.299056 0
M  V30 2994 H 279.132 4.33882 -2.16729 0
M  V30 2995 H 275.011 4.51039 -0.953135 0
M  V30 2996 H 278.555 5.53121 -4.25091 0
M  V30 2997 H 274.452 5.70075 -3.02795 0
M  V30 2998 H 275.22 6.53445 -4.92902 0
M  V30 2999 N 277.883 0.443576 1.51229 0
M  V30 3000 C 278.815 -0.400608 2.25672 0
M  V30 3001 C 279.828 -0.980945 1.29928 0
M  V30 3002 O 281.017 -0.874024 1.55638 0
M  V30 3003 C 278.117 -1.57304 3.00181 0
M  V30 3004 C 277.29 -1.11046 4.23069 0
M  V30 3005 C 276.349 -2.15374 4.80105 0
M  V30 3006 O 275.375 -1.74554 5.41774 0
M  V30 3007 N 276.577 -3.47922 4.64683 0
M  V30 3008 H 279.342 0.23745 2.98758 0
M  V30 3009 H 276.903 0.272809 1.59585 0
M  V30 3010 H 278.895 -2.26733 3.35223 0
M  V30 3011 H 277.465 -2.11632 2.30066 0
M  V30 3012 H 276.685 -0.243019 3.9345 0
M  V30 3013 H 277.973 -0.778888 5.02803 0
M  V30 3014 H 277.371 -3.83815 4.15575 0
M  V30 3015 H 275.928 -4.13228 5.0407 0
M  V30 3016 N 279.361 -1.56624 0.175154 0
M  V30 3017 C 280.324 -2.16934 -0.739738 0
M  V30 3018 C 281.324 -1.11842 -1.15533 0
M  V30 3019 O 282.514 -1.37335 -1.07167 0
M  V30 3020 C 279.646 -2.75531 -2.00738 0
M  V30 3021 H 280.839 -2.99131 -0.214639 0
M  V30 3022 H 278.392 -1.56123 -0.0744197 0
M  V30 3023 H 279.127 -1.97078 -2.57548 0
M  V30 3024 H 278.912 -3.52444 -1.71831 0
M  V30 3025 H 280.402 -3.21904 -2.66021 0
M  V30 3026 N 280.839 0.0985539 -1.57292 0
M  V30 3027 C 282.079 0.808332 -1.87737 0
M  V30 3028 C 282.443 1.7607 -0.76572 0
M  V30 3029 O 283.644 2.51358 -0.952499 0
M  V30 3030 C 281.915 1.52093 -3.23423 0
M  V30 3031 S 283.474 2.26947 -3.75554 0
M  V30 3032 H 280.292 0.269377 -0.657995 0
M  V30 3033 H 282.894 0.0656269 -1.9539 0
M  V30 3034 H 281.598 0.81363 -4.02254 0
M  V30 3035 H 281.129 2.30361 -3.189 0
M  V30 3036 H 283.144 3.53027 -3.48692 0
M  V30 3037 N 282.317 1.53212 0.369288 0
M  V30 3038 C 283.547 1.72868 1.13139 0
M  V30 3039 C 283.955 0.455754 1.83629 0
M  V30 3040 O 283.298 -0.580861 1.74275 0
M  V30 3041 C 283.36 2.83667 2.20847 0
M  V30 3042 C 283.024 4.24142 1.70155 0
M  V30 3043 C 284.021 5.06619 1.16763 0
M  V30 3044 C 281.706 4.70539 1.7578 0
M  V30 3045 C 283.7 6.33581 0.696678 0
M  V30 3046 C 281.387 5.97481 1.28297 0
M  V30 3047 C 282.385 6.78833 0.753307 0
M  V30 3048 O 282.073 8.03393 0.285475 0
M  V30 3049 H 281.805 0.581707 0.344373 0
M  V30 3050 H 284.359 2.00736 0.435243 0
M  V30 3051 H 282.589 2.51265 2.93944 0
M  V30 3052 H 284.278 2.91536 2.82421 0
M  V30 3053 H 285.044 4.71948 1.11758 0
M  V30 3054 H 280.923 4.07293 2.15949 0
M  V30 3055 H 284.467 6.97027 0.282581 0
M  V30 3056 H 280.364 6.31651 1.32994 0
M  V30 3057 H 281.132 8.17497 0.405145 0
M  V30 3058 N 283.795 -0.628877 1.44509 0
M  V30 3059 C 285.072 -1.38733 1.37886 0
M  V30 3060 C 285.452 -2.11065 0.0387008 0
M  V30 3061 O 284.8 -2.06476 -0.97878 0
M  V30 3062 C 285.01 -2.35188 2.57852 0
M  V30 3063 C 286.358 -2.9845 3.02014 0
M  V30 3064 O 287.382 -2.45513 2.58073 0
M  V30 3065 O 286.241 -3.94487 3.78209 0
M  V30 3066 H 283.335 -0.621015 0.54614 0
M  V30 3067 H 285.881 -0.653744 1.56602 0
M  V30 3068 H 284.653 -1.80855 3.46998 0
M  V30 3069 H 284.276 -3.1596 2.4136 0
M  V30 3070 N 285.273 -1.31445 -0.869486 0
M  V30 3071 C 286.236 -1.19094 -1.9583 0
M  V30 3072 C 287.236 -0.117906 -1.60367 0
M  V30 3073 O 288.426 -0.367208 -1.70286 0
M  V30 3074 C 285.558 -0.828165 -3.30688 0
M  V30 3075 H 286.751 -2.15842 -2.08212 0
M  V30 3076 H 284.304 -1.15063 -1.05784 0
M  V30 3077 H 285.039 0.138142 -3.24006 0
M  V30 3078 H 284.824 -1.6038 -3.578 0
M  V30 3079 H 286.314 -0.765658 -4.10521 0
M  V30 3080 N 286.751 1.08385 -1.14413 0
M  V30 3081 C 287.681 2.17321 -0.854044 0
M  V30 3082 C 288.662 1.69024 0.191049 0
M  V30 3083 O 289.847 1.94141 0.0476779 0
M  V30 3084 C 286.977 3.45719 -0.330983 0
M  V30 3085 C 285.931 4.07409 -1.31155 0
M  V30 3086 C 285.257 5.30762 -0.64778 0
M  V30 3087 C 286.557 4.48665 -2.67388 0
M  V30 3088 H 288.251 2.41845 -1.76498 0
M  V30 3089 H 285.797 1.16233 -0.850051 0
M  V30 3090 H 287.75 4.21241 -0.115645 0
M  V30 3091 H 286.474 3.2075 0.615381 0
M  V30 3092 H 285.133 3.33919 -1.51306 0
M  V30 3093 H 284.781 5.02078 0.304398 0
M  V30 3094 H 284.481 5.72992 -1.30207 0
M  V30 3095 H 286.005 6.08998 -0.441972 0
M  V30 3096 H 287.419 5.15364 -2.51143 0
M  V30 3097 H 285.816 5.01814 -3.29093 0
M  V30 3098 H 286.886 3.60543 -3.24248 0
M  V30 3099 N 288.23 0.939286 1.26551 0
M  V30 3100 C 289.177 0.446088 2.26448 0
M  V30 3101 C 290.147 -0.493234 1.58608 0
M  V30 3102 O 291.332 -0.409857 1.86346 0
M  V30 3103 C 288.472 -0.284375 3.43926 0
M  V30 3104 C 287.585 0.690399 4.26448 0
M  V30 3105 C 286.72 -0.0610712 5.31165 0
M  V30 3106 C 285.759 0.905649 6.05363 0
M  V30 3107 N 284.896 0.186055 7.01853 0
M  V30 3108 H 289.736 1.30291 2.68008 0
M  V30 3109 H 287.273 0.65371 1.31776 0
M  V30 3110 H 289.231 -0.724313 4.10864 0
M  V30 3111 H 287.861 -1.10535 3.03285 0
M  V30 3112 H 286.913 1.24885 3.59316 0
M  V30 3113 H 288.225 1.42873 4.779 0
M  V30 3114 H 287.379 -0.56038 6.04106 0
M  V30 3115 H 286.118 -0.832297 4.80546 0
M  V30 3116 H 285.123 1.4161 5.3125 0
M  V30 3117 H 286.348 1.67685 6.58072 0
M  V30 3118 H 284.294 -0.566714 6.53548 0
M  V30 3119 H 284.211 0.863752 7.51049 0
M  V30 3120 H 285.479 -0.292221 7.78952 0
M  V30 3121 N 289.708 -1.40897 0.706093 0
M  V30 3122 C 290.618 -2.3455 0.0482286 0
M  V30 3123 C 291.634 -1.56796 -0.754396 0
M  V30 3124 O 292.81 -1.89228 -0.689538 0
M  V30 3125 C 289.875 -3.35625 -0.869303 0
M  V30 3126 C 288.936 -4.29261 -0.0576994 0
M  V30 3127 C 288.169 -5.25508 -0.931531 0
M  V30 3128 O 288.392 -5.27472 -2.17092 0
M  V30 3129 O 287.326 -6.00727 -0.375587 0
M  V30 3130 H 291.152 -2.92407 0.820476 0
M  V30 3131 H 288.737 -1.4193 0.4665 0
M  V30 3132 H 290.619 -3.97635 -1.39514 0
M  V30 3133 H 289.294 -2.80196 -1.62086 0
M  V30 3134 H 288.201 -3.70566 0.512988 0
M  V30 3135 H 289.534 -4.87817 0.655426 0
M  V30 3136 N 291.186 -0.45159 -1.50991 0
M  V30 3137 C 292.463 0.170707 -1.94854 0
M  V30 3138 C 292.843 1.58788 -1.39103 0
M  V30 3139 O 292.191 2.20913 -0.583921 0
M  V30 3140 C 292.401 0.133929 -3.48743 0
M  V30 3141 C 293.749 0.33248 -4.23296 0
M  V30 3142 O 294.773 0.211403 -3.55572 0
M  V30 3143 O 293.632 0.57486 -5.43468 0
M  V30 3144 H 290.726 0.122264 -0.817912 0
M  V30 3145 H 293.272 -0.510594 -1.61836 0
M  V30 3146 H 292.044 -0.856283 -3.81816 0
M  V30 3147 H 291.667 0.857529 -3.88242 0
M  V30 3148 N 292.664 1.56529 -0.183458 0
M  V30 3149 C 293.912 1.96855 0.457452 0
M  V30 3150 C 294.233 1.07104 1.62953 0
M  V30 3151 O 293.503 0.139887 1.954 0
M  V30 3152 H 292.083 0.72693 0.171992 0
M  V30 3153 H 294.745 1.93056 -0.267476 0
M  V30 3154 H 293.841 3.01423 0.809368 0
M  V30 3155 N 294.142 -0.090211 1.57342 0
M  V30 3156 C 295.388 -0.793982 1.86611 0
M  V30 3157 C 295.721 -1.78142 0.773252 0
M  V30 3158 O 294.996 -1.93271 -0.218304 0
M  V30 3159 C 295.279 -1.51839 3.26523 0
M  V30 3160 C 295.132 -0.548609 4.46442 0
M  V30 3161 C 296.451 -2.46779 3.64401 0
M  V30 3162 H 293.57 -0.287186 0.678744 0
M  V30 3163 H 296.212 -0.0575076 1.89913 0
M  V30 3164 H 294.362 -2.14617 3.23839 0
M  V30 3165 H 296.034 0.0725513 4.61243 0
M  V30 3166 H 294.277 0.137614 4.33582 0
M  V30 3167 H 294.948 -1.09271 5.41076 0
M  V30 3168 H 297.424 -1.94089 3.68061 0
M  V30 3169 H 296.3 -2.94479 4.63221 0
M  V30 3170 H 296.561 -3.30758 2.93346 0
M  V30 3171 N 295.62 -1.53406 -0.361157 0
M  V30 3172 C 296.867 -1.69802 -1.10333 0
M  V30 3173 C 297.195 -0.452087 -1.89173 0
M  V30 3174 O 296.45 0.566017 -1.87336 0
M  V30 3175 C 296.749 -2.90211 -2.08596 0
M  V30 3176 C 296.415 -4.26539 -1.46203 0
M  V30 3177 C 295.077 -4.6361 -1.28915 0
M  V30 3178 C 297.429 -5.113 -1.01101 0
M  V30 3179 C 294.757 -5.83075 -0.651157 0
M  V30 3180 C 297.109 -6.31415 -0.387007 0
M  V30 3181 C 295.773 -6.67195 -0.201657 0
M  V30 3182 H 295.043 -0.621351 -0.403737 0
M  V30 3183 H 297.69 -1.87598 -0.384609 0
M  V30 3184 H 295.995 -2.66946 -2.86788 0
M  V30 3185 H 297.692 -3.00091 -2.65982 0
M  V30 3186 H 294.282 -3.97352 -1.60653 0
M  V30 3187 H 298.466 -4.83206 -1.13249 0
M  V30 3188 H 293.722 -6.09385 -0.496006 0
M  V30 3189 H 297.896 -6.96394 -0.0293563 0
M  V30 3190 H 295.523 -7.59628 0.294766 0
M  V30 3191 N 297.098 0.621204 -1.44841 0
M  V30 3192 C 298.323 1.41244 -1.51871 0
M  V30 3193 C 298.748 1.87519 -0.147764 0
M  V30 3194 O 298.106 1.59334 0.865 0
M  V30 3195 C 298.154 2.60221 -2.49634 0
M  V30 3196 O 297.258 3.60395 -2.00473 0
M  V30 3197 H 296.599 0.42223 -0.512463 0
M  V30 3198 H 299.129 0.757305 -1.90069 0
M  V30 3199 H 299.139 3.0764 -2.67996 0
M  V30 3200 H 297.814 2.25887 -3.4921 0
M  V30 3201 H 296.391 3.19717 -1.91925 0
M  V30 3202 N 298.576 1.31904 0.862503 0
M  V30 3203 C 299.539 1.20131 1.95195 0
M  V30 3204 C 300.539 0.126409 1.60302 0
M  V30 3205 O 301.729 0.376234 1.70089 0
M  V30 3206 C 298.861 0.845691 3.30244 0
M  V30 3207 H 300.054 2.16943 2.07064 0
M  V30 3208 H 297.607 1.15622 1.05172 0
M  V30 3209 H 298.342 -0.120957 3.24074 0
M  V30 3210 H 298.127 1.62276 3.56944 0
M  V30 3211 H 299.617 0.787418 4.10109 0
M  V30 3212 N 300.054 -1.07777 1.14986 0
M  V30 3213 C 300.964 -2.18404 0.856546 0
M  V30 3214 C 301.98 -1.73211 -0.165485 0
M  V30 3215 O 303.156 -2.01399 0.00755219 0
M  V30 3216 C 300.221 -3.44977 0.34526 0
M  V30 3217 C 299.282 -4.0476 1.43065 0
M  V30 3218 C 298.515 -5.25291 0.943663 0
M  V30 3219 O 298.738 -5.70004 -0.212426 0
M  V30 3220 O 297.672 -5.76638 1.72547 0
M  V30 3221 H 301.498 -2.45978 1.78125 0
M  V30 3222 H 299.083 -1.17033 0.928631 0
M  V30 3223 H 300.965 -4.21348 0.0663671 0
M  V30 3224 H 299.64 -3.18965 -0.551631 0
M  V30 3225 H 298.547 -3.29949 1.76309 0
M  V30 3226 H 299.88 -4.35035 2.30229 0
M  V30 3227 N 301.532 -0.945985 -1.26051 0
M  V30 3228 C 302.76 -0.613025 -1.9761 0
M  V30 3229 C 303.175 0.813035 -1.70397 0
M  V30 3230 O 302.532 1.54274 -0.974979 0
M  V30 3231 C 302.583 -0.85159 -3.51326 0
M  V30 3232 O 302.304 -2.22157 -3.77595 0
M  V30 3233 C 303.805 -0.529831 -4.40122 0
M  V30 3234 H 301.025 -0.230593 -0.630133 0
M  V30 3235 H 303.569 -1.268 -1.60443 0
M  V30 3236 H 301.724 -0.243151 -3.86636 0
M  V30 3237 H 302.138 -2.2852 -4.721 0
M  V30 3238 H 303.612 -0.747348 -5.46917 0
M  V30 3239 H 304.089 0.535341 -4.35925 0
M  V30 3240 H 304.695 -1.11721 -4.10364 0
M  V30 3241 N 303.011 1.40521 -0.713556 0
M  V30 3242 C 303.921 2.34522 -0.0606667 0
M  V30 3243 C 304.937 1.57193 0.74607 0
M  V30 3244 O 306.113 1.89591 0.679493 0
M  V30 3245 C 303.178 3.36081 0.851491 0
M  V30 3246 C 302.239 4.29286 0.0349339 0
M  V30 3247 C 301.472 5.25994 0.903649 0
M  V30 3248 O 301.695 5.28616 2.14292 0
M  V30 3249 O 300.629 6.00918 0.343723 0
M  V30 3250 H 304.455 2.91968 -0.835972 0
M  V30 3251 H 302.04 1.41681 -0.47402 0
M  V30 3252 H 303.922 3.98369 1.37404 0
M  V30 3253 H 302.597 2.81052 1.60598 0
M  V30 3254 H 301.504 3.70289 -0.532633 0
M  V30 3255 H 302.837 4.87462 -0.681287 0
M  V30 3256 N 304.489 0.459591 1.5075 0
M  V30 3257 C 305.766 -0.160371 1.94941 0
M  V30 3258 C 306.146 -1.58048 1.39943 0
M  V30 3259 O 305.494 -2.206 0.595629 0
M  V30 3260 C 305.704 -0.115432 3.48809 0
M  V30 3261 C 307.052 -0.310026 4.23467 0
M  V30 3262 O 308.076 -0.192543 3.55679 0
M  V30 3263 O 306.935 -0.546031 5.43765 0
M  V30 3264 H 304.029 -0.117925 0.818549 0
M  V30 3265 H 306.575 0.519169 1.61563 0
M  V30 3266 H 305.347 0.87652 3.81357 0
M  V30 3267 H 304.97 -0.836928 3.88692 0
M  V30 3268 N 305.967 -1.56429 0.191757 0
M  V30 3269 C 307.378 -1.83912 -0.321428 0
M  V30 3270 C 307.729 -1.11231 -1.61623 0
M  V30 3271 O 306.854 -0.37202 -2.13178 0
M  V30 3272 C 307.449 -3.33624 -0.589961 0
M  V30 3273 C 306.008 -3.6153 -1.04753 0
M  V30 3274 C 305.155 -2.7714 -0.0943327 0
M  V30 3275 H 308.106 -1.53161 0.415612 0
M  V30 3276 H 308.127 -3.52213 -1.43966 0
M  V30 3277 H 307.639 -3.86495 0.352588 0
M  V30 3278 H 305.74 -3.14089 -2.00447 0
M  V30 3279 H 305.853 -4.69737 -0.942549 0
M  V30 3280 H 304.217 -2.47638 -0.595589 0
M  V30 3281 H 305 -3.32799 0.842601 0
M  V30 3282 N 307.445 0.0818655 -1.57387 0
M  V30 3283 C 308.692 0.782914 -1.86753 0
M  V30 3284 C 309.02 1.78082 -0.782118 0
M  V30 3285 O 308.275 1.94426 0.22295 0
M  V30 3286 C 308.574 1.53513 -3.22752 0
M  V30 3287 C 308.24 0.678134 -4.45771 0
M  V30 3288 C 306.902 0.441929 -4.79166 0
M  V30 3289 C 309.254 0.0832243 -5.21134 0
M  V30 3290 C 306.582 -0.398833 -5.85343 0
M  V30 3291 C 308.934 -0.744935 -6.28199 0
M  V30 3292 C 307.598 -0.991107 -6.60101 0
M  V30 3293 H 306.868 0.286489 -0.683378 0
M  V30 3294 H 309.515 0.0439808 -1.91449 0
M  V30 3295 H 307.82 2.34599 -3.138 0
M  V30 3296 H 309.517 2.08218 -3.42705 0
M  V30 3297 H 306.107 0.872357 -4.19628 0
M  V30 3298 H 310.291 0.252847 -4.95655 0
M  V30 3299 H 305.547 -0.598405 -6.08465 0
M  V30 3300 H 309.721 -1.21271 -6.8576 0
M  V30 3301 H 307.348 -1.64437 -7.42202 0
M  V30 3302 N 308.923 1.53595 0.353017 0
M  V30 3303 C 310.153 1.74058 1.11299 0
M  V30 3304 C 310.561 0.475205 1.83135 0
M  V30 3305 O 309.904 -0.562344 1.74881 0
M  V30 3306 C 309.966 2.85994 2.17825 0
M  V30 3307 C 309.63 4.25923 1.65647 0
M  V30 3308 C 310.627 5.07829 1.11383 0
M  V30 3309 C 308.312 4.72377 1.7078 0
M  V30 3310 C 310.306 6.34285 0.629439 0
M  V30 3311 C 307.993 5.98808 1.21953 0
M  V30 3312 C 308.991 6.79594 0.681265 0
M  V30 3313 O 308.679 8.03651 0.200248 0
M  V30 3314 H 308.411 0.585327 0.338183 0
M  V30 3315 H 310.965 2.01186 0.413927 0
M  V30 3316 H 309.195 2.54368 2.91262 0
M  V30 3317 H 310.884 2.94515 2.79313 0
M  V30 3318 H 311.65 4.73107 1.06746 0
M  V30 3319 H 307.529 4.0956 2.11617 0
M  V30 3320 H 311.073 6.97288 0.208636 0
M  V30 3321 H 306.97 6.33026 1.26287 0
M  V30 3322 H 307.738 8.1788 0.318416 0
M  V30 3323 N 310.401 -0.613514 1.45168 0
M  V30 3324 C 311.678 -1.37263 1.39349 0
M  V30 3325 C 312.058 -2.11012 0.0610848 0
M  V30 3326 O 311.406 -2.07502 -0.956825 0
M  V30 3327 C 311.616 -2.3244 2.60332 0
M  V30 3328 C 312.964 -2.9523 3.05163 0
M  V30 3329 O 313.988 -2.42762 2.60663 0
M  V30 3330 O 312.847 -3.90454 3.82372 0
M  V30 3331 H 309.941 -0.615188 0.552696 0
M  V30 3332 H 312.487 -0.637097 1.57287 0
M  V30 3333 H 311.259 -1.77164 3.48896 0
M  V30 3334 H 310.882 -3.13383 2.44698 0
M  V30 3335 N 311.879 -1.3236 -0.855495 0
M  V30 3336 C 313.128 -1.22226 -1.60448 0
M  V30 3337 C 313.441 0.214733 -1.94418 0
M  V30 3338 O 314.647 0.437917 -2.67945 0
M  V30 3339 C 313.103 -2.14063 -2.89318 0
M  V30 3340 C 312.711 -3.62839 -2.62777 0
M  V30 3341 C 314.455 -2.12764 -3.67331 0
M  V30 3342 C 312.362 -4.4664 -3.87643 0
M  V30 3343 H 311.292 -0.453904 -0.602069 0
M  V30 3344 H 313.943 -1.57314 -0.944698 0
M  V30 3345 H 312.325 -1.71889 -3.5675 0
M  V30 3346 H 313.499 -4.1335 -2.03662 0
M  V30 3347 H 311.814 -3.66261 -1.98096 0
M  V30 3348 H 314.411 -2.72611 -4.59987 0
M  V30 3349 H 314.754 -1.11841 -4.00995 0
M  V30 3350 H 315.287 -2.53214 -3.06802 0
M  V30 3351 H 312.026 -5.48373 -3.5912 0
M  V30 3352 H 311.546 -4.0088 -4.46156 0
M  V30 3353 H 313.225 -4.59597 -4.55389 0
M  V30 3354 N 313.357 1.07166 -1.15556 0
M  V30 3355 C 314.605 1.79443 -0.929764 0
M  V30 3356 C 314.926 1.87246 0.544414 0
M  V30 3357 O 314.196 1.37473 1.39564 0
M  V30 3358 H 312.776 0.664625 -0.341003 0
M  V30 3359 H 315.438 1.29499 -1.45657 0
M  V30 3360 H 314.534 2.81832 -1.34079 0
M  V30 3361 N 314.835 0.952656 1.25548 0
M  V30 3362 C 316.081 0.616826 1.93822 0
M  V30 3363 C 316.436 -0.836684 1.73255 0
M  V30 3364 O 315.729 -1.59218 1.06584 0
M  V30 3365 C 315.923 0.908818 3.45652 0
M  V30 3366 C 315.752 2.38916 3.80984 0
M  V30 3367 C 314.522 3.04637 4.03143 0
M  V30 3368 C 316.72 3.36838 3.88645 0
M  V30 3369 N 314.702 4.42565 4.25453 0
M  V30 3370 C 316.073 4.60065 4.1562 0
M  V30 3371 C 318.128 3.31704 3.71318 0
M  V30 3372 C 316.831 5.78795 4.2707 0
M  V30 3373 C 318.857 4.4977 3.84006 0
M  V30 3374 C 318.219 5.71783 4.11392 0
M  V30 3375 H 314.318 0.27629 0.731565 0
M  V30 3376 H 316.902 1.22443 1.5138 0
M  V30 3377 H 315.073 0.330166 3.86994 0
M  V30 3378 H 316.805 0.533093 4.01174 0
M  V30 3379 H 313.56 2.55215 3.98952 0
M  V30 3380 H 313.984 5.1399 4.40617 0
M  V30 3381 H 318.626 2.3842 3.49164 0
M  V30 3382 H 316.344 6.72521 4.48041 0
M  V30 3383 H 319.93 4.47342 3.71989 0
M  V30 3384 H 318.81 6.61617 4.2099 0
M  V30 3385 N 316.313 -1.40141 0.720998 0
M  V30 3386 C 317.56 -2.00787 0.262842 0
M  V30 3387 C 317.888 -1.5718 -1.14563 0
M  V30 3388 O 317.143 -0.785391 -1.79249 0
M  V30 3389 C 317.442 -3.56165 0.296892 0
M  V30 3390 C 317.108 -4.19373 1.65641 0
M  V30 3391 C 315.77 -4.36352 2.02855 0
M  V30 3392 C 318.122 -4.54578 2.54968 0
M  V30 3393 C 315.45 -4.8582 3.28931 0
M  V30 3394 C 317.802 -5.05447 3.80402 0
M  V30 3395 C 316.466 -5.20635 4.17726 0
M  V30 3396 H 315.736 -0.734731 0.0961807 0
M  V30 3397 H 318.383 -1.67673 0.925093 0
M  V30 3398 H 316.688 -3.8922 -0.448932 0
M  V30 3399 H 318.385 -4.00929 -0.0755208 0
M  V30 3400 H 314.975 -4.06549 1.35704 0
M  V30 3401 H 319.159 -4.41091 2.27491 0
M  V30 3402 H 314.415 -4.95764 3.57811 0
M  V30 3403 H 318.589 -5.31663 4.49786 0
M  V30 3404 H 316.216 -5.58728 5.15487 0
M  V30 3405 N 317.792 -0.46758 -1.50504 0
M  V30 3406 C 318.739 0.328413 -2.28452 0
M  V30 3407 C 319.709 0.990313 -1.33349 0
M  V30 3408 O 320.894 1.00343 -1.62284 0
M  V30 3409 C 318.034 1.40648 -3.15138 0
M  V30 3410 C 317.147 0.759709 -4.25267 0
M  V30 3411 C 316.282 1.81537 -4.99217 0
M  V30 3412 C 315.321 1.14866 -6.01226 0
M  V30 3413 N 314.458 2.14702 -6.68467 0
M  V30 3414 H 319.298 -0.342603 -2.96024 0
M  V30 3415 H 316.835 -0.180801 -1.45985 0
M  V30 3416 H 318.793 2.04315 -3.63746 0
M  V30 3417 H 317.423 2.04671 -2.49619 0
M  V30 3418 H 316.475 0.0105671 -3.80399 0
M  V30 3419 H 317.787 0.233243 -4.98254 0
M  V30 3420 H 316.941 2.52793 -5.51526 0
M  V30 3421 H 315.68 2.37564 -4.25928 0
M  V30 3422 H 314.685 0.42171 -5.4818 0
M  V30 3423 H 315.91 0.595334 -6.76485 0
M  V30 3424 H 313.856 2.69752 -5.97972 0
M  V30 3425 H 313.773 1.6703 -7.37317 0
M  V30 3426 H 315.041 2.85348 -7.25394 0
M  V30 3427 N 319.27 1.56325 -0.20005 0
M  V30 3428 C 320.2 2.22318 0.713916 0
M  V30 3429 C 321.181 1.18788 1.21752 0
M  V30 3430 O 322.366 1.47309 1.26545 0
M  V30 3431 C 319.496 2.88639 1.93144 0
M  V30 3432 C 318.45 3.98457 1.56255 0
M  V30 3433 C 317.776 4.51967 2.85709 0
M  V30 3434 C 319.076 5.16612 0.768747 0
M  V30 3435 H 320.77 2.98952 0.163755 0
M  V30 3436 H 318.316 1.43792 0.0773219 0
M  V30 3437 H 320.269 3.33491 2.57608 0
M  V30 3438 H 318.993 2.09419 2.50621 0
M  V30 3439 H 317.652 3.54305 0.941471 0
M  V30 3440 H 317.3 3.69503 3.41287 0
M  V30 3441 H 317 5.26071 2.6177 0
M  V30 3442 H 318.524 4.99523 3.51154 0
M  V30 3443 H 319.938 5.57977 1.3166 0
M  V30 3444 H 318.335 5.96812 0.627286 0
M  V30 3445 H 319.405 4.84358 -0.229168 0
M  V30 3446 N 320.748 -0.0735177 1.57428 0
M  V30 3447 C 321.711 -1.07192 2.02589 0
M  V30 3448 C 322.711 -1.31695 0.922661 0
M  V30 3449 O 323.901 -1.27445 1.18758 0
M  V30 3450 C 321.033 -2.41599 2.40506 0
M  V30 3451 H 322.226 -0.682727 2.92025 0
M  V30 3452 H 319.779 -0.319193 1.53006 0
M  V30 3453 H 320.514 -2.85354 1.5409 0
M  V30 3454 H 320.299 -2.25156 3.21009 0
M  V30 3455 H 321.789 -3.13367 2.76027 0
M  V30 3456 N 322.226 -1.5378 -0.344866 0
M  V30 3457 C 323.456 -1.74646 -1.10374 0
M  V30 3458 C 323.864 -0.48491 -1.8288 0
M  V30 3459 O 323.207 0.553062 -1.75177 0
M  V30 3460 C 323.269 -2.87145 -2.16306 0
M  V30 3461 C 322.933 -4.26795 -1.63386 0
M  V30 3462 C 323.93 -5.08412 -1.08688 0
M  V30 3463 C 321.615 -4.73276 -1.68272 0
M  V30 3464 C 323.609 -6.34609 -0.595792 0
M  V30 3465 C 321.296 -5.99446 -1.18776 0
M  V30 3466 C 322.294 -6.79946 -0.645215 0
M  V30 3467 O 321.982 -8.03745 -0.157626 0
M  V30 3468 H 321.714 -0.587112 -0.335075 0
M  V30 3469 H 324.268 -2.01403 -0.403252 0
M  V30 3470 H 322.498 -2.55909 -2.89909 0
M  V30 3471 H 324.187 -2.95992 -2.77747 0
M  V30 3472 H 324.953 -4.73666 -1.04236 0
M  V30 3473 H 320.832 -4.10677 -2.09442 0
M  V30 3474 H 324.376 -6.97389 -0.171654 0
M  V30 3475 H 320.273 -6.33687 -1.22928 0
M  V30 3476 H 321.041 -8.18038 -0.275037 0
M  V30 3477 N 323.704 0.605807 -1.45491 0
M  V30 3478 C 325.12 0.926751 -1.29936 0
M  V30 3479 C 325.32 1.99896 -0.253706 0
M  V30 3480 O 324.376 2.50038 0.351737 0
M  V30 3481 C 325.689 1.36599 -2.67883 0
M  V30 3482 C 327.237 1.4801 -2.75793 0
M  V30 3483 C 327.712 1.95309 -4.14268 0
M  V30 3484 N 329.203 2.0254 -4.16571 0
M  V30 3485 C 329.938 2.40363 -5.20589 0
M  V30 3486 N 329.434 2.77143 -6.34952 0
M  V30 3487 N 331.227 2.40718 -5.07948 0
M  V30 3488 H 323.378 -0.102862 -2.12151 0
M  V30 3489 H 325.641 0.016639 -0.947854 0
M  V30 3490 H 325.347 0.652306 -3.45598 0
M  V30 3491 H 325.221 2.33215 -2.96463 0
M  V30 3492 H 327.608 2.1847 -1.98381 0
M  V30 3493 H 327.689 0.497041 -2.50925 0
M  V30 3494 H 327.333 1.25436 -4.92167 0
M  V30 3495 H 327.263 2.94532 -4.3653 0
M  V30 3496 H 329.754 1.76699 -3.34045 0
M  V30 3497 H 330.067 3.0489 -7.10114 0
M  V30 3498 H 328.412 2.74834 -6.3835 0
M  V30 3499 H 331.603 2.11392 -4.1765 0
M  V30 3500 H 331.776 2.69869 -5.89131 0
M  V30 3501 N 325.182 1.32811 0.848464 0
M  V30 3502 C 326.598 1.11937 1.13764 0
M  V30 3503 C 326.798 -0.0960789 2.01271 0
M  V30 3504 O 325.854 -0.779165 2.40178 0
M  V30 3505 C 327.167 2.402 1.809 0
M  V30 3506 C 328.715 2.46016 1.93508 0
M  V30 3507 C 329.19 3.74215 2.64059 0
M  V30 3508 N 330.681 3.75232 2.71579 0
M  V30 3509 C 331.416 4.71134 3.26833 0
M  V30 3510 N 330.912 5.77406 3.8285 0
M  V30 3511 N 332.705 4.58623 3.24995 0
M  V30 3512 H 324.856 2.1073 0.265855 0
M  V30 3513 H 327.119 0.930671 0.180431 0
M  V30 3514 H 326.825 3.29093 1.24058 0
M  V30 3515 H 326.699 2.51628 2.81004 0
M  V30 3516 H 329.086 1.57577 2.49506 0
M  V30 3517 H 329.167 2.38536 0.923811 0
M  V30 3518 H 328.811 4.63031 2.08722 0
M  V30 3519 H 328.741 3.78968 3.65637 0
M  V30 3520 H 331.232 2.98423 2.31845 0
M  V30 3521 H 331.545 6.46632 4.23187 0
M  V30 3522 H 329.89 5.81152 3.81165 0
M  V30 3523 H 333.081 3.74762 2.80484 0
M  V30 3524 H 333.254 5.33535 3.67756 0
M  V30 3525 N 326.66 -1.06551 1.16123 0
M  V30 3526 C 327.909 -1.78687 0.935622 0
M  V30 3527 C 328.222 -1.88056 -0.538001 0
M  V30 3528 O 329.428 -2.56794 -0.88143 0
M  V30 3529 C 327.884 -3.21143 1.62466 0
M  V30 3530 C 327.492 -3.19949 3.13587 0
M  V30 3531 C 329.236 -3.9783 1.48092 0
M  V30 3532 C 327.143 -4.57108 3.75241 0
M  V30 3533 H 326.073 -0.669712 0.346412 0
M  V30 3534 H 328.724 -1.19534 1.39226 0
M  V30 3535 H 327.106 -3.80539 1.09572 0
M  V30 3536 H 328.28 -2.70151 3.73303 0
M  V30 3537 H 326.595 -2.5676 3.27816 0
M  V30 3538 H 329.192 -4.99217 1.91538 0
M  V30 3539 H 329.535 -4.14078 0.429507 0
M  V30 3540 H 330.068 -3.4495 1.98127 0
M  V30 3541 H 326.807 -4.46065 4.80319 0
M  V30 3542 H 326.327 -5.07111 3.20309 0
M  V30 3543 H 328.006 -5.26069 3.76644 0
M  V30 3544 N 328.138 -0.959301 -1.25041 0
M  V30 3545 C 329.363 -0.633507 -1.97488 0
M  V30 3546 C 329.788 0.788555 -1.70773 0
M  V30 3547 O 329.146 1.53394 -0.966431 0
M  V30 3548 C 329.194 -0.904057 -3.49083 0
M  V30 3549 O 328.298 0.0147939 -4.12397 0
M  V30 3550 H 327.639 -0.240368 -0.618966 0
M  V30 3551 H 330.169 -1.28717 -1.59038 0
M  V30 3552 H 330.179 -0.832203 -3.99423 0
M  V30 3553 H 328.854 -1.94048 -3.67856 0
M  V30 3554 H 327.431 -0.109664 -3.72739 0
M  V30 3555 N 329.616 1.39756 -0.72842 0
M  V30 3556 C 330.563 2.30647 -0.0841519 0
M  V30 3557 C 331.533 1.48869 0.7367 0
M  V30 3558 O 332.718 1.77574 0.698015 0
M  V30 3559 C 329.858 3.35165 0.822091 0
M  V30 3560 C 328.971 4.31999 -0.0106663 0
M  V30 3561 C 328.106 5.23585 0.896241 0
M  V30 3562 C 327.145 6.12072 0.0583381 0
M  V30 3563 N 326.282 6.96035 0.920818 0
M  V30 3564 H 331.122 2.85173 -0.864891 0
M  V30 3565 H 328.659 1.40422 -0.438179 0
M  V30 3566 H 330.617 3.94345 1.36189 0
M  V30 3567 H 329.247 2.8211 1.56888 0
M  V30 3568 H 328.299 3.74492 -0.66781 0
M  V30 3569 H 329.611 4.9443 -0.658825 0
M  V30 3570 H 328.765 5.87759 1.50412 0
M  V30 3571 H 327.504 4.61459 1.57819 0
M  V30 3572 H 326.509 5.46916 -0.562389 0
M  V30 3573 H 327.734 6.76261 -0.6203 0
M  V30 3574 H 325.68 6.36485 1.58818 0
M  V30 3575 H 325.597 7.55284 0.32899 0
M  V30 3576 H 326.865 7.64646 1.51447 0
M  V30 3577 N 331.094 0.475555 1.50254 0
M  V30 3578 C 332.34 -0.0780073 2.0265 0
M  V30 3579 C 332.673 -1.38968 1.35652 0
M  V30 3580 O 331.948 -1.8839 0.483691 0
M  V30 3581 C 332.231 -0.257161 3.59181 0
M  V30 3582 C 332.084 1.07585 4.36744 0
M  V30 3583 C 333.403 -1.00965 4.28362 0
M  V30 3584 H 330.522 -0.0268758 0.73651 0
M  V30 3585 H 333.164 0.622015 1.7953 0
M  V30 3586 H 331.314 -0.853412 3.79011 0
M  V30 3587 H 332.986 1.70902 4.28474 0
M  V30 3588 H 331.229 1.6714 4.00308 0
M  V30 3589 H 331.9 0.904088 5.44546 0
M  V30 3590 H 334.376 -0.504214 4.13034 0
M  V30 3591 H 333.252 -1.10381 5.37687 0
M  V30 3592 H 333.513 -2.04731 3.91839 0
M  V30 3593 N 332.573 -1.56217 0.208337 0
M  V30 3594 C 333.82 -1.97949 -0.42692 0
M  V30 3595 C 334.148 -1.09562 -1.60706 0
M  V30 3596 O 333.403 -0.137616 -1.95216 0
M  V30 3597 C 333.702 -3.45441 -0.916797 0
M  V30 3598 C 333.368 -4.50646 0.151391 0
M  V30 3599 C 332.03 -4.79139 0.444867 0
M  V30 3600 C 334.382 -5.13811 0.874492 0
M  V30 3601 C 331.71 -5.68084 1.46619 0
M  V30 3602 C 334.062 -6.03861 1.88506 0
M  V30 3603 C 332.726 -6.30704 2.18559 0
M  V30 3604 H 331.996 -0.724345 -0.156221 0
M  V30 3605 H 334.643 -1.89006 0.308084 0
M  V30 3606 H 332.948 -3.51521 -1.73032 0
M  V30 3607 H 334.645 -3.75094 -1.41794 0
M  V30 3608 H 331.235 -4.28511 -0.0875068 0
M  V30 3609 H 335.419 -4.91879 0.660996 0
M  V30 3610 H 330.675 -5.87151 1.7048 0
M  V30 3611 H 334.849 -6.51861 2.45051 0
M  V30 3612 H 332.476 -6.99424 2.97843 0
M  V30 3613 N 334.051 0.0651679 -1.57465 0
M  V30 3614 C 335.462 0.616213 -1.76238 0
M  V30 3615 C 335.813 1.7756 -0.834689 0
M  V30 3616 O 334.938 2.1639 -0.0204156 0
M  V30 3617 C 335.533 1.12462 -3.1959 0
M  V30 3618 C 334.092 1.62147 -3.39684 0
M  V30 3619 C 333.239 0.543739 -2.71917 0
M  V30 3620 H 336.19 -0.161022 -1.57881 0
M  V30 3621 H 336.211 1.99324 -3.24114 0
M  V30 3622 H 335.723 0.280592 -3.87084 0
M  V30 3623 H 333.824 2.48854 -2.77313 0
M  V30 3624 H 333.937 1.69385 -4.48158 0
M  V30 3625 H 332.301 0.990352 -2.34657 0
M  V30 3626 H 333.084 -0.290216 -3.42071 0
M  V30 3627 N 335.529 1.53961 0.336706 0
M  V30 3628 C 336.778 1.70751 1.07363 0
M  V30 3629 C 337.091 0.481061 1.89592 0
M  V30 3630 O 338.297 0.530046 2.66276 0
M  V30 3631 C 336.753 3.01965 1.95818 0
M  V30 3632 C 336.361 4.31971 1.18764 0
M  V30 3633 C 338.105 3.28121 2.69327 0
M  V30 3634 C 336.012 5.54255 2.06289 0
M  V30 3635 H 334.942 0.636292 0.404535 0
M  V30 3636 H 337.593 1.80459 0.332681 0
M  V30 3637 H 335.975 2.86132 2.7376 0
M  V30 3638 H 337.149 4.5853 0.456849 0
M  V30 3639 H 335.464 4.12481 0.569946 0
M  V30 3640 H 338.061 4.16673 3.35094 0
M  V30 3641 H 338.404 2.45426 3.36261 0
M  V30 3642 H 338.937 3.44762 1.98454 0
M  V30 3643 H 335.676 6.39513 1.43885 0
M  V30 3644 H 335.196 5.31935 2.77138 0
M  V30 3645 H 336.875 5.90159 2.65182 0
M  V30 3646 N 337.007 -0.598083 1.45811 0
M  V30 3647 C 338.235 -1.38322 1.53866 0
M  V30 3648 C 338.65 -1.87992 0.174479 0
M  V30 3649 O 338.007 -1.62756 -0.825627 0
M  V30 3650 C 338.058 -2.58125 2.53089 0
M  V30 3651 O 337.779 -2.10516 3.84206 0
M  V30 3652 C 339.28 -3.50869 2.70935 0
M  V30 3653 H 336.5 -0.423093 0.520801 0
M  V30 3654 H 339.044 -0.728527 1.91083 0
M  V30 3655 H 337.199 -3.19615 2.18917 0
M  V30 3656 H 337.613 -2.88425 4.38077 0
M  V30 3657 H 339.087 -4.31451 3.44317 0
M  V30 3658 H 339.564 -4.01822 1.77301 0
M  V30 3659 H 340.17 -2.95225 3.06141 0
M  V30 3660 N 338.485 -1.33259 -0.841409 0
M  V30 3661 C 339.901 -1.12538 -1.13169 0
M  V30 3662 C 340.101 0.0854037 -2.01319 0
M  V30 3663 O 339.157 0.766417 -2.40587 0
M  V30 3664 C 340.47 -2.41156 -1.79623 0
M  V30 3665 C 342.018 -2.47038 -1.922 0
M  V30 3666 C 342.493 -3.7561 -2.6207 0
M  V30 3667 N 343.984 -3.76667 -2.69585 0
M  V30 3668 C 344.719 -4.72861 -3.2433 0
M  V30 3669 N 344.215 -5.79428 -3.79783 0
M  V30 3670 N 346.008 -4.6034 -3.22558 0
M  V30 3671 H 338.159 -2.10868 -0.254676 0
M  V30 3672 H 340.422 -0.931615 -0.175493 0
M  V30 3673 H 340.128 -3.29747 -1.22311 0
M  V30 3674 H 340.002 -2.53114 -2.79666 0
M  V30 3675 H 342.389 -1.58898 -2.48667 0
M  V30 3676 H 342.47 -2.39022 -0.911148 0
M  V30 3677 H 342.114 -4.64131 -2.06263 0
M  V30 3678 H 342.044 -3.80902 -3.63622 0
M  V30 3679 H 344.535 -2.99648 -2.30259 0
M  V30 3680 H 344.848 -6.48867 -4.19752 0
M  V30 3681 H 343.193 -5.83166 -3.78078 0
M  V30 3682 H 346.384 -3.76244 -2.78492 0
M  V30 3683 H 346.557 -5.35478 -3.64921 0
M  V30 3684 N 339.963 1.05934 -1.16686 0
M  V30 3685 C 341.209 1.79065 -0.95203 0
M  V30 3686 C 341.542 1.87147 0.518629 0
M  V30 3687 O 340.817 1.36574 1.38484 0
M  V30 3688 C 341.1 3.23359 -1.58464 0
M  V30 3689 C 340.953 3.23336 -3.12689 0
M  V30 3690 C 342.272 4.21004 -1.28232 0
M  V30 3691 H 339.391 0.65005 -0.34728 0
M  V30 3692 H 342.033 1.23868 -1.44072 0
M  V30 3693 H 340.183 3.70493 -1.16908 0
M  V30 3694 H 341.855 2.84336 -3.6325 0
M  V30 3695 H 340.098 2.61886 -3.4583 0
M  V30 3696 H 340.769 4.25144 -3.52075 0
M  V30 3697 H 343.245 3.8233 -1.64203 0
M  V30 3698 H 342.121 5.20225 -1.75092 0
M  V30 3699 H 342.382 4.41639 -0.201791 0
M  V30 3700 N 341.441 0.965919 1.2453 0
M  V30 3701 C 342.671 0.643451 1.96324 0
M  V30 3702 C 343.079 -0.790927 1.71875 0
M  V30 3703 O 342.422 -1.54208 0.998273 0
M  V30 3704 C 342.484 0.836078 3.49643 0
M  V30 3705 C 342.148 2.24975 3.97788 0
M  V30 3706 C 343.145 3.22735 4.07601 0
M  V30 3707 C 340.83 2.57697 4.31158 0
M  V30 3708 C 342.824 4.51303 4.50116 0
M  V30 3709 C 340.511 3.86492 4.73357 0
M  V30 3710 C 341.509 4.83107 4.828 0
M  V30 3711 O 341.197 6.09605 5.24058 0
M  V30 3712 H 340.929 0.239223 0.632257 0
M  V30 3713 H 343.483 1.29587 1.59362 0
M  V30 3714 H 341.713 0.12649 3.86493 0
M  V30 3715 H 343.402 0.512965 4.02646 0
M  V30 3716 H 344.168 2.98783 3.82039 0
M  V30 3717 H 340.047 1.83216 4.23028 0
M  V30 3718 H 343.591 5.26716 4.57401 0
M  V30 3719 H 339.488 4.10245 4.98366 0
M  V30 3720 H 340.256 6.13146 5.42213 0
M  V30 3721 N 342.919 -1.39368 0.735821 0
M  V30 3722 C 343.849 -2.33234 0.111506 0
M  V30 3723 C 344.83 -1.53954 -0.723334 0
M  V30 3724 O 346.015 -1.82344 -0.668147 0
M  V30 3725 C 343.145 -3.38057 -0.795917 0
M  V30 3726 C 342.099 -4.2795 -0.065172 0
M  V30 3727 C 341.425 -5.23479 -1.08967 0
M  V30 3728 C 342.725 -5.10741 1.09273 0
M  V30 3729 H 344.419 -2.85692 0.895571 0
M  V30 3730 H 341.965 -1.37364 0.432109 0
M  V30 3731 H 343.918 -4.02675 -1.24221 0
M  V30 3732 H 342.642 -2.8404 -1.61211 0
M  V30 3733 H 341.301 -3.64813 0.361511 0
M  V30 3734 H 340.949 -4.65758 -1.89944 0
M  V30 3735 H 340.649 -5.84472 -0.605489 0
M  V30 3736 H 342.173 -5.90974 -1.53565 0
M  V30 3737 H 343.587 -5.68699 0.724841 0
M  V30 3738 H 341.984 -5.8088 1.50659 0
M  V30 3739 H 343.054 -4.45525 1.91404 0
M  V30 3740 N 344.397 -0.483516 -1.5 0
M  V30 3741 C 345.645 0.067027 -2.01989 0
M  V30 3742 C 345.966 1.3909 -1.36671 0
M  V30 3743 O 345.236 1.88978 -0.516152 0
M  V30 3744 H 343.816 0.0277606 -0.746484 0
M  V30 3745 H 346.478 -0.636773 -1.84204 0
M  V30 3746 H 345.574 0.209484 -3.11396 0
M  V30 3747 N 345.875 1.56104 -0.216619 0
M  V30 3748 C 347.122 1.98172 0.416416 0
M  V30 3749 C 347.45 1.10413 1.60122 0
M  V30 3750 O 346.705 0.147967 1.9514 0
M  V30 3751 C 347.004 3.45923 0.898464 0
M  V30 3752 C 346.67 4.50559 -0.175288 0
M  V30 3753 C 345.332 4.78897 -0.470271 0
M  V30 3754 C 347.684 5.1334 -0.901728 0
M  V30 3755 C 345.012 5.67299 -1.4963 0
M  V30 3756 C 347.364 6.02853 -1.91705 0
M  V30 3757 C 346.028 6.29537 -2.21901 0
M  V30 3758 H 345.298 0.725164 0.152377 0
M  V30 3759 H 347.945 1.88839 -0.318103 0
M  V30 3760 H 346.25 3.52434 1.71165 0
M  V30 3761 H 347.947 3.75841 1.39803 0
M  V30 3762 H 344.537 4.28551 0.0647806 0
M  V30 3763 H 348.721 4.91521 -0.687072 0
M  V30 3764 H 343.977 5.86239 -1.73592 0
M  V30 3765 H 348.151 6.50552 -2.48505 0
M  V30 3766 H 345.778 6.97835 -3.01548 0
M  V30 3767 N 347.353 -0.0568162 1.57498 0
M  V30 3768 C 348.286 -1.09817 2.00039 0
M  V30 3769 C 349.264 -1.3674 0.879819 0
M  V30 3770 O 350.448 -1.49863 1.14338 0
M  V30 3771 C 347.575 -2.43924 2.34986 0
M  V30 3772 C 346.621 -2.33039 3.57204 0
M  V30 3773 S 347.454 -1.7102 5.07457 0
M  V30 3774 C 348.61 -3.06674 5.45621 0
M  V30 3775 H 348.843 -0.735701 2.88053 0
M  V30 3776 H 346.376 -0.265871 1.52094 0
M  V30 3777 H 348.334 -3.2106 2.55795 0
M  V30 3778 H 346.995 -2.77327 1.47474 0
M  V30 3779 H 346.188 -3.31973 3.79223 0
M  V30 3780 H 345.79 -1.64043 3.36104 0
M  V30 3781 H 348.082 -4.03 5.44608 0
M  V30 3782 H 349.025 -2.8942 6.46252 0
M  V30 3783 H 349.433 -3.07969 4.73091 0
M  V30 3784 N 348.832 -1.54138 -0.328536 0
M  V30 3785 C 350.06 -1.76062 -1.08673 0
M  V30 3786 C 350.475 -0.506852 -1.81869 0
M  V30 3787 O 349.832 0.522223 -1.74869 0
M  V30 3788 C 349.883 -2.95054 -2.08866 0
M  V30 3789 O 349.604 -4.15583 -1.38644 0
M  V30 3790 C 351.105 -3.2915 -2.96943 0
M  V30 3791 H 348.325 -0.587889 -0.323461 0
M  V30 3792 H 350.869 -2.0101 -0.376175 0
M  V30 3793 H 349.024 -2.72394 -2.75464 0
M  V30 3794 H 349.438 -4.82481 -2.05699 0
M  V30 3795 H 350.912 -4.15723 -3.63151 0
M  V30 3796 H 351.389 -2.461 -3.63774 0
M  V30 3797 H 351.995 -3.53871 -2.35914 0
M  V30 3798 N 350.31 0.590341 -1.46126 0
M  V30 3799 C 351.538 1.37504 -1.54597 0
M  V30 3800 C 351.953 1.87897 -0.184447 0
M  V30 3801 O 351.31 1.63192 0.816984 0
M  V30 3802 C 351.361 2.56779 -2.54454 0
M  V30 3803 O 351.082 2.08476 -3.85317 0
M  V30 3804 C 352.583 3.49427 -2.72792 0
M  V30 3805 H 349.803 0.420325 -0.523037 0
M  V30 3806 H 352.347 0.718383 -1.91467 0
M  V30 3807 H 350.502 3.1845 -2.20609 0
M  V30 3808 H 350.916 2.86097 -4.396 0
M  V30 3809 H 352.39 4.29619 -3.466 0
M  V30 3810 H 352.867 4.00876 -1.79429 0
M  V30 3811 H 353.473 2.93598 -3.07702 0
M  V30 3812 N 351.788 1.33704 0.83433 0
M  V30 3813 C 353.018 1.28281 1.6195 0
M  V30 3814 C 353.426 -0.147603 1.88623 0
M  V30 3815 O 352.769 -1.1016 1.47005 0
M  V30 3816 C 352.831 1.99386 2.99141 0
M  V30 3817 C 352.495 3.48681 2.95416 0
M  V30 3818 C 353.492 4.438 2.70809 0
M  V30 3819 C 351.177 3.90925 3.15409 0
M  V30 3820 C 353.171 5.79138 2.66229 0
M  V30 3821 C 350.858 5.26366 3.10454 0
M  V30 3822 C 351.856 6.20284 2.85895 0
M  V30 3823 O 351.544 7.53245 2.80852 0
M  V30 3824 H 351.276 0.44315 0.510484 0
M  V30 3825 H 353.83 1.76711 1.04702 0
M  V30 3826 H 352.06 1.45554 3.58261 0
M  V30 3827 H 353.749 1.87403 3.60049 0
M  V30 3828 H 354.515 4.12485 2.5511 0
M  V30 3829 H 350.394 3.18229 3.33543 0
M  V30 3830 H 353.938 6.52416 2.4698 0
M  V30 3831 H 349.835 5.57304 3.25703 0
M  V30 3832 H 350.603 7.62846 2.96661 0
M  V30 3833 N 353.266 -1.05314 1.17247 0
M  V30 3834 C 354.677 -1.59753 0.96623 0
M  V30 3835 C 355.028 -1.9005 -0.487378 0
M  V30 3836 O 354.153 -1.68126 -1.36245 0
M  V30 3837 C 354.748 -2.90249 1.74759 0
M  V30 3838 C 353.307 -3.41352 1.58606 0
M  V30 3839 C 352.454 -2.15103 1.75002 0
M  V30 3840 H 355.405 -0.881406 1.31973 0
M  V30 3841 H 355.426 -3.60097 1.22925 0
M  V30 3842 H 354.938 -2.68166 2.8055 0
M  V30 3843 H 353.039 -3.68474 0.552985 0
M  V30 3844 H 353.152 -4.16019 2.37624 0
M  V30 3845 H 351.516 -2.25804 1.17833 0
M  V30 3846 H 352.299 -1.95491 2.82202 0
M  V30 3847 N 354.744 -0.972509 -1.24016 0
M  V30 3848 C 355.969 -0.654417 -1.96805 0
M  V30 3849 C 356.394 0.770398 -1.716 0
M  V30 3850 O 355.752 1.52361 -0.982647 0
M  V30 3851 C 355.8 -0.941031 -3.48105 0
M  V30 3852 O 354.904 -0.0289472 -4.1239 0
M  V30 3853 H 354.245 -0.24692 -0.616382 0
M  V30 3854 H 356.775 -1.30396 -1.57664 0
M  V30 3855 H 356.785 -0.87452 -3.98517 0
M  V30 3856 H 355.46 -1.97939 -3.65777 0
M  V30 3857 H 354.037 -0.149192 -3.72601 0
M  V30 3858 N 356.222 1.38976 -0.743202 0
M  V30 3859 C 357.47 1.99948 -0.29417 0
M  V30 3860 C 357.791 1.59279 1.12495 0
M  V30 3861 O 357.061 0.844808 1.76748 0
M  V30 3862 H 355.641 0.739473 -0.105774 0
M  V30 3863 H 358.303 1.699 -0.954986 0
M  V30 3864 H 357.399 3.10142 -0.349056 0
M  V30 3865 N 357.7 0.491464 1.49741 0
M  V30 3866 C 358.633 -0.338464 2.25676 0
M  V30 3867 C 359.611 -0.978676 1.29849 0
M  V30 3868 O 360.795 -1.01064 1.59117 0
M  V30 3869 C 357.922 -1.47588 3.04853 0
M  V30 3870 C 356.968 -0.951 4.15762 0
M  V30 3871 S 357.801 0.150626 5.35288 0
M  V30 3872 C 358.957 -0.990178 6.18018 0
M  V30 3873 H 359.19 0.306068 2.9572 0
M  V30 3874 H 356.723 0.276622 1.51902 0
M  V30 3875 H 358.681 -2.12764 3.51058 0
M  V30 3876 H 357.342 -2.09199 2.34296 0
M  V30 3877 H 356.535 -1.80311 4.70642 0
M  V30 3878 H 356.137 -0.376607 3.72099 0
M  V30 3879 H 358.429 -1.89748 6.50386 0
M  V30 3880 H 359.372 -0.480205 7.0647 0
M  V30 3881 H 359.78 -1.25321 5.50413 0
M  V30 3882 N 359.178 -1.55987 0.224894 0
M  V30 3883 C 360.424 -1.99433 -0.39973 0
M  V30 3884 C 360.779 -1.11004 -1.57149 0
M  V30 3885 O 360.072 -0.160725 -1.90925 0
M  V30 3886 C 360.266 -3.46394 -0.880106 0
M  V30 3887 C 360.095 -4.4904 0.243565 0
M  V30 3888 C 358.865 -5.00272 0.711056 0
M  V30 3889 C 361.063 -5.03195 1.06299 0
M  V30 3890 N 359.045 -5.86628 1.80944 0
M  V30 3891 C 360.416 -5.86508 2.01017 0
M  V30 3892 C 362.471 -4.8555 1.10205 0
M  V30 3893 C 361.174 -6.54062 2.99324 0
M  V30 3894 C 363.2 -5.53866 2.07332 0
M  V30 3895 C 362.562 -6.3695 3.00789 0
M  V30 3896 H 358.661 -0.773815 -0.112847 0
M  V30 3897 H 361.245 -1.91754 0.337432 0
M  V30 3898 H 359.416 -3.54515 -1.58662 0
M  V30 3899 H 361.148 -3.76752 -1.47783 0
M  V30 3900 H 357.903 -4.72655 0.29906 0
M  V30 3901 H 358.327 -6.34507 2.36073 0
M  V30 3902 H 362.969 -4.20966 0.39343 0
M  V30 3903 H 360.687 -7.17827 3.71147 0
M  V30 3904 H 364.273 -5.42178 2.11032 0
M  V30 3905 H 363.153 -6.8888 3.74718 0
M  V30 3906 N 360.656 0.0484629 -1.57525 0
M  V30 3907 C 361.881 0.759177 -1.93006 0
M  V30 3908 C 362.306 1.69125 -0.823317 0
M  V30 3909 O 361.664 1.79931 0.222364 0
M  V30 3910 C 361.712 1.50899 -3.27509 0
M  V30 3911 O 360.816 2.62112 -3.18388 0
M  V30 3912 H 360.157 0.205564 -0.631379 0
M  V30 3913 H 362.687 0.00972959 -2.04598 0
M  V30 3914 H 362.697 1.88317 -3.6194 0
M  V30 3915 H 361.372 0.825269 -4.0763 0
M  V30 3916 H 359.949 2.27379 -2.95556 0
M  V30 3917 N 362.134 1.5431 0.320358 0
M  V30 3918 C 363.364 1.7638 1.07582 0
M  V30 3919 C 363.772 0.513944 1.82086 0
M  V30 3920 O 363.115 -0.525123 1.76035 0
M  V30 3921 C 363.177 2.9055 2.1171 0
M  V30 3922 C 362.841 4.2934 1.56575 0
M  V30 3923 C 363.838 5.10077 1.00586 0
M  V30 3924 C 361.523 4.75893 1.60722 0
M  V30 3925 C 363.517 6.35477 0.494756 0
M  V30 3926 C 361.204 6.0126 1.09224 0
M  V30 3927 C 362.202 6.80886 0.53696 0
M  V30 3928 O 361.89 8.03894 0.0297371 0
M  V30 3929 H 361.622 0.592369 0.325692 0
M  V30 3930 H 364.176 2.02019 0.37116 0
M  V30 3931 H 362.406 2.60489 2.85801 0
M  V30 3932 H 364.095 3.00373 2.73003 0
M  V30 3933 H 364.861 4.75265 0.966869 0
M  V30 3934 H 360.74 4.13957 2.02882 0
M  V30 3935 H 364.284 6.97574 0.0606842 0
M  V30 3936 H 360.181 6.35562 1.12831 0
M  V30 3937 H 360.949 8.18372 0.14486 0
M  V30 3938 N 363.613 -0.582584 1.46437 0
M  V30 3939 C 364.841 -1.36682 1.55324 0
M  V30 3940 C 365.256 -1.87796 0.194409 0
M  V30 3941 O 364.613 -1.63623 -0.808318 0
M  V30 3942 C 364.664 -2.55426 2.55812 0
M  V30 3943 O 364.385 -2.0643 3.86417 0
M  V30 3944 C 365.886 -3.47976 2.74641 0
M  V30 3945 H 363.106 -0.417545 0.525259 0
M  V30 3946 H 365.65 -0.708219 1.91845 0
M  V30 3947 H 363.805 -3.17275 2.22295 0
M  V30 3948 H 364.219 -2.83762 4.41111 0
M  V30 3949 H 365.693 -4.27775 3.48874 0
M  V30 3950 H 366.17 -3.99919 1.81553 0
M  V30 3951 H 366.776 -2.91962 3.09255 0
M  V30 3952 N 365.091 -1.34144 -0.827227 0
M  V30 3953 C 366.338 -1.26258 -1.58319 0
M  V30 3954 C 366.666 0.168595 -1.93768 0
M  V30 3955 O 365.921 1.12877 -1.59866 0
M  V30 3956 C 366.22 -2.09464 -2.89585 0
M  V30 3957 C 365.886 -3.58521 -2.73448 0
M  V30 3958 C 364.548 -3.99155 -2.68754 0
M  V30 3959 C 366.9 -4.53189 -2.57428 0
M  V30 3960 C 364.228 -5.32656 -2.45957 0
M  V30 3961 C 366.58 -5.86864 -2.36163 0
M  V30 3962 C 365.244 -6.26667 -2.29879 0
M  V30 3963 H 364.514 -0.462013 -0.579332 0
M  V30 3964 H 367.161 -1.65845 -0.95748 0
M  V30 3965 H 365.466 -1.62692 -3.56425 0
M  V30 3966 H 367.163 -2.00712 -3.47154 0
M  V30 3967 H 363.753 -3.26264 -2.77939 0
M  V30 3968 H 367.937 -4.22696 -2.60081 0
M  V30 3969 H 363.193 -5.62519 -2.39546 0
M  V30 3970 H 367.367 -6.59813 -2.22754 0
M  V30 3971 H 364.994 -7.30049 -2.11975 0
M  V30 3972 N 366.569 1.04691 -1.17803 0
M  V30 3973 C 367.532 2.10724 -0.901545 0
M  V30 3974 C 368.532 1.6042 0.110437 0
M  V30 3975 O 369.722 1.7377 -0.122303 0
M  V30 3976 C 366.854 3.39084 -0.351409 0
M  V30 3977 H 368.047 2.36686 -1.84174 0
M  V30 3978 H 365.6 1.21015 -0.98919 0
M  V30 3979 H 366.335 3.18782 0.59569 0
M  V30 3980 H 366.12 3.76909 -1.08083 0
M  V30 3981 H 367.61 4.17227 -0.176451 0
M  V30 3982 N 368.047 0.979072 1.23499 0
M  V30 3983 C 369.272 0.664845 1.96455 0
M  V30 3984 C 369.697 -0.761287 1.72006 0
M  V30 3985 O 369.055 -1.51837 0.990713 0
M  V30 3986 C 369.103 0.959479 3.47601 0
M  V30 3987 O 368.207 0.0508168 4.12369 0
M  V30 3988 H 367.548 0.250185 0.615064 0
M  V30 3989 H 370.078 1.31231 1.5697 0
M  V30 3990 H 370.088 0.895642 3.98048 0
M  V30 3991 H 368.763 1.99876 3.64723 0
M  V30 3992 H 367.34 0.16895 3.72517 0
M  V30 3993 N 369.525 -1.3858 0.750561 0
M  V30 3994 C 370.472 -2.30483 0.120835 0
M  V30 3995 C 371.442 -1.50022 -0.712923 0
M  V30 3996 O 372.627 -1.78662 -0.669676 0
M  V30 3997 C 369.767 -3.36431 -0.768666 0
M  V30 3998 C 368.88 -4.31927 0.0793922 0
M  V30 3999 C 368.015 -5.24944 -0.81283 0
M  V30 4000 C 367.054 -6.12088 0.0390447 0
M  V30 4001 N 366.191 -6.97412 -0.809969 0
M  V30 4002 H 371.031 -2.83761 0.91015 0
M  V30 4003 H 368.568 -1.39707 0.460463 0
M  V30 4004 H 370.526 -3.96462 -1.29898 0
M  V30 4005 H 369.156 -2.8457 -1.5238 0
M  V30 4006 H 368.208 -3.73382 0.727303 0
M  V30 4007 H 369.52 -4.93319 0.737401 0
M  V30 4008 H 368.674 -5.90078 -1.41042 0
M  V30 4009 H 367.413 -4.63911 -1.50458 0
M  V30 4010 H 366.418 -5.45952 0.649328 0
M  V30 4011 H 367.643 -6.75189 0.727809 0
M  V30 4012 H 365.589 -6.38931 -1.48672 0
M  V30 4013 H 365.506 -7.55712 -0.208789 0
M  V30 4014 H 366.774 -7.66959 -1.39263 0
M  V30 4015 N 371.003 -0.499398 -1.49478 0
M  V30 4016 C 372.251 0.0455996 -2.02049 0
M  V30 4017 C 372.572 1.37633 -1.38138 0
M  V30 4018 O 371.842 1.8842 -0.536166 0
M  V30 4019 H 370.422 0.0198416 -0.746736 0
M  V30 4020 H 373.084 -0.656274 -1.83519 0
M  V30 4021 H 372.18 0.176445 -3.11601 0
M  V30 4022 N 372.481 1.55866 -0.233164 0
M  V30 4023 C 373.73 1.97779 0.39579 0
M  V30 4024 C 374.043 1.12419 1.60066 0
M  V30 4025 O 375.249 1.44283 2.29988 0
M  V30 4026 C 373.705 3.5188 0.755556 0
M  V30 4027 C 373.313 4.45959 -0.427152 0
M  V30 4028 C 375.057 4.02479 1.34946 0
M  V30 4029 C 372.964 5.91383 -0.0443043 0
M  V30 4030 H 371.894 0.738592 0.15165 0
M  V30 4031 H 374.545 1.80486 -0.331212 0
M  V30 4032 H 372.927 3.64816 1.5403 0
M  V30 4033 H 374.101 4.44776 -1.20462 0
M  V30 4034 H 372.416 4.05765 -0.935068 0
M  V30 4035 H 375.013 5.08637 1.649 0
M  V30 4036 H 375.356 3.49014 2.26925 0
M  V30 4037 H 375.889 3.92813 0.62791 0
M  V30 4038 H 372.628 6.48857 -0.930874 0
M  V30 4039 H 372.148 5.95734 0.697238 0
M  V30 4040 H 373.827 6.45893 0.378334 0
M  V30 4041 N 373.959 -0.0401083 1.57549 0
M  V30 4042 C 375.236 -0.767917 1.79896 0
M  V30 4043 C 375.616 -1.9416 0.82856 0
M  V30 4044 O 374.964 -2.2812 -0.131671 0
M  V30 4045 C 375.174 -1.2113 3.27305 0
M  V30 4046 C 376.522 -1.63175 3.91994 0
M  V30 4047 O 377.546 -1.30616 3.31388 0
M  V30 4048 O 376.405 -2.23565 4.98679 0
M  V30 4049 H 373.499 -0.370441 0.739393 0
M  V30 4050 H 376.045 -0.017737 1.69691 0
M  V30 4051 H 374.817 -0.372937 3.89519 0
M  V30 4052 H 374.44 -2.02183 3.42356 0
M  V30 4053 N 375.437 -1.54477 -0.31217 0
M  V30 4054 C 376.848 -1.64344 -0.885891 0
M  V30 4055 C 377.199 -0.54485 -1.88483 0
M  V30 4056 O 376.324 0.320387 -2.14015 0
M  V30 4057 C 376.919 -2.97908 -1.61357 0
M  V30 4058 C 375.478 -3.09933 -2.13585 0
M  V30 4059 C 374.625 -2.59971 -0.964897 0
M  V30 4060 H 377.576 -1.58448 -0.0894528 0
M  V30 4061 H 377.597 -2.88706 -2.47848 0
M  V30 4062 H 377.109 -3.77845 -0.886277 0
M  V30 4063 H 375.21 -2.34694 -2.89395 0
M  V30 4064 H 375.323 -4.15916 -2.37804 0
M  V30 4065 H 373.687 -2.16147 -1.34731 0
M  V30 4066 H 374.47 -3.42376 -0.251742 0
M  V30 4067 N 376.915 0.57481 -1.46744 0
M  V30 4068 C 378.164 1.32898 -1.51727 0
M  V30 4069 C 378.477 1.948 -0.176692 0
M  V30 4070 O 379.683 2.71299 -0.104385 0
M  V30 4071 C 378.139 2.40901 -2.67385 0
M  V30 4072 C 377.747 1.85266 -4.07898 0
M  V30 4073 C 379.491 3.17609 -2.81646 0
M  V30 4074 C 377.398 2.90945 -5.14883 0
M  V30 4075 H 376.328 0.499631 -0.564699 0
M  V30 4076 H 378.979 0.612536 -1.72975 0
M  V30 4077 H 377.361 3.15379 -2.39483 0
M  V30 4078 H 378.535 1.17278 -4.45626 0
M  V30 4079 H 376.85 1.21199 -3.98371 0
M  V30 4080 H 379.447 3.96493 -3.58744 0
M  V30 4081 H 379.79 3.70696 -1.89448 0
M  V30 4082 H 380.323 2.50239 -3.09233 0
M  V30 4083 H 377.062 2.42736 -6.089 0
M  V30 4084 H 376.582 3.57398 -4.81691 0
M  V30 4085 H 378.261 3.54755 -5.41071 0
M  V30 4086 N 378.394 1.34581 0.820102 0
M  V30 4087 C 379.341 1.2639 1.93117 0
M  V30 4088 C 380.311 0.138554 1.65521 0
M  V30 4089 O 381.496 0.320004 1.88097 0
M  V30 4090 C 378.636 1.02812 3.29429 0
M  V30 4091 C 377.749 2.24146 3.693 0
M  V30 4092 C 376.884 1.93829 4.94574 0
M  V30 4093 C 375.923 3.1129 5.27034 0
M  V30 4094 N 375.06 2.80838 6.43486 0
M  V30 4095 H 379.9 2.21408 1.99455 0
M  V30 4096 H 377.437 1.10077 0.975784 0
M  V30 4097 H 379.395 0.871788 4.0799 0
M  V30 4098 H 378.025 0.114612 3.22596 0
M  V30 4099 H 377.077 2.50691 2.86109 0
M  V30 4100 H 378.389 3.11899 3.89257 0
M  V30 4101 H 377.543 1.74948 5.80929 0
M  V30 4102 H 376.282 1.03341 4.76626 0
M  V30 4103 H 375.287 3.30764 4.39175 0
M  V30 4104 H 376.512 4.02561 5.4692 0
M  V30 4105 H 374.458 1.92929 6.26988 0
M  V30 4106 H 374.375 3.62123 6.63629 0
M  V30 4107 H 375.643 2.65467 7.32903 0
M  V30 4108 N 379.872 -1.04064 1.18357 0
M  V30 4109 C 381.149 -1.74252 0.888581 0
M  V30 4110 C 381.529 -2.02138 -0.60856 0
M  V30 4111 O 380.877 -1.66656 -1.56327 0
M  V30 4112 C 381.087 -3.0277 1.73584 0
M  V30 4113 C 382.435 -3.76506 1.96286 0
M  V30 4114 O 383.459 -3.12668 1.70637 0
M  V30 4115 O 382.318 -4.91243 2.39464 0
M  V30 4116 H 379.412 -0.758271 0.330082 0
M  V30 4117 H 381.958 -1.1013 1.2911 0
M  V30 4118 H 380.73 -2.78299 2.75073 0
M  V30 4119 H 380.353 -3.74631 1.33183 0
M  V30 4120 N 381.35 -0.985608 -1.22978 0
M  V30 4121 C 382.597 -0.657386 -1.91532 0
M  V30 4122 C 382.925 0.809707 -1.76845 0
M  V30 4123 O 382.18 1.60021 -1.12658 0
M  V30 4124 C 382.479 -1.00014 -3.43121 0
M  V30 4125 C 382.145 -2.4583 -3.77993 0
M  V30 4126 C 380.807 -2.85679 -3.87222 0
M  V30 4127 C 383.159 -3.40378 -3.94705 0
M  V30 4128 C 380.487 -4.19081 -4.10595 0
M  V30 4129 C 382.839 -4.73429 -4.1958 0
M  V30 4130 C 381.503 -5.1303 -4.27032 0
M  V30 4131 H 380.773 -0.240555 -0.700867 0
M  V30 4132 H 383.42 -1.24044 -1.45895 0
M  V30 4133 H 381.725 -0.335072 -3.90365 0
M  V30 4134 H 383.422 -0.724322 -3.94404 0
M  V30 4135 H 380.012 -2.13939 -3.71387 0
M  V30 4136 H 384.196 -3.10766 -3.8696 0
M  V30 4137 H 379.452 -4.49362 -4.14589 0
M  V30 4138 H 383.626 -5.46644 -4.31455 0
M  V30 4139 H 381.253 -6.16418 -4.44896 0
M  V30 4140 N 382.828 1.3818 -0.7579 0
M  V30 4141 C 384.105 1.94106 -0.241306 0
M  V30 4142 C 384.485 1.69282 1.26122 0
M  V30 4143 O 383.833 1.03378 2.03777 0
M  V30 4144 C 384.043 3.43809 -0.59967 0
M  V30 4145 C 385.391 4.20868 -0.561717 0
M  V30 4146 O 386.415 3.5211 -0.538222 0
M  V30 4147 O 385.274 5.43451 -0.576478 0
M  V30 4148 H 382.368 0.825376 -0.0518042 0
M  V30 4149 H 384.914 1.47548 -0.838315 0
M  V30 4150 H 383.686 3.55403 -1.6372 0
M  V30 4151 H 383.309 3.97592 0.0251197 0
M  V30 4152 N 384.306 0.507319 1.49211 0
M  V30 4153 C 385.717 0.0611118 1.866 0
M  V30 4154 C 386.068 -1.35488 1.41907 0
M  V30 4155 O 385.193 -2.0108 0.799726 0
M  V30 4156 C 385.788 0.104125 3.3864 0
M  V30 4157 C 384.347 -0.28677 3.75306 0
M  V30 4158 C 383.494 0.473893 2.73221 0
M  V30 4159 H 386.445 0.719775 1.41439 0
M  V30 4160 H 386.466 -0.689672 3.74198 0
M  V30 4161 H 385.978 1.13482 3.71138 0
M  V30 4162 H 384.079 -1.32046 3.48417 0
M  V30 4163 H 384.192 0.0370745 4.79086 0
M  V30 4164 H 382.556 -0.0770644 2.54583 0
M  V30 4165 H 383.339 1.50478 3.08563 0
M  V30 4166 N 385.784 -1.5574 0.241426 0
M  V30 4167 C 386.694 -2.2479 -0.671305 0
M  V30 4168 C 387.71 -1.26217 -1.19772 0
M  V30 4169 O 388.886 -1.59079 -1.23514 0
M  V30 4170 C 385.951 -2.92966 -1.85396 0
M  V30 4171 C 385.012 -4.06935 -1.36756 0
M  V30 4172 C 384.245 -4.71851 -2.49384 0
M  V30 4173 O 384.468 -4.35823 -3.67987 0
M  V30 4174 O 383.402 -5.60467 -2.19454 0
M  V30 4175 H 387.228 -3.0349 -0.112966 0
M  V30 4176 H 384.813 -1.49397 0.0101513 0
M  V30 4177 H 386.695 -3.35927 -2.54423 0
M  V30 4178 H 385.37 -2.17211 -2.40002 0
M  V30 4179 H 384.277 -3.68503 -0.644726 0
M  V30 4180 H 385.61 -4.84492 -0.867647 0
M  V30 4181 N 387.262 0.0317525 -1.57568 0
M  V30 4182 C 388.209 1.0332 -2.06382 0
M  V30 4183 C 389.179 1.36082 -0.952414 0
M  V30 4184 O 390.364 1.46466 -1.2228 0
M  V30 4185 C 387.504 2.32989 -2.54578 0
M  V30 4186 C 386.617 2.0641 -3.79498 0
M  V30 4187 C 385.752 3.2993 -4.16317 0
M  V30 4188 C 384.791 2.98893 -5.34162 0
M  V30 4189 N 383.928 4.14857 -5.66426 0
M  V30 4190 H 388.768 0.609982 -2.9169 0
M  V30 4191 H 386.305 0.289573 -1.44222 0
M  V30 4192 H 388.263 3.0875 -2.80587 0
M  V30 4193 H 386.893 2.73039 -1.7219 0
M  V30 4194 H 385.945 1.21158 -3.6059 0
M  V30 4195 H 387.257 1.79513 -4.65378 0
M  V30 4196 H 386.411 4.1406 -4.4344 0
M  V30 4197 H 385.15 3.59938 -3.29083 0
M  V30 4198 H 384.155 2.13164 -5.06795 0
M  V30 4199 H 385.38 2.70165 -6.23047 0
M  V30 4200 H 383.326 4.44821 -4.82151 0
M  V30 4201 H 383.243 3.91374 -6.4681 0
M  V30 4202 H 384.511 4.99868 -5.98124 0
M  V30 4203 N 388.74 1.54641 0.303973 0
M  V30 4204 C 389.986 1.74038 1.04109 0
M  V30 4205 C 390.319 0.523051 1.87024 0
M  V30 4206 O 389.594 -0.479874 1.88487 0
M  V30 4207 C 389.877 3.02761 1.94955 0
M  V30 4208 C 389.73 4.34787 1.1524 0
M  V30 4209 C 391.049 3.27336 2.94175 0
M  V30 4210 H 388.168 0.63323 0.377079 0
M  V30 4211 H 390.81 1.87354 0.316001 0
M  V30 4212 H 388.96 2.9154 2.56782 0
M  V30 4213 H 390.632 4.57922 0.557236 0
M  V30 4214 H 388.875 4.31407 0.455053 0
M  V30 4215 H 389.546 5.21116 1.8205 0
M  V30 4216 H 392.022 3.38148 2.42477 0
M  V30 4217 H 390.898 4.18726 3.54908 0
M  V30 4218 H 391.159 2.45491 3.67677 0
M  V30 4219 N 390.218 -0.567019 1.47046 0
M  V30 4220 C 391.634 -0.891975 1.32348 0
M  V30 4221 C 391.834 -1.99154 0.306616 0
M  V30 4222 O 390.89 -2.50883 -0.28532 0
M  V30 4223 C 392.203 -1.29449 2.7141 0
M  V30 4224 C 393.751 -1.40646 2.79621 0
M  V30 4225 C 394.226 -1.84257 4.19301 0
M  V30 4226 N 395.717 -1.91424 4.21795 0
M  V30 4227 C 396.452 -2.26476 5.26779 0
M  V30 4228 N 395.948 -2.60211 6.42077 0
M  V30 4229 N 397.741 -2.27166 5.14152 0
M  V30 4230 H 389.892 0.159074 2.11803 0
M  V30 4231 H 392.155 0.00849752 0.947962 0
M  V30 4232 H 391.861 -0.560448 3.47206 0
M  V30 4233 H 391.735 -2.25273 3.02542 0
M  V30 4234 H 394.122 -2.13133 2.04104 0
M  V30 4235 H 394.203 -0.430339 2.52154 0
M  V30 4236 H 393.847 -1.12343 4.95319 0
M  V30 4237 H 393.777 -2.82855 4.44185 0
M  V30 4238 H 396.268 -1.6778 3.38612 0
M  V30 4239 H 396.581 -2.85956 7.17948 0
M  V30 4240 H 394.926 -2.57813 6.45413 0
M  V30 4241 H 398.117 -2.00244 4.23107 0
M  V30 4242 H 398.29 -2.54154 5.96079 0
M  V30 4243 N 391.696 -1.35014 -0.812953 0
M  V30 4244 C 392.643 -1.27412 -1.92444 0
M  V30 4245 C 393.613 -0.14733 -1.65445 0
M  V30 4246 O 394.798 -0.329974 -1.87925 0
M  V30 4247 C 391.938 -1.04558 -3.28879 0
M  V30 4248 C 391.051 -2.26101 -3.68106 0
M  V30 4249 C 390.186 -1.96449 -4.9354 0
M  V30 4250 C 389.225 -3.14081 -5.25376 0
M  V30 4251 N 388.362 -2.84246 -6.41988 0
M  V30 4252 H 393.202 -2.22463 -1.98278 0
M  V30 4253 H 390.739 -1.10593 -0.969933 0
M  V30 4254 H 392.697 -0.893413 -4.07522 0
M  V30 4255 H 391.327 -0.131719 -3.22531 0
M  V30 4256 H 390.379 -2.52204 -2.84775 0
M  V30 4257 H 391.691 -3.13959 -3.87597 0
M  V30 4258 H 390.845 -1.78026 -5.79993 0
M  V30 4259 H 389.584 -1.05867 -4.76071 0
M  V30 4260 H 388.589 -3.33089 -4.37415 0
M  V30 4261 H 389.814 -4.05455 -5.44778 0
M  V30 4262 H 387.76 -1.96252 -6.25956 0
M  V30 4263 H 387.677 -3.65637 -6.61699 0
M  V30 4264 H 388.945 -2.6935 -7.31485 0
M  V30 4265 N 393.175 1.03435 -1.18907 0
M  V30 4266 C 394.422 1.76743 -0.988334 0
M  V30 4267 C 394.75 1.88447 0.481441 0
M  V30 4268 O 394.005 1.39383 1.37371 0
M  V30 4269 C 394.304 3.19792 -1.59586 0
M  V30 4270 C 393.97 3.28108 -3.09283 0
M  V30 4271 C 392.632 3.30084 -3.5014 0
M  V30 4272 C 394.984 3.27696 -4.05296 0
M  V30 4273 C 392.312 3.29299 -4.85571 0
M  V30 4274 C 394.664 3.28451 -5.4065 0
M  V30 4275 C 393.328 3.28723 -5.80946 0
M  V30 4276 H 392.598 0.64675 -0.361657 0
M  V30 4277 H 395.245 1.21442 -1.48068 0
M  V30 4278 H 393.55 3.78136 -1.02568 0
M  V30 4279 H 395.247 3.75171 -1.41589 0
M  V30 4280 H 391.837 3.27294 -2.76725 0
M  V30 4281 H 396.021 3.25354 -3.74778 0
M  V30 4282 H 391.277 3.2783 -5.16079 0
M  V30 4283 H 395.451 3.27082 -6.14809 0
M  V30 4284 H 393.078 3.27868 -6.85862 0
M  V30 4285 N 394.653 0.992116 1.22453 0
M  V30 4286 C 395.601 0.534644 2.26372 0
M  V30 4287 C 396.595 -0.414293 1.64256 0
M  V30 4288 O 397.801 -0.286899 1.77699 0
M  V30 4289 H 394.176 0.154502 0.735957 0
M  V30 4290 H 396.147 1.42256 2.62309 0
M  V30 4291 C 394.896 -0.135815 3.47435 0
M  V30 4292 H 394.219 0.585311 3.95492 0
M  V30 4293 H 395.659 -0.419374 4.21921 0
M  V30 4294 C 394.118 -1.37089 3.07747 0
M  V30 4295 O 394.648 -2.46629 3.17076 0
M  V30 4296 N 392.854 -1.24585 2.62539 0
M  V30 4297 H 392.401 -0.354542 2.55149 0
M  V30 4298 H 392.359 -2.07327 2.36353 0
M  V30 4299 N 396.131 -1.37776 0.765217 0
M  V30 4300 C 397.078 -2.30342 0.145274 0
M  V30 4301 C 398.048 -1.5077 -0.696971 0
M  V30 4302 O 399.233 -1.79362 -0.650689 0
M  V30 4303 C 396.373 -3.37227 -0.732939 0
M  V30 4304 C 395.486 -4.31819 0.125199 0
M  V30 4305 C 394.621 -5.25777 -0.757107 0
M  V30 4306 C 393.66 -6.12012 0.103963 0
M  V30 4307 N 392.797 -6.98232 -0.735953 0
M  V30 4308 H 397.637 -2.8278 0.940195 0
M  V30 4309 H 395.174 -1.39211 0.475255 0
M  V30 4310 H 397.132 -3.97818 -1.25686 0
M  V30 4311 H 395.762 -2.86171 -1.49353 0
M  V30 4312 H 394.814 -3.7259 0.766865 0
M  V30 4313 H 396.126 -4.92509 0.789683 0
M  V30 4314 H 395.28 -5.91541 -1.34776 0
M  V30 4315 H 394.019 -4.65481 -1.45529 0
M  V30 4316 H 393.024 -5.45233 0.707197 0
M  V30 4317 H 394.249 -6.74379 0.799381 0
M  V30 4318 H 392.195 -6.40472 -1.41887 0
M  V30 4319 H 392.112 -7.55891 -0.128624 0
M  V30 4320 H 393.38 -7.68393 -1.31121 0
M  V30 4321 N 397.609 -0.515225 -1.4894 0
M  V30 4322 C 398.519 0.259774 -2.33157 0
M  V30 4323 C 399.535 0.953501 -1.45548 0
M  V30 4324 O 400.711 0.931735 -1.78552 0
M  V30 4325 C 397.776 1.30193 -3.21326 0
M  V30 4326 C 396.837 0.620129 -4.24797 0
M  V30 4327 C 396.07 1.61263 -5.08753 0
M  V30 4328 O 396.293 2.84389 -4.94448 0
M  V30 4329 O 395.227 1.16013 -5.90614 0
M  V30 4330 H 399.053 -0.429932 -3.00641 0
M  V30 4331 H 396.638 -0.276346 -1.46822 0
M  V30 4332 H 398.52 1.90455 -3.75905 0
M  V30 4333 H 397.195 1.97431 -2.56521 0
M  V30 4334 H 396.102 -0.0226019 -3.74093 0
M  V30 4335 H 397.435 -0.0100493 -4.92199 0
M  V30 4336 N 399.087 1.5561 -0.249682 0
M  V30 4337 C 400.017 2.24477 0.642826 0
M  V30 4338 C 400.998 1.22601 1.17911 0
M  V30 4339 O 402.183 1.5126 1.21795 0
M  V30 4340 C 399.313 2.94638 1.83863 0
M  V30 4341 C 398.267 4.03227 1.435 0
M  V30 4342 C 397.593 4.60828 2.71186 0
M  V30 4343 C 398.893 5.18796 0.604002 0
M  V30 4344 H 400.587 2.99321 0.0685625 0
M  V30 4345 H 398.133 1.43965 0.0315363 0
M  V30 4346 H 400.086 3.41517 2.46868 0
M  V30 4347 H 398.81 2.17287 2.43832 0
M  V30 4348 H 397.469 3.57121 0.828275 0
M  V30 4349 H 397.117 3.80174 3.29358 0
M  V30 4350 H 396.817 5.34132 2.44901 0
M  V30 4351 H 398.341 5.10442 3.35084 0
M  V30 4352 H 399.755 5.61883 1.13842 0
M  V30 4353 H 398.152 5.98506 0.437097 0
M  V30 4354 H 399.222 4.83384 -0.383147 0
M  V30 4355 N 400.565 -0.0233959 1.57583 0
M  V30 4356 C 401.512 -1.02224 2.06927 0
M  V30 4357 C 402.482 -1.35575 0.959617 0
M  V30 4358 O 403.667 -1.45815 1.23055 0
M  V30 4359 C 400.807 -2.31636 2.5581 0
M  V30 4360 C 399.92 -2.04394 3.80588 0
M  V30 4361 C 399.055 -3.27717 4.18061 0
M  V30 4362 C 398.094 -2.96056 5.3574 0
M  V30 4363 N 397.231 -4.11847 5.68618 0
M  V30 4364 H 402.071 -0.594504 2.9201 0
M  V30 4365 H 399.608 -0.281921 1.44373 0
M  V30 4366 H 401.566 -3.07258 2.82221 0
M  V30 4367 H 400.196 -2.72122 1.73636 0
M  V30 4368 H 399.248 -1.19244 3.61227 0
M  V30 4369 H 400.56 -1.77042 4.66323 0
M  V30 4370 H 399.714 -4.11702 4.4563 0
M  V30 4371 H 398.453 -3.58188 3.30988 0
M  V30 4372 H 397.458 -2.10474 5.07918 0
M  V30 4373 H 398.683 -2.66857 6.24471 0
M  V30 4374 H 396.629 -4.42258 4.84504 0
M  V30 4375 H 396.546 -3.87938 6.48876 0
M  V30 4376 H 397.814 -4.96689 6.00766 0
M  V30 4377 N 402.043 -1.548 -0.295768 0
M  V30 4378 C 403.273 -1.78069 -1.04762 0
M  V30 4379 C 403.681 -0.542847 -1.81245 0
M  V30 4380 O 403.024 0.497051 -1.76848 0
M  V30 4381 C 403.086 -2.93881 -2.07061 0
M  V30 4382 C 402.75 -4.31777 -1.49725 0
M  V30 4383 C 403.747 -5.11613 -0.924581 0
M  V30 4384 C 401.432 -4.78389 -1.5313 0
M  V30 4385 C 403.426 -6.36184 -0.393594 0
M  V30 4386 C 401.113 -6.02921 -0.996447 0
M  V30 4387 C 402.111 -6.81654 -0.428569 0
M  V30 4388 O 401.799 -8.0384 0.0981593 0
M  V30 4389 H 401.531 -0.597475 -0.316226 0
M  V30 4390 H 404.085 -2.02584 -0.338973 0
M  V30 4391 H 402.315 -2.65003 -2.81621 0
M  V30 4392 H 404.004 -3.04679 -2.6819 0
M  V30 4393 H 404.77 -4.76743 -0.891136 0
M  V30 4394 H 400.649 -4.17132 -1.9627 0
M  V30 4395 H 404.193 -6.97582 0.0503014 0
M  V30 4396 H 400.09 -6.37277 -1.02706 0
M  V30 4397 H 400.858 -8.18499 -0.0146455 0
M  V30 4398 N 403.521 0.559213 -1.47345 0
M  V30 4399 C 404.751 1.33999 -1.57251 0
M  V30 4400 C 405.159 1.87905 -0.220978 0
M  V30 4401 O 404.502 1.65577 0.795617 0
M  V30 4402 C 404.564 2.54798 -2.53611 0
M  V30 4403 C 404.228 2.22192 -3.99349 0
M  V30 4404 C 405.225 1.79607 -4.87891 0
M  V30 4405 C 402.91 2.33613 -4.44669 0
M  V30 4406 C 404.904 1.48868 -6.19772 0
M  V30 4407 C 402.591 2.02487 -5.76578 0
M  V30 4408 C 403.589 1.60183 -6.63951 0
M  V30 4409 O 403.277 1.29451 -7.93409 0
M  V30 4410 H 403.009 0.414858 -0.533731 0
M  V30 4411 H 405.563 0.684465 -1.9366 0
M  V30 4412 H 403.793 3.23235 -2.12265 0
M  V30 4413 H 405.482 3.16873 -2.53666 0
M  V30 4414 H 406.248 1.70278 -4.54126 0
M  V30 4415 H 402.127 2.65501 -3.76869 0
M  V30 4416 H 405.671 1.15775 -6.87926 0
M  V30 4417 H 401.568 2.11448 -6.09885 0
M  V30 4418 H 402.336 1.43098 -8.05894 0
M  V30 4419 N 404.999 1.35443 0.805782 0
M  V30 4420 C 405.947 1.28465 1.93906 0
M  V30 4421 C 406.941 0.17943 1.68447 0
M  V30 4422 O 408.147 0.345459 1.76654 0
M  V30 4423 H 404.522 0.399528 0.637088 0
M  V30 4424 H 406.493 2.24206 1.96912 0
M  V30 4425 C 405.242 1.07432 3.30687 0
M  V30 4426 H 404.565 1.91716 3.50835 0
M  V30 4427 H 406.005 1.06591 4.10383 0
M  V30 4428 C 404.464 -0.22179 3.36169 0
M  V30 4429 O 404.994 -1.21731 3.82811 0
M  V30 4430 N 403.2 -0.260841 2.89427 0
M  V30 4431 H 402.747 0.549884 2.51663 0
M  V30 4432 H 402.705 -1.12777 2.93477 0
M  V30 4433 N 406.477 -1.02803 1.19454 0
M  V30 4434 C 407.387 -2.14575 0.948408 0
M  V30 4435 C 408.403 -1.73757 -0.091871 0
M  V30 4436 O 409.579 -2.01185 0.0929654 0
M  V30 4437 C 406.644 -3.43202 0.491265 0
M  V30 4438 C 405.705 -3.98328 1.60103 0
M  V30 4439 C 404.938 -5.20816 1.16561 0
M  V30 4440 O 405.161 -5.70392 0.0295238 0
M  V30 4441 O 404.095 -5.68801 1.96849 0
M  V30 4442 H 407.921 -2.38202 1.88397 0
M  V30 4443 H 405.506 -1.12989 0.977433 0
M  V30 4444 H 407.388 -4.20687 0.245015 0
M  V30 4445 H 406.063 -3.21018 -0.415851 0
M  V30 4446 H 404.97 -3.22174 1.90144 0
M  V30 4447 H 406.303 -4.24879 2.48473 0
M  V30 4448 N 407.956 -0.998596 -1.21925 0
M  V30 4449 C 408.866 -0.562736 -2.27751 0
M  V30 4450 C 409.882 0.391203 -1.69545 0
M  V30 4451 O 411.058 0.256625 -1.99758 0
M  V30 4452 C 408.123 0.11012 -3.46525 0
M  V30 4453 C 407.184 -0.887495 -4.20026 0
M  V30 4454 C 406.417 -0.246654 -5.3313 0
M  V30 4455 O 406.64 0.958088 -5.62296 0
M  V30 4456 O 405.574 -0.954374 -5.94286 0
M  V30 4457 H 409.4 -1.44329 -2.67213 0
M  V30 4458 H 406.985 -0.767135 -1.28201 0
M  V30 4459 H 408.867 0.486756 -4.18579 0
M  V30 4460 H 407.542 0.965154 -3.08976 0
M  V30 4461 H 406.449 -1.31517 -3.5022 0
M  V30 4462 H 407.782 -1.71191 -4.6147 0
M  V30 4463 N 409.434 1.37368 -0.772513 0
M  V30 4464 C 410.68 1.99969 -0.337681 0
M  V30 4465 C 411.013 1.61184 1.08321 0
M  V30 4466 O 410.288 0.858395 1.74533 0
M  V30 4467 C 410.571 3.56858 -0.482121 0
M  V30 4468 C 410.424 4.0555 -1.94549 0
M  V30 4469 C 411.743 4.39955 0.113143 0
M  V30 4470 H 408.862 0.726464 -0.124171 0
M  V30 4471 H 411.504 1.63034 -0.975699 0
M  V30 4472 H 409.654 3.88452 0.0610361 0
M  V30 4473 H 411.326 3.84518 -2.54841 0
M  V30 4474 H 409.569 3.57715 -2.45403 0
M  V30 4475 H 410.24 5.14587 -1.9976 0
M  V30 4476 H 412.716 4.14623 -0.35031 0
M  V30 4477 H 411.592 5.48897 -0.0180514 0
M  V30 4478 H 411.853 4.25403 1.20354 0
M  V30 4479 N 410.912 0.523116 1.48665 0
M  V30 4480 C 411.862 -0.263106 2.26477 0
M  V30 4481 C 412.846 -0.916005 1.32281 0
M  V30 4482 O 414.038 -0.819946 1.56863 0
M  V30 4483 C 411.167 -1.31361 3.17174 0
M  V30 4484 C 410.253 -0.665849 4.1884 0
M  V30 4485 N 410.644 0.244434 5.05209 0
M  V30 4486 C 408.942 -0.923863 4.36326 0
M  V30 4487 C 409.643 0.617443 5.78414 0
M  V30 4488 N 408.619 -0.0198686 5.43596 0
M  V30 4489 H 412.421 0.437295 2.90629 0
M  V30 4490 H 409.935 0.340675 1.58787 0
M  V30 4491 H 411.932 -1.89052 3.71571 0
M  V30 4492 H 410.592 -2.01546 2.54576 0
M  V30 4493 H 411.603 0.616621 5.14216 0
M  V30 4494 H 408.28 -1.6168 3.84923 0
M  V30 4495 H 409.67 1.36346 6.57921 0
M  V30 4496 N 412.39 -1.55475 0.257931 0
M  V30 4497 C 413.636 -1.99502 -0.364266 0
M  V30 4498 C 413.969 -1.146 -1.56782 0
M  V30 4499 O 413.244 -0.211968 -1.93342 0
M  V30 4500 C 413.527 -3.51917 -0.763333 0
M  V30 4501 C 413.38 -4.4758 0.446371 0
M  V30 4502 C 414.699 -4.09742 -1.60623 0
M  V30 4503 H 411.818 -0.725277 -0.130929 0
M  V30 4504 H 414.46 -1.8653 0.361446 0
M  V30 4505 H 412.61 -3.63101 -1.38166 0
M  V30 4506 H 414.282 -4.48362 1.08487 0
M  V30 4507 H 412.525 -4.19947 1.08753 0
M  V30 4508 H 413.196 -5.51862 0.123645 0
M  V30 4509 H 415.672 -4.01727 -1.08418 0
M  V30 4510 H 414.548 -5.16631 -1.85429 0
M  V30 4511 H 414.809 -3.58889 -2.58169 0
M  V30 4512 N 413.868 0.0150385 -1.57593 0
M  V30 4513 C 414.831 0.995996 -2.06428 0
M  V30 4514 C 415.831 1.2818 -0.970903 0
M  V30 4515 O 417.021 1.22949 -1.23406 0
M  V30 4516 C 414.153 2.32506 -2.49307 0
M  V30 4517 H 415.346 0.573873 -2.94358 0
M  V30 4518 H 412.899 0.262186 -1.54085 0
M  V30 4519 H 413.634 2.79438 -1.64575 0
M  V30 4520 H 413.419 2.13087 -3.29145 0
M  V30 4521 H 414.909 3.02906 -2.87468 0
M  V30 4522 N 415.346 1.54954 0.287554 0
M  V30 4523 C 416.571 1.79209 1.04397 0
M  V30 4524 C 416.996 0.556431 1.79682 0
M  V30 4525 O 416.354 -0.493518 1.74454 0
M  V30 4526 C 416.402 3.00739 1.98969 0
M  V30 4527 O 415.506 2.74805 3.075 0
M  V30 4528 H 414.847 0.592755 0.299227 0
M  V30 4529 H 417.377 2.02068 0.320886 0
M  V30 4530 H 417.387 3.29077 2.4119 0
M  V30 4531 H 416.062 3.90329 1.43582 0
M  V30 4532 H 414.639 2.57523 2.69697 0
M  V30 4533 N 416.824 -0.551391 1.4764 0
M  V30 4534 C 418.071 -1.3083 1.54563 0
M  V30 4535 C 418.399 -1.93359 0.210361 0
M  V30 4536 O 417.654 -1.78721 -0.797332 0
M  V30 4537 C 417.953 -2.43469 2.61644 0
M  V30 4538 C 417.619 -1.98732 4.04742 0
M  V30 4539 C 416.281 -1.86248 4.43695 0
M  V30 4540 C 418.633 -1.64659 4.94507 0
M  V30 4541 C 415.961 -1.37995 5.70241 0
M  V30 4542 C 418.313 -1.17875 6.21521 0
M  V30 4543 C 416.977 -1.03992 6.5935 0
M  V30 4544 H 416.247 -0.478741 0.565587 0
M  V30 4545 H 418.894 -0.617697 1.81264 0
M  V30 4546 H 417.199 -3.18109 2.28722 0
M  V30 4547 H 418.896 -3.01642 2.64222 0
M  V30 4548 H 415.486 -2.09393 3.73968 0
M  V30 4549 H 419.67 -1.73174 4.65107 0
M  V30 4550 H 414.926 -1.25915 5.98294 0
M  V30 4551 H 419.1 -0.905739 6.90485 0
M  V30 4552 H 416.727 -0.663794 7.57296 0
M  V30 4553 N 418.302 -1.35869 -0.798587 0
M  V30 4554 C 419.265 -1.29307 -1.89242 0
M  V30 4555 C 420.265 -0.202747 -1.59517 0
M  V30 4556 O 421.455 -0.456957 -1.681 0
M  V30 4557 C 418.587 -1.00229 -3.25833 0
M  V30 4558 H 419.78 -2.26576 -1.96478 0
M  V30 4559 H 417.333 -1.20509 -0.995358 0
M  V30 4560 H 418.068 -0.033801 -3.24282 0
M  V30 4561 H 417.853 -1.79121 -3.48795 0
M  V30 4562 H 419.343 -0.98219 -4.05885 0
M  V30 4563 N 419.78 1.02168 -1.19998 0
M  V30 4564 C 420.71 2.12488 -0.96804 0
M  V30 4565 C 421.691 1.69799 0.101185 0
M  V30 4566 O 422.876 1.94121 -0.0552993 0
M  V30 4567 C 420.006 3.43479 -0.513776 0
M  V30 4568 C 418.96 3.99884 -1.52566 0
M  V30 4569 C 418.286 5.26582 -0.928214 0
M  V30 4570 C 419.586 4.33861 -2.90795 0
M  V30 4571 H 421.28 2.32149 -1.89069 0
M  V30 4572 H 418.826 1.11564 -0.910468 0
M  V30 4573 H 420.779 4.20036 -0.338774 0
M  V30 4574 H 419.503 3.23561 0.444493 0
M  V30 4575 H 418.162 3.25429 -1.68794 0
M  V30 4576 H 417.81 5.02986 0.0378289 0
M  V30 4577 H 417.51 5.65284 -1.60397 0
M  V30 4578 H 419.034 6.05799 -0.764167 0
M  V30 4579 H 420.448 5.01327 -2.78109 0
M  V30 4580 H 418.845 4.83664 -3.55231 0
M  V30 4581 H 419.915 3.42848 -3.42904 0
M  V30 4582 N 421.258 1.00505 1.21394 0
M  V30 4583 C 422.669 0.721082 1.72213 0
M  V30 4584 C 423.02 -0.761263 1.80829 0
M  V30 4585 O 422.145 -1.59464 1.46288 0
M  V30 4586 C 422.74 1.30228 3.12772 0
M  V30 4587 C 421.299 1.06743 3.60947 0
M  V30 4588 C 420.446 1.41507 2.38477 0
M  V30 4589 H 423.397 1.17594 1.06571 0
M  V30 4590 H 423.418 0.686955 3.74247 0
M  V30 4591 H 422.93 2.38115 3.06468 0
M  V30 4592 H 421.031 0.00572162 3.726 0
M  V30 4593 H 421.144 1.73936 4.46411 0
M  V30 4594 H 419.508 0.833852 2.40664 0
M  V30 4595 H 420.291 2.50424 2.34824 0
M  V30 4596 N 422.737 -1.36956 0.779787 0
M  V30 4597 C 423.685 -2.32053 0.15942 0
M  V30 4598 C 424.679 -1.55333 -0.675878 0
M  V30 4599 O 425.885 -1.70668 -0.57204 0
M  V30 4600 H 422.26 -0.751286 0.0327707 0
M  V30 4601 H 424.231 -2.8195 0.977078 0
M  V30 4602 C 422.98 -3.40602 -0.698977 0
M  V30 4603 H 422.303 -3.99746 -0.0655966 0
M  V30 4604 H 423.743 -4.09486 -1.09989 0
M  V30 4605 C 422.202 -2.81359 -1.85307 0
M  V30 4606 O 422.732 -2.72751 -2.94906 0
M  V30 4607 N 420.938 -2.38786 -1.65619 0
M  V30 4608 H 420.485 -2.45987 -0.764725 0
M  V30 4609 H 420.443 -1.99493 -2.43002 0
M  V30 4610 N 424.215 -0.530993 -1.48385 0
M  V30 4611 C 425.462 0.0027373 -2.025 0
M  V30 4612 C 425.79 1.34186 -1.40799 0
M  V30 4613 O 425.045 1.88 -0.543544 0
M  V30 4614 C 425.344 0.172742 -3.56982 0
M  V30 4615 C 425.01 -1.09215 -4.37473 0
M  V30 4616 C 423.672 -1.43881 -4.59186 0
M  V30 4617 C 426.024 -1.93153 -4.84088 0
M  V30 4618 C 423.352 -2.62381 -5.2476 0
M  V30 4619 C 425.704 -3.10833 -5.50968 0
M  V30 4620 C 424.368 -3.45843 -5.70919 0
M  V30 4621 H 423.638 0.00100165 -0.740999 0
M  V30 4622 H 426.285 -0.697219 -1.78357 0
M  V30 4623 H 424.59 0.955473 -3.79971 0
M  V30 4624 H 426.287 0.600642 -3.96476 0
M  V30 4625 H 422.877 -0.812177 -4.20834 0
M  V30 4626 H 427.061 -1.67683 -4.67115 0
M  V30 4627 H 422.317 -2.89707 -5.38405 0
M  V30 4628 H 426.491 -3.7618 -5.86056 0
M  V30 4629 H 424.118 -4.37764 -6.21503 0
M  V30 4630 N 425.693 1.55336 -0.266172 0
M  V30 4631 C 426.939 1.99692 0.353681 0
M  V30 4632 C 427.272 1.1543 1.56172 0
M  V30 4633 O 426.547 0.222218 1.93226 0
M  V30 4634 C 426.83 3.52316 0.74466 0
M  V30 4635 C 426.683 4.47337 -0.470101 0
M  V30 4636 C 428.002 4.10588 1.58447 0
M  V30 4637 H 425.121 0.725961 0.12708 0
M  V30 4638 H 427.763 1.86336 -0.371333 0
M  V30 4639 H 425.913 3.63829 1.36239 0
M  V30 4640 H 427.585 4.4778 -1.10864 0
M  V30 4641 H 425.828 4.19364 -1.10978 0
M  V30 4642 H 426.499 5.51788 -0.15291 0
M  V30 4643 H 428.975 4.02297 1.06286 0
M  V30 4644 H 427.851 5.17607 1.82686 0
M  V30 4645 H 428.112 3.60253 2.56262 0
M  V30 4646 N 427.171 -0.0066808 1.57599 0
M  V30 4647 C 428.118 -1.00024 2.08 0
M  V30 4648 C 429.088 -1.34549 0.973943 0
M  V30 4649 O 430.273 -1.44502 1.24595 0
M  V30 4650 C 427.413 -2.2891 2.58252 0
M  V30 4651 C 426.526 -2.00346 3.82734 0
M  V30 4652 C 425.661 -3.23265 4.21513 0
M  V30 4653 C 424.7 -2.90357 5.3885 0
M  V30 4654 N 423.837 -4.05793 5.72954 0
M  V30 4655 H 428.677 -0.563499 2.92624 0
M  V30 4656 H 426.214 -0.266592 1.44664 0
M  V30 4657 H 428.172 -3.04247 2.85464 0
M  V30 4658 H 426.802 -2.70265 1.76512 0
M  V30 4659 H 425.854 -1.15406 3.62471 0
M  V30 4660 H 427.166 -1.72086 4.68175 0
M  V30 4661 H 426.32 -4.06953 4.49971 0
M  V30 4662 H 425.059 -3.54657 3.34768 0
M  V30 4663 H 424.064 -2.05075 5.10122 0
M  V30 4664 H 425.289 -2.60219 6.27266 0
M  V30 4665 H 423.235 -4.37094 4.89167 0
M  V30 4666 H 423.152 -3.81034 6.52954 0
M  V30 4667 H 424.42 -4.90289 6.06001 0
M  V30 4668 N 428.649 -1.55105 -0.279332 0
M  V30 4669 C 429.596 -1.8755 -1.34513 0
M  V30 4670 C 430.566 -0.726384 -1.49375 0
M  V30 4671 O 431.751 -0.977063 -1.63884 0
M  V30 4672 C 428.891 -2.14738 -2.70151 0
M  V30 4673 C 428.004 -3.42285 -2.63562 0
M  V30 4674 C 427.139 -3.59206 -3.91337 0
M  V30 4675 C 426.178 -4.80467 -3.79233 0
M  V30 4676 N 425.315 -4.94079 -4.98829 0
M  V30 4677 H 430.155 -2.78456 -1.06143 0
M  V30 4678 H 427.692 -1.37867 -0.512936 0
M  V30 4679 H 429.65 -2.28501 -3.49061 0
M  V30 4680 H 428.28 -1.27075 -2.96735 0
M  V30 4681 H 427.332 -3.37029 -1.76397 0
M  V30 4682 H 428.644 -4.31328 -2.50515 0
M  V30 4683 H 427.798 -3.72751 -4.78687 0
M  V30 4684 H 426.537 -2.68337 -4.07243 0
M  V30 4685 H 425.542 -4.66932 -2.90266 0
M  V30 4686 H 426.767 -5.72765 -3.64852 0
M  V30 4687 H 424.713 -4.06139 -5.15158 0
M  V30 4688 H 424.63 -5.77156 -4.8829 0
M  V30 4689 H 425.898 -5.12003 -5.8777 0
M  V30 4690 N 430.127 0.543554 -1.4793 0
M  V30 4691 C 431.037 1.67657 -1.64098 0
M  V30 4692 C 432.053 1.65934 -0.523622 0
M  V30 4693 O 433.229 1.85133 -0.792943 0
M  V30 4694 C 430.294 3.04146 -1.66421 0
M  V30 4695 C 429.355 3.16831 -2.89684 0
M  V30 4696 C 428.588 4.46809 -2.91886 0
M  V30 4697 O 428.811 5.33095 -2.02895 0
M  V30 4698 O 427.745 4.63573 -3.83906 0
M  V30 4699 H 431.571 1.56957 -2.59997 0
M  V30 4700 H 429.156 0.715116 -1.31173 0
M  V30 4701 H 431.038 3.85346 -1.70548 0
M  V30 4702 H 429.713 3.152 -0.736923 0
M  V30 4703 H 428.62 2.34977 -2.91095 0
M  V30 4704 H 429.953 3.10687 -3.81752 0
M  V30 4705 N 431.605 1.3629 0.791371 0
M  V30 4706 C 432.535 1.33137 1.91825 0
M  V30 4707 C 433.516 0.203168 1.68882 0
M  V30 4708 O 434.701 0.400509 1.90025 0
M  V30 4709 C 431.831 1.11793 3.28816 0
M  V30 4710 C 430.785 2.21417 3.66277 0
M  V30 4711 C 430.111 1.85218 5.01596 0
M  V30 4712 C 431.411 3.63489 3.75064 0
M  V30 4713 H 433.105 2.2743 1.9472 0
M  V30 4714 H 430.651 1.09479 0.935437 0
M  V30 4715 H 432.604 1.08222 4.07266 0
M  V30 4716 H 431.328 0.139501 3.26302 0
M  V30 4717 H 429.987 2.2411 2.90121 0
M  V30 4718 H 429.635 0.859544 4.95602 0
M  V30 4719 H 429.335 2.58611 5.27631 0
M  V30 4720 H 430.859 1.832 5.82469 0
M  V30 4721 H 432.273 3.63034 4.43711 0
M  V30 4722 H 430.67 4.35771 4.12582 0
M  V30 4723 H 431.74 3.98536 2.76219 0
M  V30 4724 N 433.083 -1.0153 1.20538 0
M  V30 4725 C 434.331 -1.74803 1.01432 0
M  V30 4726 C 434.652 -1.8963 -0.454456 0
M  V30 4727 O 433.922 -1.43975 -1.32846 0
M  V30 4728 H 432.502 -0.647598 0.372324 0
M  V30 4729 H 435.164 -1.22402 1.5167 0
M  V30 4730 H 434.26 -2.75114 1.47373 0
M  V30 4731 N 434.561 -1.01147 -1.20859 0
M  V30 4732 C 435.491 -0.597663 -2.25722 0
M  V30 4733 C 436.472 0.384744 -1.65692 0
M  V30 4734 O 437.657 0.271303 -1.92296 0
M  V30 4735 C 434.787 0.0700149 -3.47229 0
M  V30 4736 C 433.741 -0.832843 -4.19819 0
M  V30 4737 C 433.067 -0.0312202 -5.34691 0
M  V30 4738 C 434.367 -2.1385 -4.76514 0
M  V30 4739 H 436.061 -1.47423 -2.60589 0
M  V30 4740 H 433.607 -0.710301 -1.25263 0
M  V30 4741 H 435.56 0.37103 -4.19763 0
M  V30 4742 H 434.284 0.981259 -3.11511 0
M  V30 4743 H 432.943 -1.11778 -3.49144 0
M  V30 4744 H 432.591 0.881515 -4.95215 0
M  V30 4745 H 432.291 -0.632434 -5.84187 0
M  V30 4746 H 433.815 0.26346 -6.10031 0
M  V30 4747 H 435.229 -1.9002 -5.40893 0
M  V30 4748 H 433.626 -2.69012 -5.36426 0
M  V30 4749 H 434.696 -2.80495 -3.95538 0
M  V30 4750 N 436.039 1.36541 -0.78704 0
M  V30 4751 C 436.972 2.27831 -0.129765 0
M  V30 4752 C 437.95 1.47105 0.692732 0
M  V30 4753 O 439.134 1.7641 0.664222 0
M  V30 4754 C 436.261 3.28577 0.821883 0
M  V30 4755 C 435.307 4.26422 0.0814771 0
M  V30 4756 S 436.14 5.20919 -1.24112 0
M  V30 4757 C 437.296 6.25212 -0.293409 0
M  V30 4758 H 437.529 2.83229 -0.903811 0
M  V30 4759 H 435.062 1.43046 -0.581144 0
M  V30 4760 H 437.02 3.87123 1.3655 0
M  V30 4761 H 435.681 2.72096 1.56916 0
M  V30 4762 H 434.874 4.97554 0.803485 0
M  V30 4763 H 434.476 3.71944 -0.391589 0
M  V30 4764 H 436.768 6.75435 0.528622 0
M  V30 4765 H 437.711 7.01378 -0.973344 0
M  V30 4766 H 438.119 5.64407 0.102196 0
M  V30 4767 O 437.556 0.680126 1.4648 0
M  V30 4768 H 438.247 0.213972 1.92515 0
M  V30 END ATOM
M  V30 BEGIN BOND
M  V30 END BOND
M  V30 END CTAB
M  END
$$$$
