drugbank_target|Q9WZK0 Phosphopantetheine adenylyltransferase (DB03912)
 OpenBabel12092120023D

  0  0  0     0  0            999 V3000
M  V30 BEGIN CTAB
M  V30 COUNTS 2629 2651 0 0 0
M  V30 BEGIN ATOM
M  V30 1 H -0.908 1.98254 -0.117106 0
M  V30 2 N 0 1.576 0 0
M  V30 3 C 0.933 2.03868 1.02534 0
M  V30 4 C 1.911 0.928543 1.3348 0
M  V30 5 O 3.095 1.19667 1.45644 0
M  V30 6 C 0.222 2.43627 2.35294 0
M  V30 7 C -0.732 3.65373 2.2001 0
M  V30 8 S 0.101 5.13292 1.52614 0
M  V30 9 C 1.257 5.56322 2.86805 0
M  V30 10 H 1.49 2.90518 0.631377 0
M  V30 11 H -0.977 1.52953 0.210867 0
M  V30 12 H 0.981 2.67203 3.11629 0
M  V30 13 H -0.358 1.57376 2.7183 0
M  V30 14 H -1.165 3.90944 3.18086 0
M  V30 15 H -1.563 3.418 1.51819 0
M  V30 16 H 0.729 5.58782 3.83104 0
M  V30 17 H 1.672 6.56266 2.65933 0
M  V30 18 H 2.08 4.83886 2.90714 0
M  V30 19 N 1.4781 -0.272755 1.55222 0
M  V30 20 C 2.4251 -1.33716 1.88119 0
M  V30 21 C 3.3951 -1.49066 0.73271 0
M  V30 22 O 4.5801 -1.63469 0.984002 0
M  V30 23 C 1.7201 -2.69238 2.15882 0
M  V30 24 C 0.8331 -2.62108 3.43399 0
M  V30 25 C -0.0319 -3.89811 3.60861 0
M  V30 26 C -0.9929 -3.77193 4.8207 0
M  V30 27 N -1.8559 -4.9673 4.96189 0
M  V30 28 H 2.9841 -1.04962 2.78903 0
M  V30 29 H 0.5211 -0.507088 1.38083 0
M  V30 30 H 2.4791 -3.48089 2.29978 0
M  V30 31 H 1.1091 -2.96194 1.28331 0
M  V30 32 H 0.1611 -1.74967 3.37773 0
M  V30 33 H 1.4731 -2.48685 4.32386 0
M  V30 34 H 0.6271 -4.77103 3.74777 0
M  V30 35 H -0.6339 -4.06102 2.7006 0
M  V30 36 H -1.6289 -2.88284 4.68159 0
M  V30 37 H -0.4039 -3.62421 5.74307 0
M  V30 38 H -2.4579 -5.13431 4.08319 0
M  V30 39 H -2.5409 -4.85839 5.79221 0
M  V30 40 H -1.2729 -5.85594 5.1449 0
M  V30 41 N 2.9562 -1.48159 -0.537278 0
M  V30 42 C 3.9192 -1.61665 -1.62472 0
M  V30 43 C 4.9192 -0.490395 -1.5314 0
M  V30 44 O 6.1092 -0.755998 -1.5694 0
M  V30 45 C 3.2412 -1.57997 -3.02076 0
M  V30 46 H 4.4342 -2.58621 -1.51839 0
M  V30 47 H 1.9872 -1.36647 -0.758771 0
M  V30 48 H 2.7222 -0.624913 -3.18222 0
M  V30 49 H 2.5072 -2.39755 -3.10258 0
M  V30 50 H 3.9972 -1.70627 -3.81151 0
M  V30 51 N 4.4343 0.785586 -1.36625 0
M  V30 52 C 5.6803 1.54591 -1.31261 0
M  V30 53 C 6.0133 1.93906 0.106823 0
M  V30 54 O 5.2883 1.63007 1.06108 0
M  V30 55 C 5.5713 2.82038 -2.23889 0
M  V30 56 C 5.4243 2.49066 -3.74548 0
M  V30 57 C 6.7433 3.83887 -2.15217 0
M  V30 58 H 3.8623 0.560846 -0.478143 0
M  V30 59 H 6.5043 0.902278 -1.67209 0
M  V30 60 H 4.6543 3.36961 -1.93363 0
M  V30 61 H 6.3263 2.00164 -4.15611 0
M  V30 62 H 4.5693 1.81954 -3.93796 0
M  V30 63 H 5.2403 3.40109 -4.34776 0
M  V30 64 H 7.7163 3.38421 -2.42096 0
M  V30 65 H 6.5923 4.70806 -2.82193 0
M  V30 66 H 6.8533 4.27131 -1.14068 0
M  V30 67 N 5.9124 1.20967 1.01018 0
M  V30 68 C 7.1424 1.04803 1.78044 0
M  V30 69 C 7.5504 -0.405462 1.84804 0
M  V30 70 O 6.8934 -1.2932 1.30468 0
M  V30 71 C 6.9554 1.56377 3.23707 0
M  V30 72 C 6.6194 3.04767 3.40538 0
M  V30 73 C 7.6164 4.02366 3.29239 0
M  V30 74 C 5.3014 3.43862 3.66147 0
M  V30 75 C 7.2954 5.37049 3.43304 0
M  V30 76 C 4.9824 4.78699 3.79855 0
M  V30 77 C 5.9804 5.75101 3.68439 0
M  V30 78 O 5.6684 7.07493 3.81719 0
M  V30 79 H 5.4004 0.368778 0.56655 0
M  V30 80 H 7.9544 1.60642 1.27997 0
M  V30 81 H 6.1844 0.949297 3.74867 0
M  V30 82 H 7.8734 1.36136 3.8239 0
M  V30 83 H 8.6394 3.73506 3.09384 0
M  V30 84 H 4.5184 2.69364 3.74118 0
M  V30 85 H 8.0624 6.12277 3.34309 0
M  V30 86 H 3.9594 5.07247 3.99213 0
M  V30 87 H 4.7274 7.1483 3.98697 0
M  V30 88 N 7.3905 -1.2043 1.01659 0
M  V30 89 C 8.8015 -1.71517 0.737482 0
M  V30 90 C 9.1525 -1.81547 -0.743973 0
M  V30 91 O 8.2775 -1.47803 -1.58061 0
M  V30 92 C 8.8725 -3.11515 1.33206 0
M  V30 93 C 7.4315 -3.59912 1.10183 0
M  V30 94 C 6.5785 -2.37116 1.43776 0
M  V30 95 H 9.5295 -1.05444 1.18606 0
M  V30 96 H 9.5505 -3.73575 0.722636 0
M  V30 97 H 9.0625 -3.04182 2.41028 0
M  V30 98 H 7.1635 -3.72577 0.0412756 0
M  V30 99 H 7.2765 -4.44731 1.78188 0
M  V30 100 H 5.6405 -2.39857 0.856778 0
M  V30 101 H 6.4235 -2.32424 2.52654 0
M  V30 102 N 8.8686 -0.792821 -1.36206 0
M  V30 103 C 10.1166 -0.366062 -1.98757 0
M  V30 104 C 10.4376 1.0668 -1.63231 0
M  V30 105 O 9.7076 1.73587 -0.907978 0
M  V30 106 H 8.2876 -0.132364 -0.735179 0
M  V30 107 H 10.9496 -1.01562 -1.66347 0
M  V30 108 H 10.0456 -0.460638 -3.08682 0
M  V30 109 N 10.3467 1.47872 -0.545128 0
M  V30 110 C 11.5717 2.07391 -0.0190611 0
M  V30 111 C 11.9967 1.39688 1.25971 0
M  V30 112 O 11.3547 0.467816 1.7516 0
M  V30 113 C 11.4027 3.60188 0.172335 0
M  V30 114 O 10.5067 3.9339 1.23766 0
M  V30 115 H 9.8477 0.662411 -0.0459059 0
M  V30 116 H 12.3777 1.90066 -0.757365 0
M  V30 117 H 12.3877 4.06129 0.390305 0
M  V30 118 H 11.0627 4.08865 -0.761725 0
M  V30 119 H 9.6397 3.5921 1.00114 0
M  V30 120 N 11.8248 0.280983 1.55075 0
M  V30 121 C 13.0718 -0.334115 1.99725 0
M  V30 122 C 13.3998 -1.5542 1.1694 0
M  V30 123 O 12.6548 -1.94361 0.228531 0
M  V30 124 C 12.9538 -0.754656 3.49342 0
M  V30 125 C 12.6198 0.361445 4.49449 0
M  V30 126 C 11.2818 0.667893 4.76542 0
M  V30 127 C 13.6338 1.11322 5.09173 0
M  V30 128 C 10.9618 1.7296 5.60626 0
M  V30 129 C 13.3138 2.1647 5.9441 0
M  V30 130 C 11.9778 2.47742 6.19822 0
M  V30 131 H 11.2478 -0.122261 0.730844 0
M  V30 132 H 13.8948 0.395917 1.87363 0
M  V30 133 H 12.1998 -1.56446 3.5921 0
M  V30 134 H 13.8968 -1.24142 3.813 0
M  V30 135 H 10.4868 0.112481 4.28452 0
M  V30 136 H 14.6708 0.88973 4.8826 0
M  V30 137 H 9.9268 1.97684 5.78559 0
M  V30 138 H 14.1008 2.75193 6.3972 0
M  V30 139 H 11.7278 3.30145 6.84769 0
M  V30 140 N 13.3029 -1.57598 0.00835791 0
M  V30 141 C 14.5799 -1.82172 -0.712235 0
M  V30 142 C 14.9599 -0.887873 -1.9152 0
M  V30 143 O 14.3079 0.06146 -2.28417 0
M  V30 144 C 14.5179 -3.30875 -1.11008 0
M  V30 145 C 15.8659 -3.96826 -1.51044 0
M  V30 146 O 16.8899 -3.35248 -1.20364 0
M  V30 147 O 15.7489 -5.05318 -2.08125 0
M  V30 148 H 12.8429 -0.750435 -0.347529 0
M  V30 149 H 15.3889 -1.69665 0.0344523 0
M  V30 150 H 14.1609 -3.90481 -0.252982 0
M  V30 151 H 13.7839 -3.48412 -1.9156 0
M  V30 152 N 14.781 0.264519 -1.55364 0
M  V30 153 C 16.192 0.834936 -1.6699 0
M  V30 154 C 16.543 1.86718 -0.602552 0
M  V30 155 O 15.668 2.14899 0.254425 0
M  V30 156 C 16.263 1.5212 -3.02729 0
M  V30 157 C 14.822 2.03954 -3.16354 0
M  V30 158 C 13.969 0.884498 -2.62815 0
M  V30 159 H 16.92 0.0406869 -1.58648 0
M  V30 160 H 16.941 2.38853 -2.96191 0
M  V30 161 H 16.453 0.769668 -3.80392 0
M  V30 162 H 14.554 2.82041 -2.43482 0
M  V30 163 H 14.667 2.24902 -4.23032 0
M  V30 164 H 13.031 1.2802 -2.20188 0
M  V30 165 H 13.814 0.14634 -3.42988 0
M  V30 166 N 16.2591 1.48442 0.529413 0
M  V30 167 C 17.5081 1.55742 1.28169 0
M  V30 168 C 17.8211 0.236511 1.94165 0
M  V30 169 O 19.0271 0.187761 2.7085 0
M  V30 170 C 17.4831 2.74667 2.32564 0
M  V30 171 C 17.0911 4.13402 1.72636 0
M  V30 172 C 18.8351 2.9128 3.08798 0
M  V30 173 C 16.7421 5.23587 2.74975 0
M  V30 174 H 15.6721 0.579796 0.48203 0
M  V30 175 H 18.3231 1.74776 0.559056 0
M  V30 176 H 16.7051 2.49067 3.07866 0
M  V30 177 H 17.8791 4.49022 1.03519 0
M  V30 178 H 16.1941 4.0191 1.08892 0
M  V30 179 H 18.7911 3.70767 3.85274 0
M  V30 180 H 19.1341 2.00757 3.64695 0
M  V30 181 H 19.6671 3.16782 2.40611 0
M  V30 182 H 16.4061 6.16076 2.23897 0
M  V30 183 H 15.9261 4.92454 3.42417 0
M  V30 184 H 17.6051 5.51724 3.37949 0
M  V30 185 N 17.7372 -0.778329 1.37039 0
M  V30 186 C 18.9652 -1.56734 1.35063 0
M  V30 187 C 19.3802 -1.88686 -0.0655597 0
M  V30 188 O 18.7372 -1.5096 -1.02554 0
M  V30 189 C 18.7882 -2.88163 2.18276 0
M  V30 190 O 18.5092 -2.57583 3.54376 0
M  V30 191 C 20.0102 -3.82422 2.24206 0
M  V30 192 H 17.2302 -0.485778 0.462883 0
M  V30 193 H 19.7742 -0.965185 1.8029 0
M  V30 194 H 17.9292 -3.44818 1.76576 0
M  V30 195 H 18.3432 -3.41699 3.97922 0
M  V30 196 H 19.8172 -4.71667 2.86765 0
M  V30 197 H 20.2942 -4.21078 1.24861 0
M  V30 198 H 20.9002 -3.31697 2.6619 0
M  V30 199 N 19.2153 -1.21501 -1.00376 0
M  V30 200 C 20.1453 -0.999478 -2.11028 0
M  V30 201 C 21.1263 0.0759671 -1.6993 0
M  V30 202 O 22.3113 -0.0841106 -1.94018 0
M  V30 203 C 19.4413 -0.564709 -3.42678 0
M  V30 204 C 18.3953 -1.58486 -3.97576 0
M  V30 205 C 17.7213 -1.00628 -5.25146 0
M  V30 206 C 19.0213 -2.97204 -4.29496 0
M  V30 207 H 20.7153 -1.92495 -2.29317 0
M  V30 208 H 18.2613 -0.92693 -1.102 0
M  V30 209 H 20.2143 -0.401091 -4.19487 0
M  V30 210 H 18.9383 0.396411 -3.24185 0
M  V30 211 H 17.5973 -1.73606 -3.22888 0
M  V30 212 H 17.2453 -0.0368439 -5.02987 0
M  V30 213 H 16.9453 -1.68771 -5.62841 0
M  V30 214 H 18.4693 -0.854015 -6.04598 0
M  V30 215 H 19.8833 -2.8552 -4.97143 0
M  V30 216 H 18.2803 -3.62372 -4.78338 0
M  V30 217 H 19.3503 -3.47956 -3.3772 0
M  V30 218 N 20.6934 1.19889 -1.02296 0
M  V30 219 C 21.9414 1.89046 -0.714558 0
M  V30 220 C 22.2624 1.79636 0.758681 0
M  V30 221 O 21.5324 1.20292 1.54618 0
M  V30 222 H 20.1124 0.699802 -0.261317 0
M  V30 223 H 22.7744 1.45574 -1.29592 0
M  V30 224 H 21.8704 2.95524 -1.0036 0
M  V30 225 N 22.1715 0.800033 1.35784 0
M  V30 226 C 23.1215 0.178654 2.27299 0
M  V30 227 C 24.1055 -0.643667 1.47464 0
M  V30 228 O 25.2975 -0.502 1.69732 0
M  V30 229 C 22.4265 -0.677194 3.36555 0
M  V30 230 C 21.5125 0.154497 4.23818 0
M  V30 231 N 21.9035 1.21427 4.91008 0
M  V30 232 C 20.2015 -0.0649462 4.45953 0
M  V30 233 C 20.9025 1.72147 5.55644 0
M  V30 234 N 19.8785 1.02897 5.33773 0
M  V30 235 H 23.6805 0.989637 2.76737 0
M  V30 236 H 21.1945 0.64054 1.49234 0
M  V30 237 H 23.1915 -1.13835 4.01058 0
M  V30 238 H 21.8515 -1.4866 2.8867 0
M  V30 239 H 22.8625 1.59684 4.92668 0
M  V30 240 H 19.5395 -0.844016 4.0888 0
M  V30 241 H 20.9295 2.60683 6.19269 0
M  V30 242 N 23.6496 -1.47581 0.552962 0
M  V30 243 C 24.8956 -2.02782 0.0273648 0
M  V30 244 C 25.2286 -1.42687 -1.31734 0
M  V30 245 O 24.5036 -0.580897 -1.85623 0
M  V30 246 C 24.7866 -3.60031 -0.0702371 0
M  V30 247 C 24.6396 -4.30566 1.30126 0
M  V30 248 C 25.9586 -4.33028 -0.785771 0
M  V30 249 H 23.0776 -0.736912 0.0114185 0
M  V30 250 H 25.7196 -1.76056 0.714432 0
M  V30 251 H 23.8696 -3.82932 -0.655382 0
M  V30 252 H 25.5416 -4.19018 1.92929 0
M  V30 253 H 23.7846 -3.91086 1.87709 0
M  V30 254 H 24.4556 -5.39114 1.18573 0
M  V30 255 H 26.9316 -4.15095 -0.288982 0
M  V30 256 H 25.8076 -5.42695 -0.823013 0
M  V30 257 H 26.0686 -4.01945 -1.841 0
M  V30 258 N 25.1277 -0.289203 -1.54924 0
M  V30 259 C 26.4047 0.376032 -1.91951 0
M  V30 260 C 26.7847 1.72622 -1.21511 0
M  V30 261 O 26.1327 2.25853 -0.346767 0
M  V30 262 C 26.3427 0.502378 -3.45365 0
M  V30 263 C 27.6907 0.778741 -4.17398 0
M  V30 264 O 28.7147 0.586647 -3.51336 0
M  V30 265 O 27.5737 1.14698 -5.34328 0
M  V30 266 H 24.6677 0.208167 -0.800372 0
M  V30 267 H 27.2137 -0.336394 -1.66332 0
M  V30 268 H 25.9857 -0.447255 -3.88736 0
M  V30 269 H 25.6087 1.26373 -3.76982 0
M  V30 270 N 26.6058 1.57591 -0.0167156 0
M  V30 271 C 27.8548 1.90461 0.663877 0
M  V30 272 C 28.1678 0.893515 1.73999 0
M  V30 273 O 29.3738 1.11302 2.47637 0
M  V30 274 C 27.8298 3.38155 1.23204 0
M  V30 275 C 27.4378 4.47597 0.189866 0
M  V30 276 C 29.1818 3.80111 1.88986 0
M  V30 277 C 27.0888 5.86379 0.768964 0
M  V30 278 H 26.0188 0.710738 0.251729 0
M  V30 279 H 28.6698 1.83326 -0.0799926 0
M  V30 280 H 27.0518 3.40182 2.02712 0
M  V30 281 H 28.2258 4.57112 -0.581846 0
M  V30 282 H 26.5408 4.14766 -0.368475 0
M  V30 283 H 29.1378 4.81145 2.33247 0
M  V30 284 H 29.4808 3.14511 2.72743 0
M  V30 285 H 30.0138 3.80454 1.16187 0
M  V30 286 H 26.7528 6.55493 -0.0301957 0
M  V30 287 H 26.2728 5.80496 1.50945 0
M  V30 288 H 27.9518 6.34563 1.26251 0
M  V30 289 N 28.0839 -0.256276 1.55502 0
M  V30 290 C 29.3329 -0.983486 1.76098 0
M  V30 291 C 29.6459 -1.86837 0.578896 0
M  V30 292 O 30.8519 -2.63163 0.667648 0
M  V30 293 C 29.3079 -1.79868 3.1173 0
M  V30 294 C 28.9159 -0.961648 4.37557 0
M  V30 295 C 30.6599 -2.51919 3.41668 0
M  V30 296 C 28.5669 -1.77219 5.64223 0
M  V30 297 H 27.4969 -0.370936 0.656447 0
M  V30 298 H 30.1479 -0.238492 1.81944 0
M  V30 299 H 28.5299 -2.58527 2.99966 0
M  V30 300 H 29.7039 -0.218048 4.60284 0
M  V30 301 H 28.0189 -0.354913 4.14885 0
M  V30 302 H 30.6159 -3.12998 4.33516 0
M  V30 303 H 30.9589 -3.23059 2.62562 0
M  V30 304 H 31.4919 -1.80278 3.54605 0
M  V30 305 H 28.2309 -1.10471 6.46124 0
M  V30 306 H 27.7509 -2.49132 5.45613 0
M  V30 307 H 29.4299 -2.34169 6.03137 0
M  V30 308 N 29.562 -1.4872 -0.521534 0
M  V30 309 C 30.509 -1.63871 -1.62527 0
M  V30 310 C 31.479 -0.480559 -1.58996 0
M  V30 311 O 32.664 -0.705085 -1.77294 0
M  V30 312 C 29.804 -1.69227 -3.00759 0
M  V30 313 C 28.917 -2.96207 -3.14461 0
M  V30 314 C 28.052 -2.92671 -4.43303 0
M  V30 315 C 27.091 -4.14318 -4.50563 0
M  V30 316 N 26.228 -4.0881 -5.70805 0
M  V30 317 H 31.068 -2.58123 -1.48918 0
M  V30 318 H 28.605 -1.28 -0.724878 0
M  V30 319 H 30.563 -1.70314 -3.80853 0
M  V30 320 H 29.193 -0.784586 -3.1312 0
M  V30 321 H 28.245 -3.04826 -2.27564 0
M  V30 322 H 29.557 -3.86192 -3.15686 0
M  V30 323 H 28.711 -2.92206 -5.31696 0
M  V30 324 H 27.45 -2.00429 -4.44612 0
M  V30 325 H 26.455 -4.15049 -3.60575 0
M  V30 326 H 27.68 -5.07729 -4.50986 0
M  V30 327 H 25.626 -3.19394 -5.72995 0
M  V30 328 H 25.543 -4.92509 -5.7356 0
M  V30 329 H 26.811 -4.12418 -6.61462 0
M  V30 330 N 31.0401 0.771051 -1.3745 0
M  V30 331 C 32.4561 1.07171 -1.18265 0
M  V30 332 C 32.6561 2.01491 -0.019287 0
M  V30 333 O 31.7121 2.44244 0.640408 0
M  V30 334 C 33.0251 1.66854 -2.50161 0
M  V30 335 C 34.5731 1.79109 -2.56689 0
M  V30 336 C 35.0481 2.42205 -3.88717 0
M  V30 337 N 36.5391 2.49655 -3.90162 0
M  V30 338 C 37.2741 2.9933 -4.8907 0
M  V30 339 N 36.7701 3.49172 -5.98374 0
M  V30 340 N 38.5631 2.9821 -4.76474 0
M  V30 341 H 30.7141 0.144796 -2.11906 0
M  V30 342 H 32.9771 0.126863 -0.939473 0
M  V30 343 H 32.6831 1.05017 -3.35655 0
M  V30 344 H 32.5571 2.6614 -2.673 0
M  V30 345 H 34.9441 2.40077 -1.71601 0
M  V30 346 H 35.0251 0.785757 -2.43433 0
M  V30 347 H 34.6691 1.81875 -4.74219 0
M  V30 348 H 34.5991 3.43345 -3.99276 0
M  V30 349 H 37.0901 2.14383 -3.11205 0
M  V30 350 H 37.4031 3.8548 -6.69795 0
M  V30 351 H 35.7481 3.47275 -6.02018 0
M  V30 352 H 38.9391 2.58572 -3.90203 0
M  V30 353 H 39.1121 3.36613 -5.53711 0
M  V30 354 N 32.5182 1.22032 0.997298 0
M  V30 355 C 33.4812 0.987909 2.06816 0
M  V30 356 C 34.4812 -0.0440084 1.6074 0
M  V30 357 O 35.6712 0.194053 1.73116 0
M  V30 358 C 32.8032 0.49132 3.37341 0
M  V30 359 H 33.9962 1.93803 2.28868 0
M  V30 360 H 31.5492 1.03838 1.16822 0
M  V30 361 H 32.2842 -0.463364 3.20973 0
M  V30 362 H 32.0692 1.23575 3.72118 0
M  V30 363 H 33.5592 0.348824 4.16141 0
M  V30 364 N 33.9963 -1.19345 1.0293 0
M  V30 365 C 34.9263 -2.2481 0.631105 0
M  V30 366 C 35.9073 -1.66245 -0.360104 0
M  V30 367 O 37.0923 -1.92677 -0.242726 0
M  V30 368 C 34.2223 -3.47295 -0.0184607 0
M  V30 369 C 33.1763 -4.18536 0.895073 0
M  V30 370 C 32.5023 -5.34586 0.110592 0
M  V30 371 C 33.8023 -4.73287 2.209 0
M  V30 372 H 35.4963 -2.58372 1.51275 0
M  V30 373 H 33.0423 -1.24194 0.728818 0
M  V30 374 H 34.9953 -4.20268 -0.308675 0
M  V30 375 H 33.7193 -3.12933 -0.934907 0
M  V30 376 H 32.3783 -3.47446 1.16949 0
M  V30 377 H 32.0263 -4.96469 -0.807902 0
M  V30 378 H 31.7263 -5.83183 0.719087 0
M  V30 379 H 33.2503 -6.10355 -0.172871 0
M  V30 380 H 34.6643 -5.38013 1.98028 0
M  V30 381 H 33.0613 -5.32373 2.76946 0
M  V30 382 H 34.1313 -3.91331 2.86336 0
M  V30 383 N 35.4744 -0.807222 -1.35358 0
M  V30 384 C 36.6994 -0.399309 -2.0352 0
M  V30 385 C 37.1244 0.981986 -1.60433 0
M  V30 386 O 36.4824 1.63601 -0.781299 0
M  V30 387 C 36.5304 -0.491552 -3.57234 0
M  V30 388 O 35.6344 0.494754 -4.09421 0
M  V30 389 H 34.9754 -0.166682 -0.642739 0
M  V30 390 H 37.5054 -1.09328 -1.72941 0
M  V30 391 H 37.5154 -0.361588 -4.06395 0
M  V30 392 H 36.1904 -1.49907 -3.87944 0
M  V30 393 H 34.7674 0.324977 -3.71481 0
M  V30 394 N 36.9525 1.47285 -0.560781 0
M  V30 395 C 38.2015 2.01668 -0.035895 0
M  V30 396 C 38.5145 1.44021 1.32353 0
M  V30 397 O 39.7205 1.90088 1.93853 0
M  V30 398 C 38.1765 3.59897 -0.0136659 0
M  V30 399 C 37.7845 4.26536 -1.37006 0
M  V30 400 C 39.5285 4.22017 0.458425 0
M  V30 401 C 37.4355 5.76782 -1.30675 0
M  V30 402 H 36.3655 0.753938 -0.00964879 0
M  V30 403 H 39.0165 1.69243 -0.709166 0
M  V30 404 H 37.3985 3.89301 0.725325 0
M  V30 405 H 38.5725 4.0877 -2.12705 0
M  V30 406 H 36.8875 3.76419 -1.78038 0
M  V30 407 H 39.4845 5.32124 0.524247 0
M  V30 408 H 39.8275 3.89437 1.4712 0
M  V30 409 H 40.3605 3.97159 -0.225818 0
M  V30 410 H 37.0995 6.13988 -2.29564 0
M  V30 411 H 36.6195 5.96875 -0.591622 0
M  V30 412 H 38.2985 6.39063 -1.01033 0
M  V30 413 N 38.4306 0.297415 1.54768 0
M  V30 414 C 39.6776 -0.312913 2.00068 0
M  V30 415 C 40.0056 -1.54171 1.18582 0
M  V30 416 O 39.2606 -1.94108 0.249133 0
M  V30 417 C 39.5596 -0.717561 3.50123 0
M  V30 418 C 39.2256 0.409095 4.4904 0
M  V30 419 C 37.8876 0.718399 4.75807 0
M  V30 420 C 40.2396 1.16717 5.07963 0
M  V30 421 C 37.5676 1.78896 5.5876 0
M  V30 422 C 39.9196 2.22762 5.92081 0
M  V30 423 C 38.5836 2.54303 6.1716 0
M  V30 424 H 37.8536 -0.114503 0.7321 0
M  V30 425 H 40.5006 0.415767 1.86932 0
M  V30 426 H 38.8056 -1.52627 3.60849 0
M  V30 427 H 40.5026 -1.20091 3.82595 0
M  V30 428 H 37.0926 0.157918 4.28309 0
M  V30 429 H 41.2766 0.941466 4.87289 0
M  V30 430 H 36.5326 2.0381 5.7643 0
M  V30 431 H 40.7066 2.81962 6.36765 0
M  V30 432 H 38.3336 3.3739 6.81229 0
M  V30 433 N 39.9087 -1.5758 0.0250728 0
M  V30 434 C 41.1857 -1.82917 -0.692873 0
M  V30 435 C 41.5657 -0.908137 -1.90568 0
M  V30 436 O 40.9137 0.0372298 -2.2847 0
M  V30 437 C 41.1237 -3.32034 -1.07492 0
M  V30 438 C 42.4717 -3.98406 -1.46826 0
M  V30 439 O 43.4957 -3.36505 -1.16801 0
M  V30 440 O 42.3547 -5.07497 -2.02754 0
M  V30 441 H 39.4487 -0.754079 -0.33955 0
M  V30 442 H 41.9947 -1.69619 0.0524456 0
M  V30 443 H 40.7667 -3.90728 -0.211552 0
M  V30 444 H 40.3897 -3.50424 -1.87854 0
M  V30 445 N 41.3868 0.248026 -1.55636 0
M  V30 446 C 42.2968 1.32859 -1.93354 0
M  V30 447 C 43.3128 1.52719 -0.833838 0
M  V30 448 O 44.4888 1.66363 -1.13513 0
M  V30 449 C 41.5538 2.66337 -2.21958 0
M  V30 450 C 40.6148 2.55008 -3.45354 0
M  V30 451 C 39.8478 3.82121 -3.72584 0
M  V30 452 O 40.0708 4.83951 -3.01907 0
M  V30 453 O 39.0048 3.80822 -4.6611 0
M  V30 454 H 42.8308 1.03862 -2.85388 0
M  V30 455 H 40.4158 0.448686 -1.42503 0
M  V30 456 H 42.2978 3.45216 -2.4167 0
M  V30 457 H 40.9728 2.95068 -1.33103 0
M  V30 458 H 39.8798 1.7442 -3.30951 0
M  V30 459 H 41.2128 2.31222 -4.34508 0
M  V30 460 N 42.8649 1.48995 0.513639 0
M  V30 461 C 43.7949 1.67636 1.62544 0
M  V30 462 C 44.7759 0.525087 1.61793 0
M  V30 463 O 45.9609 0.759502 1.78732 0
M  V30 464 C 43.0909 1.73114 3.01079 0
M  V30 465 C 42.0449 2.87905 3.16693 0
M  V30 466 C 41.3709 2.78486 4.56453 0
M  V30 467 C 42.6709 4.29005 2.97913 0
M  V30 468 H 44.3649 2.60716 1.47198 0
M  V30 469 H 41.9109 1.25465 0.706714 0
M  V30 470 H 43.8639 1.84742 3.78746 0
M  V30 471 H 42.5879 0.766241 3.17484 0
M  V30 472 H 41.2469 2.75859 2.41448 0
M  V30 473 H 40.8949 1.7993 4.69717 0
M  V30 474 H 40.5949 3.55523 4.67843 0
M  V30 475 H 42.1189 2.92104 5.36197 0
M  V30 476 H 43.5329 4.41798 3.65359 0
M  V30 477 H 41.9299 5.07166 3.20785 0
M  V30 478 H 42.9999 4.44329 1.94165 0
M  V30 479 N 44.343 -0.763751 1.37857 0
M  V30 480 C 45.589 -1.52483 1.33704 0
M  V30 481 C 45.922 -1.94051 -0.0759612 0
M  V30 482 O 45.197 -1.64675 -1.03501 0
M  V30 483 C 45.48 -2.78441 2.28348 0
M  V30 484 C 45.333 -2.43075 3.78463 0
M  V30 485 C 46.652 -3.80415 2.21298 0
M  V30 486 H 43.771 -0.553169 0.487005 0
M  V30 487 H 46.413 -0.875562 1.68624 0
M  V30 488 H 44.563 -3.33842 1.987 0
M  V30 489 H 46.235 -1.93527 4.18742 0
M  V30 490 H 44.478 -1.75666 3.96641 0
M  V30 491 H 45.149 -3.33149 4.40132 0
M  V30 492 H 47.625 -3.34527 2.47449 0
M  V30 493 H 46.501 -4.66257 2.89647 0
M  V30 494 H 46.762 -4.25262 1.20849 0
M  V30 495 N 45.8211 -1.22559 -0.990812 0
M  V30 496 C 47.0671 -1.05297 -1.73322 0
M  V30 497 C 47.4001 0.410655 -1.89808 0
M  V30 498 O 46.6751 1.30439 -1.44277 0
M  V30 499 C 46.9581 -1.76713 -3.13759 0
M  V30 500 C 46.8111 -3.30684 -3.04907 0
M  V30 501 C 48.1301 -1.52121 -4.12974 0
M  V30 502 H 45.2491 -0.38392 -0.629106 0
M  V30 503 H 47.8911 -1.50926 -1.15418 0
M  V30 504 H 46.0411 -1.37924 -3.63193 0
M  V30 505 H 47.7131 -3.7893 -2.63077 0
M  V30 506 H 45.9561 -3.60253 -2.41661 0
M  V30 507 H 46.6271 -3.75833 -4.04294 0
M  V30 508 H 49.1031 -1.85819 -3.72304 0
M  V30 509 H 47.9791 -2.04582 -5.0935 0
M  V30 510 H 48.2401 -0.454257 -4.3976 0
M  V30 511 N 47.2992 1.18797 -1.03562 0
M  V30 512 C 48.2292 2.24472 -0.643019 0
M  V30 513 C 49.2102 1.66433 0.351283 0
M  V30 514 O 50.3952 1.92803 0.232505 0
M  V30 515 C 47.5252 3.473 4.24935e-05 0
M  V30 516 C 46.4792 4.18055 -0.917257 0
M  V30 517 C 45.8052 5.34519 -0.138941 0
M  V30 518 C 47.1052 4.72109 -2.23407 0
M  V30 519 H 48.7992 2.57566 -1.52643 0
M  V30 520 H 46.3452 1.23806 -0.735394 0
M  V30 521 H 48.2982 4.20426 0.286383 0
M  V30 522 H 47.0222 3.13424 0.918299 0
M  V30 523 H 45.6812 3.46821 -1.1879 0
M  V30 524 H 45.3292 4.96891 0.781562 0
M  V30 525 H 45.0292 5.82794 -0.750005 0
M  V30 526 H 46.5532 6.10438 0.1405 0
M  V30 527 H 47.9672 5.36955 -2.00879 0
M  V30 528 H 46.3642 5.30897 -2.79765 0
M  V30 529 H 47.4342 3.89807 -2.88407 0
M  V30 530 N 48.7773 0.814389 1.34928 0
M  V30 531 C 50.0233 0.399013 1.98836 0
M  V30 532 C 50.3563 -1.03314 1.64438 0
M  V30 533 O 49.6313 -1.71811 0.911659 0
M  V30 534 C 49.9143 0.591629 3.55207 0
M  V30 535 C 49.7673 2.06928 3.99376 0
M  V30 536 C 51.0863 0.022199 4.40094 0
M  V30 537 H 48.2053 0.146451 0.722303 0
M  V30 538 H 50.8473 1.02537 1.59957 0
M  V30 539 H 48.9973 0.0584441 3.88456 0
M  V30 540 H 50.6693 2.66544 3.76499 0
M  V30 541 H 48.9123 2.56287 3.49999 0
M  V30 542 H 49.5833 2.1549 5.08201 0
M  V30 543 H 52.0593 0.477643 4.13349 0
M  V30 544 H 50.9353 0.186832 5.48582 0
M  V30 545 H 51.1963 -1.07215 4.28902 0
M  V30 546 N 50.2554 -1.46986 0.568584 0
M  V30 547 C 51.4834 -2.0683 0.0539956 0
M  V30 548 C 51.8984 -1.41953 -1.24478 0
M  V30 549 O 51.2554 -0.519933 -1.74937 0
M  V30 550 C 51.3064 -3.61254 -0.133362 0
M  V30 551 O 51.0274 -4.237 1.11399 0
M  V30 552 C 52.5284 -4.37992 -0.683927 0
M  V30 553 H 49.7484 -0.669058 0.0510141 0
M  V30 554 H 52.2924 -1.88824 0.785234 0
M  V30 555 H 50.4474 -3.78735 -0.81477 0
M  V30 556 H 50.8614 -5.16388 0.91888 0
M  V30 557 H 52.3354 -5.46684 -0.764263 0
M  V30 558 H 52.8124 -4.05058 -1.69778 0
M  V30 559 H 53.4184 -4.25283 -0.0378494 0
M  V30 560 N 51.7335 -0.305618 -1.54608 0
M  V30 561 C 52.6435 0.57778 -2.27374 0
M  V30 562 C 53.6595 1.14451 -1.31061 0
M  V30 563 O 54.8355 1.16831 -1.6405 0
M  V30 564 C 51.9005 1.73123 -3.00382 0
M  V30 565 C 50.9615 1.19812 -4.12242 0
M  V30 566 C 50.1945 2.2966 -4.81759 0
M  V30 567 O 50.4175 3.49651 -4.50666 0
M  V30 568 O 49.3515 1.96091 -5.69062 0
M  V30 569 H 53.1775 -0.012624 -3.03697 0
M  V30 570 H 50.7625 -0.0719184 -1.49227 0
M  V30 571 H 52.6445 2.40315 -3.4616 0
M  V30 572 H 51.3195 2.30815 -2.26949 0
M  V30 573 H 50.2265 0.491798 -3.70853 0
M  V30 574 H 51.5595 0.666566 -4.87666 0
M  V30 575 N 53.2116 1.57565 -0.0334293 0
M  V30 576 C 54.1596 2.1164 0.96496 0
M  V30 577 C 55.1536 1.04398 1.33407 0
M  V30 578 O 56.3596 1.22828 1.3158 0
M  V30 579 H 52.7346 0.676222 0.32898 0
M  V30 580 H 54.7056 2.94455 0.483614 0
M  V30 581 C 53.4546 2.66207 2.23672 0
M  V30 582 H 52.7776 3.48378 1.96145 0
M  V30 583 H 54.2176 3.07685 2.9173 0
M  V30 584 C 52.6766 1.59151 2.96939 0
M  V30 585 O 53.2066 0.993858 3.89211 0
M  V30 586 N 51.4126 1.31093 2.59351 0
M  V30 587 H 50.9596 1.7988 1.84393 0
M  V30 588 H 50.9176 0.596889 3.08682 0
M  V30 589 N 54.6897 -0.239769 1.55765 0
M  V30 590 C 56.1007 -0.808263 1.68297 0
M  V30 591 C 56.4517 -1.85736 0.632181 0
M  V30 592 O 55.5767 -2.15277 -0.220204 0
M  V30 593 C 56.1717 -1.47284 3.05111 0
M  V30 594 C 54.7307 -1.98895 3.19559 0
M  V30 595 C 53.8777 -0.842575 2.64189 0
M  V30 596 H 56.8287 -0.0154422 1.58692 0
M  V30 597 H 56.8497 -2.34111 2.99954 0
M  V30 598 H 56.3617 -0.709053 3.81568 0
M  V30 599 H 54.4627 -2.78132 2.47938 0
M  V30 600 H 54.5757 -2.18143 4.26556 0
M  V30 601 H 52.9397 -1.24501 2.22197 0
M  V30 602 H 53.7227 -0.0917552 3.43177 0
M  V30 603 N 56.1678 -1.49265 -0.50573 0
M  V30 604 C 57.5838 -1.35923 -0.836486 0
M  V30 605 C 57.7838 -0.388704 -1.97715 0
M  V30 606 O 56.8398 0.181336 -2.51848 0
M  V30 607 C 58.1528 -2.76531 -1.18115 0
M  V30 608 C 59.7008 -2.85197 -1.28964 0
M  V30 609 C 60.1758 -4.26561 -1.66761 0
M  V30 610 N 61.6668 -4.2935 -1.73819 0
M  V30 611 C 62.4018 -5.35693 -2.045 0
M  V30 612 N 61.8978 -6.52287 -2.33438 0
M  V30 613 N 63.6908 -5.23105 -2.05711 0
M  V30 614 H 55.8418 -2.10965 0.246519 0
M  V30 615 H 58.1048 -0.9468 0.0476887 0
M  V30 616 H 57.8108 -3.49226 -0.416398 0
M  V30 617 H 57.6848 -3.11599 -2.1257 0
M  V30 618 H 60.0718 -2.12742 -2.04511 0
M  V30 619 H 60.1528 -2.53718 -0.325704 0
M  V30 620 H 59.7968 -4.99541 -0.917656 0
M  V30 621 H 59.7268 -4.55502 -2.64246 0
M  V30 622 H 62.2178 -3.4526 -1.53635 0
M  V30 623 H 62.5308 -7.29158 -2.56024 0
M  V30 624 H 60.8758 -6.55521 -2.30905 0
M  V30 625 H 64.0668 -4.31026 -1.82577 0
M  V30 626 H 64.2398 -6.06078 -2.29289 0
M  V30 627 N 57.6459 0.756429 -1.3826 0
M  V30 628 C 58.5929 1.87011 -1.35261 0
M  V30 629 C 59.5629 1.64695 -0.215616 0
M  V30 630 O 60.7479 1.864 -0.407399 0
M  V30 631 C 57.8879 3.24275 -1.18068 0
M  V30 632 C 57.0009 3.58442 -2.41129 0
M  V30 633 C 56.1359 4.84994 -2.16689 0
M  V30 634 C 55.1749 5.11939 -3.35537 0
M  V30 635 N 54.3119 6.29685 -3.10549 0
M  V30 636 H 59.1519 1.8891 -2.30472 0
M  V30 637 H 56.6889 0.923373 -1.14509 0
M  V30 638 H 58.6469 4.03479 -1.06116 0
M  V30 639 H 57.2769 3.21711 -0.264973 0
M  V30 640 H 56.3289 2.74103 -2.63764 0
M  V30 641 H 57.6409 3.74283 -3.29717 0
M  V30 642 H 56.7949 5.72135 -2.01857 0
M  V30 643 H 55.5339 4.71286 -1.25462 0
M  V30 644 H 54.5389 4.23268 -3.50891 0
M  V30 645 H 55.7639 5.27546 -4.27635 0
M  V30 646 H 53.7099 6.17306 -2.21967 0
M  V30 647 H 53.6269 6.46014 -3.92686 0
M  V30 648 H 54.8949 7.19722 -2.99367 0
M  V30 649 N 59.124 1.23083 0.984299 0
M  V30 650 C 60.071 1.00854 2.07598 0
M  V30 651 C 61.041 -0.0726709 1.65941 0
M  V30 652 O 62.226 0.0786535 1.90638 0
M  V30 653 C 59.366 0.601645 3.39815 0
M  V30 654 C 58.479 1.75456 3.94765 0
M  V30 655 C 57.614 1.29482 5.15177 0
M  V30 656 C 56.653 2.41873 5.62284 0
M  V30 657 N 55.79 1.96885 6.73929 0
M  V30 658 H 60.63 1.943 2.25946 0
M  V30 659 H 58.167 0.968001 1.10762 0
M  V30 660 H 60.125 0.346854 4.15756 0
M  V30 661 H 58.755 -0.295803 3.21442 0
M  V30 662 H 57.807 2.12346 3.15616 0
M  V30 663 H 59.119 2.59965 4.25699 0
M  V30 664 H 58.273 0.997923 5.98437 0
M  V30 665 H 57.012 0.420046 4.85888 0
M  V30 666 H 56.017 2.72342 4.77608 0
M  V30 667 H 57.242 3.29881 5.93595 0
M  V30 668 H 55.188 1.11782 6.46406 0
M  V30 669 H 55.105 2.74956 7.04227 0
M  V30 670 H 56.373 1.70289 7.60672 0
M  V30 671 N 60.6021 -1.18246 1.0419 0
M  V30 672 C 61.8421 -1.89948 0.754916 0
M  V30 673 C 62.2061 -1.78608 -0.70451 0
M  V30 674 O 63.4071 -2.4503 -1.10516 0
M  V30 675 C 61.6781 -3.36305 1.20969 0
M  V30 676 S 63.2371 -4.26088 1.04854 0
M  V30 677 H 60.0551 -0.655897 0.274446 0
M  V30 678 H 62.6571 -1.42873 1.33445 0
M  V30 679 H 61.3611 -3.42089 2.26722 0
M  V30 680 H 60.8921 -3.8842 0.624004 0
M  V30 681 H 62.9071 -4.96189 -0.0332896 0
M  V30 682 N 62.0802 -0.821533 -1.34494 0
M  V30 683 C 63.0132 -0.187704 -2.27427 0
M  V30 684 C 63.9912 0.65507 -1.48821 0
M  V30 685 O 65.1752 0.619111 -1.78043 0
M  V30 686 C 62.3022 0.737996 -3.30562 0
M  V30 687 C 61.3482 -0.0270713 -4.26491 0
M  V30 688 S 62.1812 -1.37329 -5.17592 0
M  V30 689 C 63.3372 -0.452427 -6.24263 0
M  V30 690 H 63.5702 -0.975598 -2.80837 0
M  V30 691 H 61.1032 -0.61736 -1.4152 0
M  V30 692 H 63.0612 1.26654 -3.90473 0
M  V30 693 H 61.7222 1.4994 -2.76001 0
M  V30 694 H 60.9152 0.6766 -4.99438 0
M  V30 695 H 60.5172 -0.48612 -3.70827 0
M  V30 696 H 62.8092 0.356557 -6.76561 0
M  V30 697 H 63.7522 -1.15153 -6.98674 0
M  V30 698 H 64.1602 -0.0414755 -5.64485 0
M  V30 699 N 63.5583 1.46682 -0.576371 0
M  V30 700 C 64.8053 2.02412 -0.0595339 0
M  V30 701 C 65.1333 1.44859 1.29793 0
M  V30 702 O 64.3883 0.601099 1.8624 0
M  V30 703 C 64.6873 3.57345 0.062886 0
M  V30 704 C 64.3533 4.33908 -1.22616 0
M  V30 705 C 63.0153 4.54544 -1.57933 0
M  V30 706 C 65.3673 4.77919 -2.07948 0
M  V30 707 C 62.6953 5.16444 -2.78393 0
M  V30 708 C 65.0473 5.41149 -3.27629 0
M  V30 709 C 63.7113 5.60014 -3.63236 0
M  V30 710 H 62.9813 0.74068 -0.021785 0
M  V30 711 H 65.6283 1.76128 -0.751735 0
M  V30 712 H 63.9333 3.82729 0.838178 0
M  V30 713 H 65.6303 3.98136 0.478439 0
M  V30 714 H 62.2203 4.18138 -0.941202 0
M  V30 715 H 66.4043 4.61738 -1.81967 0
M  V30 716 H 61.6603 5.29242 -3.06126 0
M  V30 717 H 65.8343 5.74211 -3.94023 0
M  V30 718 H 63.4613 6.07748 -4.56669 0
M  V30 719 N 65.0364 0.313813 1.54444 0
M  V30 720 C 66.2644 -0.293918 2.04802 0
M  V30 721 C 66.6794 -1.46537 1.19047 0
M  V30 722 O 66.0364 -1.81182 0.218939 0
M  V30 723 C 66.0874 -0.737806 3.53891 0
M  V30 724 O 65.8084 0.387038 4.36387 0
M  V30 725 C 67.3094 -1.40936 4.203 0
M  V30 726 H 64.5294 -0.0620057 0.668129 0
M  V30 727 H 67.0734 0.457169 1.99324 0
M  V30 728 H 65.2284 -1.43889 3.59687 0
M  V30 729 H 65.6424 0.0391274 5.24485 0
M  V30 730 H 67.1164 -1.67099 5.26101 0
M  V30 731 H 67.5934 -2.35355 3.70816 0
M  V30 732 H 68.1994 -0.751117 4.18615 0
M  V30 733 N 66.5145 -1.57545 0.0417849 0
M  V30 734 C 67.4445 -2.14009 -0.933929 0
M  V30 735 C 68.4255 -1.05938 -1.33083 0
M  V30 736 O 69.6105 -1.33833 -1.40721 0
M  V30 737 C 66.7405 -2.67747 -2.21199 0
M  V30 738 C 65.6945 -3.80718 -1.95544 0
M  V30 739 C 65.0205 -4.20935 -3.29724 0
M  V30 740 C 66.3205 -5.06258 -1.28452 0
M  V30 741 H 68.0145 -2.95788 -0.463645 0
M  V30 742 H 65.5605 -1.42285 -0.221573 0
M  V30 743 H 67.5135 -3.05886 -2.89848 0
M  V30 744 H 66.2375 -1.83147 -2.70416 0
M  V30 745 H 64.8965 -3.43037 -1.2931 0
M  V30 746 H 64.5445 -3.33298 -3.76724 0
M  V30 747 H 64.2445 -4.9707 -3.13361 0
M  V30 748 H 65.7685 -4.61666 -3.9962 0
M  V30 749 H 67.1825 -5.41903 -1.8712 0
M  V30 750 H 65.5795 -5.87475 -1.22445 0
M  V30 751 H 66.6495 -4.84207 -0.259219 0
M  V30 752 N 67.9926 0.231505 -1.5589 0
M  V30 753 C 68.9026 1.308 -1.94752 0
M  V30 754 C 69.9186 1.51826 -0.849989 0
M  V30 755 O 71.0946 1.6515 -1.15271 0
M  V30 756 C 68.1596 2.63968 -2.24771 0
M  V30 757 C 67.2206 2.51331 -3.48039 0
M  V30 758 C 66.4536 3.78148 -3.76616 0
M  V30 759 O 66.6766 4.80722 -3.07022 0
M  V30 760 O 65.6106 3.75857 -4.70123 0
M  V30 761 H 69.4366 1.0083 -2.86474 0
M  V30 762 H 67.0216 0.433547 -1.42971 0
M  V30 763 H 68.9036 3.42633 -2.45318 0
M  V30 764 H 67.5786 2.9364 -1.36225 0
M  V30 765 H 66.4856 1.709 -3.32782 0
M  V30 766 H 67.8186 2.26601 -4.36936 0
M  V30 767 N 69.4707 1.49531 0.497807 0
M  V30 768 C 70.3807 1.69176 1.62532 0
M  V30 769 C 71.3967 0.5744 1.64246 0
M  V30 770 O 72.5727 0.849497 1.82608 0
M  V30 771 C 69.6377 1.75695 2.98885 0
M  V30 772 C 68.6987 2.9929 3.07773 0
M  V30 773 C 67.9317 3.05488 4.37622 0
M  V30 774 O 68.1547 2.19192 5.26603 0
M  V30 775 O 67.0887 3.9798 4.51548 0
M  V30 776 H 70.9147 2.647 1.48887 0
M  V30 777 H 68.4997 1.3331 0.674441 0
M  V30 778 H 70.3817 1.82317 3.79919 0
M  V30 779 H 69.0567 0.8335 3.12785 0
M  V30 780 H 67.9637 2.98183 2.25915 0
M  V30 781 H 69.2967 3.91125 2.98801 0
M  V30 782 N 70.9488 -0.749086 1.3866 0
M  V30 783 C 72.3648 -1.05276 1.19955 0
M  V30 784 C 72.5648 -2.01435 0.05134 0
M  V30 785 O 71.6208 -2.45232 -0.60147 0
M  V30 786 C 72.9338 -1.62853 2.52783 0
M  V30 787 C 74.4818 -1.75002 2.59506 0
M  V30 788 C 74.9568 -2.35991 3.92521 0
M  V30 789 N 76.4478 -2.43416 3.94085 0
M  V30 790 C 77.1828 -2.91511 4.9377 0
M  V30 791 N 76.6788 -3.39608 6.03853 0
M  V30 792 N 78.4718 -2.90592 4.81157 0
M  V30 793 H 70.6228 -0.111066 2.12109 0
M  V30 794 H 72.8858 -0.111901 0.941373 0
M  V30 795 H 72.5918 -0.99664 3.37283 0
M  V30 796 H 72.4658 -2.61854 2.715 0
M  V30 797 H 74.8528 -2.37317 1.75398 0
M  V30 798 H 74.9338 -0.74693 2.44652 0
M  V30 799 H 74.5778 -1.74308 4.77053 0
M  V30 800 H 74.5078 -3.3695 4.04688 0
M  V30 801 H 76.9988 -2.09405 3.14576 0
M  V30 802 H 77.3118 -3.74775 6.75843 0
M  V30 803 H 75.6568 -3.37653 6.07466 0
M  V30 804 H 78.8478 -2.52332 3.94267 0
M  V30 805 H 79.0208 -3.27762 5.58996 0
M  V30 806 N 72.4269 -1.23603 -0.977757 0
M  V30 807 C 73.3739 -1.01954 -2.07061 0
M  V30 808 C 74.3439 0.0638697 -1.65977 0
M  V30 809 O 75.5289 -0.0887624 -1.90593 0
M  V30 810 C 72.6689 -0.619658 -3.39491 0
M  V30 811 C 71.7819 -1.77547 -3.93829 0
M  V30 812 C 70.9169 -1.32212 -5.14484 0
M  V30 813 C 69.9559 -2.44852 -5.60994 0
M  V30 814 N 69.0929 -2.00456 -6.72876 0
M  V30 815 H 73.9329 -1.95495 -2.24913 0
M  V30 816 H 71.4699 -0.973861 -1.10247 0
M  V30 817 H 73.4279 -0.368898 -4.15566 0
M  V30 818 H 72.0579 0.278752 -3.21594 0
M  V30 819 H 71.1099 -2.14016 -3.14486 0
M  V30 820 H 72.4219 -2.62219 -4.24314 0
M  V30 821 H 71.5759 -1.02965 -5.97899 0
M  V30 822 H 70.3149 -0.445808 -4.85658 0
M  V30 823 H 69.3199 -2.74871 -4.76157 0
M  V30 824 H 70.5449 -3.33024 -5.91837 0
M  V30 825 H 68.4909 -1.15208 -6.45804 0
M  V30 826 H 68.4079 -2.78687 -7.02759 0
M  V30 827 H 69.6759 -1.7432 -7.59758 0
M  V30 828 N 73.905 1.17692 -1.04816 0
M  V30 829 C 74.852 2.21581 -0.645797 0
M  V30 830 C 75.822 1.62367 0.350159 0
M  V30 831 O 77.007 1.89254 0.242433 0
M  V30 832 C 74.147 3.45092 -0.0227568 0
M  V30 833 C 73.26 4.18613 -1.06709 0
M  V30 834 C 72.395 5.29602 -0.411767 0
M  V30 835 C 71.434 5.94904 -1.44067 0
M  V30 836 N 70.571 6.97414 -0.809781 0
M  V30 837 H 75.411 2.55353 -1.5362 0
M  V30 838 H 72.948 1.25438 -0.768364 0
M  V30 839 H 74.906 4.15679 0.35588 0
M  V30 840 H 73.536 3.11917 0.831122 0
M  V30 841 H 72.588 3.46779 -1.5636 0
M  V30 842 H 73.9 4.63293 -1.84827 0
M  V30 843 H 73.054 6.06696 0.0206623 0
M  V30 844 H 71.793 4.86045 0.401438 0
M  V30 845 H 70.798 5.16544 -1.88316 0
M  V30 846 H 72.023 6.40542 -2.25571 0
M  V30 847 H 69.969 6.55998 -0.0170186 0
M  V30 848 H 69.886 7.40386 -1.52856 0
M  V30 849 H 71.154 7.78463 -0.401999 0
M  V30 850 N 75.3831 0.828654 1.34056 0
M  V30 851 C 76.3131 0.269443 2.3194 0
M  V30 852 C 77.2941 -0.617247 1.58506 0
M  V30 853 O 78.4791 -0.542931 1.86456 0
M  V30 854 C 75.6091 -0.564793 3.42677 0
M  V30 855 C 74.5631 0.225241 4.27407 0
M  V30 856 C 73.8891 -0.7321 5.29664 0
M  V30 857 C 75.1891 1.43663 5.02154 0
M  V30 858 H 76.8831 1.08728 2.7896 0
M  V30 859 H 74.4291 0.524283 1.34117 0
M  V30 860 H 76.3821 -0.966233 4.10173 0
M  V30 861 H 75.1061 -1.41574 2.9432 0
M  V30 862 H 73.7651 0.608117 3.61521 0
M  V30 863 H 73.4131 -1.57916 4.77568 0
M  V30 864 H 73.1131 -0.20767 5.87233 0
M  V30 865 H 74.6371 -1.13128 6.00029 0
M  V30 866 H 76.0511 1.1089 5.62473 0
M  V30 867 H 74.4481 1.89711 5.69324 0
M  V30 868 H 75.5181 2.21181 4.31517 0
M  V30 869 N 76.8612 -1.46375 0.584142 0
M  V30 870 C 78.1102 -2.01585 0.0679741 0
M  V30 871 C 78.4232 -1.46109 -1.30045 0
M  V30 872 O 79.6292 -1.93148 -1.90804 0
M  V30 873 C 78.0852 -3.5983 0.0709207 0
M  V30 874 C 77.6932 -4.24303 1.43775 0
M  V30 875 C 79.4372 -4.22693 -0.391228 0
M  V30 876 C 77.3442 -5.74631 1.39834 0
M  V30 877 H 76.2742 -0.753689 0.0216421 0
M  V30 878 H 78.9252 -1.68093 0.736001 0
M  V30 879 H 77.3072 -3.90405 -0.663299 0
M  V30 880 H 78.4812 -4.05335 2.19181 0
M  V30 881 H 76.7962 -3.73539 1.84004 0
M  V30 882 H 79.3932 -5.3289 -0.439524 0
M  V30 883 H 79.7362 -3.91728 -1.40906 0
M  V30 884 H 80.2692 -3.96749 0.288974 0
M  V30 885 H 77.0082 -6.10258 2.39303 0
M  V30 886 H 76.5282 -5.95858 0.686505 0
M  V30 887 H 78.2072 -6.37375 1.11187 0
M  V30 888 N 78.3393 -0.321999 -1.54275 0
M  V30 889 C 79.2493 0.553631 -2.27974 0
M  V30 890 C 80.2653 1.13054 -1.32268 0
M  V30 891 O 81.4413 1.15084 -1.6528 0
M  V30 892 C 78.5063 1.69927 -3.02201 0
M  V30 893 C 77.5673 1.15433 -4.1349 0
M  V30 894 C 76.8003 2.24537 -4.84168 0
M  V30 895 O 77.0233 3.44852 -4.5435 0
M  V30 896 O 75.9573 1.90044 -5.7111 0
M  V30 897 H 79.7833 -0.0448345 -3.03667 0
M  V30 898 H 77.3683 -0.0877418 -1.49142 0
M  V30 899 H 79.2503 2.3663 -3.48689 0
M  V30 900 H 77.9253 2.28395 -2.29385 0
M  V30 901 H 76.8323 0.452436 -3.71354 0
M  V30 902 H 78.1653 0.614805 -4.88345 0
M  V30 903 N 79.8174 1.5752 -0.0501392 0
M  V30 904 C 80.7274 2.14952 0.939827 0
M  V30 905 C 81.7434 1.10706 1.34239 0
M  V30 906 O 82.9194 1.42869 1.41952 0
M  V30 907 C 79.9844 2.68232 2.19665 0
M  V30 908 C 79.0454 3.87272 1.85253 0
M  V30 909 C 78.2784 4.38002 3.04943 0
M  V30 910 O 78.5014 3.87811 4.18281 0
M  V30 911 O 77.4354 5.29602 2.86017 0
M  V30 912 H 81.2614 2.9986 0.481392 0
M  V30 913 H 78.8464 1.4841 0.171699 0
M  V30 914 H 80.7284 3.02475 2.93406 0
M  V30 915 H 79.4034 1.86395 2.64648 0
M  V30 916 H 78.3104 3.5792 1.0883 0
M  V30 917 H 79.6434 4.70336 1.4507 0
M  V30 918 N 81.2955 -0.223234 1.56011 0
M  V30 919 C 82.5415 -0.949279 1.79211 0
M  V30 920 C 82.8745 -1.84054 0.619494 0
M  V30 921 O 82.1495 -1.90726 -0.381317 0
M  V30 922 C 82.4325 -1.78965 3.12479 0
M  V30 923 C 82.2855 -0.924997 4.40186 0
M  V30 924 C 83.6045 -2.76774 3.42175 0
M  V30 925 H 80.7235 -0.343676 0.651963 0
M  V30 926 H 83.3655 -0.218253 1.88742 0
M  V30 927 H 81.5155 -2.41291 3.04485 0
M  V30 928 H 83.1875 -0.318615 4.60198 0
M  V30 929 H 81.4305 -0.230344 4.33188 0
M  V30 930 H 82.1015 -1.54735 5.29869 0
M  V30 931 H 84.5775 -2.24584 3.50287 0
M  V30 932 H 83.4535 -3.32678 4.36597 0
M  V30 933 H 83.7145 -3.54429 2.64258 0
M  V30 934 N 82.7736 -1.49793 -0.48987 0
M  V30 935 C 83.7036 -1.70201 -1.59856 0
M  V30 936 C 84.6846 -0.55076 -1.60937 0
M  V30 937 O 85.8696 -0.787841 -1.77501 0
M  V30 938 C 82.9996 -1.77882 -2.98287 0
M  V30 939 C 81.9536 -2.92907 -3.12073 0
M  V30 940 C 81.2796 -2.85712 -4.51965 0
M  V30 941 C 82.5796 -4.3369 -2.91051 0
M  V30 942 H 84.2736 -2.63025 -1.43032 0
M  V30 943 H 81.8196 -1.26574 -0.686664 0
M  V30 944 H 83.7726 -1.90744 -3.75759 0
M  V30 945 H 82.4966 -0.816653 -3.16225 0
M  V30 946 H 81.1556 -2.79665 -2.37029 0
M  V30 947 H 80.8036 -1.8738 -4.66795 0
M  V30 948 H 80.5036 -3.62921 -4.62128 0
M  V30 949 H 82.0276 -3.00598 -5.31482 0
M  V30 950 H 83.4416 -4.47555 -3.58284 0
M  V30 951 H 81.8386 -5.12205 -3.12675 0
M  V30 952 H 82.9086 -4.47362 -1.87071 0
M  V30 953 N 84.2517 0.741722 -1.39055 0
M  V30 954 C 85.4767 1.53607 -1.39354 0
M  V30 955 C 85.9017 1.88096 0.0116905 0
M  V30 956 O 85.2597 1.5143 0.996924 0
M  V30 957 C 85.3077 2.80441 -2.26682 0
M  V30 958 O 84.4117 3.76088 -1.69208 0
M  V30 959 H 83.7527 0.464142 -0.474835 0
M  V30 960 H 86.2827 0.915665 -1.82967 0
M  V30 961 H 86.2927 3.29246 -2.40959 0
M  V30 962 H 84.9677 2.5467 -3.2881 0
M  V30 963 H 83.5447 3.34833 -1.64138 0
M  V30 964 N 85.7298 1.2412 0.971189 0
M  V30 965 C 87.0068 0.986867 1.6888 0
M  V30 966 C 87.3868 -0.491857 2.0529 0
M  V30 967 O 86.7348 -1.46531 1.75331 0
M  V30 968 C 86.9448 1.9063 2.92338 0
M  V30 969 C 88.2928 2.17515 3.64654 0
M  V30 970 O 89.3168 1.88254 3.02388 0
M  V30 971 O 88.1758 2.6719 4.7673 0
M  V30 972 H 85.2698 0.372944 0.738134 0
M  V30 973 H 87.8158 1.35203 1.02559 0
M  V30 974 H 86.5878 2.90552 2.62097 0
M  V30 975 H 86.2108 1.54408 3.66393 0
M  V30 976 N 87.2079 -1.17134 1.05439 0
M  V30 977 C 88.1379 -2.2342 0.678649 0
M  V30 978 C 89.1189 -1.66971 -0.32476 0
M  V30 979 O 90.3039 -1.93149 -0.201802 0
M  V30 980 C 87.4339 -3.47256 0.0552099 0
M  V30 981 C 86.3879 -4.16543 0.98365 0
M  V30 982 C 85.7139 -5.34231 0.223961 0
M  V30 983 C 87.0139 -4.68495 2.3089 0
M  V30 984 H 88.7079 -2.55105 1.56722 0
M  V30 985 H 86.2539 -1.2262 0.754998 0
M  V30 986 H 88.2069 -4.20828 -0.21946 0
M  V30 987 H 86.9309 -3.14846 -0.868319 0
M  V30 988 H 85.5899 -3.44887 1.24293 0
M  V30 989 H 85.2379 -4.98071 -0.702412 0
M  V30 990 H 84.9379 -5.81527 0.842627 0
M  V30 991 H 86.4619 -6.10585 -0.0433671 0
M  V30 992 H 87.8759 -5.33691 2.09396 0
M  V30 993 H 86.2729 -5.26379 2.88176 0
M  V30 994 H 87.3429 -3.85169 2.94572 0
M  V30 995 N 88.686 -0.835752 -1.33615 0
M  V30 996 C 89.963 -0.352017 -1.92406 0
M  V30 997 C 90.343 1.16225 -1.76224 0
M  V30 998 O 89.691 1.97526 -1.14873 0
M  V30 999 C 89.901 -0.795485 -3.39813 0
M  V30 1000 C 91.249 -0.801703 -4.16963 0
M  V30 1001 O 92.273 -0.738889 -3.48452 0
M  V30 1002 O 91.132 -0.886607 -5.3926 0
M  V30 1003 H 88.226 -0.0989641 -0.821057 0
M  V30 1004 H 90.772 -0.921397 -1.42507 0
M  V30 1005 H 89.544 -1.83795 -3.45449 0
M  V30 1006 H 89.167 -0.202505 -3.97084 0
M  V30 1007 N 90.1641 1.46063 -0.591896 0
M  V30 1008 C 91.4121 2.01938 -0.0808391 0
M  V30 1009 C 91.7331 1.46475 1.28725 0
M  V30 1010 O 91.0031 0.652944 1.84698 0
M  V30 1011 H 89.5831 0.746516 -0.0268938 0
M  V30 1012 H 92.2451 1.79055 -0.769752 0
M  V30 1013 H 91.3411 3.12094 -0.0187578 0
M  V30 1014 N 91.6422 0.330177 1.54103 0
M  V30 1015 C 92.8882 -0.270806 2.00984 0
M  V30 1016 C 93.2212 -1.51265 1.21789 0
M  V30 1017 O 92.4962 -1.92142 0.301927 0
M  V30 1018 C 92.7792 -0.598339 3.55094 0
M  V30 1019 C 92.6322 0.654674 4.4501 0
M  V30 1020 C 93.9512 -1.41334 4.16789 0
M  V30 1021 H 91.0702 -0.0969531 0.730595 0
M  V30 1022 H 93.7122 0.448066 1.84641 0
M  V30 1023 H 91.8622 -1.21078 3.69151 0
M  V30 1024 H 93.5342 1.29285 4.42813 0
M  V30 1025 H 91.7772 1.28224 4.14416 0
M  V30 1026 H 92.4482 0.380944 5.50684 0
M  V30 1027 H 94.9242 -0.895597 4.06347 0
M  V30 1028 H 93.8002 -1.61127 5.24718 0
M  V30 1029 H 94.0612 -2.41146 3.70541 0
M  V30 1030 N 93.1203 -1.57491 0.0584922 0
M  V30 1031 C 94.0673 -2.11958 -0.913376 0
M  V30 1032 C 95.0373 -1.02875 -1.30407 0
M  V30 1033 O 96.2223 -1.30464 -1.39226 0
M  V30 1034 C 93.3623 -2.67497 -2.18035 0
M  V30 1035 C 92.4753 -3.90691 -1.84349 0
M  V30 1036 C 91.6103 -4.3452 -3.05559 0
M  V30 1037 C 90.6493 -5.50395 -2.67827 0
M  V30 1038 N 89.7863 -5.89244 -3.81754 0
M  V30 1039 H 94.6263 -2.94704 -0.442017 0
M  V30 1040 H 92.1633 -1.45643 -0.206545 0
M  V30 1041 H 94.1213 -2.978 -2.92183 0
M  V30 1042 H 92.7513 -1.87537 -2.62735 0
M  V30 1043 H 91.8033 -3.66934 -1.00319 0
M  V30 1044 H 93.1153 -4.7489 -1.5258 0
M  V30 1045 H 92.2693 -4.66414 -3.87998 0
M  V30 1046 H 91.0083 -3.49147 -3.40511 0
M  V30 1047 H 90.0133 -5.18165 -1.83806 0
M  V30 1048 H 91.2383 -6.3749 -2.34059 0
M  V30 1049 H 89.1843 -5.06823 -4.16493 0
M  V30 1050 H 89.1013 -6.68151 -3.53708 0
M  V30 1051 H 90.3693 -6.25756 -4.64811 0
M  V30 1052 N 94.5984 0.214957 -1.56127 0
M  V30 1053 C 95.8444 0.939762 -1.79712 0
M  V30 1054 C 96.1774 1.83723 -0.629247 0
M  V30 1055 O 95.4524 1.90925 0.371197 0
M  V30 1056 C 95.7354 1.77306 -3.13424 0
M  V30 1057 C 95.5884 0.90164 -4.40671 0
M  V30 1058 C 96.9074 2.74956 -3.43638 0
M  V30 1059 H 94.0264 0.340214 -0.653776 0
M  V30 1060 H 96.6684 0.20824 -1.88855 0
M  V30 1061 H 94.8184 2.39673 -3.0576 0
M  V30 1062 H 96.4904 0.294206 -4.60361 0
M  V30 1063 H 94.7334 0.207368 -4.33304 0
M  V30 1064 H 95.4044 1.51923 -5.30682 0
M  V30 1065 H 97.8804 2.22724 -3.51473 0
M  V30 1066 H 96.7564 3.30358 -4.38355 0
M  V30 1067 H 97.0174 3.53023 -2.66134 0
M  V30 1068 N 96.0765 1.50051 0.48192 0
M  V30 1069 C 97.3535 1.51009 1.2432 0
M  V30 1070 C 97.7335 0.248587 2.09631 0
M  V30 1071 O 97.0815 -0.768409 2.15192 0
M  V30 1072 C 97.2915 2.79981 2.08355 0
M  V30 1073 C 98.6395 3.3022 2.66908 0
M  V30 1074 O 99.6635 2.81228 2.18607 0
M  V30 1075 O 98.5225 4.15595 3.54884 0
M  V30 1076 H 95.6165 0.605239 0.563573 0
M  V30 1077 H 98.1625 1.62332 0.494627 0
M  V30 1078 H 96.9345 3.63275 1.45419 0
M  V30 1079 H 96.5575 2.7161 2.90368 0
M  V30 1080 N 97.5546 -0.734337 1.39446 0
M  V30 1081 C 98.8006 -1.49613 1.36908 0
M  V30 1082 C 99.1336 -1.94169 -0.0347829 0
M  V30 1083 O 98.4086 -1.66833 -0.999847 0
M  V30 1084 C 98.6916 -2.73534 2.34203 0
M  V30 1085 C 98.5446 -2.34993 3.83534 0
M  V30 1086 C 99.8636 -3.75635 2.29317 0
M  V30 1087 H 96.9826 -0.542714 0.498629 0
M  V30 1088 H 99.6246 -0.839597 1.70443 0
M  V30 1089 H 97.7746 -3.29553 2.05736 0
M  V30 1090 H 99.4466 -1.84601 4.22753 0
M  V30 1091 H 97.6896 -1.67213 4.00278 0
M  V30 1092 H 98.3606 -3.23738 4.47099 0
M  V30 1093 H 100.837 -3.29203 2.54489 0
M  V30 1094 H 99.7126 -4.60008 2.99472 0
M  V30 1095 H 99.9736 -4.22603 1.29842 0
M  V30 1096 N 99.0327 -1.24633 -0.964593 0
M  V30 1097 C 99.9827 -1.00841 -2.04487 0
M  V30 1098 C 100.967 0.0512468 -1.60818 0
M  V30 1099 O 102.159 -0.162865 -1.76249 0
M  V30 1100 C 99.2877 -0.618474 -3.37683 0
M  V30 1101 C 98.3737 -1.71437 -3.87905 0
M  V30 1102 N 98.7647 -2.9477 -4.11029 0
M  V30 1103 C 97.0627 -1.5926 -4.16596 0
M  V30 1104 C 97.7637 -3.65834 -4.52261 0
M  V30 1105 N 96.7397 -2.9341 -4.57615 0
M  V30 1106 H 100.542 -1.94487 -2.20345 0
M  V30 1107 H 98.0557 -1.14805 -1.14863 0
M  V30 1108 H 100.053 -0.429247 -4.14684 0
M  V30 1109 H 98.7127 0.310766 -3.23209 0
M  V30 1110 H 99.7237 -3.30917 -3.9839 0
M  V30 1111 H 96.4007 -0.731606 -4.1104 0
M  V30 1112 H 97.7907 -4.71646 -4.78539 0
M  V30 1113 N 100.511 1.16574 -1.06058 0
M  V30 1114 C 101.461 2.18854 -0.63929 0
M  V30 1115 C 102.445 1.57505 0.328798 0
M  V30 1116 O 103.637 1.76408 0.144623 0
M  V30 1117 C 100.766 3.43291 -0.0247203 0
M  V30 1118 C 99.8518 4.11722 -1.01716 0
M  V30 1119 N 100.243 4.55841 -2.19186 0
M  V30 1120 C 98.5408 4.37872 -0.847569 0
M  V30 1121 C 99.2418 5.08751 -2.82042 0
M  V30 1122 N 98.2178 5.01489 -2.09784 0
M  V30 1123 H 102.02 2.5068 -1.53417 0
M  V30 1124 H 99.5338 1.32999 -0.931935 0
M  V30 1125 H 101.531 4.15856 0.294915 0
M  V30 1126 H 100.191 3.12954 0.865448 0
M  V30 1127 H 101.202 4.49649 -2.56975 0
M  V30 1128 H 97.8788 4.17499 -0.00918848 0
M  V30 1129 H 99.2688 5.52944 -3.81709 0
M  V30 1130 N 101.989 0.842826 1.3317 0
M  V30 1131 C 103.237 0.439577 1.97262 0
M  V30 1132 C 103.558 -1.00548 1.67078 0
M  V30 1133 O 102.828 -1.70098 0.971779 0
M  V30 1134 H 101.408 0.159558 0.72976 0
M  V30 1135 H 104.07 1.07665 1.62463 0
M  V30 1136 H 103.166 0.574886 3.0676 0
M  V30 1137 N 103.467 -1.45747 0.599634 0
M  V30 1138 C 104.397 -2.33235 -0.111306 0
M  V30 1139 C 105.378 -1.46359 -0.866781 0
M  V30 1140 O 106.563 -1.75146 -0.838904 0
M  V30 1141 C 103.693 -3.28932 -1.11451 0
M  V30 1142 C 102.647 -4.25381 -0.472772 0
M  V30 1143 C 101.973 -5.1071 -1.58365 0
M  V30 1144 C 103.273 -5.18831 0.600948 0
M  V30 1145 H 104.967 -2.92927 0.61919 0
M  V30 1146 H 102.513 -1.40857 0.299215 0
M  V30 1147 H 104.466 -3.89002 -1.62036 0
M  V30 1148 H 103.19 -2.67381 -1.8755 0
M  V30 1149 H 101.849 -3.66598 0.0121472 0
M  V30 1150 H 101.497 -4.45533 -2.33473 0
M  V30 1151 H 101.197 -5.7604 -1.15982 0
M  V30 1152 H 102.721 -5.73647 -2.09194 0
M  V30 1153 H 104.135 -5.73019 0.179491 0
M  V30 1154 H 102.532 -5.92595 0.946076 0
M  V30 1155 H 103.602 -4.6174 1.48068 0
M  V30 1156 N 104.945 -0.338344 -1.53925 0
M  V30 1157 C 105.875 0.51328 -2.27789 0
M  V30 1158 C 106.856 1.107 -1.29149 0
M  V30 1159 O 108.041 1.12937 -1.57984 0
M  V30 1160 C 105.171 1.66697 -3.04679 0
M  V30 1161 C 104.125 1.20183 -4.1078 0
M  V30 1162 C 103.451 2.44363 -4.75595 0
M  V30 1163 C 104.751 0.30605 -5.21403 0
M  V30 1164 H 106.445 -0.102883 -2.99223 0
M  V30 1165 H 103.991 -0.0509219 -1.4391 0
M  V30 1166 H 105.944 2.26915 -3.55088 0
M  V30 1167 H 104.668 2.30995 -2.30887 0
M  V30 1168 H 103.327 0.622499 -3.61276 0
M  V30 1169 H 102.975 3.07057 -3.98403 0
M  V30 1170 H 102.675 2.13925 -5.47275 0
M  V30 1171 H 104.199 3.05317 -5.28786 0
M  V30 1172 H 105.613 0.814929 -5.67478 0
M  V30 1173 H 104.01 0.0937929 -6.00027 0
M  V30 1174 H 105.08 -0.65921 -4.80398 0
M  V30 1175 N 106.423 1.57458 -0.0668435 0
M  V30 1176 C 107.669 1.93587 0.6043 0
M  V30 1177 C 108.002 0.946722 1.69561 0
M  V30 1178 O 107.277 -0.0248516 1.94484 0
M  V30 1179 C 107.56 3.40014 1.18585 0
M  V30 1180 C 107.413 4.49685 0.101529 0
M  V30 1181 C 108.732 3.87154 2.09284 0
M  V30 1182 H 105.851 0.703958 0.218202 0
M  V30 1183 H 108.493 1.89542 -0.131804 0
M  V30 1184 H 106.643 3.43592 1.81319 0
M  V30 1185 H 108.315 4.5823 -0.531279 0
M  V30 1186 H 106.558 4.30059 -0.568487 0
M  V30 1187 H 107.229 5.49266 0.54874 0
M  V30 1188 H 109.705 3.85551 1.56491 0
M  V30 1189 H 108.581 4.90231 2.46911 0
M  V30 1190 H 108.842 3.2481 2.99918 0
M  V30 1191 N 107.901 -0.206675 1.56239 0
M  V30 1192 C 109.178 -0.954051 1.70755 0
M  V30 1193 C 109.558 -2.01841 0.618353 0
M  V30 1194 O 108.906 -2.25444 -0.372434 0
M  V30 1195 C 109.116 -1.551 3.12642 0
M  V30 1196 C 110.464 -2.03757 3.72516 0
M  V30 1197 O 111.488 -1.64965 3.15698 0
M  V30 1198 O 110.347 -2.75103 4.72208 0
M  V30 1199 H 107.441 -0.446636 0.696021 0
M  V30 1200 H 109.987 -0.197283 1.68549 0
M  V30 1201 H 108.759 -0.783212 3.83382 0
M  V30 1202 H 108.382 -2.37291 3.19028 0
M  V30 1203 N 109.379 -1.50304 -0.473955 0
M  V30 1204 C 110.609 -1.64663 -1.24778 0
M  V30 1205 C 111.017 -0.328174 -1.86332 0
M  V30 1206 O 110.36 0.699536 -1.69859 0
M  V30 1207 C 110.422 -2.6778 -2.39863 0
M  V30 1208 C 110.086 -4.11413 -1.98969 0
M  V30 1209 C 111.083 -4.97372 -1.51385 0
M  V30 1210 C 108.768 -4.57312 -2.07777 0
M  V30 1211 C 110.762 -6.27277 -1.13148 0
M  V30 1212 C 108.449 -5.87223 -1.69152 0
M  V30 1213 C 109.447 -6.72031 -1.21915 0
M  V30 1214 O 109.135 -7.99518 -0.838237 0
M  V30 1215 H 108.867 -0.556602 -0.383627 0
M  V30 1216 H 111.421 -1.9726 -0.572491 0
M  V30 1217 H 109.651 -2.30419 -3.10554 0
M  V30 1218 H 111.34 -2.71388 -3.01833 0
M  V30 1219 H 112.106 -4.63128 -1.44004 0
M  V30 1220 H 107.985 -3.91449 -2.43493 0
M  V30 1221 H 111.529 -6.93425 -0.762077 0
M  V30 1222 H 107.426 -6.20989 -1.76191 0
M  V30 1223 H 108.194 -8.12764 -0.967339 0
M  V30 1224 N 110.857 0.726932 -1.39834 0
M  V30 1225 C 111.787 1.85405 -1.41941 0
M  V30 1226 C 112.768 1.67751 -0.281728 0
M  V30 1227 O 113.953 1.8795 -0.488717 0
M  V30 1228 C 111.083 3.23243 -1.2701 0
M  V30 1229 C 110.037 3.55549 -2.38262 0
M  V30 1230 C 109.363 4.9241 -2.08415 0
M  V30 1231 C 110.663 3.577 -3.80589 0
M  V30 1232 H 112.357 1.83899 -2.36266 0
M  V30 1233 H 109.903 0.883349 -1.13723 0
M  V30 1234 H 111.856 4.01775 -1.27103 0
M  V30 1235 H 110.58 3.25296 -0.291564 0
M  V30 1236 H 109.239 2.79351 -2.37399 0
M  V30 1237 H 108.887 4.91052 -1.0898 0
M  V30 1238 H 108.587 5.14992 -2.82943 0
M  V30 1239 H 110.111 5.73289 -2.10171 0
M  V30 1240 H 111.525 4.26293 -3.83337 0
M  V30 1241 H 109.922 3.91804 -4.54543 0
M  V30 1242 H 110.992 2.57328 -4.10987 0
M  V30 1243 N 112.336 1.25143 0.95797 0
M  V30 1244 C 113.283 1.05235 2.05412 0
M  V30 1245 C 114.253 -0.0374561 1.66058 0
M  V30 1246 O 115.438 0.119073 1.90428 0
M  V30 1247 C 112.578 0.673589 3.38462 0
M  V30 1248 C 111.691 1.8379 3.90954 0
M  V30 1249 C 110.826 1.40381 5.12315 0
M  V30 1250 C 109.865 2.53746 5.57027 0
M  V30 1251 N 109.002 2.11136 6.69601 0
M  V30 1252 H 113.842 1.99048 2.21774 0
M  V30 1253 H 111.379 0.991277 1.08683 0
M  V30 1254 H 113.337 0.434964 4.14926 0
M  V30 1255 H 111.967 -0.227554 3.21997 0
M  V30 1256 H 111.019 2.18992 3.11041 0
M  V30 1257 H 112.331 2.68937 4.20089 0
M  V30 1258 H 111.485 1.12464 5.96185 0
M  V30 1259 H 110.224 0.523015 4.84887 0
M  V30 1260 H 109.229 2.82412 4.71724 0
M  V30 1261 H 110.454 3.42398 5.86464 0
M  V30 1262 H 108.4 1.25468 6.4389 0
M  V30 1263 H 108.317 2.89832 6.98236 0
M  V30 1264 H 109.585 1.86385 7.56889 0
M  V30 1265 N 113.814 -1.1601 1.06675 0
M  V30 1266 C 114.761 -2.20525 0.680967 0
M  V30 1267 C 115.731 -1.62904 -0.324283 0
M  V30 1268 O 116.916 -1.89615 -0.212294 0
M  V30 1269 C 114.056 -3.45013 0.0776551 0
M  V30 1270 C 113.169 -4.16863 1.13355 0
M  V30 1271 C 112.304 -5.2888 0.49597 0
M  V30 1272 C 111.343 -5.92537 1.53513 0
M  V30 1273 N 110.48 -6.96038 0.920631 0
M  V30 1274 H 115.32 -2.52876 1.57663 0
M  V30 1275 H 112.857 -1.24199 0.788223 0
M  V30 1276 H 114.815 -4.16193 -0.289704 0
M  V30 1277 H 113.445 -3.132 -0.781393 0
M  V30 1278 H 112.497 -3.44248 1.61857 0
M  V30 1279 H 113.809 -4.60294 1.92174 0
M  V30 1280 H 112.963 -6.06653 0.0758604 0
M  V30 1281 H 111.702 -4.86622 -0.324062 0
M  V30 1282 H 110.707 -5.13482 1.9651 0
M  V30 1283 H 111.932 -6.36873 2.35733 0
M  V30 1284 H 109.878 -6.55888 0.12138 0
M  V30 1285 H 109.795 -7.3786 1.64616 0
M  V30 1286 H 111.063 -7.77725 0.525795 0
M  V30 1287 N 115.292 -0.849877 -1.32721 0
M  V30 1288 C 116.242 -0.262892 -2.26479 0
M  V30 1289 C 117.226 0.588493 -1.49752 0
M  V30 1290 O 118.418 0.438659 -1.71478 0
M  V30 1291 C 115.547 0.551818 -3.38836 0
M  V30 1292 C 114.633 -0.311689 -4.22953 0
M  V30 1293 N 115.024 -1.39567 -4.86163 0
M  V30 1294 C 113.322 -0.100611 -4.45887 0
M  V30 1295 C 114.023 -1.92651 -5.48872 0
M  V30 1296 N 112.999 -1.22637 -5.29586 0
M  V30 1297 H 116.801 -1.09166 -2.72873 0
M  V30 1298 H 114.315 -0.695486 -1.46754 0
M  V30 1299 H 116.312 0.988713 -4.05006 0
M  V30 1300 H 114.972 1.37844 -2.93988 0
M  V30 1301 H 115.983 -1.77859 -4.86402 0
M  V30 1302 H 112.66 0.691681 -4.11731 0
M  V30 1303 H 114.05 -2.83487 -6.09167 0
M  V30 1304 N 116.77 1.45427 -0.607355 0
M  V30 1305 C 118.018 2.01841 -0.102253 0
M  V30 1306 C 118.339 1.47832 1.27164 0
M  V30 1307 O 117.609 0.672497 1.83995 0
M  V30 1308 H 116.189 0.746188 -0.0348101 0
M  V30 1309 H 118.851 1.78229 -0.7887 0
M  V30 1310 H 117.947 3.12057 -0.0518585 0
M  V30 1311 N 118.248 0.346503 1.53744 0
M  V30 1312 C 119.497 -0.250122 2.00143 0
M  V30 1313 C 119.81 -1.51418 1.23822 0
M  V30 1314 O 121.016 -2.18823 1.60713 0
M  V30 1315 C 119.472 -0.496252 3.56462 0
M  V30 1316 C 119.08 0.752077 4.41642 0
M  V30 1317 C 120.824 -1.05157 4.11269 0
M  V30 1318 C 118.731 0.476583 5.89477 0
M  V30 1319 H 117.661 -0.0972409 0.747703 0
M  V30 1320 H 120.312 0.46229 1.77581 0
M  V30 1321 H 118.694 -1.26944 3.75102 0
M  V30 1322 H 119.868 1.5266 4.34778 0
M  V30 1323 H 118.183 1.22925 3.97842 0
M  V30 1324 H 120.78 -1.27269 5.19333 0
M  V30 1325 H 121.123 -2.00799 3.64672 0
M  V30 1326 H 121.656 -0.339019 3.96353 0
M  V30 1327 H 118.395 1.4028 6.40314 0
M  V30 1328 H 117.915 -0.259794 5.99237 0
M  V30 1329 H 119.594 0.0949315 6.4693 0
M  V30 1330 N 119.726 -1.57421 0.075193 0
M  V30 1331 C 120.673 -2.12915 -0.890843 0
M  V30 1332 C 121.643 -1.04252 -1.29309 0
M  V30 1333 O 122.828 -1.31933 -1.37834 0
M  V30 1334 C 119.968 -2.69795 -2.15186 0
M  V30 1335 C 119.081 -3.92624 -1.80194 0
M  V30 1336 C 118.216 -4.37736 -3.00933 0
M  V30 1337 C 117.255 -5.53205 -2.61974 0
M  V30 1338 N 116.392 -5.9326 -3.75483 0
M  V30 1339 H 121.232 -2.95156 -0.410735 0
M  V30 1340 H 118.769 -1.45854 -0.191086 0
M  V30 1341 H 120.727 -3.00883 -2.89008 0
M  V30 1342 H 119.357 -1.90313 -2.60731 0
M  V30 1343 H 118.409 -3.67977 -0.964218 0
M  V30 1344 H 119.721 -4.76482 -1.47534 0
M  V30 1345 H 118.875 -4.70503 -3.8303 0
M  V30 1346 H 117.614 -3.52739 -3.36789 0
M  V30 1347 H 116.619 -5.20086 -1.783 0
M  V30 1348 H 117.844 -6.39936 -2.27284 0
M  V30 1349 H 115.79 -5.11212 -4.11094 0
M  V30 1350 H 115.707 -6.71865 -3.46602 0
M  V30 1351 H 116.975 -6.30651 -4.58148 0
M  V30 1352 N 121.204 0.198386 -1.56346 0
M  V30 1353 C 122.45 0.920648 -1.80698 0
M  V30 1354 C 122.783 1.83045 -0.648697 0
M  V30 1355 O 122.058 1.91308 0.350925 0
M  V30 1356 C 122.341 1.73971 -3.15287 0
M  V30 1357 C 122.194 0.85485 -4.41602 0
M  V30 1358 C 123.513 2.71296 -3.46535 0
M  V30 1359 H 120.632 0.333261 -0.657348 0
M  V30 1360 H 123.274 0.188198 -1.89066 0
M  V30 1361 H 121.424 2.36416 -3.08285 0
M  V30 1362 H 123.096 0.245362 -4.60647 0
M  V30 1363 H 121.339 0.161398 -4.335 0
M  V30 1364 H 122.01 1.46286 -5.32264 0
M  V30 1365 H 124.486 2.18983 -3.53816 0
M  V30 1366 H 123.362 3.2569 -4.41834 0
M  V30 1367 H 123.623 3.5018 -2.69864 0
M  V30 1368 N 122.682 1.50554 0.465978 0
M  V30 1369 C 123.612 1.72722 1.57128 0
M  V30 1370 C 124.593 0.576294 1.6004 0
M  V30 1371 O 125.778 0.81598 1.76225 0
M  V30 1372 C 122.908 1.82605 2.95419 0
M  V30 1373 C 121.862 2.97835 3.07373 0
M  V30 1374 C 121.188 2.92867 4.47363 0
M  V30 1375 C 122.488 4.38265 2.84114 0
M  V30 1376 H 124.182 2.65267 1.38829 0
M  V30 1377 H 121.728 1.2765 0.666441 0
M  V30 1378 H 123.681 1.96698 3.72677 0
M  V30 1379 H 122.405 0.866858 3.14886 0
M  V30 1380 H 121.064 2.83401 2.3255 0
M  V30 1381 H 120.712 1.94783 4.63755 0
M  V30 1382 H 120.412 3.70227 4.56296 0
M  V30 1383 H 121.936 3.09015 5.26633 0
M  V30 1384 H 123.35 4.53198 3.51118 0
M  V30 1385 H 121.747 5.17115 3.04487 0
M  V30 1386 H 122.817 4.50281 1.7993 0
M  V30 1387 N 124.16 -0.719506 1.40217 0
M  V30 1388 C 125.406 -1.48152 1.38488 0
M  V30 1389 C 125.739 -1.94195 -0.0141867 0
M  V30 1390 O 125.014 -1.67884 -0.982096 0
M  V30 1391 C 125.297 -2.71035 2.37091 0
M  V30 1392 C 125.15 -2.30912 3.86005 0
M  V30 1393 C 126.469 -3.73182 2.33288 0
M  V30 1394 H 123.588 -0.537395 0.504357 0
M  V30 1395 H 126.23 -0.821472 1.71324 0
M  V30 1396 H 124.38 -3.27352 2.0922 0
M  V30 1397 H 126.052 -1.80107 4.24687 0
M  V30 1398 H 124.295 -1.62958 4.02029 0
M  V30 1399 H 124.966 -3.18978 4.50508 0
M  V30 1400 H 127.442 -3.26485 2.57966 0
M  V30 1401 H 126.318 -4.56806 3.04334 0
M  V30 1402 H 126.579 -4.21202 1.34317 0
M  V30 1403 N 125.638 -1.25649 -0.95132 0
M  V30 1404 C 127.054 -1.02542 -1.223 0
M  V30 1405 C 127.254 0.255715 -1.99871 0
M  V30 1406 O 126.31 0.967558 -2.33226 0
M  V30 1407 C 127.623 -2.25065 -1.99415 0
M  V30 1408 C 129.171 -2.29861 -2.12446 0
M  V30 1409 C 129.646 -3.52048 -2.92961 0
M  V30 1410 N 131.137 -3.52465 -3.00538 0
M  V30 1411 C 131.872 -4.43672 -3.63239 0
M  V30 1412 N 131.368 -5.45157 -4.27523 0
M  V30 1413 N 133.161 -4.31346 -3.60412 0
M  V30 1414 H 125.312 -2.07951 -0.432471 0
M  V30 1415 H 127.575 -0.91339 -0.253816 0
M  V30 1416 H 127.281 -3.18194 -1.49817 0
M  V30 1417 H 127.155 -2.28502 -3.00111 0
M  V30 1418 H 129.542 -1.37252 -2.61239 0
M  V30 1419 H 129.623 -2.3044 -1.11044 0
M  V30 1420 H 129.267 -4.44981 -2.44856 0
M  V30 1421 H 129.197 -3.48715 -3.94596 0
M  V30 1422 H 131.688 -2.79056 -2.54826 0
M  V30 1423 H 132.001 -6.10958 -4.73234 0
M  V30 1424 H 130.346 -5.49025 -4.26141 0
M  V30 1425 H 133.537 -3.51288 -3.09377 0
M  V30 1426 H 133.71 -5.02624 -4.0899 0
M  V30 1427 N 127.117 1.15442 -1.07289 0
M  V30 1428 C 128.365 1.85845 -0.794096 0
M  V30 1429 C 128.686 1.82692 0.681809 0
M  V30 1430 O 127.956 1.26741 1.49377 0
M  V30 1431 H 126.536 0.688089 -0.290763 0
M  V30 1432 H 129.198 1.39947 -1.3565 0
M  V30 1433 H 128.294 2.91001 -1.12804 0
M  V30 1434 N 128.595 0.856903 1.32268 0
M  V30 1435 C 129.525 0.31858 2.31316 0
M  V30 1436 C 130.506 -0.583487 1.59779 0
M  V30 1437 O 131.691 -0.503259 1.87566 0
M  V30 1438 C 128.821 -0.491979 3.43798 0
M  V30 1439 C 127.775 0.315849 4.26833 0
M  V30 1440 C 127.101 -0.619586 5.31098 0
M  V30 1441 C 128.401 1.54282 4.98993 0
M  V30 1442 H 130.095 1.14621 2.76591 0
M  V30 1443 H 127.641 0.552613 1.32974 0
M  V30 1444 H 129.594 -0.879012 4.1213 0
M  V30 1445 H 128.318 -1.35299 2.97257 0
M  V30 1446 H 126.977 0.684664 3.6015 0
M  V30 1447 H 126.625 -1.47751 4.8081 0
M  V30 1448 H 126.325 -0.0830621 5.87541 0
M  V30 1449 H 127.849 -1.00375 6.02293 0
M  V30 1450 H 129.263 1.22796 5.59995 0
M  V30 1451 H 127.66 2.01745 5.65172 0
M  V30 1452 H 128.73 2.30285 4.26728 0
M  V30 1453 N 130.073 -1.45103 0.615059 0
M  V30 1454 C 131.489 -1.57137 0.279322 0
M  V30 1455 C 131.689 -1.60523 -1.21797 0
M  V30 1456 O 130.745 -1.53956 -2.00134 0
M  V30 1457 C 132.058 -2.85062 0.957083 0
M  V30 1458 C 133.606 -2.98749 0.933706 0
M  V30 1459 C 134.081 -4.29455 1.59162 0
M  V30 1460 N 135.572 -4.36231 1.55746 0
M  V30 1461 C 136.307 -5.36051 2.0356 0
M  V30 1462 N 135.803 -6.42367 2.59494 0
M  V30 1463 N 137.596 -5.27456 1.94284 0
M  V30 1464 H 129.747 -1.41148 1.58717 0
M  V30 1465 H 132.01 -0.675331 0.665306 0
M  V30 1466 H 131.716 -2.88488 2.01166 0
M  V30 1467 H 131.59 -3.7407 0.48494 0
M  V30 1468 H 133.977 -2.94886 -0.112347 0
M  V30 1469 H 134.058 -2.11132 1.44419 0
M  V30 1470 H 133.702 -4.34077 2.63704 0
M  V30 1471 H 133.632 -5.15901 1.0561 0
M  V30 1472 H 136.123 -3.60011 1.14893 0
M  V30 1473 H 136.436 -7.14793 2.93752 0
M  V30 1474 H 134.781 -6.43097 2.63537 0
M  V30 1475 H 137.972 -4.43308 1.5032 0
M  V30 1476 H 138.145 -6.05099 2.3186 0
M  V30 1477 N 131.551 -0.354651 -1.53558 0
M  V30 1478 C 132.514 0.484566 -2.24019 0
M  V30 1479 C 133.514 1.01861 -1.24422 0
M  V30 1480 O 134.704 0.906097 -1.4878 0
M  V30 1481 C 131.836 1.67615 -2.96847 0
M  V30 1482 H 133.029 -0.131843 -2.9961 0
M  V30 1483 H 130.582 -0.106165 -1.55939 0
M  V30 1484 H 131.317 2.33095 -2.25471 0
M  V30 1485 H 131.102 1.30029 -3.69912 0
M  V30 1486 H 132.592 2.27114 -3.50441 0
M  V30 1487 N 133.029 1.57378 -0.0835403 0
M  V30 1488 C 134.275 1.94217 0.583733 0
M  V30 1489 C 134.608 0.964653 1.68547 0
M  V30 1490 O 133.883 -0.00422258 1.945 0
M  V30 1491 C 134.166 3.41253 1.14972 0
M  V30 1492 C 134.019 4.49768 0.0538277 0
M  V30 1493 C 135.338 3.89352 2.05166 0
M  V30 1494 H 132.457 0.706233 0.210724 0
M  V30 1495 H 135.099 1.89392 -0.1519 0
M  V30 1496 H 133.249 3.45496 1.77665 0
M  V30 1497 H 134.921 4.57641 -0.579851 0
M  V30 1498 H 133.164 4.29432 -0.614068 0
M  V30 1499 H 133.835 5.49817 0.490452 0
M  V30 1500 H 136.311 3.87189 1.52393 0
M  V30 1501 H 135.187 4.92822 2.41698 0
M  V30 1502 H 135.448 3.27973 2.96456 0
M  V30 1503 N 134.507 -0.190092 1.56449 0
M  V30 1504 C 135.735 -0.925772 1.85033 0
M  V30 1505 C 136.15 -1.76638 0.666658 0
M  V30 1506 O 135.507 -1.78822 -0.364565 0
M  V30 1507 C 135.558 -1.81786 3.12468 0
M  V30 1508 O 135.279 -1.01118 4.26271 0
M  V30 1509 C 136.78 -2.6648 3.54265 0
M  V30 1510 H 134 -0.269872 0.614337 0
M  V30 1511 H 136.544 -0.195837 2.0356 0
M  V30 1512 H 134.699 -2.50136 2.95822 0
M  V30 1513 H 135.113 -1.61956 4.98869 0
M  V30 1514 H 136.587 -3.24722 4.46385 0
M  V30 1515 H 137.064 -3.40434 2.77491 0
M  V30 1516 H 137.67 -2.03493 3.73458 0
M  V30 1517 N 135.985 -1.50799 -0.457987 0
M  V30 1518 C 137.262 -1.52968 -1.21902 0
M  V30 1519 C 137.642 -0.281906 -2.09209 0
M  V30 1520 O 136.99 0.734076 -2.16388 0
M  V30 1521 C 137.2 -2.8326 -2.03875 0
M  V30 1522 C 138.548 -3.34425 -2.6162 0
M  V30 1523 O 139.572 -2.8467 -2.14106 0
M  V30 1524 O 138.431 -4.21188 -3.48228 0
M  V30 1525 H 135.525 -0.614129 -0.553873 0
M  V30 1526 H 138.071 -1.63098 -0.468739 0
M  V30 1527 H 136.843 -3.65543 -1.39621 0
M  V30 1528 H 136.466 -2.76195 -2.8601 0
M  V30 1529 N 137.463 0.71206 -1.40597 0
M  V30 1530 C 138.693 1.49894 -1.42181 0
M  V30 1531 C 139.101 1.89189 -0.0208078 0
M  V30 1532 O 138.444 1.56223 0.966436 0
M  V30 1533 C 138.506 2.80215 -2.25211 0
M  V30 1534 C 138.17 2.63221 -3.73582 0
M  V30 1535 C 139.167 2.30249 -4.66135 0
M  V30 1536 C 136.852 2.79376 -4.17438 0
M  V30 1537 C 138.846 2.13645 -6.00529 0
M  V30 1538 C 136.533 2.6239 -5.51901 0
M  V30 1539 C 137.531 2.29573 -6.43262 0
M  V30 1540 O 137.219 2.12719 -7.75246 0
M  V30 1541 H 136.951 0.469031 -0.486812 0
M  V30 1542 H 139.505 0.88564 -1.85326 0
M  V30 1543 H 137.735 3.4389 -1.76852 0
M  V30 1544 H 139.424 3.41947 -2.18694 0
M  V30 1545 H 140.19 2.17398 -4.33547 0
M  V30 1546 H 136.069 3.03906 -3.46644 0
M  V30 1547 H 139.613 1.87953 -6.71803 0
M  V30 1548 H 135.51 2.74826 -5.84073 0
M  V30 1549 H 136.278 2.27611 -7.86216 0
M  V30 1550 N 138.941 1.26152 0.944643 0
M  V30 1551 C 139.851 1.09176 2.07648 0
M  V30 1552 C 140.867 0.0261935 1.7398 0
M  V30 1553 O 142.043 0.229208 2.00091 0
M  V30 1554 C 139.108 0.722915 3.39079 0
M  V30 1555 C 138.169 1.86752 3.86552 0
M  V30 1556 C 137.402 1.51617 5.11711 0
M  V30 1557 O 137.625 0.416331 5.68879 0
M  V30 1558 O 136.559 2.34975 5.54139 0
M  V30 1559 H 140.385 2.0412 2.24875 0
M  V30 1560 H 137.97 1.05182 1.061 0
M  V30 1561 H 139.852 0.529787 4.18056 0
M  V30 1562 H 138.527 -0.197159 3.23099 0
M  V30 1563 H 137.434 2.11558 3.08535 0
M  V30 1564 H 138.767 2.76719 4.07047 0
M  V30 1565 N 140.419 -1.14872 1.07899 0
M  V30 1566 C 141.649 -1.89386 0.825631 0
M  V30 1567 C 142.057 -1.78565 -0.625406 0
M  V30 1568 O 141.4 -1.13918 -1.44113 0
M  V30 1569 C 141.462 -3.40206 1.16191 0
M  V30 1570 C 141.126 -3.74812 2.61467 0
M  V30 1571 C 142.123 -3.75367 3.59716 0
M  V30 1572 C 139.808 -4.0495 2.97189 0
M  V30 1573 C 141.802 -4.05574 4.9172 0
M  V30 1574 C 139.489 -4.34821 4.29388 0
M  V30 1575 C 140.487 -4.35116 5.26463 0
M  V30 1576 O 140.175 -4.64267 6.56286 0
M  V30 1577 H 139.907 -0.606894 0.297751 0
M  V30 1578 H 142.461 -1.46438 1.44031 0
M  V30 1579 H 140.691 -3.8358 0.490214 0
M  V30 1580 H 142.38 -3.96018 0.890193 0
M  V30 1581 H 143.146 -3.52176 3.33462 0
M  V30 1582 H 139.025 -4.03876 2.22273 0
M  V30 1583 H 142.569 -4.05719 5.67484 0
M  V30 1584 H 138.466 -4.5748 4.55392 0
M  V30 1585 H 139.234 -4.82007 6.61522 0
M  V30 1586 N 141.898 -0.863906 -1.31812 0
M  V30 1587 C 142.808 -0.318461 -2.32428 0
M  V30 1588 C 143.824 0.568496 -1.64451 0
M  V30 1589 O 145 0.46666 -1.95919 0
M  V30 1590 C 142.065 0.476355 -3.43412 0
M  V30 1591 C 141.126 -0.43784 -4.27061 0
M  V30 1592 C 140.359 0.319138 -5.32745 0
M  V30 1593 O 140.582 1.54799 -5.48993 0
M  V30 1594 O 139.516 -0.319861 -6.01049 0
M  V30 1595 H 143.342 -1.15229 -2.80991 0
M  V30 1596 H 140.927 -0.627103 -1.35602 0
M  V30 1597 H 142.809 0.927156 -4.11074 0
M  V30 1598 H 141.484 1.28683 -2.97022 0
M  V30 1599 H 140.391 -0.937013 -3.62175 0
M  V30 1600 H 141.724 -1.21375 -4.77 0
M  V30 1601 N 143.376 1.44774 -0.622745 0
M  V30 1602 C 144.306 2.33382 0.0741861 0
M  V30 1603 C 145.287 1.47719 0.843387 0
M  V30 1604 O 146.472 1.76458 0.810934 0
M  V30 1605 C 143.602 3.30663 1.06204 0
M  V30 1606 C 142.556 4.26079 0.405037 0
M  V30 1607 C 141.882 5.13165 1.5022 0
M  V30 1608 C 143.182 5.1781 -0.683414 0
M  V30 1609 H 144.876 2.91905 -0.665713 0
M  V30 1610 H 142.422 1.40363 -0.321587 0
M  V30 1611 H 144.375 3.9153 1.55827 0
M  V30 1612 H 143.099 2.70331 1.83272 0
M  V30 1613 H 141.758 3.66532 -0.0704683 0
M  V30 1614 H 141.406 4.49191 2.26355 0
M  V30 1615 H 141.106 5.77812 1.06803 0
M  V30 1616 H 142.63 5.76902 2.00041 0
M  V30 1617 H 144.044 5.72661 -0.270631 0
M  V30 1618 H 142.441 5.91015 -1.04023 0
M  V30 1619 H 143.511 4.59326 -1.55395 0
M  V30 1620 N 144.854 0.36279 1.53368 0
M  V30 1621 C 145.786 -0.519668 2.23231 0
M  V30 1622 C 146.799 -1.04844 1.24546 0
M  V30 1623 O 147.988 -0.955296 1.50786 0
M  V30 1624 C 145.088 -1.72995 2.9142 0
M  V30 1625 C 144.261 -1.33316 4.16588 0
M  V30 1626 C 143.32 -2.40521 4.68013 0
M  V30 1627 O 142.346 -2.03027 5.3176 0
M  V30 1628 N 143.548 -3.72065 4.45587 0
M  V30 1629 H 146.313 0.078751 2.99597 0
M  V30 1630 H 143.874 0.187833 1.60807 0
M  V30 1631 H 145.866 -2.44184 3.22733 0
M  V30 1632 H 144.436 -2.2353 2.18525 0
M  V30 1633 H 143.656 -0.451236 3.91609 0
M  V30 1634 H 144.944 -1.04432 4.97967 0
M  V30 1635 H 144.342 -4.05304 3.94646 0
M  V30 1636 H 142.899 -4.39366 4.81457 0
M  V30 1637 N 146.332 -1.57332 0.0918853 0
M  V30 1638 C 147.265 -2.09499 -0.904735 0
M  V30 1639 C 148.243 -1.00479 -1.27839 0
M  V30 1640 O 149.427 -1.27954 -1.38419 0
M  V30 1641 C 146.554 -2.56931 -2.2069 0
M  V30 1642 C 145.6 -3.77579 -1.98334 0
M  V30 1643 S 146.433 -5.21317 -1.22428 0
M  V30 1644 C 147.589 -5.72097 -2.53882 0
M  V30 1645 H 147.822 -2.93705 -0.460922 0
M  V30 1646 H 145.355 -1.53923 -0.121332 0
M  V30 1647 H 147.313 -2.84917 -2.95521 0
M  V30 1648 H 145.974 -1.72956 -2.62192 0
M  V30 1649 H 145.167 -4.08824 -2.94752 0
M  V30 1650 H 144.769 -3.5007 -1.31633 0
M  V30 1651 H 147.061 -5.80168 -3.49874 0
M  V30 1652 H 148.004 -6.70654 -2.27219 0
M  V30 1653 H 148.412 -5.00012 -2.62007 0
M  V30 1654 N 147.81 0.181792 -1.56548 0
M  V30 1655 C 148.773 1.20894 -1.94724 0
M  V30 1656 C 149.773 1.37738 -0.829747 0
M  V30 1657 O 150.963 1.35323 -1.09697 0
M  V30 1658 C 148.095 2.57593 -2.23291 0
M  V30 1659 H 149.288 0.882275 -2.86629 0
M  V30 1660 H 146.841 0.423838 -1.50444 0
M  V30 1661 H 147.576 2.95291 -1.34067 0
M  V30 1662 H 147.361 2.46735 -3.04736 0
M  V30 1663 H 148.851 3.31637 -2.53785 0
M  V30 1664 N 149.288 1.51039 0.449983 0
M  V30 1665 C 150.218 1.74379 1.55288 0
M  V30 1666 C 151.199 0.593236 1.5942 0
M  V30 1667 O 152.384 0.834625 1.7535 0
M  V30 1668 C 149.514 1.85728 2.93466 0
M  V30 1669 C 148.468 3.01078 3.04197 0
M  V30 1670 C 147.794 2.97595 4.44231 0
M  V30 1671 C 149.094 4.41254 2.7945 0
M  V30 1672 H 150.788 2.66725 1.36008 0
M  V30 1673 H 148.334 1.2835 0.652864 0
M  V30 1674 H 150.287 2.0064 3.70569 0
M  V30 1675 H 149.011 0.900207 3.13949 0
M  V30 1676 H 147.67 2.85851 2.29531 0
M  V30 1677 H 147.318 1.99691 4.61663 0
M  V30 1678 H 147.018 3.75046 4.52343 0
M  V30 1679 H 148.542 3.14583 5.23326 0
M  V30 1680 H 149.956 4.56897 3.46292 0
M  V30 1681 H 148.353 5.20315 2.98985 0
M  V30 1682 H 149.423 4.52164 1.75144 0
M  V30 1683 N 150.766 -0.704594 1.40972 0
M  V30 1684 C 151.729 -1.80035 1.41845 0
M  V30 1685 C 152.729 -1.57774 0.310474 0
M  V30 1686 O 153.919 -1.64613 0.56992 0
M  V30 1687 C 151.051 -3.18284 1.22098 0
M  V30 1688 H 152.244 -1.80658 2.3938 0
M  V30 1689 H 149.797 -0.911329 1.26982 0
M  V30 1690 H 150.532 -3.23306 0.253672 0
M  V30 1691 H 150.317 -3.35843 2.02366 0
M  V30 1692 H 151.807 -3.98289 1.25522 0
M  V30 1693 N 152.244 -1.26651 -0.937939 0
M  V30 1694 C 153.192 -1.08308 -2.05845 0
M  V30 1695 C 154.186 -0.0090757 -1.69398 0
M  V30 1696 O 155.392 -0.166007 -1.79233 0
M  V30 1697 H 151.767 -0.333416 -0.674046 0
M  V30 1698 H 153.738 -2.03261 -2.18467 0
M  V30 1699 C 152.487 -0.736229 -3.39816 0
M  V30 1700 H 151.81 -1.55453 -3.6834 0
M  V30 1701 H 153.25 -0.64769 -4.19024 0
M  V30 1702 C 151.709 0.558824 -3.32233 0
M  V30 1703 O 152.239 1.59621 -3.68624 0
M  V30 1704 N 150.445 0.550657 -2.85335 0
M  V30 1705 H 149.992 -0.293943 -2.55917 0
M  V30 1706 H 149.95 1.41726 -2.80644 0
M  V30 1707 N 153.722 1.14298 -1.08507 0
M  V30 1708 C 154.669 2.19414 -0.715965 0
M  V30 1709 C 155.639 1.63399 0.298326 0
M  V30 1710 O 156.824 1.89929 0.182101 0
M  V30 1711 C 153.964 3.44845 -0.132534 0
M  V30 1712 C 153.077 4.15007 -1.19973 0
M  V30 1713 C 152.212 5.28024 -0.580048 0
M  V30 1714 C 151.251 5.9002 -1.62921 0
M  V30 1715 N 150.388 6.94485 -1.03125 0
M  V30 1716 H 155.228 2.50336 -1.61666 0
M  V30 1717 H 152.765 1.2293 -0.807882 0
M  V30 1718 H 154.723 4.16601 0.223454 0
M  V30 1719 H 153.353 3.14403 0.731467 0
M  V30 1720 H 152.405 3.41629 -1.67313 0
M  V30 1721 H 153.717 4.57178 -1.99473 0
M  V30 1722 H 152.871 6.06455 -0.172364 0
M  V30 1723 H 151.61 4.87076 0.246603 0
M  V30 1724 H 150.615 5.10291 -2.04654 0
M  V30 1725 H 151.84 6.33042 -2.45835 0
M  V30 1726 H 149.786 6.55612 -0.225711 0
M  V30 1727 H 149.703 7.35148 -1.76334 0
M  V30 1728 H 150.971 7.7679 -0.649458 0
M  V30 1729 N 155.201 0.870884 1.31352 0
M  V30 1730 C 156.148 0.325425 2.28494 0
M  V30 1731 C 157.118 -0.576615 1.5577 0
M  V30 1732 O 158.303 -0.508059 1.83911 0
M  V30 1733 C 155.443 -0.466283 3.41935 0
M  V30 1734 C 154.556 0.463378 4.29508 0
M  V30 1735 C 153.691 -0.342544 5.30094 0
M  V30 1736 C 152.73 0.583486 6.09313 0
M  V30 1737 N 151.867 -0.186244 7.01853 0
M  V30 1738 H 156.707 1.15901 2.74538 0
M  V30 1739 H 154.244 0.58294 1.35056 0
M  V30 1740 H 156.202 -0.941085 4.06447 0
M  V30 1741 H 154.832 -1.26456 2.97 0
M  V30 1742 H 153.884 1.05663 3.65431 0
M  V30 1743 H 155.196 1.1734 4.84802 0
M  V30 1744 H 154.35 -0.879816 6.00287 0
M  V30 1745 H 153.089 -1.08585 4.75458 0
M  V30 1746 H 152.094 1.13251 5.3801 0
M  V30 1747 H 153.319 1.32566 6.66035 0
M  V30 1748 H 151.265 -0.912348 6.49625 0
M  V30 1749 H 151.182 0.464422 7.54572 0
M  V30 1750 H 152.45 -0.704716 7.76308 0
M  V30 1751 N 156.679 -1.44442 0.630414 0
M  V30 1752 C 157.609 -2.33418 -0.0618083 0
M  V30 1753 C 158.59 -1.48165 -0.835541 0
M  V30 1754 O 159.775 -1.76886 -0.801564 0
M  V30 1755 C 156.905 -3.31222 -1.04449 0
M  V30 1756 C 155.859 -4.26288 -0.382436 0
M  V30 1757 C 155.185 -5.13954 -1.47497 0
M  V30 1758 C 156.485 -5.1744 0.710865 0
M  V30 1759 H 158.179 -2.91548 0.681184 0
M  V30 1760 H 155.725 -1.40191 0.329026 0
M  V30 1761 H 157.678 -3.92351 -1.53748 0
M  V30 1762 H 156.402 -2.71299 -1.81836 0
M  V30 1763 H 155.061 -3.6649 0.0899054 0
M  V30 1764 H 154.709 -4.50385 -2.2397 0
M  V30 1765 H 154.409 -5.7837 -1.03737 0
M  V30 1766 H 155.933 -5.77955 -1.96979 0
M  V30 1767 H 157.347 -5.72509 0.300996 0
M  V30 1768 H 155.744 -5.90455 1.07156 0
M  V30 1769 H 156.814 -4.58496 1.57829 0
M  V30 1770 N 158.157 -0.370918 -1.53173 0
M  V30 1771 C 159.387 0.217389 -2.05453 0
M  V30 1772 C 159.795 1.42568 -1.24382 0
M  V30 1773 O 159.138 1.81571 -0.278839 0
M  V30 1774 C 159.2 0.669827 -3.53205 0
M  V30 1775 C 158.864 -0.4225 -4.55043 0
M  V30 1776 C 159.861 -1.27407 -5.04047 0
M  V30 1777 C 157.546 -0.58427 -4.9889 0
M  V30 1778 C 159.54 -2.27271 -5.95505 0
M  V30 1779 C 157.227 -1.58627 -5.90153 0
M  V30 1780 C 158.225 -2.42892 -6.38351 0
M  V30 1781 O 157.913 -3.41382 -7.27814 0
M  V30 1782 H 157.645 0.0408171 -0.674767 0
M  V30 1783 H 160.199 -0.5292 -1.98466 0
M  V30 1784 H 158.429 1.4681 -3.57748 0
M  V30 1785 H 160.118 1.18173 -3.88317 0
M  V30 1786 H 160.884 -1.16031 -4.70916 0
M  V30 1787 H 156.763 0.061851 -4.60959 0
M  V30 1788 H 160.307 -2.93079 -6.33049 0
M  V30 1789 H 156.204 -1.70048 -6.22699 0
M  V30 1790 H 156.972 -3.37173 -7.45826 0
M  V30 1791 N 159.635 1.57281 -0.100228 0
M  V30 1792 C 160.86 1.99302 0.573881 0
M  V30 1793 C 161.285 0.979059 1.60611 0
M  V30 1794 O 160.643 -0.0517803 1.81226 0
M  V30 1795 C 160.691 3.40274 1.19358 0
M  V30 1796 O 159.795 3.41676 2.30935 0
M  V30 1797 H 159.136 0.647944 0.145138 0
M  V30 1798 H 161.666 2.03779 -0.183156 0
M  V30 1799 H 161.676 3.78078 1.53365 0
M  V30 1800 H 160.351 4.13594 0.437385 0
M  V30 1801 H 158.928 3.15672 1.98509 0
M  V30 1802 N 161.113 -0.173488 1.56642 0
M  V30 1803 C 162.39 -0.917617 1.7274 0
M  V30 1804 C 162.77 -2.00484 0.661027 0
M  V30 1805 O 162.118 -2.26184 -0.32453 0
M  V30 1806 C 162.328 -1.48433 3.15862 0
M  V30 1807 C 163.676 -1.95809 3.76754 0
M  V30 1808 O 164.7 -1.58231 3.19126 0
M  V30 1809 O 163.559 -2.65024 4.77938 0
M  V30 1810 H 160.653 -0.431772 0.705338 0
M  V30 1811 H 163.199 -0.161487 1.6893 0
M  V30 1812 H 161.971 -0.701715 3.84957 0
M  V30 1813 H 161.594 -2.30471 3.23989 0
M  V30 1814 N 162.591 -1.51276 -0.441967 0
M  V30 1815 C 163.521 -1.752 -1.54361 0
M  V30 1816 C 164.502 -0.601682 -1.59103 0
M  V30 1817 O 165.687 -0.843913 -1.74905 0
M  V30 1818 C 162.817 -1.87282 -2.92477 0
M  V30 1819 C 161.771 -3.02687 -3.02596 0
M  V30 1820 C 161.097 -2.99947 -4.42647 0
M  V30 1821 C 162.397 -4.4273 -2.77106 0
M  V30 1822 H 164.091 -2.67442 -1.34592 0
M  V30 1823 H 161.637 -1.28694 -0.646048 0
M  V30 1824 H 163.59 -2.02602 -3.695 0
M  V30 1825 H 162.314 -0.916844 -3.13467 0
M  V30 1826 H 160.973 -2.87065 -2.28012 0
M  V30 1827 H 160.621 -2.02136 -4.60597 0
M  V30 1828 H 160.321 -3.77439 -4.50348 0
M  V30 1829 H 161.845 -3.17354 -5.2165 0
M  V30 1830 H 163.259 -4.58727 -3.43864 0
M  V30 1831 H 161.656 -5.21893 -2.96222 0
M  V30 1832 H 162.726 -4.53087 -1.72744 0
M  V30 1833 N 164.069 0.697108 -1.41344 0
M  V30 1834 C 164.979 1.84088 -1.45427 0
M  V30 1835 C 165.995 1.70545 -0.34501 0
M  V30 1836 O 167.171 1.92488 -0.592492 0
M  V30 1837 C 164.236 3.20056 -1.33286 0
M  V30 1838 C 163.297 3.45718 -2.54514 0
M  V30 1839 C 162.53 4.75199 -2.42944 0
M  V30 1840 O 162.753 5.51579 -1.45318 0
M  V30 1841 O 161.687 5.0161 -3.32672 0
M  V30 1842 H 165.513 1.836 -2.41919 0
M  V30 1843 H 163.098 0.849966 -1.22866 0
M  V30 1844 H 164.98 4.01236 -1.28794 0
M  V30 1845 H 163.655 3.2123 -0.39909 0
M  V30 1846 H 162.562 2.64474 -2.64583 0
M  V30 1847 H 163.895 3.49356 -3.46715 0
M  V30 1848 N 165.547 1.27147 0.931209 0
M  V30 1849 C 166.775 1.16082 1.71267 0
M  V30 1850 C 167.19 -0.282772 1.8667 0
M  V30 1851 O 166.547 -1.19283 1.38122 0
M  V30 1852 C 166.598 1.8358 3.11417 0
M  V30 1853 O 166.319 3.22299 2.96741 0
M  V30 1854 C 167.82 1.78597 4.05732 0
M  V30 1855 H 165.04 0.403758 0.535929 0
M  V30 1856 H 167.584 1.67953 1.16671 0
M  V30 1857 H 165.739 1.35623 3.62885 0
M  V30 1858 H 166.153 3.55851 3.85319 0
M  V30 1859 H 167.627 2.30444 5.01597 0
M  V30 1860 H 168.104 0.754564 4.3267 0
M  V30 1861 H 168.71 2.26152 3.60188 0
M  V30 1862 N 167.025 -1.13721 1.09112 0
M  V30 1863 C 168.271 -1.85198 0.826414 0
M  V30 1864 C 168.604 -1.83129 -0.646319 0
M  V30 1865 O 167.879 -1.2671 -1.47563 0
M  V30 1866 C 168.162 -3.33507 1.35812 0
M  V30 1867 C 168.015 -3.44108 2.89672 0
M  V30 1868 C 169.334 -4.28838 0.989256 0
M  V30 1869 H 166.453 -0.67243 0.301675 0
M  V30 1870 H 169.095 -1.33499 1.35197 0
M  V30 1871 H 167.245 -3.77666 0.911082 0
M  V30 1872 H 168.917 -3.08684 3.428 0
M  V30 1873 H 167.16 -2.85087 3.26967 0
M  V30 1874 H 167.831 -4.48388 3.21951 0
M  V30 1875 H 170.307 -3.92734 1.37475 0
M  V30 1876 H 169.183 -5.31051 1.38838 0
M  V30 1877 H 169.444 -4.4198 -0.102924 0
M  V30 1878 N 168.503 -0.877838 -1.30888 0
M  V30 1879 C 169.75 -0.492696 -1.96415 0
M  V30 1880 C 170.078 0.956671 -1.69346 0
M  V30 1881 O 169.333 1.68993 -0.986913 0
M  V30 1882 C 169.632 -0.705748 -3.50363 0
M  V30 1883 C 169.298 -2.1291 -3.97467 0
M  V30 1884 C 167.96 -2.51834 -4.1004 0
M  V30 1885 C 170.312 -3.05702 -4.22132 0
M  V30 1886 C 167.64 -3.82775 -4.44635 0
M  V30 1887 C 169.992 -4.36166 -4.58194 0
M  V30 1888 C 168.656 -4.74993 -4.68975 0
M  V30 1889 H 167.926 -0.18029 -0.718733 0
M  V30 1890 H 170.573 -1.11233 -1.55883 0
M  V30 1891 H 168.878 -0.00303058 -3.918 0
M  V30 1892 H 170.575 -0.387456 -3.99124 0
M  V30 1893 H 167.165 -1.81694 -3.88182 0
M  V30 1894 H 171.349 -2.76853 -4.11906 0
M  V30 1895 H 166.605 -4.12609 -4.51181 0
M  V30 1896 H 170.779 -5.08111 -4.76231 0
M  V30 1897 H 168.406 -5.76495 -4.95537 0
M  V30 1898 N 169.982 1.44106 -0.638065 0
M  V30 1899 C 170.912 2.33448 0.0494287 0
M  V30 1900 C 171.893 1.48606 0.827672 0
M  V30 1901 O 173.078 1.77308 0.792173 0
M  V30 1902 C 170.208 3.31771 1.02691 0
M  V30 1903 C 169.162 4.26485 0.359823 0
M  V30 1904 C 168.488 5.14729 1.44769 0
M  V30 1905 C 169.788 5.17056 -0.738296 0
M  V30 1906 H 171.482 2.91183 -0.696636 0
M  V30 1907 H 169.028 1.40014 -0.336456 0
M  V30 1908 H 170.981 3.93161 1.51666 0
M  V30 1909 H 169.705 2.7226 1.80395 0
M  V30 1910 H 168.364 3.66437 -0.10934 0
M  V30 1911 H 168.012 4.51566 2.21578 0
M  V30 1912 H 167.712 5.78913 1.00668 0
M  V30 1913 H 169.236 5.78991 1.93911 0
M  V30 1914 H 170.65 5.72342 -0.331354 0
M  V30 1915 H 169.047 5.89879 -1.10286 0
M  V30 1916 H 170.117 4.57652 -1.60258 0
M  V30 1917 N 171.46 0.379036 1.52974 0
M  V30 1918 C 172.709 -0.207612 2.00629 0
M  V30 1919 C 173.022 -1.48758 1.27006 0
M  V30 1920 O 174.228 -2.15365 1.65318 0
M  V30 1921 C 172.684 -0.42053 3.57435 0
M  V30 1922 C 172.292 0.845587 4.39948 0
M  V30 1923 C 174.036 -0.964102 4.13407 0
M  V30 1924 C 171.943 0.601513 5.88333 0
M  V30 1925 H 170.873 -0.0813591 0.749598 0
M  V30 1926 H 173.524 0.499853 1.76561 0
M  V30 1927 H 171.906 -1.18959 3.7771 0
M  V30 1928 H 173.08 1.61848 4.31442 0
M  V30 1929 H 171.395 1.31336 3.95145 0
M  V30 1930 H 173.992 -1.16225 5.21916 0
M  V30 1931 H 174.335 -1.93019 3.68849 0
M  V30 1932 H 174.868 -0.25487 3.96983 0
M  V30 1933 H 171.607 1.53831 6.37194 0
M  V30 1934 H 171.127 -0.132628 5.99653 0
M  V30 1935 H 172.806 0.232134 6.46583 0
M  V30 1936 N 172.938 -1.57226 0.108567 0
M  V30 1937 C 173.901 -2.13602 -0.831082 0
M  V30 1938 C 174.901 -1.06841 -1.20173 0
M  V30 1939 O 176.091 -1.32666 -1.12895 0
M  V30 1940 C 173.223 -2.66769 -2.12243 0
M  V30 1941 H 174.416 -2.97951 -0.341317 0
M  V30 1942 H 171.969 -1.55667 -0.14057 0
M  V30 1943 H 172.704 -1.85977 -2.65675 0
M  V30 1944 H 172.489 -3.44839 -1.86625 0
M  V30 1945 H 173.979 -3.10332 -2.79435 0
M  V30 1946 N 174.416 0.165178 -1.56732 0
M  V30 1947 C 175.641 0.900253 -1.86843 0
M  V30 1948 C 176.066 1.74766 -0.695596 0
M  V30 1949 O 175.424 1.77786 0.35522 0
M  V30 1950 C 175.472 1.74777 -3.15413 0
M  V30 1951 O 174.576 2.85007 -2.98068 0
M  V30 1952 H 173.917 0.251832 -0.614391 0
M  V30 1953 H 176.447 0.161468 -2.03962 0
M  V30 1954 H 176.457 2.14646 -3.46974 0
M  V30 1955 H 175.132 1.12537 -4.00385 0
M  V30 1956 H 173.709 2.48676 -2.77875 0
M  V30 1957 N 175.894 1.51508 0.433938 0
M  V30 1958 C 176.804 1.75917 1.5521 0
M  V30 1959 C 177.82 0.643545 1.61662 0
M  V30 1960 O 178.996 0.926183 1.7884 0
M  V30 1961 C 176.061 1.88213 2.91164 0
M  V30 1962 C 175.122 3.12074 2.94802 0
M  V30 1963 C 174.355 3.23774 4.24271 0
M  V30 1964 O 174.578 2.4133 5.16833 0
M  V30 1965 O 173.512 4.16774 4.34262 0
M  V30 1966 H 177.338 2.70777 1.37527 0
M  V30 1967 H 174.923 1.36051 0.617293 0
M  V30 1968 H 176.805 1.98267 3.71845 0
M  V30 1969 H 175.48 0.965413 3.08968 0
M  V30 1970 H 174.387 3.07497 2.13065 0
M  V30 1971 H 175.72 4.03446 2.81943 0
M  V30 1972 N 177.372 -0.689602 1.41712 0
M  V30 1973 C 178.319 -1.80345 1.44029 0
M  V30 1974 C 179.289 -1.63478 0.293948 0
M  V30 1975 O 180.474 -1.84244 0.495869 0
M  V30 1976 C 177.614 -3.18272 1.33405 0
M  V30 1977 C 176.727 -3.46529 2.57956 0
M  V30 1978 C 175.862 -4.74103 2.39582 0
M  V30 1979 C 174.901 -4.95347 3.5958 0
M  V30 1980 N 174.038 -6.14151 3.40239 0
M  V30 1981 H 178.878 -1.77698 2.39222 0
M  V30 1982 H 176.415 -0.867688 1.18784 0
M  V30 1983 H 178.373 -3.97956 1.25246 0
M  V30 1984 H 177.003 -3.2008 0.418164 0
M  V30 1985 H 176.055 -2.61207 2.76542 0
M  V30 1986 H 177.367 -3.58126 3.47199 0
M  V30 1987 H 176.521 -5.61853 2.28924 0
M  V30 1988 H 175.26 -4.64763 1.47805 0
M  V30 1989 H 174.265 -4.06044 3.70686 0
M  V30 1990 H 175.49 -5.06542 4.52318 0
M  V30 1991 H 173.436 -6.06013 2.51167 0
M  V30 1992 H 173.353 -6.26543 4.23061 0
M  V30 1993 H 174.621 -7.04619 3.33365 0
M  V30 1994 N 178.85 -1.27639 -0.924453 0
M  V30 1995 C 180.097 -1.14167 -1.67249 0
M  V30 1996 C 180.425 0.311863 -1.91984 0
M  V30 1997 O 179.68 1.24425 -1.51053 0
M  V30 1998 C 179.979 -1.87407 -3.04325 0
M  V30 1999 C 179.645 -3.37249 -2.99289 0
M  V30 2000 C 178.307 -3.7812 -2.97622 0
M  V30 2001 C 180.659 -4.32845 -2.90336 0
M  V30 2002 C 177.987 -5.12944 -2.8479 0
M  V30 2003 C 180.339 -5.6773 -2.79045 0
M  V30 2004 C 179.003 -6.07889 -2.7573 0
M  V30 2005 H 178.273 -0.417766 -0.612007 0
M  V30 2006 H 180.92 -1.58286 -1.07786 0
M  V30 2007 H 179.225 -1.35805 -3.67511 0
M  V30 2008 H 180.922 -1.74408 -3.61086 0
M  V30 2009 H 177.512 -3.04748 -3.01374 0
M  V30 2010 H 181.696 -4.02239 -2.90719 0
M  V30 2011 H 176.952 -5.432 -2.80612 0
M  V30 2012 H 181.126 -6.41472 -2.71083 0
M  V30 2013 H 178.753 -7.12314 -2.65544 0
M  V30 2014 N 180.328 1.1314 -1.09713 0
M  V30 2015 C 181.553 1.88862 -0.857081 0
M  V30 2016 C 181.978 1.78729 0.586304 0
M  V30 2017 O 181.336 1.13692 1.41222 0
M  V30 2018 C 181.384 3.36325 -1.30069 0
M  V30 2019 O 180.488 4.09815 -0.461007 0
M  V30 2020 H 179.829 0.587108 -0.310162 0
M  V30 2021 H 182.359 1.43129 -1.46203 0
M  V30 2022 H 182.369 3.87157 -1.28738 0
M  V30 2023 H 181.044 3.43017 -2.35185 0
M  V30 2024 H 179.621 3.68986 -0.538888 0
M  V30 2025 N 181.806 0.884767 1.30421 0
M  V30 2026 C 183.053 0.503105 1.96151 0
M  V30 2027 C 183.381 -0.947676 1.69851 0
M  V30 2028 O 182.636 -1.68467 0.995861 0
M  V30 2029 C 182.935 0.724318 3.49983 0
M  V30 2030 C 182.601 2.15015 3.96332 0
M  V30 2031 C 181.263 2.54005 4.08699 0
M  V30 2032 C 183.615 3.07936 4.20505 0
M  V30 2033 C 180.943 3.85128 4.42599 0
M  V30 2034 C 183.295 4.3859 4.55874 0
M  V30 2035 C 181.959 4.77474 4.66449 0
M  V30 2036 H 181.229 0.184099 0.717766 0
M  V30 2037 H 183.876 1.12058 1.55291 0
M  V30 2038 H 182.181 0.0238086 3.91793 0
M  V30 2039 H 183.878 0.408617 3.98913 0
M  V30 2040 H 180.468 1.8375 3.87213 0
M  V30 2041 H 184.652 2.79033 4.10431 0
M  V30 2042 H 179.908 4.14996 4.48986 0
M  V30 2043 H 184.082 5.10629 4.7353 0
M  V30 2044 H 181.709 5.79115 4.92473 0
M  V30 2045 N 183.284 -1.43765 0.645699 0
M  V30 2046 C 184.533 -2.01116 0.153412 0
M  V30 2047 C 184.846 -1.51493 -1.23731 0
M  V30 2048 O 186.052 -2.01067 -1.8244 0
M  V30 2049 C 184.508 -3.59206 0.223473 0
M  V30 2050 C 184.116 -4.17823 1.61642 0
M  V30 2051 C 185.86 -4.23972 -0.211597 0
M  V30 2052 C 183.767 -5.68183 1.64081 0
M  V30 2053 H 182.697 -0.752093 0.0535891 0
M  V30 2054 H 185.348 -1.6482 0.806633 0
M  V30 2055 H 183.73 -3.92867 -0.497118 0
M  V30 2056 H 184.904 -3.95674 2.36176 0
M  V30 2057 H 183.219 -3.65399 1.99681 0
M  V30 2058 H 185.816 -5.34275 -0.213112 0
M  V30 2059 H 186.159 -3.97352 -1.24165 0
M  V30 2060 H 186.692 -3.95166 0.456988 0
M  V30 2061 H 183.431 -5.99559 2.64971 0
M  V30 2062 H 182.951 -5.9241 0.938611 0
M  V30 2063 H 184.63 -6.32085 1.3812 0
M  V30 2064 N 184.763 -0.387143 -1.52771 0
M  V30 2065 C 185.988 0.198407 -2.06449 0
M  V30 2066 C 186.413 1.39918 -1.25716 0
M  V30 2067 O 185.771 1.79099 -0.281657 0
M  V30 2068 C 185.819 0.548893 -3.56398 0
M  V30 2069 O 184.923 1.64315 -3.78252 0
M  V30 2070 H 184.264 0.0237731 -0.663574 0
M  V30 2071 H 186.794 -0.553989 -1.96957 0
M  V30 2072 H 186.804 0.813812 -3.99801 0
M  V30 2073 H 185.479 -0.329005 -4.14597 0
M  V30 2074 H 184.056 1.37211 -3.46738 0
M  V30 2075 N 186.241 1.57166 -0.116904 0
M  V30 2076 C 187.466 1.999 0.55271 0
M  V30 2077 C 187.891 0.996039 1.59564 0
M  V30 2078 O 187.249 -0.032556 1.81271 0
M  V30 2079 C 187.297 3.4152 1.15742 0
M  V30 2080 O 186.401 3.44106 2.27299 0
M  V30 2081 H 185.742 0.649447 0.138258 0
M  V30 2082 H 188.272 2.03573 -0.204759 0
M  V30 2083 H 188.282 3.79684 1.49346 0
M  V30 2084 H 186.957 4.14034 0.393493 0
M  V30 2085 H 185.534 3.17759 1.9515 0
M  V30 2086 N 187.719 -0.156864 1.56817 0
M  V30 2087 C 188.944 -0.890331 1.87318 0
M  V30 2088 C 189.369 -1.74394 0.704855 0
M  V30 2089 O 188.727 -1.77972 -0.345786 0
M  V30 2090 C 188.775 -1.73102 3.16336 0
M  V30 2091 O 187.879 -2.83422 2.99576 0
M  V30 2092 H 187.22 -0.24857 0.615718 0
M  V30 2093 H 189.75 -0.150649 2.04045 0
M  V30 2094 H 189.76 -2.12803 3.48107 0
M  V30 2095 H 188.435 -1.10412 4.00976 0
M  V30 2096 H 187.012 -2.47199 2.7919 0
M  V30 2097 N 189.197 -1.51736 -0.425897 0
M  V30 2098 C 190.127 -1.76827 -1.52494 0
M  V30 2099 C 191.108 -0.618524 -1.58456 0
M  V30 2100 O 192.293 -0.862416 -1.74 0
M  V30 2101 C 189.423 -1.90374 -2.90474 0
M  V30 2102 C 188.377 -3.0588 -2.99369 0
M  V30 2103 C 187.703 -3.04625 -4.3944 0
M  V30 2104 C 189.003 -4.45644 -2.72394 0
M  V30 2105 H 190.697 -2.68855 -1.31748 0
M  V30 2106 H 188.243 -1.29372 -0.632362 0
M  V30 2107 H 190.196 -2.0651 -3.6733 0
M  V30 2108 H 188.92 -0.95004 -3.12477 0
M  V30 2109 H 187.579 -2.89467 -2.24954 0
M  V30 2110 H 187.227 -2.0701 -4.58428 0
M  V30 2111 H 186.927 -3.82195 -4.46319 0
M  V30 2112 H 188.451 -3.22869 -5.18255 0
M  V30 2113 H 189.865 -4.62348 -3.38979 0
M  V30 2114 H 188.262 -5.25006 -2.9067 0
M  V30 2115 H 189.332 -4.54893 -1.67929 0
M  V30 2116 N 190.675 0.682077 -1.42076 0
M  V30 2117 C 191.921 1.44428 -1.42367 0
M  V30 2118 C 192.254 1.94164 -0.0373056 0
M  V30 2119 O 191.529 1.70429 0.937239 0
M  V30 2120 C 191.812 2.64654 -2.44194 0
M  V30 2121 C 191.665 2.20596 -3.91991 0
M  V30 2122 C 192.984 3.66865 -2.431 0
M  V30 2123 H 190.103 0.523834 -0.518428 0
M  V30 2124 H 192.745 0.77576 -1.73442 0
M  V30 2125 H 190.895 3.2169 -2.17826 0
M  V30 2126 H 192.567 1.68783 -4.29313 0
M  V30 2127 H 190.81 1.52242 -4.06208 0
M  V30 2128 H 191.481 3.06921 -4.58807 0
M  V30 2129 H 193.957 3.19531 -2.66532 0
M  V30 2130 H 192.833 4.48577 -3.16339 0
M  V30 2131 H 193.094 4.17493 -1.45437 0
M  V30 2132 N 192.153 1.28127 0.917671 0
M  V30 2133 C 193.1 1.11717 2.0196 0
M  V30 2134 C 194.07 0.0153929 1.66093 0
M  V30 2135 O 195.255 0.179596 1.89953 0
M  V30 2136 C 192.395 0.780927 3.36148 0
M  V30 2137 C 191.508 1.96135 3.84909 0
M  V30 2138 C 190.643 1.56609 5.0759 0
M  V30 2139 C 189.682 2.71339 5.48673 0
M  V30 2140 N 188.819 2.32332 6.62545 0
M  V30 2141 H 193.659 2.06003 2.15329 0
M  V30 2142 H 191.196 1.02535 1.05475 0
M  V30 2143 H 193.154 0.56675 4.13333 0
M  V30 2144 H 191.784 -0.124998 3.22558 0
M  V30 2145 H 190.836 2.28777 3.03916 0
M  V30 2146 H 192.148 2.82165 4.1132 0
M  V30 2147 H 191.302 1.31374 5.92305 0
M  V30 2148 H 190.041 0.677014 4.82978 0
M  V30 2149 H 189.046 2.97276 4.62501 0
M  V30 2150 H 190.271 3.60882 5.75274 0
M  V30 2151 H 188.217 1.45889 6.39572 0
M  V30 2152 H 188.134 3.11899 6.88662 0
M  V30 2153 H 189.402 2.10371 7.50576 0
M  V30 2154 N 193.631 -1.12557 1.10312 0
M  V30 2155 C 194.541 -2.21841 0.763142 0
M  V30 2156 C 195.557 -1.72354 -0.238801 0
M  V30 2157 O 196.733 -2.01249 -0.0778746 0
M  V30 2158 C 193.798 -3.46131 0.198632 0
M  V30 2159 C 192.859 -4.10464 1.25769 0
M  V30 2160 C 192.092 -5.28821 0.72002 0
M  V30 2161 O 192.315 -5.6859 -0.453993 0
M  V30 2162 O 191.249 -5.83437 1.47935 0
M  V30 2163 H 195.075 -2.53312 1.67532 0
M  V30 2164 H 192.66 -1.20867 0.878157 0
M  V30 2165 H 194.542 -4.2125 -0.112401 0
M  V30 2166 H 193.217 -3.16338 -0.686419 0
M  V30 2167 H 192.124 -3.3713 1.62156 0
M  V30 2168 H 193.457 -4.44408 2.11571 0
M  V30 2169 N 195.109 -0.891671 -1.2995 0
M  V30 2170 C 196.355 -0.514261 -1.96171 0
M  V30 2171 C 196.688 0.935506 -1.70182 0
M  V30 2172 O 195.963 1.66204 -1.01028 0
M  V30 2173 C 196.246 -0.797719 -3.51153 0
M  V30 2174 C 196.099 -2.2986 -3.86632 0
M  V30 2175 C 197.418 -0.278749 -4.39216 0
M  V30 2176 H 194.537 -0.188314 -0.712535 0
M  V30 2177 H 197.179 -1.11689 -1.53706 0
M  V30 2178 H 195.329 -0.284826 -3.87455 0
M  V30 2179 H 197.001 -2.88042 -3.60319 0
M  V30 2180 H 195.244 -2.76257 -3.34462 0
M  V30 2181 H 195.915 -2.44753 -4.94773 0
M  V30 2182 H 198.391 -0.717825 -4.09862 0
M  V30 2183 H 197.267 -0.506353 -5.46559 0
M  V30 2184 H 197.528 0.820266 -4.34424 0
M  V30 2185 N 196.587 1.43421 -0.653314 0
M  V30 2186 C 197.55 2.29182 0.0287951 0
M  V30 2187 C 198.55 1.42213 0.750465 0
M  V30 2188 O 199.74 1.63843 0.591701 0
M  V30 2189 C 196.872 3.24278 1.05151 0
M  V30 2190 H 198.065 2.90985 -0.725786 0
M  V30 2191 H 195.618 1.50702 -0.414545 0
M  V30 2192 H 196.353 2.6737 1.83532 0
M  V30 2193 H 196.138 3.88396 0.537687 0
M  V30 2194 H 197.628 3.88647 1.52786 0
M  V30 2195 N 198.065 0.39524 1.52563 0
M  V30 2196 C 198.995 -0.428384 2.29537 0
M  V30 2197 C 199.976 -1.05831 1.33169 0
M  V30 2198 O 201.161 -1.06995 1.62067 0
M  V30 2199 C 198.291 -1.55274 3.10656 0
M  V30 2200 C 197.245 -1.04855 4.14957 0
M  V30 2201 C 196.571 -2.26543 4.84337 0
M  V30 2202 C 197.871 -0.112324 5.22179 0
M  V30 2203 H 199.565 0.213867 2.98635 0
M  V30 2204 H 197.111 0.104298 1.43622 0
M  V30 2205 H 199.064 -2.1358 3.63265 0
M  V30 2206 H 197.788 -2.22266 2.39302 0
M  V30 2207 H 196.447 -0.487985 3.63338 0
M  V30 2208 H 196.095 -2.92059 4.09525 0
M  V30 2209 H 195.795 -1.93466 5.54837 0
M  V30 2210 H 197.319 -2.85481 5.39753 0
M  V30 2211 H 198.733 -0.603752 5.70112 0
M  V30 2212 H 197.13 0.128968 5.99961 0
M  V30 2213 H 198.2 0.837052 4.77621 0
M  V30 2214 N 199.544 -1.57102 0.125237 0
M  V30 2215 C 200.774 -1.99472 -0.538015 0
M  V30 2216 C 201.182 -1.00395 -1.60366 0
M  V30 2217 O 200.525 0.0103875 -1.83697 0
M  V30 2218 C 200.587 -3.38262 -1.21734 0
M  V30 2219 C 200.251 -4.56021 -0.298897 0
M  V30 2220 C 201.248 -5.17817 0.464943 0
M  V30 2221 C 198.933 -5.01869 -0.208149 0
M  V30 2222 C 200.927 -6.23852 1.3072 0
M  V30 2223 C 198.614 -6.07763 0.637736 0
M  V30 2224 C 199.612 -6.68622 1.39403 0
M  V30 2225 O 199.3 -7.7247 2.22586 0
M  V30 2226 H 199.032 -0.659934 -0.146501 0
M  V30 2227 H 201.586 -2.04321 0.210267 0
M  V30 2228 H 199.816 -3.30185 -2.01282 0
M  V30 2229 H 201.505 -3.6488 -1.77813 0
M  V30 2230 H 202.271 -4.83308 0.404741 0
M  V30 2231 H 198.15 -4.54241 -0.786522 0
M  V30 2232 H 201.694 -6.71284 1.898 0
M  V30 2233 H 197.591 -6.41701 0.699309 0
M  V30 2234 H 198.359 -7.89595 2.15596 0
M  V30 2235 N 201.022 0.148545 -1.56898 0
M  V30 2236 C 202.27 0.859717 -1.82902 0
M  V30 2237 C 202.591 1.81775 -0.70588 0
M  V30 2238 O 201.861 1.93994 0.272586 0
M  V30 2239 H 200.441 0.320469 -0.674766 0
M  V30 2240 H 203.103 0.142918 -1.94375 0
M  V30 2241 H 202.199 1.4229 -2.77777 0
M  V30 2242 N 202.5 1.5196 0.417844 0
M  V30 2243 C 203.748 1.65263 1.16329 0
M  V30 2244 C 204.069 0.380634 1.91249 0
M  V30 2245 O 203.339 -0.604214 1.86349 0
M  V30 2246 H 201.919 0.60912 0.432414 0
M  V30 2247 H 204.581 1.88969 0.477162 0
M  V30 2248 H 203.677 2.4896 1.88217 0
M  V30 2249 N 203.978 -0.674533 1.42435 0
M  V30 2250 C 205.255 -1.4305 1.33402 0
M  V30 2251 C 205.635 -2.11081 -0.0284674 0
M  V30 2252 O 204.983 -2.03257 -1.04397 0
M  V30 2253 C 205.193 -2.43272 2.50239 0
M  V30 2254 C 206.541 -3.07907 2.92367 0
M  V30 2255 O 207.565 -2.53599 2.50132 0
M  V30 2256 O 206.424 -4.0632 3.65467 0
M  V30 2257 H 203.518 -0.638076 0.526106 0
M  V30 2258 H 206.064 -0.703235 1.54443 0
M  V30 2259 H 204.836 -1.91803 3.41068 0
M  V30 2260 H 204.459 -3.23479 2.31186 0
M  V30 2261 N 205.456 -1.28612 -0.910864 0
M  V30 2262 C 206.702 -1.16106 -1.66274 0
M  V30 2263 C 207.035 0.289113 -1.92036 0
M  V30 2264 O 206.31 1.21 -1.52281 0
M  V30 2265 C 206.593 -1.96309 -3.01885 0
M  V30 2266 C 206.446 -3.49405 -2.8326 0
M  V30 2267 C 207.765 -1.78076 -4.02463 0
M  V30 2268 H 204.884 -0.423152 -0.603417 0
M  V30 2269 H 207.526 -1.57961 -1.05586 0
M  V30 2270 H 205.676 -1.60742 -3.53687 0
M  V30 2271 H 207.348 -3.94894 -2.38446 0
M  V30 2272 H 205.591 -3.74893 -2.18261 0
M  V30 2273 H 206.262 -4.00784 -3.79574 0
M  V30 2274 H 208.738 -2.0912 -3.59733 0
M  V30 2275 H 207.614 -2.36561 -4.95308 0
M  V30 2276 H 207.875 -0.733008 -4.35981 0
M  V30 2277 N 206.934 1.1197 -1.10907 0
M  V30 2278 C 208.162 1.87402 -0.876824 0
M  V30 2279 C 208.577 1.79894 0.573025 0
M  V30 2280 O 207.934 1.17629 1.39534 0
M  V30 2281 C 207.985 3.36428 -1.32282 0
M  V30 2282 O 207.706 3.43765 -2.71582 0
M  V30 2283 C 209.207 4.28783 -1.12518 0
M  V30 2284 H 206.427 0.592793 -0.314384 0
M  V30 2285 H 208.971 1.41649 -1.47499 0
M  V30 2286 H 207.126 3.79706 -0.768229 0
M  V30 2287 H 207.54 4.3652 -2.90776 0
M  V30 2288 H 209.014 5.31613 -1.48633 0
M  V30 2289 H 209.491 4.39153 -0.0642394 0
M  V30 2290 H 210.097 3.91291 -1.66648 0
M  V30 2291 N 208.412 0.89855 1.29475 0
M  V30 2292 C 209.322 0.379974 2.31502 0
M  V30 2293 C 210.338 -0.524695 1.659 0
M  V30 2294 O 211.514 -0.414551 1.97087 0
M  V30 2295 C 208.579 -0.385138 3.44554 0
M  V30 2296 C 207.64 0.550914 4.2575 0
M  V30 2297 C 206.873 -0.177778 5.33404 0
M  V30 2298 O 207.096 -1.40189 5.52904 0
M  V30 2299 O 206.03 0.479106 5.9999 0
M  V30 2300 H 209.856 1.22639 2.77837 0
M  V30 2301 H 207.441 0.662834 1.33891 0
M  V30 2302 H 209.323 -0.817841 4.13388 0
M  V30 2303 H 207.998 -1.20763 3.0033 0
M  V30 2304 H 206.905 1.03271 3.59564 0
M  V30 2305 H 208.238 1.33979 4.73614 0
M  V30 2306 N 209.89 -1.43072 0.660911 0
M  V30 2307 C 211.136 -2.02545 0.186337 0
M  V30 2308 C 211.491 -1.51253 -1.18913 0
M  V30 2309 O 210.784 -0.699167 -1.78388 0
M  V30 2310 C 210.978 -3.57103 0.145563 0
M  V30 2311 C 210.807 -4.23393 1.51554 0
M  V30 2312 C 209.577 -4.59144 2.10984 0
M  V30 2313 C 211.775 -4.51897 2.45548 0
M  V30 2314 N 209.757 -5.10545 3.40907 0
M  V30 2315 C 211.128 -5.04698 3.6011 0
M  V30 2316 C 213.183 -4.33872 2.44253 0
M  V30 2317 C 211.886 -5.41371 4.73613 0
M  V30 2318 C 213.912 -4.71612 3.56842 0
M  V30 2319 C 213.274 -5.24553 4.70131 0
M  V30 2320 H 209.373 -0.773823 0.112792 0
M  V30 2321 H 211.957 -1.74137 0.870885 0
M  V30 2322 H 210.128 -3.85059 -0.508353 0
M  V30 2323 H 211.86 -4.03264 -0.340598 0
M  V30 2324 H 208.615 -4.4444 1.63615 0
M  V30 2325 H 209.039 -5.40689 4.07411 0
M  V30 2326 H 213.681 -3.92208 1.579 0
M  V30 2327 H 211.399 -5.81975 5.60652 0
M  V30 2328 H 214.985 -4.59354 3.57051 0
M  V30 2329 H 213.865 -5.53213 5.5581 0
M  V30 2330 N 211.368 -0.403325 -1.52352 0
M  V30 2331 C 212.614 0.174605 -2.02047 0
M  V30 2332 C 212.947 1.45282 -1.28867 0
M  V30 2333 O 212.222 1.90483 -0.393257 0
M  V30 2334 C 212.505 0.428238 -3.57545 0
M  V30 2335 C 212.358 -0.866248 -4.4138 0
M  V30 2336 C 213.677 1.21287 -4.23057 0
M  V30 2337 H 210.796 0.0619851 -0.734389 0
M  V30 2338 H 213.438 -0.53565 -1.82293 0
M  V30 2339 H 211.588 1.03327 -3.74507 0
M  V30 2340 H 213.26 -1.50265 -4.3614 0
M  V30 2341 H 211.503 -1.47851 -4.07827 0
M  V30 2342 H 212.174 -0.643249 -5.48239 0
M  V30 2343 H 214.65 0.700703 -4.10158 0
M  V30 2344 H 213.526 1.35909 -5.31808 0
M  V30 2345 H 213.787 2.23193 -3.81625 0
M  V30 2346 N 212.846 1.57033 -0.133567 0
M  V30 2347 C 214.257 1.82593 0.389464 0
M  V30 2348 C 214.608 1.05156 1.6564 0
M  V30 2349 O 213.733 0.292644 2.14412 0
M  V30 2350 C 214.328 3.31204 0.713377 0
M  V30 2351 C 212.887 3.57393 1.18098 0
M  V30 2352 C 212.034 2.76598 0.197126 0
M  V30 2353 H 214.985 1.54598 -0.358481 0
M  V30 2354 H 215.006 3.46627 1.56939 0
M  V30 2355 H 214.518 3.87537 -0.2089 0
M  V30 2356 H 212.619 3.06433 2.11966 0
M  V30 2357 H 212.732 4.65915 1.11624 0
M  V30 2358 H 211.096 2.45257 0.687088 0
M  V30 2359 H 211.879 3.35697 -0.718504 0
M  V30 2360 N 214.325 -0.140222 1.56975 0
M  V30 2361 C 215.736 -0.699596 1.73097 0
M  V30 2362 C 216.087 -1.8134 0.749022 0
M  V30 2363 O 215.212 -2.16241 -0.0828503 0
M  V30 2364 C 215.807 -1.27582 3.1386 0
M  V30 2365 C 214.366 -1.78169 3.31561 0
M  V30 2366 C 213.513 -0.672855 2.69013 0
M  V30 2367 H 216.464 0.0855115 1.58469 0
M  V30 2368 H 216.485 -2.14561 3.14235 0
M  V30 2369 H 215.997 -0.464955 3.85305 0
M  V30 2370 H 214.098 -2.61801 2.65124 0
M  V30 2371 H 214.211 -1.90574 4.39566 0
M  V30 2372 H 212.575 -1.10118 2.29665 0
M  V30 2373 H 213.358 0.126679 3.43066 0
M  V30 2374 N 215.803 -1.52179 -0.40978 0
M  V30 2375 C 216.713 -1.78364 -1.52392 0
M  V30 2376 C 217.729 -0.669183 -1.60617 0
M  V30 2377 O 218.905 -0.954518 -1.77344 0
M  V30 2378 C 215.97 -1.92822 -2.88133 0
M  V30 2379 C 215.031 -3.16725 -2.898 0
M  V30 2380 C 214.264 -3.30483 -4.19067 0
M  V30 2381 O 214.487 -2.49522 -5.12928 0
M  V30 2382 O 213.421 -4.2363 -4.27576 0
M  V30 2383 H 217.247 -2.72931 -1.33201 0
M  V30 2384 H 214.832 -1.37016 -0.59557 0
M  V30 2385 H 216.714 -2.04157 -3.68643 0
M  V30 2386 H 215.389 -1.01444 -3.07393 0
M  V30 2387 H 214.296 -3.10848 -2.08146 0
M  V30 2388 H 215.629 -4.07881 -2.75489 0
M  V30 2389 N 217.281 0.66697 -1.42791 0
M  V30 2390 C 218.527 1.4291 -1.43891 0
M  V30 2391 C 218.86 1.94114 -0.0578972 0
M  V30 2392 O 218.135 1.71414 0.91911 0
M  V30 2393 C 218.418 2.62049 -2.46987 0
M  V30 2394 C 218.271 2.16426 -3.94309 0
M  V30 2395 C 219.59 3.64266 -2.46978 0
M  V30 2396 H 216.709 0.518306 -0.523954 0
M  V30 2397 H 219.351 0.757321 -1.74255 0
M  V30 2398 H 217.501 3.19361 -2.21225 0
M  V30 2399 H 219.173 1.64221 -4.31079 0
M  V30 2400 H 217.416 1.47925 -4.078 0
M  V30 2401 H 218.087 3.02038 -4.62036 0
M  V30 2402 H 220.563 3.16686 -2.69906 0
M  V30 2403 H 219.439 4.45196 -3.21079 0
M  V30 2404 H 219.7 4.15927 -1.49857 0
M  V30 2405 N 218.759 1.29093 0.90403 0
M  V30 2406 C 219.722 1.1386 1.98919 0
M  V30 2407 C 220.722 0.0753457 1.60623 0
M  V30 2408 O 221.912 0.321931 1.71199 0
M  V30 2409 C 219.044 0.740198 3.32767 0
M  V30 2410 H 220.237 2.10246 2.13861 0
M  V30 2411 H 217.79 1.12218 1.08797 0
M  V30 2412 H 218.525 -0.223997 3.23525 0
M  V30 2413 H 218.31 1.50838 3.61926 0
M  V30 2414 H 219.8 0.656546 4.12407 0
M  V30 2415 N 220.237 -1.11381 1.11499 0
M  V30 2416 C 221.653 -1.35143 0.849031 0
M  V30 2417 C 221.853 -1.94515 -0.525938 0
M  V30 2418 O 220.909 -2.1785 -1.27662 0
M  V30 2419 C 222.222 -2.28249 1.95762 0
M  V30 2420 C 223.77 -2.41812 1.98736 0
M  V30 2421 C 224.245 -3.3824 3.088 0
M  V30 2422 N 225.736 -3.45803 3.08179 0
M  V30 2423 C 226.471 -4.20358 3.89982 0
M  V30 2424 N 225.967 -4.97884 4.8175 0
M  V30 2425 N 227.76 -4.15877 3.78157 0
M  V30 2426 H 219.911 -0.712062 2.00109 0
M  V30 2427 H 222.174 -0.376025 0.870235 0
M  V30 2428 H 221.88 -1.91817 2.94787 0
M  V30 2429 H 221.754 -3.28473 1.85433 0
M  V30 2430 H 224.141 -2.77518 1.00338 0
M  V30 2431 H 224.222 -1.41437 2.13141 0
M  V30 2432 H 223.866 -3.03261 4.07425 0
M  V30 2433 H 223.796 -4.38471 2.91635 0
M  V30 2434 H 226.287 -2.90506 2.41691 0
M  V30 2435 H 226.6 -5.52142 5.40702 0
M  V30 2436 H 224.945 -4.97043 4.85771 0
M  V30 2437 H 228.136 -3.544 3.05808 0
M  V30 2438 H 228.309 -4.73723 4.42143 0
M  V30 2439 N 221.715 -0.905404 -1.28997 0
M  V30 2440 C 222.678 -0.392253 -2.25819 0
M  V30 2441 C 223.678 0.476753 -1.5357 0
M  V30 2442 O 224.868 0.280994 -1.71919 0
M  V30 2443 C 222 0.438588 -3.38067 0
M  V30 2444 H 223.193 -1.24743 -2.72725 0
M  V30 2445 H 220.746 -0.684051 -1.40536 0
M  V30 2446 H 221.481 1.31352 -2.96508 0
M  V30 2447 H 221.266 -0.184167 -3.91667 0
M  V30 2448 H 222.756 0.78873 -4.10084 0
M  V30 2449 N 223.193 1.4272 -0.668489 0
M  V30 2450 C 224.123 2.335 -0.000100175 0
M  V30 2451 C 225.104 1.50328 0.795964 0
M  V30 2452 O 226.289 1.78949 0.754385 0
M  V30 2453 C 223.419 3.33874 0.956302 0
M  V30 2454 C 222.373 4.27152 0.269278 0
M  V30 2455 C 221.699 5.17684 1.33818 0
M  V30 2456 C 222.999 5.15373 -0.847805 0
M  V30 2457 H 224.693 2.89639 -0.758244 0
M  V30 2458 H 222.239 1.39269 -0.366079 0
M  V30 2459 H 224.192 3.9629 1.43292 0
M  V30 2460 H 222.916 2.76025 1.74579 0
M  V30 2461 H 221.575 3.66123 -0.187042 0
M  V30 2462 H 221.223 4.56165 2.1195 0
M  V30 2463 H 220.923 5.80918 0.883659 0
M  V30 2464 H 222.447 5.82974 1.81586 0
M  V30 2465 H 223.861 5.7151 -0.452681 0
M  V30 2466 H 222.258 5.87407 -1.22773 0
M  V30 2467 H 223.328 4.5415 -1.69929 0
M  V30 2468 N 224.671 0.411399 1.52136 0
M  V30 2469 C 225.619 -0.427633 2.28635 0
M  V30 2470 C 226.613 -1.04383 1.33419 0
M  V30 2471 O 227.819 -0.981772 1.50868 0
M  V30 2472 H 224.194 -0.156689 0.735495 0
M  V30 2473 H 226.165 0.238761 2.97443 0
M  V30 2474 C 224.914 -1.53082 3.12188 0
M  V30 2475 H 224.237 -1.06601 3.85326 0
M  V30 2476 H 225.677 -2.09167 3.68816 0
M  V30 2477 C 224.136 -2.49946 2.25895 0
M  V30 2478 O 224.666 -3.53884 1.90076 0
M  V30 2479 N 222.872 -2.2021 1.8962 0
M  V30 2480 H 222.419 -1.35719 2.18948 0
M  V30 2481 H 222.377 -2.85266 1.32176 0
M  V30 2482 N 226.149 -1.5696 0.141893 0
M  V30 2483 C 227.059 -2.20066 -0.812905 0
M  V30 2484 C 228.075 -1.18344 -1.27557 0
M  V30 2485 O 229.251 -1.50902 -1.33381 0
M  V30 2486 C 226.316 -2.80583 -2.03652 0
M  V30 2487 C 225.377 -3.97414 -1.62359 0
M  V30 2488 C 224.61 -4.55036 -2.78887 0
M  V30 2489 O 224.833 -4.11538 -3.94959 0
M  V30 2490 O 223.767 -5.45376 -2.54653 0
M  V30 2491 H 227.593 -3.02157 -0.305746 0
M  V30 2492 H 225.178 -1.49159 -0.0848799 0
M  V30 2493 H 227.06 -3.19067 -2.75272 0
M  V30 2494 H 225.735 -2.01508 -2.5333 0
M  V30 2495 H 224.642 -3.63656 -0.877775 0
M  V30 2496 H 225.975 -4.77994 -1.17401 0
M  V30 2497 N 227.627 0.131896 -1.57047 0
M  V30 2498 C 228.574 1.16236 -1.99393 0
M  V30 2499 C 229.544 1.41863 -0.863943 0
M  V30 2500 O 230.729 1.53946 -1.12718 0
M  V30 2501 C 227.869 2.48708 -2.39245 0
M  V30 2502 C 226.982 2.30127 -3.65603 0
M  V30 2503 C 226.117 3.55738 -3.94492 0
M  V30 2504 C 225.156 3.32259 -5.14073 0
M  V30 2505 N 224.293 4.50039 -5.38896 0
M  V30 2506 H 229.133 0.794251 -2.87221 0
M  V30 2507 H 226.67 0.380707 -1.42088 0
M  V30 2508 H 228.628 3.25969 -2.60384 0
M  V30 2509 H 227.258 2.83437 -1.54478 0
M  V30 2510 H 226.31 1.43845 -3.52154 0
M  V30 2511 H 227.622 2.08746 -4.5302 0
M  V30 2512 H 226.776 4.41423 -4.1621 0
M  V30 2513 H 225.515 3.80138 -3.05526 0
M  V30 2514 H 224.52 2.44963 -4.92212 0
M  V30 2515 H 225.745 3.09242 -6.04604 0
M  V30 2516 H 223.691 4.74584 -4.52886 0
M  V30 2517 H 223.608 4.31716 -6.2061 0
M  V30 2518 H 224.876 5.36895 -5.65123 0
M  V30 2519 N 229.106 1.52395 0.401703 0
M  V30 2520 C 230.036 1.79231 1.49661 0
M  V30 2521 C 231.017 0.643654 1.57452 0
M  V30 2522 O 232.202 0.889989 1.72606 0
M  V30 2523 C 229.332 1.94971 2.87409 0
M  V30 2524 C 228.286 3.10604 2.94465 0
M  V30 2525 C 227.612 3.11577 4.34538 0
M  V30 2526 C 228.912 4.49921 2.6527 0
M  V30 2527 H 230.606 2.70917 1.27454 0
M  V30 2528 H 228.152 1.30362 0.6117 0
M  V30 2529 H 230.105 2.12328 3.63999 0
M  V30 2530 H 228.829 0.999632 3.10926 0
M  V30 2531 H 227.488 2.93009 2.20321 0
M  V30 2532 H 227.136 2.14277 4.55076 0
M  V30 2533 H 226.836 3.89247 4.40183 0
M  V30 2534 H 228.36 3.31073 5.13053 0
M  V30 2535 H 229.774 4.67683 3.31581 0
M  V30 2536 H 228.171 5.29564 2.82281 0
M  V30 2537 H 229.241 4.57507 1.60671 0
M  V30 2538 N 230.584 -0.659388 1.43143 0
M  V30 2539 C 231.531 -1.77249 1.47822 0
M  V30 2540 C 232.501 -1.62818 0.328558 0
M  V30 2541 O 233.686 -1.83151 0.534838 0
M  V30 2542 C 230.826 -3.15371 1.40126 0
M  V30 2543 C 229.939 -3.4098 2.65249 0
M  V30 2544 C 229.074 -4.68915 2.49584 0
M  V30 2545 C 228.113 -4.87608 3.70006 0
M  V30 2546 N 227.25 -6.06796 3.53189 0
M  V30 2547 H 232.09 -1.72584 2.42938 0
M  V30 2548 H 229.627 -0.842297 1.20598 0
M  V30 2549 H 231.585 -3.9521 1.33659 0
M  V30 2550 H 230.215 -3.19121 0.485964 0
M  V30 2551 H 229.267 -2.55282 2.8202 0
M  V30 2552 H 230.579 -3.50681 3.54717 0
M  V30 2553 H 229.733 -5.56871 2.4079 0
M  V30 2554 H 228.472 -4.61524 1.5763 0
M  V30 2555 H 227.477 -3.9809 3.79215 0
M  V30 2556 H 228.702 -4.96834 4.62961 0
M  V30 2557 H 226.648 -6.00549 2.63965 0
M  V30 2558 H 226.565 -6.17428 4.36255 0
M  V30 2559 H 227.833 -6.9739 3.48236 0
M  V30 2560 N 232.062 -1.29571 -0.897171 0
M  V30 2561 C 232.972 -1.16808 -2.03453 0
M  V30 2562 C 233.988 -0.0907471 -1.73763 0
M  V30 2563 O 235.164 -0.303312 -1.99103 0
M  V30 2564 C 232.229 -0.848264 -3.36163 0
M  V30 2565 C 231.29 -2.0097 -3.79354 0
M  V30 2566 C 230.523 -1.70505 -5.05731 0
M  V30 2567 O 230.746 -0.62718 -5.66941 0
M  V30 2568 O 229.68 -2.5538 -5.45036 0
M  V30 2569 H 233.506 -2.12325 -2.17144 0
M  V30 2570 H 231.091 -1.09047 -1.02123 0
M  V30 2571 H 232.973 -0.684581 -4.15802 0
M  V30 2572 H 231.648 0.0771071 -3.23608 0
M  V30 2573 H 230.555 -2.22863 -3.00471 0
M  V30 2574 H 231.888 -2.91636 -3.96496 0
M  V30 2575 N 233.54 1.10788 -1.12088 0
M  V30 2576 C 234.788 1.8231 -0.872205 0
M  V30 2577 C 235.109 1.85419 0.603709 0
M  V30 2578 O 234.379 1.32963 1.43867 0
M  V30 2579 H 232.959 0.675137 -0.319686 0
M  V30 2580 H 235.621 1.34068 -1.41463 0
M  V30 2581 H 234.717 2.85955 -1.25045 0
M  V30 2582 N 235.018 0.912232 1.28515 0
M  V30 2583 C 235.965 0.397954 2.27343 0
M  V30 2584 C 236.935 -0.526766 1.57526 0
M  V30 2585 O 238.12 -0.449292 1.85435 0
M  V30 2586 C 235.26 -0.357263 3.43246 0
M  V30 2587 C 234.373 0.599788 4.27816 0
M  V30 2588 C 233.508 -0.173725 5.30916 0
M  V30 2589 C 232.547 0.777039 6.07148 0
M  V30 2590 N 231.684 0.0371398 7.0209 0
M  V30 2591 H 236.524 1.24577 2.70711 0
M  V30 2592 H 234.061 0.625612 1.33133 0
M  V30 2593 H 236.019 -0.8113 4.09236 0
M  V30 2594 H 234.649 -1.16943 3.00872 0
M  V30 2595 H 233.701 1.17235 3.61884 0
M  V30 2596 H 235.013 1.32704 4.80823 0
M  V30 2597 H 234.167 -0.688394 6.02782 0
M  V30 2598 H 232.906 -0.934041 4.78672 0
M  V30 2599 H 231.911 1.3031 5.34134 0
M  V30 2600 H 233.136 1.53689 6.61481 0
M  V30 2601 H 231.082 -0.705213 6.52198 0
M  V30 2602 H 230.999 0.704249 7.52713 0
M  V30 2603 H 232.267 -0.457383 7.78157 0
M  V30 2604 N 236.496 -1.42363 0.676048 0
M  V30 2605 C 237.912 -1.55811 0.345718 0
M  V30 2606 C 238.112 -1.65544 -1.14879 0
M  V30 2607 O 237.168 -1.62306 -1.93424 0
M  V30 2608 C 238.481 -2.80746 1.07713 0
M  V30 2609 C 240.029 -2.9452 1.05958 0
M  V30 2610 C 240.504 -4.22318 1.77233 0
M  V30 2611 N 241.995 -4.29233 1.74108 0
M  V30 2612 C 242.73 -5.26935 2.26113 0
M  V30 2613 N 242.226 -6.30783 2.86505 0
M  V30 2614 N 244.019 -5.18741 2.1648 0
M  V30 2615 H 236.17 -1.34289 1.6456 0
M  V30 2616 H 238.433 -0.646506 0.69335 0
M  V30 2617 H 238.139 -2.79696 2.13221 0
M  V30 2618 H 238.013 -3.71676 0.64316 0
M  V30 2619 H 240.4 -2.95097 0.0128255 0
M  V30 2620 H 240.481 -2.04817 1.53244 0
M  V30 2621 H 240.125 -4.22502 2.81877 0
M  V30 2622 H 240.055 -5.10958 1.27396 0
M  V30 2623 H 242.546 -3.54814 1.30059 0
M  V30 2624 H 242.859 -7.01691 3.23805 0
M  V30 2625 H 241.204 -6.31341 2.90575 0
M  V30 2626 H 244.395 -4.36533 1.68987 0
M  V30 2627 H 244.568 -5.94721 2.57316 0
M  V30 2628 O 238.013 -0.561574 -1.51422 0
M  V30 2629 H 238.704 -0.0603133 -1.93606 0
M  V30 END ATOM
M  V30 BEGIN BOND
M  V30 END BOND
M  V30 END CTAB
M  END
$$$$
