drugbank_target|Q9X0P2 Uncharacterized protein (DB03661)
 OpenBabel12092120283D

  0  0  0     0  0            999 V3000
M  V30 BEGIN CTAB
M  V30 COUNTS 3806 3848 0 0 0
M  V30 BEGIN ATOM
M  V30 1 H -0.908 1.98254 -0.117106 0
M  V30 2 N 0 1.576 0 0
M  V30 3 C 0.933 2.03868 1.02534 0
M  V30 4 C 1.911 0.928543 1.3348 0
M  V30 5 O 3.095 1.19667 1.45644 0
M  V30 6 C 0.222 2.43627 2.35294 0
M  V30 7 C -0.732 3.65373 2.2001 0
M  V30 8 S 0.101 5.13292 1.52614 0
M  V30 9 C 1.257 5.56322 2.86805 0
M  V30 10 H 1.49 2.90518 0.631377 0
M  V30 11 H -0.977 1.52953 0.210867 0
M  V30 12 H 0.981 2.67203 3.11629 0
M  V30 13 H -0.358 1.57376 2.7183 0
M  V30 14 H -1.165 3.90944 3.18086 0
M  V30 15 H -1.563 3.418 1.51819 0
M  V30 16 H 0.729 5.58782 3.83104 0
M  V30 17 H 1.672 6.56266 2.65933 0
M  V30 18 H 2.08 4.83886 2.90714 0
M  V30 19 N 1.4781 -0.272755 1.55222 0
M  V30 20 C 2.8941 -0.619959 1.47067 0
M  V30 21 C 3.0941 -1.895 0.684978 0
M  V30 22 O 2.1501 -2.51675 0.203931 0
M  V30 23 C 3.4631 -0.746693 2.91282 0
M  V30 24 C 5.0111 -0.840731 3.01497 0
M  V30 25 C 5.4861 -0.99924 4.46967 0
M  V30 26 N 6.9771 -1.06476 4.50796 0
M  V30 27 C 7.7121 -1.20621 5.6057 0
M  V30 28 N 7.2081 -1.31483 6.80209 0
M  V30 29 N 9.0011 -1.23733 5.48312 0
M  V30 30 H 1.1521 0.564606 2.04758 0
M  V30 31 H 3.4151 0.191177 0.928523 0
M  V30 32 H 3.1211 0.119753 3.51496 0
M  V30 33 H 2.9951 -1.6269 3.40311 0
M  V30 34 H 5.3821 -1.69764 2.41379 0
M  V30 35 H 5.4631 0.0640874 2.5572 0
M  V30 36 H 5.1071 -0.146984 5.07687 0
M  V30 37 H 5.0371 -1.91871 4.90401 0
M  V30 38 H 7.5281 -0.993196 3.64615 0
M  V30 39 H 7.8411 -1.42111 7.59621 0
M  V30 40 H 6.1861 -1.28487 6.8302 0
M  V30 41 H 9.3771 -1.14877 4.53785 0
M  V30 42 H 9.5501 -1.34412 6.33906 0
M  V30 43 N 2.9562 -1.48159 -0.537278 0
M  V30 44 C 4.2022 -1.56035 -1.29541 0
M  V30 45 C 4.5352 -0.230377 -1.92829 0
M  V30 46 O 3.8102 0.762952 -1.78911 0
M  V30 47 C 4.0932 -2.69323 -2.39034 0
M  V30 48 C 3.9462 -4.12002 -1.80485 0
M  V30 49 C 5.2652 -2.78408 -3.40847 0
M  V30 50 H 2.3842 -0.567992 -0.469632 0
M  V30 51 H 5.0262 -1.80302 -0.599277 0
M  V30 52 H 3.1762 -2.48763 -2.98412 0
M  V30 53 H 4.8482 -4.43981 -1.25215 0
M  V30 54 H 3.0912 -4.19344 -1.11055 0
M  V30 55 H 3.7622 -4.87077 -2.59731 0
M  V30 56 H 6.2382 -2.97012 -2.91416 0
M  V30 57 H 5.1142 -3.59416 -4.14863 0
M  V30 58 H 5.3752 -1.86269 -4.00944 0
M  V30 59 N 4.4343 0.785586 -1.36625 0
M  V30 60 C 5.3643 1.91259 -1.33949 0
M  V30 61 C 6.3453 1.68795 -0.210325 0
M  V30 62 O 7.5303 1.89854 -0.408561 0
M  V30 63 C 4.6603 3.28339 -1.13186 0
M  V30 64 C 3.6143 3.65335 -2.22967 0
M  V30 65 C 2.9403 5.00806 -1.87342 0
M  V30 66 C 4.2403 3.7352 -3.65075 0
M  V30 67 H 5.9343 1.93755 -2.28253 0
M  V30 68 H 3.4803 0.930788 -1.09874 0
M  V30 69 H 5.4333 4.06804 -1.09948 0
M  V30 70 H 4.1573 3.2624 -0.153332 0
M  V30 71 H 2.8163 2.89169 -2.25337 0
M  V30 72 H 2.4643 4.95233 -0.880545 0
M  V30 73 H 2.1643 5.26529 -2.60846 0
M  V30 74 H 3.6883 5.81687 -1.85667 0
M  V30 75 H 5.1023 4.42168 -3.64911 0
M  V30 76 H 3.4993 4.10731 -4.37516 0
M  V30 77 H 4.5693 2.74527 -3.99703 0
M  V30 78 N 5.9124 1.20967 1.01018 0
M  V30 79 C 6.8754 0.965918 2.07853 0
M  V30 80 C 7.8754 -0.0610545 1.60684 0
M  V30 81 O 9.0654 0.175681 1.73312 0
M  V30 82 C 6.1974 0.455513 3.37843 0
M  V30 83 H 7.3904 1.91365 2.3091 0
M  V30 84 H 4.9434 1.02594 1.17916 0
M  V30 85 H 5.6784 -0.497381 3.20463 0
M  V30 86 H 5.4634 1.19622 3.73407 0
M  V30 87 H 6.9534 0.304667 4.16487 0
M  V30 88 N 7.3905 -1.2043 1.01659 0
M  V30 89 C 8.6395 -1.89118 0.701237 0
M  V30 90 C 8.9525 -1.79705 -0.772358 0
M  V30 91 O 10.1585 -2.43528 -1.20026 0
M  V30 92 C 8.6145 -3.39168 1.20388 0
M  V30 93 C 8.2225 -3.57166 2.70438 0
M  V30 94 C 9.9665 -4.1341 0.963953 0
M  V30 95 C 7.8735 -5.01042 3.14183 0
M  V30 96 H 6.8035 -0.708267 0.2586 0
M  V30 97 H 9.4545 -1.36239 1.22927 0
M  V30 98 H 7.8365 -3.91369 0.603824 0
M  V30 99 H 9.0105 -3.15351 3.35992 0
M  V30 100 H 7.3255 -2.96294 2.92572 0
M  V30 101 H 9.9225 -5.19491 1.26621 0
M  V30 102 H 10.2655 -4.16181 -0.099578 0
M  V30 103 H 10.7985 -3.67309 1.52738 0
M  V30 104 H 7.5375 -5.03426 4.19812 0
M  V30 105 H 7.0575 -5.43668 2.53348 0
M  V30 106 H 8.7365 -5.69623 3.0682 0
M  V30 107 N 8.8686 -0.792821 -1.36206 0
M  V30 108 C 10.2846 -0.474903 -1.52371 0
M  V30 109 C 10.4846 1.00622 -1.74578 0
M  V30 110 O 9.5406 1.79162 -1.77924 0
M  V30 111 C 10.8536 -1.3083 -2.70747 0
M  V30 112 C 12.4016 -1.30234 -2.84619 0
M  V30 113 C 12.8766 -2.11956 -4.06004 0
M  V30 114 N 14.3676 -2.09419 -4.13156 0
M  V30 115 C 15.1026 -2.69419 -5.06163 0
M  V30 116 N 14.5986 -3.3829 -6.04592 0
M  V30 117 N 16.3916 -2.59134 -4.98804 0
M  V30 118 H 8.5426 -1.75222 -1.20046 0
M  V30 119 H 10.8056 -0.745024 -0.586211 0
M  V30 120 H 10.5116 -2.35881 -2.6087 0
M  V30 121 H 10.3856 -0.95196 -3.6499 0
M  V30 122 H 12.7726 -0.259748 -2.93955 0
M  V30 123 H 12.8536 -1.69847 -1.91274 0
M  V30 124 H 12.4976 -3.16248 -3.97429 0
M  V30 125 H 12.4276 -1.69711 -4.98503 0
M  V30 126 H 14.9186 -1.59297 -3.42685 0
M  V30 127 H 15.2316 -3.81394 -6.7213 0
M  V30 128 H 13.5766 -3.42393 -6.04807 0
M  V30 129 H 16.7676 -2.04927 -4.20859 0
M  V30 130 H 16.9406 -3.06185 -5.711 0
M  V30 131 N 10.3467 1.47872 -0.545128 0
M  V30 132 C 11.2967 2.26842 0.229456 0
M  V30 133 C 12.2807 1.33626 0.896267 0
M  V30 134 O 13.4727 1.58063 0.79657 0
M  V30 135 C 10.6017 3.19089 1.26638 0
M  V30 136 C 9.6877 4.19783 0.603598 0
M  V30 137 N 10.0787 5.0479 -0.319405 0
M  V30 138 C 8.3767 4.3765 0.858989 0
M  V30 139 C 9.0777 5.77433 -0.703241 0
M  V30 140 N 8.0537 5.43566 -0.0608309 0
M  V30 141 H 11.8557 2.89947 -0.480391 0
M  V30 142 H 9.3697 1.58263 -0.364209 0
M  V30 143 H 11.3667 3.74337 1.83515 0
M  V30 144 H 10.0267 2.5754 1.97745 0
M  V30 145 H 11.0377 5.13244 -0.692889 0
M  V30 146 H 7.7147 3.87281 1.55948 0
M  V30 147 H 9.1047 6.55824 -1.46098 0
M  V30 148 N 11.8248 0.280983 1.55075 0
M  V30 149 C 13.0708 -0.33461 2.00021 0
M  V30 150 C 13.4038 -1.55063 1.16915 0
M  V30 151 O 12.6788 -1.93006 0.240646 0
M  V30 152 C 12.9618 -0.711007 3.53011 0
M  V30 153 C 12.8148 0.512766 4.46868 0
M  V30 154 C 14.1338 -1.54522 4.12081 0
M  V30 155 H 11.2528 -0.120147 0.727141 0
M  V30 156 H 13.8948 0.389097 1.85973 0
M  V30 157 H 12.0448 -1.32761 3.65112 0
M  V30 158 H 13.7168 1.15131 4.46702 0
M  V30 159 H 11.9598 1.14975 4.18286 0
M  V30 160 H 12.6308 0.205556 5.51617 0
M  V30 161 H 15.1068 -1.02442 4.03293 0
M  V30 162 H 13.9828 -1.77739 5.19327 0
M  V30 163 H 14.2438 -2.52813 3.62682 0
M  V30 164 N 13.3029 -1.57598 0.00835791 0
M  V30 165 C 14.2129 -2.12385 -0.996487 0
M  V30 166 C 15.2289 -1.07108 -1.37127 0
M  V30 167 O 16.4049 -1.39055 -1.4569 0
M  V30 168 C 13.4699 -2.62314 -2.26699 0
M  V30 169 C 12.5309 -3.82225 -1.95456 0
M  V30 170 C 11.7639 -4.29763 -3.16449 0
M  V30 171 O 11.9869 -3.76584 -4.28416 0
M  V30 172 O 10.9209 -5.21832 -2.99958 0
M  V30 173 H 14.7469 -2.98479 -0.560725 0
M  V30 174 H 12.3319 -1.47903 -0.210987 0
M  V30 175 H 14.2139 -2.94589 -3.01322 0
M  V30 176 H 12.8889 -1.79313 -2.69497 0
M  V30 177 H 11.7959 -3.54909 -1.18282 0
M  V30 178 H 13.1289 -4.66324 -1.57489 0
M  V30 179 N 14.781 0.264519 -1.55364 0
M  V30 180 C 16.03 0.992812 -1.75574 0
M  V30 181 C 16.343 1.87142 -0.568979 0
M  V30 182 O 17.549 2.63513 -0.653682 0
M  V30 183 C 16.005 1.81519 -3.10771 0
M  V30 184 C 15.613 0.984839 -4.37041 0
M  V30 185 C 17.357 2.53727 -3.40327 0
M  V30 186 C 15.264 1.80209 -5.63275 0
M  V30 187 H 14.194 0.374412 -0.65447 0
M  V30 188 H 16.845 0.248138 -1.81815 0
M  V30 189 H 15.227 2.60115 -2.98591 0
M  V30 190 H 16.401 0.242455 -4.60162 0
M  V30 191 H 14.716 0.37691 -4.14691 0
M  V30 192 H 17.313 3.15292 -4.3185 0
M  V30 193 H 17.656 3.24447 -2.60845 0
M  V30 194 H 18.189 1.82156 -3.53644 0
M  V30 195 H 14.928 1.13896 -6.45529 0
M  V30 196 H 14.448 2.52022 -5.44284 0
M  V30 197 H 16.127 2.37364 -6.01887 0
M  V30 198 N 16.2591 1.48442 0.529413 0
M  V30 199 C 17.1691 1.6569 1.66084 0
M  V30 200 C 18.1851 0.539432 1.65427 0
M  V30 201 O 19.3611 0.810572 1.84368 0
M  V30 202 C 16.4261 1.69315 3.02545 0
M  V30 203 C 15.4871 2.92694 3.14052 0
M  V30 204 C 14.7201 2.96137 4.44003 0
M  V30 205 O 14.9431 2.07973 5.31134 0
M  V30 206 O 13.8771 3.88312 4.59888 0
M  V30 207 H 17.7031 2.61483 1.54469 0
M  V30 208 H 15.2881 1.3185 0.702567 0
M  V30 209 H 17.1701 1.74217 3.83701 0
M  V30 210 H 15.8451 0.766966 3.14483 0
M  V30 211 H 14.7521 2.93324 2.32189 0
M  V30 212 H 16.0851 3.84699 3.0703 0
M  V30 213 N 17.7372 -0.778329 1.37039 0
M  V30 214 C 19.0142 -1.52551 1.22424 0
M  V30 215 C 19.3942 -2.10288 -0.184964 0
M  V30 216 O 18.7422 -1.94953 -1.19187 0
M  V30 217 C 18.9522 -2.61164 2.31504 0
M  V30 218 C 20.3002 -3.28746 2.68721 0
M  V30 219 O 21.3242 -2.71455 2.30631 0
M  V30 220 O 20.1832 -4.3231 3.3432 0
M  V30 221 H 17.2772 -0.675343 0.477326 0
M  V30 222 H 19.8232 -0.815859 1.48801 0
M  V30 223 H 18.5952 -2.16574 3.25901 0
M  V30 224 H 18.2182 -3.39737 2.06554 0
M  V30 225 N 19.2153 -1.21501 -1.00376 0
M  V30 226 C 20.1453 -0.999478 -2.11028 0
M  V30 227 C 21.1263 0.0759671 -1.6993 0
M  V30 228 O 22.3113 -0.0841106 -1.94018 0
M  V30 229 C 19.4413 -0.564709 -3.42678 0
M  V30 230 C 18.3953 -1.58486 -3.97576 0
M  V30 231 C 17.7213 -1.00628 -5.25146 0
M  V30 232 C 19.0213 -2.97204 -4.29496 0
M  V30 233 H 20.7153 -1.92495 -2.29317 0
M  V30 234 H 18.2613 -0.92693 -1.102 0
M  V30 235 H 20.2143 -0.401091 -4.19487 0
M  V30 236 H 18.9383 0.396411 -3.24185 0
M  V30 237 H 17.5973 -1.73606 -3.22888 0
M  V30 238 H 17.2453 -0.0368439 -5.02987 0
M  V30 239 H 16.9453 -1.68771 -5.62841 0
M  V30 240 H 18.4693 -0.854015 -6.04598 0
M  V30 241 H 19.8833 -2.8552 -4.97143 0
M  V30 242 H 18.2803 -3.62372 -4.78338 0
M  V30 243 H 19.3503 -3.47956 -3.3772 0
M  V30 244 N 20.6934 1.19889 -1.02296 0
M  V30 245 C 21.9414 1.89046 -0.714558 0
M  V30 246 C 22.2624 1.79636 0.758681 0
M  V30 247 O 21.5324 1.20292 1.54618 0
M  V30 248 H 20.1124 0.699802 -0.261317 0
M  V30 249 H 22.7744 1.45574 -1.29592 0
M  V30 250 H 21.8704 2.95524 -1.0036 0
M  V30 251 N 22.1715 0.800033 1.35784 0
M  V30 252 C 23.1045 0.151499 2.27697 0
M  V30 253 C 24.0825 -0.678663 1.4776 0
M  V30 254 O 25.2665 -0.647358 1.77035 0
M  V30 255 C 22.3935 -0.790492 3.29346 0
M  V30 256 C 21.4395 -0.0407832 4.26481 0
M  V30 257 S 22.2725 1.29077 5.19711 0
M  V30 258 C 23.4285 0.353055 6.24903 0
M  V30 259 H 23.6615 0.930796 2.82353 0
M  V30 260 H 21.1945 0.594767 1.42485 0
M  V30 261 H 23.1525 -1.3285 3.88409 0
M  V30 262 H 21.8135 -1.54312 2.73581 0
M  V30 263 H 21.0065 -0.755971 4.98298 0
M  V30 264 H 20.6085 0.427063 3.71554 0
M  V30 265 H 22.9005 -0.464147 6.75908 0
M  V30 266 H 23.8435 1.04023 7.00418 0
M  V30 267 H 24.2515 -0.0483344 5.64479 0
M  V30 268 N 23.6496 -1.47581 0.552962 0
M  V30 269 C 24.5826 -2.26883 -0.244857 0
M  V30 270 C 25.5606 -1.33784 -0.924147 0
M  V30 271 O 26.7446 -1.6316 -0.943981 0
M  V30 272 C 23.8716 -3.10695 -1.34856 0
M  V30 273 C 22.9176 -4.19339 -0.778268 0
M  V30 274 S 23.7506 -5.34207 0.37184 0
M  V30 275 C 24.9066 -6.21584 -0.733779 0
M  V30 276 H 25.1396 -2.94202 0.428087 0
M  V30 277 H 22.6726 -1.50628 0.339197 0
M  V30 278 H 24.6306 -3.59555 -1.98066 0
M  V30 279 H 23.2916 -2.42746 -1.99332 0
M  V30 280 H 22.4846 -4.77695 -1.60696 0
M  V30 281 H 22.0866 -3.73338 -0.222422 0
M  V30 282 H 24.3786 -6.57676 -1.62692 0
M  V30 283 H 25.3216 -7.07851 -0.187668 0
M  V30 284 H 25.7296 -5.55125 -1.02454 0
M  V30 285 N 25.1277 -0.289203 -1.54924 0
M  V30 286 C 26.0377 0.601863 -2.26748 0
M  V30 287 C 27.0537 1.15834 -1.2984 0
M  V30 288 O 28.2297 1.18564 -1.62802 0
M  V30 289 C 25.2947 1.76299 -2.98529 0
M  V30 290 C 24.3557 1.24178 -4.10948 0
M  V30 291 C 23.5887 2.34757 -4.79296 0
M  V30 292 O 23.8117 3.54411 -4.46933 0
M  V30 293 O 22.7457 2.02115 -5.66951 0
M  V30 294 H 26.5717 0.0195879 -3.03694 0
M  V30 295 H 24.1567 -0.0560868 -1.49295 0
M  V30 296 H 26.0387 2.43973 -3.43592 0
M  V30 297 H 24.7137 2.33209 -2.24488 0
M  V30 298 H 23.6207 0.531104 -3.70311 0
M  V30 299 H 24.9537 0.718252 -4.86931 0
M  V30 300 N 26.6058 1.57591 -0.0167156 0
M  V30 301 C 27.8828 1.82547 0.702564 0
M  V30 302 C 28.2628 0.898018 1.91047 0
M  V30 303 O 27.6108 -0.0493456 2.28447 0
M  V30 304 C 27.8208 3.31459 1.09251 0
M  V30 305 C 29.1688 3.97622 1.48937 0
M  V30 306 O 30.1928 3.35881 1.18584 0
M  V30 307 O 29.0518 5.06415 2.05442 0
M  V30 308 H 26.1458 0.752268 0.343544 0
M  V30 309 H 28.6918 1.69644 -0.0434495 0
M  V30 310 H 27.4638 3.9061 0.23227 0
M  V30 311 H 27.0868 3.49422 1.89709 0
M  V30 312 N 28.0839 -0.256276 1.55502 0
M  V30 313 C 29.3329 -0.983486 1.76098 0
M  V30 314 C 29.6459 -1.86837 0.578896 0
M  V30 315 O 30.8519 -2.63163 0.667648 0
M  V30 316 C 29.3079 -1.79868 3.1173 0
M  V30 317 C 28.9159 -0.961648 4.37557 0
M  V30 318 C 30.6599 -2.51919 3.41668 0
M  V30 319 C 28.5669 -1.77219 5.64223 0
M  V30 320 H 27.4969 -0.370936 0.656447 0
M  V30 321 H 30.1479 -0.238492 1.81944 0
M  V30 322 H 28.5299 -2.58527 2.99966 0
M  V30 323 H 29.7039 -0.218048 4.60284 0
M  V30 324 H 28.0189 -0.354913 4.14885 0
M  V30 325 H 30.6159 -3.12998 4.33516 0
M  V30 326 H 30.9589 -3.23059 2.62562 0
M  V30 327 H 31.4919 -1.80278 3.54605 0
M  V30 328 H 28.2309 -1.10471 6.46124 0
M  V30 329 H 27.7509 -2.49132 5.45613 0
M  V30 330 H 29.4299 -2.34169 6.03137 0
M  V30 331 N 29.562 -1.4872 -0.521534 0
M  V30 332 C 30.809 -1.57168 -1.27689 0
M  V30 333 C 31.137 -0.249275 -1.92896 0
M  V30 334 O 30.392 0.761162 -1.80291 0
M  V30 335 C 30.691 -2.66497 -2.38148 0
M  V30 336 C 30.357 -4.08664 -1.90538 0
M  V30 337 C 29.019 -4.47357 -1.77271 0
M  V30 338 C 31.371 -4.97724 -1.54663 0
M  V30 339 C 28.699 -5.72905 -1.26478 0
M  V30 340 C 31.051 -6.2377 -1.05329 0
M  V30 341 C 29.715 -6.61311 -0.906861 0
M  V30 342 H 28.985 -0.575117 -0.467249 0
M  V30 343 H 31.632 -1.82472 -0.581051 0
M  V30 344 H 29.937 -2.35085 -3.13437 0
M  V30 345 H 31.634 -2.70246 -2.96257 0
M  V30 346 H 28.224 -3.78111 -2.01816 0
M  V30 347 H 32.408 -4.68501 -1.63768 0
M  V30 348 H 27.664 -6.00709 -1.13835 0
M  V30 349 H 31.838 -6.9217 -0.76644 0
M  V30 350 H 29.465 -7.5848 -0.511083 0
M  V30 351 N 31.0401 0.771051 -1.3745 0
M  V30 352 C 32.4561 1.07171 -1.18265 0
M  V30 353 C 32.6561 2.01491 -0.019287 0
M  V30 354 O 31.7121 2.44244 0.640408 0
M  V30 355 C 33.0251 1.66854 -2.50161 0
M  V30 356 C 34.5731 1.79109 -2.56689 0
M  V30 357 C 35.0481 2.42205 -3.88717 0
M  V30 358 N 36.5391 2.49655 -3.90162 0
M  V30 359 C 37.2741 2.9933 -4.8907 0
M  V30 360 N 36.7701 3.49172 -5.98374 0
M  V30 361 N 38.5631 2.9821 -4.76474 0
M  V30 362 H 30.7141 0.144796 -2.11906 0
M  V30 363 H 32.9771 0.126863 -0.939473 0
M  V30 364 H 32.6831 1.05017 -3.35655 0
M  V30 365 H 32.5571 2.6614 -2.673 0
M  V30 366 H 34.9441 2.40077 -1.71601 0
M  V30 367 H 35.0251 0.785757 -2.43433 0
M  V30 368 H 34.6691 1.81875 -4.74219 0
M  V30 369 H 34.5991 3.43345 -3.99276 0
M  V30 370 H 37.0901 2.14383 -3.11205 0
M  V30 371 H 37.4031 3.8548 -6.69795 0
M  V30 372 H 35.7481 3.47275 -6.02018 0
M  V30 373 H 38.9391 2.58572 -3.90203 0
M  V30 374 H 39.1121 3.36613 -5.53711 0
M  V30 375 N 32.5182 1.22032 0.997298 0
M  V30 376 C 33.4282 1.00271 2.12092 0
M  V30 377 C 34.4442 -0.047621 1.73935 0
M  V30 378 O 35.6202 0.144136 2.00884 0
M  V30 379 C 32.6852 0.578449 3.4184 0
M  V30 380 C 31.7462 1.70189 3.94125 0
M  V30 381 C 30.9792 1.29778 5.17681 0
M  V30 382 O 31.2022 0.174676 5.70132 0
M  V30 383 O 30.1362 2.11261 5.63607 0
M  V30 384 H 33.9622 1.94398 2.3333 0
M  V30 385 H 31.5472 1.00587 1.10465 0
M  V30 386 H 33.4292 0.351998 4.19927 0
M  V30 387 H 32.1042 -0.334019 3.21972 0
M  V30 388 H 31.0112 1.98282 3.1723 0
M  V30 389 H 32.3442 2.59206 4.18417 0
M  V30 390 N 33.9963 -1.19345 1.0293 0
M  V30 391 C 34.9433 -2.2258 0.610464 0
M  V30 392 C 35.9133 -1.6179 -0.375946 0
M  V30 393 O 37.0983 -1.88844 -0.272511 0
M  V30 394 C 34.2383 -3.45085 -0.0321473 0
M  V30 395 C 33.3513 -4.20258 1.00035 0
M  V30 396 C 32.4863 -5.3019 0.32746 0
M  V30 397 C 31.5253 -5.97121 1.34584 0
M  V30 398 N 30.6623 -6.98615 0.698726 0
M  V30 399 H 35.5023 -2.57764 1.49538 0
M  V30 400 H 33.0393 -1.26644 0.748311 0
M  V30 401 H 34.9973 -4.15061 -0.421966 0
M  V30 402 H 33.6273 -3.10555 -0.88064 0
M  V30 403 H 32.6793 -3.49223 1.50823 0
M  V30 404 H 33.9913 -4.66175 1.77433 0
M  V30 405 H 33.1453 -6.06587 -0.11718 0
M  V30 406 H 31.8843 -4.85345 -0.478713 0
M  V30 407 H 30.8893 -5.19474 1.80074 0
M  V30 408 H 32.1143 -6.4405 2.15352 0
M  V30 409 H 30.0603 -6.55942 -0.0873471 0
M  V30 410 H 29.9773 -7.42724 1.41058 0
M  V30 411 H 31.2453 -7.79004 0.278102 0
M  V30 412 N 35.4744 -0.807222 -1.35358 0
M  V30 413 C 36.4224 -0.20614 -2.31685 0
M  V30 414 C 37.4164 0.644445 -1.56663 0
M  V30 415 O 38.6224 0.537538 -1.71786 0
M  V30 416 H 34.9974 -0.0479006 -0.750473 0
M  V30 417 H 36.9684 -1.03369 -2.79924 0
M  V30 418 C 35.7174 0.630212 -3.41941 0
M  V30 419 H 35.0404 -0.0149558 -3.99797 0
M  V30 420 H 36.4804 1.01716 -4.11619 0
M  V30 421 C 34.9394 1.79601 -2.85035 0
M  V30 422 O 35.4694 2.89351 -2.78637 0
M  V30 423 N 33.6754 1.60774 -2.42074 0
M  V30 424 H 33.2224 0.715009 -2.47478 0
M  V30 425 H 33.1804 2.38933 -2.04349 0
M  V30 426 N 36.9525 1.47285 -0.560781 0
M  V30 427 C 38.1985 2.03347 -0.0463654 0
M  V30 428 C 38.5535 1.42702 1.2905 0
M  V30 429 O 37.8465 0.574619 1.8278 0
M  V30 430 C 38.0405 3.57258 0.100784 0
M  V30 431 C 37.8695 4.32827 -1.22027 0
M  V30 432 C 36.6395 4.72588 -1.78854 0
M  V30 433 C 38.8375 4.67739 -2.13834 0
M  V30 434 N 36.8195 5.32816 -3.04927 0
M  V30 435 C 38.1905 5.28307 -3.24487 0
M  V30 436 C 40.2455 4.49667 -2.13784 0
M  V30 437 C 38.9485 5.72711 -4.35194 0
M  V30 438 C 40.9745 4.95073 -3.23506 0
M  V30 439 C 40.3365 5.55693 -4.32879 0
M  V30 440 H 36.4355 0.779755 -0.0592166 0
M  V30 441 H 39.0195 1.79723 -0.748857 0
M  V30 442 H 37.1905 3.80642 0.772404 0
M  V30 443 H 38.9225 3.9996 0.617589 0
M  V30 444 H 35.6775 4.54656 -1.32609 0
M  V30 445 H 36.1015 5.67471 -3.69197 0
M  V30 446 H 40.7435 4.02154 -1.30507 0
M  V30 447 H 38.4615 6.19214 -5.1923 0
M  V30 448 H 42.0475 4.82859 -3.24559 0
M  V30 449 H 40.9275 5.90188 -5.1638 0
M  V30 450 N 38.4306 0.297415 1.54768 0
M  V30 451 C 39.6556 -0.318435 2.04941 0
M  V30 452 C 40.0806 -1.4701 1.17345 0
M  V30 453 O 39.4386 -1.80436 0.176758 0
M  V30 454 C 39.4866 -0.755749 3.52592 0
M  V30 455 O 38.5906 -1.86088 3.68028 0
M  V30 456 H 37.9316 -0.062421 0.661059 0
M  V30 457 H 40.4616 0.438215 1.99852 0
M  V30 458 H 40.4716 -1.04552 3.94376 0
M  V30 459 H 39.1466 0.0867233 4.1581 0
M  V30 460 H 37.7236 -1.57193 3.38149 0
M  V30 461 N 39.9087 -1.5758 0.0250728 0
M  V30 462 C 41.1557 -1.91633 -0.654444 0
M  V30 463 C 41.4837 -0.901103 -1.72367 0
M  V30 464 O 40.7387 0.0905647 -1.9549 0
M  V30 465 C 41.0377 -3.32421 -1.31268 0
M  V30 466 C 40.7037 -4.49344 -0.374223 0
M  V30 467 C 39.3657 -4.8106 -0.115911 0
M  V30 468 C 41.7177 -5.20498 0.270432 0
M  V30 469 C 39.0457 -5.8129 0.79493 0
M  V30 470 C 41.3977 -6.21699 1.1693 0
M  V30 471 C 40.0617 -6.51859 1.43655 0
M  V30 472 H 39.3317 -0.701236 -0.239478 0
M  V30 473 H 41.9787 -1.91307 0.0859734 0
M  V30 474 H 40.2837 -3.28989 -2.12775 0
M  V30 475 H 41.9807 -3.56038 -1.84494 0
M  V30 476 H 38.5707 -4.24579 -0.58573 0
M  V30 477 H 42.7547 -4.96229 0.0839194 0
M  V30 478 H 38.0107 -6.03005 1.00973 0
M  V30 479 H 42.1847 -6.75955 1.67504 0
M  V30 480 H 39.8117 -7.2934 2.144 0
M  V30 481 N 41.3868 0.248026 -1.55636 0
M  V30 482 C 42.6638 0.998988 -1.68165 0
M  V30 483 C 43.0438 2.03409 -0.564621 0
M  V30 484 O 42.3918 2.24378 0.432076 0
M  V30 485 C 42.6018 1.63334 -3.0842 0
M  V30 486 C 43.9498 2.13562 -3.66983 0
M  V30 487 O 44.9738 1.73277 -3.11213 0
M  V30 488 O 43.8328 2.87526 -4.64749 0
M  V30 489 H 40.9268 0.464933 -0.683935 0
M  V30 490 H 43.4728 0.241902 -1.67967 0
M  V30 491 H 42.2448 0.884583 -3.8117 0
M  V30 492 H 41.8678 2.45666 -3.12624 0
M  V30 493 N 42.8649 1.48995 0.513639 0
M  V30 494 C 44.0949 1.61297 1.291 0
M  V30 495 C 44.5029 0.278656 1.87137 0
M  V30 496 O 43.8459 -0.744325 1.67945 0
M  V30 497 C 43.9079 2.61326 2.46879 0
M  V30 498 C 43.5719 4.05993 2.09807 0
M  V30 499 C 44.5689 4.93183 1.64519 0
M  V30 500 C 42.2539 4.51642 2.19829 0
M  V30 501 C 44.2479 6.24056 1.2974 0
M  V30 502 C 41.9349 5.82532 1.84662 0
M  V30 503 C 42.9329 6.68562 1.3969 0
M  V30 504 O 42.6209 7.97014 1.04992 0
M  V30 505 H 42.3529 0.546236 0.39825 0
M  V30 506 H 44.9069 1.95673 0.62459 0
M  V30 507 H 43.1369 2.22104 3.16554 0
M  V30 508 H 44.8259 2.6329 3.08923 0
M  V30 509 H 45.5919 4.59147 1.56233 0
M  V30 510 H 41.4709 3.84855 2.53786 0
M  V30 511 H 45.0149 6.91161 0.945659 0
M  V30 512 H 40.9119 6.16099 1.92594 0
M  V30 513 H 41.6799 8.09913 1.18249 0
M  V30 514 N 44.343 -0.763751 1.37857 0
M  V30 515 C 45.273 -1.89103 1.36975 0
M  V30 516 C 46.254 -1.68439 0.237152 0
M  V30 517 O 47.439 -1.8918 0.438713 0
M  V30 518 C 44.569 -3.26496 1.18395 0
M  V30 519 C 43.523 -3.61741 2.28751 0
M  V30 520 C 42.849 -4.97762 1.95286 0
M  V30 521 C 44.149 -3.67665 3.70972 0
M  V30 522 H 45.843 -1.90099 2.31307 0
M  V30 523 H 43.389 -0.91319 1.11341 0
M  V30 524 H 45.342 -4.05003 1.16406 0
M  V30 525 H 44.066 -3.25955 0.205215 0
M  V30 526 H 42.725 -2.85547 2.29909 0
M  V30 527 H 42.373 -4.93769 0.959221 0
M  V30 528 H 42.073 -5.22313 2.69189 0
M  V30 529 H 43.597 -5.7866 1.94898 0
M  V30 530 H 45.011 -4.36307 3.719 0
M  V30 531 H 43.408 -4.03718 4.43995 0
M  V30 532 H 44.478 -2.68134 4.0402 0
M  V30 533 N 45.8211 -1.22559 -0.990812 0
M  V30 534 C 47.0981 -0.959875 -1.70428 0
M  V30 535 C 47.4781 0.524455 -2.04481 0
M  V30 536 O 46.8261 1.49302 -1.72977 0
M  V30 537 C 47.0361 -1.85955 -2.95333 0
M  V30 538 C 48.3841 -2.11687 -3.68068 0
M  V30 539 O 49.4081 -1.8342 -3.05345 0
M  V30 540 O 48.2671 -2.59572 -4.80921 0
M  V30 541 H 45.3611 -0.361154 -0.743974 0
M  V30 542 H 47.9071 -1.33554 -1.04697 0
M  V30 543 H 46.6791 -2.86346 -2.66687 0
M  V30 544 H 46.3021 -1.4856 -3.68803 0
M  V30 545 N 47.2992 1.18797 -1.03562 0
M  V30 546 C 48.5272 1.92599 -0.755869 0
M  V30 547 C 48.9422 1.75886 0.686271 0
M  V30 548 O 48.2992 1.08517 1.46732 0
M  V30 549 C 48.3502 3.44159 -1.10619 0
M  V30 550 O 48.0712 3.60341 -2.4917 0
M  V30 551 C 49.5722 4.3507 -0.850214 0
M  V30 552 H 46.7922 0.611587 -0.276048 0
M  V30 553 H 49.3362 1.50742 -1.38192 0
M  V30 554 H 47.4912 3.83823 -0.525194 0
M  V30 555 H 47.9052 4.54128 -2.62427 0
M  V30 556 H 49.3792 5.39989 -1.14523 0
M  V30 557 H 49.8562 4.38673 0.215176 0
M  V30 558 H 50.4622 4.01097 -1.41426 0
M  V30 559 N 48.7773 0.814389 1.34928 0
M  V30 560 C 50.1883 0.458364 1.80986 0
M  V30 561 C 50.5393 -1.02042 1.67577 0
M  V30 562 O 49.6643 -1.79352 1.21086 0
M  V30 563 C 50.2593 0.825212 3.28597 0
M  V30 564 C 48.8183 0.521677 3.72767 0
M  V30 565 C 47.9653 1.04668 2.56788 0
M  V30 566 H 50.9163 1.00533 1.22795 0
M  V30 567 H 50.9373 0.12571 3.80292 0
M  V30 568 H 50.4493 1.90154 3.38324 0
M  V30 569 H 48.5503 -0.545589 3.68584 0
M  V30 570 H 48.6633 1.05977 4.67232 0
M  V30 571 H 47.0273 0.468622 2.50352 0
M  V30 572 H 47.8103 2.12927 2.6929 0
M  V30 573 N 50.2554 -1.46986 0.568584 0
M  V30 574 C 51.2024 -2.30153 -0.172707 0
M  V30 575 C 52.1724 -1.39759 -0.897586 0
M  V30 576 O 53.3574 -1.68716 -0.891044 0
M  V30 577 C 50.4974 -3.23952 -1.1895 0
M  V30 578 C 49.6104 -4.29441 -0.469517 0
M  V30 579 C 48.7454 -5.1038 -1.47259 0
M  V30 580 C 47.7844 -6.07632 -0.738225 0
M  V30 581 N 46.9214 -6.8149 -1.68868 0
M  V30 582 H 51.7614 -2.93019 0.542596 0
M  V30 583 H 49.2984 -1.44422 0.279401 0
M  V30 584 H 51.2564 -3.76767 -1.79173 0
M  V30 585 H 49.8864 -2.62926 -1.87269 0
M  V30 586 H 48.9384 -3.79594 0.247467 0
M  V30 587 H 50.2504 -4.98689 0.105241 0
M  V30 588 H 49.4044 -5.67402 -2.14803 0
M  V30 589 H 48.1434 -4.4106 -2.08128 0
M  V30 590 H 47.1484 -5.49778 -0.0489293 0
M  V30 591 H 48.3734 -6.78966 -0.135129 0
M  V30 592 H 46.3194 -6.14891 -2.28573 0
M  V30 593 H 46.2364 -7.46948 -1.16636 0
M  V30 594 H 47.5044 -7.43078 -2.3549 0
M  V30 595 N 51.7335 -0.305618 -1.54608 0
M  V30 596 C 52.9815 0.301701 -1.99835 0
M  V30 597 C 53.3025 1.54054 -1.19551 0
M  V30 598 O 52.5725 1.93702 -0.292658 0
M  V30 599 H 51.1525 0.114468 -0.738178 0
M  V30 600 H 53.8145 -0.418016 -1.90364 0
M  V30 601 H 52.9105 0.570548 -3.06841 0
M  V30 602 N 53.2116 1.57565 -0.0334293 0
M  V30 603 C 54.1216 2.13943 0.962572 0
M  V30 604 C 55.1376 1.09276 1.35406 0
M  V30 605 O 56.3136 1.41355 1.4346 0
M  V30 606 C 53.3786 2.65887 2.22497 0
M  V30 607 C 52.4396 3.85286 1.8935 0
M  V30 608 C 51.6726 4.34743 3.09571 0
M  V30 609 O 51.8956 3.83352 4.22371 0
M  V30 610 O 50.8296 5.26538 2.91618 0
M  V30 611 H 54.6556 2.99333 0.513169 0
M  V30 612 H 52.2406 1.4822 0.18743 0
M  V30 613 H 54.1226 2.99346 2.96598 0
M  V30 614 H 52.7976 1.83578 2.6661 0
M  V30 615 H 51.7046 3.56746 1.1262 0
M  V30 616 H 53.0376 4.68771 1.5005 0
M  V30 617 N 54.6897 -0.239769 1.55765 0
M  V30 618 C 55.6367 -1.29696 1.90913 0
M  V30 619 C 56.6067 -1.47478 0.764164 0
M  V30 620 O 57.7917 -1.61345 1.01845 0
M  V30 621 C 54.9317 -2.64598 2.21544 0
M  V30 622 C 54.0447 -2.54765 3.48882 0
M  V30 623 C 53.1797 -3.82069 3.69049 0
M  V30 624 C 52.2187 -3.66883 4.89963 0
M  V30 625 N 51.3557 -4.86094 5.06614 0
M  V30 626 H 56.1957 -0.990224 2.81067 0
M  V30 627 H 53.7327 -0.477684 1.39128 0
M  V30 628 H 55.6907 -3.43132 2.3731 0
M  V30 629 H 54.3207 -2.93405 1.34585 0
M  V30 630 H 53.3727 -1.67763 3.41409 0
M  V30 631 H 54.6847 -2.39457 4.37563 0
M  V30 632 H 53.8387 -4.69046 3.84812 0
M  V30 633 H 52.5777 -4.00282 2.78614 0
M  V30 634 H 51.5827 -2.78289 4.74168 0
M  V30 635 H 52.8077 -3.50157 5.81865 0
M  V30 636 H 50.7537 -5.04655 4.19117 0
M  V30 637 H 50.6707 -4.73443 5.89396 0
M  V30 638 H 51.9387 -5.74549 5.26795 0
M  V30 639 N 56.1678 -1.49265 -0.50573 0
M  V30 640 C 57.0978 -1.68495 -1.61653 0
M  V30 641 C 58.0788 -0.53366 -1.61512 0
M  V30 642 O 59.2638 -0.76897 -1.78327 0
M  V30 643 C 56.3938 -1.74709 -3.00157 0
M  V30 644 C 55.3478 -2.89581 -3.15162 0
M  V30 645 C 54.6738 -2.80903 -4.5497 0
M  V30 646 C 55.9738 -4.30578 -2.95634 0
M  V30 647 H 57.6678 -2.61493 -1.45814 0
M  V30 648 H 55.2138 -1.25838 -0.70005 0
M  V30 649 H 57.1668 -1.86748 -3.77761 0
M  V30 650 H 55.8908 -0.783067 -3.17074 0
M  V30 651 H 54.5498 -2.77136 -2.39982 0
M  V30 652 H 54.1978 -1.82419 -4.68756 0
M  V30 653 H 53.8978 -3.57999 -4.65951 0
M  V30 654 H 55.4218 -2.94944 -5.34641 0
M  V30 655 H 56.8358 -4.4373 -3.63011 0
M  V30 656 H 55.2328 -5.0886 -3.18091 0
M  V30 657 H 56.3028 -4.45352 -1.91806 0
M  V30 658 N 57.6459 0.756429 -1.3826 0
M  V30 659 C 58.5559 1.9009 -1.37488 0
M  V30 660 C 59.5719 1.71855 -0.272366 0
M  V30 661 O 60.7479 1.94827 -0.510318 0
M  V30 662 C 57.8129 3.25421 -1.19592 0
M  V30 663 C 56.8739 3.56202 -2.39622 0
M  V30 664 C 56.1069 4.85075 -2.2257 0
M  V30 665 O 56.3299 5.57246 -1.21793 0
M  V30 666 O 55.2639 5.15269 -3.11098 0
M  V30 667 H 59.0899 1.93695 -2.33914 0
M  V30 668 H 56.6749 0.901313 -1.1915 0
M  V30 669 H 58.5569 4.06337 -1.11661 0
M  V30 670 H 57.2319 3.22634 -0.262486 0
M  V30 671 H 56.1389 2.75458 -2.53128 0
M  V30 672 H 57.4719 3.63747 -3.31586 0
M  V30 673 N 59.124 1.23083 0.984299 0
M  V30 674 C 60.54 0.992637 1.24975 0
M  V30 675 C 60.74 -0.308618 1.99123 0
M  V30 676 O 59.796 -1.02905 2.30579 0
M  V30 677 C 61.109 2.19698 2.05312 0
M  V30 678 C 62.657 2.24147 2.18465 0
M  V30 679 C 63.132 3.44157 3.02192 0
M  V30 680 N 64.623 3.44372 3.09777 0
M  V30 681 C 65.358 4.33886 3.74874 0
M  V30 682 N 64.854 5.3363 4.41827 0
M  V30 683 N 66.647 4.21639 3.71721 0
M  V30 684 H 58.798 2.06731 0.487453 0
M  V30 685 H 61.061 0.906339 0.277944 0
M  V30 686 H 60.767 3.1411 1.58201 0
M  V30 687 H 60.641 2.20465 3.06064 0
M  V30 688 H 63.028 1.30277 2.64786 0
M  V30 689 H 63.109 2.27415 1.17115 0
M  V30 690 H 62.753 4.38332 2.56568 0
M  V30 691 H 62.683 3.3813 4.03702 0
M  V30 692 H 65.174 2.72201 2.62135 0
M  V30 693 H 65.487 5.98196 4.89266 0
M  V30 694 H 63.832 5.37534 4.40548 0
M  V30 695 H 67.023 3.42962 3.18582 0
M  V30 696 H 67.196 4.91604 4.22173 0
M  V30 697 N 60.6021 -1.18246 1.0419 0
M  V30 698 C 62.0131 -1.69914 0.773698 0
M  V30 699 C 62.3641 -1.83085 -0.705297 0
M  V30 700 O 61.4891 -1.51123 -1.5489 0
M  V30 701 C 62.0841 -3.08619 1.39784 0
M  V30 702 C 60.6431 -3.57494 1.17792 0
M  V30 703 C 59.7901 -2.34013 1.48773 0
M  V30 704 H 62.7411 -1.02904 1.20816 0
M  V30 705 H 62.7621 -3.71958 0.801714 0
M  V30 706 H 62.2741 -2.99001 2.47426 0
M  V30 707 H 60.3751 -3.72406 0.120295 0
M  V30 708 H 60.4881 -4.40852 1.87581 0
M  V30 709 H 58.8521 -2.37986 0.907463 0
M  V30 710 H 59.6351 -2.27013 2.57527 0
M  V30 711 N 62.0802 -0.821533 -1.34494 0
M  V30 712 C 63.0102 -0.257138 -2.3208 0
M  V30 713 C 63.9912 0.625645 -1.58176 0
M  V30 714 O 65.1762 0.552811 -1.86166 0
M  V30 715 C 62.3062 0.582958 -3.42372 0
M  V30 716 C 61.2602 -0.202571 -4.2752 0
M  V30 717 C 60.5862 0.760179 -5.29269 0
M  V30 718 C 61.8862 -1.40998 -5.02908 0
M  V30 719 H 63.5802 -1.07247 -2.79532 0
M  V30 720 H 61.1262 -0.517163 -1.34393 0
M  V30 721 H 63.0792 0.987972 -4.09655 0
M  V30 722 H 61.8032 1.43133 -2.93565 0
M  V30 723 H 60.4622 -0.588936 -3.61838 0
M  V30 724 H 60.1102 1.60447 -4.76724 0
M  V30 725 H 59.8102 0.238809 -5.87115 0
M  V30 726 H 61.3342 1.16308 -5.9942 0
M  V30 727 H 62.7482 -1.07905 -5.63054 0
M  V30 728 H 61.1452 -1.86689 -5.70322 0
M  V30 729 H 62.2152 -2.1889 -4.32684 0
M  V30 730 N 63.5583 1.46682 -0.576371 0
M  V30 731 C 64.4683 2.34032 0.163141 0
M  V30 732 C 65.4843 1.49367 0.892501 0
M  V30 733 O 66.6603 1.82252 0.857106 0
M  V30 734 C 63.7253 3.26435 1.16795 0
M  V30 735 C 62.7863 4.26998 0.443944 0
M  V30 736 C 62.0193 5.14986 1.40088 0
M  V30 737 O 62.2423 5.05785 2.637 0
M  V30 738 O 61.1763 5.94906 0.914917 0
M  V30 739 H 65.0023 2.98607 -0.55388 0
M  V30 740 H 62.5873 1.45554 -0.336821 0
M  V30 741 H 64.4693 3.83459 1.74748 0
M  V30 742 H 63.1443 2.64465 1.86655 0
M  V30 743 H 62.0513 3.7368 -0.177271 0
M  V30 744 H 63.3843 4.91736 -0.213566 0
M  V30 745 N 65.0364 0.313813 1.54444 0
M  V30 746 C 65.9464 -0.565714 2.27677 0
M  V30 747 C 66.9624 -1.13754 1.31666 0
M  V30 748 O 68.1384 -1.15959 1.64668 0
M  V30 749 C 65.2034 -1.71528 3.01296 0
M  V30 750 C 64.2644 -1.17624 4.12872 0
M  V30 751 C 63.4974 -2.27102 4.8297 0
M  V30 752 O 63.7204 -3.47256 4.52514 0
M  V30 753 O 62.6544 -1.9307 5.70094 0
M  V30 754 H 66.4804 0.0287296 3.03686 0
M  V30 755 H 64.0654 0.0798312 1.49187 0
M  V30 756 H 65.9474 -2.38476 3.4743 0
M  V30 757 H 64.6224 -2.29608 2.2817 0
M  V30 758 H 63.5294 -0.472124 3.71109 0
M  V30 759 H 64.8624 -0.640695 4.88012 0
M  V30 760 N 66.5145 -1.57545 0.0417849 0
M  V30 761 C 67.7445 -1.96339 -0.642995 0
M  V30 762 C 68.1525 -0.917536 -1.65463 0
M  V30 763 O 67.4955 0.107747 -1.83384 0
M  V30 764 C 67.5575 -3.31333 -1.39494 0
M  V30 765 C 67.2215 -4.53796 -0.540204 0
M  V30 766 C 68.2185 -5.19553 0.189806 0
M  V30 767 C 65.9035 -5.0006 -0.473886 0
M  V30 768 C 67.8975 -6.29904 0.974674 0
M  V30 769 C 65.5845 -6.10289 0.314677 0
M  V30 770 C 66.5825 -6.75072 1.03765 0
M  V30 771 O 66.2705 -7.83183 1.81327 0
M  V30 772 H 66.0025 -0.651241 -0.181277 0
M  V30 773 H 68.5565 -2.05148 0.101665 0
M  V30 774 H 66.7865 -3.19052 -2.18502 0
M  V30 775 H 68.4755 -3.54942 -1.96904 0
M  V30 776 H 69.2415 -4.84774 0.147981 0
M  V30 777 H 65.1205 -4.49433 -1.0262 0
M  V30 778 H 68.6645 -6.80401 1.5395 0
M  V30 779 H 64.5615 -6.44506 0.358174 0
M  V30 780 H 65.3295 -7.99913 1.73438 0
M  V30 781 N 67.9926 0.231505 -1.5589 0
M  V30 782 C 69.2176 0.978689 -1.82856 0
M  V30 783 C 69.6426 1.77559 -0.620846 0
M  V30 784 O 69.0006 1.76119 0.430305 0
M  V30 785 C 69.0486 1.87997 -3.07716 0
M  V30 786 O 68.1526 2.97393 -2.85712 0
M  V30 787 H 67.4936 0.277663 -0.603158 0
M  V30 788 H 70.0236 0.24783 -2.03093 0
M  V30 789 H 70.0336 2.2917 -3.37558 0
M  V30 790 H 68.7086 1.29417 -3.95252 0
M  V30 791 H 67.2856 2.60238 -2.67078 0
M  V30 792 N 69.4707 1.49531 0.497807 0
M  V30 793 C 70.4007 1.6935 1.60757 0
M  V30 794 C 71.3817 0.542218 1.61227 0
M  V30 795 O 72.5667 0.778417 1.77917 0
M  V30 796 C 69.6967 1.76298 2.99226 0
M  V30 797 C 68.6507 2.91248 3.13622 0
M  V30 798 C 67.9767 2.83312 4.53474 0
M  V30 799 C 69.2767 4.3214 2.93346 0
M  V30 800 H 70.9707 2.62263 1.44425 0
M  V30 801 H 68.5167 1.26208 0.693367 0
M  V30 802 H 70.4697 1.88749 3.76765 0
M  V30 803 H 69.1937 0.799871 3.16654 0
M  V30 804 H 67.8527 2.78404 2.38509 0
M  V30 805 H 67.5007 1.84902 4.67782 0
M  V30 806 H 67.2007 3.60465 4.64046 0
M  V30 807 H 68.7247 2.97775 5.33069 0
M  V30 808 H 70.1387 4.45649 3.60652 0
M  V30 809 H 68.5357 5.1054 3.15387 0
M  V30 810 H 69.6057 4.46363 1.89441 0
M  V30 811 N 70.9488 -0.749086 1.3866 0
M  V30 812 C 72.1948 -1.51056 1.35314 0
M  V30 813 C 72.5278 -1.94121 -0.0553751 0
M  V30 814 O 71.8028 -1.65763 -1.01749 0
M  V30 815 C 72.0858 -2.76003 2.31288 0
M  V30 816 C 71.9388 -2.39047 3.8102 0
M  V30 817 C 73.2578 -3.78046 2.2532 0
M  V30 818 H 70.3768 -0.547972 0.492844 0
M  V30 819 H 73.0188 -0.857628 1.69543 0
M  V30 820 H 71.1688 -3.31716 2.02229 0
M  V30 821 H 72.8408 -1.89074 4.20771 0
M  V30 822 H 71.0838 -1.71449 3.98482 0
M  V30 823 H 71.7548 -3.28462 4.4364 0
M  V30 824 H 74.2308 -3.31884 2.50983 0
M  V30 825 H 73.1068 -4.63159 2.94576 0
M  V30 826 H 73.3678 -4.23957 1.25352 0
M  V30 827 N 72.4269 -1.23603 -0.977757 0
M  V30 828 C 73.6729 -1.07129 -1.72195 0
M  V30 829 C 74.0059 0.390501 -1.90233 0
M  V30 830 O 73.2809 1.28902 -1.45653 0
M  V30 831 C 73.5639 -1.80031 -3.11867 0
M  V30 832 C 73.4169 -3.33899 -3.01383 0
M  V30 833 C 74.7359 -1.56492 -4.11337 0
M  V30 834 H 71.8549 -0.390571 -0.624999 0
M  V30 835 H 74.4969 -1.52142 -1.13811 0
M  V30 836 H 72.6469 -1.41768 -3.6171 0
M  V30 837 H 74.3189 -3.81699 -2.59043 0
M  V30 838 H 72.5619 -3.62796 -2.37827 0
M  V30 839 H 73.2329 -3.801 -4.00285 0
M  V30 840 H 75.7089 -1.89757 -3.70313 0
M  V30 841 H 74.5849 -2.09973 -5.07151 0
M  V30 842 H 74.8459 -0.500874 -4.39254 0
M  V30 843 N 73.905 1.17692 -1.04816 0
M  V30 844 C 74.835 2.23777 -0.666791 0
M  V30 845 C 75.816 1.66796 0.33361 0
M  V30 846 O 77.001 1.93039 0.212042 0
M  V30 847 C 74.131 3.47281 -0.0367933 0
M  V30 848 C 73.085 4.17059 -0.961546 0
M  V30 849 C 72.411 5.34342 -0.195626 0
M  V30 850 C 73.711 4.69713 -2.28402 0
M  V30 851 H 75.405 2.55933 -1.55367 0
M  V30 852 H 72.951 1.23019 -0.748484 0
M  V30 853 H 74.904 4.20706 0.241775 0
M  V30 854 H 73.628 3.14381 0.885004 0
M  V30 855 H 72.287 3.45541 -1.22462 0
M  V30 856 H 71.935 4.97692 0.728816 0
M  V30 857 H 71.635 5.81966 -0.811775 0
M  V30 858 H 73.159 6.10553 0.0757473 0
M  V30 859 H 74.573 5.34794 -2.06563 0
M  V30 860 H 72.97 5.279 -2.8538 0
M  V30 861 H 74.04 3.86726 -2.92525 0
M  V30 862 N 75.3831 0.828654 1.34056 0
M  V30 863 C 76.3131 0.269443 2.3194 0
M  V30 864 C 77.2941 -0.617247 1.58506 0
M  V30 865 O 78.4791 -0.542931 1.86456 0
M  V30 866 C 75.6091 -0.564793 3.42677 0
M  V30 867 C 74.5631 0.225241 4.27407 0
M  V30 868 C 73.8891 -0.7321 5.29664 0
M  V30 869 C 75.1891 1.43663 5.02154 0
M  V30 870 H 76.8831 1.08728 2.7896 0
M  V30 871 H 74.4291 0.524283 1.34117 0
M  V30 872 H 76.3821 -0.966233 4.10173 0
M  V30 873 H 75.1061 -1.41574 2.9432 0
M  V30 874 H 73.7651 0.608117 3.61521 0
M  V30 875 H 73.4131 -1.57916 4.77568 0
M  V30 876 H 73.1131 -0.20767 5.87233 0
M  V30 877 H 74.6371 -1.13128 6.00029 0
M  V30 878 H 76.0511 1.1089 5.62473 0
M  V30 879 H 74.4481 1.89711 5.69324 0
M  V30 880 H 75.5181 2.21181 4.31517 0
M  V30 881 N 76.8612 -1.46375 0.584142 0
M  V30 882 C 78.1092 -2.01978 0.0701287 0
M  V30 883 C 78.4302 -1.4579 -1.295 0
M  V30 884 O 77.7002 -0.64314 -1.85042 0
M  V30 885 H 76.2802 -0.746648 0.0229345 0
M  V30 886 H 78.9422 -1.79461 0.760245 0
M  V30 887 H 78.0382 -3.121 0.0022064 0
M  V30 888 N 78.3393 -0.321999 -1.54275 0
M  V30 889 C 79.5873 0.280489 -2.00144 0
M  V30 890 C 79.9083 1.52777 -1.21178 0
M  V30 891 O 79.1783 1.9338 -0.313187 0
M  V30 892 H 77.7583 0.106632 -0.73935 0
M  V30 893 H 80.4203 -0.438184 -1.8991 0
M  V30 894 H 79.5163 0.537972 -3.07428 0
M  V30 895 N 79.8174 1.5752 -0.0501392 0
M  V30 896 C 81.0474 1.96678 0.632573 0
M  V30 897 C 81.4554 0.926298 1.64974 0
M  V30 898 O 80.7984 -0.09802 1.83438 0
M  V30 899 C 80.8604 3.32068 1.37735 0
M  V30 900 C 80.5244 4.54076 0.516131 0
M  V30 901 C 81.5214 5.19445 -0.217357 0
M  V30 902 C 79.2064 5.00304 0.44736 0
M  V30 903 C 81.2004 6.29378 -1.00807 0
M  V30 904 C 78.8874 6.10114 -0.347038 0
M  V30 905 C 79.8854 6.74512 -1.07344 0
M  V30 906 O 79.5734 7.82211 -1.85477 0
M  V30 907 H 79.3054 0.652193 0.177821 0
M  V30 908 H 81.8594 2.05091 -0.112543 0
M  V30 909 H 80.0894 3.20206 2.16807 0
M  V30 910 H 81.7784 3.55981 1.95019 0
M  V30 911 H 82.5444 4.84689 -0.173688 0
M  V30 912 H 78.4234 4.49971 1.00235 0
M  V30 913 H 81.9674 6.79575 -1.57556 0
M  V30 914 H 77.8644 6.44307 -0.392349 0
M  V30 915 H 78.6324 7.98982 -1.77678 0
M  V30 916 N 81.2955 -0.223234 1.56011 0
M  V30 917 C 82.2285 -1.30377 1.87289 0
M  V30 918 C 83.2065 -1.45286 0.730112 0
M  V30 919 O 84.3905 -1.61126 0.978302 0
M  V30 920 C 81.5175 -2.67431 2.07843 0
M  V30 921 C 80.5635 -2.69546 3.30526 0
M  V30 922 S 81.3965 -2.23781 4.865 0
M  V30 923 C 82.5525 -3.62714 5.10088 0
M  V30 924 H 82.7855 -1.03652 2.78646 0
M  V30 925 H 80.3185 -0.425393 1.48424 0
M  V30 926 H 82.2765 -3.46336 2.20368 0
M  V30 927 H 80.9375 -2.91381 1.17285 0
M  V30 928 H 80.1305 -3.70255 3.41947 0
M  V30 929 H 79.7325 -1.98703 3.16849 0
M  V30 930 H 82.0245 -4.58391 4.98883 0
M  V30 931 H 82.9675 -3.5621 6.11981 0
M  V30 932 H 83.3755 -3.56323 4.37829 0
M  V30 933 N 82.7736 -1.49793 -0.48987 0
M  V30 934 C 84.0216 -1.59525 -1.24081 0
M  V30 935 C 84.3426 -0.288953 -1.92847 0
M  V30 936 O 83.6126 0.692436 -1.83254 0
M  V30 937 H 82.1926 -0.587796 -0.460983 0
M  V30 938 H 84.8546 -1.86477 -0.566778 0
M  V30 939 H 83.9506 -2.39696 -1.99881 0
M  V30 940 N 84.2517 0.741722 -1.39055 0
M  V30 941 C 85.2147 1.83733 -1.37021 0
M  V30 942 C 86.2147 1.58542 -0.268534 0
M  V30 943 O 87.4047 1.66067 -0.526076 0
M  V30 944 C 84.5367 3.2141 -1.13617 0
M  V30 945 H 85.7297 1.86941 -2.34506 0
M  V30 946 H 83.2827 0.944676 -1.24521 0
M  V30 947 H 84.0177 3.23865 -0.167863 0
M  V30 948 H 83.8027 3.4109 -1.93391 0
M  V30 949 H 85.2927 4.01477 -1.14918 0
M  V30 950 N 85.7298 1.2412 0.971189 0
M  V30 951 C 86.9598 1.10415 1.7462 0
M  V30 952 C 87.3678 -0.346462 1.86001 0
M  V30 953 O 86.7108 -1.25104 1.34517 0
M  V30 954 C 86.7728 1.66596 3.18568 0
M  V30 955 C 86.4368 3.15446 3.3067 0
M  V30 956 C 87.4338 4.12636 3.16271 0
M  V30 957 C 85.1188 3.55337 3.55022 0
M  V30 958 C 87.1128 5.47699 3.26044 0
M  V30 959 C 84.7998 4.90542 3.64434 0
M  V30 960 C 85.7978 5.86532 3.49956 0
M  V30 961 O 85.4858 7.19279 3.59017 0
M  V30 962 H 85.2178 0.386616 0.55453 0
M  V30 963 H 87.7718 1.64633 1.22821 0
M  V30 964 H 86.0018 1.06808 3.71657 0
M  V30 965 H 87.6908 1.48232 3.77865 0
M  V30 966 H 88.4568 3.8316 2.97344 0
M  V30 967 H 84.3358 2.8113 3.65359 0
M  V30 968 H 87.8798 6.22603 3.14661 0
M  V30 969 H 83.7768 5.19691 3.82873 0
M  V30 970 H 84.5448 7.27153 3.75754 0
M  V30 971 N 87.2079 -1.17134 1.05439 0
M  V30 972 C 88.1179 -2.24878 0.668365 0
M  V30 973 C 89.1339 -1.71186 -0.311687 0
M  V30 974 O 90.3099 -2.00738 -0.163161 0
M  V30 975 C 87.3749 -3.46662 0.051648 0
M  V30 976 C 86.4359 -4.15429 1.08246 0
M  V30 977 C 85.6689 -5.31399 0.495082 0
M  V30 978 O 85.8919 -5.66153 -0.694743 0
M  V30 979 O 84.8259 -5.89187 1.23056 0
M  V30 980 H 88.6519 -2.60189 1.56637 0
M  V30 981 H 86.2369 -1.24482 0.826104 0
M  V30 982 H 88.1189 -4.20394 -0.290966 0
M  V30 983 H 86.7939 -3.13142 -0.819971 0
M  V30 984 H 85.7009 -3.43704 1.47711 0
M  V30 985 H 87.0339 -4.52982 1.92532 0
M  V30 986 N 88.686 -0.835752 -1.33615 0
M  V30 987 C 89.596 -0.269088 -2.33052 0
M  V30 988 C 90.612 0.603251 -1.63208 0
M  V30 989 O 91.788 0.508112 -1.94885 0
M  V30 990 C 88.853 0.549091 -3.42324 0
M  V30 991 C 87.914 -0.347156 -4.27894 0
M  V30 992 C 87.147 0.43207 -5.31948 0
M  V30 993 O 87.37 1.66409 -5.45586 0
M  V30 994 O 86.304 -0.192298 -6.01593 0
M  V30 995 H 90.13 -1.09243 -2.83372 0
M  V30 996 H 87.715 -0.598198 -1.36901 0
M  V30 997 H 89.597 1.01414 -4.09015 0
M  V30 998 H 88.272 1.34955 -2.94226 0
M  V30 999 H 87.179 -0.859979 -3.64081 0
M  V30 1000 H 88.512 -1.1123 -4.79467 0
M  V30 1001 N 90.1641 1.46063 -0.591896 0
M  V30 1002 C 91.0741 2.34192 0.13831 0
M  V30 1003 C 92.0901 1.50305 0.876608 0
M  V30 1004 O 93.2661 1.8315 0.837728 0
M  V30 1005 C 90.3311 3.27656 1.13326 0
M  V30 1006 C 89.3921 4.27445 0.39863 0
M  V30 1007 C 88.6251 5.16443 1.34618 0
M  V30 1008 O 88.8481 5.08553 2.58321 0
M  V30 1009 O 87.7821 5.95843 0.851768 0
M  V30 1010 H 91.6081 2.98002 -0.58552 0
M  V30 1011 H 89.1931 1.45188 -0.352239 0
M  V30 1012 H 91.0751 3.85291 1.70671 0
M  V30 1013 H 89.7501 2.6643 1.83839 0
M  V30 1014 H 88.6571 3.73471 -0.216895 0
M  V30 1015 H 89.9901 4.91482 -0.265709 0
M  V30 1016 N 91.6422 0.330177 1.54103 0
M  V30 1017 C 92.5892 -0.532762 2.24567 0
M  V30 1018 C 93.5592 -1.10635 1.23892 0
M  V30 1019 O 94.7442 -1.14546 1.5259 0
M  V30 1020 C 91.8842 -1.6845 3.01195 0
M  V30 1021 C 90.9972 -1.13951 4.167 0
M  V30 1022 C 90.1322 -2.25746 4.80845 0
M  V30 1023 C 89.1712 -1.6853 5.88442 0
M  V30 1024 N 88.3082 -2.74014 6.46421 0
M  V30 1025 H 93.1482 0.0746905 2.97906 0
M  V30 1026 H 90.6852 0.048632 1.4702 0
M  V30 1027 H 92.6432 -2.36234 3.43874 0
M  V30 1028 H 91.2732 -2.26314 2.30178 0
M  V30 1029 H 90.3252 -0.35301 3.78758 0
M  V30 1030 H 91.6372 -0.680892 4.94131 0
M  V30 1031 H 90.7912 -3.01422 5.26526 0
M  V30 1032 H 89.5302 -2.74947 4.0281 0
M  V30 1033 H 88.5352 -0.913543 5.42157 0
M  V30 1034 H 89.7602 -1.20198 6.68378 0
M  V30 1035 H 87.7062 -3.22494 5.71256 0
M  V30 1036 H 87.6232 -2.32735 7.19285 0
M  V30 1037 H 88.8912 -3.49499 6.96757 0
M  V30 1038 N 93.1203 -1.57491 0.0584922 0
M  V30 1039 C 94.3503 -1.9701 -0.622134 0
M  V30 1040 C 94.7583 -0.935034 -1.6448 0
M  V30 1041 O 94.1013 0.0882904 -1.83488 0
M  V30 1042 C 94.1633 -3.32794 -1.35972 0
M  V30 1043 C 93.8273 -4.54343 -0.492043 0
M  V30 1044 C 94.8243 -5.19323 0.244901 0
M  V30 1045 C 92.5093 -5.00534 -0.420821 0
M  V30 1046 C 94.5033 -6.28835 1.04143 0
M  V30 1047 C 92.1903 -6.09921 0.379389 0
M  V30 1048 C 93.1883 -6.73933 1.10919 0
M  V30 1049 O 92.8763 -7.81216 1.89623 0
M  V30 1050 H 92.6083 -0.653127 -0.174359 0
M  V30 1051 H 95.1623 -2.05029 0.123418 0
M  V30 1052 H 93.3923 -3.21351 -2.15105 0
M  V30 1053 H 95.0813 -3.5701 -1.93129 0
M  V30 1054 H 95.8473 -4.8459 0.19939 0
M  V30 1055 H 91.7263 -4.50496 -0.978474 0
M  V30 1056 H 95.2703 -6.7873 1.61157 0
M  V30 1057 H 91.1673 -6.44089 0.426512 0
M  V30 1058 H 91.9353 -7.98029 1.81913 0
M  V30 1059 N 94.5984 0.214957 -1.56127 0
M  V30 1060 C 96.0094 0.781386 -1.69562 0
M  V30 1061 C 96.3604 1.84707 -0.66165 0
M  V30 1062 O 95.4854 2.156 0.185927 0
M  V30 1063 C 96.0804 1.42411 -3.07416 0
M  V30 1064 C 94.6394 1.93786 -3.22683 0
M  V30 1065 C 93.7864 0.800438 -2.65496 0
M  V30 1066 H 96.7374 -0.00980633 -1.58697 0
M  V30 1067 H 96.7584 2.29309 -3.0364 0
M  V30 1068 H 96.2704 0.64826 -3.82648 0
M  V30 1069 H 94.3714 2.74152 -2.52332 0
M  V30 1070 H 94.4844 2.1133 -4.29973 0
M  V30 1071 H 92.8484 1.2095 -2.2415 0
M  V30 1072 H 93.6314 0.0371471 -3.4328 0
M  V30 1073 N 96.0765 1.50051 0.48192 0
M  V30 1074 C 97.3235 1.60498 1.23477 0
M  V30 1075 C 97.6515 0.300331 1.92167 0
M  V30 1076 O 96.9065 -0.713094 1.82246 0
M  V30 1077 C 97.2055 2.72717 2.30998 0
M  V30 1078 C 96.8715 4.13572 1.79636 0
M  V30 1079 C 95.5335 4.519 1.65348 0
M  V30 1080 C 97.8855 5.01649 1.41412 0
M  V30 1081 C 95.2135 5.76057 1.11244 0
M  V30 1082 C 97.5655 6.26343 0.887538 0
M  V30 1083 C 96.2295 6.63483 0.731207 0
M  V30 1084 H 95.4995 0.587303 0.451836 0
M  V30 1085 H 98.1465 1.83948 0.532468 0
M  V30 1086 H 96.4515 2.43312 3.07094 0
M  V30 1087 H 98.1485 2.78006 2.88988 0
M  V30 1088 H 94.7385 3.83329 1.91721 0
M  V30 1089 H 98.9225 4.72679 1.51289 0
M  V30 1090 H 94.1785 6.03516 0.978686 0
M  V30 1091 H 98.3525 6.93958 0.582654 0
M  V30 1092 H 95.9795 7.59568 0.309806 0
M  V30 1093 N 97.5546 -0.734337 1.39446 0
M  V30 1094 C 98.4846 -1.86155 1.40955 0
M  V30 1095 C 99.4656 -1.67898 0.272827 0
M  V30 1096 O 100.651 -1.88207 0.478743 0
M  V30 1097 C 97.7806 -3.23912 1.25294 0
M  V30 1098 C 96.7346 -3.56808 2.36373 0
M  V30 1099 C 96.0606 -4.93508 2.058 0
M  V30 1100 C 97.3606 -3.59713 3.78687 0
M  V30 1101 H 99.0546 -1.8515 2.35287 0
M  V30 1102 H 96.6006 -0.889367 1.13253 0
M  V30 1103 H 98.5536 -4.02443 1.2497 0
M  V30 1104 H 97.2776 -3.25446 0.274308 0
M  V30 1105 H 95.9366 -2.80606 2.35914 0
M  V30 1106 H 95.5846 -4.91623 1.06374 0
M  V30 1107 H 95.2846 -5.16486 2.80208 0
M  V30 1108 H 96.8086 -5.74396 2.07128 0
M  V30 1109 H 98.2226 -4.2832 3.81071 0
M  V30 1110 H 96.6196 -3.94209 4.52459 0
M  V30 1111 H 97.6896 -2.59504 4.09617 0
M  V30 1112 N 99.0327 -1.24633 -0.964593 0
M  V30 1113 C 99.9797 -1.04144 -2.05968 0
M  V30 1114 C 100.95 0.046262 -1.66036 0
M  V30 1115 O 102.135 -0.108972 -1.90489 0
M  V30 1116 C 99.2747 -0.65563 -3.38815 0
M  V30 1117 C 98.3877 -1.81714 -3.91923 0
M  V30 1118 C 97.5227 -1.37662 -5.13052 0
M  V30 1119 C 96.5617 -2.50788 -5.58365 0
M  V30 1120 N 95.6987 -2.07582 -6.70712 0
M  V30 1121 H 100.539 -1.9787 -2.22827 0
M  V30 1122 H 98.0757 -0.9855 -1.09208 0
M  V30 1123 H 100.034 -0.412954 -4.15151 0
M  V30 1124 H 98.6637 0.244627 -3.21872 0
M  V30 1125 H 97.7157 -2.1734 -3.12198 0
M  V30 1126 H 99.0277 -2.66705 -4.21509 0
M  V30 1127 H 98.1817 -1.093 -5.96773 0
M  V30 1128 H 96.9207 -0.497293 -4.85158 0
M  V30 1129 H 95.9257 -2.79906 -4.73215 0
M  V30 1130 H 97.1507 -3.39283 -5.88272 0
M  V30 1131 H 95.0967 -1.22051 -6.44546 0
M  V30 1132 H 95.0137 -2.86125 -6.99763 0
M  V30 1133 H 96.2817 -1.82369 -7.57867 0
M  V30 1134 N 100.511 1.16574 -1.06058 0
M  V30 1135 C 101.741 1.90675 -0.795397 0
M  V30 1136 C 102.149 1.77547 0.653735 0
M  V30 1137 O 101.492 1.11611 1.45907 0
M  V30 1138 C 101.554 3.42011 -1.10764 0
M  V30 1139 C 101.218 3.78924 -2.55471 0
M  V30 1140 C 102.215 3.81042 -3.53699 0
M  V30 1141 C 99.8998 4.09626 -2.90708 0
M  V30 1142 C 101.894 4.13346 -4.85205 0
M  V30 1143 C 99.5808 4.41597 -4.22416 0
M  V30 1144 C 100.579 4.43436 -5.19474 0
M  V30 1145 O 100.267 4.74649 -6.48817 0
M  V30 1146 H 99.9988 0.611554 -0.288058 0
M  V30 1147 H 102.553 1.48711 -1.41683 0
M  V30 1148 H 100.783 3.84312 -0.429128 0
M  V30 1149 H 102.472 3.97384 -0.827077 0
M  V30 1150 H 103.238 3.57437 -3.27817 0
M  V30 1151 H 99.1168 4.07361 -2.15819 0
M  V30 1152 H 102.661 4.14696 -5.60957 0
M  V30 1153 H 98.5578 4.64667 -4.48056 0
M  V30 1154 H 99.3258 4.9247 -6.5377 0
M  V30 1155 N 101.989 0.842826 1.3317 0
M  V30 1156 C 102.899 0.281444 2.32906 0
M  V30 1157 C 103.915 -0.594587 1.63526 0
M  V30 1158 O 105.091 -0.49777 1.95152 0
M  V30 1159 C 102.156 -0.530929 3.42611 0
M  V30 1160 C 101.217 0.369843 4.27704 0
M  V30 1161 C 100.45 -0.403853 5.3217 0
M  V30 1162 O 100.673 -1.63513 5.46461 0
M  V30 1163 O 99.6069 0.224199 6.01482 0
M  V30 1164 H 103.433 1.10744 2.82789 0
M  V30 1165 H 101.018 0.60545 1.36582 0
M  V30 1166 H 102.9 -0.992437 4.09547 0
M  V30 1167 H 101.575 -1.33392 2.94938 0
M  V30 1168 H 100.482 0.879275 3.6362 0
M  V30 1169 H 101.815 1.13771 4.78871 0
M  V30 1170 N 103.467 -1.45747 0.599634 0
M  V30 1171 C 104.714 -2.02292 0.0917284 0
M  V30 1172 C 105.042 -1.46906 -1.27472 0
M  V30 1173 O 104.297 -0.630652 -1.8526 0
M  V30 1174 C 104.596 -3.57399 -0.00602758 0
M  V30 1175 C 104.262 -4.31902 1.29503 0
M  V30 1176 C 102.924 -4.51974 1.65144 0
M  V30 1177 C 105.276 -4.74551 2.15525 0
M  V30 1178 C 102.604 -5.11949 2.86574 0
M  V30 1179 C 104.956 -5.35868 3.36196 0
M  V30 1180 C 103.62 -5.54165 3.72099 0
M  V30 1181 H 102.89 -0.740239 0.0335658 0
M  V30 1182 H 105.537 -1.7491 0.779661 0
M  V30 1183 H 103.842 -3.84014 -0.777183 0
M  V30 1184 H 105.539 -3.98846 -0.415038 0
M  V30 1185 H 102.129 -4.16588 1.00761 0
M  V30 1186 H 106.313 -4.58784 1.8929 0
M  V30 1187 H 101.569 -5.24305 3.14507 0
M  V30 1188 H 105.743 -5.6787 4.03109 0
M  V30 1189 H 103.37 -6.00406 4.6628 0
M  V30 1190 N 104.945 -0.338344 -1.53925 0
M  V30 1191 C 105.877 0.555117 -2.22376 0
M  V30 1192 C 106.89 1.06812 -1.22862 0
M  V30 1193 O 108.079 0.979163 -1.49247 0
M  V30 1194 C 105.179 1.77609 -2.88631 0
M  V30 1195 C 104.352 1.39927 -4.14414 0
M  V30 1196 C 103.411 2.47936 -4.64127 0
M  V30 1197 O 102.437 2.11461 -5.28463 0
M  V30 1198 N 103.639 3.79107 -4.39612 0
M  V30 1199 H 106.404 -0.0310778 -2.99684 0
M  V30 1200 H 103.965 -0.162226 -1.61085 0
M  V30 1201 H 105.957 2.49287 -3.18807 0
M  V30 1202 H 104.527 2.26978 -2.14941 0
M  V30 1203 H 103.747 0.513481 -3.90841 0
M  V30 1204 H 105.035 1.12341 -4.96243 0
M  V30 1205 H 104.433 4.11531 -3.88148 0
M  V30 1206 H 102.99 4.4697 -4.74406 0
M  V30 1207 N 106.423 1.57458 -0.0668435 0
M  V30 1208 C 107.353 2.15468 0.899764 0
M  V30 1209 C 108.334 1.08042 1.31381 0
M  V30 1210 O 109.519 1.36054 1.38574 0
M  V30 1211 C 106.649 2.71232 2.16911 0
M  V30 1212 C 105.603 3.83781 1.89463 0
M  V30 1213 C 104.929 4.26127 3.22986 0
M  V30 1214 C 106.229 5.08238 1.20381 0
M  V30 1215 H 107.923 2.96488 0.416529 0
M  V30 1216 H 105.469 1.4262 0.198908 0
M  V30 1217 H 107.422 3.10458 2.84945 0
M  V30 1218 H 106.146 1.87426 2.67468 0
M  V30 1219 H 104.805 3.45051 1.23836 0
M  V30 1220 H 104.453 3.39249 3.71374 0
M  V30 1221 H 104.153 5.01993 3.05413 0
M  V30 1222 H 105.677 4.67966 3.92225 0
M  V30 1223 H 107.091 5.44811 1.78475 0
M  V30 1224 H 105.488 5.89349 1.13083 0
M  V30 1225 H 106.558 4.84558 0.182153 0
M  V30 1226 N 107.901 -0.206675 1.56239 0
M  V30 1227 C 109.15 -0.926964 1.79138 0
M  V30 1228 C 109.463 -1.84901 0.638043 0
M  V30 1229 O 110.669 -2.60906 0.751033 0
M  V30 1230 C 109.125 -1.6986 3.17294 0
M  V30 1231 C 108.733 -0.821956 4.40395 0
M  V30 1232 C 110.477 -2.40922 3.4951 0
M  V30 1233 C 108.384 -1.59179 5.69575 0
M  V30 1234 H 107.314 -0.349864 0.667915 0
M  V30 1235 H 109.965 -0.180487 1.8261 0
M  V30 1236 H 108.347 -2.48853 3.08039 0
M  V30 1237 H 109.521 -0.0715019 4.60745 0
M  V30 1238 H 107.836 -0.222741 4.15804 0
M  V30 1239 H 110.433 -2.99047 4.43255 0
M  V30 1240 H 110.776 -3.14542 2.72707 0
M  V30 1241 H 111.309 -1.68905 3.60161 0
M  V30 1242 H 108.048 -0.898589 6.49312 0
M  V30 1243 H 107.568 -2.31648 5.53262 0
M  V30 1244 H 109.247 -2.14862 6.10281 0
M  V30 1245 N 109.379 -1.50304 -0.473955 0
M  V30 1246 C 110.289 -1.7174 -1.5982 0
M  V30 1247 C 111.305 -0.600457 -1.63311 0
M  V30 1248 O 112.481 -0.878441 -1.81233 0
M  V30 1249 C 109.546 -1.80427 -2.96052 0
M  V30 1250 C 108.607 -3.04148 -3.02972 0
M  V30 1251 C 107.84 -3.12411 -4.32706 0
M  V30 1252 O 108.063 -2.27542 -5.23049 0
M  V30 1253 O 106.997 -4.05113 -4.45159 0
M  V30 1254 H 110.823 -2.67035 -1.44657 0
M  V30 1255 H 108.408 -1.34366 -0.653148 0
M  V30 1256 H 110.29 -1.88338 -3.7697 0
M  V30 1257 H 108.965 -0.883156 -3.11419 0
M  V30 1258 H 107.872 -3.0174 -2.21142 0
M  V30 1259 H 109.205 -3.95829 -2.92541 0
M  V30 1260 N 110.857 0.726932 -1.39834 0
M  V30 1261 C 111.767 1.87131 -1.41489 0
M  V30 1262 C 112.783 1.71239 -0.308757 0
M  V30 1263 O 113.959 1.93701 -0.551529 0
M  V30 1264 C 111.024 3.22811 -1.26468 0
M  V30 1265 C 110.085 3.51039 -2.47124 0
M  V30 1266 C 109.318 4.80245 -2.3281 0
M  V30 1267 O 109.541 5.54537 -1.33585 0
M  V30 1268 O 108.475 5.08554 -3.21957 0
M  V30 1269 H 112.301 1.8869 -2.3797 0
M  V30 1270 H 109.886 0.875837 -1.21035 0
M  V30 1271 H 111.768 4.03877 -1.20255 0
M  V30 1272 H 110.443 3.22005 -0.330862 0
M  V30 1273 H 109.35 2.70027 -2.58914 0
M  V30 1274 H 110.683 3.56632 -3.39227 0
M  V30 1275 N 112.336 1.25143 0.95797 0
M  V30 1276 C 113.585 1.0909 1.69654 0
M  V30 1277 C 113.898 -0.368548 1.92097 0
M  V30 1278 O 115.104 -0.649455 2.63618 0
M  V30 1279 C 113.56 1.90395 3.05414 0
M  V30 1280 C 113.168 3.4081 2.90779 0
M  V30 1281 C 114.912 1.82901 3.83076 0
M  V30 1282 C 112.819 4.14423 4.21909 0
M  V30 1283 H 111.749 0.404625 0.636235 0
M  V30 1284 H 114.4 1.4931 1.06672 0
M  V30 1285 H 112.782 1.42996 3.69281 0
M  V30 1286 H 113.956 3.95859 2.35865 0
M  V30 1287 H 112.271 3.49361 2.26575 0
M  V30 1288 H 114.868 2.35196 4.80195 0
M  V30 1289 H 115.211 0.796224 4.08615 0
M  V30 1290 H 115.744 2.28033 3.25954 0
M  V30 1291 H 112.483 5.18102 4.01561 0
M  V30 1292 H 112.003 3.64159 4.76601 0
M  V30 1293 H 113.682 4.21956 4.90471 0
M  V30 1294 N 113.814 -1.1601 1.06675 0
M  V30 1295 C 114.744 -2.22688 0.702307 0
M  V30 1296 C 115.725 -1.67306 -0.307032 0
M  V30 1297 O 116.91 -1.93352 -0.181305 0
M  V30 1298 C 114.04 -3.47178 0.092038 0
M  V30 1299 C 112.994 -4.15477 1.02777 0
M  V30 1300 C 112.32 -5.33963 0.28061 0
M  V30 1301 C 113.62 -4.66019 2.35846 0
M  V30 1302 H 115.314 -2.53429 1.59419 0
M  V30 1303 H 112.86 -1.21813 0.767961 0
M  V30 1304 H 114.813 -4.21037 -0.174814 0
M  V30 1305 H 113.537 -3.15749 -0.834877 0
M  V30 1306 H 112.196 -3.43549 1.27944 0
M  V30 1307 H 111.844 -4.98788 -0.649545 0
M  V30 1308 H 111.544 -5.806 0.904258 0
M  V30 1309 H 113.068 -6.10596 0.021396 0
M  V30 1310 H 114.482 -5.3144 2.15045 0
M  V30 1311 H 112.879 -5.23293 2.93743 0
M  V30 1312 H 113.949 -3.82023 2.98641 0
M  V30 1313 N 115.292 -0.849877 -1.32721 0
M  V30 1314 C 116.239 -0.289033 -2.28983 0
M  V30 1315 C 117.209 0.601324 -1.54833 0
M  V30 1316 O 118.394 0.537253 -1.8308 0
M  V30 1317 C 115.534 0.520623 -3.4115 0
M  V30 1318 C 114.647 -0.394989 -4.3019 0
M  V30 1319 C 113.782 0.426834 -5.29482 0
M  V30 1320 C 112.821 -0.486476 -6.10164 0
M  V30 1321 N 111.958 0.297879 -7.01468 0
M  V30 1322 H 116.798 -1.11519 -2.76347 0
M  V30 1323 H 114.335 -0.56138 -1.35967 0
M  V30 1324 H 116.293 1.00563 -4.04899 0
M  V30 1325 H 114.923 1.31165 -2.9495 0
M  V30 1326 H 113.975 -0.99836 -3.67065 0
M  V30 1327 H 115.287 -1.09612 -4.86607 0
M  V30 1328 H 114.441 0.975205 -5.98811 0
M  V30 1329 H 113.18 1.16136 -4.73671 0
M  V30 1330 H 112.185 -1.04677 -5.39743 0
M  V30 1331 H 113.41 -1.21953 -6.6806 0
M  V30 1332 H 111.356 1.01558 -6.48091 0
M  V30 1333 H 111.273 -0.344318 -7.55216 0
M  V30 1334 H 112.541 0.828131 -7.75089 0
M  V30 1335 N 116.77 1.45427 -0.607355 0
M  V30 1336 C 117.717 2.3053 0.111625 0
M  V30 1337 C 118.687 1.4209 0.860216 0
M  V30 1338 O 119.872 1.71019 0.845998 0
M  V30 1339 C 117.012 3.26992 1.10319 0
M  V30 1340 C 116.125 4.30535 0.355493 0
M  V30 1341 C 115.26 5.14105 1.33676 0
M  V30 1342 C 114.299 6.09376 0.576862 0
M  V30 1343 N 113.436 6.85727 1.5074 0
M  V30 1344 H 118.276 2.91477 -0.620093 0
M  V30 1345 H 115.813 1.43631 -0.317594 0
M  V30 1346 H 117.771 3.81385 1.6912 0
M  V30 1347 H 116.401 2.67799 1.80232 0
M  V30 1348 H 115.453 3.78805 -0.348023 0
M  V30 1349 H 116.765 4.98235 -0.237423 0
M  V30 1350 H 115.919 5.72897 1.99684 0
M  V30 1351 H 114.658 4.46423 1.9636 0
M  V30 1352 H 113.663 5.49715 -0.0968519 0
M  V30 1353 H 114.888 6.79085 -0.0449341 0
M  V30 1354 H 112.834 6.20735 2.12189 0
M  V30 1355 H 112.751 7.49778 0.967913 0
M  V30 1356 H 114.019 7.4906 2.15706 0
M  V30 1357 N 118.248 0.346503 1.53744 0
M  V30 1358 C 119.158 -0.517293 2.28826 0
M  V30 1359 C 120.174 -1.10935 1.3405 0
M  V30 1360 O 121.35 -1.1244 1.6709 0
M  V30 1361 C 118.415 -1.65098 3.04866 0
M  V30 1362 C 117.476 -1.0884 4.15274 0
M  V30 1363 C 116.709 -2.16806 4.87679 0
M  V30 1364 O 116.932 -3.3758 4.59778 0
M  V30 1365 O 115.866 -1.80934 5.74061 0
M  V30 1366 H 119.692 0.0931396 3.03557 0
M  V30 1367 H 117.277 0.111458 1.48984 0
M  V30 1368 H 119.159 -2.31053 3.5241 0
M  V30 1369 H 117.834 -2.24717 2.32989 0
M  V30 1370 H 116.741 -0.3933 3.72027 0
M  V30 1371 H 118.074 -0.537036 4.89261 0
M  V30 1372 N 119.726 -1.57421 0.075193 0
M  V30 1373 C 120.975 -1.92794 -0.592731 0
M  V30 1374 C 121.288 -0.957478 -1.70563 0
M  V30 1375 O 122.494 -1.20417 -2.43335 0
M  V30 1376 C 120.95 -3.42495 -1.10569 0
M  V30 1377 C 120.558 -4.47994 -0.0236121 0
M  V30 1378 C 122.302 -3.86864 -1.74748 0
M  V30 1379 C 120.209 -5.88829 -0.550803 0
M  V30 1380 H 119.139 -0.719591 -0.225177 0
M  V30 1381 H 121.79 -1.82902 0.147978 0
M  V30 1382 H 120.172 -3.47471 -1.89947 0
M  V30 1383 H 121.346 -4.54637 0.751099 0
M  V30 1384 H 119.661 -4.13113 0.522159 0
M  V30 1385 H 122.258 -4.8947 -2.15229 0
M  V30 1386 H 122.601 -3.24417 -2.60882 0
M  V30 1387 H 123.134 -3.84504 -1.01986 0
M  V30 1388 H 119.873 -6.54929 0.273457 0
M  V30 1389 H 119.393 -5.85698 -1.29296 0
M  V30 1390 H 121.072 -6.38811 -1.02613 0
M  V30 1391 N 121.204 0.198386 -1.56346 0
M  V30 1392 C 122.615 0.763358 -1.70381 0
M  V30 1393 C 122.966 1.83995 -0.681203 0
M  V30 1394 O 122.091 2.15785 0.16305 0
M  V30 1395 C 122.686 1.39143 -3.08909 0
M  V30 1396 C 121.245 1.90352 -3.2472 0
M  V30 1397 C 120.392 0.772233 -2.6633 0
M  V30 1398 H 123.343 -0.0266377 -1.58678 0
M  V30 1399 H 123.364 2.26076 -3.06055 0
M  V30 1400 H 122.876 0.607638 -3.83314 0
M  V30 1401 H 120.977 2.71461 -2.55225 0
M  V30 1402 H 121.09 2.06757 -4.3219 0
M  V30 1403 H 119.454 1.18566 -2.2542 0
M  V30 1404 H 120.237 0.00073556 -3.433 0
M  V30 1405 N 122.682 1.50554 0.465978 0
M  V30 1406 C 123.929 1.61798 1.21768 0
M  V30 1407 C 124.257 0.320696 1.91838 0
M  V30 1408 O 123.512 -0.693724 1.82992 0
M  V30 1409 C 123.811 2.75152 2.28093 0
M  V30 1410 C 123.477 4.15454 1.75239 0
M  V30 1411 C 122.139 4.53628 1.60546 0
M  V30 1412 C 124.491 5.03121 1.36083 0
M  V30 1413 C 121.819 5.77204 1.05128 0
M  V30 1414 C 124.171 6.27249 0.821056 0
M  V30 1415 C 122.835 6.64221 0.660795 0
M  V30 1416 H 122.105 0.592063 0.445582 0
M  V30 1417 H 124.752 1.84503 0.512927 0
M  V30 1418 H 123.057 2.46556 3.04496 0
M  V30 1419 H 124.754 2.81055 2.86023 0
M  V30 1420 H 121.344 3.85341 1.87644 0
M  V30 1421 H 125.528 4.74257 1.46267 0
M  V30 1422 H 120.784 6.0452 0.91462 0
M  V30 1423 H 124.958 6.94537 0.509018 0
M  V30 1424 H 122.585 7.59854 0.229226 0
M  V30 1425 N 124.16 -0.719506 1.40217 0
M  V30 1426 C 125.09 -1.8465 1.42922 0
M  V30 1427 C 126.071 -1.67599 0.29062 0
M  V30 1428 O 127.256 -1.87688 0.498677 0
M  V30 1429 C 124.386 -3.22565 1.28722 0
M  V30 1430 C 123.34 -3.54281 2.40144 0
M  V30 1431 C 122.666 -4.91298 2.11023 0
M  V30 1432 C 123.966 -3.55676 3.82481 0
M  V30 1433 H 125.66 -1.82644 2.37237 0
M  V30 1434 H 123.206 -0.877305 1.1419 0
M  V30 1435 H 125.159 -4.01095 1.29232 0
M  V30 1436 H 123.883 -3.25137 0.308811 0
M  V30 1437 H 122.542 -2.78088 2.38877 0
M  V30 1438 H 122.19 -4.90468 1.11582 0
M  V30 1439 H 121.89 -5.13485 2.8567 0
M  V30 1440 H 123.414 -5.72166 2.13209 0
M  V30 1441 H 124.828 -4.24254 3.85592 0
M  V30 1442 H 123.225 -3.89388 4.56614 0
M  V30 1443 H 124.295 -2.55144 4.12346 0
M  V30 1444 N 125.638 -1.25649 -0.95132 0
M  V30 1445 C 126.886 -1.10375 -1.69298 0
M  V30 1446 C 127.207 0.355339 -1.91735 0
M  V30 1447 O 126.477 1.25188 -1.50681 0
M  V30 1448 H 125.057 -0.405461 -0.627384 0
M  V30 1449 H 127.719 -1.57823 -1.14358 0
M  V30 1450 H 126.815 -1.61465 -2.67087 0
M  V30 1451 N 127.117 1.15442 -1.07289 0
M  V30 1452 C 128.366 1.85557 -0.790669 0
M  V30 1453 C 128.679 1.83186 0.685739 0
M  V30 1454 O 129.885 2.48977 1.0827 0
M  V30 1455 C 128.341 3.33038 -1.36433 0
M  V30 1456 C 127.949 3.43856 -2.8717 0
M  V30 1457 C 129.693 4.0834 -1.1601 0
M  V30 1458 C 127.6 4.85482 -3.3773 0
M  V30 1459 H 126.53 0.695122 -0.292098 0
M  V30 1460 H 129.181 1.30219 -1.29287 0
M  V30 1461 H 127.563 3.88043 -0.789864 0
M  V30 1462 H 128.737 2.98961 -3.50655 0
M  V30 1463 H 127.052 2.81998 -3.06376 0
M  V30 1464 H 129.649 5.12859 -1.51262 0
M  V30 1465 H 129.992 4.16182 -0.0991007 0
M  V30 1466 H 130.525 3.59603 -1.70089 0
M  V30 1467 H 127.264 4.82823 -4.43353 0
M  V30 1468 H 126.784 5.30961 -2.78999 0
M  V30 1469 H 128.463 5.54335 -3.33648 0
M  V30 1470 N 128.595 0.856903 1.32268 0
M  V30 1471 C 129.835 0.467705 1.98977 0
M  V30 1472 C 130.199 -0.959231 1.66321 0
M  V30 1473 O 131.4 -1.4531 2.26138 0
M  V30 1474 C 129.671 0.70256 3.50427 0
M  V30 1475 S 131.23 0.411269 4.36868 0
M  V30 1476 H 128.048 0.175121 0.689096 0
M  V30 1477 H 130.65 1.1101 1.60925 0
M  V30 1478 H 129.354 1.74012 3.71683 0
M  V30 1479 H 128.885 0.0466707 3.93372 0
M  V30 1480 H 130.9 -0.761799 4.90317 0
M  V30 1481 N 130.073 -1.45103 0.615059 0
M  V30 1482 C 131.003 -2.33339 -0.0865619 0
M  V30 1483 C 131.984 -1.4727 -0.851209 0
M  V30 1484 O 133.169 -1.76026 -0.820281 0
M  V30 1485 C 130.299 -3.30095 -1.07956 0
M  V30 1486 C 129.253 -4.25858 -0.427628 0
M  V30 1487 C 128.579 -5.12361 -1.5294 0
M  V30 1488 C 129.879 -5.18165 0.655944 0
M  V30 1489 H 131.573 -2.92254 0.650224 0
M  V30 1490 H 129.119 -1.40532 0.314138 0
M  V30 1491 H 131.072 -3.90698 -1.57901 0
M  V30 1492 H 129.796 -2.69355 -1.84703 0
M  V30 1493 H 128.455 -3.66564 0.0510292 0
M  V30 1494 H 128.103 -4.47984 -2.28734 0
M  V30 1495 H 127.803 -5.77238 -1.09865 0
M  V30 1496 H 129.327 -5.75833 -2.03098 0
M  V30 1497 H 130.741 -5.72796 0.240257 0
M  V30 1498 H 129.138 -5.91559 1.00888 0
M  V30 1499 H 130.208 -4.60144 1.52957 0
M  V30 1500 N 131.551 -0.354651 -1.53558 0
M  V30 1501 C 132.799 0.237972 -2.00694 0
M  V30 1502 C 133.12 1.50173 -1.24391 0
M  V30 1503 O 132.39 1.92673 -0.354135 0
M  V30 1504 H 130.97 0.0909256 -0.741446 0
M  V30 1505 H 133.632 -0.478368 -1.88938 0
M  V30 1506 H 132.728 0.47264 -3.085 0
M  V30 1507 N 133.029 1.57378 -0.0835403 0
M  V30 1508 C 134.254 1.98682 0.594987 0
M  V30 1509 C 134.679 0.961969 1.61641 0
M  V30 1510 O 134.037 -0.0709989 1.81161 0
M  V30 1511 C 134.085 3.38988 1.2296 0
M  V30 1512 O 133.189 3.39208 2.34546 0
M  V30 1513 H 132.53 0.646368 0.152002 0
M  V30 1514 H 135.06 2.03961 -0.161533 0
M  V30 1515 H 135.07 3.76431 1.57366 0
M  V30 1516 H 133.745 4.13107 0.481228 0
M  V30 1517 H 132.322 3.13548 2.01846 0
M  V30 1518 N 134.507 -0.190092 1.56449 0
M  V30 1519 C 135.439 -1.25973 1.91477 0
M  V30 1520 C 136.452 -1.41452 0.805931 0
M  V30 1521 O 137.641 -1.41789 1.08435 0
M  V30 1522 C 134.741 -2.63117 2.13594 0
M  V30 1523 C 133.914 -2.69182 3.4476 0
M  V30 1524 C 132.973 -3.87557 3.5593 0
M  V30 1525 O 131.999 -3.74427 4.28711 0
M  V30 1526 N 133.201 -5.03224 2.89388 0
M  V30 1527 H 135.966 -0.962394 2.83828 0
M  V30 1528 H 133.527 -0.379981 1.57378 0
M  V30 1529 H 135.519 -3.40742 2.1835 0
M  V30 1530 H 134.089 -2.85319 1.27719 0
M  V30 1531 H 133.309 -1.77793 3.51828 0
M  V30 1532 H 134.597 -2.70229 4.31107 0
M  V30 1533 H 133.995 -5.16791 2.30094 0
M  V30 1534 H 132.552 -5.78778 2.99764 0
M  V30 1535 N 135.985 -1.50799 -0.457987 0
M  V30 1536 C 136.918 -1.65273 -1.57353 0
M  V30 1537 C 137.896 -0.500578 -1.54703 0
M  V30 1538 O 139.08 -0.721781 -1.74134 0
M  V30 1539 C 136.207 -1.64737 -2.95938 0
M  V30 1540 C 135.253 -2.8567 -3.16693 0
M  V30 1541 S 136.086 -4.46791 -2.95191 0
M  V30 1542 C 137.242 -4.48968 -4.36095 0
M  V30 1543 H 137.475 -2.59633 -1.44838 0
M  V30 1544 H 135.008 -1.40225 -0.64625 0
M  V30 1545 H 136.966 -1.65112 -3.7583 0
M  V30 1546 H 135.627 -0.715899 -3.05833 0
M  V30 1547 H 134.82 -2.81637 -4.17967 0
M  V30 1548 H 134.422 -2.8293 -2.44594 0
M  V30 1549 H 136.714 -4.23337 -5.28954 0
M  V30 1550 H 137.657 -5.50664 -4.45168 0
M  V30 1551 H 138.065 -3.78522 -4.18786 0
M  V30 1552 N 137.463 0.71206 -1.40597 0
M  V30 1553 C 138.393 1.83889 -1.43899 0
M  V30 1554 C 139.374 1.67442 -0.299504 0
M  V30 1555 O 140.559 1.87421 -0.508624 0
M  V30 1556 C 137.689 3.21877 -1.30431 0
M  V30 1557 C 136.643 3.53002 -2.42019 0
M  V30 1558 C 135.969 4.90172 -2.13626 0
M  V30 1559 C 137.269 3.53643 -3.84362 0
M  V30 1560 H 138.963 1.81383 -2.38203 0
M  V30 1561 H 136.509 0.871237 -1.14654 0
M  V30 1562 H 138.462 4.00404 -1.31357 0
M  V30 1563 H 137.186 3.24968 -0.326049 0
M  V30 1564 H 135.845 2.76818 -2.40349 0
M  V30 1565 H 135.493 4.89869 -1.14182 0
M  V30 1566 H 135.193 5.11962 -2.88389 0
M  V30 1567 H 136.717 5.71028 -2.1624 0
M  V30 1568 H 138.131 4.22203 -3.87837 0
M  V30 1569 H 136.528 3.86961 -4.58673 0
M  V30 1570 H 137.598 2.52954 -4.13693 0
M  V30 1571 N 138.941 1.26152 0.944643 0
M  V30 1572 C 139.904 1.07474 2.0244 0
M  V30 1573 C 140.904 0.0242064 1.60782 0
M  V30 1574 O 142.094 0.267302 1.72137 0
M  V30 1575 C 139.226 0.633956 3.34953 0
M  V30 1576 H 140.419 2.03336 2.20442 0
M  V30 1577 H 137.972 1.087 1.12312 0
M  V30 1578 H 138.707 -0.326811 3.22649 0
M  V30 1579 H 138.492 1.39247 3.66542 0
M  V30 1580 H 139.982 0.52501 4.14287 0
M  V30 1581 N 140.419 -1.14872 1.07899 0
M  V30 1582 C 141.366 -2.19791 0.704319 0
M  V30 1583 C 142.336 -1.63238 -0.306987 0
M  V30 1584 O 143.521 -1.8983 -0.192171 0
M  V30 1585 C 140.661 -3.44911 0.114244 0
M  V30 1586 C 139.774 -4.15637 1.1777 0
M  V30 1587 C 138.909 -5.28324 0.552037 0
M  V30 1588 C 137.948 -5.90875 1.59789 0
M  V30 1589 N 137.085 -6.95022 0.994404 0
M  V30 1590 H 141.925 -2.5119 1.60336 0
M  V30 1591 H 139.462 -1.23356 0.801352 0
M  V30 1592 H 141.42 -4.16477 -0.245544 0
M  V30 1593 H 140.05 -3.14011 -0.74813 0
M  V30 1594 H 139.102 -3.42512 1.65499 0
M  V30 1595 H 140.414 -4.5823 1.97046 0
M  V30 1596 H 139.568 -6.06538 0.1402 0
M  V30 1597 H 138.307 -4.86939 -0.272431 0
M  V30 1598 H 137.312 -5.11369 2.01945 0
M  V30 1599 H 138.537 -6.34337 2.42474 0
M  V30 1600 H 136.483 -6.55722 0.190939 0
M  V30 1601 H 136.4 -7.36073 1.72432 0
M  V30 1602 H 137.668 -7.77123 0.608253 0
M  V30 1603 N 141.898 -0.863906 -1.31812 0
M  V30 1604 C 143.144 -0.472535 -1.97218 0
M  V30 1605 C 143.477 0.971394 -1.68159 0
M  V30 1606 O 142.752 1.68309 -0.974798 0
M  V30 1607 C 143.035 -0.723054 -3.52766 0
M  V30 1608 C 142.888 -2.21608 -3.91421 0
M  V30 1609 C 144.207 -0.185522 -4.39709 0
M  V30 1610 H 141.326 -0.173158 -0.71637 0
M  V30 1611 H 143.968 -1.08403 -1.56041 0
M  V30 1612 H 142.118 -0.202577 -3.87971 0
M  V30 1613 H 143.79 -2.80334 -3.66347 0
M  V30 1614 H 142.033 -2.691 -3.40246 0
M  V30 1615 H 142.704 -2.34203 -4.99853 0
M  V30 1616 H 145.18 -0.630726 -4.11292 0
M  V30 1617 H 144.056 -0.390306 -5.47511 0
M  V30 1618 H 144.317 0.912229 -4.32586 0
M  V30 1619 N 143.376 1.44774 -0.622745 0
M  V30 1620 C 144.306 2.33382 0.0741861 0
M  V30 1621 C 145.287 1.47719 0.843387 0
M  V30 1622 O 146.472 1.76458 0.810934 0
M  V30 1623 C 143.602 3.30663 1.06204 0
M  V30 1624 C 142.556 4.26079 0.405037 0
M  V30 1625 C 141.882 5.13165 1.5022 0
M  V30 1626 C 143.182 5.1781 -0.683414 0
M  V30 1627 H 144.876 2.91905 -0.665713 0
M  V30 1628 H 142.422 1.40363 -0.321587 0
M  V30 1629 H 144.375 3.9153 1.55827 0
M  V30 1630 H 143.099 2.70331 1.83272 0
M  V30 1631 H 141.758 3.66532 -0.0704683 0
M  V30 1632 H 141.406 4.49191 2.26355 0
M  V30 1633 H 141.106 5.77812 1.06803 0
M  V30 1634 H 142.63 5.76902 2.00041 0
M  V30 1635 H 144.044 5.72661 -0.270631 0
M  V30 1636 H 142.441 5.91015 -1.04023 0
M  V30 1637 H 143.511 4.59326 -1.55395 0
M  V30 1638 N 144.854 0.36279 1.53368 0
M  V30 1639 C 146.102 -0.227326 2.00817 0
M  V30 1640 C 146.423 -1.49511 1.25186 0
M  V30 1641 O 145.693 -1.92482 0.364348 0
M  V30 1642 H 144.273 -0.0869923 0.741917 0
M  V30 1643 H 146.935 0.488381 1.88682 0
M  V30 1644 H 146.031 -0.456273 3.08747 0
M  V30 1645 N 146.332 -1.57332 0.0918853 0
M  V30 1646 C 147.295 -2.12708 -0.85369 0
M  V30 1647 C 148.295 -1.05561 -1.213 0
M  V30 1648 O 149.485 -1.31461 -1.14296 0
M  V30 1649 C 146.617 -2.64503 -2.15061 0
M  V30 1650 H 147.81 -2.97573 -0.3729 0
M  V30 1651 H 145.363 -1.55509 -0.157072 0
M  V30 1652 H 146.098 -1.83149 -2.67632 0
M  V30 1653 H 145.883 -3.4284 -1.90272 0
M  V30 1654 H 147.373 -3.07351 -2.82711 0
M  V30 1655 N 147.81 0.181792 -1.56548 0
M  V30 1656 C 149.035 0.920019 -1.85877 0
M  V30 1657 C 149.46 1.75494 -0.677021 0
M  V30 1658 O 148.818 1.77399 0.374056 0
M  V30 1659 C 148.866 1.78112 -3.13542 0
M  V30 1660 O 147.97 2.88152 -2.95029 0
M  V30 1661 H 147.311 0.258334 -0.611686 0
M  V30 1662 H 149.841 0.183092 -2.03779 0
M  V30 1663 H 149.851 2.18314 -3.44678 0
M  V30 1664 H 148.526 1.16777 -3.99169 0
M  V30 1665 H 147.103 2.51609 -2.75222 0
M  V30 1666 N 149.288 1.51039 0.449983 0
M  V30 1667 C 150.534 1.63322 1.20223 0
M  V30 1668 C 150.867 0.34241 1.91158 0
M  V30 1669 O 150.142 -0.657344 1.83055 0
M  V30 1670 C 150.425 2.82801 2.22925 0
M  V30 1671 C 150.278 4.21823 1.56157 0
M  V30 1672 C 151.597 2.97807 3.24035 0
M  V30 1673 H 148.716 0.594407 0.435718 0
M  V30 1674 H 151.358 1.83489 0.493136 0
M  V30 1675 H 149.508 2.65738 2.834 0
M  V30 1676 H 151.18 4.50526 0.991162 0
M  V30 1677 H 149.423 4.25105 0.864172 0
M  V30 1678 H 150.094 5.01391 2.30891 0
M  V30 1679 H 152.57 3.13497 2.73603 0
M  V30 1680 H 151.446 3.82992 3.93202 0
M  V30 1681 H 151.707 2.09328 3.89402 0
M  V30 1682 N 150.766 -0.704594 1.40972 0
M  V30 1683 C 151.996 -1.49138 1.42974 0
M  V30 1684 C 152.404 -1.89175 0.0308406 0
M  V30 1685 O 151.747 -1.56734 -0.958138 0
M  V30 1686 C 151.809 -2.79016 2.26694 0
M  V30 1687 C 151.473 -2.61236 3.74973 0
M  V30 1688 C 152.47 -2.27773 4.67349 0
M  V30 1689 C 150.155 -2.77158 4.18914 0
M  V30 1690 C 152.149 -2.10457 6.01653 0
M  V30 1691 C 149.836 -2.59459 5.53285 0
M  V30 1692 C 150.834 -2.26158 6.4447 0
M  V30 1693 O 150.522 -2.08605 7.76363 0
M  V30 1694 H 150.254 -0.466443 0.489292 0
M  V30 1695 H 152.808 -0.8758 1.85793 0
M  V30 1696 H 151.038 -3.42947 1.78673 0
M  V30 1697 H 152.727 -3.40782 2.20504 0
M  V30 1698 H 153.493 -2.15095 4.34694 0
M  V30 1699 H 149.372 -3.02064 3.48251 0
M  V30 1700 H 152.916 -1.84387 6.72791 0
M  V30 1701 H 148.813 -2.71725 5.85522 0
M  V30 1702 H 149.581 -2.23439 7.87412 0
M  V30 1703 N 152.244 -1.26651 -0.937939 0
M  V30 1704 C 153.66 -1.03834 -1.21205 0
M  V30 1705 C 153.86 0.234502 -2.00131 0
M  V30 1706 O 152.916 0.942767 -2.3424 0
M  V30 1707 C 154.229 -2.27167 -1.97017 0
M  V30 1708 C 155.777 -2.32101 -2.09996 0
M  V30 1709 C 156.252 -3.55136 -2.8921 0
M  V30 1710 N 157.743 -3.55632 -2.96783 0
M  V30 1711 C 158.478 -4.475 -3.58512 0
M  V30 1712 N 157.974 -5.4966 -4.21717 0
M  V30 1713 N 159.767 -4.35145 -3.55816 0
M  V30 1714 H 151.918 -2.08398 -0.410391 0
M  V30 1715 H 154.181 -0.916031 -0.244114 0
M  V30 1716 H 153.887 -3.19765 -1.46434 0
M  V30 1717 H 153.761 -2.31672 -2.97671 0
M  V30 1718 H 156.148 -1.40015 -2.59769 0
M  V30 1719 H 156.229 -2.31605 -1.08594 0
M  V30 1720 H 155.873 -4.47553 -2.40123 0
M  V30 1721 H 155.803 -3.5288 -3.90875 0
M  V30 1722 H 158.294 -2.81743 -2.51852 0
M  V30 1723 H 158.607 -6.15943 -4.66727 0
M  V30 1724 H 156.952 -5.53514 -4.20294 0
M  V30 1725 H 160.143 -3.5455 -3.05634 0
M  V30 1726 H 160.316 -5.06934 -4.03636 0
M  V30 1727 N 153.722 1.14298 -1.08507 0
M  V30 1728 C 154.97 1.84993 -0.813763 0
M  V30 1729 C 155.291 1.83405 0.662393 0
M  V30 1730 O 154.561 1.28319 1.48024 0
M  V30 1731 H 153.141 0.684966 -0.298045 0
M  V30 1732 H 155.803 1.385 -1.37126 0
M  V30 1733 H 154.899 2.89788 -1.15884 0
M  V30 1734 N 155.201 0.870884 1.31352 0
M  V30 1735 C 156.148 0.325425 2.28494 0
M  V30 1736 C 157.118 -0.576615 1.5577 0
M  V30 1737 O 158.303 -0.508059 1.83911 0
M  V30 1738 C 155.443 -0.466283 3.41935 0
M  V30 1739 C 154.556 0.463378 4.29508 0
M  V30 1740 C 153.691 -0.342544 5.30094 0
M  V30 1741 C 152.73 0.583486 6.09313 0
M  V30 1742 N 151.867 -0.186244 7.01853 0
M  V30 1743 H 156.707 1.15901 2.74538 0
M  V30 1744 H 154.244 0.58294 1.35056 0
M  V30 1745 H 156.202 -0.941085 4.06447 0
M  V30 1746 H 154.832 -1.26456 2.97 0
M  V30 1747 H 153.884 1.05663 3.65431 0
M  V30 1748 H 155.196 1.1734 4.84802 0
M  V30 1749 H 154.35 -0.879816 6.00287 0
M  V30 1750 H 153.089 -1.08585 4.75458 0
M  V30 1751 H 152.094 1.13251 5.3801 0
M  V30 1752 H 153.319 1.32566 6.66035 0
M  V30 1753 H 151.265 -0.912348 6.49625 0
M  V30 1754 H 151.182 0.464422 7.54572 0
M  V30 1755 H 152.45 -0.704716 7.76308 0
M  V30 1756 N 156.679 -1.44442 0.630414 0
M  V30 1757 C 157.627 -2.32437 -0.0871428 0
M  V30 1758 C 158.621 -1.47304 -0.836525 0
M  V30 1759 O 159.827 -1.63653 -0.749506 0
M  V30 1760 H 156.202 -0.750533 -0.0469495 0
M  V30 1761 H 158.173 -2.90709 0.673096 0
M  V30 1762 C 156.922 -3.31288 -1.05563 0
M  V30 1763 H 156.245 -3.96805 -0.488426 0
M  V30 1764 H 157.685 -3.9554 -1.52721 0
M  V30 1765 C 156.144 -2.6016 -2.14052 0
M  V30 1766 O 156.674 -2.39997 -3.22124 0
M  V30 1767 N 154.88 -2.19911 -1.89967 0
M  V30 1768 H 154.427 -2.36509 -1.02085 0
M  V30 1769 H 154.385 -1.72646 -2.62756 0
M  V30 1770 N 158.157 -0.370918 -1.53173 0
M  V30 1771 C 159.405 0.216673 -2.00935 0
M  V30 1772 C 159.726 1.48845 -1.25977 0
M  V30 1773 O 158.996 1.92286 -0.374551 0
M  V30 1774 H 157.576 0.0830565 -0.742368 0
M  V30 1775 H 160.238 -0.49838 -1.8842 0
M  V30 1776 H 159.334 0.439893 -3.08984 0
M  V30 1777 N 159.635 1.57281 -0.100228 0
M  V30 1778 C 160.545 2.17833 0.870965 0
M  V30 1779 C 161.561 1.14921 1.30649 0
M  V30 1780 O 162.737 1.47313 1.37335 0
M  V30 1781 C 159.802 2.75085 2.1102 0
M  V30 1782 C 158.863 3.9297 1.72838 0
M  V30 1783 C 158.096 4.47482 2.90854 0
M  V30 1784 O 158.319 4.00922 4.05731 0
M  V30 1785 O 157.253 5.38433 2.69023 0
M  V30 1786 H 161.079 3.0124 0.38575 0
M  V30 1787 H 158.664 1.48881 0.124397 0
M  V30 1788 H 160.546 3.11656 2.83634 0
M  V30 1789 H 159.221 1.94721 2.58584 0
M  V30 1790 H 158.128 3.61201 0.973883 0
M  V30 1791 H 159.461 4.74713 1.30033 0
M  V30 1792 N 161.113 -0.173488 1.56642 0
M  V30 1793 C 162.023 -1.23482 1.99473 0
M  V30 1794 C 163.039 -1.48567 0.905752 0
M  V30 1795 O 164.215 -1.60758 1.21321 0
M  V30 1796 C 161.28 -2.55444 2.34413 0
M  V30 1797 C 160.341 -2.38241 3.57127 0
M  V30 1798 C 159.574 -3.63909 3.90392 0
M  V30 1799 O 159.797 -4.68996 3.24653 0
M  V30 1800 O 158.731 -3.58149 4.83749 0
M  V30 1801 H 162.557 -0.901279 2.90018 0
M  V30 1802 H 160.142 -0.380185 1.44482 0
M  V30 1803 H 162.024 -3.33292 2.57865 0
M  V30 1804 H 160.699 -2.88382 1.4703 0
M  V30 1805 H 159.606 -1.58431 3.38896 0
M  V30 1806 H 160.939 -2.10228 4.45045 0
M  V30 1807 N 162.591 -1.51276 -0.441967 0
M  V30 1808 C 163.84 -1.6295 -1.18871 0
M  V30 1809 C 164.153 -0.349312 -1.92456 0
M  V30 1810 O 165.359 -0.345355 -2.69295 0
M  V30 1811 C 163.815 -2.87759 -2.16155 0
M  V30 1812 C 163.423 -4.22764 -1.48239 0
M  V30 1813 C 165.167 -3.08788 -2.91291 0
M  V30 1814 C 163.074 -5.38728 -2.4398 0
M  V30 1815 H 162.004 -0.606913 -0.447406 0
M  V30 1816 H 164.655 -1.77739 -0.456205 0
M  V30 1817 H 163.037 -2.66593 -2.92821 0
M  V30 1818 H 164.211 -4.54293 -0.771635 0
M  V30 1819 H 162.526 -4.07575 -0.852741 0
M  V30 1820 H 165.123 -3.92599 -3.63002 0
M  V30 1821 H 165.466 -2.21679 -3.5237 0
M  V30 1822 H 165.999 -3.30272 -2.21733 0
M  V30 1823 H 162.738 -6.28082 -1.87598 0
M  V30 1824 H 162.258 -5.1158 -3.13123 0
M  V30 1825 H 163.937 -5.70489 -3.05207 0
M  V30 1826 N 164.069 0.697108 -1.41344 0
M  V30 1827 C 165.317 1.45426 -1.40341 0
M  V30 1828 C 165.638 1.94996 -0.0128787 0
M  V30 1829 O 164.908 1.71599 0.945027 0
M  V30 1830 H 163.488 0.539594 -0.516573 0
M  V30 1831 H 166.15 0.825201 -1.76569 0
M  V30 1832 H 165.246 2.31817 -2.08967 0
M  V30 1833 N 165.547 1.27147 0.931209 0
M  V30 1834 C 166.793 1.14455 1.68141 0
M  V30 1835 C 167.148 -0.307172 1.89932 0
M  V30 1836 O 166.441 -1.22158 1.47607 0
M  V30 1837 C 166.635 1.8579 3.05314 0
M  V30 1838 C 166.464 3.3775 2.96909 0
M  V30 1839 C 165.234 4.07062 2.99381 0
M  V30 1840 C 167.432 4.33783 2.76291 0
M  V30 1841 N 165.414 5.45618 2.8138 0
M  V30 1842 C 166.785 5.59582 2.6696 0
M  V30 1843 C 168.84 4.23915 2.61152 0
M  V30 1844 C 167.543 6.76639 2.44033 0
M  V30 1845 C 169.569 5.40689 2.39602 0
M  V30 1846 C 168.931 6.65443 2.3101 0
M  V30 1847 H 165.03 0.473667 0.622225 0
M  V30 1848 H 167.614 1.60568 1.10118 0
M  V30 1849 H 165.785 1.42138 3.61457 0
M  V30 1850 H 167.517 1.65634 3.69253 0
M  V30 1851 H 164.272 3.585 3.09475 0
M  V30 1852 H 164.696 6.184 2.75519 0
M  V30 1853 H 169.338 3.28189 2.66555 0
M  V30 1854 H 167.056 7.72451 2.3737 0
M  V30 1855 H 170.642 5.34932 2.28778 0
M  V30 1856 H 169.522 7.54277 2.14558 0
M  V30 1857 N 167.025 -1.13721 1.09112 0
M  V30 1858 C 168.255 -1.88499 0.845671 0
M  V30 1859 C 168.663 -1.79218 -0.606432 0
M  V30 1860 O 168.006 -1.1544 -1.42896 0
M  V30 1861 C 168.068 -3.38954 1.19793 0
M  V30 1862 C 167.732 -3.72018 2.65428 0
M  V30 1863 C 168.729 -3.7153 3.63677 0
M  V30 1864 C 166.414 -4.01775 3.01467 0
M  V30 1865 C 168.408 -4.00336 4.95994 0
M  V30 1866 C 166.095 -4.30243 4.33975 0
M  V30 1867 C 167.093 -4.29508 5.31048 0
M  V30 1868 O 166.781 -4.5728 6.61173 0
M  V30 1869 H 166.513 -0.603702 0.304171 0
M  V30 1870 H 169.067 -1.44903 1.45576 0
M  V30 1871 H 167.297 -3.83039 0.530871 0
M  V30 1872 H 168.986 -3.95052 0.932146 0
M  V30 1873 H 169.752 -3.4862 3.37179 0
M  V30 1874 H 165.631 -4.01496 2.26544 0
M  V30 1875 H 169.175 -3.99678 5.71755 0
M  V30 1876 H 165.072 -4.52625 4.60219 0
M  V30 1877 H 165.84 -4.74964 6.66597 0
M  V30 1878 N 168.503 -0.877838 -1.30888 0
M  V30 1879 C 169.75 -0.492696 -1.96415 0
M  V30 1880 C 170.078 0.956671 -1.69346 0
M  V30 1881 O 169.333 1.68993 -0.986913 0
M  V30 1882 C 169.632 -0.705748 -3.50363 0
M  V30 1883 C 169.298 -2.1291 -3.97467 0
M  V30 1884 C 167.96 -2.51834 -4.1004 0
M  V30 1885 C 170.312 -3.05702 -4.22132 0
M  V30 1886 C 167.64 -3.82775 -4.44635 0
M  V30 1887 C 169.992 -4.36166 -4.58194 0
M  V30 1888 C 168.656 -4.74993 -4.68975 0
M  V30 1889 H 167.926 -0.18029 -0.718733 0
M  V30 1890 H 170.573 -1.11233 -1.55883 0
M  V30 1891 H 168.878 -0.00303058 -3.918 0
M  V30 1892 H 170.575 -0.387456 -3.99124 0
M  V30 1893 H 167.165 -1.81694 -3.88182 0
M  V30 1894 H 171.349 -2.76853 -4.11906 0
M  V30 1895 H 166.605 -4.12609 -4.51181 0
M  V30 1896 H 170.779 -5.08111 -4.76231 0
M  V30 1897 H 168.406 -5.76495 -4.95537 0
M  V30 1898 N 169.982 1.44106 -0.638065 0
M  V30 1899 C 171.228 2.02277 -0.145546 0
M  V30 1900 C 171.561 1.50125 1.23191 0
M  V30 1901 O 170.836 0.688133 1.8192 0
M  V30 1902 C 171.119 3.59829 -0.139791 0
M  V30 1903 C 170.972 4.22247 -1.55008 0
M  V30 1904 C 172.291 4.36873 0.531966 0
M  V30 1905 H 169.41 0.734992 -0.0543632 0
M  V30 1906 H 172.052 1.71592 -0.815863 0
M  V30 1907 H 170.202 3.86102 0.431007 0
M  V30 1908 H 171.874 4.07057 -2.1703 0
M  V30 1909 H 170.117 3.79476 -2.10191 0
M  V30 1910 H 170.788 5.31284 -1.49804 0
M  V30 1911 H 173.264 4.16074 0.0464781 0
M  V30 1912 H 172.14 5.4657 0.505206 0
M  V30 1913 H 172.401 4.11995 1.60352 0
M  V30 1914 N 171.46 0.379036 1.52974 0
M  V30 1915 C 172.37 -0.468639 2.29872 0
M  V30 1916 C 173.386 -1.08067 1.36373 0
M  V30 1917 O 174.562 -1.08871 1.69438 0
M  V30 1918 C 171.627 -1.58594 3.083 0
M  V30 1919 C 170.688 -1.00007 4.17489 0
M  V30 1920 C 169.921 -2.06413 4.92168 0
M  V30 1921 O 170.144 -3.27751 4.66835 0
M  V30 1922 O 169.078 -1.68717 5.7777 0
M  V30 1923 H 172.904 0.157508 3.03291 0
M  V30 1924 H 170.489 0.143035 1.48714 0
M  V30 1925 H 172.371 -2.23525 3.57232 0
M  V30 1926 H 171.046 -2.19724 2.37703 0
M  V30 1927 H 169.953 -0.314299 3.72777 0
M  V30 1928 H 171.286 -0.433135 4.90291 0
M  V30 1929 N 172.938 -1.57226 0.108567 0
M  V30 1930 C 173.885 -2.14756 -0.845481 0
M  V30 1931 C 174.855 -1.06971 -1.27068 0
M  V30 1932 O 176.04 -1.34827 -1.35005 0
M  V30 1933 C 173.18 -2.74298 -2.09415 0
M  V30 1934 C 172.293 -3.96358 -1.71826 0
M  V30 1935 C 171.428 -4.44021 -2.9158 0
M  V30 1936 C 170.467 -5.58637 -2.50181 0
M  V30 1937 N 169.604 -6.01091 -3.62814 0
M  V30 1938 H 174.444 -2.95961 -0.348035 0
M  V30 1939 H 171.981 -1.46226 -0.160106 0
M  V30 1940 H 173.939 -3.06945 -2.82561 0
M  V30 1941 H 172.569 -1.95801 -2.56636 0
M  V30 1942 H 171.621 -3.69939 -0.885947 0
M  V30 1943 H 172.933 -4.79504 -1.37394 0
M  V30 1944 H 172.087 -4.78522 -3.72963 0
M  V30 1945 H 170.826 -3.59803 -3.29231 0
M  V30 1946 H 169.831 -5.23751 -1.67228 0
M  V30 1947 H 171.056 -6.44613 -2.13659 0
M  V30 1948 H 169.002 -5.19817 -4.00158 0
M  V30 1949 H 168.919 -6.79066 -3.32273 0
M  V30 1950 H 170.187 -6.40227 -4.44668 0
M  V30 1951 N 174.416 0.165178 -1.56732 0
M  V30 1952 C 175.662 0.882112 -1.82611 0
M  V30 1953 C 175.995 1.81628 -0.687378 0
M  V30 1954 O 175.27 1.92009 0.310267 0
M  V30 1955 C 175.553 1.67245 -3.18906 0
M  V30 1956 C 175.406 0.760987 -4.43316 0
M  V30 1957 C 176.725 2.63884 -3.52212 0
M  V30 1958 H 173.844 0.319242 -0.664269 0
M  V30 1959 H 176.486 0.148052 -1.89422 0
M  V30 1960 H 174.636 2.29824 -3.1323 0
M  V30 1961 H 176.308 0.147596 -4.61064 0
M  V30 1962 H 174.551 0.0694102 -4.33744 0
M  V30 1963 H 175.222 1.34962 -5.35247 0
M  V30 1964 H 177.698 2.11429 -3.58381 0
M  V30 1965 H 176.574 3.16245 -4.48643 0
M  V30 1966 H 176.835 3.44377 -2.77231 0
M  V30 1967 N 175.894 1.51508 0.433938 0
M  V30 1968 C 177.119 1.68443 1.21003 0
M  V30 1969 C 177.544 0.382636 1.84167 0
M  V30 1970 O 176.902 -0.65755 1.68956 0
M  V30 1971 C 176.95 2.80405 2.26727 0
M  V30 1972 O 176.054 2.44245 3.32292 0
M  V30 1973 H 175.395 0.561536 0.354363 0
M  V30 1974 H 177.925 1.9809 0.512024 0
M  V30 1975 H 177.935 3.0459 2.71457 0
M  V30 1976 H 176.61 3.74867 1.80132 0
M  V30 1977 H 175.187 2.30644 2.93015 0
M  V30 1978 N 177.372 -0.689602 1.41712 0
M  V30 1979 C 178.649 -1.44457 1.31877 0
M  V30 1980 C 179.029 -2.11039 -0.0508537 0
M  V30 1981 O 178.377 -2.02138 -1.06547 0
M  V30 1982 C 178.587 -2.45913 2.47645 0
M  V30 1983 C 179.935 -3.10991 2.89084 0
M  V30 1984 O 180.959 -2.56238 2.47428 0
M  V30 1985 O 179.818 -4.10174 3.61137 0
M  V30 1986 H 176.912 -0.64362 0.519309 0
M  V30 1987 H 179.458 -0.719576 1.53689 0
M  V30 1988 H 178.23 -1.95409 3.39015 0
M  V30 1989 H 177.853 -3.25913 2.27742 0
M  V30 1990 N 178.85 -1.27639 -0.924453 0
M  V30 1991 C 179.798 -1.10485 -2.04685 0
M  V30 1992 C 180.792 -0.0270421 -1.69378 0
M  V30 1993 O 181.998 -0.185008 -1.79047 0
M  V30 1994 H 178.373 -0.340546 -0.670472 0
M  V30 1995 H 180.344 -2.05566 -2.16298 0
M  V30 1996 C 179.093 -0.772229 -3.39016 0
M  V30 1997 H 178.416 -1.59351 -3.66671 0
M  V30 1998 H 179.856 -0.692097 -4.18313 0
M  V30 1999 C 178.315 0.523554 -3.32807 0
M  V30 2000 O 178.845 1.55702 -3.70297 0
M  V30 2001 N 177.051 0.520363 -2.85903 0
M  V30 2002 H 176.598 -0.32107 -2.55591 0
M  V30 2003 H 176.556 1.38742 -2.82131 0
M  V30 2004 N 180.328 1.1314 -1.09713 0
M  V30 2005 C 181.275 2.18642 -0.739196 0
M  V30 2006 C 182.245 1.63706 0.280978 0
M  V30 2007 O 183.43 1.90111 0.161946 0
M  V30 2008 C 180.57 3.44685 -0.169102 0
M  V30 2009 C 179.683 4.13711 -1.24367 0
M  V30 2010 C 178.818 5.27379 -0.636019 0
M  V30 2011 C 177.857 5.88259 -1.69169 0
M  V30 2012 N 176.994 6.93352 -1.10485 0
M  V30 2013 H 181.834 2.48607 -1.64312 0
M  V30 2014 H 179.371 1.22066 -0.820875 0
M  V30 2015 H 181.329 4.16815 0.179256 0
M  V30 2016 H 179.959 3.15161 0.698079 0
M  V30 2017 H 179.011 3.39835 -1.70927 0
M  V30 2018 H 180.323 4.55037 -2.04311 0
M  V30 2019 H 179.477 6.06238 -0.236677 0
M  V30 2020 H 178.216 4.8731 0.194928 0
M  V30 2021 H 177.221 5.08092 -2.10055 0
M  V30 2022 H 178.446 6.30399 -2.52536 0
M  V30 2023 H 176.392 6.55335 -0.295234 0
M  V30 2024 H 176.309 7.33236 -1.84121 0
M  V30 2025 H 177.577 7.76057 -0.73181 0
M  V30 2026 N 181.806 0.884767 1.30421 0
M  V30 2027 C 183.053 0.503105 1.96151 0
M  V30 2028 C 183.381 -0.947676 1.69851 0
M  V30 2029 O 182.636 -1.68467 0.995861 0
M  V30 2030 C 182.935 0.724318 3.49983 0
M  V30 2031 C 182.601 2.15015 3.96332 0
M  V30 2032 C 181.263 2.54005 4.08699 0
M  V30 2033 C 183.615 3.07936 4.20505 0
M  V30 2034 C 180.943 3.85128 4.42599 0
M  V30 2035 C 183.295 4.3859 4.55874 0
M  V30 2036 C 181.959 4.77474 4.66449 0
M  V30 2037 H 181.229 0.184099 0.717766 0
M  V30 2038 H 183.876 1.12058 1.55291 0
M  V30 2039 H 182.181 0.0238086 3.91793 0
M  V30 2040 H 183.878 0.408617 3.98913 0
M  V30 2041 H 180.468 1.8375 3.87213 0
M  V30 2042 H 184.652 2.79033 4.10431 0
M  V30 2043 H 179.908 4.14996 4.48986 0
M  V30 2044 H 184.082 5.10629 4.7353 0
M  V30 2045 H 181.709 5.79115 4.92473 0
M  V30 2046 N 183.284 -1.43765 0.645699 0
M  V30 2047 C 184.531 -2.01898 0.15604 0
M  V30 2048 C 184.859 -1.50887 -1.22733 0
M  V30 2049 O 184.114 -0.689271 -1.8316 0
M  V30 2050 C 184.413 -3.57238 0.107679 0
M  V30 2051 C 184.079 -4.27564 1.43178 0
M  V30 2052 C 182.741 -4.46492 1.7944 0
M  V30 2053 C 185.093 -4.67454 2.30513 0
M  V30 2054 C 182.421 -5.02573 3.02716 0
M  V30 2055 C 184.773 -5.24901 3.53074 0
M  V30 2056 C 183.437 -5.42046 3.89541 0
M  V30 2057 H 182.707 -0.738797 0.057099 0
M  V30 2058 H 185.354 -1.72341 0.834912 0
M  V30 2059 H 183.659 -3.86293 -0.654618 0
M  V30 2060 H 185.356 -3.99965 -0.287938 0
M  V30 2061 H 181.946 -4.13171 1.13963 0
M  V30 2062 H 186.13 -4.5253 2.0379 0
M  V30 2063 H 181.386 -5.14033 3.31028 0
M  V30 2064 H 185.56 -5.54758 4.20971 0
M  V30 2065 H 183.187 -5.85268 4.85145 0
M  V30 2066 N 184.763 -0.387143 -1.52771 0
M  V30 2067 C 186.179 -0.037007 -1.59557 0
M  V30 2068 C 186.379 1.44801 -1.40124 0
M  V30 2069 O 185.435 2.21227 -1.21716 0
M  V30 2070 C 186.748 -0.512256 -2.96305 0
M  V30 2071 C 188.296 -0.468328 -3.09476 0
M  V30 2072 C 188.771 -0.919731 -4.4867 0
M  V30 2073 N 190.262 -0.875656 -4.54848 0
M  V30 2074 C 190.997 -1.19637 -5.6078 0
M  V30 2075 N 190.493 -1.58745 -6.74368 0
M  V30 2076 N 192.286 -1.11776 -5.50874 0
M  V30 2077 H 184.437 -1.35395 -1.63652 0
M  V30 2078 H 186.7 -0.554818 -0.768688 0
M  V30 2079 H 186.406 -1.54935 -3.15734 0
M  V30 2080 H 186.28 0.089805 -3.77093 0
M  V30 2081 H 188.667 0.559671 -2.89744 0
M  V30 2082 H 188.748 -1.10616 -2.30646 0
M  V30 2083 H 188.392 -1.94595 -4.69143 0
M  V30 2084 H 188.322 -0.258927 -5.25963 0
M  V30 2085 H 190.813 -0.587843 -3.733 0
M  V30 2086 H 191.126 -1.81586 -7.51163 0
M  V30 2087 H 189.471 -1.6263 -6.75705 0
M  V30 2088 H 192.662 -0.811264 -4.61016 0
M  V30 2089 H 192.835 -1.37103 -6.3333 0
M  V30 2090 N 186.241 1.57166 -0.116904 0
M  V30 2091 C 187.151 2.18745 0.847812 0
M  V30 2092 C 188.167 1.163 1.29423 0
M  V30 2093 O 189.343 1.48761 1.35765 0
M  V30 2094 C 186.408 2.77307 2.0809 0
M  V30 2095 C 185.469 3.94781 1.68661 0
M  V30 2096 C 184.702 4.50541 2.86091 0
M  V30 2097 O 184.925 4.05202 4.01456 0
M  V30 2098 O 183.859 5.41256 2.63298 0
M  V30 2099 H 187.685 3.01632 0.353778 0
M  V30 2100 H 185.27 1.49005 0.108599 0
M  V30 2101 H 187.152 3.14647 2.80313 0
M  V30 2102 H 185.827 1.97452 2.56504 0
M  V30 2103 H 184.734 3.62214 0.935518 0
M  V30 2104 H 186.067 4.76065 1.24991 0
M  V30 2105 N 187.719 -0.156864 1.56817 0
M  V30 2106 C 188.966 -0.871125 1.82805 0
M  V30 2107 C 189.294 -1.81611 0.696262 0
M  V30 2108 O 188.549 -1.93141 -0.315459 0
M  V30 2109 C 188.848 -1.68737 3.1506 0
M  V30 2110 C 188.514 -0.890045 4.42028 0
M  V30 2111 C 187.176 -0.670042 4.76512 0
M  V30 2112 C 189.528 -0.331769 5.20143 0
M  V30 2113 C 186.856 0.119104 5.86579 0
M  V30 2114 C 189.208 0.444365 6.31037 0
M  V30 2115 C 187.872 0.675035 6.64078 0
M  V30 2116 H 187.142 -0.318767 0.668931 0
M  V30 2117 H 189.789 -0.135274 1.91022 0
M  V30 2118 H 188.094 -2.49304 3.0225 0
M  V30 2119 H 189.791 -2.24331 3.3238 0
M  V30 2120 H 186.381 -1.07157 4.14988 0
M  V30 2121 H 190.565 -0.489043 4.93885 0
M  V30 2122 H 185.821 0.307417 6.10627 0
M  V30 2123 H 189.995 0.884139 6.90765 0
M  V30 2124 H 187.622 1.28839 7.49203 0
M  V30 2125 N 189.197 -1.51736 -0.425897 0
M  V30 2126 C 190.608 -1.5732 -1.00536 0
M  V30 2127 C 190.959 -0.403537 -1.92005 0
M  V30 2128 O 190.084 0.478256 -2.11049 0
M  V30 2129 C 190.679 -2.85119 -1.8301 0
M  V30 2130 C 189.238 -2.93236 -2.35987 0
M  V30 2131 C 188.385 -2.52098 -1.15508 0
M  V30 2132 H 191.336 -1.57348 -0.206739 0
M  V30 2133 H 191.357 -2.69526 -2.68581 0
M  V30 2134 H 190.869 -3.7023 -1.16411 0
M  V30 2135 H 188.97 -2.12581 -3.06007 0
M  V30 2136 H 189.083 -3.9713 -2.68001 0
M  V30 2137 H 187.447 -2.05558 -1.50393 0
M  V30 2138 H 188.23 -3.39565 -0.505014 0
M  V30 2139 N 190.675 0.682077 -1.42076 0
M  V30 2140 C 191.952 1.43755 -1.32642 0
M  V30 2141 C 192.332 2.11063 0.0396611 0
M  V30 2142 O 191.68 2.02701 1.05474 0
M  V30 2143 C 191.89 2.44596 -2.48946 0
M  V30 2144 C 193.238 3.09454 -2.9073 0
M  V30 2145 O 194.262 2.54922 -2.48783 0
M  V30 2146 O 193.121 4.08253 -3.63307 0
M  V30 2147 H 190.215 0.640857 -0.522715 0
M  V30 2148 H 192.761 0.711415 -1.54068 0
M  V30 2149 H 191.533 1.93609 -3.40046 0
M  V30 2150 H 191.156 3.24701 -2.29467 0
M  V30 2151 N 192.153 1.28127 0.917671 0
M  V30 2152 C 193.569 1.05749 1.19538 0
M  V30 2153 C 193.769 -0.202633 2.00479 0
M  V30 2154 O 192.825 -0.905382 2.3571 0
M  V30 2155 C 194.138 2.30273 1.93378 0
M  V30 2156 C 195.686 2.35412 2.06277 0
M  V30 2157 C 196.161 3.59692 2.83524 0
M  V30 2158 N 197.652 3.60309 2.91087 0
M  V30 2159 C 198.387 4.53147 3.51348 0
M  V30 2160 N 197.883 5.563 4.12919 0
M  V30 2161 N 199.676 4.40751 3.48849 0
M  V30 2162 H 191.827 2.09024 0.377184 0
M  V30 2163 H 194.09 0.919798 0.22951 0
M  V30 2164 H 193.796 3.22055 1.41328 0
M  V30 2165 H 193.67 2.36378 2.93947 0
M  V30 2166 H 196.057 1.4413 2.57508 0
M  V30 2167 H 196.138 2.33304 1.04895 0
M  V30 2168 H 195.782 4.51316 2.32973 0
M  V30 2169 H 195.712 3.59054 3.85211 0
M  V30 2170 H 198.203 2.85714 2.47338 0
M  V30 2171 H 198.516 6.2329 4.56869 0
M  V30 2172 H 196.861 5.60131 4.11435 0
M  V30 2173 H 200.052 3.59367 2.99955 0
M  V30 2174 H 200.225 5.13291 3.9552 0
M  V30 2175 N 193.631 -1.12557 1.10312 0
M  V30 2176 C 194.561 -2.20341 0.772798 0
M  V30 2177 C 195.542 -1.68198 -0.25365 0
M  V30 2178 O 196.727 -1.93831 -0.119699 0
M  V30 2179 C 193.857 -3.46709 0.202443 0
M  V30 2180 C 192.811 -4.11996 1.15943 0
M  V30 2181 C 192.137 -5.328 0.450345 0
M  V30 2182 C 193.437 -4.5828 2.50552 0
M  V30 2183 H 195.131 -2.48229 1.674 0
M  V30 2184 H 192.677 -1.19308 0.806326 0
M  V30 2185 H 194.63 -4.2138 -0.0407752 0
M  V30 2186 H 193.354 -3.18245 -0.734001 0
M  V30 2187 H 192.013 -3.39305 1.38808 0
M  V30 2188 H 191.661 -5.00602 -0.490531 0
M  V30 2189 H 191.361 -5.7743 1.08851 0
M  V30 2190 H 192.885 -6.10219 0.215642 0
M  V30 2191 H 194.299 -5.2433 2.31843 0
M  V30 2192 H 192.696 -5.13683 3.10242 0
M  V30 2193 H 193.766 -3.72329 3.10643 0
M  V30 2194 N 195.109 -0.891671 -1.2995 0
M  V30 2195 C 196.525 -0.58662 -1.48428 0
M  V30 2196 C 196.725 0.873951 -1.81561 0
M  V30 2197 O 195.781 1.65471 -1.90724 0
M  V30 2198 C 197.094 -1.50553 -2.60296 0
M  V30 2199 C 198.642 -1.50988 -2.74175 0
M  V30 2200 C 199.117 -2.41488 -3.89163 0
M  V30 2201 N 200.608 -2.39489 -3.96483 0
M  V30 2202 C 201.343 -3.06223 -4.84784 0
M  V30 2203 N 200.839 -3.82206 -5.77833 0
M  V30 2204 N 202.632 -2.95421 -4.78208 0
M  V30 2205 H 194.783 -1.83644 -1.06718 0
M  V30 2206 H 197.046 -0.786455 -0.529332 0
M  V30 2207 H 196.752 -2.54581 -2.42654 0
M  V30 2208 H 196.626 -1.22008 -3.56923 0
M  V30 2209 H 199.013 -0.47708 -2.91218 0
M  V30 2210 H 199.094 -1.83567 -1.78148 0
M  V30 2211 H 198.738 -3.44857 -3.72876 0
M  V30 2212 H 198.668 -2.06222 -4.84541 0
M  V30 2213 H 201.159 -1.84278 -3.29924 0
M  V30 2214 H 201.472 -4.302 -6.41988 0
M  V30 2215 H 199.817 -3.86313 -5.77743 0
M  V30 2216 H 203.008 -2.35581 -4.04499 0
M  V30 2217 H 203.181 -3.47704 -5.46814 0
M  V30 2218 N 196.587 1.43421 -0.653314 0
M  V30 2219 C 197.833 2.02111 -0.166992 0
M  V30 2220 C 198.166 1.51423 1.21592 0
M  V30 2221 O 197.441 0.707389 1.8118 0
M  V30 2222 C 197.724 3.5966 -0.177948 0
M  V30 2223 C 197.577 4.20579 -1.59478 0
M  V30 2224 C 198.896 4.37413 0.4856 0
M  V30 2225 H 196.015 0.734374 -0.0621557 0
M  V30 2226 H 198.657 1.70717 -0.834016 0
M  V30 2227 H 196.807 3.86537 0.390032 0
M  V30 2228 H 198.479 4.04732 -2.21336 0
M  V30 2229 H 196.722 3.77226 -2.14204 0
M  V30 2230 H 197.393 5.29665 -1.5543 0
M  V30 2231 H 199.869 4.161 0.00234528 0
M  V30 2232 H 198.745 5.47075 0.447207 0
M  V30 2233 H 199.006 4.13672 1.55974 0
M  V30 2234 N 198.065 0.39524 1.52563 0
M  V30 2235 C 199.312 -0.185044 2.01653 0
M  V30 2236 C 199.64 -1.46317 1.28146 0
M  V30 2237 O 198.895 -1.9213 0.372074 0
M  V30 2238 C 199.194 -0.493444 3.53977 0
M  V30 2239 C 198.86 0.69384 4.4553 0
M  V30 2240 C 197.522 1.01954 4.70275 0
M  V30 2241 C 199.874 1.48785 4.99512 0
M  V30 2242 C 197.202 2.14069 5.46252 0
M  V30 2243 C 199.554 2.59965 5.76716 0
M  V30 2244 C 198.218 2.93037 5.99738 0
M  V30 2245 H 197.488 -0.0677123 0.7379 0
M  V30 2246 H 200.135 0.533807 1.8391 0
M  V30 2247 H 198.44 -1.29369 3.69825 0
M  V30 2248 H 200.137 -0.955163 3.89458 0
M  V30 2249 H 196.727 0.429987 4.26438 0
M  V30 2250 H 200.911 1.24946 4.80315 0
M  V30 2251 H 196.167 2.40056 5.62302 0
M  V30 2252 H 200.341 3.21887 6.17545 0
M  V30 2253 H 197.968 3.8003 6.58393 0
M  V30 2254 N 199.544 -1.57102 0.125237 0
M  V30 2255 C 200.476 -2.12726 -0.853237 0
M  V30 2256 C 201.489 -1.07145 -1.22571 0
M  V30 2257 O 202.678 -1.34497 -1.17358 0
M  V30 2258 C 199.778 -2.61709 -2.15317 0
M  V30 2259 C 198.951 -3.91456 -1.95143 0
M  V30 2260 C 198.01 -4.25973 -3.08923 0
M  V30 2261 O 197.036 -4.94682 -2.81564 0
M  V30 2262 N 198.238 -3.83795 -4.35524 0
M  V30 2263 H 201.003 -2.97307 -0.377964 0
M  V30 2264 H 198.564 -1.61792 -0.0590011 0
M  V30 2265 H 200.556 -2.81826 -2.90441 0
M  V30 2266 H 199.126 -1.81974 -2.54174 0
M  V30 2267 H 198.346 -3.80185 -1.04177 0
M  V30 2268 H 199.634 -4.76283 -1.78976 0
M  V30 2269 H 199.032 -3.2839 -4.60626 0
M  V30 2270 H 197.589 -4.09008 -5.07499 0
M  V30 2271 N 201.022 0.148545 -1.56898 0
M  V30 2272 C 202.268 0.857877 -1.84424 0
M  V30 2273 C 202.623 1.7886 -0.709006 0
M  V30 2274 O 201.916 1.89344 0.293139 0
M  V30 2275 C 202.11 1.67064 -3.1595 0
M  V30 2276 C 201.939 0.82011 -4.42159 0
M  V30 2277 C 200.709 0.486328 -5.02954 0
M  V30 2278 C 202.907 0.151155 -5.14078 0
M  V30 2279 N 200.889 -0.377956 -6.12735 0
M  V30 2280 C 202.26 -0.573333 -6.17343 0
M  V30 2281 C 204.315 0.0716685 -4.97848 0
M  V30 2282 C 203.018 -1.3698 -7.06137 0
M  V30 2283 C 205.044 -0.711532 -5.87104 0
M  V30 2284 C 204.406 -1.42431 -6.8985 0
M  V30 2285 H 200.505 0.291798 -0.725519 0
M  V30 2286 H 203.089 0.123347 -1.94309 0
M  V30 2287 H 201.26 2.37642 -3.07215 0
M  V30 2288 H 202.992 2.32302 -3.31388 0
M  V30 2289 H 199.747 0.821753 -4.66416 0
M  V30 2290 H 200.171 -0.801077 -6.72244 0
M  V30 2291 H 204.813 0.608381 -4.184 0
M  V30 2292 H 202.531 -1.91778 -7.85014 0
M  V30 2293 H 206.117 -0.775005 -5.76615 0
M  V30 2294 H 204.997 -2.02061 -7.57721 0
M  V30 2295 N 202.5 1.5196 0.417844 0
M  V30 2296 C 203.45 1.7106 1.5074 0
M  V30 2297 C 204.434 0.564487 1.50673 0
M  V30 2298 O 205.626 0.821206 1.56797 0
M  V30 2299 C 202.755 1.85677 2.88754 0
M  V30 2300 C 201.841 3.06133 2.93502 0
M  V30 2301 N 202.232 4.28987 2.67962 0
M  V30 2302 C 200.53 3.05787 3.24669 0
M  V30 2303 C 201.231 5.10395 2.79055 0
M  V30 2304 N 200.207 4.45455 3.11561 0
M  V30 2305 H 204.009 2.63696 1.29775 0
M  V30 2306 H 201.523 1.49873 0.625436 0
M  V30 2307 H 203.52 1.97475 3.67164 0
M  V30 2308 H 202.18 0.942348 3.10725 0
M  V30 2309 H 203.191 4.57607 2.4252 0
M  V30 2310 H 199.868 2.2405 3.52289 0
M  V30 2311 H 201.258 6.18247 2.63097 0
M  V30 2312 N 203.978 -0.674533 1.42435 0
M  V30 2313 C 205.226 -1.43175 1.42637 0
M  V30 2314 C 205.547 -1.94951 0.0438992 0
M  V30 2315 O 204.817 -1.7308 -0.917607 0
M  V30 2316 H 203.397 -0.531307 0.525092 0
M  V30 2317 H 206.059 -0.797006 1.77859 0
M  V30 2318 H 205.155 -2.28463 2.12629 0
M  V30 2319 N 205.456 -1.28612 -0.910864 0
M  V30 2320 C 206.733 -1.06632 -1.63979 0
M  V30 2321 C 207.113 0.393351 -2.07403 0
M  V30 2322 O 206.461 1.37999 -1.82122 0
M  V30 2323 C 206.671 -2.0436 -2.8291 0
M  V30 2324 C 208.019 -2.34666 -3.5386 0
M  V30 2325 O 209.043 -2.02467 -2.93062 0
M  V30 2326 O 207.902 -2.89631 -4.63439 0
M  V30 2327 H 204.996 -0.407737 -0.7195 0
M  V30 2328 H 207.542 -1.39942 -0.959914 0
M  V30 2329 H 206.314 -3.02727 -2.47936 0
M  V30 2330 H 205.937 -1.71714 -3.58609 0
M  V30 2331 N 206.934 1.1197 -1.10907 0
M  V30 2332 C 208.162 1.87402 -0.876824 0
M  V30 2333 C 208.577 1.79894 0.573025 0
M  V30 2334 O 207.934 1.17629 1.39534 0
M  V30 2335 C 207.985 3.36428 -1.32282 0
M  V30 2336 O 207.706 3.43765 -2.71582 0
M  V30 2337 C 209.207 4.28783 -1.12518 0
M  V30 2338 H 206.427 0.592793 -0.314384 0
M  V30 2339 H 208.971 1.41649 -1.47499 0
M  V30 2340 H 207.126 3.79706 -0.768229 0
M  V30 2341 H 207.54 4.3652 -2.90776 0
M  V30 2342 H 209.014 5.31613 -1.48633 0
M  V30 2343 H 209.491 4.39153 -0.0642394 0
M  V30 2344 H 210.097 3.91291 -1.66648 0
M  V30 2345 N 208.412 0.89855 1.29475 0
M  V30 2346 C 209.659 0.523882 1.95606 0
M  V30 2347 C 209.987 -0.929608 1.70847 0
M  V30 2348 O 209.242 -1.67401 1.01367 0
M  V30 2349 C 209.541 0.761398 3.49195 0
M  V30 2350 C 209.207 2.19207 3.94029 0
M  V30 2351 C 207.869 2.58326 4.05982 0
M  V30 2352 C 210.221 3.12379 4.17216 0
M  V30 2353 C 207.549 3.898 4.38489 0
M  V30 2354 C 209.901 4.43401 4.51197 0
M  V30 2355 C 208.565 4.82394 4.61359 0
M  V30 2356 H 207.835 0.191702 0.715773 0
M  V30 2357 H 210.482 1.13699 1.54094 0
M  V30 2358 H 208.787 0.0653622 3.91745 0
M  V30 2359 H 210.484 0.450904 3.98457 0
M  V30 2360 H 207.074 1.87846 3.85242 0
M  V30 2361 H 211.258 2.83371 4.07449 0
M  V30 2362 H 206.514 4.19734 4.44559 0
M  V30 2363 H 210.688 5.15623 4.68087 0
M  V30 2364 H 208.315 5.84306 4.86303 0
M  V30 2365 N 209.89 -1.43072 0.660911 0
M  V30 2366 C 211.167 -1.95307 0.107017 0
M  V30 2367 C 211.547 -1.60192 -1.37484 0
M  V30 2368 O 210.895 -0.890949 -2.10415 0
M  V30 2369 C 211.105 -3.47124 0.361402 0
M  V30 2370 C 212.453 -4.23738 0.270455 0
M  V30 2371 O 213.477 -3.54981 0.294382 0
M  V30 2372 O 212.336 -5.46131 0.200737 0
M  V30 2373 H 209.43 -0.826984 -0.00517729 0
M  V30 2374 H 211.976 -1.52972 0.734681 0
M  V30 2375 H 210.748 -3.65837 1.38848 0
M  V30 2376 H 210.371 -3.96475 -0.298953 0
M  V30 2377 N 211.368 -0.403325 -1.52352 0
M  V30 2378 C 212.298 0.416205 -2.29761 0
M  V30 2379 C 213.279 1.05123 -1.33728 0
M  V30 2380 O 214.464 1.06134 -1.62632 0
M  V30 2381 C 211.594 1.53624 -3.11475 0
M  V30 2382 C 210.548 1.02653 -4.15507 0
M  V30 2383 C 209.874 2.23971 -4.85532 0
M  V30 2384 C 211.174 0.08463 -5.22231 0
M  V30 2385 H 212.868 -0.229701 -2.98518 0
M  V30 2386 H 210.414 -0.111913 -1.43564 0
M  V30 2387 H 212.367 2.1165 -3.64393 0
M  V30 2388 H 211.091 2.20994 -2.40477 0
M  V30 2389 H 209.75 0.46871 -3.63591 0
M  V30 2390 H 209.398 2.89883 -4.11068 0
M  V30 2391 H 209.098 1.90521 -5.55856 0
M  V30 2392 H 210.622 2.82614 -5.41259 0
M  V30 2393 H 212.036 0.573509 -5.70424 0
M  V30 2394 H 210.433 -0.160783 -5.99885 0
M  V30 2395 H 211.503 -0.86237 -4.7717 0
M  V30 2396 N 212.846 1.57033 -0.133567 0
M  V30 2397 C 214.257 1.82593 0.389464 0
M  V30 2398 C 214.608 1.05156 1.6564 0
M  V30 2399 O 213.733 0.292644 2.14412 0
M  V30 2400 C 214.328 3.31204 0.713377 0
M  V30 2401 C 212.887 3.57393 1.18098 0
M  V30 2402 C 212.034 2.76598 0.197126 0
M  V30 2403 H 214.985 1.54598 -0.358481 0
M  V30 2404 H 215.006 3.46627 1.56939 0
M  V30 2405 H 214.518 3.87537 -0.2089 0
M  V30 2406 H 212.619 3.06433 2.11966 0
M  V30 2407 H 212.732 4.65915 1.11624 0
M  V30 2408 H 211.096 2.45257 0.687088 0
M  V30 2409 H 211.879 3.35697 -0.718504 0
M  V30 2410 N 214.325 -0.140222 1.56975 0
M  V30 2411 C 215.741 -0.493088 1.51792 0
M  V30 2412 C 215.941 -1.83013 0.843116 0
M  V30 2413 O 214.997 -2.49041 0.416493 0
M  V30 2414 C 216.31 -0.497144 2.96562 0
M  V30 2415 C 217.858 -0.582186 3.07538 0
M  V30 2416 C 218.333 -0.616838 4.53827 0
M  V30 2417 N 219.824 -0.678873 4.58198 0
M  V30 2418 C 220.559 -0.726782 5.68775 0
M  V30 2419 N 220.055 -0.733623 6.88905 0
M  V30 2420 N 221.848 -0.768179 5.56826 0
M  V30 2421 H 213.999 0.736108 1.99237 0
M  V30 2422 H 216.262 0.269182 0.90898 0
M  V30 2423 H 215.968 0.417217 3.49217 0
M  V30 2424 H 215.842 -1.33263 3.52875 0
M  V30 2425 H 218.229 -1.48697 2.54899 0
M  V30 2426 H 218.31 0.280581 2.54257 0
M  V30 2427 H 217.954 0.283812 5.07106 0
M  V30 2428 H 217.884 -1.49619 5.04898 0
M  V30 2429 H 220.375 -0.68061 3.7172 0
M  V30 2430 H 220.688 -0.772215 7.68932 0
M  V30 2431 H 219.033 -0.701389 6.91452 0
M  V30 2432 H 222.224 -0.760051 4.61888 0
M  V30 2433 H 222.397 -0.80205 6.43017 0
M  V30 2434 N 215.803 -1.52179 -0.40978 0
M  V30 2435 C 217.219 -1.40968 -0.74835 0
M  V30 2436 C 217.419 -0.513657 -1.94843 0
M  V30 2437 O 216.475 0.0208026 -2.52491 0
M  V30 2438 C 217.788 -2.83483 -1.0029 0
M  V30 2439 C 219.336 -2.92821 -1.10565 0
M  V30 2440 C 219.811 -4.36303 -1.39296 0
M  V30 2441 N 221.302 -4.39535 -1.46162 0
M  V30 2442 C 222.037 -5.47614 -1.70018 0
M  V30 2443 N 221.533 -6.65812 -1.91483 0
M  V30 2444 N 223.326 -5.35129 -1.72027 0
M  V30 2445 H 215.477 -2.0897 0.380186 0
M  V30 2446 H 217.74 -0.94185 0.107805 0
M  V30 2447 H 217.446 -3.51168 -0.193461 0
M  V30 2448 H 217.32 -3.24487 -1.92323 0
M  V30 2449 H 219.707 -2.25318 -1.90568 0
M  V30 2450 H 219.788 -2.55276 -0.16369 0
M  V30 2451 H 219.432 -5.04366 -0.598109 0
M  V30 2452 H 219.362 -4.71385 -2.34743 0
M  V30 2453 H 221.853 -3.54332 -1.31367 0
M  V30 2454 H 222.166 -7.43964 -2.09134 0
M  V30 2455 H 220.511 -6.68879 -1.88749 0
M  V30 2456 H 223.702 -4.41764 -1.54796 0
M  V30 2457 H 223.875 -6.19433 -1.9028 0
M  V30 2458 N 217.281 0.66697 -1.42791 0
M  V30 2459 C 218.244 1.76211 -1.46568 0
M  V30 2460 C 219.244 1.56896 -0.352196 0
M  V30 2461 O 220.434 1.63044 -0.613364 0
M  V30 2462 C 217.566 3.14935 -1.30494 0
M  V30 2463 H 218.759 1.74247 -2.44086 0
M  V30 2464 H 216.312 0.877342 -1.29354 0
M  V30 2465 H 217.047 3.2252 -0.339301 0
M  V30 2466 H 216.832 3.30359 -2.11199 0
M  V30 2467 H 218.322 3.94821 -1.36038 0
M  V30 2468 N 218.759 1.29093 0.90403 0
M  V30 2469 C 219.987 1.19689 1.68766 0
M  V30 2470 C 220.402 -0.243113 1.87228 0
M  V30 2471 O 219.759 -1.16326 1.40621 0
M  V30 2472 C 219.81 1.90144 3.07453 0
M  V30 2473 O 219.531 3.2852 2.89838 0
M  V30 2474 C 221.032 1.87162 4.01852 0
M  V30 2475 H 218.252 0.415035 0.527244 0
M  V30 2476 H 220.796 1.7039 1.13082 0
M  V30 2477 H 218.951 1.43289 3.59926 0
M  V30 2478 H 219.365 3.63944 3.77684 0
M  V30 2479 H 220.839 2.41032 4.96596 0
M  V30 2480 H 221.316 0.84617 4.30972 0
M  V30 2481 H 221.922 2.33741 3.5531 0
M  V30 2482 N 220.237 -1.11381 1.11499 0
M  V30 2483 C 221.653 -1.35143 0.849031 0
M  V30 2484 C 221.853 -1.94515 -0.525938 0
M  V30 2485 O 220.909 -2.1785 -1.27662 0
M  V30 2486 C 222.222 -2.28249 1.95762 0
M  V30 2487 C 223.77 -2.41812 1.98736 0
M  V30 2488 C 224.245 -3.3824 3.088 0
M  V30 2489 N 225.736 -3.45803 3.08179 0
M  V30 2490 C 226.471 -4.20358 3.89982 0
M  V30 2491 N 225.967 -4.97884 4.8175 0
M  V30 2492 N 227.76 -4.15877 3.78157 0
M  V30 2493 H 219.911 -0.712062 2.00109 0
M  V30 2494 H 222.174 -0.376025 0.870235 0
M  V30 2495 H 221.88 -1.91817 2.94787 0
M  V30 2496 H 221.754 -3.28473 1.85433 0
M  V30 2497 H 224.141 -2.77518 1.00338 0
M  V30 2498 H 224.222 -1.41437 2.13141 0
M  V30 2499 H 223.866 -3.03261 4.07425 0
M  V30 2500 H 223.796 -4.38471 2.91635 0
M  V30 2501 H 226.287 -2.90506 2.41691 0
M  V30 2502 H 226.6 -5.52142 5.40702 0
M  V30 2503 H 224.945 -4.97043 4.85771 0
M  V30 2504 H 228.136 -3.544 3.05808 0
M  V30 2505 H 228.309 -4.73723 4.42143 0
M  V30 2506 N 221.715 -0.905404 -1.28997 0
M  V30 2507 C 222.961 -0.535039 -1.95615 0
M  V30 2508 C 223.294 0.917404 -1.71165 0
M  V30 2509 O 222.569 1.65123 -1.02785 0
M  V30 2510 C 222.852 -0.834918 -3.50287 0
M  V30 2511 C 222.705 -2.33948 -3.84172 0
M  V30 2512 C 224.024 -0.325318 -4.38896 0
M  V30 2513 H 221.143 -0.195861 -0.710498 0
M  V30 2514 H 223.785 -1.13313 -1.52513 0
M  V30 2515 H 221.935 -0.325904 -3.87131 0
M  V30 2516 H 223.607 -2.91847 -3.57243 0
M  V30 2517 H 221.85 -2.79789 -3.31513 0
M  V30 2518 H 222.521 -2.49987 -4.92149 0
M  V30 2519 H 224.997 -0.761256 -4.09077 0
M  V30 2520 H 223.873 -0.564295 -5.45992 0
M  V30 2521 H 224.134 0.774144 -4.35269 0
M  V30 2522 N 223.193 1.4272 -0.668489 0
M  V30 2523 C 224.44 2.01624 -0.18814 0
M  V30 2524 C 224.768 1.5282 1.20317 0
M  V30 2525 O 224.023 0.718323 1.8204 0
M  V30 2526 C 224.322 3.57021 -0.164499 0
M  V30 2527 C 223.988 4.25232 -1.49962 0
M  V30 2528 C 222.65 4.4358 -1.8652 0
M  V30 2529 C 225.002 4.63727 -2.37921 0
M  V30 2530 C 222.33 4.97694 -3.10674 0
M  V30 2531 C 224.682 5.19218 -3.6138 0
M  V30 2532 C 223.346 5.3578 -3.98115 0
M  V30 2533 H 222.616 0.737795 -0.0688454 0
M  V30 2534 H 225.263 1.70991 -0.862225 0
M  V30 2535 H 223.568 3.87285 0.593079 0
M  V30 2536 H 225.265 4.00372 0.224271 0
M  V30 2537 H 221.855 4.11306 -1.20522 0
M  V30 2538 H 226.039 4.4923 -2.10964 0
M  V30 2539 H 221.295 5.08702 -3.39164 0
M  V30 2540 H 225.469 5.4799 -4.29743 0
M  V30 2541 H 223.096 5.77475 -4.94395 0
M  V30 2542 N 224.671 0.411399 1.52136 0
M  V30 2543 C 225.899 -0.163076 2.06256 0
M  V30 2544 C 226.314 -1.3867 1.28125 0
M  V30 2545 O 225.671 -1.79423 0.333721 0
M  V30 2546 C 225.722 -0.511252 3.57867 0
M  V30 2547 O 225.443 0.66378 4.33042 0
M  V30 2548 C 226.944 -1.13921 4.28412 0
M  V30 2549 H 224.164 -0.0193897 0.67072 0
M  V30 2550 H 226.708 0.583007 1.96013 0
M  V30 2551 H 224.863 -1.20723 3.6811 0
M  V30 2552 H 225.277 0.372601 5.23175 0
M  V30 2553 H 226.751 -1.33302 5.35663 0
M  V30 2554 H 227.228 -2.11296 3.85033 0
M  V30 2555 H 227.834 -0.483373 4.22544 0
M  V30 2556 N 226.149 -1.5696 0.141893 0
M  V30 2557 C 227.374 -2.00754 -0.520838 0
M  V30 2558 C 227.799 -1.0213 -1.57959 0
M  V30 2559 O 227.157 0.00371324 -1.813 0
M  V30 2560 C 227.205 -3.43318 -1.10294 0
M  V30 2561 O 226.309 -3.47679 -2.21795 0
M  V30 2562 H 225.65 -0.651564 -0.127908 0
M  V30 2563 H 228.18 -2.03221 0.23712 0
M  V30 2564 H 228.19 -3.82012 -1.43287 0
M  V30 2565 H 226.865 -4.14608 -0.327574 0
M  V30 2566 H 225.442 -3.20824 -1.9007 0
M  V30 2567 N 227.627 0.131896 -1.57047 0
M  V30 2568 C 228.537 1.1815 -2.02676 0
M  V30 2569 C 229.553 1.46113 -0.944824 0
M  V30 2570 O 230.729 1.57485 -1.25541 0
M  V30 2571 C 227.794 2.49139 -2.41103 0
M  V30 2572 C 226.855 2.28688 -3.63318 0
M  V30 2573 C 226.088 3.53431 -3.99903 0
M  V30 2574 O 226.311 4.60223 -3.36973 0
M  V30 2575 O 225.245 3.45198 -4.93074 0
M  V30 2576 H 229.071 0.824069 -2.92306 0
M  V30 2577 H 226.656 0.341745 -1.45439 0
M  V30 2578 H 228.538 3.26338 -2.66611 0
M  V30 2579 H 227.213 2.84382 -1.54624 0
M  V30 2580 H 226.12 1.4939 -3.42977 0
M  V30 2581 H 227.453 1.98355 -4.50462 0
M  V30 2582 N 229.106 1.52395 0.401703 0
M  V30 2583 C 230.053 1.76268 1.48991 0
M  V30 2584 C 231.023 0.605386 1.54675 0
M  V30 2585 O 232.208 0.843742 1.7113 0
M  V30 2586 C 229.348 1.92592 2.86361 0
M  V30 2587 C 228.461 3.20259 2.89928 0
M  V30 2588 C 227.596 3.26972 4.18644 0
M  V30 2589 C 226.635 4.48812 4.16214 0
M  V30 2590 N 225.772 4.52877 5.36514 0
M  V30 2591 H 230.612 2.6914 1.27935 0
M  V30 2592 H 228.149 1.33355 0.620871 0
M  V30 2593 H 230.107 2.0004 3.66115 0
M  V30 2594 H 228.737 1.03093 3.05895 0
M  V30 2595 H 227.789 3.21945 2.02621 0
M  V30 2596 H 229.101 4.10056 2.83999 0
M  V30 2597 H 228.255 3.33533 5.06794 0
M  V30 2598 H 226.994 2.35126 4.27278 0
M  V30 2599 H 225.999 4.4239 3.26453 0
M  V30 2600 H 227.224 5.41961 4.09213 0
M  V30 2601 H 225.17 3.63917 5.45802 0
M  V30 2602 H 225.087 5.36529 5.32609 0
M  V30 2603 H 226.355 4.63676 6.26597 0
M  V30 2604 N 230.584 -0.659388 1.43143 0
M  V30 2605 C 231.814 -1.44513 1.47646 0
M  V30 2606 C 232.222 -1.88981 0.0910095 0
M  V30 2607 O 231.565 -1.59702 -0.907789 0
M  V30 2608 C 231.627 -2.71663 2.35456 0
M  V30 2609 C 231.291 -2.49175 3.83094 0
M  V30 2610 C 232.288 -2.1279 4.74359 0
M  V30 2611 C 229.973 -2.63691 4.27519 0
M  V30 2612 C 231.967 -1.9121 6.08044 0
M  V30 2613 C 229.654 -2.41726 5.61259 0
M  V30 2614 C 230.652 -2.0554 6.51339 0
M  V30 2615 O 230.34 -1.838 7.82606 0
M  V30 2616 H 230.072 -0.45064 0.503884 0
M  V30 2617 H 232.626 -0.816248 1.88485 0
M  V30 2618 H 230.856 -3.37089 1.89493 0
M  V30 2619 H 232.545 -3.33595 2.31235 0
M  V30 2620 H 233.311 -2.01157 4.41317 0
M  V30 2621 H 229.19 -2.90832 3.57684 0
M  V30 2622 H 232.734 -1.62889 6.78316 0
M  V30 2623 H 228.631 -2.52959 5.9387 0
M  V30 2624 H 229.399 -1.98275 7.94122 0
M  V30 2625 N 232.062 -1.29571 -0.897171 0
M  V30 2626 C 232.972 -1.16808 -2.03453 0
M  V30 2627 C 233.988 -0.0907471 -1.73763 0
M  V30 2628 O 235.164 -0.303312 -1.99103 0
M  V30 2629 C 232.229 -0.848264 -3.36163 0
M  V30 2630 C 231.29 -2.0097 -3.79354 0
M  V30 2631 C 230.523 -1.70505 -5.05731 0
M  V30 2632 O 230.746 -0.62718 -5.66941 0
M  V30 2633 O 229.68 -2.5538 -5.45036 0
M  V30 2634 H 233.506 -2.12325 -2.17144 0
M  V30 2635 H 231.091 -1.09047 -1.02123 0
M  V30 2636 H 232.973 -0.684581 -4.15802 0
M  V30 2637 H 231.648 0.0771071 -3.23608 0
M  V30 2638 H 230.555 -2.22863 -3.00471 0
M  V30 2639 H 231.888 -2.91636 -3.96496 0
M  V30 2640 N 233.54 1.10788 -1.12088 0
M  V30 2641 C 234.488 2.19111 -0.780587 0
M  V30 2642 C 235.482 1.67818 0.230961 0
M  V30 2643 O 236.688 1.79777 0.0895427 0
M  V30 2644 H 233.063 0.714477 -0.234578 0
M  V30 2645 H 235.034 2.45055 -1.70266 0
M  V30 2646 C 233.783 3.46818 -0.24747 0
M  V30 2647 H 233.106 3.86646 -1.01712 0
M  V30 2648 H 234.546 4.23973 -0.0476291 0
M  V30 2649 C 233.005 3.20968 1.02378 0
M  V30 2650 O 233.535 3.42298 2.10226 0
M  V30 2651 N 231.741 2.74658 0.949271 0
M  V30 2652 H 231.288 2.57501 0.0715173 0
M  V30 2653 H 231.246 2.57739 1.80049 0
M  V30 2654 N 235.018 0.912232 1.28515 0
M  V30 2655 C 235.95 0.35676 2.26406 0
M  V30 2656 C 236.963 -0.503933 1.54804 0
M  V30 2657 O 238.152 -0.319059 1.75625 0
M  V30 2658 C 235.252 -0.508825 3.35058 0
M  V30 2659 C 234.425 0.329007 4.36161 0
M  V30 2660 C 233.484 -0.471422 5.24084 0
M  V30 2661 O 232.51 0.115482 5.69083 0
M  V30 2662 N 233.712 -1.77479 5.52704 0
M  V30 2663 H 236.477 1.19818 2.74707 0
M  V30 2664 H 234.038 0.778022 1.4198 0
M  V30 2665 H 236.03 -1.051 3.90815 0
M  V30 2666 H 234.6 -1.25095 2.86478 0
M  V30 2667 H 233.82 1.05256 3.79888 0
M  V30 2668 H 235.108 0.90234 5.00735 0
M  V30 2669 H 234.506 -2.27417 5.17975 0
M  V30 2670 H 233.063 -2.26382 6.11224 0
M  V30 2671 N 236.496 -1.42363 0.676048 0
M  V30 2672 C 237.744 -2.01123 0.198437 0
M  V30 2673 C 238.065 -1.53731 -1.19966 0
M  V30 2674 O 237.335 -0.759518 -1.80577 0
M  V30 2675 H 235.915 -0.743678 0.0703721 0
M  V30 2676 H 238.577 -1.74263 0.872837 0
M  V30 2677 H 237.673 -3.11454 0.200686 0
M  V30 2678 N 237.974 -0.419461 -1.51915 0
M  V30 2679 C 239.221 0.152939 -2.01922 0
M  V30 2680 C 239.549 1.4426 -1.30458 0
M  V30 2681 O 238.804 1.91514 -0.402593 0
M  V30 2682 C 239.103 0.437067 -3.54717 0
M  V30 2683 C 238.769 -0.764632 -4.44369 0
M  V30 2684 C 237.431 -1.09423 -4.68594 0
M  V30 2685 C 239.783 -1.56713 -4.97082 0
M  V30 2686 C 237.111 -2.22732 -5.42777 0
M  V30 2687 C 239.463 -2.69107 -5.72507 0
M  V30 2688 C 238.127 -3.02541 -5.95 0
M  V30 2689 H 237.397 0.0559644 -0.738884 0
M  V30 2690 H 240.044 -0.562998 -1.83037 0
M  V30 2691 H 238.349 1.23469 -3.71837 0
M  V30 2692 H 240.046 0.893083 -3.90928 0
M  V30 2693 H 236.636 -0.497775 -4.257 0
M  V30 2694 H 240.82 -1.32571 -4.78266 0
M  V30 2695 H 236.076 -2.48971 -5.58411 0
M  V30 2696 H 240.25 -3.31671 -6.12346 0
M  V30 2697 H 237.877 -3.90457 -6.52264 0
M  V30 2698 N 239.452 1.56882 -0.150215 0
M  V30 2699 C 240.698 1.96518 0.500834 0
M  V30 2700 C 241.031 1.03527 1.64304 0
M  V30 2701 O 240.306 0.0782751 1.94342 0
M  V30 2702 C 240.589 3.45822 1.00395 0
M  V30 2703 C 240.442 4.49591 -0.136983 0
M  V30 2704 C 241.761 3.97704 1.88467 0
M  V30 2705 H 238.88 0.714535 0.18058 0
M  V30 2706 H 241.522 1.88577 -0.232091 0
M  V30 2707 H 239.672 3.5272 1.62851 0
M  V30 2708 H 241.344 4.5477 -0.77343 0
M  V30 2709 H 239.587 4.26441 -0.795652 0
M  V30 2710 H 240.258 5.51402 0.256815 0
M  V30 2711 H 242.734 3.93304 1.35834 0
M  V30 2712 H 241.61 5.0263 2.20578 0
M  V30 2713 H 241.871 3.40252 2.82279 0
M  V30 2714 N 240.93 -0.123565 1.57115 0
M  V30 2715 C 242.16 -0.845233 1.88519 0
M  V30 2716 C 242.568 -1.74168 0.739064 0
M  V30 2717 O 241.911 -1.81244 -0.299355 0
M  V30 2718 C 241.973 -1.73452 3.14888 0
M  V30 2719 C 241.637 -1.01285 4.45635 0
M  V30 2720 C 242.634 -0.355774 5.18681 0
M  V30 2721 C 240.319 -0.99538 4.92339 0
M  V30 2722 C 242.313 0.309114 6.3665 0
M  V30 2723 C 240 -0.32669 6.10226 0
M  V30 2724 C 240.998 0.324406 6.82229 0
M  V30 2725 O 240.686 0.982437 7.97874 0
M  V30 2726 H 240.418 -0.248534 0.628655 0
M  V30 2727 H 242.972 -0.113907 2.05084 0
M  V30 2728 H 241.202 -2.50737 2.94394 0
M  V30 2729 H 242.891 -2.33021 3.32349 0
M  V30 2730 H 243.657 -0.360918 4.83655 0
M  V30 2731 H 239.536 -1.49159 4.36202 0
M  V30 2732 H 243.08 0.8179 6.92789 0
M  V30 2733 H 238.977 -0.319294 6.4471 0
M  V30 2734 H 239.745 0.886454 8.13686 0
M  V30 2735 N 242.408 -1.52605 -0.393616 0
M  V30 2736 C 243.656 -1.67093 -1.13685 0
M  V30 2737 C 243.977 -0.411011 -1.90619 0
M  V30 2738 O 243.247 0.574491 -1.87287 0
M  V30 2739 H 241.827 -0.615923 -0.422668 0
M  V30 2740 H 244.489 -1.89704 -0.447039 0
M  V30 2741 H 243.585 -2.51922 -1.84232 0
M  V30 2742 N 243.887 0.651787 -1.4349 0
M  V30 2743 C 244.834 1.76462 -1.4876 0
M  V30 2744 C 245.804 1.62641 -0.337189 0
M  V30 2745 O 246.989 1.82864 -0.544544 0
M  V30 2746 C 244.129 3.14623 -1.41796 0
M  V30 2747 C 243.242 3.39568 -2.67053 0
M  V30 2748 C 242.377 4.67585 -2.52068 0
M  V30 2749 C 241.416 4.85639 -3.72587 0
M  V30 2750 N 240.553 6.04915 -3.56402 0
M  V30 2751 H 245.393 1.71293 -2.43849 0
M  V30 2752 H 242.93 0.835889 -1.21043 0
M  V30 2753 H 244.888 3.94496 -1.35753 0
M  V30 2754 H 243.518 3.18859 -0.50288 0
M  V30 2755 H 242.57 2.53783 -2.8337 0
M  V30 2756 H 243.882 3.48795 -3.56572 0
M  V30 2757 H 243.036 5.55586 -2.4374 0
M  V30 2758 H 241.775 4.60681 -1.60075 0
M  V30 2759 H 240.78 3.96073 -3.81321 0
M  V30 2760 H 242.005 4.94372 -4.65589 0
M  V30 2761 H 239.951 5.9914 -2.67146 0
M  V30 2762 H 239.868 6.15106 -4.39524 0
M  V30 2763 H 241.136 6.95533 -3.51929 0
M  V30 2764 N 245.365 1.30045 0.890287 0
M  V30 2765 C 246.328 1.15963 1.977 0
M  V30 2766 C 247.328 0.0923777 1.60534 0
M  V30 2767 O 248.518 0.340071 1.70848 0
M  V30 2768 C 245.65 0.775451 3.31963 0
M  V30 2769 H 246.843 2.12502 2.11619 0
M  V30 2770 H 244.396 1.13366 1.07601 0
M  V30 2771 H 245.131 -0.189671 3.23745 0
M  V30 2772 H 244.916 1.54668 3.60306 0
M  V30 2773 H 246.406 0.700251 4.11687 0
M  V30 2774 N 246.843 -1.10192 1.12674 0
M  V30 2775 C 248.089 -1.82475 0.884915 0
M  V30 2776 C 248.422 -1.85093 -0.58773 0
M  V30 2777 O 247.697 -1.3134 -1.43457 0
M  V30 2778 C 247.98 -3.29018 1.46353 0
M  V30 2779 C 247.833 -3.34718 3.00473 0
M  V30 2780 C 249.152 -4.25473 1.12519 0
M  V30 2781 H 246.271 -0.662492 0.322915 0
M  V30 2782 H 248.913 -1.2913 1.39375 0
M  V30 2783 H 247.063 -3.74576 1.03077 0
M  V30 2784 H 248.735 -2.97622 3.52447 0
M  V30 2785 H 246.978 -2.74541 3.35872 0
M  V30 2786 H 247.649 -4.37918 3.36053 0
M  V30 2787 H 250.125 -3.88161 1.499 0
M  V30 2788 H 249.001 -5.26365 1.55663 0
M  V30 2789 H 249.262 -4.42084 0.0377407 0
M  V30 2790 N 248.321 -0.919034 -1.28029 0
M  V30 2791 C 249.569 -0.553838 -1.94363 0
M  V30 2792 C 249.89 0.906357 -1.72656 0
M  V30 2793 O 249.16 1.64143 -1.0693 0
M  V30 2794 H 247.74 -0.201834 -0.719216 0
M  V30 2795 H 250.402 -1.16954 -1.55909 0
M  V30 2796 H 249.498 -0.752758 -3.02886 0
M  V30 2797 N 249.799 1.42003 -0.683588 0
M  V30 2798 C 250.729 2.33487 -0.024866 0
M  V30 2799 C 251.71 1.51163 0.779975 0
M  V30 2800 O 252.895 1.79739 0.735362 0
M  V30 2801 C 250.025 3.3487 0.920836 0
M  V30 2802 C 248.979 4.27414 0.223958 0
M  V30 2803 C 248.305 5.19074 1.2832 0
M  V30 2804 C 249.605 5.14445 -0.90242 0
M  V30 2805 H 251.299 2.88819 -0.788921 0
M  V30 2806 H 248.845 1.38873 -0.38083 0
M  V30 2807 H 250.798 3.97787 1.39081 0
M  V30 2808 H 249.522 2.77861 1.71642 0
M  V30 2809 H 248.181 3.65904 -0.225864 0
M  V30 2810 H 247.829 4.58387 2.071 0
M  V30 2811 H 247.529 5.81822 0.821995 0
M  V30 2812 H 249.053 5.84867 1.75392 0
M  V30 2813 H 250.467 5.70998 -0.513272 0
M  V30 2814 H 248.864 5.86072 -1.28997 0
M  V30 2815 H 249.934 4.52322 -1.74737 0
M  V30 2816 N 251.277 0.427512 1.51691 0
M  V30 2817 C 252.209 -0.424521 2.25234 0
M  V30 2818 C 253.222 -0.994671 1.2888 0
M  V30 2819 O 254.411 -0.890483 1.54702 0
M  V30 2820 C 251.511 -1.60479 2.98496 0
M  V30 2821 C 250.684 -1.15527 4.21868 0
M  V30 2822 C 249.743 -2.20454 4.77793 0
M  V30 2823 O 248.769 -1.8029 5.39893 0
M  V30 2824 N 249.971 -3.52831 4.60967 0
M  V30 2825 H 252.736 0.205749 2.98993 0
M  V30 2826 H 250.297 0.255867 1.59865 0
M  V30 2827 H 252.289 -2.30276 3.32799 0
M  V30 2828 H 250.859 -2.14061 2.27809 0
M  V30 2829 H 250.079 -0.284736 3.9317 0
M  V30 2830 H 251.367 -0.832173 5.01949 0
M  V30 2831 H 250.765 -3.88201 4.11481 0
M  V30 2832 H 249.322 -4.18551 4.99658 0
M  V30 2833 N 252.755 -1.56801 0.158532 0
M  V30 2834 C 254.002 -1.9649 -0.489679 0
M  V30 2835 C 254.33 -1.04394 -1.6411 0
M  V30 2836 O 253.585 -0.0754401 -1.95555 0
M  V30 2837 C 253.884 -3.4235 -1.02623 0
M  V30 2838 C 253.55 -4.50899 0.00794526 0
M  V30 2839 C 252.212 -4.80312 0.292207 0
M  V30 2840 C 254.564 -5.16333 0.710584 0
M  V30 2841 C 251.892 -5.72461 1.28472 0
M  V30 2842 C 254.244 -6.09553 1.69199 0
M  V30 2843 C 252.908 -6.37339 1.98383 0
M  V30 2844 H 252.178 -0.719009 -0.179186 0
M  V30 2845 H 254.825 -1.8989 0.247798 0
M  V30 2846 H 253.13 -3.45838 -1.84128 0
M  V30 2847 H 254.827 -3.70393 -1.53656 0
M  V30 2848 H 251.417 -4.28015 -0.22379 0
M  V30 2849 H 255.601 -4.93732 0.504174 0
M  V30 2850 H 250.857 -5.92278 1.51714 0
M  V30 2851 H 255.031 -6.59327 2.24189 0
M  V30 2852 H 252.658 -7.08546 2.7544 0
M  V30 2853 N 254.233 0.115231 -1.57178 0
M  V30 2854 C 255.183 1.14707 -1.97044 0
M  V30 2855 C 256.167 1.36866 -0.845957 0
M  V30 2856 O 257.359 1.37895 -1.10968 0
M  V30 2857 C 254.488 2.47266 -2.38148 0
M  V30 2858 C 253.574 2.28566 -3.57237 0
M  V30 2859 N 253.965 1.79685 -4.72807 0
M  V30 2860 C 252.263 2.59208 -3.62943 0
M  V30 2861 C 252.964 1.74781 -5.54821 0
M  V30 2862 N 251.94 2.19264 -4.97417 0
M  V30 2863 H 255.742 0.761754 -2.83857 0
M  V30 2864 H 253.256 0.322928 -1.59157 0
M  V30 2865 H 255.253 3.219 -2.64927 0
M  V30 2866 H 253.913 2.86552 -1.52702 0
M  V30 2867 H 254.924 1.49177 -4.9595 0
M  V30 2868 H 251.601 3.02154 -2.88113 0
M  V30 2869 H 252.991 1.38212 -6.57531 0
M  V30 2870 N 255.711 1.52812 0.385517 0
M  V30 2871 C 256.96 1.67249 1.12741 0
M  V30 2872 C 257.273 0.4205 1.91027 0
M  V30 2873 O 258.479 0.445064 2.67827 0
M  V30 2874 C 256.935 2.95583 2.05326 0
M  V30 2875 C 256.543 4.27974 1.32447 0
M  V30 2876 C 258.287 3.19386 2.7963 0
M  V30 2877 C 256.194 5.47412 2.23818 0
M  V30 2878 H 255.124 0.6231 0.424573 0
M  V30 2879 H 257.775 1.79309 0.389924 0
M  V30 2880 H 256.157 2.77277 2.82725 0
M  V30 2881 H 257.331 4.56844 0.602495 0
M  V30 2882 H 255.646 4.10459 0.700885 0
M  V30 2883 H 258.243 4.05801 3.48181 0
M  V30 2884 H 258.586 2.34604 3.43899 0
M  V30 2885 H 259.119 3.38274 2.09322 0
M  V30 2886 H 255.858 6.34612 1.64157 0
M  V30 2887 H 255.378 5.22849 2.93921 0
M  V30 2888 H 257.057 5.81423 2.83824 0
M  V30 2889 N 257.189 -0.644168 1.43834 0
M  V30 2890 C 258.099 -1.78563 1.52159 0
M  V30 2891 C 259.115 -1.69147 0.408069 0
M  V30 2892 O 260.291 -1.90156 0.663524 0
M  V30 2893 C 257.356 -3.14888 1.45073 0
M  V30 2894 C 256.417 -3.36034 2.6717 0
M  V30 2895 C 255.65 -4.65855 2.60413 0
M  V30 2896 O 255.873 -5.45805 1.65689 0
M  V30 2897 O 254.807 -4.88918 3.5106 0
M  V30 2898 H 258.633 -1.74494 2.48567 0
M  V30 2899 H 256.218 -0.80378 1.25935 0
M  V30 2900 H 258.1 -3.96179 1.43597 0
M  V30 2901 H 256.775 -3.19528 0.518037 0
M  V30 2902 H 255.682 -2.54472 2.74217 0
M  V30 2903 H 257.015 -3.36247 3.59442 0
M  V30 2904 N 258.668 -1.30515 -0.883378 0
M  V30 2905 C 259.914 -1.19607 -1.63774 0
M  V30 2906 C 260.247 0.248314 -1.92606 0
M  V30 2907 O 259.522 1.17742 -1.54813 0
M  V30 2908 C 259.805 -2.02669 -2.97653 0
M  V30 2909 C 259.658 -3.55335 -2.75784 0
M  V30 2910 C 260.977 -1.86573 -3.98596 0
M  V30 2911 H 258.096 -0.435856 -0.594305 0
M  V30 2912 H 260.738 -1.60165 -1.02212 0
M  V30 2913 H 258.888 -1.68208 -3.50197 0
M  V30 2914 H 260.56 -3.99863 -2.30016 0
M  V30 2915 H 258.803 -3.79438 -2.1026 0
M  V30 2916 H 259.474 -4.08745 -3.70988 0
M  V30 2917 H 261.95 -2.16703 -3.55217 0
M  V30 2918 H 260.826 -2.47014 -4.90179 0
M  V30 2919 H 261.087 -0.825321 -4.34328 0
M  V30 2920 N 260.146 1.09593 -1.13257 0
M  V30 2921 C 261.394 1.81375 -0.891492 0
M  V30 2922 C 261.715 1.86049 0.584009 0
M  V30 2923 O 260.985 1.34481 1.42449 0
M  V30 2924 H 259.565 0.671708 -0.326828 0
M  V30 2925 H 262.227 1.3256 -1.42877 0
M  V30 2926 H 261.323 2.84612 -1.28071 0
M  V30 2927 N 261.624 0.925811 1.2754 0
M  V30 2928 C 262.587 0.428129 2.25166 0
M  V30 2929 C 263.587 -0.452261 1.54309 0
M  V30 2930 O 264.777 -0.253608 1.72344 0
M  V30 2931 C 261.909 -0.384749 3.38722 0
M  V30 2932 H 263.102 1.29066 2.70706 0
M  V30 2933 H 260.655 0.706323 1.3943 0
M  V30 2934 H 261.39 -1.26618 2.98561 0
M  V30 2935 H 261.175 0.246454 3.91325 0
M  V30 2936 H 262.665 -0.723389 4.11287 0
M  V30 2937 N 263.102 -1.41638 0.69111 0
M  V30 2938 C 264.518 -1.55435 0.362224 0
M  V30 2939 C 264.718 -1.66754 -1.13117 0
M  V30 2940 O 263.774 -1.64348 -1.91692 0
M  V30 2941 C 265.087 -2.79588 1.10684 0
M  V30 2942 C 266.635 -2.9338 1.09075 0
M  V30 2943 C 267.11 -4.20414 1.81703 0
M  V30 2944 N 268.601 -4.27362 1.7865 0
M  V30 2945 C 269.336 -5.24507 2.31689 0
M  V30 2946 N 268.832 -6.27708 2.93179 0
M  V30 2947 N 270.625 -5.16416 2.2197 0
M  V30 2948 H 262.776 -1.32536 1.65976 0
M  V30 2949 H 265.039 -0.639115 0.700168 0
M  V30 2950 H 264.745 -2.77419 2.16175 0
M  V30 2951 H 264.619 -3.70973 0.682545 0
M  V30 2952 H 267.006 -2.95067 0.0441238 0
M  V30 2953 H 267.087 -2.0318 1.55407 0
M  V30 2954 H 266.731 -4.19488 2.86343 0
M  V30 2955 H 266.661 -5.09578 1.32808 0
M  V30 2956 H 269.152 -3.53415 1.33815 0
M  V30 2957 H 269.465 -6.98217 3.31229 0
M  V30 2958 H 267.81 -6.28223 2.97255 0
M  V30 2959 H 271.001 -4.34716 1.73607 0
M  V30 2960 H 271.174 -5.91958 2.63609 0
M  V30 2961 N 264.58 -0.43555 -1.51462 0
M  V30 2962 C 265.808 0.130242 -2.0649 0
M  V30 2963 C 266.223 1.36614 -1.30315 0
M  V30 2964 O 265.58 1.78869 -0.362223 0
M  V30 2965 C 265.631 0.454253 -3.58635 0
M  V30 2966 O 265.352 -0.73259 -4.31931 0
M  V30 2967 C 266.853 1.07091 -4.3017 0
M  V30 2968 H 264.073 0.00871669 -0.670943 0
M  V30 2969 H 266.617 -0.614117 -1.95061 0
M  V30 2970 H 264.772 1.14851 -3.69984 0
M  V30 2971 H 265.186 -0.455787 -5.22516 0
M  V30 2972 H 266.66 1.24764 -5.37716 0
M  V30 2973 H 267.137 2.05144 -3.88346 0
M  V30 2974 H 267.743 0.416089 -4.2326 0
M  V30 2975 N 266.058 1.56714 -0.166846 0
M  V30 2976 C 266.991 2.13577 0.80375 0
M  V30 2977 C 267.969 1.06464 1.22899 0
M  V30 2978 O 269.153 1.34413 1.32157 0
M  V30 2979 C 266.28 2.67168 2.0818 0
M  V30 2980 C 265.326 3.86612 1.80093 0
M  V30 2981 S 266.159 5.26565 0.97416 0
M  V30 2982 C 267.315 5.83558 2.26297 0
M  V30 2983 H 267.548 2.9557 0.320267 0
M  V30 2984 H 265.081 1.54326 0.0477555 0
M  V30 2985 H 267.039 2.98692 2.8159 0
M  V30 2986 H 265.7 1.85269 2.53642 0
M  V30 2987 H 264.893 4.22422 2.7491 0
M  V30 2988 H 264.495 3.55951 1.14781 0
M  V30 2989 H 266.787 5.962 3.21795 0
M  V30 2990 H 267.73 6.80731 1.94962 0
M  V30 2991 H 268.138 5.11944 2.37853 0
M  V30 2992 N 267.536 -0.106894 1.57237 0
M  V30 2993 C 268.483 -1.13049 2.01217 0
M  V30 2994 C 269.453 -1.40471 0.886403 0
M  V30 2995 O 270.638 -1.52133 1.15153 0
M  V30 2996 C 267.778 -2.4487 2.43172 0
M  V30 2997 C 266.891 -2.24281 3.69218 0
M  V30 2998 C 266.026 -3.49417 4.00101 0
M  V30 2999 C 265.065 -3.24038 5.19294 0
M  V30 3000 N 264.202 -4.41409 5.45988 0
M  V30 3001 H 269.042 -0.748456 2.88448 0
M  V30 3002 H 266.579 -0.358054 1.42676 0
M  V30 3003 H 268.537 -3.21786 2.65537 0
M  V30 3004 H 267.167 -2.80944 1.58967 0
M  V30 3005 H 266.219 -1.38224 3.54398 0
M  V30 3006 H 267.531 -2.01512 4.56283 0
M  V30 3007 H 266.685 -4.34746 4.2318 0
M  V30 3008 H 265.424 -3.75229 3.11535 0
M  V30 3009 H 264.429 -2.37102 4.96047 0
M  V30 3010 H 265.654 -2.99584 6.09447 0
M  V30 3011 H 263.6 -4.67319 4.60379 0
M  V30 3012 H 263.517 -4.21788 6.274 0
M  V30 3013 H 264.785 -5.27836 5.73593 0
M  V30 3014 N 269.014 -1.53014 -0.377408 0
M  V30 3015 C 270.43 -1.42523 -0.718281 0
M  V30 3016 C 270.63 -0.55487 -1.9371 0
M  V30 3017 O 269.686 -0.0327593 -2.52479 0
M  V30 3018 C 270.999 -2.85546 -0.942539 0
M  V30 3019 C 272.547 -2.95101 -1.04329 0
M  V30 3020 C 273.022 -4.3916 -1.3001 0
M  V30 3021 N 274.513 -4.42536 -1.36806 0
M  V30 3022 C 275.248 -5.51097 -1.58364 0
M  V30 3023 N 274.744 -6.69724 -1.77317 0
M  V30 3024 N 276.537 -5.38657 -1.60638 0
M  V30 3025 H 268.688 -2.08116 0.424426 0
M  V30 3026 H 270.951 -0.939352 0.127759 0
M  V30 3027 H 270.657 -3.51499 -0.118929 0
M  V30 3028 H 270.531 -3.28493 -1.85397 0
M  V30 3029 H 272.918 -2.29309 -1.85745 0
M  V30 3030 H 272.999 -2.55566 -0.109505 0
M  V30 3031 H 272.643 -5.05521 -0.490991 0
M  V30 3032 H 272.573 -4.76258 -2.24691 0
M  V30 3033 H 275.064 -3.57039 -1.23821 0
M  V30 3034 H 275.377 -7.48233 -1.93306 0
M  V30 3035 H 273.722 -6.72732 -1.74518 0
M  V30 3036 H 276.913 -4.44948 -1.45391 0
M  V30 3037 H 277.086 -6.2333 -1.77098 0
M  V30 3038 N 270.492 0.636531 -1.44174 0
M  V30 3039 C 271.738 1.39649 -1.47884 0
M  V30 3040 C 272.093 1.92098 -0.107747 0
M  V30 3041 O 271.386 1.70391 0.876208 0
M  V30 3042 C 271.58 2.58309 -2.47005 0
M  V30 3043 C 271.409 2.17476 -3.93617 0
M  V30 3044 C 270.179 2.0501 -4.61843 0
M  V30 3045 C 272.377 1.76722 -4.82984 0
M  V30 3046 N 270.359 1.57683 -5.93304 0
M  V30 3047 C 271.73 1.40601 -6.03847 0
M  V30 3048 C 273.785 1.64054 -4.70096 0
M  V30 3049 C 272.488 0.930787 -7.13252 0
M  V30 3050 C 274.514 1.17937 -5.79521 0
M  V30 3051 C 273.876 0.827625 -6.99521 0
M  V30 3052 H 269.975 0.506027 -0.596205 0
M  V30 3053 H 272.559 0.730791 -1.80465 0
M  V30 3054 H 270.73 3.22514 -2.16423 0
M  V30 3055 H 272.462 3.25083 -2.41045 0
M  V30 3056 H 269.217 2.25294 -4.16581 0
M  V30 3057 H 269.641 1.36334 -6.63131 0
M  V30 3058 H 274.283 1.89882 -3.77762 0
M  V30 3059 H 272.001 0.660012 -8.054 0
M  V30 3060 H 275.587 1.08601 -5.71574 0
M  V30 3061 H 274.467 0.476231 -7.82753 0
M  V30 3062 N 271.97 1.30982 0.876444 0
M  V30 3063 C 273.219 1.19658 1.62373 0
M  V30 3064 C 273.532 -0.245636 1.94052 0
M  V30 3065 O 274.738 -0.48049 2.67214 0
M  V30 3066 C 273.194 2.09433 2.92687 0
M  V30 3067 C 272.802 3.58613 2.68516 0
M  V30 3068 C 274.546 2.06893 3.70669 0
M  V30 3069 C 272.453 4.40416 3.94699 0
M  V30 3070 H 271.383 0.444268 0.609214 0
M  V30 3071 H 274.034 1.55791 0.969605 0
M  V30 3072 H 272.416 1.66191 3.59439 0
M  V30 3073 H 273.59 4.10058 2.10212 0
M  V30 3074 H 271.905 3.63063 2.03898 0
M  V30 3075 H 274.502 2.65258 4.64265 0
M  V30 3076 H 274.845 1.05448 4.02724 0
M  V30 3077 H 275.378 2.48301 3.10792 0
M  V30 3078 H 272.117 5.42591 3.67798 0
M  V30 3079 H 271.637 3.93731 4.52477 0
M  V30 3080 H 273.316 4.52294 4.62644 0
M  V30 3081 N 273.449 -1.08991 1.13837 0
M  V30 3082 C 274.359 -2.19301 0.833333 0
M  V30 3083 C 275.375 -1.73026 -0.183847 0
M  V30 3084 O 276.551 -2.01395 -0.0138092 0
M  V30 3085 C 273.616 -3.45323 0.308651 0
M  V30 3086 C 272.677 -4.06255 1.38764 0
M  V30 3087 C 271.91 -5.26262 0.887896 0
M  V30 3088 O 272.133 -5.69747 -0.27287 0
M  V30 3089 O 271.067 -5.78435 1.66421 0
M  V30 3090 H 274.893 -2.47854 1.75506 0
M  V30 3091 H 272.478 -1.18012 0.916166 0
M  V30 3092 H 274.36 -4.21394 0.0216739 0
M  V30 3093 H 273.035 -3.18362 -0.585431 0
M  V30 3094 H 271.942 -3.318 1.72799 0
M  V30 3095 H 273.275 -4.37452 2.25602 0
M  V30 3096 N 274.927 -0.932562 -1.27047 0
M  V30 3097 C 275.89 -0.440064 -2.24936 0
M  V30 3098 C 276.89 0.444071 -1.54547 0
M  V30 3099 O 278.08 0.244465 -1.72476 0
M  V30 3100 C 275.212 0.36678 -3.38921 0
M  V30 3101 H 276.405 -1.305 -2.70018 0
M  V30 3102 H 273.958 -0.713707 -1.39054 0
M  V30 3103 H 274.693 1.25033 -2.99228 0
M  V30 3104 H 274.478 -0.267204 -3.91188 0
M  V30 3105 H 275.968 0.701567 -4.11665 0
M  V30 3106 N 276.405 1.4127 -0.698611 0
M  V30 3107 C 277.635 2.05205 -0.239644 0
M  V30 3108 C 278.043 1.52684 1.11733 0
M  V30 3109 O 277.386 0.671222 1.70998 0
M  V30 3110 C 277.448 3.59289 -0.123126 0
M  V30 3111 C 277.112 4.34619 -1.41263 0
M  V30 3112 C 278.109 4.63701 -2.35111 0
M  V30 3113 C 275.794 4.73837 -1.66684 0
M  V30 3114 C 277.788 5.30966 -3.52639 0
M  V30 3115 C 275.475 5.40837 -2.84498 0
M  V30 3116 C 276.473 5.69329 -3.77298 0
M  V30 3117 O 276.161 6.34949 -4.93047 0
M  V30 3118 H 275.893 0.66723 -0.108537 0
M  V30 3119 H 278.447 1.81974 -0.952602 0
M  V30 3120 H 276.677 3.81272 0.645628 0
M  V30 3121 H 278.366 4.04797 0.299056 0
M  V30 3122 H 279.132 4.33882 -2.16729 0
M  V30 3123 H 275.011 4.51039 -0.953135 0
M  V30 3124 H 278.555 5.53121 -4.25091 0
M  V30 3125 H 274.452 5.70075 -3.02795 0
M  V30 3126 H 275.22 6.53445 -4.92902 0
M  V30 3127 N 277.883 0.443576 1.51229 0
M  V30 3128 C 278.83 -0.364716 2.279 0
M  V30 3129 C 279.8 -1.0114 1.31757 0
M  V30 3130 O 280.985 -1.02912 1.60667 0
M  V30 3131 C 278.125 -1.45644 3.12861 0
M  V30 3132 C 277.238 -0.827269 4.24005 0
M  V30 3133 C 276.373 -1.89456 4.96266 0
M  V30 3134 C 275.412 -1.24416 5.99322 0
M  V30 3135 N 274.549 -2.25309 6.64966 0
M  V30 3136 H 279.389 0.295464 2.96532 0
M  V30 3137 H 276.926 0.157554 1.46254 0
M  V30 3138 H 278.884 -2.10076 3.6045 0
M  V30 3139 H 277.514 -2.08616 2.46331 0
M  V30 3140 H 276.566 -0.0710839 3.80334 0
M  V30 3141 H 277.878 -0.312481 4.9782 0
M  V30 3142 H 277.032 -2.61535 5.47434 0
M  V30 3143 H 275.771 -2.4431 4.22095 0
M  V30 3144 H 274.776 -0.508868 5.4744 0
M  V30 3145 H 276.001 -0.702882 6.75453 0
M  V30 3146 H 273.947 -2.79231 5.93604 0
M  V30 3147 H 273.864 -1.78739 7.34567 0
M  V30 3148 H 275.132 -2.96853 7.20763 0
M  V30 3149 N 279.361 -1.56624 0.175154 0
M  V30 3150 C 280.638 -1.88688 -0.515373 0
M  V30 3151 C 281.018 -1.08564 -1.81044 0
M  V30 3152 O 280.366 -0.180703 -2.27784 0
M  V30 3153 C 280.576 -3.40768 -0.753552 0
M  V30 3154 C 281.924 -4.10587 -1.08184 0
M  V30 3155 O 282.948 -3.46106 -0.841961 0
M  V30 3156 O 281.807 -5.24512 -1.53459 0
M  V30 3157 H 278.901 -0.78301 -0.26613 0
M  V30 3158 H 281.447 -1.68347 0.213877 0
M  V30 3159 H 280.219 -3.90965 0.161829 0
M  V30 3160 H 279.842 -3.66733 -1.53598 0
M  V30 3161 N 280.839 0.0985539 -1.57292 0
M  V30 3162 C 281.749 1.13824 -2.05137 0
M  V30 3163 C 282.765 1.44076 -0.975604 0
M  V30 3164 O 283.941 1.54786 -1.28853 0
M  V30 3165 C 281.006 2.43969 -2.46333 0
M  V30 3166 C 280.067 2.2093 -3.68087 0
M  V30 3167 C 279.3 3.44869 -4.0731 0
M  V30 3168 O 279.523 4.52972 -3.46659 0
M  V30 3169 O 278.457 3.34661 -5.00285 0
M  V30 3170 H 282.283 0.761881 -2.93988 0
M  V30 3171 H 279.868 0.310818 -1.46131 0
M  V30 3172 H 281.75 3.20609 -2.73473 0
M  V30 3173 H 280.425 2.81038 -1.60621 0
M  V30 3174 H 279.332 1.42081 -3.46069 0
M  V30 3175 H 280.665 1.88755 -4.54568 0
M  V30 3176 N 282.317 1.53212 0.369288 0
M  V30 3177 C 283.247 1.82365 1.45826 0
M  V30 3178 C 284.228 0.676907 1.56051 0
M  V30 3179 O 285.413 0.926401 1.70679 0
M  V30 3180 C 282.543 2.01023 2.83208 0
M  V30 3181 C 281.497 3.1678 2.8781 0
M  V30 3182 C 280.823 3.20724 4.27832 0
M  V30 3183 C 282.123 4.55447 2.55667 0
M  V30 3184 H 283.817 2.73559 1.21678 0
M  V30 3185 H 281.363 1.3163 0.583911 0
M  V30 3186 H 283.316 2.20001 3.59413 0
M  V30 3187 H 282.04 1.06536 3.08736 0
M  V30 3188 H 280.699 2.97616 2.14056 0
M  V30 3189 H 280.347 2.23882 4.50429 0
M  V30 3190 H 280.047 3.98496 4.31827 0
M  V30 3191 H 281.571 3.41881 5.05915 0
M  V30 3192 H 282.985 4.74611 3.21586 0
M  V30 3193 H 281.382 5.35432 2.70984 0
M  V30 3194 H 282.452 4.60812 1.5093 0
M  V30 3195 N 283.795 -0.628877 1.44509 0
M  V30 3196 C 284.705 -1.7694 1.54044 0
M  V30 3197 C 285.721 -1.68705 0.425987 0
M  V30 3198 O 286.897 -1.89442 0.683656 0
M  V30 3199 C 283.962 -3.13332 1.48405 0
M  V30 3200 C 283.023 -3.33181 2.70719 0
M  V30 3201 C 282.256 -4.63067 2.6534 0
M  V30 3202 O 282.479 -5.44017 1.71469 0
M  V30 3203 O 281.413 -4.85167 3.56226 0
M  V30 3204 H 285.239 -1.71848 2.50403 0
M  V30 3205 H 282.824 -0.790378 1.26781 0
M  V30 3206 H 284.706 -3.94634 1.47791 0
M  V30 3207 H 283.381 -3.1896 0.551898 0
M  V30 3208 H 282.288 -2.51549 2.769 0
M  V30 3209 H 283.621 -3.32416 3.62988 0
M  V30 3210 N 285.273 -1.31445 -0.869486 0
M  V30 3211 C 286.22 -1.19135 -1.97675 0
M  V30 3212 C 287.19 -0.0770266 -1.65921 0
M  V30 3213 O 288.375 -0.249972 -1.89155 0
M  V30 3214 C 285.515 -0.905149 -3.33018 0
M  V30 3215 C 284.628 -2.10285 -3.77365 0
M  V30 3216 C 283.763 -1.75339 -5.01427 0
M  V30 3217 C 282.802 -2.91515 -5.38224 0
M  V30 3218 N 281.939 -2.56762 -6.53466 0
M  V30 3219 H 286.779 -2.13853 -2.07535 0
M  V30 3220 H 284.316 -1.06379 -1.01597 0
M  V30 3221 H 286.274 -0.719765 -4.10944 0
M  V30 3222 H 284.904 0.00519624 -3.228 0
M  V30 3223 H 283.956 -2.39899 -2.95216 0
M  V30 3224 H 285.268 -2.97237 -4.00564 0
M  V30 3225 H 284.422 -1.53266 -5.87022 0
M  V30 3226 H 283.161 -0.855801 -4.80133 0
M  V30 3227 H 282.166 -3.14237 -4.51149 0
M  V30 3228 H 283.391 -3.81985 -5.61484 0
M  V30 3229 H 281.337 -1.69526 -6.33717 0
M  V30 3230 H 281.254 -3.37243 -6.76612 0
M  V30 3231 H 282.522 -2.38083 -7.42251 0
M  V30 3232 N 286.751 1.08385 -1.14413 0
M  V30 3233 C 287.698 2.15311 -0.831265 0
M  V30 3234 C 288.668 1.64751 0.211292 0
M  V30 3235 O 289.853 1.90627 0.0811674 0
M  V30 3236 C 286.993 3.43658 -0.315143 0
M  V30 3237 C 286.106 4.08064 -1.41802 0
M  V30 3238 C 285.241 5.24207 -0.859126 0
M  V30 3239 C 284.28 5.80554 -1.93967 0
M  V30 3240 N 283.417 6.88042 -1.39793 0
M  V30 3241 H 288.257 2.41415 -1.74708 0
M  V30 3242 H 285.794 1.18474 -0.871909 0
M  V30 3243 H 287.752 4.172 0.00230884 0
M  V30 3244 H 286.382 3.17839 0.56378 0
M  V30 3245 H 285.434 3.3228 -1.85187 0
M  V30 3246 H 286.746 4.45962 -2.23427 0
M  V30 3247 H 285.9 6.04689 -0.49359 0
M  V30 3248 H 284.639 4.87699 -0.011932 0
M  V30 3249 H 283.644 4.98725 -2.31415 0
M  V30 3250 H 284.869 6.19121 -2.79046 0
M  V30 3251 H 282.815 6.53493 -0.572919 0
M  V30 3252 H 282.732 7.24767 -2.15054 0
M  V30 3253 H 284 7.72255 -1.0603 0
M  V30 3254 N 288.23 0.939286 1.26551 0
M  V30 3255 C 289.177 0.446088 2.26448 0
M  V30 3256 C 290.147 -0.493234 1.58608 0
M  V30 3257 O 291.332 -0.409857 1.86346 0
M  V30 3258 C 288.472 -0.284375 3.43926 0
M  V30 3259 C 287.585 0.690399 4.26448 0
M  V30 3260 C 286.72 -0.0610712 5.31165 0
M  V30 3261 C 285.759 0.905649 6.05363 0
M  V30 3262 N 284.896 0.186055 7.01853 0
M  V30 3263 H 289.736 1.30291 2.68008 0
M  V30 3264 H 287.273 0.65371 1.31776 0
M  V30 3265 H 289.231 -0.724313 4.10864 0
M  V30 3266 H 287.861 -1.10535 3.03285 0
M  V30 3267 H 286.913 1.24885 3.59316 0
M  V30 3268 H 288.225 1.42873 4.779 0
M  V30 3269 H 287.379 -0.56038 6.04106 0
M  V30 3270 H 286.118 -0.832297 4.80546 0
M  V30 3271 H 285.123 1.4161 5.3125 0
M  V30 3272 H 286.348 1.67685 6.58072 0
M  V30 3273 H 284.294 -0.566714 6.53548 0
M  V30 3274 H 284.211 0.863752 7.51049 0
M  V30 3275 H 285.479 -0.292221 7.78952 0
M  V30 3276 N 289.708 -1.40897 0.706093 0
M  V30 3277 C 290.957 -2.00284 0.238574 0
M  V30 3278 C 291.27 -1.56604 -1.17194 0
M  V30 3279 O 292.476 -2.08624 -1.73748 0
M  V30 3280 C 290.932 -3.57934 0.375623 0
M  V30 3281 C 290.54 -4.10591 1.79217 0
M  V30 3282 C 292.284 -4.24488 -0.0315857 0
M  V30 3283 C 290.191 -5.60712 1.88032 0
M  V30 3284 H 289.121 -0.749144 0.0854398 0
M  V30 3285 H 291.772 -1.61251 0.875813 0
M  V30 3286 H 290.154 -3.94622 -0.330042 0
M  V30 3287 H 291.328 -3.85301 2.52745 0
M  V30 3288 H 289.643 -3.56601 2.15 0
M  V30 3289 H 292.24 -5.34698 0.0136842 0
M  V30 3290 H 292.583 -4.02261 -1.072 0
M  V30 3291 H 293.116 -3.92873 0.624181 0
M  V30 3292 H 289.855 -5.87781 2.90161 0
M  V30 3293 H 289.375 -5.87896 1.18903 0
M  V30 3294 H 291.054 -6.25658 1.64805 0
M  V30 3295 N 291.186 -0.45159 -1.50991 0
M  V30 3296 C 292.463 0.170707 -1.94854 0
M  V30 3297 C 292.843 1.58788 -1.39103 0
M  V30 3298 O 292.191 2.20913 -0.583921 0
M  V30 3299 C 292.401 0.133929 -3.48743 0
M  V30 3300 C 293.749 0.33248 -4.23296 0
M  V30 3301 O 294.773 0.211403 -3.55572 0
M  V30 3302 O 293.632 0.57486 -5.43468 0
M  V30 3303 H 290.726 0.122264 -0.817912 0
M  V30 3304 H 293.272 -0.510594 -1.61836 0
M  V30 3305 H 292.044 -0.856283 -3.81816 0
M  V30 3306 H 291.667 0.857529 -3.88242 0
M  V30 3307 N 292.664 1.56529 -0.183458 0
M  V30 3308 C 294.075 1.83739 0.331177 0
M  V30 3309 C 294.426 1.10373 1.62211 0
M  V30 3310 O 293.551 0.36071 2.13373 0
M  V30 3311 C 294.146 3.33306 0.607646 0
M  V30 3312 C 292.705 3.60969 1.06668 0
M  V30 3313 C 291.852 2.77086 0.109029 0
M  V30 3314 H 294.803 1.53379 -0.407484 0
M  V30 3315 H 294.824 3.51444 1.45832 0
M  V30 3316 H 294.336 3.86677 -0.332086 0
M  V30 3317 H 292.437 3.13021 2.0211 0
M  V30 3318 H 292.55 4.69231 0.967447 0
M  V30 3319 H 290.914 2.47319 0.608714 0
M  V30 3320 H 291.697 3.33241 -0.82494 0
M  V30 3321 N 294.142 -0.090211 1.57342 0
M  V30 3322 C 295.558 -0.444547 1.53284 0
M  V30 3323 C 295.758 -1.80238 0.900914 0
M  V30 3324 O 294.814 -2.4759 0.495513 0
M  V30 3325 C 296.127 -0.402543 2.97993 0
M  V30 3326 C 297.675 -0.48405 3.09234 0
M  V30 3327 C 298.15 -0.472144 4.5556 0
M  V30 3328 N 299.641 -0.532757 4.60126 0
M  V30 3329 C 300.376 -0.545462 5.708 0
M  V30 3330 N 299.872 -0.514082 6.9089 0
M  V30 3331 N 301.665 -0.59064 5.58988 0
M  V30 3332 H 293.816 0.799121 1.96794 0
M  V30 3333 H 296.079 0.297965 0.899956 0
M  V30 3334 H 295.785 0.528106 3.47712 0
M  V30 3335 H 295.659 -1.21969 3.56936 0
M  V30 3336 H 298.046 -1.40512 2.595 0
M  V30 3337 H 298.127 0.361328 2.53235 0
M  V30 3338 H 297.771 0.445 5.05947 0
M  V30 3339 H 297.701 -1.3348 5.09402 0
M  V30 3340 H 300.192 -0.562006 3.73698 0
M  V30 3341 H 300.505 -0.527195 7.71 0
M  V30 3342 H 298.85 -0.481054 6.93333 0
M  V30 3343 H 302.041 -0.61272 4.64073 0
M  V30 3344 H 302.214 -0.597073 6.45243 0
M  V30 3345 N 295.62 -1.53406 -0.361157 0
M  V30 3346 C 296.55 -1.83136 -1.44857 0
M  V30 3347 C 297.531 -0.685174 -1.5569 0
M  V30 3348 O 298.716 -0.93544 -1.70186 0
M  V30 3349 C 295.846 -2.02522 -2.82138 0
M  V30 3350 C 294.8 -3.18302 -2.86126 0
M  V30 3351 C 294.126 -3.22989 -4.26125 0
M  V30 3352 C 295.426 -4.56796 -2.53248 0
M  V30 3353 H 297.12 -2.74201 -1.20226 0
M  V30 3354 H 294.666 -1.31938 -0.576922 0
M  V30 3355 H 296.619 -2.21904 -3.58241 0
M  V30 3356 H 295.343 -1.08172 -3.08166 0
M  V30 3357 H 294.002 -2.98747 -2.12475 0
M  V30 3358 H 293.65 -2.26267 -4.49235 0
M  V30 3359 H 293.35 -4.00781 -4.29708 0
M  V30 3360 H 294.874 -3.44559 -5.04094 0
M  V30 3361 H 296.288 -4.7631 -3.19064 0
M  V30 3362 H 294.685 -5.36862 -2.68141 0
M  V30 3363 H 295.755 -4.61606 -1.48484 0
M  V30 3364 N 297.098 0.621204 -1.44841 0
M  V30 3365 C 298.028 1.74366 -1.55303 0
M  V30 3366 C 299.009 1.65199 -0.405385 0
M  V30 3367 O 300.194 1.83807 -0.626787 0
M  V30 3368 C 297.324 3.12931 -1.50637 0
M  V30 3369 C 296.278 3.36896 -2.63979 0
M  V30 3370 C 295.604 4.75594 -2.44366 0
M  V30 3371 C 296.904 3.28483 -4.06074 0
M  V30 3372 H 298.598 1.65867 -2.49256 0
M  V30 3373 H 296.144 0.796558 -1.19962 0
M  V30 3374 H 298.097 3.9124 -1.56555 0
M  V30 3375 H 296.821 3.22237 -0.532057 0
M  V30 3376 H 295.48 2.60972 -2.57467 0
M  V30 3377 H 295.128 4.81616 -1.45105 0
M  V30 3378 H 294.828 4.92586 -3.20364 0
M  V30 3379 H 296.352 5.5612 -2.52117 0
M  V30 3380 H 297.766 3.96684 -4.13902 0
M  V30 3381 H 296.163 3.57008 -4.82354 0
M  V30 3382 H 297.233 2.26133 -4.28943 0
M  V30 3383 N 298.576 1.31904 0.862503 0
M  V30 3384 C 299.506 1.22782 1.98612 0
M  V30 3385 C 300.487 0.113362 1.69722 0
M  V30 3386 O 301.672 0.299218 1.91881 0
M  V30 3387 C 298.802 0.942058 3.34279 0
M  V30 3388 C 297.756 2.0169 3.77499 0
M  V30 3389 C 297.082 1.58369 5.10709 0
M  V30 3390 C 298.382 3.43096 3.93805 0
M  V30 3391 H 300.076 2.16788 2.06502 0
M  V30 3392 H 297.622 1.04366 0.992154 0
M  V30 3393 H 299.575 0.864818 4.1243 0
M  V30 3394 H 298.299 -0.0336603 3.26583 0
M  V30 3395 H 296.958 2.08416 3.01593 0
M  V30 3396 H 296.606 0.595628 4.99461 0
M  V30 3397 H 296.306 2.30279 5.40597 0
M  V30 3398 H 297.83 1.52067 5.91361 0
M  V30 3399 H 299.244 3.39003 4.62331 0
M  V30 3400 H 297.641 4.13288 4.35101 0
M  V30 3401 H 298.711 3.83334 2.96957 0
M  V30 3402 N 300.054 -1.07777 1.14986 0
M  V30 3403 C 300.964 -2.18404 0.856546 0
M  V30 3404 C 301.98 -1.73211 -0.165485 0
M  V30 3405 O 303.156 -2.01399 0.00755219 0
M  V30 3406 C 300.221 -3.44977 0.34526 0
M  V30 3407 C 299.282 -4.0476 1.43065 0
M  V30 3408 C 298.515 -5.25291 0.943663 0
M  V30 3409 O 298.738 -5.70004 -0.212426 0
M  V30 3410 O 297.672 -5.76638 1.72547 0
M  V30 3411 H 301.498 -2.45978 1.78125 0
M  V30 3412 H 299.083 -1.17033 0.928631 0
M  V30 3413 H 300.965 -4.21348 0.0663671 0
M  V30 3414 H 299.64 -3.18965 -0.551631 0
M  V30 3415 H 298.547 -3.29949 1.76309 0
M  V30 3416 H 299.88 -4.35035 2.30229 0
M  V30 3417 N 301.532 -0.945985 -1.26051 0
M  V30 3418 C 302.76 -0.613025 -1.9761 0
M  V30 3419 C 303.175 0.813035 -1.70397 0
M  V30 3420 O 302.532 1.54274 -0.974979 0
M  V30 3421 C 302.583 -0.85159 -3.51326 0
M  V30 3422 O 302.304 -2.22157 -3.77595 0
M  V30 3423 C 303.805 -0.529831 -4.40122 0
M  V30 3424 H 301.025 -0.230593 -0.630133 0
M  V30 3425 H 303.569 -1.268 -1.60443 0
M  V30 3426 H 301.724 -0.243151 -3.86636 0
M  V30 3427 H 302.138 -2.2852 -4.721 0
M  V30 3428 H 303.612 -0.747348 -5.46917 0
M  V30 3429 H 304.089 0.535341 -4.35925 0
M  V30 3430 H 304.695 -1.11721 -4.10364 0
M  V30 3431 N 303.011 1.40521 -0.713556 0
M  V30 3432 C 303.974 2.29098 -0.0684347 0
M  V30 3433 C 304.974 1.45268 0.689472 0
M  V30 3434 O 306.164 1.66205 0.521677 0
M  V30 3435 C 303.296 3.28446 0.913024 0
M  V30 3436 H 304.489 2.87645 -0.84855 0
M  V30 3437 H 302.042 1.48809 -0.47809 0
M  V30 3438 H 302.777 2.74913 1.72027 0
M  V30 3439 H 302.562 3.90327 0.372472 0
M  V30 3440 H 304.052 3.94777 1.36165 0
M  V30 3441 N 304.489 0.459591 1.5075 0
M  V30 3442 C 305.399 -0.34613 2.32033 0
M  V30 3443 C 306.415 -1.00686 1.41909 0
M  V30 3444 O 307.591 -0.997361 1.7497 0
M  V30 3445 C 304.656 -1.42029 3.16273 0
M  V30 3446 C 303.717 -0.777362 4.22203 0
M  V30 3447 C 302.95 -1.80034 5.02418 0
M  V30 3448 O 303.173 -3.02544 4.83553 0
M  V30 3449 O 302.107 -1.37853 5.85901 0
M  V30 3450 H 305.933 0.318054 3.0203 0
M  V30 3451 H 303.518 0.221663 1.47746 0
M  V30 3452 H 305.4 -2.04275 3.68578 0
M  V30 3453 H 304.075 -2.06815 2.49016 0
M  V30 3454 H 302.982 -0.116256 3.73919 0
M  V30 3455 H 304.315 -0.172634 4.91897 0
M  V30 3456 N 305.967 -1.56429 0.191757 0
M  V30 3457 C 307.383 -1.58754 -0.164137 0
M  V30 3458 C 307.583 -1.20782 -1.61288 0
M  V30 3459 O 306.639 -0.928999 -2.34789 0
M  V30 3460 C 307.952 -3.00396 0.135195 0
M  V30 3461 C 309.5 -3.1291 0.0750351 0
M  V30 3462 C 309.975 -4.56679 0.347632 0
M  V30 3463 N 311.466 -4.62252 0.296131 0
M  V30 3464 C 312.201 -5.71379 0.480948 0
M  V30 3465 N 311.697 -6.88986 0.725933 0
M  V30 3466 N 313.49 -5.60563 0.415435 0
M  V30 3467 H 305.641 -1.79393 1.13718 0
M  V30 3468 H 307.904 -0.832414 0.453643 0
M  V30 3469 H 307.61 -3.32726 1.13958 0
M  V30 3470 H 307.484 -3.72963 -0.563773 0
M  V30 3471 H 309.871 -2.80394 -0.919948 0
M  V30 3472 H 309.952 -2.42736 0.807029 0
M  V30 3473 H 309.596 -4.89907 1.33992 0
M  V30 3474 H 309.526 -5.25039 -0.405212 0
M  V30 3475 H 312.017 -3.7773 0.113259 0
M  V30 3476 H 312.33 -7.68046 0.855857 0
M  V30 3477 H 310.675 -6.90801 0.762788 0
M  V30 3478 H 313.866 -4.67561 0.224486 0
M  V30 3479 H 314.039 -6.45551 0.562889 0
M  V30 3480 N 307.445 0.0818655 -1.57387 0
M  V30 3481 C 308.355 1.11642 -2.06333 0
M  V30 3482 C 309.371 1.43033 -0.99083 0
M  V30 3483 O 310.547 1.53411 -1.30488 0
M  V30 3484 C 307.612 2.41342 -2.48907 0
M  V30 3485 C 306.673 2.17014 -3.7041 0
M  V30 3486 C 305.906 3.4053 -4.10944 0
M  V30 3487 O 306.129 4.4927 -3.51444 0
M  V30 3488 O 305.063 3.29336 -5.03807 0
M  V30 3489 H 308.889 0.730657 -2.9478 0
M  V30 3490 H 306.474 0.295301 -1.46452 0
M  V30 3491 H 308.356 3.17691 -2.76858 0
M  V30 3492 H 307.031 2.79319 -1.63593 0
M  V30 3493 H 305.938 1.38403 -3.47556 0
M  V30 3494 H 307.271 1.83923 -4.56545 0
M  V30 3495 N 308.923 1.53595 0.353017 0
M  V30 3496 C 309.833 1.83897 1.45667 0
M  V30 3497 C 310.849 0.728334 1.58023 0
M  V30 3498 O 312.025 1.01968 1.73679 0
M  V30 3499 C 309.09 2.03383 2.80778 0
M  V30 3500 C 308.151 3.27262 2.77845 0
M  V30 3501 C 307.384 3.45809 4.06512 0
M  V30 3502 O 307.607 2.68387 5.03314 0
M  V30 3503 O 306.541 4.39207 4.11559 0
M  V30 3504 H 310.367 2.77686 1.2298 0
M  V30 3505 H 307.952 1.39132 0.544308 0
M  V30 3506 H 309.834 2.17698 3.60812 0
M  V30 3507 H 308.509 1.12783 3.03417 0
M  V30 3508 H 307.416 3.18359 1.96465 0
M  V30 3509 H 308.749 4.17824 2.60161 0
M  V30 3510 N 310.401 -0.613514 1.45168 0
M  V30 3511 C 311.348 -1.72456 1.53387 0
M  V30 3512 C 312.318 -1.6169 0.380191 0
M  V30 3513 O 313.503 -1.81356 0.592836 0
M  V30 3514 C 310.643 -3.10753 1.50088 0
M  V30 3515 C 309.756 -3.32368 2.75963 0
M  V30 3516 C 308.891 -4.60737 2.64376 0
M  V30 3517 C 307.93 -4.7559 3.85332 0
M  V30 3518 N 307.067 -5.95253 3.72315 0
M  V30 3519 H 311.907 -1.64768 2.48305 0
M  V30 3520 H 309.444 -0.803503 1.23216 0
M  V30 3521 H 311.402 -3.90758 1.46164 0
M  V30 3522 H 310.032 -3.17413 0.587243 0
M  V30 3523 H 309.084 -2.4618 2.89999 0
M  V30 3524 H 310.396 -3.39218 3.65695 0
M  V30 3525 H 309.55 -5.48928 2.58385 0
M  V30 3526 H 308.289 -4.56275 1.72233 0
M  V30 3527 H 307.294 -3.85824 3.91688 0
M  V30 3528 H 308.519 -4.81854 4.78533 0
M  V30 3529 H 306.465 -5.91847 2.82937 0
M  V30 3530 H 306.382 -6.03236 4.55677 0
M  V30 3531 H 307.65 -6.85958 3.70246 0
M  V30 3532 N 311.879 -1.3236 -0.855495 0
M  V30 3533 C 313.125 -1.23054 -1.612 0
M  V30 3534 C 313.458 0.207404 -1.93089 0
M  V30 3535 O 312.733 1.14432 -1.57275 0
M  V30 3536 C 313.016 -2.08937 -2.93287 0
M  V30 3537 C 312.869 -3.61105 -2.68185 0
M  V30 3538 C 314.188 -1.94986 -3.94549 0
M  V30 3539 H 311.307 -0.448364 -0.584926 0
M  V30 3540 H 313.949 -1.62297 -0.987917 0
M  V30 3541 H 312.099 -1.75599 -3.46551 0
M  V30 3542 H 313.771 -4.04652 -2.21483 0
M  V30 3543 H 312.014 -3.83813 -2.02164 0
M  V30 3544 H 312.685 -4.16522 -3.62234 0
M  V30 3545 H 315.161 -2.24189 -3.5054 0
M  V30 3546 H 314.037 -2.57356 -4.84829 0
M  V30 3547 H 314.298 -0.917263 -4.3248 0
M  V30 3548 N 313.357 1.07166 -1.15556 0
M  V30 3549 C 314.287 2.16403 -0.877046 0
M  V30 3550 C 315.268 1.69217 0.173111 0
M  V30 3551 O 316.453 1.94181 0.027084 0
M  V30 3552 C 313.583 3.45349 -0.367632 0
M  V30 3553 C 312.537 4.05995 -1.35468 0
M  V30 3554 C 311.863 5.30045 -0.704038 0
M  V30 3555 C 313.163 4.45804 -2.72132 0
M  V30 3556 H 314.857 2.39959 -1.79053 0
M  V30 3557 H 312.403 1.15325 -0.862331 0
M  V30 3558 H 314.356 4.21095 -0.160317 0
M  V30 3559 H 313.08 3.21385 0.581326 0
M  V30 3560 H 311.739 3.32296 -1.54839 0
M  V30 3561 H 311.387 5.02373 0.251128 0
M  V30 3562 H 311.087 5.71579 -1.36277 0
M  V30 3563 H 312.611 6.08495 -0.50654 0
M  V30 3564 H 314.025 5.12671 -2.56595 0
M  V30 3565 H 312.422 4.98296 -3.34397 0
M  V30 3566 H 313.492 3.57083 -3.28054 0
M  V30 3567 N 314.835 0.952656 1.25548 0
M  V30 3568 C 315.782 0.47008 2.25962 0
M  V30 3569 C 316.752 -0.476384 1.59122 0
M  V30 3570 O 317.937 -0.39007 1.8677 0
M  V30 3571 C 315.077 -0.247881 3.44209 0
M  V30 3572 C 314.19 0.735591 4.25691 0
M  V30 3573 C 313.325 -0.0047306 5.312 0
M  V30 3574 C 312.364 0.969805 6.04368 0
M  V30 3575 N 311.501 0.260486 7.01617 0
M  V30 3576 H 316.341 1.33126 2.66611 0
M  V30 3577 H 313.878 0.66765 1.31076 0
M  V30 3578 H 315.836 -0.680695 4.1161 0
M  V30 3579 H 314.466 -1.07312 3.0444 0
M  V30 3580 H 313.518 1.28689 3.57971 0
M  V30 3581 H 314.83 1.47934 4.76358 0
M  V30 3582 H 313.984 -0.496275 6.04667 0
M  V30 3583 H 312.723 -0.781282 4.81401 0
M  V30 3584 H 311.728 1.47237 5.29718 0
M  V30 3585 H 312.953 1.74655 6.56256 0
M  V30 3586 H 310.899 -0.497364 6.54112 0
M  V30 3587 H 310.816 0.943362 7.50091 0
M  V30 3588 H 312.084 -0.209587 7.79218 0
M  V30 3589 N 316.313 -1.40141 0.720998 0
M  V30 3590 C 317.561 -2.0039 0.262323 0
M  V30 3591 C 317.882 -1.57469 -1.15015 0
M  V30 3592 O 317.152 -0.816582 -1.78069 0
M  V30 3593 H 315.732 -0.741063 0.093996 0
M  V30 3594 H 318.394 -1.71398 0.927835 0
M  V30 3595 H 317.49 -3.10658 0.299671 0
M  V30 3596 N 317.792 -0.46758 -1.50504 0
M  V30 3597 C 318.722 0.318381 -2.31319 0
M  V30 3598 C 319.703 0.993564 -1.38066 0
M  V30 3599 O 320.888 0.991411 -1.66987 0
M  V30 3600 C 318.018 1.40275 -3.17711 0
M  V30 3601 C 316.972 0.849373 -4.19487 0
M  V30 3602 C 316.298 2.03177 -4.94594 0
M  V30 3603 C 317.598 -0.136942 -5.2212 0
M  V30 3604 H 319.292 -0.356106 -2.97275 0
M  V30 3605 H 316.838 -0.172703 -1.42961 0
M  V30 3606 H 318.791 1.96004 -3.73042 0
M  V30 3607 H 317.515 2.10596 -2.49634 0
M  V30 3608 H 316.174 0.314076 -3.65252 0
M  V30 3609 H 315.822 2.72187 -4.22993 0
M  V30 3610 H 315.522 1.66774 -5.63436 0
M  V30 3611 H 317.046 2.59403 -5.52759 0
M  V30 3612 H 318.46 0.331056 -5.72343 0
M  V30 3613 H 316.857 -0.41507 -5.98663 0
M  V30 3614 H 317.927 -1.06398 -4.73083 0
M  V30 3615 N 319.27 1.56325 -0.20005 0
M  V30 3616 C 320.2 2.22318 0.713916 0
M  V30 3617 C 321.181 1.18788 1.21752 0
M  V30 3618 O 322.366 1.47309 1.26545 0
M  V30 3619 C 319.496 2.88639 1.93144 0
M  V30 3620 C 318.45 3.98457 1.56255 0
M  V30 3621 C 317.776 4.51967 2.85709 0
M  V30 3622 C 319.076 5.16612 0.768747 0
M  V30 3623 H 320.77 2.98952 0.163755 0
M  V30 3624 H 318.316 1.43792 0.0773219 0
M  V30 3625 H 320.269 3.33491 2.57608 0
M  V30 3626 H 318.993 2.09419 2.50621 0
M  V30 3627 H 317.652 3.54305 0.941471 0
M  V30 3628 H 317.3 3.69503 3.41287 0
M  V30 3629 H 317 5.26071 2.6177 0
M  V30 3630 H 318.524 4.99523 3.51154 0
M  V30 3631 H 319.938 5.57977 1.3166 0
M  V30 3632 H 318.335 5.96812 0.627286 0
M  V30 3633 H 319.405 4.84358 -0.229168 0
M  V30 3634 N 320.748 -0.0735177 1.57428 0
M  V30 3635 C 322.164 -0.428264 1.53747 0
M  V30 3636 C 322.364 -1.79272 0.91998 0
M  V30 3637 O 321.42 -2.47051 0.521745 0
M  V30 3638 C 322.733 -0.370914 2.98404 0
M  V30 3639 C 324.281 -0.451224 3.0973 0
M  V30 3640 C 324.756 -0.4238 4.56035 0
M  V30 3641 N 326.247 -0.483925 4.60665 0
M  V30 3642 C 326.982 -0.484891 5.71346 0
M  V30 3643 N 326.478 -0.440775 6.91396 0
M  V30 3644 N 328.271 -0.531319 5.59583 0
M  V30 3645 H 320.422 0.819949 1.95935 0
M  V30 3646 H 322.685 0.307493 0.896745 0
M  V30 3647 H 322.391 0.564956 3.47133 0
M  V30 3648 H 322.265 -1.18176 3.5821 0
M  V30 3649 H 324.652 -1.37752 2.60976 0
M  V30 3650 H 324.733 0.388167 2.52838 0
M  V30 3651 H 324.377 0.498638 5.05446 0
M  V30 3652 H 324.307 -1.2807 5.10789 0
M  V30 3653 H 326.798 -0.522338 3.74273 0
M  V30 3654 H 327.111 -0.44539 7.71515 0
M  V30 3655 H 325.456 -0.40749 6.93804 0
M  V30 3656 H 328.647 -0.563464 4.64696 0
M  V30 3657 H 328.82 -0.528603 6.4584 0
M  V30 3658 N 322.226 -1.5378 -0.344866 0
M  V30 3659 C 323.451 -1.75211 -1.10977 0
M  V30 3660 C 323.876 -0.48936 -1.81623 0
M  V30 3661 O 323.234 0.557925 -1.72502 0
M  V30 3662 C 323.282 -2.93147 -2.09993 0
M  V30 3663 O 322.386 -2.63203 -3.17487 0
M  V30 3664 H 321.727 -0.581241 -0.321021 0
M  V30 3665 H 324.257 -2.00738 -0.395661 0
M  V30 3666 H 324.267 -3.19898 -2.53237 0
M  V30 3667 H 322.942 -3.84731 -1.5797 0
M  V30 3668 H 321.519 -2.47336 -2.79069 0
M  V30 3669 N 323.704 0.605807 -1.45491 0
M  V30 3670 C 324.634 1.72709 -1.57143 0
M  V30 3671 C 325.615 1.6476 -0.422884 0
M  V30 3672 O 326.8 1.83132 -0.646247 0
M  V30 3673 C 323.93 3.11316 -1.53948 0
M  V30 3674 C 322.884 3.34077 -2.67537 0
M  V30 3675 C 322.21 4.72975 -2.49397 0
M  V30 3676 C 323.51 3.24158 -4.09535 0
M  V30 3677 H 325.204 1.63214 -2.51001 0
M  V30 3678 H 322.75 0.78379 -1.208 0
M  V30 3679 H 324.703 3.89557 -1.60696 0
M  V30 3680 H 323.427 3.21655 -0.566205 0
M  V30 3681 H 322.086 2.58227 -2.6022 0
M  V30 3682 H 321.734 4.8005 -1.50205 0
M  V30 3683 H 321.434 4.8916 -3.25571 0
M  V30 3684 H 322.958 5.53414 -2.58002 0
M  V30 3685 H 324.372 3.92271 -4.18086 0
M  V30 3686 H 322.769 3.51872 -4.86113 0
M  V30 3687 H 323.839 2.2157 -4.31317 0
M  V30 3688 N 325.182 1.32811 0.848464 0
M  V30 3689 C 326.112 1.24882 1.97299 0
M  V30 3690 C 327.093 0.131357 1.69592 0
M  V30 3691 O 328.278 0.319553 1.91553 0
M  V30 3692 C 325.408 0.97746 3.33261 0
M  V30 3693 C 324.362 2.05682 3.75338 0
M  V30 3694 C 323.688 1.63777 5.09 0
M  V30 3695 C 324.988 3.47254 3.90144 0
M  V30 3696 H 326.682 2.18966 2.04191 0
M  V30 3697 H 324.228 1.05413 0.981029 0
M  V30 3698 H 326.181 0.908513 4.1149 0
M  V30 3699 H 324.905 0.000980011 3.266 0
M  V30 3700 H 323.564 2.11603 2.99366 0
M  V30 3701 H 323.212 0.648569 4.98801 0
M  V30 3702 H 322.912 2.36 5.38124 0
M  V30 3703 H 324.436 1.5833 5.89715 0
M  V30 3704 H 325.85 3.43888 4.58709 0
M  V30 3705 H 324.247 4.1788 4.30693 0
M  V30 3706 H 325.317 3.86462 2.92874 0
M  V30 3707 N 326.66 -1.06551 1.16123 0
M  V30 3708 C 327.57 -2.17484 0.879662 0
M  V30 3709 C 328.586 -1.73377 -0.147104 0
M  V30 3710 O 329.762 -2.01379 0.0289128 0
M  V30 3711 C 326.827 -3.44591 0.381829 0
M  V30 3712 C 325.888 -4.0322 1.4735 0
M  V30 3713 C 325.121 -5.24261 0.999324 0
M  V30 3714 O 325.344 -5.70198 -0.151957 0
M  V30 3715 O 324.278 -5.74775 1.78653 0
M  V30 3716 H 328.104 -2.44075 1.80724 0
M  V30 3717 H 325.689 -1.16042 0.940992 0
M  V30 3718 H 327.571 -4.21254 0.111053 0
M  V30 3719 H 326.246 -3.19532 -0.51777 0
M  V30 3720 H 325.153 -3.2806 1.79798 0
M  V30 3721 H 326.486 -4.32568 2.34831 0
M  V30 3722 N 328.138 -0.959301 -1.25041 0
M  V30 3723 C 329.554 -0.664474 -1.4511 0
M  V30 3724 C 329.754 0.776481 -1.85938 0
M  V30 3725 O 328.81 1.55128 -1.99227 0
M  V30 3726 C 330.123 -1.64139 -2.5195 0
M  V30 3727 C 331.671 -1.65309 -2.65786 0
M  V30 3728 C 332.146 -2.61777 -3.75815 0
M  V30 3729 N 333.637 -2.60169 -3.83231 0
M  V30 3730 C 334.372 -3.31489 -4.6787 0
M  V30 3731 N 333.868 -4.12298 -5.56761 0
M  V30 3732 N 335.661 -3.20354 -4.61876 0
M  V30 3733 H 327.812 -1.89043 -0.968332 0
M  V30 3734 H 330.075 -0.813408 -0.4869 0
M  V30 3735 H 329.781 -2.67086 -2.28819 0
M  V30 3736 H 329.655 -1.40756 -3.49954 0
M  V30 3737 H 332.042 -0.630778 -2.8828 0
M  V30 3738 H 332.123 -1.92753 -1.68167 0
M  V30 3739 H 331.767 -3.64137 -3.54071 0
M  V30 3740 H 331.697 -2.31616 -4.72929 0
M  V30 3741 H 334.188 -2.01507 -3.19692 0
M  V30 3742 H 334.501 -4.63625 -6.18281 0
M  V30 3743 H 332.846 -4.16395 -5.56454 0
M  V30 3744 H 336.037 -2.56692 -3.91442 0
M  V30 3745 H 336.21 -3.76201 -5.27614 0
M  V30 3746 N 329.616 1.39756 -0.72842 0
M  V30 3747 C 330.549 2.28176 -0.0330172 0
M  V30 3748 C 331.527 1.44035 0.754501 0
M  V30 3749 O 332.711 1.73434 0.738445 0
M  V30 3750 C 329.838 3.24795 0.960504 0
M  V30 3751 C 328.884 4.25693 0.262264 0
M  V30 3752 S 329.717 5.25714 -1.01906 0
M  V30 3753 C 330.873 6.25894 -0.0279717 0
M  V30 3754 H 331.106 2.86807 -0.78287 0
M  V30 3755 H 328.639 1.45382 -0.519951 0
M  V30 3756 H 330.597 3.80983 1.52846 0
M  V30 3757 H 329.258 2.65196 1.68315 0
M  V30 3758 H 328.451 4.93699 1.01379 0
M  V30 3759 H 328.053 3.7327 -0.233482 0
M  V30 3760 H 330.345 6.72585 0.814621 0
M  V30 3761 H 331.288 7.04876 -0.67499 0
M  V30 3762 H 331.696 5.63466 0.341489 0
M  V30 3763 N 331.094 0.475555 1.50254 0
M  V30 3764 C 332.34 -0.0780073 2.0265 0
M  V30 3765 C 332.673 -1.38968 1.35652 0
M  V30 3766 O 331.948 -1.8839 0.483691 0
M  V30 3767 C 332.231 -0.257161 3.59181 0
M  V30 3768 C 332.084 1.07585 4.36744 0
M  V30 3769 C 333.403 -1.00965 4.28362 0
M  V30 3770 H 330.522 -0.0268758 0.73651 0
M  V30 3771 H 333.164 0.622015 1.7953 0
M  V30 3772 H 331.314 -0.853412 3.79011 0
M  V30 3773 H 332.986 1.70902 4.28474 0
M  V30 3774 H 331.229 1.6714 4.00308 0
M  V30 3775 H 331.9 0.904088 5.44546 0
M  V30 3776 H 334.376 -0.504214 4.13034 0
M  V30 3777 H 333.252 -1.10381 5.37687 0
M  V30 3778 H 333.513 -2.04731 3.91839 0
M  V30 3779 N 332.573 -1.56217 0.208337 0
M  V30 3780 C 333.483 -2.23316 -0.718836 0
M  V30 3781 C 334.499 -1.23648 -1.22422 0
M  V30 3782 O 335.675 -1.56423 -1.26861 0
M  V30 3783 C 332.74 -2.88968 -1.91568 0
M  V30 3784 C 331.801 -4.03943 -1.45357 0
M  V30 3785 C 331.034 -4.66455 -2.59337 0
M  V30 3786 O 331.257 -4.27919 -3.77149 0
M  V30 3787 O 330.191 -5.55686 -2.31293 0
M  V30 3788 H 334.017 -3.03182 -0.177315 0
M  V30 3789 H 331.602 -1.49384 -0.0215402 0
M  V30 3790 H 333.484 -3.30455 -2.61491 0
M  V30 3791 H 332.159 -2.12071 -2.44556 0
M  V30 3792 H 331.066 -3.67052 -0.722746 0
M  V30 3793 H 332.399 -4.82543 -0.970219 0
M  V30 3794 N 334.051 0.0651679 -1.57465 0
M  V30 3795 C 335.276 0.779605 -1.9219 0
M  V30 3796 C 335.701 1.69988 -0.805333 0
M  V30 3797 O 335.059 1.79685 0.241435 0
M  V30 3798 C 335.107 1.54364 -3.2589 0
M  V30 3799 O 334.211 2.65474 -3.1559 0
M  V30 3800 H 333.552 0.212249 -0.629163 0
M  V30 3801 H 336.082 0.0314294 -2.04576 0
M  V30 3802 H 336.092 1.92146 -3.59922 0
M  V30 3803 H 334.767 0.868457 -4.06732 0
M  V30 3804 H 333.344 2.30501 -2.93128 0
M  V30 3805 O 335.568 1.60146 0.208664 0
M  V30 3806 H 336.259 1.74115 0.848742 0
M  V30 END ATOM
M  V30 BEGIN BOND
M  V30 END BOND
M  V30 END CTAB
M  END
$$$$
