drugbank_target|Q9X0D0 Histidinol-phosphate aminotransferase (DB02142; DB03997)
 OpenBabel12092119553D

  0  0  0     0  0            999 V3000
M  V30 BEGIN CTAB
M  V30 COUNTS 5530 5590 0 0 0
M  V30 BEGIN ATOM
M  V30 1 H -0.908 1.98254 -0.117106 0
M  V30 2 N 0 1.576 0 0
M  V30 3 C 0.933 2.03868 1.02534 0
M  V30 4 C 1.911 0.928543 1.3348 0
M  V30 5 O 3.095 1.19667 1.45644 0
M  V30 6 C 0.222 2.43627 2.35294 0
M  V30 7 C -0.732 3.65373 2.2001 0
M  V30 8 S 0.101 5.13292 1.52614 0
M  V30 9 C 1.257 5.56322 2.86805 0
M  V30 10 H 1.49 2.90518 0.631377 0
M  V30 11 H -0.977 1.52953 0.210867 0
M  V30 12 H 0.981 2.67203 3.11629 0
M  V30 13 H -0.358 1.57376 2.7183 0
M  V30 14 H -1.165 3.90944 3.18086 0
M  V30 15 H -1.563 3.418 1.51819 0
M  V30 16 H 0.729 5.58782 3.83104 0
M  V30 17 H 1.672 6.56266 2.65933 0
M  V30 18 H 2.08 4.83886 2.90714 0
M  V30 19 N 1.4781 -0.272755 1.55222 0
M  V30 20 C 2.4261 -1.35705 1.88909 0
M  V30 21 C 3.4201 -1.5112 0.765456 0
M  V30 22 O 4.6261 -1.52901 0.949802 0
M  V30 23 H 1.0011 -0.453868 0.59959 0
M  V30 24 H 2.9721 -1.04544 2.79487 0
M  V30 25 C 1.7211 -2.71049 2.17779 0
M  V30 26 H 1.0441 -2.59979 3.03728 0
M  V30 27 H 2.4841 -3.45858 2.45272 0
M  V30 28 C 0.9431 -3.22165 0.985473 0
M  V30 29 O 1.4731 -4.01096 0.220233 0
M  V30 30 N -0.3209 -2.7985 0.783108 0
M  V30 31 H -0.7739 -2.15775 1.40708 0
M  V30 32 H -0.8159 -3.14397 -0.0130392 0
M  V30 33 N 2.9562 -1.48159 -0.537278 0
M  V30 34 C 4.3672 -1.49429 -1.11928 0
M  V30 35 C 4.7182 -0.26 -1.9447 0
M  V30 36 O 3.8432 0.633489 -2.0692 0
M  V30 37 C 4.4382 -2.70758 -2.03656 0
M  V30 38 C 2.9972 -2.74923 -2.57088 0
M  V30 39 C 2.1442 -2.42835 -1.3389 0
M  V30 40 H 5.0952 -1.55381 -0.322886 0
M  V30 41 H 5.1162 -2.48861 -2.87834 0
M  V30 42 H 4.6282 -3.60575 -1.43553 0
M  V30 43 H 2.7292 -1.89296 -3.20933 0
M  V30 44 H 2.8422 -3.76157 -2.9672 0
M  V30 45 H 1.2062 -1.93836 -1.65226 0
M  V30 46 H 1.9892 -3.34884 -0.755504 0
M  V30 47 N 4.4343 0.785586 -1.36625 0
M  V30 48 C 5.3643 1.91259 -1.33949 0
M  V30 49 C 6.3453 1.68795 -0.210325 0
M  V30 50 O 7.5303 1.89854 -0.408561 0
M  V30 51 C 4.6603 3.28339 -1.13186 0
M  V30 52 C 3.6143 3.65335 -2.22967 0
M  V30 53 C 2.9403 5.00806 -1.87342 0
M  V30 54 C 4.2403 3.7352 -3.65075 0
M  V30 55 H 5.9343 1.93755 -2.28253 0
M  V30 56 H 3.4803 0.930788 -1.09874 0
M  V30 57 H 5.4333 4.06804 -1.09948 0
M  V30 58 H 4.1573 3.2624 -0.153332 0
M  V30 59 H 2.8163 2.89169 -2.25337 0
M  V30 60 H 2.4643 4.95233 -0.880545 0
M  V30 61 H 2.1643 5.26529 -2.60846 0
M  V30 62 H 3.6883 5.81687 -1.85667 0
M  V30 63 H 5.1023 4.42168 -3.64911 0
M  V30 64 H 3.4993 4.10731 -4.37516 0
M  V30 65 H 4.5693 2.74527 -3.99703 0
M  V30 66 N 5.9124 1.20967 1.01018 0
M  V30 67 C 7.1894 0.93264 1.71934 0
M  V30 68 C 7.5694 -0.55692 2.03621 0
M  V30 69 O 6.9174 -1.52035 1.7058 0
M  V30 70 C 7.1274 1.81233 2.98254 0
M  V30 71 C 8.4754 2.05804 3.71389 0
M  V30 72 O 9.4994 1.78539 3.08225 0
M  V30 73 O 8.3584 2.51888 4.84989 0
M  V30 74 H 5.4524 0.349272 0.749625 0
M  V30 75 H 7.9984 1.31871 1.06808 0
M  V30 76 H 6.7704 2.82067 2.71208 0
M  V30 77 H 6.3934 1.42674 3.7112 0
M  V30 78 N 7.3905 -1.2043 1.01659 0
M  V30 79 C 8.3205 -2.25466 0.607226 0
M  V30 80 C 9.3015 -1.65853 -0.377716 0
M  V30 81 O 10.4865 -1.92409 -0.263149 0
M  V30 82 C 7.6165 -3.47256 -0.0552949 0
M  V30 83 C 6.5705 -4.19462 0.850632 0
M  V30 84 C 5.8965 -5.34673 0.0538859 0
M  V30 85 C 7.1965 -4.75603 2.15868 0
M  V30 86 H 8.8905 -2.59962 1.48526 0
M  V30 87 H 6.4365 -1.2496 0.715605 0
M  V30 88 H 8.3895 -4.19917 -0.353233 0
M  V30 89 H 7.1135 -3.11924 -0.968045 0
M  V30 90 H 5.7725 -3.48667 1.13257 0
M  V30 91 H 5.4205 -4.95585 -0.860514 0
M  V30 92 H 5.1205 -5.83913 0.657192 0
M  V30 93 H 6.6445 -6.10138 -0.237598 0
M  V30 94 H 8.0585 -5.40083 1.92311 0
M  V30 95 H 6.4555 -5.3528 2.71284 0
M  V30 96 H 7.5255 -3.94346 2.82169 0
M  V30 97 N 8.8686 -0.792821 -1.36206 0
M  V30 98 C 10.1176 -0.363353 -1.984 0
M  V30 99 C 10.4306 1.07172 -1.63626 0
M  V30 100 O 11.6366 1.60362 -2.19081 0
M  V30 101 C 10.0926 -0.59872 -3.54885 0
M  V30 102 C 9.7006 -2.04543 -3.9858 0
M  V30 103 C 11.4446 -0.233926 -4.23855 0
M  V30 104 C 9.3516 -2.22727 -5.47856 0
M  V30 105 H 8.2816 -0.13212 -0.742334 0
M  V30 106 H 10.9326 -0.974935 -1.55458 0
M  V30 107 H 9.3146 0.0826222 -3.95914 0
M  V30 108 H 10.4886 -2.76345 -3.68741 0
M  V30 109 H 8.8036 -2.36879 -3.42458 0
M  V30 110 H 11.4006 -0.348027 -5.33566 0
M  V30 111 H 11.7436 0.818351 -4.08177 0
M  V30 112 H 12.2766 -0.868639 -3.882 0
M  V30 113 H 9.0156 -3.2635 -5.68486 0
M  V30 114 H 8.5356 -1.55434 -5.7931 0
M  V30 115 H 10.2146 -2.03607 -6.14128 0
M  V30 116 N 10.3467 1.47872 -0.545128 0
M  V30 117 C 11.3097 2.28337 0.198717 0
M  V30 118 C 12.3097 1.36255 0.853888 0
M  V30 119 O 13.4997 1.59003 0.711606 0
M  V30 120 C 10.6317 3.15585 1.28915 0
M  V30 121 H 11.8247 2.95567 -0.507941 0
M  V30 122 H 9.3777 1.53362 -0.301616 0
M  V30 123 H 10.1127 2.53019 2.02859 0
M  V30 124 H 9.8977 3.83337 0.824309 0
M  V30 125 H 11.3877 3.76243 1.81194 0
M  V30 126 N 11.8248 0.280983 1.55075 0
M  V30 127 C 12.7718 -0.603937 2.22758 0
M  V30 128 C 13.7418 -1.1452 1.20309 0
M  V30 129 O 14.9268 -1.19343 1.48869 0
M  V30 130 C 12.0668 -1.77947 2.95684 0
M  V30 131 C 11.1798 -1.2715 4.12864 0
M  V30 132 C 10.3148 -2.4093 4.7342 0
M  V30 133 C 9.3538 -1.87165 5.82783 0
M  V30 134 N 8.4908 -2.94441 6.37377 0
M  V30 135 H 13.3308 -0.020124 2.97993 0
M  V30 136 H 10.8678 0.00183425 1.471 0
M  V30 137 H 12.8258 -2.47055 3.36184 0
M  V30 138 H 11.4558 -2.33522 2.22861 0
M  V30 139 H 10.5078 -0.473331 3.77444 0
M  V30 140 H 11.8198 -0.837751 4.91715 0
M  V30 141 H 10.9738 -3.18021 5.1667 0
M  V30 142 H 9.7128 -2.87623 3.93859 0
M  V30 143 H 8.7178 -1.08556 5.38976 0
M  V30 144 H 9.9428 -1.41401 6.64216 0
M  V30 145 H 7.8888 -3.40505 5.60707 0
M  V30 146 H 7.8058 -2.55501 7.11516 0
M  V30 147 H 9.0738 -3.71489 6.85285 0
M  V30 148 N 13.3029 -1.57598 0.00835791 0
M  V30 149 C 14.7189 -1.55764 -0.347822 0
M  V30 150 C 14.9189 -1.01186 -1.74252 0
M  V30 151 O 13.9749 -0.649371 -2.44007 0
M  V30 152 C 15.2879 -2.99927 -0.215407 0
M  V30 153 C 16.8359 -3.11656 -0.289725 0
M  V30 154 C 17.3109 -4.57621 -0.18634 0
M  V30 155 N 18.8019 -4.62557 -0.243978 0
M  V30 156 C 19.5369 -5.73094 -0.18745 0
M  V30 157 N 19.0329 -6.92753 -0.0810331 0
M  V30 158 N 20.8259 -5.61588 -0.239925 0
M  V30 159 H 12.9769 -1.91411 0.92062 0
M  V30 160 H 15.2399 -0.879562 0.353659 0
M  V30 161 H 14.9459 -3.43729 0.744512 0
M  V30 162 H 14.8199 -3.63865 -0.994097 0
M  V30 163 H 17.2069 -2.67779 -1.24009 0
M  V30 164 H 17.2879 -2.5048 0.51898 0
M  V30 165 H 16.9319 -5.02174 0.760519 0
M  V30 166 H 16.8619 -5.16752 -1.01364 0
M  V30 167 H 19.3529 -3.76481 -0.327217 0
M  V30 168 H 19.6659 -7.72787 -0.0440241 0
M  V30 169 H 18.0109 -6.94984 -0.0465419 0
M  V30 170 H 21.2019 -4.66996 -0.321317 0
M  V30 171 H 21.3749 -6.47714 -0.192407 0
M  V30 172 N 14.781 0.264519 -1.55364 0
M  V30 173 C 15.744 1.31046 -1.88042 0
M  V30 174 C 16.744 1.41943 -0.755569 0
M  V30 175 O 17.934 1.40947 -1.02369 0
M  V30 176 C 15.066 2.69067 -2.09323 0
M  V30 177 H 16.259 1.03297 -2.81549 0
M  V30 178 H 13.812 0.502989 -1.47986 0
M  V30 179 H 14.547 3.01982 -1.18226 0
M  V30 180 H 14.332 2.62542 -2.91229 0
M  V30 181 H 15.822 3.44623 -2.35848 0
M  V30 182 N 16.2591 1.48442 0.529413 0
M  V30 183 C 17.4891 1.59919 1.30804 0
M  V30 184 C 17.8971 0.258792 1.87422 0
M  V30 185 O 17.2401 -0.762096 1.67146 0
M  V30 186 C 17.3021 2.58693 2.49636 0
M  V30 187 C 16.9661 4.03745 2.14101 0
M  V30 188 C 17.9631 4.9141 1.6974 0
M  V30 189 C 15.6481 4.49285 2.24607 0
M  V30 190 C 17.6421 6.22645 1.36351 0
M  V30 191 C 15.3291 5.8054 1.9083 0
M  V30 192 C 16.3271 6.67043 1.46773 0
M  V30 193 O 16.0151 7.95856 1.1344 0
M  V30 194 H 15.7471 0.541981 0.404021 0
M  V30 195 H 18.3011 1.95 0.645309 0
M  V30 196 H 16.5311 2.18734 3.18892 0
M  V30 197 H 18.2201 2.59999 3.11698 0
M  V30 198 H 18.9861 4.57465 1.61094 0
M  V30 199 H 14.8651 3.82142 2.57854 0
M  V30 200 H 18.4091 6.90119 1.01891 0
M  V30 201 H 14.3061 6.14022 1.99117 0
M  V30 202 H 15.0741 8.08613 1.26832 0
M  V30 203 N 17.7372 -0.778329 1.37039 0
M  V30 204 C 19.1482 -1.35421 1.28523 0
M  V30 205 C 19.4992 -1.96075 -0.0700901 0
M  V30 206 O 18.6242 -1.93352 -0.971801 0
M  V30 207 C 19.2192 -2.46211 2.32735 0
M  V30 208 C 17.7782 -2.99585 2.27873 0
M  V30 209 C 16.9252 -1.72748 2.16918 0
M  V30 210 H 19.8762 -0.5791 1.47757 0
M  V30 211 H 19.8972 -3.2552 1.9702 0
M  V30 212 H 19.4092 -2.02036 3.31365 0
M  V30 213 H 17.5102 -3.48152 1.32745 0
M  V30 214 H 17.6232 -3.55646 3.21018 0
M  V30 215 H 15.9872 -1.95416 1.63354 0
M  V30 216 H 16.7702 -1.30686 3.17452 0
M  V30 217 N 19.2153 -1.21501 -1.00376 0
M  V30 218 C 20.4453 -1.05746 -1.77486 0
M  V30 219 C 20.8533 0.395655 -1.85017 0
M  V30 220 O 20.1963 1.28626 -1.31152 0
M  V30 221 C 20.2583 -1.58092 -3.22873 0
M  V30 222 C 19.9223 -3.06568 -3.38917 0
M  V30 223 C 20.9193 -4.04106 -3.271 0
M  V30 224 C 18.6043 -3.45799 -3.64319 0
M  V30 225 C 20.5983 -5.38862 -3.40451 0
M  V30 226 C 18.2853 -4.80707 -3.77311 0
M  V30 227 C 19.2833 -5.77047 -3.65384 0
M  V30 228 O 18.9713 -7.09507 -3.77961 0
M  V30 229 H 18.7033 -0.371778 -0.564586 0
M  V30 230 H 21.2573 -1.61319 -1.27143 0
M  V30 231 H 19.4873 -0.969163 -3.74358 0
M  V30 232 H 21.1763 -1.38162 -3.81662 0
M  V30 233 H 21.9423 -3.75141 -3.07399 0
M  V30 234 H 17.8213 -2.71344 -3.72684 0
M  V30 235 H 21.3653 -6.14041 -3.31058 0
M  V30 236 H 17.2623 -5.09357 -3.96517 0
M  V30 237 H 18.0303 -7.16935 -3.94901 0
M  V30 238 N 20.6934 1.19889 -1.02296 0
M  V30 239 C 21.6034 2.26571 -0.608508 0
M  V30 240 C 22.6194 1.70299 0.356964 0
M  V30 241 O 23.7954 2.00235 0.216326 0
M  V30 242 C 20.8604 3.46677 0.0402814 0
M  V30 243 C 19.9214 4.18153 -0.97194 0
M  V30 244 C 19.1544 5.32525 -0.354016 0
M  V30 245 O 19.3774 5.64112 0.844604 0
M  V30 246 O 18.3114 5.92242 -1.07391 0
M  V30 247 H 22.1374 2.64251 -1.49684 0
M  V30 248 H 19.7224 1.26629 -0.792809 0
M  V30 249 H 21.6044 4.19475 0.402324 0
M  V30 250 H 20.2794 3.10858 0.902707 0
M  V30 251 H 19.1864 3.47499 -1.38546 0
M  V30 252 H 20.5194 4.57927 -1.80454 0
M  V30 253 N 22.1715 0.800033 1.35784 0
M  V30 254 C 23.3995 0.389606 2.03199 0
M  V30 255 C 23.8145 -0.997375 1.60306 0
M  V30 256 O 23.1715 -1.64154 0.797481 0
M  V30 257 C 23.2225 0.455855 3.58614 0
M  V30 258 O 22.9435 1.78815 3.99946 0
M  V30 259 C 24.4445 0.0374032 4.43284 0
M  V30 260 H 21.6645 0.159132 0.651857 0
M  V30 261 H 24.2085 1.08183 1.73541 0
M  V30 262 H 22.3635 -0.188057 3.86943 0
M  V30 263 H 22.7775 1.74636 4.94573 0
M  V30 264 H 24.2515 0.134882 5.51835 0
M  V30 265 H 24.7285 -1.01651 4.27275 0
M  V30 266 H 25.3345 0.654215 4.20238 0
M  V30 267 N 23.6496 -1.47581 0.552962 0
M  V30 268 C 24.5596 -2.33743 -0.200353 0
M  V30 269 C 25.5756 -1.47928 -0.916151 0
M  V30 270 O 26.7516 -1.80865 -0.885993 0
M  V30 271 C 23.8166 -3.24536 -1.21973 0
M  V30 272 C 22.8776 -4.26238 -0.511819 0
M  V30 273 C 22.1106 -5.12693 -1.48263 0
M  V30 274 O 22.3336 -5.01525 -2.71714 0
M  V30 275 O 21.2676 -5.93375 -1.00945 0
M  V30 276 H 25.0936 -2.9945 0.506304 0
M  V30 277 H 22.6786 -1.46071 0.313622 0
M  V30 278 H 24.5606 -3.80631 -1.80827 0
M  V30 279 H 23.2356 -2.61462 -1.90839 0
M  V30 280 H 22.1426 -3.73914 0.117799 0
M  V30 281 H 23.4756 -4.92014 0.135308 0
M  V30 282 N 25.1277 -0.289203 -1.54924 0
M  V30 283 C 26.0747 0.592115 -2.23075 0
M  V30 284 C 27.0447 1.13881 -1.20915 0
M  V30 285 O 28.2297 1.18551 -1.495 0
M  V30 286 C 25.3697 1.76376 -2.96623 0
M  V30 287 C 24.4827 1.24959 -4.13533 0
M  V30 288 C 23.6177 2.38416 -4.74691 0
M  V30 289 C 22.6567 1.84072 -5.83767 0
M  V30 290 N 21.7937 2.91057 -6.38929 0
M  V30 291 H 26.6337 0.00432038 -2.98 0
M  V30 292 H 24.1707 -0.00963529 -1.47097 0
M  V30 293 H 26.1287 2.45268 -3.3749 0
M  V30 294 H 24.7587 2.32337 -2.24097 0
M  V30 295 H 23.8107 0.453307 -3.77689 0
M  V30 296 H 25.1227 0.811662 -4.92152 0
M  V30 297 H 24.2767 3.15276 -5.18349 0
M  V30 298 H 23.0157 2.8553 -3.95378 0
M  V30 299 H 22.0207 1.05697 -5.39545 0
M  V30 300 H 23.2457 1.37877 -6.64956 0
M  V30 301 H 21.1917 3.37526 -5.62505 0
M  V30 302 H 21.1087 2.51724 -7.12861 0
M  V30 303 H 22.3767 3.6785 -6.87246 0
M  V30 304 N 26.6058 1.57591 -0.0167156 0
M  V30 305 C 28.0218 1.55946 0.339557 0
M  V30 306 C 28.2218 1.02109 1.73713 0
M  V30 307 O 27.2778 0.662303 2.43659 0
M  V30 308 C 28.5908 3.00037 0.199499 0
M  V30 309 C 30.1388 3.11805 0.273193 0
M  V30 310 C 30.6138 4.57713 0.162068 0
M  V30 311 N 32.1048 4.6268 0.219444 0
M  V30 312 C 32.8398 5.73185 0.157054 0
M  V30 313 N 32.3358 6.92786 0.0442936 0
M  V30 314 N 34.1288 5.61707 0.21014 0
M  V30 315 H 26.2798 1.90921 -0.930758 0
M  V30 316 H 28.5428 0.877674 -0.358319 0
M  V30 317 H 28.2488 3.4333 -0.76273 0
M  V30 318 H 28.1228 3.64387 0.974786 0
M  V30 319 H 30.5098 2.68433 1.22587 0
M  V30 320 H 30.5908 2.50201 -0.532256 0
M  V30 321 H 30.2348 5.01763 -0.78714 0
M  V30 322 H 30.1648 5.17283 0.986222 0
M  V30 323 H 32.6558 3.76649 0.307246 0
M  V30 324 H 32.9688 7.728 0.00304069 0
M  V30 325 H 31.3138 6.94999 0.00968457 0
M  V30 326 H 34.5048 4.6716 0.296546 0
M  V30 327 H 34.6778 6.47807 0.158054 0
M  V30 328 N 28.0839 -0.256276 1.55502 0
M  V30 329 C 29.3609 -1.00789 1.67633 0
M  V30 330 C 29.7409 -2.03706 0.553826 0
M  V30 331 O 29.0889 -2.24145 -0.443969 0
M  V30 332 C 29.2989 -1.64968 3.07549 0
M  V30 333 C 30.6469 -2.15505 3.65845 0
M  V30 334 O 31.6709 -1.74925 3.1029 0
M  V30 335 O 30.5299 -2.89986 4.63217 0
M  V30 336 H 27.6239 -0.468553 0.681459 0
M  V30 337 H 30.1699 -0.250806 1.67836 0
M  V30 338 H 28.9419 -0.904785 3.80696 0
M  V30 339 H 28.5649 -2.47321 3.11317 0
M  V30 340 N 29.562 -1.4872 -0.521534 0
M  V30 341 C 30.509 -1.63871 -1.62527 0
M  V30 342 C 31.479 -0.480559 -1.58996 0
M  V30 343 O 32.664 -0.705085 -1.77294 0
M  V30 344 C 29.804 -1.69227 -3.00759 0
M  V30 345 C 28.917 -2.96207 -3.14461 0
M  V30 346 C 28.052 -2.92671 -4.43303 0
M  V30 347 C 27.091 -4.14318 -4.50563 0
M  V30 348 N 26.228 -4.0881 -5.70805 0
M  V30 349 H 31.068 -2.58123 -1.48918 0
M  V30 350 H 28.605 -1.28 -0.724878 0
M  V30 351 H 30.563 -1.70314 -3.80853 0
M  V30 352 H 29.193 -0.784586 -3.1312 0
M  V30 353 H 28.245 -3.04826 -2.27564 0
M  V30 354 H 29.557 -3.86192 -3.15686 0
M  V30 355 H 28.711 -2.92206 -5.31696 0
M  V30 356 H 27.45 -2.00429 -4.44612 0
M  V30 357 H 26.455 -4.15049 -3.60575 0
M  V30 358 H 27.68 -5.07729 -4.50986 0
M  V30 359 H 25.626 -3.19394 -5.72995 0
M  V30 360 H 25.543 -4.92509 -5.7356 0
M  V30 361 H 26.811 -4.12418 -6.61462 0
M  V30 362 N 31.0401 0.771051 -1.3745 0
M  V30 363 C 32.2681 1.56015 -1.35893 0
M  V30 364 C 32.6831 1.88718 0.0555523 0
M  V30 365 O 32.0401 1.51502 1.01752 0
M  V30 366 C 32.0911 2.87001 -2.19801 0
M  V30 367 O 31.8121 2.557 -3.55738 0
M  V30 368 C 33.3131 3.81228 -2.26231 0
M  V30 369 H 30.5331 0.483317 -0.465453 0
M  V30 370 H 33.0771 0.955611 -1.80799 0
M  V30 371 H 31.2321 3.43877 -1.78402 0
M  V30 372 H 31.6461 3.39584 -3.99729 0
M  V30 373 H 33.1201 4.70139 -2.89263 0
M  V30 374 H 33.5971 4.20409 -1.27093 0
M  V30 375 H 34.2031 3.30281 -2.67945 0
M  V30 376 N 32.5182 1.22032 0.997298 0
M  V30 377 C 33.7482 1.06686 1.76923 0
M  V30 378 C 34.1562 -0.385838 1.85224 0
M  V30 379 O 33.4992 -1.27929 1.31833 0
M  V30 380 C 33.5612 1.59802 3.22031 0
M  V30 381 C 33.2252 3.08362 3.37286 0
M  V30 382 C 34.2222 4.05835 3.24952 0
M  V30 383 C 31.9072 3.47727 3.6248 0
M  V30 384 C 33.9012 5.4066 3.37588 0
M  V30 385 C 31.5882 4.82701 3.74757 0
M  V30 386 C 32.5862 5.78977 3.62319 0
M  V30 387 O 32.2742 7.11502 3.74193 0
M  V30 388 H 32.0062 0.374767 0.562606 0
M  V30 389 H 34.5602 1.61991 1.26286 0
M  V30 390 H 32.7902 0.989003 3.73839 0
M  V30 391 H 34.4792 1.40184 3.80924 0
M  V30 392 H 35.2452 3.76766 3.05405 0
M  V30 393 H 31.1242 2.73317 3.7124 0
M  V30 394 H 34.6682 6.15788 3.27796 0
M  V30 395 H 30.5652 5.11453 3.9381 0
M  V30 396 H 31.3332 7.19019 3.91093 0
M  V30 397 N 33.9963 -1.19345 1.0293 0
M  V30 398 C 34.9263 -2.2481 0.631105 0
M  V30 399 C 35.9073 -1.66245 -0.360104 0
M  V30 400 O 37.0923 -1.92677 -0.242726 0
M  V30 401 C 34.2223 -3.47295 -0.0184607 0
M  V30 402 C 33.1763 -4.18536 0.895073 0
M  V30 403 C 32.5023 -5.34586 0.110592 0
M  V30 404 C 33.8023 -4.73287 2.209 0
M  V30 405 H 35.4963 -2.58372 1.51275 0
M  V30 406 H 33.0423 -1.24194 0.728818 0
M  V30 407 H 34.9953 -4.20268 -0.308675 0
M  V30 408 H 33.7193 -3.12933 -0.934907 0
M  V30 409 H 32.3783 -3.47446 1.16949 0
M  V30 410 H 32.0263 -4.96469 -0.807902 0
M  V30 411 H 31.7263 -5.83183 0.719087 0
M  V30 412 H 33.2503 -6.10355 -0.172871 0
M  V30 413 H 34.6643 -5.38013 1.98028 0
M  V30 414 H 33.0613 -5.32373 2.76946 0
M  V30 415 H 34.1313 -3.91331 2.86336 0
M  V30 416 N 35.4744 -0.807222 -1.35358 0
M  V30 417 C 36.4374 -0.223665 -2.28106 0
M  V30 418 C 37.4374 0.589354 -1.4961 0
M  V30 419 O 38.6274 0.407745 -1.69361 0
M  V30 420 C 35.7594 0.688149 -3.33882 0
M  V30 421 H 36.9524 -1.04169 -2.81227 0
M  V30 422 H 34.5054 -0.577921 -1.45223 0
M  V30 423 H 35.2404 1.52984 -2.85948 0
M  V30 424 H 35.0254 0.10687 -3.91954 0
M  V30 425 H 36.5154 1.09075 -4.03104 0
M  V30 426 N 36.9525 1.47285 -0.560781 0
M  V30 427 C 37.8825 2.32857 0.173105 0
M  V30 428 C 38.8635 1.44009 0.905281 0
M  V30 429 O 40.0485 1.7286 0.885046 0
M  V30 430 C 37.1785 3.25861 1.20133 0
M  V30 431 C 36.1325 4.23978 0.585388 0
M  V30 432 C 35.4585 5.06332 1.7185 0
M  V30 433 C 36.7585 5.20242 -0.463178 0
M  V30 434 H 38.4525 2.94466 -0.541307 0
M  V30 435 H 35.9985 1.41601 -0.261764 0
M  V30 436 H 37.9515 3.84569 1.72293 0
M  V30 437 H 36.6755 2.62315 1.94573 0
M  V30 438 H 35.3345 3.66501 0.085054 0
M  V30 439 H 34.9825 4.39186 2.45203 0
M  V30 440 H 34.6825 5.72762 1.31213 0
M  V30 441 H 36.2065 5.67899 2.24329 0
M  V30 442 H 37.6205 5.73293 -0.027502 0
M  V30 443 H 36.0175 5.94896 -0.788627 0
M  V30 444 H 37.0875 4.65504 -1.35773 0
M  V30 445 N 38.4306 0.297415 1.54768 0
M  V30 446 C 39.3786 -0.596051 2.24833 0
M  V30 447 C 40.3726 -1.13992 1.25308 0
M  V30 448 O 41.5786 -1.09098 1.4317 0
M  V30 449 H 37.9536 -0.210814 0.721846 0
M  V30 450 H 39.9246 0.0174667 2.98395 0
M  V30 451 C 38.6736 -1.75818 2.99972 0
M  V30 452 H 37.9966 -1.3489 3.76357 0
M  V30 453 H 39.4366 -2.35949 3.52284 0
M  V30 454 C 37.8956 -2.66014 2.06732 0
M  V30 455 O 38.4256 -3.67009 1.63302 0
M  V30 456 N 36.6316 -2.33669 1.72763 0
M  V30 457 H 36.1786 -1.51586 2.08277 0
M  V30 458 H 36.1366 -2.94285 1.10652 0
M  V30 459 N 39.9087 -1.5758 0.0250728 0
M  V30 460 C 40.8187 -2.1343 -0.973905 0
M  V30 461 C 41.8347 -1.08556 -1.35984 0
M  V30 462 O 43.0107 -1.40592 -1.44207 0
M  V30 463 C 40.0757 -2.64703 -2.23904 0
M  V30 464 C 39.1367 -3.84276 -1.91391 0
M  V30 465 C 38.3697 -4.33095 -3.11873 0
M  V30 466 O 38.5927 -3.81107 -4.24398 0
M  V30 467 O 37.5267 -5.24984 -2.94406 0
M  V30 468 H 41.3527 -2.99057 -0.529036 0
M  V30 469 H 38.9377 -1.48118 -0.195288 0
M  V30 470 H 40.8197 -2.97769 -2.98181 0
M  V30 471 H 39.4947 -1.82161 -2.6758 0
M  V30 472 H 38.4017 -3.56143 -1.14511 0
M  V30 473 H 39.7347 -4.67968 -1.52534 0
M  V30 474 N 41.3868 0.248026 -1.55636 0
M  V30 475 C 42.3348 1.32683 -1.91045 0
M  V30 476 C 43.3288 1.49883 -0.789401 0
M  V30 477 O 44.5348 1.51371 -0.974007 0
M  V30 478 H 40.9098 0.444272 -0.606734 0
M  V30 479 H 42.8808 1.00085 -2.81115 0
M  V30 480 C 41.6298 2.6755 -2.22064 0
M  V30 481 H 40.9528 2.55114 -3.07826 0
M  V30 482 H 42.3928 3.41912 -2.50743 0
M  V30 483 C 40.8518 3.20556 -1.0366 0
M  V30 484 O 41.3818 4.00695 -0.284016 0
M  V30 485 N 39.5878 2.78568 -0.82753 0
M  V30 486 H 39.1348 2.1351 -1.44123 0
M  V30 487 H 39.0928 3.14378 -0.0369803 0
M  V30 488 N 42.8649 1.48995 0.513639 0
M  V30 489 C 44.2759 1.5119 1.09537 0
M  V30 490 C 44.6269 0.290906 1.94031 0
M  V30 491 O 43.7519 -0.60049 2.07902 0
M  V30 492 C 44.3469 2.73964 1.99322 0
M  V30 493 C 42.9059 2.78978 2.52682 0
M  V30 494 C 42.0529 2.44934 1.30009 0
M  V30 495 H 45.0039 1.55875 0.298125 0
M  V30 496 H 45.0249 2.53409 2.83838 0
M  V30 497 H 44.5369 3.62813 1.37799 0
M  V30 498 H 42.6379 1.94378 3.1788 0
M  V30 499 H 42.7509 3.8083 2.90698 0
M  V30 500 H 41.1149 1.9644 1.62122 0
M  V30 501 H 41.8979 3.36043 0.702131 0
M  V30 502 N 44.343 -0.763751 1.37857 0
M  V30 503 C 45.59 -1.52257 1.33506 0
M  V30 504 C 45.918 -1.94343 -0.078022 0
M  V30 505 O 45.173 -1.64958 -1.05297 0
M  V30 506 C 45.472 -2.79499 2.22745 0
M  V30 507 C 45.138 -2.56426 3.70886 0
M  V30 508 C 43.8 -2.49842 4.11257 0
M  V30 509 C 46.152 -2.36008 4.64704 0
M  V30 510 C 43.48 -2.20841 5.43549 0
M  V30 511 C 45.832 -2.0853 5.97242 0
M  V30 512 C 44.496 -2.00396 6.36709 0
M  V30 513 H 43.766 -0.557149 0.488534 0
M  V30 514 H 46.413 -0.879073 1.70131 0
M  V30 515 H 44.718 -3.48447 1.79142 0
M  V30 516 H 46.415 -3.37413 2.16688 0
M  V30 517 H 43.005 -2.62416 3.38874 0
M  V30 518 H 47.189 -2.40079 4.34368 0
M  V30 519 H 42.445 -2.13045 5.73081 0
M  V30 520 H 46.619 -1.91732 6.69486 0
M  V30 521 H 44.246 -1.77688 7.39142 0
M  V30 522 N 45.8211 -1.22559 -0.990812 0
M  V30 523 C 47.2321 -1.04791 -1.54518 0
M  V30 524 C 47.5831 0.387998 -1.92325 0
M  V30 525 O 46.7081 1.27328 -1.74976 0
M  V30 526 C 47.3031 -1.896 -2.80779 0
M  V30 527 C 45.8621 -1.76124 -3.32652 0
M  V30 528 C 45.0091 -1.8594 -2.05722 0
M  V30 529 H 47.9601 -1.36374 -0.811662 0
M  V30 530 H 47.9811 -1.41464 -3.53225 0
M  V30 531 H 47.4931 -2.94101 -2.53231 0
M  V30 532 H 45.5941 -0.743643 -3.65104 0
M  V30 533 H 45.7071 -2.58913 -4.03114 0
M  V30 534 H 44.0711 -1.29403 -2.19379 0
M  V30 535 H 44.8541 -2.91976 -1.80568 0
M  V30 536 N 47.2992 1.18797 -1.03562 0
M  V30 537 C 48.5462 1.8865 -0.736023 0
M  V30 538 C 48.8742 1.80041 0.735889 0
M  V30 539 O 48.1292 1.19179 1.55225 0
M  V30 540 C 48.4282 3.38692 -1.14117 0
M  V30 541 C 48.0942 3.67504 -2.6125 0
M  V30 542 C 46.7562 3.75078 -3.01447 0
M  V30 543 C 49.1082 3.80293 -3.56408 0
M  V30 544 C 46.4362 3.92915 -4.35701 0
M  V30 545 C 48.7882 3.99645 -4.90374 0
M  V30 546 C 47.4522 4.05453 -5.30249 0
M  V30 547 H 46.7222 0.690321 -0.26933 0
M  V30 548 H 49.3692 1.40641 -1.29971 0
M  V30 549 H 47.6742 3.88645 -0.496202 0
M  V30 550 H 49.3712 3.91072 -0.886789 0
M  V30 551 H 45.9612 3.62223 -2.29113 0
M  V30 552 H 50.1452 3.73779 -3.26501 0
M  V30 553 H 45.4012 3.95653 -4.66121 0
M  V30 554 H 49.5752 4.08482 -5.64017 0
M  V30 555 H 47.2022 4.19027 -6.34288 0
M  V30 556 N 48.7773 0.814389 1.34928 0
M  V30 557 C 50.1883 0.458364 1.80986 0
M  V30 558 C 50.5393 -1.02042 1.67577 0
M  V30 559 O 49.6643 -1.79352 1.21086 0
M  V30 560 C 50.2593 0.825212 3.28597 0
M  V30 561 C 48.8183 0.521677 3.72767 0
M  V30 562 C 47.9653 1.04668 2.56788 0
M  V30 563 H 50.9163 1.00533 1.22795 0
M  V30 564 H 50.9373 0.12571 3.80292 0
M  V30 565 H 50.4493 1.90154 3.38324 0
M  V30 566 H 48.5503 -0.545589 3.68584 0
M  V30 567 H 48.6633 1.05977 4.67232 0
M  V30 568 H 47.0273 0.468622 2.50352 0
M  V30 569 H 47.8103 2.12927 2.6929 0
M  V30 570 N 50.2554 -1.46986 0.568584 0
M  V30 571 C 51.1654 -2.33942 -0.17555 0
M  V30 572 C 52.1814 -1.48891 -0.90041 0
M  V30 573 O 53.3574 -1.81794 -0.86676 0
M  V30 574 C 50.4224 -3.25811 -1.18524 0
M  V30 575 C 49.4834 -4.26757 -0.466582 0
M  V30 576 C 48.7164 -5.14236 -1.42817 0
M  V30 577 O 48.9394 -5.04379 -2.66379 0
M  V30 578 O 47.8734 -5.94412 -0.946453 0
M  V30 579 H 51.6994 -2.98896 0.538036 0
M  V30 580 H 49.2844 -1.4573 0.329097 0
M  V30 581 H 51.1664 -3.82527 -1.76779 0
M  V30 582 H 49.8414 -2.63471 -1.88055 0
M  V30 583 H 48.7484 -3.73769 0.157451 0
M  V30 584 H 50.0814 -4.91843 0.187485 0
M  V30 585 N 51.7335 -0.305618 -1.54608 0
M  V30 586 C 53.0105 0.355652 -1.92339 0
M  V30 587 C 53.3905 1.71324 -1.23335 0
M  V30 588 O 52.7385 2.25473 -0.370702 0
M  V30 589 C 52.9485 0.46572 -3.45879 0
M  V30 590 C 54.2965 0.734426 -4.182 0
M  V30 591 O 55.3205 0.54935 -3.51938 0
M  V30 592 O 54.1795 1.09024 -5.35515 0
M  V30 593 H 51.2735 0.199666 -0.802535 0
M  V30 594 H 53.8195 -0.354017 -1.65966 0
M  V30 595 H 52.5915 -0.488461 -3.88239 0
M  V30 596 H 52.2145 1.22367 -3.78301 0
M  V30 597 N 53.2116 1.57565 -0.0334293 0
M  V30 598 C 54.1416 2.13511 0.945265 0
M  V30 599 C 55.1226 1.05231 1.33643 0
M  V30 600 O 56.3076 1.33084 1.41429 0
M  V30 601 C 53.4376 2.6657 2.22616 0
M  V30 602 C 52.3916 3.79676 1.97561 0
M  V30 603 C 51.7176 4.1918 3.31952 0
M  V30 604 C 53.0176 5.0557 1.31135 0
M  V30 605 H 54.7116 2.95538 0.479325 0
M  V30 606 H 52.2576 1.42166 0.229115 0
M  V30 607 H 54.2106 3.04344 2.91466 0
M  V30 608 H 52.9346 1.8171 2.71384 0
M  V30 609 H 51.5936 3.42347 1.31127 0
M  V30 610 H 51.2416 3.31296 3.78487 0
M  V30 611 H 50.9416 4.95402 3.15992 0
M  V30 612 H 52.4656 4.59541 4.02063 0
M  V30 613 H 53.8796 5.40903 1.89992 0
M  V30 614 H 52.2766 5.86818 1.25559 0
M  V30 615 H 53.3466 4.84062 0.284894 0
M  V30 616 N 54.6897 -0.239769 1.55765 0
M  V30 617 C 55.9357 -0.968234 1.78194 0
M  V30 618 C 56.2687 -1.84701 0.599938 0
M  V30 619 O 55.5437 -1.9031 -0.401524 0
M  V30 620 C 55.8267 -1.8227 3.10564 0
M  V30 621 C 55.6797 -0.971633 4.3918 0
M  V30 622 C 56.9987 -2.80388 3.39221 0
M  V30 623 H 54.1177 -0.350572 0.648281 0
M  V30 624 H 56.7597 -0.238259 1.885 0
M  V30 625 H 54.9097 -2.44507 3.01908 0
M  V30 626 H 56.5817 -0.367408 4.59835 0
M  V30 627 H 54.8247 -0.276276 4.32919 0
M  V30 628 H 55.4957 -1.60346 5.28198 0
M  V30 629 H 57.9717 -2.28287 3.47885 0
M  V30 630 H 56.8477 -3.3729 4.33044 0
M  V30 631 H 57.1087 -3.57212 2.60484 0
M  V30 632 N 56.1678 -1.49265 -0.50573 0
M  V30 633 C 57.4448 -1.49012 -1.26707 0
M  V30 634 C 57.8248 -0.215205 -2.1 0
M  V30 635 O 57.1728 0.802547 -2.13943 0
M  V30 636 C 57.3828 -2.7663 -2.12783 0
M  V30 637 C 58.7308 -3.25932 -2.72127 0
M  V30 638 O 59.7548 -2.77715 -2.23054 0
M  V30 639 O 58.6138 -4.09897 -3.61451 0
M  V30 640 H 55.7078 -0.596197 -0.57313 0
M  V30 641 H 58.2538 -1.61524 -0.52039 0
M  V30 642 H 57.0258 -3.60916 -1.5118 0
M  V30 643 H 56.6488 -2.66956 -2.94653 0
M  V30 644 N 57.6459 0.756429 -1.3826 0
M  V30 645 C 58.5559 1.9009 -1.37488 0
M  V30 646 C 59.5719 1.71855 -0.272366 0
M  V30 647 O 60.7479 1.94827 -0.510318 0
M  V30 648 C 57.8129 3.25421 -1.19592 0
M  V30 649 C 56.8739 3.56202 -2.39622 0
M  V30 650 C 56.1069 4.85075 -2.2257 0
M  V30 651 O 56.3299 5.57246 -1.21793 0
M  V30 652 O 55.2639 5.15269 -3.11098 0
M  V30 653 H 59.0899 1.93695 -2.33914 0
M  V30 654 H 56.6749 0.901313 -1.1915 0
M  V30 655 H 58.5569 4.06337 -1.11661 0
M  V30 656 H 57.2319 3.22634 -0.262486 0
M  V30 657 H 56.1389 2.75458 -2.53128 0
M  V30 658 H 57.4719 3.63747 -3.31586 0
M  V30 659 N 59.124 1.23083 0.984299 0
M  V30 660 C 60.37 1.06214 1.72761 0
M  V30 661 C 60.703 -0.400584 1.90024 0
M  V30 662 O 59.978 -1.29672 1.44967 0
M  V30 663 C 60.261 1.78375 3.12817 0
M  V30 664 C 60.114 3.32296 3.03149 0
M  V30 665 C 61.433 1.54309 4.12161 0
M  V30 666 H 58.552 0.387251 0.627061 0
M  V30 667 H 61.194 1.51536 1.14616 0
M  V30 668 H 59.344 1.39848 3.62457 0
M  V30 669 H 61.016 3.8032 2.61064 0
M  V30 670 H 59.259 3.6153 2.39747 0
M  V30 671 H 59.93 3.77972 4.02295 0
M  V30 672 H 62.406 1.87791 3.71314 0
M  V30 673 H 61.282 2.07281 5.08258 0
M  V30 674 H 61.543 0.477572 4.39513 0
M  V30 675 N 60.6021 -1.18246 1.0419 0
M  V30 676 C 61.8491 -1.88257 0.746017 0
M  V30 677 C 62.1771 -1.80429 -0.726331 0
M  V30 678 O 61.4321 -1.2 -1.54591 0
M  V30 679 C 61.7311 -3.38082 1.15911 0
M  V30 680 C 61.3971 -3.66114 2.63195 0
M  V30 681 C 60.0591 -3.73474 3.03432 0
M  V30 682 C 62.4111 -3.78398 3.5842 0
M  V30 683 C 59.7391 -3.90599 4.37778 0
M  V30 684 C 62.0911 -3.97039 4.92487 0
M  V30 685 C 60.7551 -4.02635 5.32392 0
M  V30 686 H 60.0251 -0.688883 0.272987 0
M  V30 687 H 62.6721 -1.3995 1.30715 0
M  V30 688 H 60.9771 -3.88377 0.516806 0
M  V30 689 H 62.6741 -3.90596 0.907516 0
M  V30 690 H 59.2641 -3.61003 2.3103 0
M  V30 691 H 63.4481 -3.72042 3.28479 0
M  V30 692 H 58.7041 -3.93175 4.68213 0
M  V30 693 H 62.8781 -4.05486 5.66175 0
M  V30 694 H 60.5051 -4.15657 6.36501 0
M  V30 695 N 62.0802 -0.821533 -1.34494 0
M  V30 696 C 63.4962 -0.507117 -1.51329 0
M  V30 697 C 63.6962 0.968964 -1.76673 0
M  V30 698 O 62.7522 1.75348 -1.81685 0
M  V30 699 C 64.0652 -1.36544 -2.67911 0
M  V30 700 C 65.6132 -1.36242 -2.81793 0
M  V30 701 C 66.0882 -2.2052 -4.01416 0
M  V30 702 N 67.5792 -2.18136 -4.08621 0
M  V30 703 C 68.3142 -2.80095 -5.00334 0
M  V30 704 N 67.8102 -3.51039 -5.9728 0
M  V30 705 N 69.6032 -2.69656 -4.93196 0
M  V30 706 H 61.7542 -1.77729 -1.16302 0
M  V30 707 H 64.0172 -0.757291 -0.570276 0
M  V30 708 H 63.7232 -2.41361 -2.55808 0
M  V30 709 H 63.5972 -1.02917 -3.62888 0
M  V30 710 H 65.9842 -0.322041 -2.93338 0
M  V30 711 H 66.0652 -1.73866 -1.87628 0
M  V30 712 H 65.7092 -3.24607 -3.90631 0
M  V30 713 H 65.6392 -1.80247 -4.94791 0
M  V30 714 H 68.1302 -1.6653 -3.39229 0
M  V30 715 H 68.4432 -3.95565 -6.63889 0
M  V30 716 H 66.7882 -3.55145 -5.97409 0
M  V30 717 H 69.9792 -2.13808 -4.16418 0
M  V30 718 H 70.1522 -3.1823 -5.64476 0
M  V30 719 N 63.5583 1.46682 -0.576371 0
M  V30 720 C 64.9743 1.57822 -0.237562 0
M  V30 721 C 65.1743 1.57237 1.26011 0
M  V30 722 O 64.2303 1.48596 2.04146 0
M  V30 723 C 65.5433 2.87499 -0.881168 0
M  V30 724 C 67.0913 3.01119 -0.85417 0
M  V30 725 C 67.5663 4.33524 -1.4772 0
M  V30 726 N 69.0573 4.40207 -1.44125 0
M  V30 727 C 69.7923 5.4126 -1.89276 0
M  V30 728 N 69.2883 6.49021 -2.42371 0
M  V30 729 N 71.0813 5.32422 -1.80231 0
M  V30 730 H 63.2323 1.45306 -1.54919 0
M  V30 731 H 65.4953 0.692733 -0.647167 0
M  V30 732 H 65.2013 2.9372 -1.93447 0
M  V30 733 H 65.0753 3.75224 -0.385592 0
M  V30 734 H 67.4623 2.94485 0.190491 0
M  V30 735 H 67.5433 2.14887 -1.3877 0
M  V30 736 H 67.1873 4.40916 -2.52103 0
M  V30 737 H 67.1173 5.1852 -0.918947 0
M  V30 738 H 69.6083 3.62931 -1.05307 0
M  V30 739 H 69.9213 7.2233 -2.74698 0
M  V30 740 H 68.2663 6.49858 -2.46393 0
M  V30 741 H 71.4573 4.47137 -1.38514 0
M  V30 742 H 71.6303 6.11034 -2.15735 0
M  V30 743 N 65.0364 0.313813 1.54444 0
M  V30 744 C 65.9664 -0.549454 2.26943 0
M  V30 745 C 66.9474 -1.12741 1.27372 0
M  V30 746 O 68.1324 -1.15436 1.56167 0
M  V30 747 C 65.2624 -1.71523 3.01989 0
M  V30 748 C 64.2164 -1.26703 4.08816 0
M  V30 749 C 63.5424 -2.51898 4.71647 0
M  V30 750 C 64.8424 -0.388962 5.2085 0
M  V30 751 H 66.5364 0.0552661 2.99349 0
M  V30 752 H 64.0824 0.0280207 1.43973 0
M  V30 753 H 66.0354 -2.32535 3.51433 0
M  V30 754 H 64.7594 -2.34639 2.27183 0
M  V30 755 H 63.4184 -0.679896 3.6024 0
M  V30 756 H 63.0664 -3.13356 3.93468 0
M  V30 757 H 62.7664 -2.22605 5.43802 0
M  V30 758 H 64.2904 -3.1369 5.23861 0
M  V30 759 H 65.7044 -0.905107 5.6611 0
M  V30 760 H 64.1014 -0.18924 5.99802 0
M  V30 761 H 65.1714 0.582699 4.81386 0
M  V30 762 N 66.5145 -1.57545 0.0417849 0
M  V30 763 C 67.4625 -2.12148 -0.953723 0
M  V30 764 C 68.4565 -1.05104 -1.32852 0
M  V30 765 O 69.6625 -1.23524 -1.30927 0
M  V30 766 H 66.0375 -0.677957 -0.325389 0
M  V30 767 H 68.0085 -2.94707 -0.467991 0
M  V30 768 C 66.7575 -2.6739 -2.22257 0
M  V30 769 H 66.0805 -3.49413 -1.94295 0
M  V30 770 H 67.5205 -3.09227 -2.90094 0
M  V30 771 C 65.9795 -1.60723 -2.96091 0
M  V30 772 O 66.5095 -1.01449 -3.88679 0
M  V30 773 N 64.7155 -1.32466 -2.58652 0
M  V30 774 H 64.2625 -1.80856 -1.83437 0
M  V30 775 H 64.2205 -0.61325 -3.08361 0
M  V30 776 N 67.9926 0.231505 -1.5589 0
M  V30 777 C 69.2176 0.978689 -1.82856 0
M  V30 778 C 69.6426 1.77559 -0.620846 0
M  V30 779 O 69.0006 1.76119 0.430305 0
M  V30 780 C 69.0486 1.87997 -3.07716 0
M  V30 781 O 68.1526 2.97393 -2.85712 0
M  V30 782 H 67.4936 0.277663 -0.603158 0
M  V30 783 H 70.0236 0.24783 -2.03093 0
M  V30 784 H 70.0336 2.2917 -3.37558 0
M  V30 785 H 68.7086 1.29417 -3.95252 0
M  V30 786 H 67.2856 2.60238 -2.67078 0
M  V30 787 N 69.4707 1.49531 0.497807 0
M  V30 788 C 70.7477 1.49682 1.25915 0
M  V30 789 C 71.1277 0.226339 2.09883 0
M  V30 790 O 70.4757 -0.791189 2.14365 0
M  V30 791 C 70.6857 2.77755 2.11313 0
M  V30 792 C 72.0337 3.27371 2.70395 0
M  V30 793 O 73.0577 2.78894 2.21578 0
M  V30 794 O 71.9167 4.11808 3.59272 0
M  V30 795 H 69.0107 0.599228 0.56996 0
M  V30 796 H 71.5567 1.61798 0.511816 0
M  V30 797 H 70.3287 3.61713 1.49264 0
M  V30 798 H 69.9517 2.68515 2.93233 0
M  V30 799 N 70.9488 -0.749086 1.3866 0
M  V30 800 C 71.9118 -1.84457 1.36045 0
M  V30 801 C 72.9118 -1.58682 0.260122 0
M  V30 802 O 74.1018 -1.66343 0.517261 0
M  V30 803 C 71.2338 -3.22008 1.11911 0
M  V30 804 H 72.4268 -1.88182 2.33512 0
M  V30 805 H 69.9798 -0.951266 1.24019 0
M  V30 806 H 70.7148 -3.2395 0.150686 0
M  V30 807 H 70.4998 -3.42111 1.91579 0
M  V30 808 H 71.9898 -4.0208 1.12788 0
M  V30 809 N 72.4269 -1.23603 -0.977757 0
M  V30 810 C 73.3569 -1.04401 -2.0886 0
M  V30 811 C 74.3379 0.0399052 -1.70053 0
M  V30 812 O 75.5229 -0.125246 -1.93796 0
M  V30 813 C 72.6529 -0.637269 -3.41403 0
M  V30 814 C 71.6069 -1.66883 -3.94124 0
M  V30 815 C 70.9329 -1.11745 -5.22893 0
M  V30 816 C 72.2329 -3.06247 -4.23096 0
M  V30 817 H 73.9269 -1.97316 -2.25182 0
M  V30 818 H 71.4729 -0.950096 -1.08209 0
M  V30 819 H 73.4259 -0.48998 -4.18542 0
M  V30 820 H 72.1499 0.327557 -3.24953 0
M  V30 821 H 70.8089 -1.80416 -3.19133 0
M  V30 822 H 70.4569 -0.143527 -5.02795 0
M  V30 823 H 70.1569 -1.80672 -5.59134 0
M  V30 824 H 71.6809 -0.982067 -6.02651 0
M  V30 825 H 73.0949 -2.96001 -4.90975 0
M  V30 826 H 71.4919 -3.72436 -4.70544 0
M  V30 827 H 72.5619 -3.55041 -3.30263 0
M  V30 828 N 73.905 1.17692 -1.04816 0
M  V30 829 C 75.321 1.39863 -0.768794 0
M  V30 830 C 75.521 1.91118 0.638451 0
M  V30 831 O 74.577 2.10036 1.40146 0
M  V30 832 C 75.89 2.39274 -1.82122 0
M  V30 833 C 77.438 2.52987 -1.843 0
M  V30 834 C 77.913 3.55669 -2.88555 0
M  V30 835 N 79.404 3.63183 -2.87493 0
M  V30 836 C 80.139 4.42381 -3.64811 0
M  V30 837 N 79.635 5.25125 -4.51903 0
M  V30 838 N 81.428 4.37217 -3.53267 0
M  V30 839 H 73.579 0.82752 -1.95617 0
M  V30 840 H 75.842 0.426123 -0.846831 0
M  V30 841 H 75.548 2.08678 -2.83102 0
M  V30 842 H 75.422 3.38725 -1.65967 0
M  V30 843 H 77.809 2.82896 -0.839869 0
M  V30 844 H 77.89 1.53623 -2.04532 0
M  V30 845 H 77.534 3.26499 -3.89051 0
M  V30 846 H 77.464 4.54728 -2.65575 0
M  V30 847 H 79.955 3.04103 -2.24343 0
M  V30 848 H 80.268 5.82728 -5.07591 0
M  V30 849 H 78.613 5.24519 -4.55966 0
M  V30 850 H 81.804 3.71626 -2.84625 0
M  V30 851 H 81.977 4.98696 -4.13771 0
M  V30 852 N 75.3831 0.828654 1.34056 0
M  V30 853 C 76.6321 0.415828 1.97367 0
M  V30 854 C 76.9451 -1.02796 1.6641 0
M  V30 855 O 78.1511 -1.54497 2.23255 0
M  V30 856 C 76.6071 0.692601 3.53173 0
M  V30 857 C 76.2151 2.15038 3.93017 0
M  V30 858 C 77.9591 0.346222 4.23086 0
M  V30 859 C 75.8661 2.37174 5.41758 0
M  V30 860 H 74.7961 0.151755 0.738571 0
M  V30 861 H 77.4471 1.01581 1.52819 0
M  V30 862 H 75.8291 0.0223764 3.95994 0
M  V30 863 H 77.0031 2.86024 3.61285 0
M  V30 864 H 75.3181 2.45875 3.36057 0
M  V30 865 H 77.9151 0.48937 5.32456 0
M  V30 866 H 78.2581 -0.709842 4.10204 0
M  V30 867 H 78.7911 0.971258 3.85761 0
M  V30 868 H 75.5301 3.41308 5.59633 0
M  V30 869 H 75.0501 1.70738 5.74986 0
M  V30 870 H 76.7291 2.19818 6.08514 0
M  V30 871 N 76.8612 -1.46375 0.584142 0
M  V30 872 C 78.0912 -2.06461 0.0758195 0
M  V30 873 C 78.4992 -1.43322 -1.23512 0
M  V30 874 O 77.8422 -0.533216 -1.75791 0
M  V30 875 C 77.9042 -3.59131 -0.162773 0
M  V30 876 C 77.5682 -4.4447 1.06279 0
M  V30 877 C 78.5652 -4.80918 1.97519 0
M  V30 878 C 76.2502 -4.85584 1.28504 0
M  V30 879 C 78.2442 -5.57309 3.09331 0
M  V30 880 C 75.9312 -5.61734 2.4062 0
M  V30 881 C 76.9292 -5.9751 3.30863 0
M  V30 882 O 76.6172 -6.72121 4.41032 0
M  V30 883 H 76.3492 -0.673745 0.0551725 0
M  V30 884 H 78.9032 -1.88969 0.804984 0
M  V30 885 H 77.1332 -3.74936 -0.946565 0
M  V30 886 H 78.8222 -4.0114 -0.619782 0
M  V30 887 H 79.5882 -4.49732 1.81565 0
M  V30 888 H 75.4672 -4.57187 0.591702 0
M  V30 889 H 79.0112 -5.85152 3.79793 0
M  V30 890 H 74.9082 -5.92334 2.56537 0
M  V30 891 H 75.6762 -6.90547 4.39417 0
M  V30 892 N 78.3393 -0.321999 -1.54275 0
M  V30 893 C 79.5693 0.282642 -2.04658 0
M  V30 894 C 79.9773 1.46453 -1.19784 0
M  V30 895 O 79.3203 1.82367 -0.220932 0
M  V30 896 C 79.3823 0.781857 -3.50895 0
M  V30 897 C 79.0463 -0.277517 -4.56157 0
M  V30 898 C 80.0433 -1.11307 -5.07845 0
M  V30 899 C 77.7283 -0.425256 -5.00497 0
M  V30 900 C 79.7223 -2.08211 -6.02434 0
M  V30 901 C 77.4093 -1.39771 -5.94901 0
M  V30 902 C 78.4073 -2.2246 -6.45756 0
M  V30 903 O 78.0953 -3.18054 -7.38307 0
M  V30 904 H 77.8273 0.0622636 -0.673126 0
M  V30 905 H 80.3813 -0.465792 -2.00049 0
M  V30 906 H 78.6113 1.58118 -3.52896 0
M  V30 907 H 80.3003 1.30467 -3.84361 0
M  V30 908 H 81.0663 -1.00991 -4.74369 0
M  V30 909 H 76.9453 0.20847 -4.60528 0
M  V30 910 H 80.4893 -2.72791 -6.42052 0
M  V30 911 H 76.3863 -1.50152 -6.27794 0
M  V30 912 H 77.1543 -3.13275 -7.56175 0
M  V30 913 N 79.8174 1.5752 -0.0501392 0
M  V30 914 C 81.0944 1.83996 0.663685 0
M  V30 915 C 81.4744 0.938339 1.89099 0
M  V30 916 O 80.8224 -0.00087759 2.285 0
M  V30 917 C 81.0324 3.33702 1.02196 0
M  V30 918 C 82.3804 4.00691 1.40469 0
M  V30 919 O 83.4044 3.38321 1.11433 0
M  V30 920 O 82.2634 5.10658 1.94654 0
M  V30 921 H 79.3574 0.759385 0.32751 0
M  V30 922 H 81.9034 1.69514 -0.0794238 0
M  V30 923 H 80.6754 3.91015 0.149364 0
M  V30 924 H 80.2984 3.53368 1.82255 0
M  V30 925 N 81.2955 -0.223234 1.56011 0
M  V30 926 C 82.5205 -0.968978 1.83373 0
M  V30 927 C 82.9455 -1.77227 0.630254 0
M  V30 928 O 82.3035 -1.76345 -0.420959 0
M  V30 929 C 82.3515 -1.86363 3.08709 0
M  V30 930 O 81.4555 -2.95873 2.87285 0
M  V30 931 H 80.7965 -0.274461 0.604622 0
M  V30 932 H 83.3265 -0.237056 2.03222 0
M  V30 933 H 83.3365 -2.27376 3.38768 0
M  V30 934 H 82.0115 -1.27319 3.95933 0
M  V30 935 H 80.5885 -2.58818 2.68454 0
M  V30 936 N 82.7736 -1.49793 -0.48987 0
M  V30 937 C 84.1846 -1.52914 -1.07118 0
M  V30 938 C 84.5356 -0.321738 -1.93544 0
M  V30 939 O 83.6606 0.567338 -2.08831 0
M  V30 940 C 84.2556 -2.771 -1.94938 0
M  V30 941 C 82.8146 -2.82963 -2.48212 0
M  V30 942 C 81.9616 -2.46972 -1.26096 0
M  V30 943 H 84.9126 -1.56329 -0.273289 0
M  V30 944 H 84.9336 -2.57892 -2.79771 0
M  V30 945 H 84.4456 -3.64959 -1.32009 0
M  V30 946 H 82.5466 -1.99411 -3.14748 0
M  V30 947 H 82.6596 -3.85406 -2.84603 0
M  V30 948 H 81.0236 -1.98994 -1.58976 0
M  V30 949 H 81.8066 -3.37118 -0.648581 0
M  V30 950 N 84.2517 0.741722 -1.39055 0
M  V30 951 C 85.5287 1.49252 -1.26425 0
M  V30 952 C 85.9087 2.10705 0.129144 0
M  V30 953 O 85.2567 1.98045 1.13976 0
M  V30 954 C 85.4667 2.54934 -2.38347 0
M  V30 955 C 86.8147 3.21506 -2.77343 0
M  V30 956 O 87.8387 2.65245 -2.37747 0
M  V30 957 O 86.6977 4.23294 -3.45665 0
M  V30 958 H 83.7917 0.662451 -0.495064 0
M  V30 959 H 86.3377 0.776121 -1.50912 0
M  V30 960 H 85.1097 2.07857 -3.31529 0
M  V30 961 H 84.7327 3.34141 -2.15489 0
M  V30 962 N 85.7298 1.2412 0.971189 0
M  V30 963 C 86.6398 1.04747 2.09917 0
M  V30 964 C 87.6558 -0.0107162 1.73997 0
M  V30 965 O 88.8318 0.186714 2.00533 0
M  V30 966 C 85.8968 0.650828 3.40537 0
M  V30 967 C 84.9578 1.7851 3.90426 0
M  V30 968 C 84.1908 1.40729 5.14812 0
M  V30 969 O 84.4138 0.29557 5.69634 0
M  V30 970 O 83.3478 2.23168 5.58999 0
M  V30 971 H 87.1738 1.99304 2.29154 0
M  V30 972 H 84.7588 1.02908 1.08307 0
M  V30 973 H 86.6408 0.440992 4.19086 0
M  V30 974 H 85.3158 -0.265649 3.22608 0
M  V30 975 H 84.2228 2.04966 3.12953 0
M  V30 976 H 85.5558 2.68023 4.12825 0
M  V30 977 N 87.2079 -1.17134 1.05439 0
M  V30 978 C 88.1179 -2.24878 0.668365 0
M  V30 979 C 89.1339 -1.71186 -0.311687 0
M  V30 980 O 90.3099 -2.00738 -0.163161 0
M  V30 981 C 87.3749 -3.46662 0.051648 0
M  V30 982 C 86.4359 -4.15429 1.08246 0
M  V30 983 C 85.6689 -5.31399 0.495082 0
M  V30 984 O 85.8919 -5.66153 -0.694743 0
M  V30 985 O 84.8259 -5.89187 1.23056 0
M  V30 986 H 88.6519 -2.60189 1.56637 0
M  V30 987 H 86.2369 -1.24482 0.826104 0
M  V30 988 H 88.1189 -4.20394 -0.290966 0
M  V30 989 H 86.7939 -3.13142 -0.819971 0
M  V30 990 H 85.7009 -3.43704 1.47711 0
M  V30 991 H 87.0339 -4.52982 1.92532 0
M  V30 992 N 88.686 -0.835752 -1.33615 0
M  V30 993 C 89.616 -0.281739 -2.31794 0
M  V30 994 C 90.597 0.608833 -1.58831 0
M  V30 995 O 91.782 0.533035 -1.86741 0
M  V30 996 C 88.912 0.546612 -3.42971 0
M  V30 997 C 87.866 -0.247904 -4.27281 0
M  V30 998 C 87.192 0.704001 -5.30045 0
M  V30 999 C 88.492 -1.46324 -5.01385 0
M  V30 1000 H 90.186 -1.10206 -2.78379 0
M  V30 1001 H 87.732 -0.531388 -1.33837 0
M  V30 1002 H 89.685 0.944467 -4.1068 0
M  V30 1003 H 88.409 1.40011 -2.95067 0
M  V30 1004 H 87.068 -0.627281 -3.61194 0
M  V30 1005 H 86.716 1.55381 -4.78399 0
M  V30 1006 H 86.416 0.176524 -5.87335 0
M  V30 1007 H 87.94 1.09944 -6.0062 0
M  V30 1008 H 89.354 -1.13871 -5.61877 0
M  V30 1009 H 87.751 -1.92728 -5.6831 0
M  V30 1010 H 88.821 -2.23467 -4.30338 0
M  V30 1011 N 90.1641 1.46063 -0.591896 0
M  V30 1012 C 91.4131 2.01547 -0.0786637 0
M  V30 1013 C 91.7261 1.46796 1.29268 0
M  V30 1014 O 92.9321 1.94157 1.89777 0
M  V30 1015 C 91.3881 3.59787 -0.0900024 0
M  V30 1016 C 90.9961 4.23534 -1.46023 0
M  V30 1017 C 92.7401 4.22895 0.368806 0
M  V30 1018 C 90.6471 5.73881 -1.4288 0
M  V30 1019 H 89.5771 0.753564 -0.0256388 0
M  V30 1020 H 92.2281 1.677 -0.744905 0
M  V30 1021 H 90.6101 3.90752 0.642586 0
M  V30 1022 H 91.7841 4.04167 -2.21328 0
M  V30 1023 H 90.0991 3.72558 -1.85982 0
M  V30 1024 H 92.6961 5.33116 0.411258 0
M  V30 1025 H 93.0391 3.9247 1.38827 0
M  V30 1026 H 93.5721 3.9659 -0.31001 0
M  V30 1027 H 90.3111 6.0898 -2.42536 0
M  V30 1028 H 89.8311 5.95486 -0.718095 0
M  V30 1029 H 91.5101 6.36776 -1.14565 0
M  V30 1030 N 91.6422 0.330177 1.54103 0
M  V30 1031 C 92.5522 -0.541534 2.28264 0
M  V30 1032 C 93.5682 -1.12351 1.32866 0
M  V30 1033 O 94.7442 -1.14206 1.65888 0
M  V30 1034 C 91.8092 -1.68322 3.03098 0
M  V30 1035 C 90.8702 -1.13238 4.14096 0
M  V30 1036 C 90.1032 -2.21966 4.85352 0
M  V30 1037 O 90.3262 -3.42437 4.56172 0
M  V30 1038 O 89.2602 -1.87013 5.7211 0
M  V30 1039 H 93.0862 0.060938 3.03639 0
M  V30 1040 H 90.6712 0.09565 1.49093 0
M  V30 1041 H 92.5532 -2.34777 3.49939 0
M  V30 1042 H 91.2282 -2.27176 2.30593 0
M  V30 1043 H 90.1352 -0.432736 3.71589 0
M  V30 1044 H 91.4682 -0.588898 4.88664 0
M  V30 1045 N 93.1203 -1.57491 0.0584922 0
M  V30 1046 C 94.0673 -2.11958 -0.913376 0
M  V30 1047 C 95.0373 -1.02875 -1.30407 0
M  V30 1048 O 96.2223 -1.30464 -1.39226 0
M  V30 1049 C 93.3623 -2.67497 -2.18035 0
M  V30 1050 C 92.4753 -3.90691 -1.84349 0
M  V30 1051 C 91.6103 -4.3452 -3.05559 0
M  V30 1052 C 90.6493 -5.50395 -2.67827 0
M  V30 1053 N 89.7863 -5.89244 -3.81754 0
M  V30 1054 H 94.6263 -2.94704 -0.442017 0
M  V30 1055 H 92.1633 -1.45643 -0.206545 0
M  V30 1056 H 94.1213 -2.978 -2.92183 0
M  V30 1057 H 92.7513 -1.87537 -2.62735 0
M  V30 1058 H 91.8033 -3.66934 -1.00319 0
M  V30 1059 H 93.1153 -4.7489 -1.5258 0
M  V30 1060 H 92.2693 -4.66414 -3.87998 0
M  V30 1061 H 91.0083 -3.49147 -3.40511 0
M  V30 1062 H 90.0133 -5.18165 -1.83806 0
M  V30 1063 H 91.2383 -6.3749 -2.34059 0
M  V30 1064 H 89.1843 -5.06823 -4.16493 0
M  V30 1065 H 89.1013 -6.68151 -3.53708 0
M  V30 1066 H 90.3693 -6.25756 -4.64811 0
M  V30 1067 N 94.5984 0.214957 -1.56127 0
M  V30 1068 C 95.8474 0.936451 -1.78643 0
M  V30 1069 C 96.1604 1.85237 -0.628229 0
M  V30 1070 O 97.3664 2.613 -0.737186 0
M  V30 1071 C 95.8224 1.7154 -3.16389 0
M  V30 1072 C 95.4304 0.845299 -4.39953 0
M  V30 1073 C 97.1744 2.42772 -3.48227 0
M  V30 1074 C 95.0814 1.62198 -5.68723 0
M  V30 1075 H 94.0114 0.353401 -0.666051 0
M  V30 1076 H 96.6624 0.190169 -1.82512 0
M  V30 1077 H 95.0444 2.50484 -3.06715 0
M  V30 1078 H 96.2184 0.0959353 -4.607 0
M  V30 1079 H 94.5334 0.244789 -4.1568 0
M  V30 1080 H 97.1304 3.01394 -4.41663 0
M  V30 1081 H 97.4734 3.15984 -2.71035 0
M  V30 1082 H 98.0064 1.70813 -3.5926 0
M  V30 1083 H 94.7454 0.933011 -6.48826 0
M  V30 1084 H 94.2654 2.34579 -5.52026 0
M  V30 1085 H 95.9444 2.18095 -6.09133 0
M  V30 1086 N 96.0765 1.50051 0.48192 0
M  V30 1087 C 97.0065 1.71046 1.58951 0
M  V30 1088 C 97.9875 0.559288 1.60642 0
M  V30 1089 O 99.1725 0.797243 1.77081 0
M  V30 1090 C 96.3025 1.79462 2.97339 0
M  V30 1091 C 95.2565 2.94558 3.10515 0
M  V30 1092 C 94.5825 2.88105 4.50444 0
M  V30 1093 C 95.8825 4.35227 2.88747 0
M  V30 1094 H 97.5765 2.6378 1.41635 0
M  V30 1095 H 95.1225 1.26936 0.679942 0
M  V30 1096 H 97.0755 1.92734 3.74742 0
M  V30 1097 H 95.7995 0.833412 3.15788 0
M  V30 1098 H 94.4585 2.80918 2.35543 0
M  V30 1099 H 94.1065 1.89853 4.65795 0
M  V30 1100 H 93.8065 3.65366 4.60197 0
M  V30 1101 H 95.3305 3.03412 5.29881 0
M  V30 1102 H 96.7445 4.49449 3.55905 0
M  V30 1103 H 95.1415 5.13856 3.09955 0
M  V30 1104 H 96.2115 4.48347 1.84696 0
M  V30 1105 N 97.5546 -0.734337 1.39446 0
M  V30 1106 C 98.7796 -1.52866 1.40167 0
M  V30 1107 C 99.2046 -1.881 -0.00171513 0
M  V30 1108 O 98.5626 -1.51957 -0.988879 0
M  V30 1109 C 98.6106 -2.79235 2.28167 0
M  V30 1110 O 97.7146 -3.75185 1.71201 0
M  V30 1111 H 97.0556 -0.461618 0.477289 0
M  V30 1112 H 99.5856 -0.905949 1.8345 0
M  V30 1113 H 99.5956 -3.27963 2.42702 0
M  V30 1114 H 98.2706 -2.52923 3.30156 0
M  V30 1115 H 96.8476 -3.33958 1.65912 0
M  V30 1116 N 99.0327 -1.24633 -0.964593 0
M  V30 1117 C 100.263 -1.11339 -1.74032 0
M  V30 1118 C 100.671 0.336593 -1.86182 0
M  V30 1119 O 100.014 1.24389 -1.35178 0
M  V30 1120 C 100.076 -1.68284 -3.1768 0
M  V30 1121 C 99.7397 -3.17196 -3.28992 0
M  V30 1122 C 100.737 -4.14308 -3.14078 0
M  V30 1123 C 98.4217 -3.57215 -3.53133 0
M  V30 1124 C 100.416 -5.4942 -3.23135 0
M  V30 1125 C 98.1027 -4.92468 -3.61827 0
M  V30 1126 C 99.1007 -5.8838 -3.46841 0
M  V30 1127 O 98.7887 -7.21173 -3.55197 0
M  V30 1128 H 98.5207 -0.389551 -0.552472 0
M  V30 1129 H 101.075 -1.65282 -1.21946 0
M  V30 1130 H 99.3047 -1.08777 -3.71085 0
M  V30 1131 H 100.994 -1.50234 -3.77074 0
M  V30 1132 H 101.76 -3.84731 -2.95308 0
M  V30 1133 H 97.6387 -2.83063 -3.63863 0
M  V30 1134 H 101.183 -6.24263 -3.11355 0
M  V30 1135 H 97.0797 -5.21714 -3.80111 0
M  V30 1136 H 97.8477 -7.29135 -3.71892 0
M  V30 1137 N 100.511 1.16574 -1.06058 0
M  V30 1138 C 101.441 2.23057 -0.690488 0
M  V30 1139 C 102.422 1.67141 0.315901 0
M  V30 1140 O 103.607 1.93253 0.191556 0
M  V30 1141 C 100.737 3.47222 -0.073625 0
M  V30 1142 C 99.6908 4.16016 -1.00573 0
M  V30 1143 C 99.0168 5.34104 -0.252289 0
M  V30 1144 C 100.317 4.67264 -2.33371 0
M  V30 1145 H 102.011 2.54271 -1.58072 0
M  V30 1146 H 99.5568 1.22218 -0.76149 0
M  V30 1147 H 101.51 4.20939 0.19714 0
M  V30 1148 H 100.234 3.15302 0.85161 0
M  V30 1149 H 98.8928 3.44223 -1.2612 0
M  V30 1150 H 98.5408 4.98437 0.675988 0
M  V30 1151 H 98.2408 5.81072 -0.873455 0
M  V30 1152 H 99.7648 6.10599 0.0109857 0
M  V30 1153 H 101.179 5.32573 -2.12223 0
M  V30 1154 H 99.5758 5.24843 -2.90963 0
M  V30 1155 H 100.646 3.83602 -2.96611 0
M  V30 1156 N 101.989 0.842826 1.3317 0
M  V30 1157 C 103.266 0.362216 1.92217 0
M  V30 1158 C 103.646 -1.15289 1.76838 0
M  V30 1159 O 102.994 -1.96914 1.15919 0
M  V30 1160 C 103.204 0.813495 3.39387 0
M  V30 1161 C 104.552 0.823804 4.16532 0
M  V30 1162 O 105.576 0.757358 3.48055 0
M  V30 1163 O 104.435 0.915193 5.38782 0
M  V30 1164 H 101.529 0.103317 0.820521 0
M  V30 1165 H 104.075 0.928942 1.42017 0
M  V30 1166 H 102.847 1.85624 3.4447 0
M  V30 1167 H 102.47 0.223561 3.96971 0
M  V30 1168 N 103.467 -1.45747 0.599634 0
M  V30 1169 C 104.695 -2.06668 0.0978551 0
M  V30 1170 C 105.11 -1.44562 -1.21439 0
M  V30 1171 O 104.467 -0.556923 -1.73795 0
M  V30 1172 C 104.518 -3.61456 -0.0567044 0
M  V30 1173 O 104.239 -4.21242 1.20361 0
M  V30 1174 C 105.74 -4.39345 -0.590869 0
M  V30 1175 H 102.96 -0.667825 0.0651943 0
M  V30 1176 H 105.504 -1.87115 0.82511 0
M  V30 1177 H 103.659 -3.80378 -0.734251 0
M  V30 1178 H 104.073 -5.14323 1.02821 0
M  V30 1179 H 105.547 -5.48182 -0.648131 0
M  V30 1180 H 106.024 -4.08568 -1.61147 0
M  V30 1181 H 106.63 -4.25268 0.0523679 0
M  V30 1182 N 104.945 -0.338344 -1.53925 0
M  V30 1183 C 106.222 0.314774 -1.93051 0
M  V30 1184 C 106.602 1.68669 -1.26941 0
M  V30 1185 O 105.95 2.24636 -0.418445 0
M  V30 1186 C 106.16 0.392249 -3.46789 0
M  V30 1187 C 107.508 0.645554 -4.19664 0
M  V30 1188 O 108.532 0.474575 -3.53024 0
M  V30 1189 O 107.391 0.976408 -5.37707 0
M  V30 1190 H 104.485 0.182598 -0.80659 0
M  V30 1191 H 107.031 -0.389141 -1.65178 0
M  V30 1192 H 105.803 -0.570702 -3.87116 0
M  V30 1193 H 105.426 1.14316 -3.80812 0
M  V30 1194 N 106.423 1.57458 -0.0668435 0
M  V30 1195 C 107.67 1.93301 0.603406 0
M  V30 1196 C 107.998 0.946486 1.69917 0
M  V30 1197 O 107.253 -0.0387021 1.95662 0
M  V30 1198 C 107.552 3.35784 1.22409 0
M  V30 1199 C 107.218 4.50179 0.254955 0
M  V30 1200 C 105.88 4.81199 -0.0116746 0
M  V30 1201 C 108.232 5.19598 -0.408338 0
M  V30 1202 C 105.56 5.78978 -0.94877 0
M  V30 1203 C 107.912 6.18381 -1.33372 0
M  V30 1204 C 106.576 6.47821 -1.60887 0
M  V30 1205 H 105.846 0.707338 0.220802 0
M  V30 1206 H 108.493 1.91012 -0.136665 0
M  V30 1207 H 106.798 3.34515 2.03978 0
M  V30 1208 H 108.495 3.60804 1.74989 0
M  V30 1209 H 105.085 4.25983 0.472954 0
M  V30 1210 H 109.269 4.95832 -0.215456 0
M  V30 1211 H 104.525 6.00115 -1.16925 0
M  V30 1212 H 108.699 6.71277 -1.85367 0
M  V30 1213 H 106.326 7.23399 -2.33661 0
M  V30 1214 N 107.901 -0.206675 1.56239 0
M  V30 1215 C 108.831 -1.25909 1.96645 0
M  V30 1216 C 109.812 -1.48097 0.836734 0
M  V30 1217 O 110.997 -1.6003 1.10019 0
M  V30 1218 C 108.127 -2.6058 2.29599 0
M  V30 1219 C 107.081 -2.53024 3.452 0
M  V30 1220 C 106.407 -3.91861 3.63798 0
M  V30 1221 C 107.707 -2.06524 4.79734 0
M  V30 1222 H 109.401 -0.923369 2.84806 0
M  V30 1223 H 106.947 -0.442735 1.37025 0
M  V30 1224 H 108.9 -3.34375 2.56459 0
M  V30 1225 H 107.624 -2.95869 1.38307 0
M  V30 1226 H 106.283 -1.81684 3.18412 0
M  V30 1227 H 105.931 -4.24483 2.69857 0
M  V30 1228 H 105.631 -3.87683 4.4156 0
M  V30 1229 H 107.155 -4.67296 3.93022 0
M  V30 1230 H 108.569 -2.70072 5.05702 0
M  V30 1231 H 106.966 -2.13374 5.60885 0
M  V30 1232 H 108.036 -1.01802 4.74093 0
M  V30 1233 N 109.379 -1.50304 -0.473955 0
M  V30 1234 C 110.604 -1.65175 -1.25427 0
M  V30 1235 C 111.029 -0.333673 -1.85117 0
M  V30 1236 O 110.387 0.702114 -1.67153 0
M  V30 1237 C 110.435 -2.74295 -2.34082 0
M  V30 1238 O 109.539 -2.35349 -3.38651 0
M  V30 1239 H 108.88 -0.551944 -0.369126 0
M  V30 1240 H 111.41 -1.96662 -0.564364 0
M  V30 1241 H 111.42 -2.97285 -2.79438 0
M  V30 1242 H 110.095 -3.69959 -1.90008 0
M  V30 1243 H 108.672 -2.22794 -2.99027 0
M  V30 1244 N 110.857 0.726932 -1.39834 0
M  V30 1245 C 111.804 1.841 -1.39197 0
M  V30 1246 C 112.774 1.642 -0.250502 0
M  V30 1247 O 113.959 1.85494 -0.446846 0
M  V30 1248 C 111.099 3.21697 -1.24919 0
M  V30 1249 C 110.212 3.53247 -2.48678 0
M  V30 1250 C 109.347 4.80289 -2.26928 0
M  V30 1251 C 108.386 5.04707 -3.4632 0
M  V30 1252 N 107.523 6.22956 -3.23836 0
M  V30 1253 H 112.363 1.83979 -2.34427 0
M  V30 1254 H 109.9 0.898876 -1.16442 0
M  V30 1255 H 111.858 4.01137 -1.1465 0
M  V30 1256 H 110.488 3.21076 -0.333153 0
M  V30 1257 H 109.54 2.68447 -2.69519 0
M  V30 1258 H 110.852 3.67205 -3.37582 0
M  V30 1259 H 110.006 5.67725 -2.13947 0
M  V30 1260 H 108.745 4.68519 -1.35431 0
M  V30 1261 H 107.75 4.1573 -3.5979 0
M  V30 1262 H 108.975 5.18357 -4.38729 0
M  V30 1263 H 106.921 6.12459 -2.35011 0
M  V30 1264 H 106.838 6.37539 -4.063 0
M  V30 1265 H 108.106 7.1321 -3.14566 0
M  V30 1266 N 112.336 1.25143 0.95797 0
M  V30 1267 C 113.284 1.05019 2.07542 0
M  V30 1268 C 114.278 -0.0178751 1.69391 0
M  V30 1269 O 115.484 0.137472 1.79474 0
M  V30 1270 H 111.859 0.32265 0.679265 0
M  V30 1271 H 113.83 1.99759 2.21673 0
M  V30 1272 C 112.579 0.682074 3.40944 0
M  V30 1273 H 111.902 1.49573 3.70767 0
M  V30 1274 H 113.342 0.580945 4.20001 0
M  V30 1275 C 111.801 -0.611608 3.31302 0
M  V30 1276 O 112.331 -1.65465 3.66038 0
M  V30 1277 N 110.537 -0.595982 2.84423 0
M  V30 1278 H 110.084 0.253192 2.56353 0
M  V30 1279 H 110.042 -1.46173 2.78354 0
M  V30 1280 N 113.814 -1.1601 1.06675 0
M  V30 1281 C 114.762 -2.22586 0.675157 0
M  V30 1282 C 115.756 -1.66525 -0.310766 0
M  V30 1283 O 116.962 -1.79145 -0.175215 0
M  V30 1284 H 113.337 -0.724855 0.200223 0
M  V30 1285 H 115.308 -2.52899 1.58381 0
M  V30 1286 C 114.057 -3.47604 0.0817162 0
M  V30 1287 H 113.38 -3.91058 0.831484 0
M  V30 1288 H 114.82 -4.23718 -0.154708 0
M  V30 1289 C 113.279 -3.15718 -1.17576 0
M  V30 1290 O 113.809 -3.31878 -2.26318 0
M  V30 1291 N 112.015 -2.69816 -1.07923 0
M  V30 1292 H 111.562 -2.56866 -0.194293 0
M  V30 1293 H 111.52 -2.48855 -1.92141 0
M  V30 1294 N 115.292 -0.849877 -1.32721 0
M  V30 1295 C 116.538 -0.451591 -1.97708 0
M  V30 1296 C 116.871 0.989175 -1.6712 0
M  V30 1297 O 116.146 1.69334 -0.956891 0
M  V30 1298 C 116.429 -0.685598 -3.53513 0
M  V30 1299 C 116.282 -2.17444 -3.93749 0
M  V30 1300 C 117.601 -0.138874 -4.39881 0
M  V30 1301 H 114.72 -0.16555 -0.718166 0
M  V30 1302 H 117.362 -1.06742 -1.57182 0
M  V30 1303 H 115.512 -0.161416 -3.88165 0
M  V30 1304 H 117.184 -2.76433 -3.693 0
M  V30 1305 H 115.427 -2.65476 -3.43081 0
M  V30 1306 H 116.098 -2.28888 -5.02309 0
M  V30 1307 H 118.574 -0.587068 -4.11938 0
M  V30 1308 H 117.45 -0.332213 -5.47894 0
M  V30 1309 H 117.711 0.95806 -4.31594 0
M  V30 1310 N 116.77 1.45427 -0.607355 0
M  V30 1311 C 117.995 2.07124 -0.107006 0
M  V30 1312 C 118.42 1.44906 1.19933 0
M  V30 1313 O 117.778 0.541687 1.73019 0
M  V30 1314 C 117.826 3.60595 0.0194119 0
M  V30 1315 O 116.93 3.98285 1.0697 0
M  V30 1316 H 116.271 0.659868 -0.0739597 0
M  V30 1317 H 118.801 1.86683 -0.837297 0
M  V30 1318 H 118.811 4.07419 0.2177 0
M  V30 1319 H 117.486 4.05266 -0.934453 0
M  V30 1320 H 116.063 3.63133 0.847889 0
M  V30 1321 N 118.248 0.346503 1.53744 0
M  V30 1322 C 119.494 -0.249473 2.0126 0
M  V30 1323 C 119.827 -1.49965 1.23386 0
M  V30 1324 O 119.102 -1.91811 0.32229 0
M  V30 1325 C 119.385 -0.560643 3.55709 0
M  V30 1326 C 119.238 0.701836 4.44291 0
M  V30 1327 C 120.557 -1.36905 4.18264 0
M  V30 1328 H 117.676 -0.0891987 0.731582 0
M  V30 1329 H 120.318 0.467624 1.84156 0
M  V30 1330 H 118.468 -1.17156 3.70414 0
M  V30 1331 H 120.14 1.33974 4.41417 0
M  V30 1332 H 118.383 1.32612 4.13033 0
M  V30 1333 H 119.054 0.43933 5.50249 0
M  V30 1334 H 121.53 -0.852448 4.07275 0
M  V30 1335 H 120.406 -1.55553 5.26398 0
M  V30 1336 H 120.667 -2.37203 3.73078 0
M  V30 1337 N 119.726 -1.57421 0.075193 0
M  V30 1338 C 120.974 -1.93236 -0.591974 0
M  V30 1339 C 121.295 -0.956241 -1.69944 0
M  V30 1340 O 120.565 -0.00494792 -1.95899 0
M  V30 1341 H 119.145 -0.713355 -0.22166 0
M  V30 1342 H 121.807 -1.9444 0.133848 0
M  V30 1343 H 120.903 -2.95131 -1.01509 0
M  V30 1344 N 121.204 0.198386 -1.56346 0
M  V30 1345 C 122.152 1.26538 -1.95169 0
M  V30 1346 C 123.146 1.47295 -0.836685 0
M  V30 1347 O 124.352 1.48195 -1.02167 0
M  V30 1348 H 120.727 0.424744 -0.620561 0
M  V30 1349 H 122.698 0.910904 -2.84157 0
M  V30 1350 C 121.447 2.6035 -2.30463 0
M  V30 1351 H 120.77 2.45192 -3.15786 0
M  V30 1352 H 122.21 3.33762 -2.61494 0
M  V30 1353 C 120.669 3.17096 -1.13806 0
M  V30 1354 O 121.199 3.99588 -0.41135 0
M  V30 1355 N 119.405 2.75795 -0.915736 0
M  V30 1356 H 118.952 2.08816 -1.50843 0
M  V30 1357 H 118.91 3.14101 -0.136979 0
M  V30 1358 N 122.682 1.50554 0.465978 0
M  V30 1359 C 123.93 1.61479 1.21528 0
M  V30 1360 C 124.251 0.319596 1.92363 0
M  V30 1361 O 123.521 -0.663194 1.84333 0
M  V30 1362 H 122.101 0.595055 0.451573 0
M  V30 1363 H 124.763 1.87355 0.53704 0
M  V30 1364 H 123.859 2.42846 1.96042 0
M  V30 1365 N 124.16 -0.719506 1.40217 0
M  V30 1366 C 125.123 -1.8153 1.39927 0
M  V30 1367 C 126.123 -1.58095 0.293723 0
M  V30 1368 O 127.313 -1.65209 0.552429 0
M  V30 1369 C 124.445 -3.19561 1.18716 0
M  V30 1370 H 125.638 -1.83186 2.37451 0
M  V30 1371 H 123.191 -0.924746 1.26008 0
M  V30 1372 H 123.926 -3.23557 0.219366 0
M  V30 1373 H 123.711 -3.3797 1.98793 0
M  V30 1374 H 125.201 -3.99598 1.21291 0
M  V30 1375 N 125.638 -1.25649 -0.95132 0
M  V30 1376 C 126.915 -1.01361 -1.67288 0
M  V30 1377 C 127.295 0.459135 -2.06046 0
M  V30 1378 O 126.643 1.43723 -1.7764 0
M  V30 1379 C 126.853 -1.95256 -2.89268 0
M  V30 1380 C 128.201 -2.23289 -3.61147 0
M  V30 1381 O 129.225 -1.93041 -2.99355 0
M  V30 1382 O 128.084 -2.74741 -4.72419 0
M  V30 1383 H 125.178 -0.38464 -0.732107 0
M  V30 1384 H 127.724 -1.36817 -1.00395 0
M  V30 1385 H 126.496 -2.94685 -2.57442 0
M  V30 1386 H 126.119 -1.60218 -3.6389 0
M  V30 1387 N 127.117 1.15442 -1.07289 0
M  V30 1388 C 128.027 2.23786 -0.704057 0
M  V30 1389 C 129.043 1.7166 0.284413 0
M  V30 1390 O 130.219 2.00972 0.131205 0
M  V30 1391 C 127.284 3.46535 -0.106792 0
M  V30 1392 C 126.345 4.13654 -1.14842 0
M  V30 1393 C 125.578 5.30544 -0.57956 0
M  V30 1394 O 125.801 5.67187 0.604585 0
M  V30 1395 O 124.735 5.87154 -1.32414 0
M  V30 1396 H 128.561 2.57664 -1.60757 0
M  V30 1397 H 126.146 1.23152 -0.845803 0
M  V30 1398 H 128.028 4.20804 0.224048 0
M  V30 1399 H 126.703 3.14407 0.770049 0
M  V30 1400 H 125.61 3.4131 -1.5316 0
M  V30 1401 H 126.943 4.49861 -1.99714 0
M  V30 1402 N 128.595 0.856903 1.32268 0
M  V30 1403 C 129.844 0.457599 1.96441 0
M  V30 1404 C 130.157 -0.992426 1.68553 0
M  V30 1405 O 131.363 -1.49727 2.26482 0
M  V30 1406 C 129.819 0.767358 3.51624 0
M  V30 1407 C 129.427 2.23326 3.88367 0
M  V30 1408 C 131.171 0.435887 4.22256 0
M  V30 1409 C 129.078 2.48613 5.36606 0
M  V30 1410 H 128.008 0.167387 0.735185 0
M  V30 1411 H 130.659 1.048 1.5063 0
M  V30 1412 H 129.041 0.106367 3.95857 0
M  V30 1413 H 130.215 2.93623 3.55137 0
M  V30 1414 H 128.53 2.52948 3.30766 0
M  V30 1415 H 131.127 0.602202 5.31298 0
M  V30 1416 H 131.47 -0.622672 4.11617 0
M  V30 1417 H 132.003 1.05286 3.83614 0
M  V30 1418 H 128.742 3.53101 5.52268 0
M  V30 1419 H 128.262 1.82896 5.71235 0
M  V30 1420 H 129.941 2.32676 6.03714 0
M  V30 1421 N 130.073 -1.45103 0.615059 0
M  V30 1422 C 131.322 -2.01396 0.110718 0
M  V30 1423 C 131.635 -1.48834 -1.26916 0
M  V30 1424 O 132.841 -1.97152 -1.86664 0
M  V30 1425 C 131.297 -3.59599 0.14723 0
M  V30 1426 C 130.905 -4.21158 1.52743 0
M  V30 1427 C 132.649 -4.23428 -0.30148 0
M  V30 1428 C 130.556 -5.71535 1.51992 0
M  V30 1429 H 129.486 -0.753061 0.0376241 0
M  V30 1430 H 132.137 -1.66494 0.77149 0
M  V30 1431 H 130.519 -3.91724 -0.580339 0
M  V30 1432 H 131.693 -4.00594 2.2773 0
M  V30 1433 H 130.008 -3.69552 1.91886 0
M  V30 1434 H 132.605 -5.33703 -0.326392 0
M  V30 1435 H 132.948 -3.94629 -1.32565 0
M  V30 1436 H 133.481 -3.96047 0.373065 0
M  V30 1437 H 130.22 -6.05044 2.52193 0
M  V30 1438 H 129.74 -5.94268 0.81274 0
M  V30 1439 H 131.419 -6.34873 1.24681 0
M  V30 1440 N 131.551 -0.354651 -1.53558 0
M  V30 1441 C 132.781 0.239167 -2.05211 0
M  V30 1442 C 133.189 1.43879 -1.22863 0
M  V30 1443 O 132.532 1.81857 -0.259565 0
M  V30 1444 C 132.594 0.707251 -3.52474 0
M  V30 1445 C 132.258 -0.374212 -4.55465 0
M  V30 1446 C 133.255 -1.22054 -5.0537 0
M  V30 1447 C 130.94 -0.531323 -4.99482 0
M  V30 1448 C 132.934 -2.20942 -5.97882 0
M  V30 1449 C 130.621 -1.52358 -5.91802 0
M  V30 1450 C 131.619 -2.36108 -6.40892 0
M  V30 1451 O 131.307 -3.33643 -7.31394 0
M  V30 1452 H 131.039 0.0479716 -0.674296 0
M  V30 1453 H 133.593 -0.508121 -1.99016 0
M  V30 1454 H 131.823 1.50596 -3.56171 0
M  V30 1455 H 133.512 1.22285 -3.87042 0
M  V30 1456 H 134.278 -1.1103 -4.7212 0
M  V30 1457 H 130.157 0.110738 -4.60867 0
M  V30 1458 H 133.701 -2.86348 -6.36121 0
M  V30 1459 H 129.598 -1.63434 -6.24467 0
M  V30 1460 H 130.366 -3.29244 -7.4936 0
M  V30 1461 N 133.029 1.57378 -0.0835403 0
M  V30 1462 C 134.275 1.94217 0.583733 0
M  V30 1463 C 134.608 0.964653 1.68547 0
M  V30 1464 O 133.883 -0.00422258 1.945 0
M  V30 1465 C 134.166 3.41253 1.14972 0
M  V30 1466 C 134.019 4.49768 0.0538277 0
M  V30 1467 C 135.338 3.89352 2.05166 0
M  V30 1468 H 132.457 0.706233 0.210724 0
M  V30 1469 H 135.099 1.89392 -0.1519 0
M  V30 1470 H 133.249 3.45496 1.77665 0
M  V30 1471 H 134.921 4.57641 -0.579851 0
M  V30 1472 H 133.164 4.29432 -0.614068 0
M  V30 1473 H 133.835 5.49817 0.490452 0
M  V30 1474 H 136.311 3.87189 1.52393 0
M  V30 1475 H 135.187 4.92822 2.41698 0
M  V30 1476 H 135.448 3.27973 2.96456 0
M  V30 1477 N 134.507 -0.190092 1.56449 0
M  V30 1478 C 135.44 -1.26375 1.90012 0
M  V30 1479 C 136.418 -1.43705 0.760765 0
M  V30 1480 O 137.602 -1.59014 1.01226 0
M  V30 1481 C 134.729 -2.62962 2.13468 0
M  V30 1482 C 133.775 -2.62474 3.36169 0
M  V30 1483 S 134.608 -2.13412 4.91137 0
M  V30 1484 C 135.764 -3.51812 5.17667 0
M  V30 1485 H 135.997 -0.977181 2.80782 0
M  V30 1486 H 133.53 -0.393814 1.49293 0
M  V30 1487 H 135.488 -3.41583 2.27664 0
M  V30 1488 H 134.149 -2.88828 1.23439 0
M  V30 1489 H 133.342 -3.62918 3.49723 0
M  V30 1490 H 132.944 -1.91937 3.20992 0
M  V30 1491 H 135.236 -4.47706 5.08494 0
M  V30 1492 H 136.179 -3.43148 6.19399 0
M  V30 1493 H 136.587 -3.46956 4.45288 0
M  V30 1494 N 135.985 -1.50799 -0.457987 0
M  V30 1495 C 136.918 -1.65273 -1.57353 0
M  V30 1496 C 137.896 -0.500578 -1.54703 0
M  V30 1497 O 139.08 -0.721781 -1.74134 0
M  V30 1498 C 136.207 -1.64737 -2.95938 0
M  V30 1499 C 135.253 -2.8567 -3.16693 0
M  V30 1500 S 136.086 -4.46791 -2.95191 0
M  V30 1501 C 137.242 -4.48968 -4.36095 0
M  V30 1502 H 137.475 -2.59633 -1.44838 0
M  V30 1503 H 135.008 -1.40225 -0.64625 0
M  V30 1504 H 136.966 -1.65112 -3.7583 0
M  V30 1505 H 135.627 -0.715899 -3.05833 0
M  V30 1506 H 134.82 -2.81637 -4.17967 0
M  V30 1507 H 134.422 -2.8293 -2.44594 0
M  V30 1508 H 136.714 -4.23337 -5.28954 0
M  V30 1509 H 137.657 -5.50664 -4.45168 0
M  V30 1510 H 138.065 -3.78522 -4.18786 0
M  V30 1511 N 137.463 0.71206 -1.40597 0
M  V30 1512 C 138.393 1.83889 -1.43899 0
M  V30 1513 C 139.374 1.67442 -0.299504 0
M  V30 1514 O 140.559 1.87421 -0.508624 0
M  V30 1515 C 137.689 3.21877 -1.30431 0
M  V30 1516 C 136.643 3.53002 -2.42019 0
M  V30 1517 C 135.969 4.90172 -2.13626 0
M  V30 1518 C 137.269 3.53643 -3.84362 0
M  V30 1519 H 138.963 1.81383 -2.38203 0
M  V30 1520 H 136.509 0.871237 -1.14654 0
M  V30 1521 H 138.462 4.00404 -1.31357 0
M  V30 1522 H 137.186 3.24968 -0.326049 0
M  V30 1523 H 135.845 2.76818 -2.40349 0
M  V30 1524 H 135.493 4.89869 -1.14182 0
M  V30 1525 H 135.193 5.11962 -2.88389 0
M  V30 1526 H 136.717 5.71028 -2.1624 0
M  V30 1527 H 138.131 4.22203 -3.87837 0
M  V30 1528 H 136.528 3.86961 -4.58673 0
M  V30 1529 H 137.598 2.52954 -4.13693 0
M  V30 1530 N 138.941 1.26152 0.944643 0
M  V30 1531 C 139.874 1.01729 2.04271 0
M  V30 1532 C 140.852 -0.0568101 1.62501 0
M  V30 1533 O 142.036 0.0848987 1.88309 0
M  V30 1534 C 139.163 0.539792 3.34371 0
M  V30 1535 C 138.209 1.60593 3.9511 0
M  V30 1536 S 139.042 3.19392 4.29825 0
M  V30 1537 C 140.198 2.73402 5.63029 0
M  V30 1538 H 140.431 1.94703 2.24673 0
M  V30 1539 H 137.964 1.09793 1.08558 0
M  V30 1540 H 139.922 0.270956 4.09605 0
M  V30 1541 H 138.583 -0.369609 3.11918 0
M  V30 1542 H 137.776 1.22275 4.88943 0
M  V30 1543 H 137.378 1.82596 3.26397 0
M  V30 1544 H 139.67 2.1765 6.41588 0
M  V30 1545 H 140.613 3.65913 6.06229 0
M  V30 1546 H 141.021 2.13077 5.22741 0
M  V30 1547 N 140.419 -1.14872 1.07899 0
M  V30 1548 C 141.666 -1.85789 0.805532 0
M  V30 1549 C 141.994 -1.82649 -0.668561 0
M  V30 1550 O 141.249 -1.24858 -1.50695 0
M  V30 1551 C 141.548 -3.34223 1.26609 0
M  V30 1552 C 141.214 -3.57555 2.74709 0
M  V30 1553 C 139.876 -3.63631 3.1516 0
M  V30 1554 C 142.228 -3.66803 3.70277 0
M  V30 1555 C 139.556 -3.76473 4.49983 0
M  V30 1556 C 141.908 -3.8117 5.04869 0
M  V30 1557 C 140.572 -3.85494 5.44932 0
M  V30 1558 H 139.842 -0.679849 0.294765 0
M  V30 1559 H 142.489 -1.3572 1.35101 0
M  V30 1560 H 140.794 -3.86536 0.640103 0
M  V30 1561 H 142.491 -3.87511 1.03132 0
M  V30 1562 H 139.081 -3.5347 2.42398 0
M  V30 1563 H 143.265 -3.61404 3.40149 0
M  V30 1564 H 138.521 -3.7808 4.80484 0
M  V30 1565 H 142.695 -3.87268 5.78789 0
M  V30 1566 H 140.322 -3.95197 6.49403 0
M  V30 1567 N 141.898 -0.863906 -1.31812 0
M  V30 1568 C 143.175 -0.39275 -1.91616 0
M  V30 1569 C 143.555 1.12461 -1.7865 0
M  V30 1570 O 142.903 1.95045 -1.19037 0
M  V30 1571 C 143.113 -0.867385 -3.38049 0
M  V30 1572 C 144.461 -0.889966 -4.15168 0
M  V30 1573 O 145.485 -0.812635 -3.46806 0
M  V30 1574 O 144.344 -1.00079 -5.37258 0
M  V30 1575 H 141.438 -0.116358 -0.818773 0
M  V30 1576 H 143.984 -0.951418 -1.40521 0
M  V30 1577 H 142.756 -1.91081 -3.41473 0
M  V30 1578 H 142.379 -0.286687 -3.96565 0
M  V30 1579 N 143.376 1.44774 -0.622745 0
M  V30 1580 C 144.792 1.56986 -0.287652 0
M  V30 1581 C 144.992 1.61167 1.20944 0
M  V30 1582 O 144.048 1.55015 1.99315 0
M  V30 1583 C 145.361 2.84551 -0.972188 0
M  V30 1584 C 146.909 2.9825 -0.949536 0
M  V30 1585 C 147.384 4.28605 -1.61437 0
M  V30 1586 N 148.875 4.35399 -1.58057 0
M  V30 1587 C 149.61 5.34964 -2.064 0
M  V30 1588 N 149.106 6.40981 -2.62897 0
M  V30 1589 N 150.899 5.26419 -1.97078 0
M  V30 1590 H 143.05 1.40304 -1.59463 0
M  V30 1591 H 145.313 0.671794 -0.668878 0
M  V30 1592 H 145.019 2.87417 -2.02693 0
M  V30 1593 H 144.893 3.73807 -0.504771 0
M  V30 1594 H 147.28 2.94941 0.0967067 0
M  V30 1595 H 147.361 2.10364 -1.45536 0
M  V30 1596 H 147.005 4.32672 -2.66002 0
M  V30 1597 H 146.935 5.15334 -1.08344 0
M  V30 1598 H 149.426 3.59397 -1.16801 0
M  V30 1599 H 149.739 7.13225 -2.97539 0
M  V30 1600 H 148.084 6.4169 -2.66943 0
M  V30 1601 H 151.275 4.42504 -1.52669 0
M  V30 1602 H 151.448 6.03861 -2.35066 0
M  V30 1603 N 144.854 0.36279 1.53368 0
M  V30 1604 C 146.079 -0.231226 2.06107 0
M  V30 1605 C 146.504 -1.419 1.23474 0
M  V30 1606 O 145.862 -1.79524 0.253128 0
M  V30 1607 C 145.91 -0.605523 3.5548 0
M  V30 1608 O 145.014 -1.70312 3.7559 0
M  V30 1609 H 144.355 -0.034327 0.663112 0
M  V30 1610 H 146.885 0.522584 1.97814 0
M  V30 1611 H 146.895 -0.877314 3.98456 0
M  V30 1612 H 145.57 0.263004 4.15068 0
M  V30 1613 H 144.147 -1.4271 3.44512 0
M  V30 1614 N 146.332 -1.57332 0.0918853 0
M  V30 1615 C 147.578 -1.94524 -0.573425 0
M  V30 1616 C 147.911 -0.973578 -1.68033 0
M  V30 1617 O 147.186 -0.00609226 -1.94499 0
M  V30 1618 C 147.469 -3.41858 -1.13161 0
M  V30 1619 C 147.322 -4.4979 -0.0299747 0
M  V30 1620 C 148.641 -3.90435 -2.03098 0
M  V30 1621 H 145.76 -0.70734 -0.206975 0
M  V30 1622 H 148.402 -1.89309 0.161942 0
M  V30 1623 H 146.552 -3.46433 -1.7583 0
M  V30 1624 H 148.224 -4.57327 0.604112 0
M  V30 1625 H 146.467 -4.291 0.636833 0
M  V30 1626 H 147.138 -5.50069 -0.461287 0
M  V30 1627 H 149.614 -3.87992 -1.50338 0
M  V30 1628 H 148.49 -4.94097 -2.39081 0
M  V30 1629 H 148.751 -3.29541 -2.94712 0
M  V30 1630 N 147.81 0.181792 -1.56548 0
M  V30 1631 C 149.057 0.900097 -1.81396 0
M  V30 1632 C 149.385 1.82695 -0.667281 0
M  V30 1633 O 148.64 1.92614 0.346146 0
M  V30 1634 C 148.939 1.73728 -3.12335 0
M  V30 1635 C 148.605 0.960255 -4.40556 0
M  V30 1636 C 147.267 0.745766 -4.75386 0
M  V30 1637 C 149.619 0.414477 -5.19549 0
M  V30 1638 C 146.947 -0.0257694 -5.86694 0
M  V30 1639 C 149.299 -0.343916 -6.31664 0
M  V30 1640 C 147.963 -0.569301 -6.65068 0
M  V30 1641 H 147.233 0.329369 -0.663775 0
M  V30 1642 H 149.88 0.165647 -1.90782 0
M  V30 1643 H 148.185 2.54081 -2.98245 0
M  V30 1644 H 149.882 2.29591 -3.28769 0
M  V30 1645 H 146.472 1.13746 -4.13231 0
M  V30 1646 H 150.656 0.567554 -4.93044 0
M  V30 1647 H 145.912 -0.210233 -6.11038 0
M  V30 1648 H 150.086 -0.774133 -6.92084 0
M  V30 1649 H 147.713 -1.16903 -7.51158 0
M  V30 1650 N 149.288 1.51039 0.449983 0
M  V30 1651 C 150.535 1.63081 1.20045 0
M  V30 1652 C 150.863 0.341024 1.91487 0
M  V30 1653 O 150.118 -0.674276 1.83717 0
M  V30 1654 C 150.417 2.77556 2.25161 0
M  V30 1655 C 150.083 4.17289 1.70823 0
M  V30 1656 C 148.745 4.55305 1.55725 0
M  V30 1657 C 151.097 5.04536 1.3074 0
M  V30 1658 C 148.425 5.78287 0.989999 0
M  V30 1659 C 150.777 6.28085 0.754482 0
M  V30 1660 C 149.441 6.64885 0.590308 0
M  V30 1661 H 148.711 0.596755 0.439277 0
M  V30 1662 H 151.358 1.85037 0.49333 0
M  V30 1663 H 149.663 2.49771 3.01863 0
M  V30 1664 H 151.36 2.84073 2.83026 0
M  V30 1665 H 147.95 3.8731 1.83546 0
M  V30 1666 H 152.134 4.75782 1.41229 0
M  V30 1667 H 147.39 6.05456 0.850451 0
M  V30 1668 H 151.564 6.95038 0.435324 0
M  V30 1669 H 149.191 7.60055 0.14862 0
M  V30 1670 N 150.766 -0.704594 1.40972 0
M  V30 1671 C 152.177 -1.28418 1.3552 0
M  V30 1672 C 152.528 -1.96171 0.0339434 0
M  V30 1673 O 151.653 -1.98231 -0.867944 0
M  V30 1674 C 152.248 -2.33528 2.45459 0
M  V30 1675 C 150.807 -2.87085 2.43433 0
M  V30 1676 C 149.954 -1.61007 2.2577 0
M  V30 1677 H 152.905 -0.499963 1.50619 0
M  V30 1678 H 152.926 -3.14619 2.13998 0
M  V30 1679 H 152.438 -1.84187 3.41609 0
M  V30 1680 H 150.539 -3.40626 1.51013 0
M  V30 1681 H 150.652 -3.3813 3.39419 0
M  V30 1682 H 149.016 -1.86482 1.73483 0
M  V30 1683 H 149.799 -1.13675 3.23933 0
M  V30 1684 N 152.244 -1.26651 -0.937939 0
M  V30 1685 C 153.655 -1.1125 -1.49934 0
M  V30 1686 C 154.006 0.306077 -1.93798 0
M  V30 1687 O 153.131 1.19792 -1.80219 0
M  V30 1688 C 153.726 -2.01339 -2.72485 0
M  V30 1689 C 152.285 -1.90074 -3.24883 0
M  V30 1690 C 151.432 -1.94498 -1.97651 0
M  V30 1691 H 154.383 -1.39693 -0.753091 0
M  V30 1692 H 154.404 -1.56319 -3.46907 0
M  V30 1693 H 153.916 -3.04577 -2.40529 0
M  V30 1694 H 152.017 -0.897827 -3.61621 0
M  V30 1695 H 152.13 -2.75778 -3.9177 0
M  V30 1696 H 150.494 -1.38591 -2.13693 0
M  V30 1697 H 151.277 -2.99372 -1.68022 0
M  V30 1698 N 153.722 1.14298 -1.08507 0
M  V30 1699 C 154.95 1.89219 -0.836876 0
M  V30 1700 C 155.365 1.78638 0.611054 0
M  V30 1701 O 154.722 1.14643 1.41998 0
M  V30 1702 C 154.773 3.39158 -1.25116 0
M  V30 1703 O 154.494 3.49449 -2.64229 0
M  V30 1704 C 155.995 4.31073 -1.03398 0
M  V30 1705 H 153.215 0.599328 -0.301739 0
M  V30 1706 H 155.759 1.44746 -1.44461 0
M  V30 1707 H 153.914 3.81251 -0.687514 0
M  V30 1708 H 154.328 4.42589 -2.81452 0
M  V30 1709 H 155.802 5.34646 -1.37323 0
M  V30 1710 H 156.279 4.3919 0.0289259 0
M  V30 1711 H 156.885 3.94738 -1.58311 0
M  V30 1712 N 155.201 0.870884 1.31352 0
M  V30 1713 C 156.431 0.496049 2.00557 0
M  V30 1714 C 156.839 -0.916241 1.65534 0
M  V30 1715 O 156.182 -1.61188 0.881134 0
M  V30 1716 C 156.244 0.574418 3.54881 0
M  V30 1717 C 155.908 1.94849 4.1338 0
M  V30 1718 C 156.905 2.91611 4.30417 0
M  V30 1719 C 154.59 2.25005 4.49086 0
M  V30 1720 C 156.584 4.16672 4.82352 0
M  V30 1721 C 154.271 3.50315 5.00722 0
M  V30 1722 C 155.269 4.45964 5.17306 0
M  V30 1723 O 154.957 5.69052 5.67833 0
M  V30 1724 H 154.689 0.191664 0.64826 0
M  V30 1725 H 157.243 1.17409 1.68536 0
M  V30 1726 H 155.473 -0.160549 3.86367 0
M  V30 1727 H 157.162 0.212879 4.05341 0
M  V30 1728 H 157.928 2.69622 4.03149 0
M  V30 1729 H 153.807 1.51332 4.35453 0
M  V30 1730 H 157.351 4.91336 4.95211 0
M  V30 1731 H 153.248 3.72147 5.27424 0
M  V30 1732 H 154.016 5.71236 5.86201 0
M  V30 1733 N 156.679 -1.44442 0.630414 0
M  V30 1734 C 157.904 -2.06927 0.139944 0
M  V30 1735 C 158.329 -1.46795 -1.17613 0
M  V30 1736 O 157.687 -0.569144 -1.72135 0
M  V30 1737 C 157.735 -3.6058 0.0379581 0
M  V30 1738 O 156.839 -3.99937 -1.0062 0
M  V30 1739 H 156.18 -0.658608 0.0844483 0
M  V30 1740 H 158.71 -1.85327 0.866891 0
M  V30 1741 H 158.72 -4.07714 -0.152856 0
M  V30 1742 H 157.395 -4.03728 0.998809 0
M  V30 1743 H 155.972 -3.64436 -0.79001 0
M  V30 1744 N 158.157 -0.370918 -1.53173 0
M  V30 1745 C 159.397 0.217106 -2.03244 0
M  V30 1746 C 159.761 1.45558 -1.25207 0
M  V30 1747 O 160.962 2.11957 -1.65311 0
M  V30 1748 C 159.233 0.496664 -3.53932 0
M  V30 1749 S 160.792 1.0576 -4.25864 0
M  V30 1750 H 157.61 0.0627827 -0.708223 0
M  V30 1751 H 160.212 -0.515019 -1.88594 0
M  V30 1752 H 158.916 -0.412096 -4.08326 0
M  V30 1753 H 158.447 1.25772 -3.72753 0
M  V30 1754 H 160.462 2.34145 -4.37482 0
M  V30 1755 N 159.635 1.57281 -0.100228 0
M  V30 1756 C 160.865 1.98591 0.569681 0
M  V30 1757 C 161.273 0.978315 1.61943 0
M  V30 1758 O 160.616 -0.0396108 1.83657 0
M  V30 1759 C 160.678 3.36282 1.271 0
M  V30 1760 C 160.342 4.55488 0.371409 0
M  V30 1761 C 161.339 5.18491 -0.382504 0
M  V30 1762 C 159.024 5.01474 0.287965 0
M  V30 1763 C 161.018 6.25852 -1.20779 0
M  V30 1764 C 158.705 6.08701 -0.540965 0
M  V30 1765 C 159.703 6.70755 -1.28749 0
M  V30 1766 O 159.391 7.75914 -2.10269 0
M  V30 1767 H 159.123 0.65752 0.156982 0
M  V30 1768 H 161.677 2.0463 -0.177734 0
M  V30 1769 H 159.907 3.26941 2.0651 0
M  V30 1770 H 161.596 3.62005 1.83595 0
M  V30 1771 H 162.362 4.83891 -0.3278 0
M  V30 1772 H 158.241 4.52932 0.858689 0
M  V30 1773 H 161.785 6.74218 -1.79096 0
M  V30 1774 H 157.682 6.42732 -0.597131 0
M  V30 1775 H 158.45 7.92925 -2.03007 0
M  V30 1776 N 161.113 -0.173488 1.56642 0
M  V30 1777 C 162.529 -0.525174 1.50712 0
M  V30 1778 C 162.729 -1.8476 0.804107 0
M  V30 1779 O 161.785 -2.49869 0.363574 0
M  V30 1780 C 163.098 -0.559937 2.95441 0
M  V30 1781 C 164.646 -0.647288 3.06234 0
M  V30 1782 C 165.121 -0.712963 4.52417 0
M  V30 1783 N 166.612 -0.775911 4.56655 0
M  V30 1784 C 167.347 -0.847264 5.67106 0
M  V30 1785 N 166.843 -0.879585 6.87194 0
M  V30 1786 N 168.636 -0.886117 5.55071 0
M  V30 1787 H 160.787 0.693681 2.00753 0
M  V30 1788 H 163.05 0.249841 0.914485 0
M  V30 1789 H 162.756 0.343049 3.50023 0
M  V30 1790 H 162.63 -1.40718 3.49969 0
M  V30 1791 H 165.017 -1.5407 2.51687 0
M  V30 1792 H 165.098 0.226586 2.54794 0
M  V30 1793 H 164.742 0.176183 5.07594 0
M  V30 1794 H 164.672 -1.60295 5.0161 0
M  V30 1795 H 167.163 -0.759304 3.70193 0
M  V30 1796 H 167.476 -0.935144 7.67121 0
M  V30 1797 H 165.821 -0.847898 6.89808 0
M  V30 1798 H 169.012 -0.857853 4.60172 0
M  V30 1799 H 169.185 -0.938263 6.41171 0
M  V30 1800 N 162.591 -1.51276 -0.441967 0
M  V30 1801 C 163.84 -1.6295 -1.18871 0
M  V30 1802 C 164.153 -0.349312 -1.92456 0
M  V30 1803 O 165.359 -0.345355 -2.69295 0
M  V30 1804 C 163.815 -2.87759 -2.16155 0
M  V30 1805 C 163.423 -4.22764 -1.48239 0
M  V30 1806 C 165.167 -3.08788 -2.91291 0
M  V30 1807 C 163.074 -5.38728 -2.4398 0
M  V30 1808 H 162.004 -0.606913 -0.447406 0
M  V30 1809 H 164.655 -1.77739 -0.456205 0
M  V30 1810 H 163.037 -2.66593 -2.92821 0
M  V30 1811 H 164.211 -4.54293 -0.771635 0
M  V30 1812 H 162.526 -4.07575 -0.852741 0
M  V30 1813 H 165.123 -3.92599 -3.63002 0
M  V30 1814 H 165.466 -2.21679 -3.5237 0
M  V30 1815 H 165.999 -3.30272 -2.21733 0
M  V30 1816 H 162.738 -6.28082 -1.87598 0
M  V30 1817 H 162.258 -5.1158 -3.13123 0
M  V30 1818 H 163.937 -5.70489 -3.05207 0
M  V30 1819 N 164.069 0.697108 -1.41344 0
M  V30 1820 C 165.316 1.45714 -1.40619 0
M  V30 1821 C 165.644 1.94494 -0.0147907 0
M  V30 1822 O 164.899 1.69794 0.973066 0
M  V30 1823 C 165.198 2.68553 -2.35826 0
M  V30 1824 C 164.864 2.38438 -3.82698 0
M  V30 1825 C 163.526 2.29936 -4.22709 0
M  V30 1826 C 165.878 2.13567 -4.75435 0
M  V30 1827 C 163.206 1.94656 -5.53467 0
M  V30 1828 C 165.558 1.79797 -6.06511 0
M  V30 1829 C 164.222 1.69789 -6.45545 0
M  V30 1830 H 163.492 0.533206 -0.51456 0
M  V30 1831 H 166.139 0.796901 -1.74131 0
M  V30 1832 H 164.444 3.39503 -1.95563 0
M  V30 1833 H 166.141 3.2669 -2.32539 0
M  V30 1834 H 162.731 2.4595 -3.51008 0
M  V30 1835 H 166.915 2.19082 -4.45328 0
M  V30 1836 H 162.171 1.8546 -5.82593 0
M  V30 1837 H 166.345 1.59572 -6.77872 0
M  V30 1838 H 163.972 1.4222 -7.46778 0
M  V30 1839 N 165.547 1.27147 0.931209 0
M  V30 1840 C 166.51 1.09615 2.01289 0
M  V30 1841 C 167.51 0.0412581 1.60747 0
M  V30 1842 O 168.7 0.285545 1.71844 0
M  V30 1843 C 165.832 0.669447 3.34262 0
M  V30 1844 H 167.025 2.05662 2.18273 0
M  V30 1845 H 164.578 1.09885 1.11153 0
M  V30 1846 H 165.313 -0.292572 3.22978 0
M  V30 1847 H 165.098 1.43127 3.65044 0
M  V30 1848 H 166.588 0.568921 4.13706 0
M  V30 1849 N 167.025 -1.13721 1.09112 0
M  V30 1850 C 167.972 -2.19031 0.727591 0
M  V30 1851 C 168.942 -1.63555 -0.289656 0
M  V30 1852 O 170.127 -1.90023 -0.172026 0
M  V30 1853 C 167.267 -3.4477 0.15082 0
M  V30 1854 C 166.38 -4.14365 1.22172 0
M  V30 1855 C 165.515 -5.27709 0.608042 0
M  V30 1856 C 164.554 -5.89147 1.66047 0
M  V30 1857 N 163.691 -6.93929 1.06806 0
M  V30 1858 H 168.531 -2.49475 1.62991 0
M  V30 1859 H 166.068 -1.22499 0.81439 0
M  V30 1860 H 168.026 -4.16714 -0.201358 0
M  V30 1861 H 166.656 -3.14787 -0.714783 0
M  V30 1862 H 165.708 -3.40737 1.69122 0
M  V30 1863 H 167.02 -4.56114 2.01895 0
M  V30 1864 H 166.174 -6.06355 0.204523 0
M  V30 1865 H 164.913 -4.872 -0.220769 0
M  V30 1866 H 163.918 -5.09198 2.07357 0
M  V30 1867 H 165.143 -6.31729 2.49189 0
M  V30 1868 H 163.089 -6.55483 0.260476 0
M  V30 1869 H 163.006 -7.34202 1.8023 0
M  V30 1870 H 164.274 -7.76434 0.690644 0
M  V30 1871 N 168.503 -0.877838 -1.30888 0
M  V30 1872 C 169.466 -0.344265 -2.266 0
M  V30 1873 C 170.466 0.50922 -1.52524 0
M  V30 1874 O 171.656 0.317398 -1.71284 0
M  V30 1875 C 168.788 0.510198 -3.37061 0
M  V30 1876 H 169.981 -1.1893 -2.7531 0
M  V30 1877 H 167.534 -0.654088 -1.41956 0
M  V30 1878 H 168.269 1.37612 -2.93655 0
M  V30 1879 H 168.054 -0.101047 -3.9197 0
M  V30 1880 H 169.544 0.875537 -4.08319 0
M  V30 1881 N 169.982 1.44106 -0.638065 0
M  V30 1882 C 171.228 2.02277 -0.145546 0
M  V30 1883 C 171.561 1.50125 1.23191 0
M  V30 1884 O 170.836 0.688133 1.8192 0
M  V30 1885 C 171.119 3.59829 -0.139791 0
M  V30 1886 C 170.972 4.22247 -1.55008 0
M  V30 1887 C 172.291 4.36873 0.531966 0
M  V30 1888 H 169.41 0.734992 -0.0543632 0
M  V30 1889 H 172.052 1.71592 -0.815863 0
M  V30 1890 H 170.202 3.86102 0.431007 0
M  V30 1891 H 171.874 4.07057 -2.1703 0
M  V30 1892 H 170.117 3.79476 -2.10191 0
M  V30 1893 H 170.788 5.31284 -1.49804 0
M  V30 1894 H 173.264 4.16074 0.0464781 0
M  V30 1895 H 172.14 5.4657 0.505206 0
M  V30 1896 H 172.401 4.11995 1.60352 0
M  V30 1897 N 171.46 0.379036 1.52974 0
M  V30 1898 C 172.708 -0.206014 2.01047 0
M  V30 1899 C 173.029 -1.48175 1.26765 0
M  V30 1900 O 172.299 -1.92085 0.384743 0
M  V30 1901 H 170.879 -0.0791184 0.742798 0
M  V30 1902 H 173.541 0.508366 1.88153 0
M  V30 1903 H 172.637 -0.423501 3.09213 0
M  V30 1904 N 172.938 -1.57226 0.108567 0
M  V30 1905 C 173.901 -2.13602 -0.831082 0
M  V30 1906 C 174.901 -1.06841 -1.20173 0
M  V30 1907 O 176.091 -1.32666 -1.12895 0
M  V30 1908 C 173.223 -2.66769 -2.12243 0
M  V30 1909 H 174.416 -2.97951 -0.341317 0
M  V30 1910 H 171.969 -1.55667 -0.14057 0
M  V30 1911 H 172.704 -1.85977 -2.65675 0
M  V30 1912 H 172.489 -3.44839 -1.86625 0
M  V30 1913 H 173.979 -3.10332 -2.79435 0
M  V30 1914 N 174.416 0.165178 -1.56732 0
M  V30 1915 C 175.363 1.2044 -1.96883 0
M  V30 1916 C 176.333 1.43664 -0.833657 0
M  V30 1917 O 177.518 1.56302 -1.09427 0
M  V30 1918 C 174.658 2.53727 -2.33916 0
M  V30 1919 C 173.771 2.3783 -3.6064 0
M  V30 1920 C 172.906 3.64026 -3.86857 0
M  V30 1921 C 171.945 3.43088 -5.06909 0
M  V30 1922 N 171.082 4.61369 -5.29229 0
M  V30 1923 H 175.922 0.854996 -2.85471 0
M  V30 1924 H 173.459 0.41076 -1.41249 0
M  V30 1925 H 175.417 3.31419 -2.53411 0
M  V30 1926 H 174.047 2.8665 -1.48431 0
M  V30 1927 H 173.099 1.51282 -3.49024 0
M  V30 1928 H 174.411 2.18308 -4.4849 0
M  V30 1929 H 173.565 4.50152 -4.06753 0
M  V30 1930 H 172.304 3.86533 -2.97394 0
M  V30 1931 H 171.309 2.55349 -4.86906 0
M  V30 1932 H 172.534 3.21997 -5.97909 0
M  V30 1933 H 170.48 4.84084 -4.42718 0
M  V30 1934 H 170.397 4.44783 -6.11313 0
M  V30 1935 H 171.665 5.48761 -5.53608 0
M  V30 1936 N 175.894 1.51508 0.433938 0
M  V30 1937 C 177.141 1.64345 1.18309 0
M  V30 1938 C 177.469 0.361315 1.91115 0
M  V30 1939 O 176.724 -0.654753 1.84422 0
M  V30 1940 C 177.023 2.79928 2.22205 0
M  V30 1941 C 176.689 4.19078 1.66387 0
M  V30 1942 C 175.351 4.56932 1.50887 0
M  V30 1943 C 177.703 5.05894 1.25381 0
M  V30 1944 C 175.031 5.79305 0.928608 0
M  V30 1945 C 177.383 6.2885 0.687823 0
M  V30 1946 C 176.047 6.65473 0.519755 0
M  V30 1947 H 175.317 0.601381 0.432923 0
M  V30 1948 H 177.964 1.85549 0.473676 0
M  V30 1949 H 176.269 2.52959 2.99197 0
M  V30 1950 H 177.966 2.87059 2.79997 0
M  V30 1951 H 174.556 3.89234 1.79428 0
M  V30 1952 H 178.74 4.77253 1.36175 0
M  V30 1953 H 173.996 6.06324 0.786186 0
M  V30 1954 H 178.17 6.95461 0.361581 0
M  V30 1955 H 175.797 7.6017 0.0679979 0
M  V30 1956 N 177.372 -0.689602 1.41712 0
M  V30 1957 C 178.302 -1.81577 1.46806 0
M  V30 1958 C 179.283 -1.66945 0.326105 0
M  V30 1959 O 180.468 -1.86588 0.538377 0
M  V30 1960 C 177.598 -3.19762 1.35535 0
M  V30 1961 C 176.552 -3.49107 2.47605 0
M  V30 1962 C 175.878 -4.86711 2.21397 0
M  V30 1963 C 177.178 -3.47483 3.89939 0
M  V30 1964 H 178.872 -1.7757 2.41058 0
M  V30 1965 H 176.418 -0.852887 1.16025 0
M  V30 1966 H 178.371 -3.98263 1.3771 0
M  V30 1967 H 177.095 -3.24409 0.377708 0
M  V30 1968 H 175.754 -2.72959 2.44722 0
M  V30 1969 H 175.402 -4.8799 1.21961 0
M  V30 1970 H 175.102 -5.0731 2.96497 0
M  V30 1971 H 176.626 -5.67515 2.25297 0
M  V30 1972 H 178.04 -4.1598 3.94505 0
M  V30 1973 H 176.437 -3.79615 4.64771 0
M  V30 1974 H 177.507 -2.46341 4.17665 0
M  V30 1975 N 178.85 -1.27639 -0.924453 0
M  V30 1976 C 179.76 -1.12466 -2.05885 0
M  V30 1977 C 180.776 -0.053869 -1.73917 0
M  V30 1978 O 181.952 -0.261012 -1.99702 0
M  V30 1979 C 179.017 -0.776768 -3.37886 0
M  V30 1980 C 178.078 -1.92878 -3.83532 0
M  V30 1981 C 177.311 -1.59739 -5.09234 0
M  V30 1982 O 177.534 -0.506782 -5.68144 0
M  V30 1983 O 176.468 -2.43761 -5.50331 0
M  V30 1984 H 180.294 -2.07671 -2.21599 0
M  V30 1985 H 177.879 -1.06857 -1.04413 0
M  V30 1986 H 179.761 -0.596229 -4.17161 0
M  V30 1987 H 178.436 0.145732 -3.23372 0
M  V30 1988 H 177.343 -2.1644 -3.0513 0
M  V30 1989 H 178.676 -2.8316 -4.02593 0
M  V30 1990 N 180.328 1.1314 -1.09713 0
M  V30 1991 C 181.574 1.84757 -0.836224 0
M  V30 1992 C 181.907 1.8347 0.636598 0
M  V30 1993 O 181.182 1.27491 1.46889 0
M  V30 1994 C 181.465 3.32782 -1.37578 0
M  V30 1995 C 181.318 3.42567 -2.91493 0
M  V30 1996 C 182.637 4.28307 -1.01198 0
M  V30 1997 H 179.756 0.67082 -0.305236 0
M  V30 1998 H 182.398 1.3278 -1.35903 0
M  V30 1999 H 180.548 3.77177 -0.931097 0
M  V30 2000 H 182.22 3.06862 -3.44432 0
M  V30 2001 H 180.463 2.83349 -3.28475 0
M  V30 2002 H 181.134 4.46674 -3.24324 0
M  V30 2003 H 183.61 3.91999 -1.39556 0
M  V30 2004 H 182.486 5.30307 -1.41653 0
M  V30 2005 H 182.747 4.42029 0.0794833 0
M  V30 2006 N 181.806 0.884767 1.30421 0
M  V30 2007 C 183.217 0.553656 1.78302 0
M  V30 2008 C 183.568 -0.930153 1.7275 0
M  V30 2009 O 182.693 -1.72681 1.30423 0
M  V30 2010 C 183.288 0.998234 3.2376 0
M  V30 2011 C 181.847 0.71854 3.69478 0
M  V30 2012 C 180.994 1.18132 2.50879 0
M  V30 2013 H 183.945 1.06901 1.17294 0
M  V30 2014 H 183.966 0.327118 3.79091 0
M  V30 2015 H 183.478 2.0782 3.27769 0
M  V30 2016 H 181.579 -0.349444 3.70958 0
M  V30 2017 H 181.692 1.30595 4.60958 0
M  V30 2018 H 180.056 0.600669 2.47516 0
M  V30 2019 H 180.839 2.26902 2.57624 0
M  V30 2020 N 183.284 -1.43765 0.645699 0
M  V30 2021 C 184.214 -2.33471 -0.0370477 0
M  V30 2022 C 185.195 -1.49042 -0.819779 0
M  V30 2023 O 186.38 -1.77726 -0.782758 0
M  V30 2024 C 183.51 -3.32311 -1.0093 0
M  V30 2025 C 182.464 -4.2667 -0.337201 0
M  V30 2026 C 181.79 -5.1549 -1.42037 0
M  V30 2027 C 183.09 -5.16657 0.765706 0
M  V30 2028 H 184.784 -2.90809 0.712069 0
M  V30 2029 H 182.33 -1.39834 0.343876 0
M  V30 2030 H 184.283 -3.9396 -1.49578 0
M  V30 2031 H 183.007 -2.73213 -1.78948 0
M  V30 2032 H 181.666 -3.66374 0.128771 0
M  V30 2033 H 181.314 -4.52735 -2.1918 0
M  V30 2034 H 181.014 -5.79438 -0.975966 0
M  V30 2035 H 182.538 -5.80012 -1.90838 0
M  V30 2036 H 183.952 -5.72158 0.361702 0
M  V30 2037 H 182.349 -5.89286 1.13413 0
M  V30 2038 H 183.419 -4.56796 1.62683 0
M  V30 2039 N 184.763 -0.387143 -1.52771 0
M  V30 2040 C 185.991 0.195869 -2.05971 0
M  V30 2041 C 186.406 1.40691 -1.25903 0
M  V30 2042 O 185.763 1.79931 -0.305134 0
M  V30 2043 C 185.814 0.56812 -3.57008 0
M  V30 2044 O 185.535 -0.594803 -4.34043 0
M  V30 2045 C 187.036 1.20723 -4.26545 0
M  V30 2046 H 184.256 0.0300578 -0.670326 0
M  V30 2047 H 186.8 -0.551749 -1.96916 0
M  V30 2048 H 184.955 1.26564 -3.66143 0
M  V30 2049 H 185.369 -0.289322 -5.23701 0
M  V30 2050 H 186.843 1.41807 -5.33474 0
M  V30 2051 H 187.32 2.17395 -3.81623 0
M  V30 2052 H 187.926 0.550535 -4.21722 0
M  V30 2053 N 186.241 1.57166 -0.116904 0
M  V30 2054 C 187.188 2.15202 0.83408 0
M  V30 2055 C 188.158 1.07644 1.26499 0
M  V30 2056 O 189.343 1.35541 1.34288 0
M  V30 2057 C 186.483 2.75405 2.07957 0
M  V30 2058 C 185.596 3.97264 1.69721 0
M  V30 2059 C 184.731 4.45561 2.89221 0
M  V30 2060 C 183.77 5.59956 2.47215 0
M  V30 2061 N 182.907 6.03006 3.59622 0
M  V30 2062 H 187.747 2.96141 0.332335 0
M  V30 2063 H 185.284 1.46309 0.152349 0
M  V30 2064 H 187.242 3.08439 2.80929 0
M  V30 2065 H 185.872 1.97159 2.55594 0
M  V30 2066 H 184.924 3.70404 0.866316 0
M  V30 2067 H 186.236 4.80226 1.34849 0
M  V30 2068 H 185.39 4.80493 3.7042 0
M  V30 2069 H 184.129 3.61544 3.27318 0
M  V30 2070 H 183.134 5.2463 1.64448 0
M  V30 2071 H 184.359 6.45738 2.10238 0
M  V30 2072 H 182.305 5.21931 3.97396 0
M  V30 2073 H 182.222 6.80819 3.28667 0
M  V30 2074 H 183.49 6.42576 4.41267 0
M  V30 2075 N 187.719 -0.156864 1.56817 0
M  V30 2076 C 188.996 -0.899244 1.73704 0
M  V30 2077 C 189.376 -1.99771 0.682254 0
M  V30 2078 O 188.724 -2.26515 -0.300522 0
M  V30 2079 C 188.934 -1.45075 3.17418 0
M  V30 2080 C 190.282 -1.91802 3.7881 0
M  V30 2081 O 191.306 -1.54838 3.20786 0
M  V30 2082 O 190.165 -2.5994 4.80722 0
M  V30 2083 H 187.259 -0.424267 0.709878 0
M  V30 2084 H 189.805 -0.143561 1.69092 0
M  V30 2085 H 188.577 -0.660846 3.85679 0
M  V30 2086 H 188.2 -2.27021 3.26416 0
M  V30 2087 N 189.197 -1.51736 -0.425897 0
M  V30 2088 C 190.127 -1.76827 -1.52494 0
M  V30 2089 C 191.108 -0.618524 -1.58456 0
M  V30 2090 O 192.293 -0.862416 -1.74 0
M  V30 2091 C 189.423 -1.90374 -2.90474 0
M  V30 2092 C 188.377 -3.0588 -2.99369 0
M  V30 2093 C 187.703 -3.04625 -4.3944 0
M  V30 2094 C 189.003 -4.45644 -2.72394 0
M  V30 2095 H 190.697 -2.68855 -1.31748 0
M  V30 2096 H 188.243 -1.29372 -0.632362 0
M  V30 2097 H 190.196 -2.0651 -3.6733 0
M  V30 2098 H 188.92 -0.95004 -3.12477 0
M  V30 2099 H 187.579 -2.89467 -2.24954 0
M  V30 2100 H 187.227 -2.0701 -4.58428 0
M  V30 2101 H 186.927 -3.82195 -4.46319 0
M  V30 2102 H 188.451 -3.22869 -5.18255 0
M  V30 2103 H 189.865 -4.62348 -3.38979 0
M  V30 2104 H 188.262 -5.25006 -2.9067 0
M  V30 2105 H 189.332 -4.54893 -1.67929 0
M  V30 2106 N 190.675 0.682077 -1.42076 0
M  V30 2107 C 192.091 0.994324 -1.24841 0
M  V30 2108 C 192.291 2.0096 -0.147389 0
M  V30 2109 O 191.347 2.47822 0.483782 0
M  V30 2110 C 192.66 1.50607 -2.60265 0
M  V30 2111 C 194.208 1.62421 -2.6756 0
M  V30 2112 C 194.683 2.16994 -4.03333 0
M  V30 2113 N 196.174 2.24337 -4.0525 0
M  V30 2114 C 196.909 2.67621 -5.07116 0
M  V30 2115 N 196.405 3.1041 -6.19368 0
M  V30 2116 N 198.198 2.67305 -4.94474 0
M  V30 2117 H 190.349 0.00973908 -2.12398 0
M  V30 2118 H 192.612 0.0668593 -0.945639 0
M  V30 2119 H 192.318 0.834583 -3.41654 0
M  V30 2120 H 192.192 2.48602 -2.83684 0
M  V30 2121 H 194.579 2.28678 -1.86521 0
M  V30 2122 H 194.66 0.629352 -2.47937 0
M  V30 2123 H 194.304 1.51349 -4.84826 0
M  V30 2124 H 194.234 3.17258 -4.20304 0
M  V30 2125 H 196.725 1.94158 -3.24209 0
M  V30 2126 H 197.038 3.42103 -6.92954 0
M  V30 2127 H 195.383 3.08286 -6.22884 0
M  V30 2128 H 198.574 2.33233 -4.05857 0
M  V30 2129 H 198.747 3.00718 -5.73997 0
M  V30 2130 N 192.153 1.28127 0.917671 0
M  V30 2131 C 193.402 1.14432 1.66097 0
M  V30 2132 C 193.715 -0.307247 1.93172 0
M  V30 2133 O 194.921 -0.565259 2.65551 0
M  V30 2134 C 193.377 2.00015 2.99202 0
M  V30 2135 C 192.985 3.49889 2.79789 0
M  V30 2136 C 194.729 1.94996 3.77064 0
M  V30 2137 C 192.636 4.27636 4.08511 0
M  V30 2138 H 191.566 0.424662 0.62304 0
M  V30 2139 H 194.217 1.52628 1.01868 0
M  V30 2140 H 192.599 1.54672 3.64544 0
M  V30 2141 H 193.773 4.03162 2.23152 0
M  V30 2142 H 192.088 3.56392 2.15345 0
M  V30 2143 H 194.685 2.50354 4.72469 0
M  V30 2144 H 195.028 0.925819 4.05875 0
M  V30 2145 H 195.561 2.38287 3.18534 0
M  V30 2146 H 192.3 5.30615 3.84874 0
M  V30 2147 H 191.82 3.79137 4.64774 0
M  V30 2148 H 193.499 4.37346 4.76799 0
M  V30 2149 N 193.631 -1.12557 1.10312 0
M  V30 2150 C 195.042 -1.65574 0.862678 0
M  V30 2151 C 195.393 -1.86566 -0.607256 0
M  V30 2152 O 194.518 -1.59121 -1.46662 0
M  V30 2153 C 195.113 -3.00776 1.55947 0
M  V30 2154 C 193.672 -3.50748 1.36576 0
M  V30 2155 C 192.819 -2.25797 1.60968 0
M  V30 2156 H 195.77 -0.963552 1.26101 0
M  V30 2157 H 195.791 -3.67185 0.997753 0
M  V30 2158 H 195.303 -2.85465 2.62928 0
M  V30 2159 H 193.404 -3.71245 0.317531 0
M  V30 2160 H 193.517 -4.30289 2.10686 0
M  V30 2161 H 191.881 -2.32841 1.03234 0
M  V30 2162 H 192.664 -2.13043 2.69198 0
M  V30 2163 N 195.109 -0.891671 -1.2995 0
M  V30 2164 C 196.019 -0.367691 -2.31701 0
M  V30 2165 C 197.035 0.533486 -1.6562 0
M  V30 2166 O 198.211 0.424997 -1.96865 0
M  V30 2167 C 195.276 0.403406 -3.44345 0
M  V30 2168 C 194.337 -0.528328 -4.26037 0
M  V30 2169 C 193.57 0.206063 -5.33302 0
M  V30 2170 O 193.793 1.43119 -5.52153 0
M  V30 2171 O 192.727 -0.447281 -6.00236 0
M  V30 2172 H 196.553 -1.21163 -2.78484 0
M  V30 2173 H 194.138 -0.655725 -1.34241 0
M  V30 2174 H 196.02 0.839753 -4.12948 0
M  V30 2175 H 194.695 1.22354 -2.99685 0
M  V30 2176 H 193.602 -1.01362 -3.60106 0
M  V30 2177 H 194.935 -1.31465 -4.74318 0
M  V30 2178 N 196.587 1.43421 -0.653314 0
M  V30 2179 C 197.833 2.02111 -0.166992 0
M  V30 2180 C 198.166 1.51423 1.21592 0
M  V30 2181 O 197.441 0.707389 1.8118 0
M  V30 2182 C 197.724 3.5966 -0.177948 0
M  V30 2183 C 197.577 4.20579 -1.59478 0
M  V30 2184 C 198.896 4.37413 0.4856 0
M  V30 2185 H 196.015 0.734374 -0.0621557 0
M  V30 2186 H 198.657 1.70717 -0.834016 0
M  V30 2187 H 196.807 3.86537 0.390032 0
M  V30 2188 H 198.479 4.04732 -2.21336 0
M  V30 2189 H 196.722 3.77226 -2.14204 0
M  V30 2190 H 197.393 5.29665 -1.5543 0
M  V30 2191 H 199.869 4.161 0.00234528 0
M  V30 2192 H 198.745 5.47075 0.447207 0
M  V30 2193 H 199.006 4.13672 1.55974 0
M  V30 2194 N 198.065 0.39524 1.52563 0
M  V30 2195 C 199.013 -0.451859 2.28169 0
M  V30 2196 C 200.007 -1.05792 1.32304 0
M  V30 2197 O 201.213 -0.997718 1.49818 0
M  V30 2198 H 197.588 -0.164481 0.733792 0
M  V30 2199 H 199.559 0.207199 2.9768 0
M  V30 2200 C 198.308 -1.56385 3.10546 0
M  V30 2201 H 197.631 -1.10682 3.84174 0
M  V30 2202 H 199.071 -2.13067 3.66577 0
M  V30 2203 C 197.53 -2.52328 2.23231 0
M  V30 2204 O 198.06 -3.5588 1.86312 0
M  V30 2205 N 196.266 -2.22209 1.87274 0
M  V30 2206 H 195.813 -1.38033 2.17496 0
M  V30 2207 H 195.771 -2.86652 1.29143 0
M  V30 2208 N 199.544 -1.57102 0.125237 0
M  V30 2209 C 200.79 -1.95697 -0.532035 0
M  V30 2210 C 201.123 -1.009 -1.6593 0
M  V30 2211 O 200.398 -0.047347 -1.94442 0
M  V30 2212 C 200.681 -3.44181 -1.05884 0
M  V30 2213 C 200.534 -4.49752 0.0654392 0
M  V30 2214 C 201.853 -3.94655 -1.9477 0
M  V30 2215 H 198.972 -0.711571 -0.191925 0
M  V30 2216 H 201.614 -1.88923 0.20206 0
M  V30 2217 H 199.764 -3.50085 -1.68442 0
M  V30 2218 H 201.436 -4.55943 0.700982 0
M  V30 2219 H 199.679 -4.27653 0.727709 0
M  V30 2220 H 200.35 -5.50924 -0.344505 0
M  V30 2221 H 202.826 -3.91094 -1.42074 0
M  V30 2222 H 201.702 -4.99057 -2.28546 0
M  V30 2223 H 201.963 -3.35718 -2.87656 0
M  V30 2224 N 201.022 0.148545 -1.56898 0
M  V30 2225 C 202.27 0.859717 -1.82902 0
M  V30 2226 C 202.591 1.81775 -0.70588 0
M  V30 2227 O 201.861 1.93994 0.272586 0
M  V30 2228 H 200.441 0.320469 -0.674766 0
M  V30 2229 H 203.103 0.142918 -1.94375 0
M  V30 2230 H 202.199 1.4229 -2.77777 0
M  V30 2231 N 202.5 1.5196 0.417844 0
M  V30 2232 C 203.41 1.77554 1.53336 0
M  V30 2233 C 204.426 0.660655 1.6097 0
M  V30 2234 O 205.602 0.945099 1.77848 0
M  V30 2235 C 202.667 1.91291 2.89152 0
M  V30 2236 C 201.728 3.15183 2.91475 0
M  V30 2237 C 200.961 3.28256 4.20813 0
M  V30 2238 O 201.184 2.46798 5.14244 0
M  V30 2239 O 200.118 4.21356 4.29817 0
M  V30 2240 H 203.944 2.7222 1.34647 0
M  V30 2241 H 201.529 1.36698 0.602828 0
M  V30 2242 H 203.411 2.02199 3.69721 0
M  V30 2243 H 202.086 0.998129 3.07927 0
M  V30 2244 H 200.993 3.09739 2.09791 0
M  V30 2245 H 202.326 4.06414 2.77648 0
M  V30 2246 N 203.978 -0.674533 1.42435 0
M  V30 2247 C 205.226 -1.43175 1.42637 0
M  V30 2248 C 205.547 -1.94951 0.0438992 0
M  V30 2249 O 204.817 -1.7308 -0.917607 0
M  V30 2250 H 203.397 -0.531307 0.525092 0
M  V30 2251 H 206.059 -0.797006 1.77859 0
M  V30 2252 H 205.155 -2.28463 2.12629 0
M  V30 2253 N 205.456 -1.28612 -0.910864 0
M  V30 2254 C 206.733 -1.06632 -1.63979 0
M  V30 2255 C 207.113 0.393351 -2.07403 0
M  V30 2256 O 206.461 1.37999 -1.82122 0
M  V30 2257 C 206.671 -2.0436 -2.8291 0
M  V30 2258 C 208.019 -2.34666 -3.5386 0
M  V30 2259 O 209.043 -2.02467 -2.93062 0
M  V30 2260 O 207.902 -2.89631 -4.63439 0
M  V30 2261 H 204.996 -0.407737 -0.7195 0
M  V30 2262 H 207.542 -1.39942 -0.959914 0
M  V30 2263 H 206.314 -3.02727 -2.47936 0
M  V30 2264 H 205.937 -1.71714 -3.58609 0
M  V30 2265 N 206.934 1.1197 -1.10907 0
M  V30 2266 C 208.18 1.8386 -0.855773 0
M  V30 2267 C 208.513 1.84134 0.617103 0
M  V30 2268 O 207.788 1.29041 1.45529 0
M  V30 2269 C 208.071 3.31305 -1.411 0
M  V30 2270 C 207.924 3.39456 -2.9511 0
M  V30 2271 C 209.243 4.2721 -1.05736 0
M  V30 2272 H 206.362 0.667545 -0.312334 0
M  V30 2273 H 209.004 1.31331 -1.37303 0
M  V30 2274 H 207.154 3.76169 -0.97105 0
M  V30 2275 H 208.826 3.03191 -3.47668 0
M  V30 2276 H 207.069 2.79849 -3.31462 0
M  V30 2277 H 207.74 4.43209 -3.29044 0
M  V30 2278 H 210.216 3.90497 -1.43706 0
M  V30 2279 H 209.092 5.28775 -1.47269 0
M  V30 2280 H 209.353 4.42088 0.0325958 0
M  V30 2281 N 208.412 0.89855 1.29475 0
M  V30 2282 C 209.658 0.524658 1.95896 0
M  V30 2283 C 209.991 -0.926468 1.70676 0
M  V30 2284 O 209.266 -1.65665 1.01908 0
M  V30 2285 C 209.549 0.81633 3.50725 0
M  V30 2286 C 209.402 2.31907 3.85408 0
M  V30 2287 C 210.721 0.302038 4.39062 0
M  V30 2288 H 207.84 0.19209 0.711527 0
M  V30 2289 H 210.482 1.12502 1.53112 0
M  V30 2290 H 208.632 0.305369 3.87298 0
M  V30 2291 H 210.304 2.89949 3.58786 0
M  V30 2292 H 208.547 2.78027 3.32992 0
M  V30 2293 H 209.218 2.47373 4.93468 0
M  V30 2294 H 211.694 0.739551 4.09475 0
M  V30 2295 H 210.57 0.535331 5.46283 0
M  V30 2296 H 210.831 -0.797216 4.34853 0
M  V30 2297 N 209.89 -1.43072 0.660911 0
M  V30 2298 C 211.137 -2.01721 0.177445 0
M  V30 2299 C 211.465 -1.5218 -1.21126 0
M  V30 2300 O 210.72 -0.708659 -1.82419 0
M  V30 2301 C 211.019 -3.57103 0.145563 0
M  V30 2302 C 210.685 -4.26021 1.47705 0
M  V30 2303 C 209.347 -4.44563 1.84165 0
M  V30 2304 C 211.699 -4.64983 2.35458 0
M  V30 2305 C 209.027 -4.99334 3.0803 0
M  V30 2306 C 211.379 -5.21127 3.58622 0
M  V30 2307 C 210.043 -5.37884 3.95268 0
M  V30 2308 H 209.313 -0.73815 0.0649317 0
M  V30 2309 H 211.96 -1.71446 0.853144 0
M  V30 2310 H 210.265 -3.86965 -0.61361 0
M  V30 2311 H 211.962 -4.00248 -0.2455 0
M  V30 2312 H 208.552 -4.11939 1.18339 0
M  V30 2313 H 212.736 -4.50343 2.08579 0
M  V30 2314 H 207.992 -5.10493 3.36462 0
M  V30 2315 H 212.166 -5.50262 4.26831 0
M  V30 2316 H 209.793 -5.80089 4.91325 0
M  V30 2317 N 211.368 -0.403325 -1.52352 0
M  V30 2318 C 212.617 0.175668 -2.00934 0
M  V30 2319 C 212.93 1.46718 -1.29356 0
M  V30 2320 O 214.136 2.12708 -1.68724 0
M  V30 2321 C 212.592 0.363612 -3.58058 0
M  V30 2322 C 212.2 -0.915472 -4.38547 0
M  V30 2323 C 213.944 0.89821 -4.14888 0
M  V30 2324 C 211.851 -0.695035 -5.87302 0
M  V30 2325 H 210.781 0.0694234 -0.750797 0
M  V30 2326 H 213.432 -0.527879 -1.75743 0
M  V30 2327 H 211.814 1.12935 -3.79555 0
M  V30 2328 H 212.988 -1.68691 -4.28812 0
M  V30 2329 H 211.303 -1.37606 -3.93006 0
M  V30 2330 H 213.9 1.07907 -5.23699 0
M  V30 2331 H 214.243 1.87126 -3.71873 0
M  V30 2332 H 214.776 0.191681 -3.97338 0
M  V30 2333 H 211.515 -1.63948 -6.34666 0
M  V30 2334 H 211.035 0.0372116 -5.99788 0
M  V30 2335 H 212.714 -0.33497 -6.46132 0
M  V30 2336 N 212.846 1.57033 -0.133567 0
M  V30 2337 C 214.257 1.82593 0.389464 0
M  V30 2338 C 214.608 1.05156 1.6564 0
M  V30 2339 O 213.733 0.292644 2.14412 0
M  V30 2340 C 214.328 3.31204 0.713377 0
M  V30 2341 C 212.887 3.57393 1.18098 0
M  V30 2342 C 212.034 2.76598 0.197126 0
M  V30 2343 H 214.985 1.54598 -0.358481 0
M  V30 2344 H 215.006 3.46627 1.56939 0
M  V30 2345 H 214.518 3.87537 -0.2089 0
M  V30 2346 H 212.619 3.06433 2.11966 0
M  V30 2347 H 212.732 4.65915 1.11624 0
M  V30 2348 H 211.096 2.45257 0.687088 0
M  V30 2349 H 211.879 3.35697 -0.718504 0
M  V30 2350 N 214.325 -0.140222 1.56975 0
M  V30 2351 C 215.273 -1.19207 1.99731 0
M  V30 2352 C 216.267 -1.44089 0.890777 0
M  V30 2353 O 217.473 -1.44301 1.07597 0
M  V30 2354 H 213.848 -0.40142 0.635898 0
M  V30 2355 H 215.819 -0.804813 2.87342 0
M  V30 2356 C 214.568 -2.51617 2.39967 0
M  V30 2357 H 213.891 -2.33303 3.24669 0
M  V30 2358 H 215.331 -3.23827 2.73701 0
M  V30 2359 C 213.79 -3.12654 1.25496 0
M  V30 2360 O 214.32 -3.97786 0.559371 0
M  V30 2361 N 212.526 -2.72206 1.01746 0
M  V30 2362 H 212.073 -2.03074 1.58489 0
M  V30 2363 H 212.031 -3.13377 0.253461 0
M  V30 2364 N 215.803 -1.52179 -0.40978 0
M  V30 2365 C 217.214 -1.58377 -0.988615 0
M  V30 2366 C 217.565 -0.423879 -1.91566 0
M  V30 2367 O 216.69 0.455844 -2.11544 0
M  V30 2368 C 217.285 -2.87044 -1.79976 0
M  V30 2369 C 215.844 -2.95722 -2.32863 0
M  V30 2370 C 214.991 -2.53309 -1.12828 0
M  V30 2371 H 217.942 -1.57558 -0.190039 0
M  V30 2372 H 217.963 -2.7236 -2.65707 0
M  V30 2373 H 217.475 -3.71444 -1.12478 0
M  V30 2374 H 215.576 -2.15814 -3.03735 0
M  V30 2375 H 215.689 -3.99951 -2.63773 0
M  V30 2376 H 214.053 -2.07142 -1.48204 0
M  V30 2377 H 214.836 -3.40082 -0.46897 0
M  V30 2378 N 217.281 0.66697 -1.42791 0
M  V30 2379 C 218.229 1.80157 -1.47127 0
M  V30 2380 C 219.223 1.65825 -0.346199 0
M  V30 2381 O 220.429 1.72338 -0.519572 0
M  V30 2382 H 216.804 0.594158 -0.460956 0
M  V30 2383 H 218.775 1.73619 -2.42692 0
M  V30 2384 C 217.524 3.18351 -1.39813 0
M  V30 2385 H 216.847 3.3001 -2.25684 0
M  V30 2386 H 218.287 3.97736 -1.46908 0
M  V30 2387 C 216.746 3.36707 -0.11391 0
M  V30 2388 O 217.276 3.93027 0.830241 0
M  V30 2389 N 215.482 2.90586 -0.0285295 0
M  V30 2390 H 215.029 2.4494 -0.79764 0
M  V30 2391 H 214.987 3.03245 0.830063 0
M  V30 2392 N 218.759 1.29093 0.90403 0
M  V30 2393 C 219.707 1.13727 2.02901 0
M  V30 2394 C 220.701 0.0539853 1.69314 0
M  V30 2395 O 221.907 0.213469 1.7873 0
M  V30 2396 H 218.282 0.35117 0.664969 0
M  V30 2397 H 220.253 2.08982 2.13001 0
M  V30 2398 C 219.002 0.826066 3.37745 0
M  V30 2399 H 218.325 1.65164 3.64089 0
M  V30 2400 H 219.765 0.758559 4.17159 0
M  V30 2401 C 218.224 -0.470541 3.33598 0
M  V30 2402 O 218.754 -1.49792 3.72727 0
M  V30 2403 N 216.96 -0.474812 2.86695 0
M  V30 2404 H 216.507 0.361692 2.55048 0
M  V30 2405 H 216.465 -1.34236 2.84303 0
M  V30 2406 N 220.237 -1.11381 1.11499 0
M  V30 2407 C 221.648 -1.6465 0.880191 0
M  V30 2408 C 221.999 -1.87199 -0.587434 0
M  V30 2409 O 221.124 -1.60667 -1.44966 0
M  V30 2410 C 221.719 -2.99105 1.59128 0
M  V30 2411 C 220.278 -3.49279 1.40289 0
M  V30 2412 C 219.425 -2.24077 1.63354 0
M  V30 2413 H 222.376 -0.950123 1.27116 0
M  V30 2414 H 222.397 -3.66107 1.03664 0
M  V30 2415 H 221.909 -2.82661 2.65941 0
M  V30 2416 H 220.01 -3.70887 0.356888 0
M  V30 2417 H 220.123 -4.2803 2.15238 0
M  V30 2418 H 218.487 -2.31733 1.05698 0
M  V30 2419 H 219.27 -2.10175 2.71443 0
M  V30 2420 N 221.715 -0.905404 -1.28997 0
M  V30 2421 C 222.943 -0.549846 -1.9946 0
M  V30 2422 C 223.358 0.866834 -1.67724 0
M  V30 2423 O 222.715 1.57298 -0.925404 0
M  V30 2424 C 222.766 -0.739387 -3.53858 0
M  V30 2425 O 222.487 -2.10031 -3.84472 0
M  V30 2426 C 223.988 -0.389541 -4.41585 0
M  V30 2427 H 221.208 -0.210429 -0.637151 0
M  V30 2428 H 223.752 -1.21632 -1.64396 0
M  V30 2429 H 221.907 -0.120023 -3.87214 0
M  V30 2430 H 222.321 -2.13385 -4.79132 0
M  V30 2431 H 223.795 -0.572972 -5.49018 0
M  V30 2432 H 224.272 0.673756 -4.34001 0
M  V30 2433 H 224.878 -0.986089 -4.1371 0
M  V30 2434 N 223.193 1.4272 -0.668489 0
M  V30 2435 C 224.441 2.01226 -0.187769 0
M  V30 2436 C 224.762 1.53092 1.2078 0
M  V30 2437 O 224.032 0.74993 1.80977 0
M  V30 2438 H 222.612 0.744041 -0.0664272 0
M  V30 2439 H 225.274 1.74723 -0.863583 0
M  V30 2440 H 224.37 3.11556 -0.184166 0
M  V30 2441 N 224.671 0.411399 1.52136 0
M  V30 2442 C 225.621 -0.430376 2.23901 0
M  V30 2443 C 226.605 -1.0116 1.25121 0
M  V30 2444 O 227.797 -0.934044 1.50348 0
M  V30 2445 C 224.926 -1.54527 3.06556 0
M  V30 2446 C 224.012 -0.9747 4.12747 0
M  V30 2447 N 224.403 -0.130991 5.0563 0
M  V30 2448 C 222.701 -1.24497 4.28271 0
M  V30 2449 C 223.402 0.186689 5.814 0
M  V30 2450 N 222.378 -0.42304 5.41951 0
M  V30 2451 H 226.18 0.220509 2.93072 0
M  V30 2452 H 223.694 0.221952 1.60876 0
M  V30 2453 H 225.691 -2.16093 3.56524 0
M  V30 2454 H 224.351 -2.19875 2.38925 0
M  V30 2455 H 225.362 0.23349 5.17373 0
M  V30 2456 H 222.039 -1.89787 3.7187 0
M  V30 2457 H 223.429 0.871673 6.66222 0
M  V30 2458 N 226.149 -1.5696 0.141893 0
M  V30 2459 C 227.395 -1.9625 -0.511248 0
M  V30 2460 C 227.728 -1.02654 -1.64851 0
M  V30 2461 O 227.003 -0.0679676 -1.94381 0
M  V30 2462 C 227.286 -3.45285 -1.02227 0
M  V30 2463 C 227.139 -4.49658 0.113138 0
M  V30 2464 C 228.458 -3.96698 -1.90574 0
M  V30 2465 H 225.577 -0.713567 -0.184367 0
M  V30 2466 H 228.219 -1.88698 0.222087 0
M  V30 2467 H 226.369 -3.51852 -1.64719 0
M  V30 2468 H 228.041 -4.55174 0.749302 0
M  V30 2469 H 226.284 -4.26857 0.773026 0
M  V30 2470 H 226.955 -5.51258 -0.286053 0
M  V30 2471 H 229.431 -3.92578 -1.37918 0
M  V30 2472 H 228.307 -5.01453 -2.2324 0
M  V30 2473 H 228.568 -3.3875 -2.84079 0
M  V30 2474 N 227.627 0.131896 -1.57047 0
M  V30 2475 C 228.874 0.841932 -1.84168 0
M  V30 2476 C 229.202 1.8048 -0.725066 0
M  V30 2477 O 228.457 1.93618 0.284692 0
M  V30 2478 C 228.756 1.63703 -3.17704 0
M  V30 2479 C 228.422 0.81961 -4.43388 0
M  V30 2480 C 227.084 0.594148 -4.77518 0
M  V30 2481 C 229.436 0.248977 -5.20605 0
M  V30 2482 C 226.764 -0.212409 -5.86315 0
M  V30 2483 C 229.116 -0.544701 -6.30251 0
M  V30 2484 C 227.78 -0.780599 -6.6292 0
M  V30 2485 H 227.05 0.308085 -0.673917 0
M  V30 2486 H 229.697 0.104867 -1.91213 0
M  V30 2487 H 228.002 2.44464 -3.06177 0
M  V30 2488 H 229.699 2.19015 -3.35907 0
M  V30 2489 H 226.289 1.00542 -4.16641 0
M  V30 2490 H 230.473 0.410408 -4.946 0
M  V30 2491 H 225.729 -0.404524 -6.1006 0
M  V30 2492 H 229.903 -0.993922 -6.89271 0
M  V30 2493 H 227.53 -1.40742 -7.47058 0
M  V30 2494 N 229.106 1.52395 0.401703 0
M  V30 2495 C 230.016 1.7917 1.51444 0
M  V30 2496 C 231.032 0.677691 1.6026 0
M  V30 2497 O 232.208 0.963909 1.76835 0
M  V30 2498 C 229.273 1.94347 2.87107 0
M  V30 2499 C 228.334 3.18257 2.88116 0
M  V30 2500 C 227.567 3.32701 4.17308 0
M  V30 2501 O 227.79 2.52238 5.11598 0
M  V30 2502 O 226.724 4.25891 4.25324 0
M  V30 2503 H 230.55 2.73633 1.31752 0
M  V30 2504 H 228.135 1.3733 0.588296 0
M  V30 2505 H 230.017 2.06109 3.67555 0
M  V30 2506 H 228.692 1.03073 3.06851 0
M  V30 2507 H 227.599 3.11947 2.06494 0
M  V30 2508 H 228.932 4.09336 2.73322 0
M  V30 2509 N 230.584 -0.659388 1.43143 0
M  V30 2510 C 232 -0.974337 1.26407 0
M  V30 2511 C 232.2 -2.007 0.179341 0
M  V30 2512 O 231.256 -2.4856 -0.444295 0
M  V30 2513 C 232.569 -1.46447 2.62628 0
M  V30 2514 C 234.117 -1.58144 2.7011 0
M  V30 2515 C 234.592 -2.1055 4.06734 0
M  V30 2516 N 236.083 -2.17861 4.08767 0
M  V30 2517 C 236.818 -2.59519 5.1131 0
M  V30 2518 N 236.314 -3.00518 6.24228 0
M  V30 2519 N 238.107 -2.59404 4.98664 0
M  V30 2520 H 230.258 0.0240528 2.12386 0
M  V30 2521 H 232.521 -0.0518065 0.946583 0
M  V30 2522 H 232.227 -0.780123 3.42939 0
M  V30 2523 H 232.101 -2.44058 2.87603 0
M  V30 2524 H 234.488 -2.25682 1.90136 0
M  V30 2525 H 234.569 -0.589828 2.48907 0
M  V30 2526 H 234.213 -1.43616 4.87172 0
M  V30 2527 H 234.143 -3.10531 4.25298 0
M  V30 2528 H 236.634 -1.88975 3.27257 0
M  V30 2529 H 236.947 -3.31036 6.98309 0
M  V30 2530 H 235.292 -2.98337 6.2771 0
M  V30 2531 H 238.483 -2.26747 4.09516 0
M  V30 2532 H 238.656 -2.91548 5.78709 0
M  V30 2533 N 232.062 -1.29571 -0.897171 0
M  V30 2534 C 232.972 -1.16808 -2.03453 0
M  V30 2535 C 233.988 -0.0907471 -1.73763 0
M  V30 2536 O 235.164 -0.303312 -1.99103 0
M  V30 2537 C 232.229 -0.848264 -3.36163 0
M  V30 2538 C 231.29 -2.0097 -3.79354 0
M  V30 2539 C 230.523 -1.70505 -5.05731 0
M  V30 2540 O 230.746 -0.62718 -5.66941 0
M  V30 2541 O 229.68 -2.5538 -5.45036 0
M  V30 2542 H 233.506 -2.12325 -2.17144 0
M  V30 2543 H 231.091 -1.09047 -1.02123 0
M  V30 2544 H 232.973 -0.684581 -4.15802 0
M  V30 2545 H 231.648 0.0771071 -3.23608 0
M  V30 2546 H 230.555 -2.22863 -3.00471 0
M  V30 2547 H 231.888 -2.91636 -3.96496 0
M  V30 2548 N 233.54 1.10788 -1.12088 0
M  V30 2549 C 234.45 2.20599 -0.798338 0
M  V30 2550 C 235.466 1.72712 0.21135 0
M  V30 2551 O 236.642 2.01348 0.0458477 0
M  V30 2552 C 233.707 3.45771 -0.253674 0
M  V30 2553 C 232.768 4.08411 -1.32283 0
M  V30 2554 C 232.001 5.27608 -0.80406 0
M  V30 2555 O 232.224 5.69241 0.363478 0
M  V30 2556 O 231.158 5.8101 -1.57198 0
M  V30 2557 H 234.984 2.50614 -1.7154 0
M  V30 2558 H 232.569 1.19454 -0.897275 0
M  V30 2559 H 234.451 4.21376 0.0453691 0
M  V30 2560 H 233.126 3.1739 0.636005 0
M  V30 2561 H 232.033 3.34507 -1.67499 0
M  V30 2562 H 233.366 4.40986 -2.18614 0
M  V30 2563 N 235.018 0.912232 1.28515 0
M  V30 2564 C 236.267 0.540504 1.94323 0
M  V30 2565 C 236.58 -0.920044 1.72611 0
M  V30 2566 O 237.786 -1.39986 2.32629 0
M  V30 2567 C 236.242 0.915803 3.48053 0
M  V30 2568 C 235.85 2.39598 3.78546 0
M  V30 2569 C 237.594 0.614588 4.20027 0
M  V30 2570 C 235.501 2.71148 5.25578 0
M  V30 2571 H 234.431 0.198418 0.727424 0
M  V30 2572 H 237.082 1.11094 1.46049 0
M  V30 2573 H 235.464 0.274168 3.9505 0
M  V30 2574 H 236.638 3.08422 3.42364 0
M  V30 2575 H 234.953 2.66749 3.1974 0
M  V30 2576 H 237.55 0.827002 5.28266 0
M  V30 2577 H 237.893 -0.447531 4.13887 0
M  V30 2578 H 238.426 1.21462 3.78803 0
M  V30 2579 H 235.165 3.76207 5.36794 0
M  V30 2580 H 234.685 2.0696 5.62963 0
M  V30 2581 H 236.364 2.58072 5.93302 0
M  V30 2582 N 236.496 -1.42363 0.676048 0
M  V30 2583 C 237.406 -2.346 -0.00153389 0
M  V30 2584 C 238.422 -1.5516 -0.787485 0
M  V30 2585 O 239.598 -1.87723 -0.729521 0
M  V30 2586 C 236.663 -3.33705 -0.940298 0
M  V30 2587 C 235.724 -4.29042 -0.148739 0
M  V30 2588 C 234.957 -5.23413 -1.04279 0
M  V30 2589 O 235.18 -5.22749 -2.28232 0
M  V30 2590 O 234.114 -5.99795 -0.502925 0
M  V30 2591 H 237.94 -2.94082 0.758268 0
M  V30 2592 H 235.525 -1.42888 0.436289 0
M  V30 2593 H 237.407 -3.94586 -1.47917 0
M  V30 2594 H 236.082 -2.76695 -1.67993 0
M  V30 2595 H 234.989 -3.71571 0.43427 0
M  V30 2596 H 236.322 -4.89097 0.551805 0
M  V30 2597 N 237.974 -0.419461 -1.51915 0
M  V30 2598 C 239.39 -0.0708431 -1.59443 0
M  V30 2599 C 239.59 1.41796 -1.43164 0
M  V30 2600 O 238.646 2.18596 -1.26381 0
M  V30 2601 C 239.959 -0.574991 -2.95151 0
M  V30 2602 C 241.507 -0.533867 -3.08413 0
M  V30 2603 C 241.982 -1.01469 -4.46618 0
M  V30 2604 N 243.473 -0.971939 -4.52888 0
M  V30 2605 C 244.208 -1.31505 -5.58116 0
M  V30 2606 N 243.704 -1.73014 -6.70849 0
M  V30 2607 N 245.497 -1.23436 -5.48379 0
M  V30 2608 H 237.648 -1.38836 -1.60743 0
M  V30 2609 H 239.911 -0.570998 -0.756747 0
M  V30 2610 H 239.617 -1.61597 -3.12377 0
M  V30 2611 H 239.491 0.00979777 -3.77199 0
M  V30 2612 H 241.878 0.498086 -2.90866 0
M  V30 2613 H 241.959 -1.15484 -2.28248 0
M  V30 2614 H 241.603 -2.04502 -4.6491 0
M  V30 2615 H 241.533 -0.370433 -5.25295 0
M  V30 2616 H 244.024 -0.666893 -3.71969 0
M  V30 2617 H 244.337 -1.97479 -7.47143 0
M  V30 2618 H 242.682 -1.76926 -6.72103 0
M  V30 2619 H 245.873 -0.908869 -4.59192 0
M  V30 2620 H 246.046 -1.50506 -6.30279 0
M  V30 2621 N 239.452 1.56882 -0.150215 0
M  V30 2622 C 240.701 1.95403 0.500071 0
M  V30 2623 C 241.014 1.03777 1.658 0
M  V30 2624 O 242.22 1.31889 2.37313 0
M  V30 2625 C 240.676 3.4738 0.941018 0
M  V30 2626 C 240.284 4.47596 -0.190158 0
M  V30 2627 C 242.028 3.9476 1.56091 0
M  V30 2628 C 239.935 5.90787 0.269237 0
M  V30 2629 H 238.865 0.729515 0.190588 0
M  V30 2630 H 241.516 1.81988 -0.235074 0
M  V30 2631 H 239.898 3.56138 1.73152 0
M  V30 2632 H 241.072 4.50536 -0.967157 0
M  V30 2633 H 239.387 4.10151 -0.718666 0
M  V30 2634 H 241.984 4.99181 1.9163 0
M  V30 2635 H 242.327 3.36494 2.45107 0
M  V30 2636 H 242.86 3.88932 0.835249 0
M  V30 2637 H 239.599 6.52879 -0.585621 0
M  V30 2638 H 239.119 5.912 1.01204 0
M  V30 2639 H 240.798 6.42979 0.720176 0
M  V30 2640 N 240.93 -0.123565 1.57115 0
M  V30 2641 C 241.86 -1.15309 2.03042 0
M  V30 2642 C 242.841 -1.43454 0.914061 0
M  V30 2643 O 244.026 -1.53973 1.18347 0
M  V30 2644 C 241.156 -2.48043 2.43089 0
M  V30 2645 C 240.11 -2.3437 3.58127 0
M  V30 2646 C 239.436 -3.72026 3.84059 0
M  V30 2647 C 240.736 -1.80804 4.90007 0
M  V30 2648 H 242.43 -0.771102 2.893 0
M  V30 2649 H 239.976 -0.369479 1.39179 0
M  V30 2650 H 241.929 -3.20311 2.73823 0
M  V30 2651 H 240.653 -2.88122 1.53796 0
M  V30 2652 H 239.312 -1.64551 3.27595 0
M  V30 2653 H 238.96 -4.09582 2.91979 0
M  V30 2654 H 238.66 -3.63732 4.6149 0
M  V30 2655 H 240.184 -4.45806 4.1724 0
M  V30 2656 H 241.598 -2.42886 5.19307 0
M  V30 2657 H 239.995 -1.83343 5.71407 0
M  V30 2658 H 241.065 -0.76528 4.78823 0
M  V30 2659 N 242.408 -1.52605 -0.393616 0
M  V30 2660 C 243.355 -1.77055 -1.48054 0
M  V30 2661 C 244.325 -0.61358 -1.54352 0
M  V30 2662 O 245.51 -0.852806 -1.70681 0
M  V30 2663 C 242.65 -1.94108 -2.85335 0
M  V30 2664 C 241.763 -3.21792 -2.88226 0
M  V30 2665 C 240.898 -3.29188 -4.16904 0
M  V30 2666 C 239.937 -4.51013 -4.13828 0
M  V30 2667 N 239.074 -4.55716 -5.34105 0
M  V30 2668 H 243.914 -2.69815 -1.26506 0
M  V30 2669 H 241.451 -1.33683 -0.61379 0
M  V30 2670 H 243.409 -2.01979 -3.65049 0
M  V30 2671 H 242.039 -1.04713 -3.05344 0
M  V30 2672 H 241.091 -3.23015 -2.00911 0
M  V30 2673 H 242.403 -4.11557 -2.8182 0
M  V30 2674 H 241.557 -3.36216 -5.05018 0
M  V30 2675 H 240.296 -2.37389 -4.26026 0
M  V30 2676 H 239.301 -4.44115 -3.24102 0
M  V30 2677 H 240.526 -5.44123 -4.06333 0
M  V30 2678 H 238.472 -3.66807 -5.43865 0
M  V30 2679 H 238.389 -5.39346 -5.29756 0
M  V30 2680 H 239.657 -4.66993 -6.2413 0
M  V30 2681 N 243.887 0.651787 -1.4349 0
M  V30 2682 C 245.115 1.43937 -1.48626 0
M  V30 2683 C 245.53 1.8851 -0.104587 0
M  V30 2684 O 244.887 1.5958 0.885464 0
M  V30 2685 C 244.938 2.6734 -2.43334 0
M  V30 2686 O 244.659 2.24631 -3.76128 0
M  V30 2687 C 246.16 3.60683 -2.57726 0
M  V30 2688 H 243.38 0.44213 -0.504739 0
M  V30 2689 H 245.924 0.798944 -1.88248 0
M  V30 2690 H 244.079 3.2752 -2.06904 0
M  V30 2691 H 244.493 3.04485 -4.2707 0
M  V30 2692 H 245.967 4.43933 -3.28067 0
M  V30 2693 H 246.444 4.08126 -1.62265 0
M  V30 2694 H 247.05 3.06384 -2.94973 0
M  V30 2695 N 245.365 1.30045 0.890287 0
M  V30 2696 C 246.613 1.18327 1.63839 0
M  V30 2697 C 246.934 -0.263455 1.93212 0
M  V30 2698 O 246.204 -1.17856 1.56482 0
M  V30 2699 H 244.784 0.434933 0.607324 0
M  V30 2700 H 247.446 1.631 1.06698 0
M  V30 2701 H 246.542 1.74024 2.59079 0
M  V30 2702 N 246.843 -1.10192 1.12674 0
M  V30 2703 C 247.806 -2.14786 0.799979 0
M  V30 2704 C 248.806 -1.59711 -0.18685 0
M  V30 2705 O 249.996 -1.74156 0.0392558 0
M  V30 2706 C 247.128 -3.40374 0.189228 0
M  V30 2707 H 248.321 -2.45203 1.72671 0
M  V30 2708 H 245.874 -1.25597 0.930326 0
M  V30 2709 H 246.609 -3.15577 -0.747107 0
M  V30 2710 H 246.394 -3.81637 0.899766 0
M  V30 2711 H 247.884 -4.17594 -0.0228143 0
M  V30 2712 N 248.321 -0.919034 -1.28029 0
M  V30 2713 C 249.568 -0.554934 -1.94748 0
M  V30 2714 C 249.896 0.90231 -1.72304 0
M  V30 2715 O 249.151 1.65767 -1.04018 0
M  V30 2716 C 249.45 -0.816855 -3.4794 0
M  V30 2717 C 249.116 -2.25448 -3.90492 0
M  V30 2718 C 247.778 -2.64752 -4.01821 0
M  V30 2719 C 250.13 -3.18977 -4.12193 0
M  V30 2720 C 247.458 -3.96727 -4.32232 0
M  V30 2721 C 249.81 -4.50523 -4.44086 0
M  V30 2722 C 248.474 -4.89673 -4.53626 0
M  V30 2723 H 247.744 -0.203065 -0.712633 0
M  V30 2724 H 250.391 -1.16136 -1.52265 0
M  V30 2725 H 248.696 -0.127677 -3.91592 0
M  V30 2726 H 250.393 -0.514238 -3.97689 0
M  V30 2727 H 246.983 -1.93952 -3.82205 0
M  V30 2728 H 251.167 -2.89817 -4.02889 0
M  V30 2729 H 246.423 -4.26754 -4.37825 0
M  V30 2730 H 250.597 -5.23005 -4.59825 0
M  V30 2731 H 248.224 -5.91969 -4.76946 0
M  V30 2732 N 249.799 1.42003 -0.683588 0
M  V30 2733 C 251.045 2.01712 -0.209825 0
M  V30 2734 C 251.378 1.53968 1.18353 0
M  V30 2735 O 250.653 0.745661 1.79639 0
M  V30 2736 C 250.936 3.59202 -0.254197 0
M  V30 2737 C 250.789 4.17102 -1.68363 0
M  V30 2738 C 252.108 4.38344 0.392709 0
M  V30 2739 H 249.227 0.732891 -0.0777189 0
M  V30 2740 H 251.869 1.68909 -0.87004 0
M  V30 2741 H 250.019 3.87278 0.307954 0
M  V30 2742 H 251.691 3.99946 -2.29871 0
M  V30 2743 H 249.934 3.72597 -2.22157 0
M  V30 2744 H 250.605 5.26249 -1.6663 0
M  V30 2745 H 253.081 4.16011 -0.0859162 0
M  V30 2746 H 251.957 5.47901 0.331063 0
M  V30 2747 H 252.218 4.16887 1.47164 0
M  V30 2748 N 251.277 0.427512 1.51691 0
M  V30 2749 C 252.24 -0.377132 2.26076 0
M  V30 2750 C 253.24 -0.958089 1.29141 0
M  V30 2751 O 254.43 -0.83408 1.52934 0
M  V30 2752 C 251.562 -1.53262 3.04506 0
M  V30 2753 H 252.755 0.27464 2.9864 0
M  V30 2754 H 250.308 0.180445 1.55255 0
M  V30 2755 H 251.043 -2.22072 2.36335 0
M  V30 2756 H 250.828 -1.12232 3.75694 0
M  V30 2757 H 252.318 -2.10135 3.60878 0
M  V30 2758 N 252.755 -1.56801 0.158532 0
M  V30 2759 C 253.685 -2.20347 -0.772609 0
M  V30 2760 C 254.666 -1.15518 -1.24859 0
M  V30 2761 O 255.851 -1.43902 -1.30406 0
M  V30 2762 C 252.981 -2.83417 -2.00729 0
M  V30 2763 C 251.935 -3.94174 -1.66765 0
M  V30 2764 C 251.261 -4.44233 -2.97592 0
M  V30 2765 C 252.561 -5.14392 -0.905447 0
M  V30 2766 H 254.255 -2.98413 -0.242959 0
M  V30 2767 H 251.801 -1.43537 -0.115419 0
M  V30 2768 H 253.754 -3.26543 -2.6636 0
M  V30 2769 H 252.478 -2.02701 -2.56086 0
M  V30 2770 H 251.137 -3.51684 -1.03508 0
M  V30 2771 H 250.785 -3.60325 -3.50963 0
M  V30 2772 H 250.485 -5.18945 -2.75626 0
M  V30 2773 H 252.009 -4.90037 -3.64274 0
M  V30 2774 H 253.423 -5.5429 -1.46408 0
M  V30 2775 H 251.82 -5.9494 -0.7853 0
M  V30 2776 H 252.89 -4.84795 0.100668 0
M  V30 2777 N 254.233 0.115231 -1.57178 0
M  V30 2778 C 255.51 0.852873 -1.76027 0
M  V30 2779 C 255.89 1.97892 -0.73498 0
M  V30 2780 O 255.238 2.27232 0.24036 0
M  V30 2781 C 255.448 1.36608 -3.21153 0
M  V30 2782 C 256.796 1.81692 -3.83762 0
M  V30 2783 O 257.82 1.46278 -3.24779 0
M  V30 2784 O 256.679 2.47104 -4.87444 0
M  V30 2785 H 253.773 0.405296 -0.720877 0
M  V30 2786 H 256.319 0.0986785 -1.69413 0
M  V30 2787 H 255.091 0.558357 -3.87296 0
M  V30 2788 H 254.714 2.18287 -3.3232 0
M  V30 2789 N 255.711 1.52812 0.385517 0
M  V30 2790 C 256.621 1.80766 1.49535 0
M  V30 2791 C 257.637 0.694651 1.59532 0
M  V30 2792 O 258.813 0.982611 1.75803 0
M  V30 2793 C 255.878 1.97381 2.85029 0
M  V30 2794 C 254.939 3.21295 2.84724 0
M  V30 2795 C 254.172 3.37108 4.13756 0
M  V30 2796 O 254.395 2.5765 5.08893 0
M  V30 2797 O 253.329 4.30378 4.20783 0
M  V30 2798 H 257.155 2.75015 1.28842 0
M  V30 2799 H 254.74 1.37946 0.573697 0
M  V30 2800 H 256.622 2.09996 3.65349 0
M  V30 2801 H 255.297 1.06322 3.05741 0
M  V30 2802 H 254.204 3.1412 2.03174 0
M  V30 2803 H 255.537 4.12212 2.68965 0
M  V30 2804 N 257.189 -0.644168 1.43834 0
M  V30 2805 C 258.152 -1.73857 1.49353 0
M  V30 2806 C 259.152 -1.56315 0.377112 0
M  V30 2807 O 260.342 -1.62048 0.639226 0
M  V30 2808 C 257.474 -3.12819 1.35488 0
M  V30 2809 H 258.667 -1.70342 2.46827 0
M  V30 2810 H 256.22 -0.856652 1.30733 0
M  V30 2811 H 256.955 -3.2194 0.390569 0
M  V30 2812 H 256.74 -3.26958 2.16428 0
M  V30 2813 H 258.23 -3.92606 1.42302 0
M  V30 2814 N 258.668 -1.30515 -0.883378 0
M  V30 2815 C 259.898 -1.22182 -1.66599 0
M  V30 2816 C 260.306 0.217507 -1.87946 0
M  V30 2817 O 259.649 1.1554 -1.42815 0
M  V30 2818 C 259.711 -1.88146 -3.06335 0
M  V30 2819 C 259.375 -3.37476 -3.08154 0
M  V30 2820 C 260.372 -4.33443 -2.87094 0
M  V30 2821 C 258.057 -3.7895 -3.29701 0
M  V30 2822 C 260.051 -5.68858 -2.8754 0
M  V30 2823 C 257.738 -5.14482 -3.29776 0
M  V30 2824 C 258.736 -6.09246 -3.0872 0
M  V30 2825 O 258.424 -7.42302 -3.08615 0
M  V30 2826 H 258.156 -0.423898 -0.52658 0
M  V30 2827 H 260.71 -1.72703 -1.11188 0
M  V30 2828 H 258.94 -1.32157 -3.63416 0
M  V30 2829 H 260.629 -1.7391 -3.66756 0
M  V30 2830 H 261.395 -4.02733 -2.70243 0
M  V30 2831 H 257.274 -3.05631 -3.45124 0
M  V30 2832 H 260.818 -6.428 -2.71024 0
M  V30 2833 H 256.715 -5.44832 -3.46163 0
M  V30 2834 H 257.483 -7.5131 -3.24769 0
M  V30 2835 N 260.146 1.09593 -1.13257 0
M  V30 2836 C 261.376 1.85231 -0.915049 0
M  V30 2837 C 261.784 1.81345 0.539498 0
M  V30 2838 O 261.127 1.20664 1.38513 0
M  V30 2839 C 261.189 3.34275 -1.3229 0
M  V30 2840 C 260.853 3.6191 -2.79052 0
M  V30 2841 C 261.85 3.57777 -3.77216 0
M  V30 2842 C 259.535 3.90309 -3.16171 0
M  V30 2843 C 261.529 3.81652 -5.1051 0
M  V30 2844 C 259.216 4.13839 -4.49644 0
M  V30 2845 C 260.214 4.09502 -5.46623 0
M  V30 2846 O 259.902 4.32426 -6.77689 0
M  V30 2847 H 259.634 0.591997 -0.326367 0
M  V30 2848 H 262.188 1.394 -1.50854 0
M  V30 2849 H 260.418 3.80805 -0.672667 0
M  V30 2850 H 262.107 3.9132 -1.07812 0
M  V30 2851 H 262.873 3.35865 -3.49885 0
M  V30 2852 H 258.752 3.92811 -2.41289 0
M  V30 2853 H 262.296 3.78182 -5.86195 0
M  V30 2854 H 258.193 4.35232 -4.767 0
M  V30 2855 H 258.961 4.49896 -6.83766 0
M  V30 2856 N 261.624 0.925811 1.2754 0
M  V30 2857 C 262.534 0.428993 2.30644 0
M  V30 2858 C 263.55 -0.489387 1.66976 0
M  V30 2859 O 264.726 -0.372653 1.97922 0
M  V30 2860 C 261.791 -0.311967 3.45294 0
M  V30 2861 C 260.852 0.641098 4.24486 0
M  V30 2862 C 260.085 -0.0645955 5.33661 0
M  V30 2863 O 260.308 -1.28429 5.55754 0
M  V30 2864 O 259.242 0.606265 5.98839 0
M  V30 2865 H 263.068 1.28504 2.75173 0
M  V30 2866 H 260.653 0.691086 1.32455 0
M  V30 2867 H 262.535 -0.729972 4.15029 0
M  V30 2868 H 261.21 -1.14365 3.02824 0
M  V30 2869 H 260.117 1.10874 3.57292 0
M  V30 2870 H 261.45 1.43995 4.70666 0
M  V30 2871 N 263.102 -1.41638 0.69111 0
M  V30 2872 C 264.349 -2.01299 0.220193 0
M  V30 2873 C 264.677 -1.54715 -1.17871 0
M  V30 2874 O 263.932 -0.747193 -1.80874 0
M  V30 2875 C 264.231 -3.56714 0.221277 0
M  V30 2876 C 263.897 -4.22792 1.56709 0
M  V30 2877 C 262.559 -4.40557 1.93554 0
M  V30 2878 C 264.911 -4.59883 2.45268 0
M  V30 2879 C 262.239 -4.92688 3.18552 0
M  V30 2880 C 264.591 -5.13403 3.69595 0
M  V30 2881 C 263.255 -5.29379 4.06589 0
M  V30 2882 H 262.525 -0.736606 0.0805743 0
M  V30 2883 H 265.172 -1.69598 0.889319 0
M  V30 2884 H 263.477 -3.8818 -0.531391 0
M  V30 2885 H 265.174 -4.00678 -0.160547 0
M  V30 2886 H 261.764 -4.09336 1.2705 0
M  V30 2887 H 265.948 -4.45817 2.18084 0
M  V30 2888 H 261.204 -5.03242 3.47214 0
M  V30 2889 H 265.378 -5.41084 4.38407 0
M  V30 2890 H 263.005 -5.69537 5.03519 0
M  V30 2891 N 264.58 -0.43555 -1.51462 0
M  V30 2892 C 265.53 0.394701 -2.24558 0
M  V30 2893 C 266.514 0.99157 -1.26715 0
M  V30 2894 O 267.706 0.910007 -1.51815 0
M  V30 2895 C 264.835 1.4963 -3.08975 0
M  V30 2896 C 263.921 0.908912 -4.14246 0
M  V30 2897 N 264.312 0.0505335 -5.05775 0
M  V30 2898 C 262.61 1.17668 -4.30198 0
M  V30 2899 C 263.311 -0.279161 -5.8103 0
M  V30 2900 N 262.287 0.336767 -5.42556 0
M  V30 2901 H 266.089 -0.267106 -2.92684 0
M  V30 2902 H 263.603 -0.247518 -1.60503 0
M  V30 2903 H 265.6 2.10394 -3.59917 0
M  V30 2904 H 264.26 2.16046 -2.42393 0
M  V30 2905 H 265.271 -0.31577 -5.16936 0
M  V30 2906 H 261.948 1.83847 -3.74842 0
M  V30 2907 H 263.338 -0.977553 -6.64751 0
M  V30 2908 N 266.058 1.56714 -0.166846 0
M  V30 2909 C 267.306 1.96358 0.478305 0
M  V30 2910 C 267.627 1.0537 1.6408 0
M  V30 2911 O 266.897 0.119154 1.95537 0
M  V30 2912 H 265.477 0.725065 0.179692 0
M  V30 2913 H 268.139 1.93329 -0.246985 0
M  V30 2914 H 267.235 3.00547 0.841292 0
M  V30 2915 N 267.536 -0.106894 1.57237 0
M  V30 2916 C 268.446 -1.14911 2.0453 0
M  V30 2917 C 269.462 -1.44592 0.96795 0
M  V30 2918 O 270.638 -1.55468 1.2803 0
M  V30 2919 C 267.703 -2.45272 2.45036 0
M  V30 2920 C 266.764 -2.22879 3.66911 0
M  V30 2921 C 265.997 -3.47024 4.05475 0
M  V30 2922 O 266.22 -4.54804 3.44252 0
M  V30 2923 O 265.154 -3.3731 4.98504 0
M  V30 2924 H 268.98 -0.777461 2.9358 0
M  V30 2925 H 266.565 -0.318563 1.45964 0
M  V30 2926 H 268.447 -3.22055 2.71769 0
M  V30 2927 H 267.122 -2.81886 1.59129 0
M  V30 2928 H 266.029 -1.43915 3.45311 0
M  V30 2929 H 267.362 -1.91163 4.53561 0
M  V30 2930 N 269.014 -1.53014 -0.377408 0
M  V30 2931 C 270.239 -1.72818 -1.14668 0
M  V30 2932 C 270.664 -0.450725 -1.8262 0
M  V30 2933 O 270.022 0.59439 -1.7128 0
M  V30 2934 C 270.07 -2.88627 -2.16164 0
M  V30 2935 O 269.174 -2.56409 -3.22998 0
M  V30 2936 H 268.515 -0.574301 -0.333278 0
M  V30 2937 H 271.045 -1.99853 -0.438152 0
M  V30 2938 H 271.055 -3.14455 -2.59966 0
M  V30 2939 H 269.73 -3.81294 -1.66095 0
M  V30 2940 H 268.307 -2.4136 -2.84253 0
M  V30 2941 N 270.492 0.636531 -1.44174 0
M  V30 2942 C 271.722 1.42146 -1.49927 0
M  V30 2943 C 272.13 1.88812 -0.121063 0
M  V30 2944 O 271.473 1.61126 0.882267 0
M  V30 2945 C 271.535 2.67883 -2.39748 0
M  V30 2946 C 271.199 2.43048 -3.8701 0
M  V30 2947 C 272.196 2.05216 -4.77684 0
M  V30 2948 C 269.881 2.56856 -4.3166 0
M  V30 2949 C 271.875 1.81512 -6.11009 0
M  V30 2950 C 269.562 2.32766 -5.65034 0
M  V30 2951 C 270.56 1.95152 -6.54526 0
M  V30 2952 O 270.248 1.71326 -7.85431 0
M  V30 2953 H 269.98 0.442567 -0.51099 0
M  V30 2954 H 272.534 0.786158 -1.8976 0
M  V30 2955 H 270.764 3.34032 -1.94832 0
M  V30 2956 H 272.453 3.29874 -2.36513 0
M  V30 2957 H 273.219 1.94111 -4.44462 0
M  V30 2958 H 269.098 2.85104 -3.62266 0
M  V30 2959 H 272.642 1.52077 -6.80822 0
M  V30 2960 H 268.539 2.43479 -5.97819 0
M  V30 2961 H 269.307 1.85616 -7.97176 0
M  V30 2962 N 271.97 1.30982 0.876444 0
M  V30 2963 C 273.216 1.20474 1.63138 0
M  V30 2964 C 273.549 -0.238096 1.92735 0
M  V30 2965 O 272.824 -1.1692 1.55435 0
M  V30 2966 C 273.107 2.04244 2.96574 0
M  V30 2967 C 272.96 3.56793 2.73896 0
M  V30 2968 C 274.279 1.88684 3.97601 0
M  V30 2969 H 271.398 0.439001 0.591985 0
M  V30 2970 H 274.04 1.60704 1.01361 0
M  V30 2971 H 272.19 1.70063 3.493 0
M  V30 2972 H 273.862 4.01077 2.27892 0
M  V30 2973 H 272.105 3.80548 2.08245 0
M  V30 2974 H 272.776 4.10706 3.68815 0
M  V30 2975 H 275.252 2.18584 3.54062 0
M  V30 2976 H 274.128 2.4961 4.88862 0
M  V30 2977 H 274.389 0.848343 4.33884 0
M  V30 2978 N 273.449 -1.08991 1.13837 0
M  V30 2979 C 274.726 -1.77863 0.813876 0
M  V30 2980 C 275.106 -1.99375 -0.693746 0
M  V30 2981 O 274.454 -1.59875 -1.63255 0
M  V30 2982 C 274.664 -3.0986 1.60586 0
M  V30 2983 C 276.012 -3.84493 1.8014 0
M  V30 2984 O 277.036 -3.19624 1.57222 0
M  V30 2985 O 275.895 -5.00957 2.18413 0
M  V30 2986 H 272.989 -0.771589 0.297624 0
M  V30 2987 H 275.535 -1.15507 1.24323 0
M  V30 2988 H 274.307 -2.89715 2.63022 0
M  V30 2989 H 273.93 -3.79942 1.17173 0
M  V30 2990 N 274.927 -0.932562 -1.27047 0
M  V30 2991 C 276.174 -0.575559 -1.94148 0
M  V30 2992 C 276.502 0.883984 -1.73251 0
M  V30 2993 O 275.757 1.64655 -1.0577 0
M  V30 2994 C 276.056 -0.853713 -3.47054 0
M  V30 2995 C 275.722 -2.29577 -3.88079 0
M  V30 2996 C 274.384 -2.68999 -3.9899 0
M  V30 2997 C 276.736 -3.23331 -4.08787 0
M  V30 2998 C 274.064 -4.01289 -4.28 0
M  V30 2999 C 276.416 -4.55207 -4.39282 0
M  V30 3000 C 275.08 -4.94457 -4.48407 0
M  V30 3001 H 274.35 -0.210612 -0.710439 0
M  V30 3002 H 276.997 -1.17744 -1.51025 0
M  V30 3003 H 275.302 -0.169204 -3.91434 0
M  V30 3004 H 276.999 -0.55639 -3.97121 0
M  V30 3005 H 273.589 -1.97994 -3.80127 0
M  V30 3006 H 277.773 -2.94074 -3.99793 0
M  V30 3007 H 273.029 -4.31374 -4.33275 0
M  V30 3008 H 277.203 -5.27852 -4.54252 0
M  V30 3009 H 274.83 -5.96994 -4.7064 0
M  V30 3010 N 276.405 1.4127 -0.698611 0
M  V30 3011 C 277.335 2.33447 -0.049629 0
M  V30 3012 C 278.316 1.51982 0.763898 0
M  V30 3013 O 279.501 1.80509 0.716257 0
M  V30 3014 C 276.631 3.35828 0.885267 0
M  V30 3015 C 275.585 4.27627 0.178613 0
M  V30 3016 C 274.911 5.20406 1.22807 0
M  V30 3017 C 276.211 5.13459 -0.956933 0
M  V30 3018 H 277.905 2.87966 -0.81951 0
M  V30 3019 H 275.451 1.38461 -0.395538 0
M  V30 3020 H 277.404 3.9924 1.34854 0
M  V30 3021 H 276.128 2.79666 1.68685 0
M  V30 3022 H 274.787 3.65643 -0.26466 0
M  V30 3023 H 274.435 4.60558 2.02226 0
M  V30 3024 H 274.135 5.82661 0.760239 0
M  V30 3025 H 275.659 5.86695 1.69179 0
M  V30 3026 H 277.073 5.70421 -0.573805 0
M  V30 3027 H 275.47 5.8467 -1.35205 0
M  V30 3028 H 276.54 4.50443 -1.79524 0
M  V30 3029 N 277.883 0.443576 1.51229 0
M  V30 3030 C 278.83 -0.364716 2.279 0
M  V30 3031 C 279.8 -1.0114 1.31757 0
M  V30 3032 O 280.985 -1.02912 1.60667 0
M  V30 3033 C 278.125 -1.45644 3.12861 0
M  V30 3034 C 277.238 -0.827269 4.24005 0
M  V30 3035 C 276.373 -1.89456 4.96266 0
M  V30 3036 C 275.412 -1.24416 5.99322 0
M  V30 3037 N 274.549 -2.25309 6.64966 0
M  V30 3038 H 279.389 0.295464 2.96532 0
M  V30 3039 H 276.926 0.157554 1.46254 0
M  V30 3040 H 278.884 -2.10076 3.6045 0
M  V30 3041 H 277.514 -2.08616 2.46331 0
M  V30 3042 H 276.566 -0.0710839 3.80334 0
M  V30 3043 H 277.878 -0.312481 4.9782 0
M  V30 3044 H 277.032 -2.61535 5.47434 0
M  V30 3045 H 275.771 -2.4431 4.22095 0
M  V30 3046 H 274.776 -0.508868 5.4744 0
M  V30 3047 H 276.001 -0.702882 6.75453 0
M  V30 3048 H 273.947 -2.79231 5.93604 0
M  V30 3049 H 273.864 -1.78739 7.34567 0
M  V30 3050 H 275.132 -2.96853 7.20763 0
M  V30 3051 N 279.361 -1.56624 0.175154 0
M  V30 3052 C 280.308 -2.18149 -0.753634 0
M  V30 3053 C 281.278 -1.12265 -1.22417 0
M  V30 3054 O 282.463 -1.40432 -1.29165 0
M  V30 3055 C 279.603 -2.82933 -1.97592 0
M  V30 3056 C 278.716 -4.03289 -1.5486 0
M  V30 3057 C 277.851 -4.55988 -2.72485 0
M  V30 3058 C 276.89 -5.68746 -2.26262 0
M  V30 3059 N 276.027 -6.15938 -3.36994 0
M  V30 3060 H 280.867 -2.9717 -0.222195 0
M  V30 3061 H 278.404 -1.46774 -0.0979422 0
M  V30 3062 H 280.362 -3.18653 -2.69288 0
M  V30 3063 H 278.992 -2.06509 -2.481 0
M  V30 3064 H 278.044 -3.73364 -0.728246 0
M  V30 3065 H 279.356 -4.849 -1.16933 0
M  V30 3066 H 278.51 -4.9391 -3.52332 0
M  V30 3067 H 277.249 -3.73443 -3.13674 0
M  V30 3068 H 276.254 -5.30372 -1.44863 0
M  V30 3069 H 277.479 -6.53095 -1.86127 0
M  V30 3070 H 275.425 -5.36321 -3.77751 0
M  V30 3071 H 275.342 -6.92548 -3.03172 0
M  V30 3072 H 276.61 -6.58511 -4.17114 0
M  V30 3073 N 280.839 0.0985539 -1.57292 0
M  V30 3074 C 282.069 0.815135 -1.8984 0
M  V30 3075 C 282.477 1.7297 -0.766679 0
M  V30 3076 O 281.82 1.81698 0.270483 0
M  V30 3077 C 281.882 1.6842 -3.17608 0
M  V30 3078 C 281.546 0.94182 -4.4719 0
M  V30 3079 C 282.543 0.273212 -5.19182 0
M  V30 3080 C 280.228 0.916927 -4.9386 0
M  V30 3081 C 282.222 -0.410361 -6.36078 0
M  V30 3082 C 279.909 0.229567 -6.10669 0
M  V30 3083 C 280.907 -0.432902 -6.81627 0
M  V30 3084 O 280.595 -1.10925 -7.9621 0
M  V30 3085 H 280.327 0.238501 -0.632529 0
M  V30 3086 H 282.881 0.0812659 -2.05239 0
M  V30 3087 H 281.111 2.46022 -2.98345 0
M  V30 3088 H 282.8 2.27704 -3.36015 0
M  V30 3089 H 283.566 0.283927 -4.84168 0
M  V30 3090 H 279.445 1.42201 -4.3852 0
M  V30 3091 H 282.989 -0.928013 -6.914 0
M  V30 3092 H 278.886 0.216686 -6.45136 0
M  V30 3093 H 279.654 -1.01579 -8.12172 0
M  V30 3094 N 282.317 1.53212 0.369288 0
M  V30 3095 C 283.227 1.82342 1.47609 0
M  V30 3096 C 284.243 0.711532 1.58787 0
M  V30 3097 O 285.419 1.0012 1.74751 0
M  V30 3098 C 282.484 2.00393 2.8292 0
M  V30 3099 C 281.545 3.24297 2.81301 0
M  V30 3100 C 280.778 3.41478 4.10157 0
M  V30 3101 O 281.001 2.63033 5.06132 0
M  V30 3102 O 279.935 4.34817 4.16194 0
M  V30 3103 H 283.761 2.76366 1.25918 0
M  V30 3104 H 281.346 1.38547 0.559034 0
M  V30 3105 H 283.228 2.13859 3.63101 0
M  V30 3106 H 281.903 1.09559 3.04596 0
M  V30 3107 H 280.81 3.16257 1.99831 0
M  V30 3108 H 282.143 4.15041 2.64578 0
M  V30 3109 N 283.795 -0.628877 1.44509 0
M  V30 3110 C 284.743 -1.76193 1.51852 0
M  V30 3111 C 285.737 -1.64849 0.390042 0
M  V30 3112 O 286.943 -1.709 0.565082 0
M  V30 3113 H 283.318 -0.581728 0.476547 0
M  V30 3114 H 285.289 -1.67123 2.47209 0
M  V30 3115 C 284.038 -3.14533 1.48204 0
M  V30 3116 H 283.361 -3.23911 2.34354 0
M  V30 3117 H 284.801 -3.93701 1.57402 0
M  V30 3118 C 283.26 -3.36287 0.203142 0
M  V30 3119 O 283.79 -3.9509 -0.725745 0
M  V30 3120 N 281.996 -2.90408 0.105563 0
M  V30 3121 H 281.543 -2.42739 0.862301 0
M  V30 3122 H 281.501 -3.05339 -0.749371 0
M  V30 3123 N 285.273 -1.31445 -0.869486 0
M  V30 3124 C 286.203 -1.21727 -1.99261 0
M  V30 3125 C 287.184 -0.104359 -1.6978 0
M  V30 3126 O 288.369 -0.289038 -1.92037 0
M  V30 3127 C 285.499 -0.924317 -3.34774 0
M  V30 3128 C 284.453 -1.99685 -3.78563 0
M  V30 3129 C 283.779 -1.55658 -5.11541 0
M  V30 3130 C 285.079 -3.41003 -3.95619 0
M  V30 3131 H 286.773 -2.1569 -2.07649 0
M  V30 3132 H 284.319 -1.03839 -0.997675 0
M  V30 3133 H 286.272 -0.842934 -4.12883 0
M  V30 3134 H 284.996 0.0509793 -3.2656 0
M  V30 3135 H 283.655 -2.06813 -3.02694 0
M  V30 3136 H 283.303 -0.569132 -4.9977 0
M  V30 3137 H 283.003 -2.27409 -5.41811 0
M  V30 3138 H 284.527 -1.48928 -5.92159 0
M  V30 3139 H 285.941 -3.36547 -4.64122 0
M  V30 3140 H 284.338 -4.10975 -4.37286 0
M  V30 3141 H 285.408 -3.81754 -2.98985 0
M  V30 3142 N 286.751 1.08385 -1.14413 0
M  V30 3143 C 287.714 2.13486 -0.834048 0
M  V30 3144 C 288.714 1.59988 0.161418 0
M  V30 3145 O 289.904 1.74071 -0.0669575 0
M  V30 3146 C 287.036 3.4003 -0.243354 0
M  V30 3147 H 288.229 2.42425 -1.7655 0
M  V30 3148 H 285.782 1.24101 -0.950189 0
M  V30 3149 H 286.517 3.16726 0.696807 0
M  V30 3150 H 286.302 3.80157 -0.960367 0
M  V30 3151 H 287.792 4.17577 -0.0436242 0
M  V30 3152 N 288.23 0.939286 1.26551 0
M  V30 3153 C 289.476 0.586715 1.94128 0
M  V30 3154 C 289.809 -0.8717 1.73537 0
M  V30 3155 O 289.084 -1.62339 1.07127 0
M  V30 3156 C 289.367 0.927497 3.4795 0
M  V30 3157 C 289.22 2.44052 3.77834 0
M  V30 3158 C 290.539 0.441569 4.37879 0
M  V30 3159 H 287.658 0.21463 0.705055 0
M  V30 3160 H 290.3 1.17316 1.49455 0
M  V30 3161 H 288.45 0.428431 3.8613 0
M  V30 3162 H 290.122 3.01216 3.4938 0
M  V30 3163 H 288.365 2.8848 3.23978 0
M  V30 3164 H 289.036 2.62947 4.85348 0
M  V30 3165 H 291.512 0.869448 4.06915 0
M  V30 3166 H 290.388 0.708856 5.44304 0
M  V30 3167 H 290.649 -0.658467 4.37169 0
M  V30 3168 N 289.708 -1.40897 0.706093 0
M  V30 3169 C 290.957 -2.00284 0.238574 0
M  V30 3170 C 291.27 -1.56604 -1.17194 0
M  V30 3171 O 292.476 -2.08624 -1.73748 0
M  V30 3172 C 290.932 -3.57934 0.375623 0
M  V30 3173 C 290.54 -4.10591 1.79217 0
M  V30 3174 C 292.284 -4.24488 -0.0315857 0
M  V30 3175 C 290.191 -5.60712 1.88032 0
M  V30 3176 H 289.121 -0.749144 0.0854398 0
M  V30 3177 H 291.772 -1.61251 0.875813 0
M  V30 3178 H 290.154 -3.94622 -0.330042 0
M  V30 3179 H 291.328 -3.85301 2.52745 0
M  V30 3180 H 289.643 -3.56601 2.15 0
M  V30 3181 H 292.24 -5.34698 0.0136842 0
M  V30 3182 H 292.583 -4.02261 -1.072 0
M  V30 3183 H 293.116 -3.92873 0.624181 0
M  V30 3184 H 289.855 -5.87781 2.90161 0
M  V30 3185 H 289.375 -5.87896 1.18903 0
M  V30 3186 H 291.054 -6.25658 1.64805 0
M  V30 3187 N 291.186 -0.45159 -1.50991 0
M  V30 3188 C 292.602 -0.104647 -1.59257 0
M  V30 3189 C 292.802 1.38728 -1.4614 0
M  V30 3190 O 291.858 2.15866 -1.30989 0
M  V30 3191 C 293.171 -0.637468 -2.93865 0
M  V30 3192 C 294.719 -0.599166 -3.07212 0
M  V30 3193 C 295.194 -1.1092 -4.44366 0
M  V30 3194 N 296.685 -1.06778 -4.50725 0
M  V30 3195 C 297.42 -1.43314 -5.55201 0
M  V30 3196 N 296.916 -1.87204 -6.67028 0
M  V30 3197 N 298.709 -1.3504 -5.45638 0
M  V30 3198 H 290.86 -1.42214 -1.57762 0
M  V30 3199 H 293.123 -0.586921 -0.744465 0
M  V30 3200 H 292.829 -1.68187 -3.08879 0
M  V30 3201 H 292.703 -0.0702139 -3.77135 0
M  V30 3202 H 295.09 0.436277 -2.91857 0
M  V30 3203 H 295.171 -1.20299 -2.25747 0
M  V30 3204 H 294.815 -2.14318 -4.60467 0
M  V30 3205 H 294.745 -0.481773 -5.24392 0
M  V30 3206 H 297.236 -0.745643 -3.70471 0
M  V30 3207 H 297.549 -2.13282 -7.42786 0
M  V30 3208 H 295.894 -1.91142 -6.68199 0
M  V30 3209 H 299.085 -1.00607 -4.57161 0
M  V30 3210 H 299.258 -1.63841 -6.26945 0
M  V30 3211 N 292.664 1.56529 -0.183458 0
M  V30 3212 C 293.892 2.01623 0.464285 0
M  V30 3213 C 294.307 1.06366 1.55986 0
M  V30 3214 O 293.664 0.0665398 1.82379 0
M  V30 3215 C 293.715 3.46475 1.03139 0
M  V30 3216 O 293.436 4.38095 -0.0204675 0
M  V30 3217 C 294.937 4.0703 1.75617 0
M  V30 3218 H 292.157 0.660596 0.117704 0
M  V30 3219 H 294.701 2.02451 -0.288751 0
M  V30 3220 H 292.856 3.46383 1.73486 0
M  V30 3221 H 293.27 5.22973 0.399952 0
M  V30 3222 H 294.744 5.10271 2.10542 0
M  V30 3223 H 295.221 3.49819 2.65563 0
M  V30 3224 H 295.827 4.1086 1.09882 0
M  V30 3225 N 294.142 -0.090211 1.57342 0
M  V30 3226 C 295.389 -0.792807 1.86335 0
M  V30 3227 C 295.717 -1.78494 0.772662 0
M  V30 3228 O 294.972 -1.94305 -0.233258 0
M  V30 3229 C 295.271 -1.55222 3.21933 0
M  V30 3230 C 294.937 -0.701765 4.45406 0
M  V30 3231 C 293.599 -0.467334 4.78925 0
M  V30 3232 C 295.951 -0.11086 5.21082 0
M  V30 3233 C 293.279 0.367785 5.85546 0
M  V30 3234 C 295.631 0.711609 6.28585 0
M  V30 3235 C 294.295 0.956086 6.60617 0
M  V30 3236 H 293.565 -0.290109 0.681849 0
M  V30 3237 H 296.212 -0.0541332 1.91423 0
M  V30 3238 H 294.517 -2.3626 3.12551 0
M  V30 3239 H 296.214 -2.10032 3.41595 0
M  V30 3240 H 292.804 -0.894598 4.1916 0
M  V30 3241 H 296.988 -0.279129 4.95514 0
M  V30 3242 H 292.244 0.566128 6.08773 0
M  V30 3243 H 296.418 1.17632 6.86393 0
M  V30 3244 H 294.045 1.60499 7.43064 0
M  V30 3245 N 295.62 -1.53406 -0.361157 0
M  V30 3246 C 296.845 -1.74024 -1.12829 0
M  V30 3247 C 297.27 -0.470069 -1.82132 0
M  V30 3248 O 296.628 0.57619 -1.719 0
M  V30 3249 C 296.676 -2.90903 -2.13091 0
M  V30 3250 O 295.78 -2.59821 -3.20261 0
M  V30 3251 H 295.121 -0.577804 -0.327168 0
M  V30 3252 H 297.651 -2.00307 -0.41693 0
M  V30 3253 H 297.661 -3.17194 -2.56616 0
M  V30 3254 H 296.336 -3.83034 -1.62042 0
M  V30 3255 H 294.913 -2.44362 -2.81677 0
M  V30 3256 N 297.098 0.621204 -1.44841 0
M  V30 3257 C 298.045 1.73267 -1.5247 0
M  V30 3258 C 299.015 1.6189 -0.371611 0
M  V30 3259 O 300.2 1.81668 -0.58321 0
M  V30 3260 C 297.34 3.11545 -1.48438 0
M  V30 3261 C 296.453 3.33827 -2.74196 0
M  V30 3262 C 295.588 4.62133 -2.61929 0
M  V30 3263 C 294.627 4.77627 -3.82804 0
M  V30 3264 N 293.764 5.97219 -3.69153 0
M  V30 3265 H 298.604 1.66082 -2.47428 0
M  V30 3266 H 296.141 0.810026 -1.22788 0
M  V30 3267 H 298.099 3.91528 -1.4409 0
M  V30 3268 H 296.729 3.1772 -0.570402 0
M  V30 3269 H 295.781 2.47715 -2.88689 0
M  V30 3270 H 297.093 3.41153 -3.6389 0
M  V30 3271 H 296.247 5.50291 -2.5547 0
M  V30 3272 H 294.986 4.57182 -1.69811 0
M  V30 3273 H 293.991 3.87896 -3.89637 0
M  V30 3274 H 295.216 4.84385 -4.75971 0
M  V30 3275 H 293.162 5.93339 -2.79794 0
M  V30 3276 H 293.079 6.05644 -4.52472 0
M  V30 3277 H 294.347 6.87912 -3.66603 0
M  V30 3278 N 298.576 1.31904 0.862503 0
M  V30 3279 C 299.539 1.20131 1.95195 0
M  V30 3280 C 300.539 0.126409 1.60302 0
M  V30 3281 O 301.729 0.376234 1.70089 0
M  V30 3282 C 298.861 0.845691 3.30244 0
M  V30 3283 H 300.054 2.16943 2.07064 0
M  V30 3284 H 297.607 1.15622 1.05172 0
M  V30 3285 H 298.342 -0.120957 3.24074 0
M  V30 3286 H 298.127 1.62276 3.56944 0
M  V30 3287 H 299.617 0.787418 4.10109 0
M  V30 3288 N 300.054 -1.07777 1.14986 0
M  V30 3289 C 301.301 -1.8029 0.922056 0
M  V30 3290 C 301.629 -1.86531 -0.55105 0
M  V30 3291 O 300.884 -1.34189 -1.42449 0
M  V30 3292 C 301.183 -3.25495 1.47608 0
M  V30 3293 C 300.849 -3.39361 2.96893 0
M  V30 3294 C 299.511 -3.42852 3.37647 0
M  V30 3295 C 301.863 -3.42512 3.92854 0
M  V30 3296 C 299.191 -3.47094 4.73015 0
M  V30 3297 C 301.543 -3.4829 5.28088 0
M  V30 3298 C 300.207 -3.50058 5.68345 0
M  V30 3299 H 299.477 -0.659727 0.337404 0
M  V30 3300 H 302.124 -1.26854 1.43459 0
M  V30 3301 H 300.429 -3.81683 0.88463 0
M  V30 3302 H 302.126 -3.80168 1.27568 0
M  V30 3303 H 298.716 -3.37339 2.64387 0
M  V30 3304 H 302.9 -3.3904 3.62444 0
M  V30 3305 H 298.156 -3.46758 5.03556 0
M  V30 3306 H 302.33 -3.49675 6.02246 0
M  V30 3307 H 299.957 -3.53097 6.73221 0
M  V30 3308 N 301.532 -0.945985 -1.26051 0
M  V30 3309 C 302.757 -0.612525 -1.98149 0
M  V30 3310 C 303.182 0.806623 -1.69927 0
M  V30 3311 O 302.54 1.54411 -0.950108 0
M  V30 3312 C 302.588 -0.866981 -3.50023 0
M  V30 3313 O 301.692 0.0585333 -4.12358 0
M  V30 3314 H 301.033 -0.23379 -0.621481 0
M  V30 3315 H 303.563 -1.27023 -1.60395 0
M  V30 3316 H 303.573 -0.789792 -4.00283 0
M  V30 3317 H 302.248 -1.90135 -3.69894 0
M  V30 3318 H 300.825 -0.0701241 -3.72834 0
M  V30 3319 N 303.011 1.40521 -0.713556 0
M  V30 3320 C 303.941 2.33381 -0.0743864 0
M  V30 3321 C 304.922 1.52784 0.747735 0
M  V30 3322 O 306.107 1.81258 0.697071 0
M  V30 3323 C 303.237 3.36748 0.849598 0
M  V30 3324 C 302.191 4.27793 0.133247 0
M  V30 3325 C 301.517 5.21679 1.17281 0
M  V30 3326 C 302.817 5.12415 -1.01134 0
M  V30 3327 H 304.511 2.87081 -0.850007 0
M  V30 3328 H 302.057 1.38034 -0.410201 0
M  V30 3329 H 304.01 4.00648 1.30612 0
M  V30 3330 H 302.734 2.81439 1.65709 0
M  V30 3331 H 301.393 3.65342 -0.303426 0
M  V30 3332 H 301.041 4.62677 1.9733 0
M  V30 3333 H 300.741 5.83435 0.698397 0
M  V30 3334 H 302.265 5.88456 1.62947 0
M  V30 3335 H 303.679 5.69781 -0.634274 0
M  V30 3336 H 302.076 5.83203 -1.41399 0
M  V30 3337 H 303.146 4.48514 -1.84292 0
M  V30 3338 N 304.489 0.459591 1.5075 0
M  V30 3339 C 305.452 -0.329093 2.26825 0
M  V30 3340 C 306.452 -0.930481 1.31144 0
M  V30 3341 O 307.642 -0.801453 1.54669 0
M  V30 3342 C 304.774 -1.46768 3.07688 0
M  V30 3343 H 305.967 0.337924 2.9799 0
M  V30 3344 H 303.52 0.213336 1.54837 0
M  V30 3345 H 304.255 -2.17009 2.40993 0
M  V30 3346 H 304.04 -1.04238 3.77991 0
M  V30 3347 H 305.53 -2.02433 3.65254 0
M  V30 3348 N 305.967 -1.56429 0.191757 0
M  V30 3349 C 306.93 -2.17707 -0.716688 0
M  V30 3350 C 307.93 -1.13061 -1.14341 0
M  V30 3351 O 309.12 -1.38464 -1.05704 0
M  V30 3352 C 306.252 -2.77644 -1.97804 0
M  V30 3353 H 307.445 -2.99342 -0.1829 0
M  V30 3354 H 304.998 -1.56193 -0.0578566 0
M  V30 3355 H 305.733 -1.99799 -2.55443 0
M  V30 3356 H 305.518 -3.54246 -1.68083 0
M  V30 3357 H 307.008 -3.24708 -2.62592 0
M  V30 3358 N 307.445 0.0818655 -1.57387 0
M  V30 3359 C 308.377 1.12484 -1.997 0
M  V30 3360 C 309.39 1.35564 -0.90146 0
M  V30 3361 O 310.579 1.33982 -1.17945 0
M  V30 3362 C 307.679 2.47778 -2.31213 0
M  V30 3363 C 306.852 2.44793 -3.62485 0
M  V30 3364 C 305.911 3.62117 -3.81782 0
M  V30 3365 O 304.937 3.44005 -4.53486 0
M  V30 3366 N 306.139 4.82094 -3.23367 0
M  V30 3367 H 308.904 0.764585 -2.89783 0
M  V30 3368 H 306.465 0.270664 -1.59621 0
M  V30 3369 H 308.457 3.24891 -2.41304 0
M  V30 3370 H 307.027 2.75843 -1.4707 0
M  V30 3371 H 306.247 1.53134 -3.6324 0
M  V30 3372 H 307.535 2.39889 -4.48699 0
M  V30 3373 H 306.933 4.99713 -2.65148 0
M  V30 3374 H 305.49 5.56753 -3.38923 0
M  V30 3375 N 308.923 1.53595 0.353017 0
M  V30 3376 C 310.339 1.43648 0.695516 0
M  V30 3377 C 310.539 0.585617 1.92802 0
M  V30 3378 O 309.595 0.0729223 2.52395 0
M  V30 3379 C 310.908 2.8701 0.896991 0
M  V30 3380 C 312.456 2.96723 0.996209 0
M  V30 3381 C 312.931 4.41173 1.23007 0
M  V30 3382 N 314.422 4.44657 1.29749 0
M  V30 3383 C 315.157 5.53547 1.49577 0
M  V30 3384 N 314.653 6.72461 1.66639 0
M  V30 3385 N 316.446 5.41145 1.52048 0
M  V30 3386 H 308.597 2.07415 -0.457481 0
M  V30 3387 H 310.86 0.9372 -0.142687 0
M  V30 3388 H 310.566 3.51644 0.0629938 0
M  V30 3389 H 310.44 3.31401 1.80148 0
M  V30 3390 H 312.827 2.32235 1.82074 0
M  V30 3391 H 312.908 2.55707 0.0688331 0
M  V30 3392 H 312.552 5.06238 0.410505 0
M  V30 3393 H 312.482 4.79772 2.17086 0
M  V30 3394 H 314.973 3.58963 1.18126 0
M  V30 3395 H 315.286 7.51214 1.81378 0
M  V30 3396 H 313.631 6.75423 1.63794 0
M  V30 3397 H 316.822 4.47205 1.38294 0
M  V30 3398 H 316.995 6.26068 1.67159 0
M  V30 3399 N 310.401 -0.613514 1.45168 0
M  V30 3400 C 311.647 -1.37471 1.49096 0
M  V30 3401 C 311.98 -1.93765 0.129901 0
M  V30 3402 O 311.255 -1.74707 -0.854858 0
M  V30 3403 C 311.538 -2.52701 2.56542 0
M  V30 3404 C 311.391 -2.01643 4.0207 0
M  V30 3405 C 312.71 -3.54849 2.60327 0
M  V30 3406 H 309.829 -0.498502 0.54283 0
M  V30 3407 H 312.471 -0.692125 1.76945 0
M  V30 3408 H 310.621 -3.10931 2.32926 0
M  V30 3409 H 312.293 -1.48108 4.36877 0
M  V30 3410 H 310.536 -1.32688 4.13009 0
M  V30 3411 H 311.207 -2.84681 4.72928 0
M  V30 3412 H 313.683 -3.0645 2.81474 0
M  V30 3413 H 312.559 -4.32973 3.37381 0
M  V30 3414 H 312.82 -4.10079 1.6519 0
M  V30 3415 N 311.879 -1.3236 -0.855495 0
M  V30 3416 C 313.127 -1.22629 -1.60644 0
M  V30 3417 C 313.448 0.212136 -1.93843 0
M  V30 3418 O 312.718 1.13666 -1.59552 0
M  V30 3419 H 311.298 -0.450882 -0.595579 0
M  V30 3420 H 313.96 -1.65871 -1.02337 0
M  V30 3421 H 313.056 -1.80832 -2.54374 0
M  V30 3422 N 313.357 1.07166 -1.15556 0
M  V30 3423 C 314.587 1.83248 -0.954133 0
M  V30 3424 C 314.995 1.82449 0.500911 0
M  V30 3425 O 314.338 1.23575 1.35923 0
M  V30 3426 C 314.4 3.31393 -1.39351 0
M  V30 3427 C 314.064 3.5591 -2.86666 0
M  V30 3428 C 315.061 3.49695 -3.8472 0
M  V30 3429 C 312.746 3.83515 -3.24379 0
M  V30 3430 C 314.74 3.70737 -5.18491 0
M  V30 3431 C 312.427 4.04209 -4.58321 0
M  V30 3432 C 313.425 3.97815 -5.55186 0
M  V30 3433 O 313.113 4.17954 -6.86709 0
M  V30 3434 H 312.845 0.584941 -0.338851 0
M  V30 3435 H 315.399 1.36169 -1.53777 0
M  V30 3436 H 313.629 3.79292 -0.75329 0
M  V30 3437 H 315.318 3.88945 -1.16089 0
M  V30 3438 H 316.084 3.28368 -3.56931 0
M  V30 3439 H 311.963 3.87605 -2.49567 0
M  V30 3440 H 315.507 3.65663 -5.94085 0
M  V30 3441 H 311.404 4.25023 -4.85825 0
M  V30 3442 H 312.172 4.35291 -6.93155 0
M  V30 3443 N 314.835 0.952656 1.25548 0
M  V30 3444 C 316.081 0.607272 1.93494 0
M  V30 3445 C 316.414 -0.853245 1.74452 0
M  V30 3446 O 315.689 -1.61194 1.08843 0
M  V30 3447 C 315.972 0.96435 3.46947 0
M  V30 3448 C 315.825 2.48045 3.75225 0
M  V30 3449 C 317.144 0.487987 4.37386 0
M  V30 3450 H 314.263 0.222096 0.702739 0
M  V30 3451 H 316.905 1.18895 1.48203 0
M  V30 3452 H 315.055 0.469361 3.85654 0
M  V30 3453 H 316.727 3.04905 3.46166 0
M  V30 3454 H 314.97 2.919 3.209 0
M  V30 3455 H 315.641 2.6808 4.82532 0
M  V30 3456 H 318.117 0.912558 4.0597 0
M  V30 3457 H 316.993 0.766547 5.43521 0
M  V30 3458 H 317.254 -0.612063 4.37843 0
M  V30 3459 N 316.313 -1.40141 0.720998 0
M  V30 3460 C 317.559 -2.01084 0.263231 0
M  V30 3461 C 317.892 -1.57052 -1.14229 0
M  V30 3462 O 317.167 -0.793027 -1.77599 0
M  V30 3463 C 317.45 -3.58401 0.349344 0
M  V30 3464 C 317.303 -4.12491 1.79363 0
M  V30 3465 C 318.622 -4.39231 -0.276351 0
M  V30 3466 H 315.741 -0.730572 0.0971228 0
M  V30 3467 H 318.383 -1.66543 0.914518 0
M  V30 3468 H 316.533 -3.87958 -0.205165 0
M  V30 3469 H 318.205 -3.93711 2.40394 0
M  V30 3470 H 316.448 -3.66576 2.31958 0
M  V30 3471 H 317.119 -5.21646 1.80524 0
M  V30 3472 H 319.595 -4.15637 0.196184 0
M  V30 3473 H 318.471 -5.48586 -0.185681 0
M  V30 3474 H 318.732 -4.20643 -1.36059 0
M  V30 3475 N 317.792 -0.46758 -1.50504 0
M  V30 3476 C 318.755 0.317059 -2.26996 0
M  V30 3477 C 319.755 0.923513 -1.31635 0
M  V30 3478 O 320.945 0.793239 -1.55091 0
M  V30 3479 C 318.077 1.45134 -3.08462 0
M  V30 3480 H 319.27 -0.353723 -2.97807 0
M  V30 3481 H 316.823 -0.221545 -1.54722 0
M  V30 3482 H 317.558 2.15728 -2.4214 0
M  V30 3483 H 317.343 1.02232 -3.78538 0
M  V30 3484 H 318.833 2.00493 -3.66323 0
M  V30 3485 N 319.27 1.56325 -0.20005 0
M  V30 3486 C 320.495 2.02548 0.44597 0
M  V30 3487 C 320.92 1.07922 1.5406 0
M  V30 3488 O 320.278 0.0635775 1.81188 0
M  V30 3489 C 320.326 3.47175 0.974761 0
M  V30 3490 O 319.43 3.55671 2.08739 0
M  V30 3491 H 318.771 0.655862 0.103638 0
M  V30 3492 H 321.301 2.02201 -0.312381 0
M  V30 3493 H 321.311 3.87067 1.2901 0
M  V30 3494 H 319.986 4.15538 0.17347 0
M  V30 3495 H 318.563 3.27657 1.78032 0
M  V30 3496 N 320.748 -0.0735177 1.57428 0
M  V30 3497 C 321.658 -1.10547 2.06922 0
M  V30 3498 C 322.674 -1.42506 0.998402 0
M  V30 3499 O 323.85 -1.52717 1.31299 0
M  V30 3500 C 320.915 -2.40019 2.50184 0
M  V30 3501 C 319.976 -2.15046 3.71556 0
M  V30 3502 C 319.209 -3.38345 4.12745 0
M  V30 3503 O 319.432 -4.47399 3.53822 0
M  V30 3504 O 318.366 -3.2666 5.05546 0
M  V30 3505 H 322.192 -0.715013 2.95163 0
M  V30 3506 H 319.777 -0.287531 1.46607 0
M  V30 3507 H 321.659 -3.16218 2.78539 0
M  V30 3508 H 320.334 -2.78447 1.65072 0
M  V30 3509 H 319.241 -1.36558 3.48285 0
M  V30 3510 H 320.574 -1.81499 4.57514 0
M  V30 3511 N 322.226 -1.5378 -0.344866 0
M  V30 3512 C 323.173 -1.81676 -1.42346 0
M  V30 3513 C 324.143 -0.662376 -1.52321 0
M  V30 3514 O 325.328 -0.906675 -1.67881 0
M  V30 3515 C 322.468 -2.03087 -2.79015 0
M  V30 3516 C 321.581 -3.30799 -2.77842 0
M  V30 3517 C 320.716 -3.42285 -4.0622 0
M  V30 3518 C 319.755 -4.6395 -3.9927 0
M  V30 3519 N 318.892 -4.72477 -5.19336 0
M  V30 3520 H 323.732 -2.73703 -1.17858 0
M  V30 3521 H 321.269 -1.35568 -0.570949 0
M  V30 3522 H 323.227 -2.1349 -3.58438 0
M  V30 3523 H 321.857 -1.14375 -3.01858 0
M  V30 3524 H 320.909 -3.29244 -1.90533 0
M  V30 3525 H 322.221 -4.20314 -2.68584 0
M  V30 3526 H 321.375 -3.52113 -4.94066 0
M  V30 3527 H 320.114 -2.50823 -4.18258 0
M  V30 3528 H 319.119 -4.54201 -3.09809 0
M  V30 3529 H 320.344 -5.56775 -3.88817 0
M  V30 3530 H 318.29 -3.83924 -5.3192 0
M  V30 3531 H 318.207 -5.55927 -5.12329 0
M  V30 3532 H 319.475 -4.86613 -6.08957 0
M  V30 3533 N 323.704 0.605807 -1.45491 0
M  V30 3534 C 324.951 1.36476 -1.49601 0
M  V30 3535 C 325.279 1.94007 -0.138452 0
M  V30 3536 O 324.534 1.75638 0.863114 0
M  V30 3537 C 324.833 2.53012 -2.52428 0
M  V30 3538 C 324.499 2.13617 -3.97087 0
M  V30 3539 C 323.161 2.02587 -4.36477 0
M  V30 3540 C 325.513 1.82899 -4.88055 0
M  V30 3541 C 322.841 1.59064 -5.64726 0
M  V30 3542 C 325.193 1.40861 -6.16718 0
M  V30 3543 C 323.857 1.28391 -6.55036 0
M  V30 3544 H 323.127 0.499402 -0.547429 0
M  V30 3545 H 325.774 0.684546 -1.78847 0
M  V30 3546 H 324.079 3.26379 -2.16758 0
M  V30 3547 H 325.776 3.1124 -2.52845 0
M  V30 3548 H 322.366 2.23129 -3.65939 0
M  V30 3549 H 326.55 1.90317 -4.58359 0
M  V30 3550 H 321.806 1.48034 -5.93208 0
M  V30 3551 H 325.98 1.16138 -6.86648 0
M  V30 3552 H 323.607 0.944403 -7.54311 0
M  V30 3553 N 325.182 1.32811 0.848464 0
M  V30 3554 C 326.431 1.23075 1.59798 0
M  V30 3555 C 326.744 -0.204419 1.94529 0
M  V30 3556 O 327.95 -0.423701 2.68173 0
M  V30 3557 C 326.406 2.15594 2.88179 0
M  V30 3558 C 326.014 3.64228 2.60849 0
M  V30 3559 C 327.758 2.14709 3.66197 0
M  V30 3560 C 325.665 4.48689 3.85269 0
M  V30 3561 H 324.595 0.457091 0.599653 0
M  V30 3562 H 327.246 1.57813 0.936342 0
M  V30 3563 H 325.628 1.73778 3.55833 0
M  V30 3564 H 326.802 4.14424 2.01467 0
M  V30 3565 H 325.117 3.67306 1.96151 0
M  V30 3566 H 327.714 2.75046 4.58534 0
M  V30 3567 H 328.057 1.13966 4.00397 0
M  V30 3568 H 328.59 2.54837 3.05455 0
M  V30 3569 H 325.329 5.5027 3.56207 0
M  V30 3570 H 324.849 4.03241 4.44024 0
M  V30 3571 H 326.528 4.62006 4.52946 0
M  V30 3572 N 326.66 -1.06551 1.16123 0
M  V30 3573 C 327.937 -1.76097 0.85142 0
M  V30 3574 C 328.317 -2.00802 -0.6513 0
M  V30 3575 O 327.665 -1.63302 -1.59827 0
M  V30 3576 C 327.875 -3.06384 1.67122 0
M  V30 3577 C 329.223 -3.80585 1.88255 0
M  V30 3578 O 330.247 -3.16218 1.63966 0
M  V30 3579 O 329.106 -4.96212 2.2899 0
M  V30 3580 H 326.2 -0.765102 0.313923 0
M  V30 3581 H 328.746 -1.12844 1.26745 0
M  V30 3582 H 327.518 -2.84071 2.69108 0
M  V30 3583 H 327.141 -3.77371 1.25206 0
M  V30 3584 N 328.138 -0.959301 -1.25041 0
M  V30 3585 C 329.101 -0.487677 -2.23952 0
M  V30 3586 C 330.101 0.41119 -1.55454 0
M  V30 3587 O 331.291 0.207825 -1.72956 0
M  V30 3588 C 328.423 0.294807 -3.39623 0
M  V30 3589 H 329.616 -1.36198 -2.67189 0
M  V30 3590 H 327.169 -0.743042 -1.37508 0
M  V30 3591 H 327.904 1.18658 -3.01813 0
M  V30 3592 H 327.689 -0.35012 -3.90534 0
M  V30 3593 H 329.179 0.614089 -4.1306 0
M  V30 3594 N 329.616 1.39756 -0.72842 0
M  V30 3595 C 330.846 2.04651 -0.283117 0
M  V30 3596 C 331.254 1.5502 1.08469 0
M  V30 3597 O 330.597 0.707343 1.69536 0
M  V30 3598 C 330.659 3.58947 -0.199309 0
M  V30 3599 C 330.323 4.31525 -1.5045 0
M  V30 3600 C 331.32 4.5861 -2.44894 0
M  V30 3601 C 329.005 4.70195 -1.76698 0
M  V30 3602 C 330.999 5.23366 -3.63822 0
M  V30 3603 C 328.686 5.3468 -2.95906 0
M  V30 3604 C 329.684 5.61198 -3.89289 0
M  V30 3605 O 329.372 6.24347 -5.06404 0
M  V30 3606 H 329.104 0.664777 -0.122666 0
M  V30 3607 H 331.658 1.79913 -0.990987 0
M  V30 3608 H 329.888 3.82556 0.56461 0
M  V30 3609 H 331.577 4.0534 0.213125 0
M  V30 3610 H 332.343 4.29187 -2.25883 0
M  V30 3611 H 328.222 4.48916 -1.04859 0
M  V30 3612 H 331.766 5.4398 -4.36728 0
M  V30 3613 H 327.663 5.63524 -3.14819 0
M  V30 3614 H 328.431 6.42842 -5.06652 0
M  V30 3615 N 331.094 0.475555 1.50254 0
M  V30 3616 C 332.042 -0.330276 2.30243 0
M  V30 3617 C 333.036 -0.986306 1.37726 0
M  V30 3618 O 334.242 -0.9169 1.54897 0
M  V30 3619 H 330.617 -0.125353 0.741479 0
M  V30 3620 H 332.588 0.364702 2.96163 0
M  V30 3621 C 331.337 -1.39704 3.18399 0
M  V30 3622 H 330.66 -0.901621 3.89501 0
M  V30 3623 H 332.1 -1.93336 3.77355 0
M  V30 3624 C 330.559 -2.4014 2.36293 0
M  V30 3625 O 331.089 -3.45504 2.04914 0
M  V30 3626 N 329.295 -2.1197 1.98789 0
M  V30 3627 H 328.842 -1.2631 2.24507 0
M  V30 3628 H 328.8 -2.79403 1.44157 0
M  V30 3629 N 332.573 -1.56217 0.208337 0
M  V30 3630 C 333.989 -1.58919 -0.14729 0
M  V30 3631 C 334.189 -1.22486 -1.59998 0
M  V30 3632 O 333.245 -0.953849 -2.3379 0
M  V30 3633 C 334.558 -3.00236 0.167048 0
M  V30 3634 C 336.106 -3.12813 0.108219 0
M  V30 3635 C 336.581 -4.56284 0.396049 0
M  V30 3636 N 338.072 -4.61912 0.345142 0
M  V30 3637 C 338.807 -5.70837 0.541523 0
M  V30 3638 N 338.303 -6.88178 0.798968 0
M  V30 3639 N 340.096 -5.60091 0.474867 0
M  V30 3640 H 332.247 -1.78177 1.15614 0
M  V30 3641 H 334.51 -0.827555 0.462446 0
M  V30 3642 H 334.216 -3.31499 1.1748 0
M  V30 3643 H 334.09 -3.7354 -0.524184 0
M  V30 3644 H 336.477 -2.81354 -0.890157 0
M  V30 3645 H 336.558 -2.41866 0.832729 0
M  V30 3646 H 336.202 -4.88458 1.3918 0
M  V30 3647 H 336.132 -5.25439 -0.349502 0
M  V30 3648 H 338.623 -3.77589 0.153316 0
M  V30 3649 H 338.936 -7.67095 0.93727 0
M  V30 3650 H 337.281 -6.89953 0.836013 0
M  V30 3651 H 340.472 -4.67297 0.274064 0
M  V30 3652 H 340.645 -6.44917 0.631326 0
M  V30 3653 N 334.051 0.0651679 -1.57465 0
M  V30 3654 C 335.297 0.764193 -1.87851 0
M  V30 3655 C 335.63 1.76889 -0.801495 0
M  V30 3656 O 334.905 1.93594 0.187528 0
M  V30 3657 C 335.188 1.46625 -3.28897 0
M  V30 3658 C 335.041 0.477515 -4.47258 0
M  V30 3659 C 336.36 2.4095 -3.68281 0
M  V30 3660 H 333.479 0.276351 -0.683227 0
M  V30 3661 H 336.121 0.0272868 -1.8998 0
M  V30 3662 H 334.271 2.09438 -3.27212 0
M  V30 3663 H 335.943 -0.145922 -4.61069 0
M  V30 3664 H 334.186 -0.206576 -4.33308 0
M  V30 3665 H 334.857 1.0065 -5.42746 0
M  V30 3666 H 337.333 1.88209 -3.71102 0
M  V30 3667 H 336.209 2.87072 -4.67847 0
M  V30 3668 H 336.47 3.26049 -2.98571 0
M  V30 3669 N 335.529 1.53961 0.336706 0
M  V30 3670 C 336.945 1.44378 0.680241 0
M  V30 3671 C 337.145 0.606034 1.9217 0
M  V30 3672 O 336.201 0.099688 2.52303 0
M  V30 3673 C 337.514 2.87945 0.8665 0
M  V30 3674 C 339.062 2.97763 0.964682 0
M  V30 3675 C 339.537 4.42453 1.18321 0
M  V30 3676 N 341.028 4.46008 1.25025 0
M  V30 3677 C 341.763 5.55102 1.43697 0
M  V30 3678 N 341.259 6.7419 1.59498 0
M  V30 3679 N 343.052 5.42727 1.463 0
M  V30 3680 H 335.203 2.06918 -0.479455 0
M  V30 3681 H 337.466 0.935634 -0.152619 0
M  V30 3682 H 337.172 3.51691 0.0256937 0
M  V30 3683 H 337.046 3.33293 1.76623 0
M  V30 3684 H 339.433 2.34153 1.796 0
M  V30 3685 H 339.514 2.55766 0.041708 0
M  V30 3686 H 339.158 5.06645 0.356788 0
M  V30 3687 H 339.088 4.82048 2.11985 0
M  V30 3688 H 341.579 3.60196 1.14312 0
M  V30 3689 H 341.892 7.53095 1.734 0
M  V30 3690 H 340.237 6.77123 1.56621 0
M  V30 3691 H 343.428 4.48647 1.33543 0
M  V30 3692 H 343.601 6.27806 1.6051 0
M  V30 3693 N 337.007 -0.598083 1.45811 0
M  V30 3694 C 337.937 -1.71873 1.58057 0
M  V30 3695 C 338.918 -1.64533 0.431615 0
M  V30 3696 O 340.103 -1.82787 0.65595 0
M  V30 3697 C 337.233 -3.10495 1.55597 0
M  V30 3698 C 336.187 -3.32654 2.69305 0
M  V30 3699 C 335.513 -4.71646 2.51902 0
M  V30 3700 C 336.813 -3.21981 4.11248 0
M  V30 3701 H 338.507 -1.61881 2.51863 0
M  V30 3702 H 336.053 -0.777372 1.21214 0
M  V30 3703 H 338.006 -3.88699 1.6276 0
M  V30 3704 H 336.73 -3.2135 0.583255 0
M  V30 3705 H 335.389 -2.56843 2.61586 0
M  V30 3706 H 335.037 -4.79246 1.52748 0
M  V30 3707 H 334.737 -4.87426 3.2816 0
M  V30 3708 H 336.261 -5.52038 2.60933 0
M  V30 3709 H 337.675 -3.90049 4.20161 0
M  V30 3710 H 336.072 -3.49289 4.87972 0
M  V30 3711 H 337.142 -2.1928 4.32486 0
M  V30 3712 N 338.485 -1.33259 -0.841409 0
M  V30 3713 C 339.896 -1.22066 -1.41269 0
M  V30 3714 C 340.247 0.161479 -1.95534 0
M  V30 3715 O 339.372 1.06094 -1.88608 0
M  V30 3716 C 339.967 -2.20996 -2.568 0
M  V30 3717 C 338.526 -2.13649 -3.09888 0
M  V30 3718 C 337.673 -2.08623 -1.82679 0
M  V30 3719 H 340.624 -1.44895 -0.647395 0
M  V30 3720 H 340.645 -1.81621 -3.34356 0
M  V30 3721 H 340.157 -3.2158 -2.17274 0
M  V30 3722 H 338.258 -1.16359 -3.53965 0
M  V30 3723 H 338.371 -3.04079 -3.70234 0
M  V30 3724 H 336.735 -1.54061 -2.02824 0
M  V30 3725 H 337.518 -3.1101 -1.45353 0
M  V30 3726 N 339.963 1.05934 -1.16686 0
M  V30 3727 C 341.21 1.788 -0.950622 0
M  V30 3728 C 341.538 1.87384 0.521305 0
M  V30 3729 O 340.793 1.36438 1.40297 0
M  V30 3730 C 341.092 3.23105 -1.52767 0
M  V30 3731 C 340.758 3.34594 -3.02254 0
M  V30 3732 C 339.42 3.37437 -3.43059 0
M  V30 3733 C 341.772 3.36219 -3.98254 0
M  V30 3734 C 339.1 3.39525 -4.78477 0
M  V30 3735 C 341.452 3.39845 -5.33562 0
M  V30 3736 C 340.116 3.40971 -5.73842 0
M  V30 3737 H 339.386 0.654275 -0.347857 0
M  V30 3738 H 342.033 1.24555 -1.45459 0
M  V30 3739 H 340.338 3.80227 -0.94524 0
M  V30 3740 H 342.035 3.7809 -1.336 0
M  V30 3741 H 338.625 3.3309 -2.6972 0
M  V30 3742 H 342.809 3.33231 -3.67792 0
M  V30 3743 H 338.065 3.38703 -5.09009 0
M  V30 3744 H 342.239 3.4005 -6.07733 0
M  V30 3745 H 339.866 3.42342 -6.78753 0
M  V30 3746 N 341.441 0.965919 1.2453 0
M  V30 3747 C 342.389 0.486506 2.27455 0
M  V30 3748 C 343.383 -0.449041 1.6334 0
M  V30 3749 O 344.589 -0.324527 1.7705 0
M  V30 3750 H 340.964 0.138857 0.739069 0
M  V30 3751 H 342.935 1.3666 2.65267 0
M  V30 3752 C 341.684 -0.209481 3.47068 0
M  V30 3753 H 341.007 0.50129 3.96645 0
M  V30 3754 H 342.447 -0.508775 4.20936 0
M  V30 3755 C 340.906 -1.43586 3.0477 0
M  V30 3756 O 341.436 -2.53299 3.11773 0
M  V30 3757 N 339.642 -1.30126 2.59838 0
M  V30 3758 H 339.189 -0.408583 2.54339 0
M  V30 3759 H 339.147 -2.12294 2.31902 0
M  V30 3760 N 342.919 -1.39368 0.735821 0
M  V30 3761 C 344.165 -2.00794 0.284544 0
M  V30 3762 C 344.498 -1.58255 -1.12557 0
M  V30 3763 O 343.773 -0.811819 -1.76748 0
M  V30 3764 C 344.056 -3.58011 0.387337 0
M  V30 3765 C 343.909 -4.10566 1.83728 0
M  V30 3766 C 345.228 -4.395 -0.22975 0
M  V30 3767 H 342.347 -0.729501 0.104866 0
M  V30 3768 H 344.989 -1.65564 0.93213 0
M  V30 3769 H 343.139 -3.88154 -0.164006 0
M  V30 3770 H 344.811 -3.91139 2.44556 0
M  V30 3771 H 343.054 -3.64095 2.35833 0
M  V30 3772 H 343.725 -5.19702 1.86047 0
M  V30 3773 H 346.201 -4.15406 0.240257 0
M  V30 3774 H 345.077 -5.48752 -0.127485 0
M  V30 3775 H 345.338 -4.22062 -1.3159 0
M  V30 3776 N 344.397 -0.483516 -1.5 0
M  V30 3777 C 345.622 0.0667119 -2.07293 0
M  V30 3778 C 346.047 1.3164 -1.3436 0
M  V30 3779 O 345.405 1.76945 -0.394987 0
M  V30 3780 C 345.453 0.321126 -3.59167 0
M  V30 3781 O 344.557 1.39927 -3.87936 0
M  V30 3782 H 343.898 -0.0184758 -0.663743 0
M  V30 3783 H 346.428 -0.678125 -1.93035 0
M  V30 3784 H 346.438 0.557906 -4.04168 0
M  V30 3785 H 345.113 -0.592007 -4.11665 0
M  V30 3786 H 343.69 1.14882 -3.54763 0
M  V30 3787 N 345.875 1.56104 -0.216619 0
M  V30 3788 C 347.105 2.02269 0.420802 0
M  V30 3789 C 347.513 1.09575 1.5424 0
M  V30 3790 O 346.856 0.0967308 1.83445 0
M  V30 3791 C 346.918 3.44784 1.01806 0
M  V30 3792 C 346.582 4.56988 0.0325154 0
M  V30 3793 C 347.579 5.14225 -0.766055 0
M  V30 3794 C 345.264 5.02228 -0.0848092 0
M  V30 3795 C 347.258 6.15169 -1.6687 0
M  V30 3796 C 344.945 6.03011 -0.990994 0
M  V30 3797 C 345.943 6.59357 -1.78149 0
M  V30 3798 O 345.631 7.58179 -2.67245 0
M  V30 3799 H 345.363 0.667353 0.107776 0
M  V30 3800 H 347.917 2.02747 -0.329034 0
M  V30 3801 H 346.147 3.41359 1.81689 0
M  V30 3802 H 347.836 3.74626 1.56237 0
M  V30 3803 H 348.602 4.80126 -0.685836 0
M  V30 3804 H 344.481 4.58054 0.520349 0
M  V30 3805 H 348.025 6.59076 -2.28615 0
M  V30 3806 H 343.922 6.36532 -1.07225 0
M  V30 3807 H 344.69 7.75682 -2.61265 0
M  V30 3808 N 347.353 -0.0568162 1.57498 0
M  V30 3809 C 348.599 -0.75422 1.88253 0
M  V30 3810 C 348.932 -1.76461 0.810865 0
M  V30 3811 O 348.207 -1.93691 -0.177259 0
M  V30 3812 C 348.49 -1.44878 3.2967 0
M  V30 3813 C 348.343 -0.453789 4.47505 0
M  V30 3814 C 349.662 -2.38994 3.69554 0
M  V30 3815 H 346.781 -0.272724 0.684683 0
M  V30 3816 H 349.423 -0.0172113 1.89992 0
M  V30 3817 H 347.573 -2.077 3.28318 0
M  V30 3818 H 349.245 0.170371 4.60985 0
M  V30 3819 H 347.488 0.229552 4.33192 0
M  V30 3820 H 348.159 -0.977699 5.43273 0
M  V30 3821 H 350.635 -1.86239 3.72095 0
M  V30 3822 H 349.511 -2.84587 4.69363 0
M  V30 3823 H 349.772 -3.24461 3.00296 0
M  V30 3824 N 348.832 -1.54138 -0.328536 0
M  V30 3825 C 350.057 -1.76378 -1.09112 0
M  V30 3826 C 350.482 -0.508596 -1.81094 0
M  V30 3827 O 349.84 0.539598 -1.73084 0
M  V30 3828 C 349.888 -2.95358 -2.06872 0
M  V30 3829 O 348.992 -2.66556 -3.14677 0
M  V30 3830 H 348.333 -0.584614 -0.314838 0
M  V30 3831 H 350.863 -2.01146 -0.374348 0
M  V30 3832 H 350.873 -3.22566 -2.4983 0
M  V30 3833 H 349.548 -3.86385 -1.5388 0
M  V30 3834 H 348.125 -2.50282 -2.7643 0
M  V30 3835 N 350.31 0.590341 -1.46126 0
M  V30 3836 C 351.242 1.71427 -1.52136 0
M  V30 3837 C 352.255 1.57542 -0.41042 0
M  V30 3838 O 353.444 1.65106 -0.678389 0
M  V30 3839 C 350.544 3.09605 -1.37834 0
M  V30 3840 C 349.717 3.49566 -2.62912 0
M  V30 3841 C 348.776 4.66773 -2.42918 0
M  V30 3842 O 347.802 4.73019 -3.1661 0
M  V30 3843 N 349.004 5.61161 -1.4859 0
M  V30 3844 H 351.769 1.66728 -2.49042 0
M  V30 3845 H 349.33 0.776113 -1.42085 0
M  V30 3846 H 351.322 3.85796 -1.22243 0
M  V30 3847 H 349.892 3.08714 -0.491393 0
M  V30 3848 H 349.112 2.63158 -2.93499 0
M  V30 3849 H 350.4 3.73028 -3.46017 0
M  V30 3850 H 349.798 5.58844 -0.87808 0
M  V30 3851 H 348.355 6.36814 -1.38965 0
M  V30 3852 N 351.788 1.33704 0.83433 0
M  V30 3853 C 352.721 1.18675 1.94914 0
M  V30 3854 C 353.699 0.0811145 1.62398 0
M  V30 3855 O 354.883 0.244186 1.86912 0
M  V30 3856 C 352.01 0.821231 3.28593 0
M  V30 3857 C 351.056 1.93501 3.80079 0
M  V30 3858 S 351.889 3.54671 4.01209 0
M  V30 3859 C 353.045 3.20136 5.37833 0
M  V30 3860 H 353.278 2.13043 2.07364 0
M  V30 3861 H 350.811 1.18598 0.988624 0
M  V30 3862 H 352.769 0.617123 4.05835 0
M  V30 3863 H 351.43 -0.103927 3.13928 0
M  V30 3864 H 350.623 1.63273 4.76821 0
M  V30 3865 H 350.225 2.09601 3.09747 0
M  V30 3866 H 352.517 2.71242 6.20833 0
M  V30 3867 H 353.46 4.15975 5.73036 0
M  V30 3868 H 353.868 2.56613 5.02802 0
M  V30 3869 N 353.266 -1.05314 1.17247 0
M  V30 3870 C 354.513 -1.78293 0.960091 0
M  V30 3871 C 354.841 -1.87658 -0.51136 0
M  V30 3872 O 354.096 -1.3718 -1.39571 0
M  V30 3873 C 354.395 -3.2229 1.54479 0
M  V30 3874 C 354.061 -3.32987 3.04024 0
M  V30 3875 C 352.723 -3.35613 3.44844 0
M  V30 3876 C 355.075 -3.34102 4.00031 0
M  V30 3877 C 352.403 -3.36982 4.8027 0
M  V30 3878 C 354.755 -3.3701 5.35357 0
M  V30 3879 C 353.419 -3.37923 5.75642 0
M  V30 3880 H 352.689 -0.652422 0.351322 0
M  V30 3881 H 355.336 -1.23782 1.46117 0
M  V30 3882 H 353.641 -3.7972 0.965391 0
M  V30 3883 H 355.338 -3.77376 1.35603 0
M  V30 3884 H 351.928 -3.31655 2.71483 0
M  V30 3885 H 356.112 -3.31276 3.69554 0
M  V30 3886 H 351.368 -3.35999 5.10798 0
M  V30 3887 H 355.542 -3.36822 6.09528 0
M  V30 3888 H 353.169 -3.38738 6.80559 0
M  V30 3889 N 354.744 -0.972509 -1.24016 0
M  V30 3890 C 355.707 -0.511403 -2.23422 0
M  V30 3891 C 356.707 0.394679 -1.55881 0
M  V30 3892 O 357.897 0.189469 -1.73167 0
M  V30 3893 C 355.029 0.258769 -3.39916 0
M  V30 3894 H 356.222 -1.39024 -2.6573 0
M  V30 3895 H 353.775 -0.757585 -1.36713 0
M  V30 3896 H 354.51 1.1545 -3.03054 0
M  V30 3897 H 354.295 -0.391522 -3.9014 0
M  V30 3898 H 355.785 0.570244 -4.13688 0
M  V30 3899 N 356.222 1.38976 -0.743202 0
M  V30 3900 C 357.169 2.30544 -0.10861 0
M  V30 3901 C 358.139 1.49642 0.720869 0
M  V30 3902 O 359.324 1.78304 0.679142 0
M  V30 3903 C 356.464 3.36018 0.786496 0
M  V30 3904 C 355.577 4.31963 -0.0564849 0
M  V30 3905 C 354.712 5.24506 0.840657 0
M  V30 3906 C 353.751 6.121 -0.00658363 0
M  V30 3907 N 352.888 6.96973 0.846943 0
M  V30 3908 H 357.728 2.8424 -0.895088 0
M  V30 3909 H 355.265 1.3995 -0.453048 0
M  V30 3910 H 357.223 3.95768 1.31999 0
M  V30 3911 H 355.853 2.83758 1.53887 0
M  V30 3912 H 354.905 3.73763 -0.707492 0
M  V30 3913 H 356.217 4.93703 -0.711229 0
M  V30 3914 H 355.371 5.89322 1.4417 0
M  V30 3915 H 354.11 4.63107 1.52916 0
M  V30 3916 H 353.115 5.46289 -0.620366 0
M  V30 3917 H 354.34 6.75565 -0.691992 0
M  V30 3918 H 352.286 6.38133 1.52059 0
M  V30 3919 H 352.203 7.5559 0.248864 0
M  V30 3920 H 353.471 7.6621 1.43328 0
M  V30 3921 N 357.7 0.491464 1.49741 0
M  V30 3922 C 358.946 -0.0565092 2.02721 0
M  V30 3923 C 359.279 -1.37522 1.37118 0
M  V30 3924 O 358.554 -1.87866 0.503645 0
M  V30 3925 C 358.837 -0.219051 3.59433 0
M  V30 3926 C 358.69 1.12211 4.35579 0
M  V30 3927 C 360.009 -0.964157 4.29409 0
M  V30 3928 H 357.128 -0.0190627 0.736753 0
M  V30 3929 H 359.77 0.641021 1.7886 0
M  V30 3930 H 357.92 -0.813165 3.79895 0
M  V30 3931 H 359.592 1.75437 4.26637 0
M  V30 3932 H 357.835 1.71377 3.98513 0
M  V30 3933 H 358.506 0.961794 5.43556 0
M  V30 3934 H 360.982 -0.460378 4.13545 0
M  V30 3935 H 359.858 -1.04671 5.38828 0
M  V30 3936 H 360.119 -2.00563 3.93988 0
M  V30 3937 N 359.178 -1.55987 0.224894 0
M  V30 3938 C 360.141 -2.19178 -0.670348 0
M  V30 3939 C 361.141 -1.15461 -1.11917 0
M  V30 3940 O 362.331 -1.40675 -1.02743 0
M  V30 3941 C 359.463 -2.81777 -1.9187 0
M  V30 3942 H 360.656 -2.99662 -0.119364 0
M  V30 3943 H 358.209 -1.5628 -0.0247128 0
M  V30 3944 H 358.944 -2.05172 -2.51147 0
M  V30 3945 H 358.729 -3.57732 -1.60531 0
M  V30 3946 H 360.219 -3.30205 -2.55645 0
M  V30 3947 N 360.656 0.0484629 -1.57525 0
M  V30 3948 C 361.586 1.0549 -2.08313 0
M  V30 3949 C 362.567 1.38929 -0.981463 0
M  V30 3950 O 363.752 1.48151 -1.25558 0
M  V30 3951 C 360.882 2.36162 -2.54646 0
M  V30 3952 C 359.836 2.17016 -3.68901 0
M  V30 3953 C 359.162 3.53278 -4.01371 0
M  V30 3954 C 360.462 1.57219 -4.98076 0
M  V30 3955 H 362.156 0.632195 -2.92649 0
M  V30 3956 H 359.702 0.302654 -1.40784 0
M  V30 3957 H 361.655 3.06882 -2.88793 0
M  V30 3958 H 360.379 2.80456 -1.67368 0
M  V30 3959 H 359.038 1.48733 -3.35073 0
M  V30 3960 H 358.686 3.95185 -3.11188 0
M  V30 3961 H 358.386 3.41299 -4.78318 0
M  V30 3962 H 359.91 4.25391 -4.38035 0
M  V30 3963 H 361.324 2.17832 -5.30304 0
M  V30 3964 H 359.721 1.55871 -5.79503 0
M  V30 3965 H 360.791 0.535956 -4.81929 0
M  V30 3966 N 362.134 1.5431 0.320358 0
M  V30 3967 C 363.411 1.63322 1.07635 0
M  V30 3968 C 363.791 0.46912 2.05821 0
M  V30 3969 O 363.139 -0.536274 2.22118 0
M  V30 3970 C 363.349 3.00465 1.77544 0
M  V30 3971 C 364.697 3.56621 2.30449 0
M  V30 3972 O 365.721 3.02791 1.87606 0
M  V30 3973 O 364.58 4.5083 3.08892 0
M  V30 3974 H 361.674 0.661502 0.496331 0
M  V30 3975 H 364.22 1.66656 0.319992 0
M  V30 3976 H 362.992 3.76629 1.06143 0
M  V30 3977 H 362.615 3.00824 2.59982 0
M  V30 3978 N 363.613 -0.582584 1.46437 0
M  V30 3979 C 364.563 -1.68654 1.53426 0
M  V30 3980 C 365.547 -1.55971 0.395194 0
M  V30 3981 O 366.739 -1.64884 0.643612 0
M  V30 3982 C 363.868 -3.07439 1.52762 0
M  V30 3983 C 362.954 -3.25418 2.71963 0
M  V30 3984 N 363.345 -3.13556 3.96883 0
M  V30 3985 C 361.643 -3.56357 2.68189 0
M  V30 3986 C 362.344 -3.33543 4.76575 0
M  V30 3987 N 361.32 -3.58704 4.08451 0
M  V30 3988 H 365.122 -1.58014 2.47808 0
M  V30 3989 H 362.636 -0.786617 1.42078 0
M  V30 3990 H 364.633 -3.86671 1.55857 0
M  V30 3991 H 363.293 -3.1921 0.594573 0
M  V30 3992 H 364.304 -2.9142 4.28129 0
M  V30 3993 H 360.981 -3.74812 1.83908 0
M  V30 3994 H 362.371 -3.29555 5.85528 0
M  V30 3995 N 365.091 -1.34144 -0.827227 0
M  V30 3996 C 366.507 -1.13732 -1.11969 0
M  V30 3997 C 366.707 0.0640463 -2.01398 0
M  V30 3998 O 365.763 0.740856 -2.41387 0
M  V30 3999 C 367.076 -2.43047 -1.77055 0
M  V30 4000 C 368.624 -2.49063 -1.89569 0
M  V30 4001 C 369.099 -3.78369 -2.58072 0
M  V30 4002 N 370.59 -3.79505 -2.65575 0
M  V30 4003 C 371.325 -4.76274 -3.19297 0
M  V30 4004 N 370.821 -5.83424 -3.73616 0
M  V30 4005 N 372.614 -4.63735 -3.17658 0
M  V30 4006 H 364.765 -2.11126 -0.232296 0
M  V30 4007 H 367.028 -0.933424 -0.165602 0
M  V30 4008 H 366.734 -3.31025 -1.18807 0
M  V30 4009 H 366.608 -2.56066 -2.76966 0
M  V30 4010 H 368.995 -1.61527 -2.46968 0
M  V30 4011 H 369.076 -2.39975 -0.885745 0
M  V30 4012 H 368.72 -4.66293 -2.01329 0
M  V30 4013 H 368.65 -3.84737 -3.59562 0
M  V30 4014 H 371.141 -3.02074 -2.27068 0
M  V30 4015 H 371.454 -6.53282 -4.12846 0
M  V30 4016 H 369.799 -5.87143 -3.71871 0
M  V30 4017 H 372.99 -3.79177 -2.74486 0
M  V30 4018 H 373.163 -5.39318 -3.59221 0
M  V30 4019 N 366.569 1.04691 -1.17803 0
M  V30 4020 C 367.479 2.16057 -0.914151 0
M  V30 4021 C 368.495 1.73589 0.119503 0
M  V30 4022 O 369.671 2.01308 -0.0609468 0
M  V30 4023 C 366.736 3.4394 -0.436603 0
M  V30 4024 C 365.797 4.00825 -1.53746 0
M  V30 4025 C 365.03 5.22604 -1.0826 0
M  V30 4026 O 365.253 5.70367 0.0612244 0
M  V30 4027 O 364.187 5.7186 -1.87775 0
M  V30 4028 H 368.013 2.41169 -1.84584 0
M  V30 4029 H 365.598 1.1453 -0.959334 0
M  V30 4030 H 367.48 4.21024 -0.178057 0
M  V30 4031 H 366.155 3.20316 0.466869 0
M  V30 4032 H 365.062 3.25158 -1.84995 0
M  V30 4033 H 366.395 4.28778 -2.41683 0
M  V30 4034 N 368.047 0.979072 1.23499 0
M  V30 4035 C 369.296 0.642751 1.91185 0
M  V30 4036 C 369.609 -0.827253 1.77245 0
M  V30 4037 O 370.815 -1.27458 2.39722 0
M  V30 4038 C 369.271 1.09901 3.42709 0
M  V30 4039 C 368.879 2.59327 3.65313 0
M  V30 4040 C 370.623 0.836371 4.16179 0
M  V30 4041 C 368.53 2.98627 5.10467 0
M  V30 4042 H 367.46 0.236698 0.715884 0
M  V30 4043 H 370.111 1.1868 1.39955 0
M  V30 4044 H 368.493 0.48319 3.93041 0
M  V30 4045 H 369.667 3.26136 3.25533 0
M  V30 4046 H 367.982 2.83323 3.05151 0
M  V30 4047 H 370.579 1.10586 5.23139 0
M  V30 4048 H 370.922 -0.227509 4.15678 0
M  V30 4049 H 371.455 1.41371 3.71832 0
M  V30 4050 H 368.194 4.04133 5.16098 0
M  V30 4051 H 367.714 2.3651 5.51201 0
M  V30 4052 H 369.393 2.89159 5.78788 0
M  V30 4053 N 369.525 -1.3858 0.750561 0
M  V30 4054 C 370.772 -2.00184 0.305373 0
M  V30 4055 C 371.1 -1.59575 -1.11203 0
M  V30 4056 O 370.355 -0.823236 -1.77542 0
M  V30 4057 C 370.654 -3.55455 0.372373 0
M  V30 4058 C 370.32 -4.15765 1.745 0
M  V30 4059 C 368.982 -4.31951 2.12065 0
M  V30 4060 C 371.334 -4.49067 2.64553 0
M  V30 4061 C 368.662 -4.78734 3.39162 0
M  V30 4062 C 371.014 -4.97265 3.91038 0
M  V30 4063 C 369.678 -5.11658 4.28676 0
M  V30 4064 H 368.948 -0.732526 0.111744 0
M  V30 4065 H 371.595 -1.65673 0.960451 0
M  V30 4066 H 369.9 -3.90084 -0.366272 0
M  V30 4067 H 371.597 -4.00999 0.00953918 0
M  V30 4068 H 368.187 -4.03579 1.44297 0
M  V30 4069 H 372.371 -4.36166 2.36796 0
M  V30 4070 H 367.627 -4.88062 3.68246 0
M  V30 4071 H 371.801 -5.22003 4.60962 0
M  V30 4072 H 369.428 -5.47668 5.27222 0
M  V30 4073 N 371.003 -0.499398 -1.49478 0
M  V30 4074 C 371.913 0.284489 -2.32869 0
M  V30 4075 C 372.929 0.968885 -1.44529 0
M  V30 4076 O 374.105 0.95062 -1.77553 0
M  V30 4077 C 371.17 1.33594 -3.19928 0
M  V30 4078 C 370.231 0.665149 -4.24116 0
M  V30 4079 C 369.464 1.6665 -5.07014 0
M  V30 4080 O 369.687 2.89618 -4.91404 0
M  V30 4081 O 368.621 1.22271 -5.8935 0
M  V30 4082 H 372.447 -0.39802 -3.01081 0
M  V30 4083 H 370.032 -0.260758 -1.47107 0
M  V30 4084 H 371.914 1.94431 -3.73864 0
M  V30 4085 H 370.589 2.0014 -2.54412 0
M  V30 4086 H 369.496 0.0170769 -3.74096 0
M  V30 4087 H 370.829 0.0421555 -4.92182 0
M  V30 4088 N 372.481 1.55866 -0.233164 0
M  V30 4089 C 373.391 2.24431 0.683217 0
M  V30 4090 C 374.407 1.2558 1.2044 0
M  V30 4091 O 375.583 1.58422 1.24356 0
M  V30 4092 C 372.648 2.91979 1.86947 0
M  V30 4093 C 371.709 4.06204 1.38912 0
M  V30 4094 C 370.942 4.70522 2.51883 0
M  V30 4095 O 371.165 4.33865 3.70293 0
M  V30 4096 O 370.099 5.59296 2.22423 0
M  V30 4097 H 373.925 3.03426 0.129059 0
M  V30 4098 H 371.51 1.494 -0.0022283 0
M  V30 4099 H 373.392 3.34573 2.56201 0
M  V30 4100 H 372.067 2.15935 2.41151 0
M  V30 4101 H 370.974 3.68155 0.664259 0
M  V30 4102 H 372.307 4.84025 0.893328 0
M  V30 4103 N 373.959 -0.0401083 1.57549 0
M  V30 4104 C 375.375 -0.395556 1.54621 0
M  V30 4105 C 375.575 -1.77281 0.957799 0
M  V30 4106 O 374.631 -2.45888 0.574031 0
M  V30 4107 C 375.944 -0.307535 2.99123 0
M  V30 4108 C 377.492 -0.385425 3.10618 0
M  V30 4109 C 377.967 -0.326973 4.56831 0
M  V30 4110 N 379.458 -0.386102 4.61588 0
M  V30 4111 C 380.193 -0.363591 5.72246 0
M  V30 4112 N 379.689 -0.29402 6.92176 0
M  V30 4113 N 381.482 -0.412503 5.60584 0
M  V30 4114 H 373.633 0.861325 1.94152 0
M  V30 4115 H 375.896 0.326445 0.890021 0
M  V30 4116 H 375.602 0.638461 3.45856 0
M  V30 4117 H 375.476 -1.10552 3.60636 0
M  V30 4118 H 377.863 -1.32185 2.63839 0
M  V30 4119 H 377.944 0.44171 2.51957 0
M  V30 4120 H 377.588 0.605738 5.04275 0
M  V30 4121 H 377.518 -1.17207 5.13391 0
M  V30 4122 H 380.009 -0.442832 3.75296 0
M  V30 4123 H 380.322 -0.28164 7.72287 0
M  V30 4124 H 378.667 -0.260232 6.94513 0
M  V30 4125 H 381.858 -0.464769 4.65787 0
M  V30 4126 H 382.031 -0.391492 6.46816 0
M  V30 4127 N 375.437 -1.54477 -0.31217 0
M  V30 4128 C 376.665 -1.77205 -1.068 0
M  V30 4129 C 377.08 -0.526114 -1.81321 0
M  V30 4130 O 376.437 0.503647 -1.75413 0
M  V30 4131 C 376.488 -2.97253 -2.05725 0
M  V30 4132 O 376.209 -4.1703 -1.34228 0
M  V30 4133 C 377.71 -3.32281 -2.93435 0
M  V30 4134 H 374.93 -0.591287 -0.317208 0
M  V30 4135 H 377.474 -2.01398 -0.354834 0
M  V30 4136 H 375.629 -2.753 -2.72559 0
M  V30 4137 H 376.043 -4.84636 -2.00571 0
M  V30 4138 H 377.517 -4.19551 -3.58721 0
M  V30 4139 H 377.994 -2.49945 -3.61143 0
M  V30 4140 H 378.6 -3.56353 -2.32147 0
M  V30 4141 N 376.915 0.57481 -1.46744 0
M  V30 4142 C 377.862 1.68329 -1.57905 0
M  V30 4143 C 378.832 1.60625 -0.422927 0
M  V30 4144 O 380.017 1.79721 -0.640711 0
M  V30 4145 C 377.157 3.06665 -1.58274 0
M  V30 4146 C 376.27 3.24935 -2.84678 0
M  V30 4147 C 375.405 4.53566 -2.76499 0
M  V30 4148 C 374.444 4.65207 -3.97806 0
M  V30 4149 N 373.581 5.85172 -3.87967 0
M  V30 4150 H 378.421 1.58127 -2.52587 0
M  V30 4151 H 375.958 0.770552 -1.25303 0
M  V30 4152 H 377.916 3.86745 -1.56473 0
M  V30 4153 H 376.546 3.15745 -0.671194 0
M  V30 4154 H 375.598 2.38405 -2.96424 0
M  V30 4155 H 376.91 3.29403 -3.7456 0
M  V30 4156 H 376.064 5.41885 -2.72848 0
M  V30 4157 H 374.803 4.51548 -1.8427 0
M  V30 4158 H 373.808 3.75304 -4.0178 0
M  V30 4159 H 375.033 4.68997 -4.9114 0
M  V30 4160 H 372.979 5.84137 -2.98529 0
M  V30 4161 H 372.896 5.90943 -4.71511 0
M  V30 4162 H 374.164 6.759 -3.88303 0
M  V30 4163 N 378.394 1.34581 0.820102 0
M  V30 4164 C 379.641 1.27096 1.57648 0
M  V30 4165 C 379.969 -0.158317 1.93855 0
M  V30 4166 O 379.224 -1.12028 1.60463 0
M  V30 4167 C 379.523 2.10997 2.8847 0
M  V30 4168 C 379.189 3.59966 2.71543 0
M  V30 4169 C 377.851 4.00575 2.66634 0
M  V30 4170 C 380.203 4.54548 2.55021 0
M  V30 4171 C 377.531 5.33953 2.43128 0
M  V30 4172 C 379.883 5.88109 2.33047 0
M  V30 4173 C 378.547 6.27878 2.26552 0
M  V30 4174 H 377.817 0.465078 0.576874 0
M  V30 4175 H 380.464 1.6635 0.948671 0
M  V30 4176 H 378.769 1.6458 3.55557 0
M  V30 4177 H 380.466 2.0255 3.46084 0
M  V30 4178 H 377.056 3.27733 2.76205 0
M  V30 4179 H 381.24 4.24069 2.57835 0
M  V30 4180 H 376.496 5.63781 2.3656 0
M  V30 4181 H 380.67 6.60985 2.19251 0
M  V30 4182 H 378.297 7.31162 2.081 0
M  V30 4183 N 379.872 -1.04064 1.18357 0
M  V30 4184 C 381.121 -1.76662 0.973313 0
M  V30 4185 C 381.434 -1.89154 -0.497991 0
M  V30 4186 O 382.64 -2.58606 -0.826762 0
M  V30 4187 C 381.096 -3.17624 1.69242 0
M  V30 4188 C 380.704 -3.13225 3.20303 0
M  V30 4189 C 382.448 -3.946 1.56497 0
M  V30 4190 C 380.355 -4.49046 3.84853 0
M  V30 4191 H 379.285 -0.662214 0.36054 0
M  V30 4192 H 381.936 -1.16553 1.41731 0
M  V30 4193 H 380.318 -3.78129 1.1762 0
M  V30 4194 H 381.492 -2.62172 3.78949 0
M  V30 4195 H 379.807 -2.49749 3.33189 0
M  V30 4196 H 382.404 -4.95042 2.02084 0
M  V30 4197 H 382.747 -4.13074 0.517243 0
M  V30 4198 H 383.28 -3.4067 2.05399 0
M  V30 4199 H 380.019 -4.35777 4.89672 0
M  V30 4200 H 379.539 -5.00203 3.30994 0
M  V30 4201 H 381.218 -5.17961 3.87718 0
M  V30 4202 N 381.35 -0.985608 -1.22978 0
M  V30 4203 C 382.596 -0.65836 -1.91816 0
M  V30 4204 C 382.929 0.806692 -1.76653 0
M  V30 4205 O 382.204 1.58252 -1.13078 0
M  V30 4206 C 382.487 -1.056 -3.44268 0
M  V30 4207 C 382.34 -2.57906 -3.68516 0
M  V30 4208 C 383.659 -0.603781 -4.35939 0
M  V30 4209 H 380.778 -0.24065 -0.696604 0
M  V30 4210 H 383.42 -1.22783 -1.44998 0
M  V30 4211 H 381.57 -0.571445 -3.84274 0
M  V30 4212 H 383.242 -3.13976 -3.3796 0
M  V30 4213 H 381.485 -3.00305 -3.13048 0
M  V30 4214 H 382.156 -2.80779 -4.75255 0
M  V30 4215 H 384.632 -1.01987 -4.03408 0
M  V30 4216 H 383.508 -0.910383 -5.41298 0
M  V30 4217 H 383.769 0.495761 -4.39312 0
M  V30 4218 N 382.828 1.3818 -0.7579 0
M  V30 4219 C 383.738 2.3421 -0.135247 0
M  V30 4220 C 384.754 1.59487 0.695683 0
M  V30 4221 O 385.93 1.91657 0.618832 0
M  V30 4222 C 382.995 3.3862 0.744139 0
M  V30 4223 C 382.056 4.2918 -0.101658 0
M  V30 4224 C 381.289 5.28603 0.735851 0
M  V30 4225 O 381.512 5.35166 1.97366 0
M  V30 4226 O 380.446 6.01707 0.152372 0
M  V30 4227 H 384.272 2.8916 -0.928436 0
M  V30 4228 H 381.857 1.40101 -0.518855 0
M  V30 4229 H 383.739 4.02539 1.2466 0
M  V30 4230 H 382.414 2.86019 1.51575 0
M  V30 4231 H 381.321 3.68407 -0.650167 0
M  V30 4232 H 382.654 4.85048 -0.836024 0
M  V30 4233 N 384.306 0.507319 1.49211 0
M  V30 4234 C 385.216 -0.272136 2.33016 0
M  V30 4235 C 386.232 -0.961206 1.45041 0
M  V30 4236 O 387.408 -0.941191 1.78055 0
M  V30 4237 C 384.473 -1.31895 3.20631 0
M  V30 4238 C 383.534 -0.642648 4.24463 0
M  V30 4239 C 382.767 -1.63959 5.07891 0
M  V30 4240 O 382.99 -2.87007 4.92933 0
M  V30 4241 O 381.924 -1.19143 5.8999 0
M  V30 4242 H 385.75 0.413982 3.00865 0
M  V30 4243 H 383.335 0.268556 1.46966 0
M  V30 4244 H 385.217 -1.92446 3.7489 0
M  V30 4245 H 383.892 -1.98788 2.5547 0
M  V30 4246 H 382.799 0.00276252 3.741 0
M  V30 4247 H 384.132 -0.0160534 4.92197 0
M  V30 4248 N 385.784 -1.5574 0.241426 0
M  V30 4249 C 387.2 -1.59196 -0.113548 0
M  V30 4250 C 387.4 -1.25852 -1.57364 0
M  V30 4251 O 386.456 -1.00322 -2.31715 0
M  V30 4252 C 387.769 -2.99814 0.230695 0
M  V30 4253 C 389.317 -3.12513 0.174547 0
M  V30 4254 C 389.792 -4.55342 0.492744 0
M  V30 4255 N 391.283 -4.61076 0.443043 0
M  V30 4256 C 392.018 -5.6956 0.662484 0
M  V30 4257 N 391.514 -6.86328 0.944761 0
M  V30 4258 N 393.307 -5.58957 0.593564 0
M  V30 4259 H 385.458 -1.75685 1.19368 0
M  V30 4260 H 387.721 -0.81756 0.479896 0
M  V30 4261 H 387.427 -3.28932 1.24485 0
M  V30 4262 H 387.301 -3.74568 -0.444833 0
M  V30 4263 H 389.688 -2.83179 -0.830277 0
M  V30 4264 H 389.769 -2.40045 0.883845 0
M  V30 4265 H 389.413 -4.85396 1.4951 0
M  V30 4266 H 389.343 -5.26062 -0.23797 0
M  V30 4267 H 391.834 -3.77179 0.233374 0
M  V30 4268 H 392.147 -7.64935 1.09977 0
M  V30 4269 H 390.492 -6.88025 0.982175 0
M  V30 4270 H 393.683 -4.66611 0.373123 0
M  V30 4271 H 393.856 -6.43433 0.767981 0
M  V30 4272 N 387.262 0.0317525 -1.57568 0
M  V30 4273 C 388.172 1.05021 -2.0978 0
M  V30 4274 C 389.188 1.39809 -1.03583 0
M  V30 4275 O 390.364 1.49182 -1.35302 0
M  V30 4276 C 387.429 2.33301 -2.56459 0
M  V30 4277 C 386.49 2.0512 -3.77127 0
M  V30 4278 C 385.723 3.27283 -4.2157 0
M  V30 4279 O 385.946 4.37861 -3.65559 0
M  V30 4280 O 384.88 3.13141 -5.14029 0
M  V30 4281 H 388.706 0.636505 -2.96955 0
M  V30 4282 H 386.291 0.248559 -1.47318 0
M  V30 4283 H 388.173 3.08722 -2.86825 0
M  V30 4284 H 386.848 2.73973 -1.72397 0
M  V30 4285 H 385.755 1.27276 -3.51784 0
M  V30 4286 H 387.088 1.69305 -4.62165 0
M  V30 4287 N 388.74 1.54641 0.303973 0
M  V30 4288 C 390.156 1.45788 0.649463 0
M  V30 4289 C 390.356 0.64666 1.90842 0
M  V30 4290 O 389.412 0.153183 2.52035 0
M  V30 4291 C 390.725 2.89718 0.805227 0
M  V30 4292 C 392.273 2.99742 0.901305 0
M  V30 4293 C 392.748 4.44863 1.08909 0
M  V30 4294 N 394.239 4.48559 1.15536 0
M  V30 4295 C 394.974 5.58026 1.3189 0
M  V30 4296 N 394.47 6.77422 1.45161 0
M  V30 4297 N 396.263 5.45708 1.34755 0
M  V30 4298 H 388.414 2.05854 -0.523237 0
M  V30 4299 H 390.677 0.932186 -0.172431 0
M  V30 4300 H 390.383 3.51666 -0.0489108 0
M  V30 4301 H 390.257 3.36964 1.69513 0
M  V30 4302 H 392.644 2.3791 1.74593 0
M  V30 4303 H 392.725 2.55797 -0.0125531 0
M  V30 4304 H 392.369 5.07288 0.249241 0
M  V30 4305 H 392.299 4.86436 2.01713 0
M  V30 4306 H 394.79 3.6254 1.06646 0
M  V30 4307 H 395.103 7.56604 1.57387 0
M  V30 4308 H 393.448 6.80292 1.42223 0
M  V30 4309 H 396.639 4.51378 1.23996 0
M  V30 4310 H 396.812 6.3107 1.47157 0
M  V30 4311 N 390.218 -0.567019 1.47046 0
M  V30 4312 C 391.151 -1.69016 1.53326 0
M  V30 4313 C 392.129 -1.57949 0.386126 0
M  V30 4314 O 393.313 -1.78945 0.592529 0
M  V30 4315 C 390.44 -3.07191 1.42658 0
M  V30 4316 C 389.486 -3.36733 2.6175 0
M  V30 4317 S 390.319 -3.27069 4.24012 0
M  V30 4318 C 391.475 -4.67755 4.1588 0
M  V30 4319 H 391.708 -1.63434 2.48348 0
M  V30 4320 H 389.241 -0.747048 1.35124 0
M  V30 4321 H 391.199 -3.86897 1.37191 0
M  V30 4322 H 389.86 -3.10249 0.490369 0
M  V30 4323 H 389.053 -4.37441 2.50323 0
M  V30 4324 H 388.655 -2.64627 2.64289 0
M  V30 4325 H 390.947 -5.58491 3.83529 0
M  V30 4326 H 391.89 -4.84239 5.16641 0
M  V30 4327 H 392.298 -4.45341 3.46889 0
M  V30 4328 N 391.696 -1.35014 -0.812953 0
M  V30 4329 C 392.643 -1.27412 -1.92444 0
M  V30 4330 C 393.613 -0.14733 -1.65445 0
M  V30 4331 O 394.798 -0.329974 -1.87925 0
M  V30 4332 C 391.938 -1.04558 -3.28879 0
M  V30 4333 C 391.051 -2.26101 -3.68106 0
M  V30 4334 C 390.186 -1.96449 -4.9354 0
M  V30 4335 C 389.225 -3.14081 -5.25376 0
M  V30 4336 N 388.362 -2.84246 -6.41988 0
M  V30 4337 H 393.202 -2.22463 -1.98278 0
M  V30 4338 H 390.739 -1.10593 -0.969933 0
M  V30 4339 H 392.697 -0.893413 -4.07522 0
M  V30 4340 H 391.327 -0.131719 -3.22531 0
M  V30 4341 H 390.379 -2.52204 -2.84775 0
M  V30 4342 H 391.691 -3.13959 -3.87597 0
M  V30 4343 H 390.845 -1.78026 -5.79993 0
M  V30 4344 H 389.584 -1.05867 -4.76071 0
M  V30 4345 H 388.589 -3.33089 -4.37415 0
M  V30 4346 H 389.814 -4.05455 -5.44778 0
M  V30 4347 H 387.76 -1.96252 -6.25956 0
M  V30 4348 H 387.677 -3.65637 -6.61699 0
M  V30 4349 H 388.945 -2.6935 -7.31485 0
M  V30 4350 N 393.175 1.03435 -1.18907 0
M  V30 4351 C 394.4 1.80919 -1.01406 0
M  V30 4352 C 394.825 1.83055 0.432721 0
M  V30 4353 O 394.183 1.25252 1.31079 0
M  V30 4354 C 394.231 3.24091 -1.58105 0
M  V30 4355 O 393.335 4.04434 -0.806669 0
M  V30 4356 H 392.676 0.558709 -0.358803 0
M  V30 4357 H 395.206 1.30223 -1.57807 0
M  V30 4358 H 395.216 3.74853 -1.61087 0
M  V30 4359 H 393.891 3.21851 -2.6341 0
M  V30 4360 H 392.468 3.63091 -0.849666 0
M  V30 4361 N 394.653 0.992116 1.22453 0
M  V30 4362 C 395.616 0.546883 2.2258 0
M  V30 4363 C 396.616 -0.369829 1.56489 0
M  V30 4364 O 397.806 -0.161896 1.73446 0
M  V30 4365 C 394.938 -0.204659 3.40285 0
M  V30 4366 H 396.131 1.43234 2.63484 0
M  V30 4367 H 393.684 0.779239 1.3549 0
M  V30 4368 H 394.419 -1.10614 3.04853 0
M  V30 4369 H 394.204 0.45354 3.89468 0
M  V30 4370 H 395.694 -0.504358 4.14543 0
M  V30 4371 N 396.131 -1.37776 0.765217 0
M  V30 4372 C 397.061 -2.32945 0.160953 0
M  V30 4373 C 398.042 -1.55454 -0.690516 0
M  V30 4374 O 399.227 -1.83721 -0.629318 0
M  V30 4375 C 396.357 -3.39669 -0.724031 0
M  V30 4376 C 395.311 -4.27992 0.0256173 0
M  V30 4377 C 394.637 -5.25673 -0.978383 0
M  V30 4378 C 395.937 -5.08309 1.20082 0
M  V30 4379 H 397.631 -2.83728 0.955969 0
M  V30 4380 H 395.177 -1.36416 0.461149 0
M  V30 4381 H 397.13 -4.05219 -1.15652 0
M  V30 4382 H 395.854 -2.87396 -1.5515 0
M  V30 4383 H 394.513 -3.63964 0.438812 0
M  V30 4384 H 394.161 -4.69682 -1.80022 0
M  V30 4385 H 393.861 -5.85625 -0.481378 0
M  V30 4386 H 395.385 -5.94098 -1.40995 0
M  V30 4387 H 396.799 -5.67034 0.845307 0
M  V30 4388 H 395.196 -5.77554 1.62947 0
M  V30 4389 H 396.266 -4.41365 2.00811 0
M  V30 4390 N 397.609 -0.515225 -1.4894 0
M  V30 4391 C 399.025 -0.172099 -1.58669 0
M  V30 4392 C 399.225 1.32405 -1.51892 0
M  V30 4393 O 398.281 2.10116 -1.40027 0
M  V30 4394 C 399.594 -0.761533 -2.90897 0
M  V30 4395 C 401.142 -0.728926 -3.04394 0
M  V30 4396 C 401.617 -1.29667 -4.39261 0
M  V30 4397 N 403.108 -1.25799 -4.4579 0
M  V30 4398 C 403.843 -1.66733 -5.48623 0
M  V30 4399 N 403.339 -2.15327 -6.58488 0
M  V30 4400 N 405.132 -1.58061 -5.39419 0
M  V30 4401 H 397.283 -1.48778 -1.51588 0
M  V30 4402 H 399.546 -0.617968 -0.718901 0
M  V30 4403 H 399.252 -1.81136 -3.01468 0
M  V30 4404 H 399.126 -0.230106 -3.76497 0
M  V30 4405 H 401.513 0.312098 -2.93445 0
M  V30 4406 H 401.594 -1.29766 -2.20442 0
M  V30 4407 H 401.238 -2.33655 -4.50963 0
M  V30 4408 H 401.168 -0.703752 -5.21876 0
M  V30 4409 H 403.659 -0.902102 -3.66975 0
M  V30 4410 H 403.972 -2.44594 -7.33071 0
M  V30 4411 H 402.317 -2.19311 -6.59491 0
M  V30 4412 H 405.508 -1.19906 -4.52482 0
M  V30 4413 H 405.681 -1.90284 -6.19432 0
M  V30 4414 N 399.087 1.5561 -0.249682 0
M  V30 4415 C 399.997 2.25143 0.659375 0
M  V30 4416 C 401.013 1.2685 1.19101 0
M  V30 4417 O 402.189 1.59732 1.22669 0
M  V30 4418 C 399.254 2.93945 1.8384 0
M  V30 4419 C 398.315 4.07655 1.34596 0
M  V30 4420 C 397.548 4.73167 2.46878 0
M  V30 4421 O 397.771 4.37768 3.65671 0
M  V30 4422 O 396.705 5.61623 2.16478 0
M  V30 4423 H 400.531 3.03545 0.0968698 0
M  V30 4424 H 398.116 1.49389 -0.018074 0
M  V30 4425 H 399.998 3.37271 2.52638 0
M  V30 4426 H 398.673 2.18481 2.38847 0
M  V30 4427 H 397.58 3.68839 0.625174 0
M  V30 4428 H 398.913 4.84946 0.841941 0
M  V30 4429 N 400.565 -0.0233959 1.57583 0
M  V30 4430 C 401.498 -1.05549 2.02323 0
M  V30 4431 C 402.476 -1.34843 0.908626 0
M  V30 4432 O 403.66 -1.47404 1.17491 0
M  V30 4433 C 400.787 -2.38885 2.40108 0
M  V30 4434 C 399.833 -2.2541 3.62067 0
M  V30 4435 S 400.666 -1.60217 5.1097 0
M  V30 4436 C 401.822 -2.95032 5.52003 0
M  V30 4437 H 402.055 -0.674435 2.89549 0
M  V30 4438 H 399.588 -0.23355 1.52623 0
M  V30 4439 H 401.546 -3.15562 2.62547 0
M  V30 4440 H 400.207 -2.74137 1.53323 0
M  V30 4441 H 399.4 -3.23854 3.86179 0
M  V30 4442 H 399.002 -1.56876 3.39508 0
M  V30 4443 H 401.294 -3.91357 5.53033 0
M  V30 4444 H 402.237 -2.75646 6.52246 0
M  V30 4445 H 402.645 -2.97865 4.79517 0
M  V30 4446 N 402.043 -1.548 -0.295768 0
M  V30 4447 C 403.291 -1.73985 -1.02828 0
M  V30 4448 C 403.612 -0.531406 -1.87619 0
M  V30 4449 O 402.882 0.454221 -1.90561 0
M  V30 4450 H 401.462 -0.641556 -0.382642 0
M  V30 4451 H 404.124 -1.92163 -0.325489 0
M  V30 4452 H 403.22 -2.63129 -1.67838 0
M  V30 4453 N 403.521 0.559213 -1.47345 0
M  V30 4454 C 404.751 1.33999 -1.57251 0
M  V30 4455 C 405.159 1.87905 -0.220978 0
M  V30 4456 O 404.502 1.65577 0.795617 0
M  V30 4457 C 404.564 2.54798 -2.53611 0
M  V30 4458 C 404.228 2.22192 -3.99349 0
M  V30 4459 C 405.225 1.79607 -4.87891 0
M  V30 4460 C 402.91 2.33613 -4.44669 0
M  V30 4461 C 404.904 1.48868 -6.19772 0
M  V30 4462 C 402.591 2.02487 -5.76578 0
M  V30 4463 C 403.589 1.60183 -6.63951 0
M  V30 4464 O 403.277 1.29451 -7.93409 0
M  V30 4465 H 403.009 0.414858 -0.533731 0
M  V30 4466 H 405.563 0.684465 -1.9366 0
M  V30 4467 H 403.793 3.23235 -2.12265 0
M  V30 4468 H 405.482 3.16873 -2.53666 0
M  V30 4469 H 406.248 1.70278 -4.54126 0
M  V30 4470 H 402.127 2.65501 -3.76869 0
M  V30 4471 H 405.671 1.15775 -6.87926 0
M  V30 4472 H 401.568 2.11448 -6.09885 0
M  V30 4473 H 402.336 1.43098 -8.05894 0
M  V30 4474 N 404.999 1.35443 0.805782 0
M  V30 4475 C 406.415 1.15499 1.10146 0
M  V30 4476 C 406.615 -0.0319975 2.01475 0
M  V30 4477 O 405.671 -0.70236 2.42535 0
M  V30 4478 C 406.984 2.45833 1.73166 0
M  V30 4479 C 408.532 2.52047 1.85583 0
M  V30 4480 C 409.007 3.82427 2.52019 0
M  V30 4481 N 410.498 3.83682 2.59504 0
M  V30 4482 C 411.233 4.81294 3.11679 0
M  V30 4483 N 410.729 5.89294 3.64287 0
M  V30 4484 N 412.522 4.6873 3.1024 0
M  V30 4485 H 404.673 2.11469 0.198678 0
M  V30 4486 H 406.936 0.93594 0.150731 0
M  V30 4487 H 406.642 3.32874 1.13526 0
M  V30 4488 H 406.516 2.6044 2.72857 0
M  V30 4489 H 408.903 1.65435 2.44367 0
M  V30 4490 H 408.984 2.41354 0.847455 0
M  V30 4491 H 408.628 4.69437 1.93885 0
M  V30 4492 H 408.558 3.90409 3.53395 0
M  V30 4493 H 411.049 3.05648 2.22234 0
M  V30 4494 H 411.362 6.59768 4.02401 0
M  V30 4495 H 409.707 5.92985 3.62483 0
M  V30 4496 H 412.898 3.83496 2.68419 0
M  V30 4497 H 413.071 5.44965 3.50596 0
M  V30 4498 N 406.477 -1.02803 1.19454 0
M  V30 4499 C 407.726 -1.7562 0.991996 0
M  V30 4500 C 408.039 -1.89672 -0.477901 0
M  V30 4501 O 409.245 -2.59468 -0.799287 0
M  V30 4502 C 407.701 -3.15812 1.72601 0
M  V30 4503 C 407.309 -3.0981 3.23607 0
M  V30 4504 C 409.053 -3.92918 1.60674 0
M  V30 4505 C 406.96 -4.44939 3.89594 0
M  V30 4506 H 405.89 -0.658352 0.367543 0
M  V30 4507 H 408.541 -1.15044 1.42959 0
M  V30 4508 H 406.923 -3.7686 1.21624 0
M  V30 4509 H 408.097 -2.58138 3.81709 0
M  V30 4510 H 406.412 -2.46201 3.35819 0
M  V30 4511 H 409.009 -4.9287 2.07323 0
M  V30 4512 H 409.352 -4.12502 0.561025 0
M  V30 4513 H 409.885 -3.38472 2.09001 0
M  V30 4514 H 406.624 -4.30559 4.94267 0
M  V30 4515 H 406.144 -4.96664 3.36281 0
M  V30 4516 H 407.823 -5.1382 3.93189 0
M  V30 4517 N 407.956 -0.998596 -1.21925 0
M  V30 4518 C 409.184 -0.696286 -1.94832 0
M  V30 4519 C 409.599 0.740032 -1.73692 0
M  V30 4520 O 408.956 1.5 -1.03953 0
M  V30 4521 C 409.007 -0.999833 -3.47398 0
M  V30 4522 O 408.728 -2.37972 -3.67833 0
M  V30 4523 C 410.229 -0.716025 -4.37479 0
M  V30 4524 H 407.449 -0.257111 -0.619786 0
M  V30 4525 H 409.993 -1.33491 -1.54921 0
M  V30 4526 H 408.148 -0.406918 -3.85257 0
M  V30 4527 H 408.562 -2.48338 -4.61983 0
M  V30 4528 H 410.036 -0.978642 -5.43256 0
M  V30 4529 H 410.513 0.349968 -4.37803 0
M  V30 4530 H 411.119 -1.29025 -4.05256 0
M  V30 4531 N 409.434 1.37368 -0.772513 0
M  V30 4532 C 410.711 1.93839 -0.26188 0
M  V30 4533 C 411.091 1.7061 1.24319 0
M  V30 4534 O 410.439 1.05534 2.02669 0
M  V30 4535 C 410.649 3.43154 -0.636102 0
M  V30 4536 C 411.997 4.20249 -0.606324 0
M  V30 4537 O 413.021 3.5152 -0.575538 0
M  V30 4538 O 411.88 5.42809 -0.634086 0
M  V30 4539 H 408.974 0.82478 -0.0605555 0
M  V30 4540 H 411.52 1.4665 -0.853917 0
M  V30 4541 H 410.292 3.53647 -1.6748 0
M  V30 4542 H 409.915 3.97596 -0.0170516 0
M  V30 4543 N 410.912 0.523116 1.48665 0
M  V30 4544 C 412.137 -0.0117284 2.07397 0
M  V30 4545 C 412.562 -1.28031 1.37803 0
M  V30 4546 O 411.92 -1.75836 0.441762 0
M  V30 4547 C 411.968 -0.225786 3.59892 0
M  V30 4548 O 411.072 -1.29592 3.91509 0
M  V30 4549 H 410.413 0.0360673 0.66302 0
M  V30 4550 H 412.943 0.729066 1.9117 0
M  V30 4551 H 412.953 -0.450552 4.05505 0
M  V30 4552 H 411.628 0.700944 4.09951 0
M  V30 4553 H 410.205 -1.05436 3.57684 0
M  V30 4554 N 412.39 -1.55475 0.257931 0
M  V30 4555 C 413.806 -1.59307 -0.0966563 0
M  V30 4556 C 414.006 -1.27514 -1.5602 0
M  V30 4557 O 413.062 -1.02774 -2.30637 0
M  V30 4558 C 414.375 -2.99552 0.262481 0
M  V30 4559 C 415.923 -3.1231 0.207683 0
M  V30 4560 C 416.398 -4.54793 0.541012 0
M  V30 4561 N 417.889 -4.6058 0.491921 0
M  V30 4562 C 418.624 -5.68825 0.722857 0
M  V30 4563 N 418.12 -6.85287 1.0175 0
M  V30 4564 N 419.913 -5.58296 0.652815 0
M  V30 4565 H 412.064 -1.74409 1.21224 0
M  V30 4566 H 414.327 -0.812424 0.48854 0
M  V30 4567 H 414.033 -3.27593 1.27967 0
M  V30 4568 H 413.907 -3.75019 -0.40508 0
M  V30 4569 H 416.294 -2.84044 -0.800195 0
M  V30 4570 H 416.375 -2.39095 0.909255 0
M  V30 4571 H 416.019 -4.83783 1.5465 0
M  V30 4572 H 415.949 -5.26285 -0.18216 0
M  V30 4573 H 418.44 -3.7691 0.273366 0
M  V30 4574 H 418.753 -7.63725 1.18084 0
M  V30 4575 H 417.098 -6.86945 1.05509 0
M  V30 4576 H 420.289 -4.66189 0.422592 0
M  V30 4577 H 420.462 -6.42582 0.836182 0
M  V30 4578 N 413.868 0.0150385 -1.57593 0
M  V30 4579 C 415.116 0.701613 -1.8953 0
M  V30 4580 C 415.437 1.75139 -0.857396 0
M  V30 4581 O 414.707 1.95607 0.107194 0
M  V30 4582 H 413.287 0.26213 -0.699498 0
M  V30 4583 H 415.949 -0.0223304 -1.94887 0
M  V30 4584 H 415.045 1.18236 -2.88837 0
M  V30 4585 N 415.346 1.54954 0.287554 0
M  V30 4586 C 416.294 1.87606 1.37502 0
M  V30 4587 C 417.288 0.751001 1.51843 0
M  V30 4588 O 418.494 0.935169 1.53801 0
M  V30 4589 H 414.869 0.595231 0.459569 0
M  V30 4590 H 416.84 2.78477 1.07206 0
M  V30 4591 C 415.589 2.15183 2.73115 0
M  V30 4592 H 414.912 3.01234 2.62866 0
M  V30 4593 H 416.352 2.4196 3.48183 0
M  V30 4594 C 414.811 0.954686 3.2309 0
M  V30 4595 O 415.341 0.181949 4.01288 0
M  V30 4596 N 413.547 0.756368 2.80584 0
M  V30 4597 H 413.094 1.38643 2.17108 0
M  V30 4598 H 413.052 -0.0430391 3.14371 0
M  V30 4599 N 416.824 -0.551391 1.4764 0
M  V30 4600 C 418.071 -1.3083 1.54563 0
M  V30 4601 C 418.399 -1.93359 0.210361 0
M  V30 4602 O 417.654 -1.78721 -0.797332 0
M  V30 4603 C 417.953 -2.43469 2.61644 0
M  V30 4604 C 417.619 -1.98732 4.04742 0
M  V30 4605 C 416.281 -1.86248 4.43695 0
M  V30 4606 C 418.633 -1.64659 4.94507 0
M  V30 4607 C 415.961 -1.37995 5.70241 0
M  V30 4608 C 418.313 -1.17875 6.21521 0
M  V30 4609 C 416.977 -1.03992 6.5935 0
M  V30 4610 H 416.247 -0.478741 0.565587 0
M  V30 4611 H 418.894 -0.617697 1.81264 0
M  V30 4612 H 417.199 -3.18109 2.28722 0
M  V30 4613 H 418.896 -3.01642 2.64222 0
M  V30 4614 H 415.486 -2.09393 3.73968 0
M  V30 4615 H 419.67 -1.73174 4.65107 0
M  V30 4616 H 414.926 -1.25915 5.98294 0
M  V30 4617 H 419.1 -0.905739 6.90485 0
M  V30 4618 H 416.727 -0.663794 7.57296 0
M  V30 4619 N 418.302 -1.35869 -0.798587 0
M  V30 4620 C 419.548 -1.2978 -1.55836 0
M  V30 4621 C 419.881 0.125322 -1.93795 0
M  V30 4622 O 419.156 1.07658 -1.61987 0
M  V30 4623 C 419.439 -2.21188 -2.84162 0
M  V30 4624 C 419.292 -3.72155 -2.52628 0
M  V30 4625 C 420.611 -2.11545 -3.85923 0
M  V30 4626 H 417.73 -0.472769 -0.565383 0
M  V30 4627 H 420.372 -1.66341 -0.918192 0
M  V30 4628 H 418.522 -1.90139 -3.38791 0
M  V30 4629 H 420.194 -4.13682 -2.04121 0
M  V30 4630 H 418.437 -3.92042 -1.85704 0
M  V30 4631 H 419.108 -4.31511 -3.44242 0
M  V30 4632 H 421.584 -2.38855 -3.40716 0
M  V30 4633 H 420.46 -2.77688 -4.73477 0
M  V30 4634 H 420.721 -1.09987 -4.282 0
M  V30 4635 N 419.78 1.02168 -1.19998 0
M  V30 4636 C 421.027 1.75685 -1.00702 0
M  V30 4637 C 421.355 1.88947 0.461426 0
M  V30 4638 O 420.61 1.40832 1.35885 0
M  V30 4639 C 420.909 3.18081 -1.62969 0
M  V30 4640 C 420.575 3.24809 -3.12746 0
M  V30 4641 C 419.237 3.26352 -3.53621 0
M  V30 4642 C 421.589 3.23379 -4.08749 0
M  V30 4643 C 418.917 3.2413 -4.89036 0
M  V30 4644 C 421.269 3.22698 -5.44104 0
M  V30 4645 C 419.933 3.22542 -5.84399 0
M  V30 4646 H 419.203 0.642877 -0.368496 0
M  V30 4647 H 421.85 1.19865 -1.49348 0
M  V30 4648 H 420.155 3.77027 -1.06573 0
M  V30 4649 H 421.852 3.73648 -1.45561 0
M  V30 4650 H 418.442 3.2434 -2.80181 0
M  V30 4651 H 422.626 3.21361 -3.78207 0
M  V30 4652 H 417.882 3.22338 -5.19527 0
M  V30 4653 H 422.056 3.20543 -6.18244 0
M  V30 4654 H 419.683 3.20575 -6.89301 0
M  V30 4655 N 421.258 1.00505 1.21394 0
M  V30 4656 C 422.504 0.688793 1.90745 0
M  V30 4657 C 422.837 -0.778486 1.77914 0
M  V30 4658 O 422.112 -1.56433 1.15581 0
M  V30 4659 C 422.395 1.11063 3.42545 0
M  V30 4660 C 422.248 2.63737 3.64367 0
M  V30 4661 C 423.567 0.673059 4.34923 0
M  V30 4662 H 420.686 0.251702 0.692687 0
M  V30 4663 H 423.328 1.25074 1.43026 0
M  V30 4664 H 421.478 0.632508 3.83317 0
M  V30 4665 H 423.15 3.19313 3.32922 0
M  V30 4666 H 421.393 3.05248 3.08231 0
M  V30 4667 H 422.064 2.88305 4.70727 0
M  V30 4668 H 424.54 1.08392 4.01734 0
M  V30 4669 H 423.416 0.996383 5.39781 0
M  V30 4670 H 423.677 -0.425808 4.40045 0
M  V30 4671 N 422.737 -1.36956 0.779787 0
M  V30 4672 C 423.984 -1.99491 0.347766 0
M  V30 4673 C 424.312 -1.61898 -1.07793 0
M  V30 4674 O 423.567 -0.86071 -1.75756 0
M  V30 4675 C 423.866 -3.54585 0.447686 0
M  V30 4676 C 423.532 -4.1197 1.83279 0
M  V30 4677 C 422.194 -4.27356 2.2118 0
M  V30 4678 C 424.546 -4.43354 2.74019 0
M  V30 4679 C 421.874 -4.71432 3.4924 0
M  V30 4680 C 424.226 -4.88858 4.01497 0
M  V30 4681 C 422.89 -5.0245 4.39432 0
M  V30 4682 H 422.16 -0.729991 0.127257 0
M  V30 4683 H 424.807 -1.63599 0.995376 0
M  V30 4684 H 423.112 -3.90773 -0.283447 0
M  V30 4685 H 424.809 -4.00888 0.0945948 0
M  V30 4686 H 421.399 -4.00428 1.52825 0
M  V30 4687 H 425.583 -4.31045 2.45995 0
M  V30 4688 H 420.839 -4.80141 3.78516 0
M  V30 4689 H 425.013 -5.12108 4.71931 0
M  V30 4690 H 422.64 -5.36362 5.38721 0
M  V30 4691 N 424.215 -0.530993 -1.48385 0
M  V30 4692 C 425.148 0.278511 -2.26494 0
M  V30 4693 C 426.126 0.943905 -1.32398 0
M  V30 4694 O 427.31 0.968098 -1.61741 0
M  V30 4695 C 424.437 1.39453 -3.08659 0
M  V30 4696 C 423.483 0.840434 -4.18137 0
M  V30 4697 S 424.316 -0.292496 -5.34701 0
M  V30 4698 C 425.472 0.825973 -6.20426 0
M  V30 4699 H 425.705 -0.384365 -2.94805 0
M  V30 4700 H 423.238 -0.316799 -1.51115 0
M  V30 4701 H 425.196 2.03382 -3.56575 0
M  V30 4702 H 423.857 2.02913 -2.3976 0
M  V30 4703 H 423.05 1.67769 -4.75257 0
M  V30 4704 H 422.652 0.277819 -3.72967 0
M  V30 4705 H 424.944 1.72438 -6.55188 0
M  V30 4706 H 425.887 0.292728 -7.07495 0
M  V30 4707 H 426.295 1.10683 -5.53543 0
M  V30 4708 N 425.693 1.55336 -0.266172 0
M  V30 4709 C 426.603 2.2583 0.635458 0
M  V30 4710 C 427.619 1.28106 1.17749 0
M  V30 4711 O 428.795 1.61024 1.20968 0
M  V30 4712 C 425.86 2.95879 1.80712 0
M  V30 4713 C 424.921 4.09059 1.30265 0
M  V30 4714 C 424.154 4.75759 2.41846 0
M  V30 4715 O 424.377 4.41622 3.61007 0
M  V30 4716 O 423.311 5.63888 2.1051 0
M  V30 4717 H 427.137 3.03631 0.0646693 0
M  V30 4718 H 424.722 1.49361 -0.0339177 0
M  V30 4719 H 426.604 3.39932 2.49047 0
M  V30 4720 H 425.279 2.21002 2.36516 0
M  V30 4721 H 424.186 3.69482 0.586019 0
M  V30 4722 H 425.519 4.85811 0.790458 0
M  V30 4723 N 427.171 -0.0066808 1.57599 0
M  V30 4724 C 428.118 -1.00024 2.08 0
M  V30 4725 C 429.088 -1.34549 0.973943 0
M  V30 4726 O 430.273 -1.44502 1.24595 0
M  V30 4727 C 427.413 -2.2891 2.58252 0
M  V30 4728 C 426.526 -2.00346 3.82734 0
M  V30 4729 C 425.661 -3.23265 4.21513 0
M  V30 4730 C 424.7 -2.90357 5.3885 0
M  V30 4731 N 423.837 -4.05793 5.72954 0
M  V30 4732 H 428.677 -0.563499 2.92624 0
M  V30 4733 H 426.214 -0.266592 1.44664 0
M  V30 4734 H 428.172 -3.04247 2.85464 0
M  V30 4735 H 426.802 -2.70265 1.76512 0
M  V30 4736 H 425.854 -1.15406 3.62471 0
M  V30 4737 H 427.166 -1.72086 4.68175 0
M  V30 4738 H 426.32 -4.06953 4.49971 0
M  V30 4739 H 425.059 -3.54657 3.34768 0
M  V30 4740 H 424.064 -2.05075 5.10122 0
M  V30 4741 H 425.289 -2.60219 6.27266 0
M  V30 4742 H 423.235 -4.37094 4.89167 0
M  V30 4743 H 423.152 -3.81034 6.52954 0
M  V30 4744 H 424.42 -4.90289 6.06001 0
M  V30 4745 N 428.649 -1.55105 -0.279332 0
M  V30 4746 C 429.559 -1.90638 -1.36727 0
M  V30 4747 C 430.575 -0.802899 -1.54368 0
M  V30 4748 O 431.751 -1.10138 -1.68616 0
M  V30 4749 C 428.816 -2.16547 -2.70755 0
M  V30 4750 C 427.877 -3.40146 -2.61915 0
M  V30 4751 C 427.11 -3.6481 -3.8955 0
M  V30 4752 O 427.333 -2.92095 -4.89935 0
M  V30 4753 O 426.267 -4.58343 -3.90135 0
M  V30 4754 H 430.093 -2.83237 -1.09591 0
M  V30 4755 H 427.678 -1.4157 -0.477306 0
M  V30 4756 H 429.56 -2.34665 -3.50014 0
M  V30 4757 H 428.235 -1.27131 -2.9769 0
M  V30 4758 H 427.142 -3.2737 -1.81052 0
M  V30 4759 H 428.475 -4.29761 -2.3993 0
M  V30 4760 N 430.127 0.543554 -1.4793 0
M  V30 4761 C 431.037 1.67657 -1.64098 0
M  V30 4762 C 432.053 1.65934 -0.523622 0
M  V30 4763 O 433.229 1.85133 -0.792943 0
M  V30 4764 C 430.294 3.04146 -1.66421 0
M  V30 4765 C 429.355 3.16831 -2.89684 0
M  V30 4766 C 428.588 4.46809 -2.91886 0
M  V30 4767 O 428.811 5.33095 -2.02895 0
M  V30 4768 O 427.745 4.63573 -3.83906 0
M  V30 4769 H 431.571 1.56957 -2.59997 0
M  V30 4770 H 429.156 0.715116 -1.31173 0
M  V30 4771 H 431.038 3.85346 -1.70548 0
M  V30 4772 H 429.713 3.152 -0.736923 0
M  V30 4773 H 428.62 2.34977 -2.91095 0
M  V30 4774 H 429.953 3.10687 -3.81752 0
M  V30 4775 N 431.605 1.3629 0.791371 0
M  V30 4776 C 432.552 1.30458 1.90393 0
M  V30 4777 C 433.522 0.173632 1.6519 0
M  V30 4778 O 434.707 0.35983 1.87376 0
M  V30 4779 C 431.847 1.09777 3.27174 0
M  V30 4780 C 430.96 2.31929 3.64462 0
M  V30 4781 C 430.095 2.04276 4.90352 0
M  V30 4782 C 429.134 3.224 5.20312 0
M  V30 4783 N 428.271 2.94424 6.37385 0
M  V30 4784 H 433.111 2.25589 1.94714 0
M  V30 4785 H 430.648 1.12122 0.952216 0
M  V30 4786 H 432.606 0.958133 4.06049 0
M  V30 4787 H 431.236 0.183014 3.22281 0
M  V30 4788 H 430.288 2.56703 2.80727 0
M  V30 4789 H 431.6 3.20085 3.82553 0
M  V30 4790 H 430.754 1.87231 5.77087 0
M  V30 4791 H 429.493 1.13428 4.74326 0
M  V30 4792 H 428.498 3.40005 4.32061 0
M  V30 4793 H 429.723 4.14071 5.38258 0
M  V30 4794 H 427.669 2.06185 6.22755 0
M  V30 4795 H 427.586 3.76118 6.55798 0
M  V30 4796 H 428.854 2.80953 7.27108 0
M  V30 4797 N 433.083 -1.0153 1.20538 0
M  V30 4798 C 433.993 -2.13557 0.971113 0
M  V30 4799 C 435.009 -1.73845 -0.0734366 0
M  V30 4800 O 436.185 -2.01075 0.114299 0
M  V30 4801 C 433.25 -3.42661 0.527639 0
M  V30 4802 C 432.311 -3.96608 1.64319 0
M  V30 4803 C 431.544 -5.1955 1.22078 0
M  V30 4804 O 431.767 -5.70329 0.0900198 0
M  V30 4805 O 430.701 -5.66681 2.02871 0
M  V30 4806 H 434.527 -2.3619 1.90913 0
M  V30 4807 H 432.112 -1.11946 0.989362 0
M  V30 4808 H 433.994 -4.20404 0.289621 0
M  V30 4809 H 432.669 -3.21441 -0.381779 0
M  V30 4810 H 431.576 -3.20139 1.93551 0
M  V30 4811 H 432.909 -4.22219 2.52966 0
M  V30 4812 N 434.561 -1.01147 -1.20859 0
M  V30 4813 C 435.977 -0.725422 -1.42161 0
M  V30 4814 C 436.177 0.696919 -1.89064 0
M  V30 4815 O 435.233 1.46539 -2.05627 0
M  V30 4816 C 436.546 -1.74678 -2.44761 0
M  V30 4817 C 438.094 -1.76433 -2.58535 0
M  V30 4818 C 438.569 -2.77481 -3.64374 0
M  V30 4819 N 440.06 -2.76189 -3.71852 0
M  V30 4820 C 440.795 -3.51035 -4.53389 0
M  V30 4821 N 440.291 -4.35541 -5.38773 0
M  V30 4822 N 442.084 -3.39655 -4.47873 0
M  V30 4823 H 434.235 -1.92979 -0.887282 0
M  V30 4824 H 436.498 -0.833327 -0.451962 0
M  V30 4825 H 436.204 -2.76551 -2.17285 0
M  V30 4826 H 436.078 -1.55472 -3.43669 0
M  V30 4827 H 438.465 -0.75248 -2.85345 0
M  V30 4828 H 438.546 -1.99712 -1.5984 0
M  V30 4829 H 438.19 -3.78827 -3.38308 0
M  V30 4830 H 438.12 -2.51466 -4.6268 0
M  V30 4831 H 440.611 -2.14885 -3.10858 0
M  V30 4832 H 440.924 -4.89432 -5.98061 0
M  V30 4833 H 439.269 -4.39621 -5.38292 0
M  V30 4834 H 442.46 -2.73063 -3.80203 0
M  V30 4835 H 442.633 -3.9824 -5.11184 0
M  V30 4836 N 436.039 1.36541 -0.78704 0
M  V30 4837 C 436.969 2.32659 -0.197992 0
M  V30 4838 C 437.95 1.56533 0.665697 0
M  V30 4839 O 439.135 1.84698 0.60001 0
M  V30 4840 C 436.265 3.40778 0.669901 0
M  V30 4841 C 435.219 4.27897 -0.0937039 0
M  V30 4842 C 434.545 5.27163 0.894629 0
M  V30 4843 C 435.845 5.06334 -1.28154 0
M  V30 4844 H 437.539 2.82171 -1.00099 0
M  V30 4845 H 435.085 1.35665 -0.482793 0
M  V30 4846 H 437.038 4.07008 1.09191 0
M  V30 4847 H 435.762 2.89827 1.50558 0
M  V30 4848 H 434.421 3.6322 -0.49666 0
M  V30 4849 H 434.069 4.72486 1.72527 0
M  V30 4850 H 433.769 5.86317 0.388149 0
M  V30 4851 H 435.293 5.96266 1.31525 0
M  V30 4852 H 436.707 5.65617 -0.93541 0
M  V30 4853 H 435.104 5.74888 -1.72115 0
M  V30 4854 H 436.174 4.38114 -2.07807 0
M  V30 4855 N 437.518 0.538854 1.48102 0
M  V30 4856 C 438.448 -0.207654 2.32575 0
M  V30 4857 C 439.429 -0.926559 1.4265 0
M  V30 4858 O 440.614 -0.91061 1.71527 0
M  V30 4859 C 437.744 -1.24957 3.24042 0
M  V30 4860 C 436.698 -0.648263 4.23062 0
M  V30 4861 C 436.024 -1.79348 5.03725 0
M  V30 4862 C 437.324 0.385897 5.20872 0
M  V30 4863 H 439.018 0.497534 2.95237 0
M  V30 4864 H 436.564 0.240715 1.41974 0
M  V30 4865 H 438.517 -1.77983 3.81969 0
M  V30 4866 H 437.241 -1.98446 2.59397 0
M  V30 4867 H 435.9 -0.139452 3.66335 0
M  V30 4868 H 435.548 -2.51696 4.35498 0
M  V30 4869 H 435.248 -1.39702 5.70751 0
M  V30 4870 H 436.772 -2.32735 5.64506 0
M  V30 4871 H 438.186 -0.057607 5.73271 0
M  V30 4872 H 436.583 0.700227 5.96001 0
M  V30 4873 H 437.653 1.28848 4.67468 0
M  V30 4874 N 438.996 -1.55193 0.274407 0
M  V30 4875 C 439.906 -2.26164 -0.623473 0
M  V30 4876 C 440.922 -1.28729 -1.17068 0
M  V30 4877 O 442.098 -1.61663 -1.20112 0
M  V30 4878 C 439.163 -2.96833 -1.7914 0
M  V30 4879 C 438.224 -4.09745 -1.28093 0
M  V30 4880 C 437.457 -4.77034 -2.3932 0
M  V30 4881 O 437.68 -4.4353 -3.5866 0
M  V30 4882 O 436.614 -5.64996 -2.07516 0
M  V30 4883 H 440.44 -3.03661 -0.0485661 0
M  V30 4884 H 438.025 -1.49341 0.0418382 0
M  V30 4885 H 439.907 -3.41248 -2.4724 0
M  V30 4886 H 438.582 -2.22253 -2.35341 0
M  V30 4887 H 437.489 -3.69787 -0.566416 0
M  V30 4888 H 438.822 -4.86224 -0.764683 0
M  V30 4889 N 440.474 -0.00167713 -1.576 0
M  V30 4890 C 441.424 0.997744 -2.0501 0
M  V30 4891 C 442.408 1.30214 -0.94515 0
M  V30 4892 O 443.6 1.29284 -1.20891 0
M  V30 4893 C 440.729 2.2892 -2.55833 0
M  V30 4894 C 439.815 2.01437 -3.73208 0
M  V30 4895 N 440.206 1.44119 -4.84833 0
M  V30 4896 C 438.504 2.31571 -3.8117 0
M  V30 4897 C 439.205 1.33145 -5.66257 0
M  V30 4898 N 438.181 1.81763 -5.12312 0
M  V30 4899 H 441.983 0.549098 -2.88725 0
M  V30 4900 H 439.497 0.20398 -1.61114 0
M  V30 4901 H 441.494 3.01361 -2.88075 0
M  V30 4902 H 440.154 2.74436 -1.73537 0
M  V30 4903 H 441.165 1.11978 -5.0565 0
M  V30 4904 H 437.842 2.7995 -3.09732 0
M  V30 4905 H 439.232 0.890567 -6.65972 0
M  V30 4906 N 441.952 1.55251 0.271103 0
M  V30 4907 C 442.882 1.9127 1.33933 0
M  V30 4908 C 443.863 0.77478 1.5143 0
M  V30 4909 O 445.048 1.03307 1.64442 0
M  V30 4910 C 442.178 2.18627 2.69851 0
M  V30 4911 C 441.132 3.34442 2.67081 0
M  V30 4912 C 440.458 3.47284 4.06569 0
M  V30 4913 C 441.758 4.70784 2.26185 0
M  V30 4914 H 443.452 2.80744 1.04035 0
M  V30 4915 H 440.998 1.35077 0.499017 0
M  V30 4916 H 442.951 2.42413 3.44694 0
M  V30 4917 H 441.675 1.25955 3.01335 0
M  V30 4918 H 440.334 3.10627 1.94695 0
M  V30 4919 H 439.982 2.52074 4.35279 0
M  V30 4920 H 439.682 4.25152 4.0561 0
M  V30 4921 H 441.206 3.73363 4.83148 0
M  V30 4922 H 442.62 4.94102 2.90751 0
M  V30 4923 H 441.017 5.51582 2.36384 0
M  V30 4924 H 442.087 4.69478 1.21319 0
M  V30 4925 N 443.43 -0.535701 1.48216 0
M  V30 4926 C 444.846 -0.863701 1.3421 0
M  V30 4927 C 445.046 -1.98458 0.34879 0
M  V30 4928 O 444.102 -2.51432 -0.23204 0
M  V30 4929 C 445.415 -1.23662 2.74095 0
M  V30 4930 C 446.963 -1.34683 2.82541 0
M  V30 4931 C 447.438 -1.75322 4.23115 0
M  V30 4932 N 448.929 -1.82434 4.2576 0
M  V30 4933 C 449.664 -2.15252 5.31464 0
M  V30 4934 N 449.16 -2.46533 6.47452 0
M  V30 4935 N 450.953 -2.16209 5.18855 0
M  V30 4936 H 443.104 0.203965 2.11418 0
M  V30 4937 H 445.367 0.0286033 0.947568 0
M  V30 4938 H 445.073 -0.486674 3.48316 0
M  V30 4939 H 444.947 -2.18805 3.07253 0
M  V30 4940 H 447.334 -2.08756 2.08579 0
M  V30 4941 H 447.415 -0.376756 2.5301 0
M  V30 4942 H 447.059 -1.01812 4.97591 0
M  V30 4943 H 446.989 -2.7337 4.50085 0
M  V30 4944 H 449.48 -1.6056 3.42095 0
M  V30 4945 H 449.793 -2.70662 7.23852 0
M  V30 4946 H 448.138 -2.44065 6.50736 0
M  V30 4947 H 451.329 -1.91224 4.2726 0
M  V30 4948 H 451.502 -2.41453 6.01335 0
M  V30 4949 N 444.908 -1.36708 -0.784132 0
M  V30 4950 C 446.136 -1.34398 -1.57305 0
M  V30 4951 C 446.551 0.0735577 -1.88657 0
M  V30 4952 O 445.908 1.03193 -1.50524 0
M  V30 4953 C 445.959 -2.17053 -2.89085 0
M  V30 4954 O 445.68 -3.53281 -2.59083 0
M  V30 4955 C 447.181 -2.22583 -3.83369 0
M  V30 4956 H 444.401 -0.460819 -0.487736 0
M  V30 4957 H 446.945 -1.79879 -0.972819 0
M  V30 4958 H 445.1 -1.75113 -3.45564 0
M  V30 4959 H 445.514 -3.9647 -3.43383 0
M  V30 4960 H 446.988 -2.84763 -4.72878 0
M  V30 4961 H 447.465 -1.23075 -4.21603 0
M  V30 4962 H 448.071 -2.64781 -3.32823 0
M  V30 4963 N 446.386 1.0089 -1.21074 0
M  V30 4964 C 447.333 2.09588 -0.966512 0
M  V30 4965 C 448.303 1.65761 0.106089 0
M  V30 4966 O 449.488 1.90758 -0.0402287 0
M  V30 4967 C 446.628 3.40958 -0.533058 0
M  V30 4968 C 445.741 3.9822 -1.67467 0
M  V30 4969 C 444.876 5.17682 -1.19076 0
M  V30 4970 C 443.915 5.67043 -2.30496 0
M  V30 4971 N 443.052 6.77759 -1.83267 0
M  V30 4972 H 447.892 2.29815 -1.89708 0
M  V30 4973 H 445.429 1.12689 -0.945489 0
M  V30 4974 H 447.387 4.1637 -0.263019 0
M  V30 4975 H 446.017 3.20781 0.360505 0
M  V30 4976 H 445.069 3.1983 -2.05944 0
M  V30 4977 H 446.381 4.3085 -2.51336 0
M  V30 4978 H 445.535 6.00326 -0.877151 0
M  V30 4979 H 444.274 4.86635 -0.322066 0
M  V30 4980 H 443.279 4.82999 -2.62664 0
M  V30 4981 H 444.504 6.00121 -3.17855 0
M  V30 4982 H 442.45 6.48527 -0.987356 0
M  V30 4983 H 442.367 7.09624 -2.60711 0
M  V30 4984 H 443.635 7.63949 -1.54928 0
M  V30 4985 N 447.864 1.01787 1.20321 0
M  V30 4986 C 448.812 0.58254 2.25187 0
M  V30 4987 C 449.806 -0.379359 1.65098 0
M  V30 4988 O 451.012 -0.249142 1.78267 0
M  V30 4989 H 447.387 0.170078 0.732514 0
M  V30 4990 H 449.358 1.47788 2.59232 0
M  V30 4991 C 448.107 -0.0620885 3.47645 0
M  V30 4992 H 447.43 0.669069 3.94162 0
M  V30 4993 H 448.87 -0.329784 4.22716 0
M  V30 4994 C 447.329 -1.3053 3.10586 0
M  V30 4995 O 447.859 -2.39848 3.22236 0
M  V30 4996 N 446.065 -1.18988 2.65123 0
M  V30 4997 H 445.612 -0.300341 2.55843 0
M  V30 4998 H 445.57 -2.02267 2.40698 0
M  V30 4999 N 449.342 -1.36122 0.79427 0
M  V30 5000 C 450.588 -1.99406 0.369452 0
M  V30 5001 C 450.921 -1.62886 -1.05743 0
M  V30 5002 O 450.196 -0.886053 -1.73145 0
M  V30 5003 C 450.479 -3.56046 0.538833 0
M  V30 5004 C 450.332 -4.02404 2.00976 0
M  V30 5005 C 451.651 -4.40079 -0.0431359 0
M  V30 5006 H 448.77 -0.724397 0.135712 0
M  V30 5007 H 451.412 -1.61461 1.00151 0
M  V30 5008 H 449.562 -3.885 0.000771004 0
M  V30 5009 H 451.234 -3.80415 2.60926 0
M  V30 5010 H 449.477 -3.53765 2.51063 0
M  V30 5011 H 450.148 -5.11344 2.07922 0
M  V30 5012 H 452.624 -4.14013 0.416228 0
M  V30 5013 H 451.5 -5.48799 0.105374 0
M  V30 5014 H 451.761 -4.27264 -1.13571 0
M  V30 5015 N 450.82 -0.546701 -1.47814 0
M  V30 5016 C 451.783 0.196287 -2.28358 0
M  V30 5017 C 452.783 0.852437 -1.36346 0
M  V30 5018 O 453.973 0.709913 -1.59078 0
M  V30 5019 C 451.105 1.28579 -3.15722 0
M  V30 5020 H 452.298 -0.511086 -2.95513 0
M  V30 5021 H 449.851 -0.303248 -1.5333 0
M  V30 5022 H 450.586 2.0259 -2.53235 0
M  V30 5023 H 450.371 0.820229 -3.83425 0
M  V30 5024 H 451.861 1.80793 -3.76435 0
M  V30 5025 N 452.299 1.55045 -0.282633 0
M  V30 5026 C 453.545 2.00056 0.332481 0
M  V30 5027 C 453.878 1.1708 1.54939 0
M  V30 5028 O 453.153 0.2427 1.9298 0
M  V30 5029 C 453.436 3.53086 0.70725 0
M  V30 5030 C 453.289 4.46813 -0.517521 0
M  V30 5031 C 454.608 4.12245 1.54084 0
M  V30 5032 H 451.727 0.727268 0.119373 0
M  V30 5033 H 454.369 1.85932 -0.391076 0
M  V30 5034 H 452.519 3.65253 1.32372 0
M  V30 5035 H 454.191 4.46579 -1.15607 0
M  V30 5036 H 452.434 4.18163 -1.1542 0
M  V30 5037 H 453.105 5.51595 -0.211426 0
M  V30 5038 H 455.581 4.03401 1.02013 0
M  V30 5039 H 454.457 5.19515 1.77186 0
M  V30 5040 H 454.718 3.62951 2.52427 0
M  V30 5041 N 453.777 0.010035 1.57597 0
M  V30 5042 C 455.193 -0.346164 1.55801 0
M  V30 5043 C 455.393 -1.74144 1.01371 0
M  V30 5044 O 454.449 -2.43938 0.651968 0
M  V30 5045 C 455.762 -0.212216 2.9995 0
M  V30 5046 C 457.31 -0.286409 3.11687 0
M  V30 5047 C 457.785 -0.18147 4.5764 0
M  V30 5048 N 459.276 -0.239056 4.62583 0
M  V30 5049 C 460.011 -0.181351 5.73113 0
M  V30 5050 N 459.507 -0.073661 6.92761 0
M  V30 5051 N 461.3 -0.233949 5.61613 0
M  V30 5052 H 453.451 0.922657 1.91313 0
M  V30 5053 H 455.714 0.354595 0.879185 0
M  V30 5054 H 455.42 0.748169 3.4365 0
M  V30 5055 H 455.294 -0.990224 3.6397 0
M  V30 5056 H 457.681 -1.23724 2.67911 0
M  V30 5057 H 457.762 0.521645 2.50425 0
M  V30 5058 H 457.406 0.765863 5.02093 0
M  V30 5059 H 457.336 -1.00814 5.1686 0
M  V30 5060 H 459.827 -0.32321 3.76515 0
M  V30 5061 H 460.14 -0.0358003 7.72792 0
M  V30 5062 H 458.485 -0.0391461 6.94989 0
M  V30 5063 H 461.676 -0.316347 4.6703 0
M  V30 5064 H 461.849 -0.185514 6.47734 0
M  V30 5065 N 455.255 -1.55392 -0.262866 0
M  V30 5066 C 456.48 -1.80847 -1.01533 0
M  V30 5067 C 456.905 -0.584946 -1.78774 0
M  V30 5068 O 456.263 0.465701 -1.75217 0
M  V30 5069 C 456.311 -3.03866 -1.94159 0
M  V30 5070 O 455.415 -2.79662 -3.03089 0
M  V30 5071 H 454.756 -0.597441 -0.289759 0
M  V30 5072 H 457.286 -2.02553 -0.288698 0
M  V30 5073 H 457.296 -3.32872 -2.35924 0
M  V30 5074 H 455.971 -3.92564 -1.37354 0
M  V30 5075 H 454.548 -2.61781 -2.65566 0
M  V30 5076 N 456.733 0.527833 -1.48498 0
M  V30 5077 C 457.98 1.28354 -1.56625 0
M  V30 5078 C 458.308 1.93 -0.241096 0
M  V30 5079 O 457.563 1.79967 0.768798 0
M  V30 5080 C 457.862 2.39275 -2.65485 0
M  V30 5081 C 457.528 1.92268 -4.07853 0
M  V30 5082 C 456.19 1.79166 -4.46602 0
M  V30 5083 C 458.542 1.56771 -4.97064 0
M  V30 5084 C 455.87 1.28905 -5.72364 0
M  V30 5085 C 458.222 1.07972 -6.23318 0
M  V30 5086 C 456.886 0.934887 -6.60921 0
M  V30 5087 H 456.156 0.469682 -0.573131 0
M  V30 5088 H 458.803 0.588781 -1.82224 0
M  V30 5089 H 457.108 3.1443 -2.33754 0
M  V30 5090 H 458.805 2.974 -2.68988 0
M  V30 5091 H 455.395 2.03417 -3.77252 0
M  V30 5092 H 459.579 1.65753 -4.67803 0
M  V30 5093 H 454.835 1.16381 -6.00221 0
M  V30 5094 H 459.009 0.795775 -6.91838 0
M  V30 5095 H 456.636 0.543231 -7.58257 0
M  V30 5096 N 458.211 1.37122 0.776871 0
M  V30 5097 C 459.627 1.1781 1.07671 0
M  V30 5098 C 459.827 0.0107454 2.01497 0
M  V30 5099 O 458.883 -0.650756 2.4397 0
M  V30 5100 C 460.196 2.49451 1.67913 0
M  V30 5101 C 461.744 2.55927 1.80195 0
M  V30 5102 C 462.219 3.87686 2.43851 0
M  V30 5103 N 463.71 3.891 2.51307 0
M  V30 5104 C 464.445 4.87797 3.014 0
M  V30 5105 N 463.941 5.96888 3.51705 0
M  V30 5106 N 465.734 4.75205 3.00227 0
M  V30 5107 H 457.885 2.11843 0.153778 0
M  V30 5108 H 460.148 0.938927 0.130844 0
M  V30 5109 H 459.854 3.35207 1.06439 0
M  V30 5110 H 459.728 2.66169 2.67271 0
M  V30 5111 H 462.115 1.70582 2.40803 0
M  V30 5112 H 462.196 2.43097 0.796069 0
M  V30 5113 H 461.84 4.73444 1.83884 0
M  V30 5114 H 461.77 3.97817 3.45035 0
M  V30 5115 H 464.261 3.10293 2.157 0
M  V30 5116 H 464.574 6.68155 3.88316 0
M  V30 5117 H 462.919 6.0054 3.49824 0
M  V30 5118 H 466.11 3.89103 2.60224 0
M  V30 5119 H 466.283 5.52279 3.38957 0
M  V30 5120 N 459.689 -1.00246 1.21608 0
M  V30 5121 C 460.599 -2.12515 0.993709 0
M  V30 5122 C 461.615 -1.73913 -0.0549939 0
M  V30 5123 O 462.791 -2.00943 0.135619 0
M  V30 5124 C 459.856 -3.42083 0.563953 0
M  V30 5125 C 458.917 -3.94843 1.68516 0
M  V30 5126 C 458.15 -5.18226 1.27582 0
M  V30 5127 O 458.373 -5.70201 0.150506 0
M  V30 5128 O 457.307 -5.64497 2.0887 0
M  V30 5129 H 461.133 -2.34152 1.93407 0
M  V30 5130 H 458.718 -1.10891 1.00118 0
M  V30 5131 H 460.6 -4.20073 0.334194 0
M  V30 5132 H 459.275 -3.21828 -0.347665 0
M  V30 5133 H 458.182 -3.18068 1.96935 0
M  V30 5134 H 459.515 -4.19512 2.5743 0
M  V30 5135 N 461.167 -1.02423 -1.1978 0
M  V30 5136 C 462.415 -0.716569 -1.8897 0
M  V30 5137 C 462.736 0.756769 -1.79716 0
M  V30 5138 O 462.006 1.5449 -1.20456 0
M  V30 5139 H 460.586 -0.262062 -0.699523 0
M  V30 5140 H 463.248 -1.29747 -1.45436 0
M  V30 5141 H 462.344 -1.00675 -2.95417 0
M  V30 5142 N 462.645 1.35699 -0.801477 0
M  V30 5143 C 463.891 1.99208 -0.380022 0
M  V30 5144 C 464.224 1.63445 1.04878 0
M  V30 5145 O 463.499 0.895223 1.72673 0
M  V30 5146 C 463.782 3.55755 -0.557708 0
M  V30 5147 C 463.635 4.01332 -2.03107 0
M  V30 5148 C 464.954 4.40096 0.0197968 0
M  V30 5149 H 462.073 0.723667 -0.139552 0
M  V30 5150 H 464.715 1.60928 -1.01006 0
M  V30 5151 H 462.865 3.88494 -0.0213741 0
M  V30 5152 H 464.537 3.79026 -2.62939 0
M  V30 5153 H 462.78 3.52429 -2.52936 0
M  V30 5154 H 463.451 5.10234 -2.1063 0
M  V30 5155 H 465.927 4.13786 -0.438179 0
M  V30 5156 H 464.803 5.48735 -0.134477 0
M  V30 5157 H 465.064 4.2786 1.11303 0
M  V30 5158 N 464.123 0.554532 1.47522 0
M  V30 5159 C 465.539 0.214107 1.58157 0
M  V30 5160 C 465.739 -1.28331 1.55349 0
M  V30 5161 O 464.795 -2.06329 1.45549 0
M  V30 5162 C 466.108 0.838391 2.88776 0
M  V30 5163 C 467.656 0.809374 3.02354 0
M  V30 5164 C 468.131 1.41268 4.35669 0
M  V30 5165 N 469.622 1.37574 4.42298 0
M  V30 5166 C 470.357 1.8122 5.4401 0
M  V30 5167 N 469.853 2.3271 6.52547 0
M  V30 5168 N 471.646 1.72307 5.35039 0
M  V30 5169 H 463.797 1.52744 1.4759 0
M  V30 5170 H 466.06 0.636812 0.702264 0
M  V30 5171 H 465.766 1.89065 2.96559 0
M  V30 5172 H 465.64 0.329847 3.75755 0
M  V30 5173 H 468.027 -0.234187 2.94169 0
M  V30 5174 H 468.108 1.35565 2.16924 0
M  V30 5175 H 467.752 2.45529 4.4461 0
M  V30 5176 H 467.682 0.841871 5.19827 0
M  V30 5177 H 470.173 0.999081 3.64454 0
M  V30 5178 H 470.486 2.63944 7.26329 0
M  V30 5179 H 468.831 2.36719 6.53444 0
M  V30 5180 H 472.022 1.3186 4.49144 0
M  V30 5181 H 472.195 2.06641 6.14169 0
M  V30 5182 N 465.601 -1.54893 0.290851 0
M  V30 5183 C 466.85 -1.99111 -0.322113 0
M  V30 5184 C 467.163 -1.18283 -1.55784 0
M  V30 5185 O 468.369 -1.5272 -2.24475 0
M  V30 5186 C 466.825 -3.54442 -0.624438 0
M  V30 5187 C 466.433 -4.44066 0.592373 0
M  V30 5188 C 468.177 -4.07211 -1.19916 0
M  V30 5189 C 466.084 -5.90812 0.263762 0
M  V30 5190 H 465.014 -0.743712 -0.124133 0
M  V30 5191 H 467.665 -1.79132 0.39797 0
M  V30 5192 H 466.047 -3.70281 -1.40384 0
M  V30 5193 H 467.221 -4.39999 1.36886 0
M  V30 5194 H 465.536 -4.02015 1.08502 0
M  V30 5195 H 468.133 -5.14407 -1.45909 0
M  V30 5196 H 468.476 -3.57196 -2.13815 0
M  V30 5197 H 469.009 -3.94873 -0.481687 0
M  V30 5198 H 465.748 -6.44955 1.17105 0
M  V30 5199 H 465.268 -5.97911 -0.475655 0
M  V30 5200 H 466.947 -6.46852 -0.138354 0
M  V30 5201 N 467.08 -0.0183926 -1.57589 0
M  V30 5202 C 468.308 0.673046 -1.95647 0
M  V30 5203 C 468.723 1.66275 -0.894312 0
M  V30 5204 O 468.08 1.82072 0.124975 0
M  V30 5205 C 468.131 1.38884 -3.33756 0
M  V30 5206 O 467.852 0.438806 -4.35897 0
M  V30 5207 C 469.353 2.1731 -3.86383 0
M  V30 5208 H 466.573 0.186292 -0.644621 0
M  V30 5209 H 469.117 -0.0749748 -2.04363 0
M  V30 5210 H 467.272 2.08835 -3.26293 0
M  V30 5211 H 467.686 0.945869 -5.15901 0
M  V30 5212 H 469.16 2.62863 -4.85394 0
M  V30 5213 H 469.637 3.00764 -3.20059 0
M  V30 5214 H 470.243 1.52339 -3.97081 0
M  V30 5215 N 468.558 1.5553 0.254621 0
M  V30 5216 C 469.807 1.76202 0.981612 0
M  V30 5217 C 470.12 0.580883 1.86776 0
M  V30 5218 O 471.326 0.670448 2.63092 0
M  V30 5219 C 469.782 3.11921 1.79537 0
M  V30 5220 C 469.39 4.37659 0.956991 0
M  V30 5221 C 471.134 3.41936 2.51555 0
M  V30 5222 C 469.041 5.64411 1.76619 0
M  V30 5223 H 467.971 0.656841 0.370237 0
M  V30 5224 H 470.622 1.81969 0.236556 0
M  V30 5225 H 469.004 3.00241 2.58208 0
M  V30 5226 H 470.178 4.60307 0.21315 0
M  V30 5227 H 468.493 4.14922 0.350497 0
M  V30 5228 H 471.09 4.33849 3.12536 0
M  V30 5229 H 471.433 2.62905 3.22779 0
M  V30 5230 H 471.966 3.54797 1.799 0
M  V30 5231 H 468.705 6.46241 1.09783 0
M  V30 5232 H 468.225 5.45877 2.48551 0
M  V30 5233 H 469.904 6.03386 2.33527 0
M  V30 5234 N 470.036 -0.519951 1.48776 0
M  V30 5235 C 471.284 -1.2727 1.56993 0
M  V30 5236 C 471.605 -1.9339 0.25004 0
M  V30 5237 O 470.875 -1.81822 -0.729216 0
M  V30 5238 H 469.455 -0.472732 0.578389 0
M  V30 5239 H 472.117 -0.604234 1.85297 0
M  V30 5240 H 471.213 -2.04669 2.3562 0
M  V30 5241 N 471.514 -1.37532 -0.769588 0
M  V30 5242 C 472.461 -1.3347 -1.88293 0
M  V30 5243 C 473.431 -0.199891 -1.64893 0
M  V30 5244 O 474.616 -0.389594 -1.8678 0
M  V30 5245 C 471.756 -1.14968 -3.25387 0
M  V30 5246 C 470.869 -2.37698 -3.60727 0
M  V30 5247 C 470.004 -2.12051 -4.8704 0
M  V30 5248 C 469.043 -3.30636 -5.15117 0
M  V30 5249 N 468.18 -3.04527 -6.3262 0
M  V30 5250 H 473.02 -2.28658 -1.911 0
M  V30 5251 H 470.557 -1.13622 -0.934257 0
M  V30 5252 H 472.515 -1.02261 -4.04473 0
M  V30 5253 H 471.145 -0.234263 -3.21949 0
M  V30 5254 H 470.197 -2.61137 -2.76608 0
M  V30 5255 H 471.509 -3.26131 -3.77413 0
M  V30 5256 H 470.663 -1.96388 -5.74035 0
M  V30 5257 H 469.402 -1.20959 -4.72462 0
M  V30 5258 H 468.407 -3.46836 -4.26597 0
M  V30 5259 H 469.632 -4.22582 -5.31603 0
M  V30 5260 H 467.578 -2.16067 -6.19396 0
M  V30 5261 H 467.495 -3.86503 -6.49732 0
M  V30 5262 H 468.763 -2.92485 -7.22546 0
M  V30 5263 N 472.992 0.995999 -1.22138 0
M  V30 5264 C 474.408 1.25917 -0.980667 0
M  V30 5265 C 474.608 1.98819 0.327604 0
M  V30 5266 O 473.664 2.29587 1.05101 0
M  V30 5267 C 474.977 2.07399 -2.17729 0
M  V30 5268 C 476.525 2.20594 -2.22052 0
M  V30 5269 C 477 3.05462 -3.41258 0
M  V30 5270 N 478.491 3.13049 -3.41401 0
M  V30 5271 C 479.226 3.78997 -4.30289 0
M  V30 5272 N 478.722 4.46899 -5.2939 0
M  V30 5273 N 480.515 3.75728 -4.18073 0
M  V30 5274 H 472.666 0.507158 -2.06256 0
M  V30 5275 H 474.929 0.28658 -0.903646 0
M  V30 5276 H 474.635 1.61191 -3.12586 0
M  V30 5277 H 474.509 3.08154 -2.17534 0
M  V30 5278 H 476.896 2.66017 -1.27745 0
M  V30 5279 H 476.977 1.1928 -2.26287 0
M  V30 5280 H 476.621 2.60739 -4.35864 0
M  V30 5281 H 476.551 4.06911 -3.34262 0
M  V30 5282 H 479.042 2.64721 -2.69688 0
M  V30 5283 H 479.355 4.94952 -5.935 0
M  V30 5284 H 477.7 4.45657 -5.33306 0
M  V30 5285 H 480.891 3.2184 -3.39907 0
M  V30 5286 H 481.064 4.26845 -4.87553 0
M  V30 5287 N 474.47 1.03057 1.19235 0
M  V30 5288 C 475.38 0.622922 2.26179 0
M  V30 5289 C 476.396 -0.346113 1.70523 0
M  V30 5290 O 477.572 -0.203572 2.00369 0
M  V30 5291 C 474.637 -0.0182063 3.46695 0
M  V30 5292 C 473.698 0.998546 4.17526 0
M  V30 5293 C 472.931 0.387917 5.32288 0
M  V30 5294 O 473.154 -0.808668 5.64639 0
M  V30 5295 O 472.088 1.1116 5.91546 0
M  V30 5296 H 475.914 1.51363 2.63292 0
M  V30 5297 H 473.499 0.800856 1.26122 0
M  V30 5298 H 475.381 -0.375606 4.19723 0
M  V30 5299 H 474.056 -0.882895 3.11427 0
M  V30 5300 H 472.963 1.40756 3.4661 0
M  V30 5301 H 474.296 1.83366 4.56769 0
M  V30 5302 N 475.948 -1.35272 0.808662 0
M  V30 5303 C 476.858 -2.33546 0.222079 0
M  V30 5304 C 477.874 -1.6196 -0.636011 0
M  V30 5305 O 479.05 -1.93822 -0.547274 0
M  V30 5306 C 476.115 -3.41148 -0.61795 0
M  V30 5307 C 475.176 -4.28507 0.260875 0
M  V30 5308 C 474.409 -5.3097 -0.539156 0
M  V30 5309 O 474.632 -5.42123 -1.77367 0
M  V30 5310 O 473.566 -6.01858 0.0710526 0
M  V30 5311 H 477.392 -2.85515 1.03512 0
M  V30 5312 H 474.977 -1.38079 0.570495 0
M  V30 5313 H 476.859 -4.06889 -1.09634 0
M  V30 5314 H 475.534 -2.91447 -1.40855 0
M  V30 5315 H 474.441 -3.6574 0.786451 0
M  V30 5316 H 475.774 -4.81611 1.01547 0
M  V30 5317 N 477.426 -0.562348 -1.47226 0
M  V30 5318 C 478.374 0.195476 -2.31777 0
M  V30 5319 C 479.368 0.90433 -1.43242 0
M  V30 5320 O 480.574 0.825031 -1.59979 0
M  V30 5321 H 476.949 0.0819095 -0.747526 0
M  V30 5322 H 478.92 -0.536753 -2.93533 0
M  V30 5323 C 477.669 1.20902 -3.26003 0
M  V30 5324 H 476.992 0.672997 -3.94095 0
M  V30 5325 H 478.432 1.71006 -3.87986 0
M  V30 5326 C 476.891 2.25955 -2.49891 0
M  V30 5327 O 477.421 3.32969 -2.2471 0
M  V30 5328 N 475.627 2.00019 -2.1081 0
M  V30 5329 H 475.174 1.13006 -2.31489 0
M  V30 5330 H 475.132 2.70523 -1.60201 0
M  V30 5331 N 478.904 1.54736 -0.299062 0
M  V30 5332 C 480.181 1.92187 0.363802 0
M  V30 5333 C 480.561 1.22607 1.71845 0
M  V30 5334 O 479.909 0.361141 2.25628 0
M  V30 5335 C 480.119 3.45678 0.480377 0
M  V30 5336 C 481.467 4.17885 0.752147 0
M  V30 5337 O 482.491 3.51702 0.564264 0
M  V30 5338 O 481.35 5.35048 1.11294 0
M  V30 5339 H 478.444 0.801681 0.203066 0
M  V30 5340 H 480.99 1.66115 -0.346978 0
M  V30 5341 H 479.762 3.88443 -0.471999 0
M  V30 5342 H 479.385 3.77779 1.2397 0
M  V30 5343 N 480.382 0.0267497 1.57577 0
M  V30 5344 C 481.315 -0.99059 2.05579 0
M  V30 5345 C 482.293 -1.31884 0.951065 0
M  V30 5346 O 483.477 -1.43592 1.22121 0
M  V30 5347 C 480.604 -2.31125 2.47586 0
M  V30 5348 C 479.65 -2.13777 3.69055 0
M  V30 5349 S 480.483 -1.4388 5.15809 0
M  V30 5350 C 481.639 -2.77321 5.6111 0
M  V30 5351 H 481.872 -0.581976 2.91548 0
M  V30 5352 H 479.405 -0.184876 1.53289 0
M  V30 5353 H 481.363 -3.07049 2.72454 0
M  V30 5354 H 480.024 -2.6912 1.61967 0
M  V30 5355 H 479.217 -3.11405 3.96287 0
M  V30 5356 H 478.819 -1.45996 3.44327 0
M  V30 5357 H 481.111 -3.73565 5.65204 0
M  V30 5358 H 482.054 -2.54756 6.60685 0
M  V30 5359 H 482.462 -2.82459 4.88751 0
M  V30 5360 N 481.861 -1.55662 -0.24637 0
M  V30 5361 C 483.11 -1.7672 -0.972254 0
M  V30 5362 C 483.423 -0.59078 -1.86465 0
M  V30 5363 O 484.629 -0.684391 -2.62732 0
M  V30 5364 C 483.085 -3.12869 -1.7788 0
M  V30 5365 C 482.693 -4.38161 -0.933768 0
M  V30 5366 C 484.437 -3.43265 -2.49738 0
M  V30 5367 C 482.344 -5.6534 -1.73623 0
M  V30 5368 H 481.274 -0.658795 -0.366749 0
M  V30 5369 H 483.925 -1.82092 -0.226902 0
M  V30 5370 H 482.307 -3.01606 -2.56612 0
M  V30 5371 H 483.481 -4.60413 -0.188736 0
M  V30 5372 H 481.796 -4.15102 -0.328488 0
M  V30 5373 H 484.393 -4.35501 -3.10231 0
M  V30 5374 H 484.736 -2.64614 -3.2138 0
M  V30 5375 H 485.269 -3.55746 -1.78016 0
M  V30 5376 H 482.008 -6.46814 -1.06354 0
M  V30 5377 H 481.528 -5.47188 -2.45653 0
M  V30 5378 H 483.207 -6.04616 -2.30323 0
M  V30 5379 N 483.339 0.512053 -1.4905 0
M  V30 5380 C 484.269 1.62365 -1.67809 0
M  V30 5381 C 485.25 1.61737 -0.526809 0
M  V30 5382 O 486.435 1.78651 -0.761404 0
M  V30 5383 C 483.565 3.00895 -1.73435 0
M  V30 5384 C 482.519 3.16387 -2.88242 0
M  V30 5385 C 481.845 4.56157 -2.78971 0
M  V30 5386 C 483.145 2.97457 -4.29321 0
M  V30 5387 H 484.839 1.46921 -2.60873 0
M  V30 5388 H 482.385 0.705379 -1.2554 0
M  V30 5389 H 484.338 3.78549 -1.85145 0
M  V30 5390 H 483.062 3.17403 -0.769619 0
M  V30 5391 H 481.721 2.41155 -2.76116 0
M  V30 5392 H 481.369 4.69525 -1.8043 0
M  V30 5393 H 481.069 4.67465 -3.5602 0
M  V30 5394 H 482.593 5.35886 -2.92675 0
M  V30 5395 H 484.007 3.64888 -4.42187 0
M  V30 5396 H 482.404 3.20245 -5.07507 0
M  V30 5397 H 483.474 1.93692 -4.44535 0
M  V30 5398 N 484.817 1.37938 0.762283 0
M  V30 5399 C 486.233 1.18945 1.06415 0
M  V30 5400 C 486.433 0.0321163 2.01474 0
M  V30 5401 O 485.489 -0.624844 2.44647 0
M  V30 5402 C 486.802 2.51218 1.65258 0
M  V30 5403 C 488.35 2.57824 1.7747 0
M  V30 5404 C 488.825 3.90251 2.39725 0
M  V30 5405 N 490.316 3.91744 2.47166 0
M  V30 5406 C 491.051 4.90966 2.96209 0
M  V30 5407 N 490.547 6.00585 3.45354 0
M  V30 5408 N 492.34 4.78363 2.9517 0
M  V30 5409 H 484.491 2.11994 0.131301 0
M  V30 5410 H 486.754 0.940262 0.120879 0
M  V30 5411 H 486.46 3.36317 1.02878 0
M  V30 5412 H 486.334 2.68989 2.64433 0
M  V30 5413 H 488.721 1.73126 2.3898 0
M  V30 5414 H 488.802 2.43928 0.770241 0
M  V30 5415 H 488.446 4.75368 1.78852 0
M  V30 5416 H 488.376 4.01454 3.40796 0
M  V30 5417 H 490.867 3.12563 2.12397 0
M  V30 5418 H 491.18 6.72236 3.81207 0
M  V30 5419 H 489.525 6.04217 3.43434 0
M  V30 5420 H 492.716 3.91841 2.56082 0
M  V30 5421 H 492.889 5.55843 3.33081 0
M  V30 5422 N 486.295 -0.989507 1.22664 0
M  V30 5423 C 487.205 -2.11449 1.01619 0
M  V30 5424 C 488.221 -1.73962 -0.036545 0
M  V30 5425 O 489.397 -2.00788 0.156924 0
M  V30 5426 C 486.462 -3.41465 0.600204 0
M  V30 5427 C 485.523 -3.93033 1.72695 0
M  V30 5428 C 484.756 -5.16844 1.33071 0
M  V30 5429 O 484.979 -5.7001 0.210975 0
M  V30 5430 O 483.913 -5.6225 2.14845 0
M  V30 5431 H 487.739 -2.32088 1.9588 0
M  V30 5432 H 485.324 -1.09823 1.01289 0
M  V30 5433 H 487.206 -4.19695 0.37873 0
M  V30 5434 H 485.881 -3.22178 -0.313511 0
M  V30 5435 H 484.788 -3.15961 2.00298 0
M  V30 5436 H 486.121 -4.16758 2.61865 0
M  V30 5437 N 487.773 -1.03688 -1.18687 0
M  V30 5438 C 488.703 -0.645407 -2.24403 0
M  V30 5439 C 489.684 0.349511 -1.66471 0
M  V30 5440 O 490.869 0.230453 -1.92828 0
M  V30 5441 C 487.999 -0.00365337 -3.473 0
M  V30 5442 C 486.953 -0.921705 -4.17958 0
M  V30 5443 C 486.279 -0.144629 -5.34504 0
M  V30 5444 C 487.579 -2.23909 -4.71871 0
M  V30 5445 H 489.273 -1.52917 -2.57404 0
M  V30 5446 H 486.819 -0.736711 -1.23728 0
M  V30 5447 H 488.772 0.281908 -4.20456 0
M  V30 5448 H 487.496 0.914963 -3.13522 0
M  V30 5449 H 486.155 -1.19159 -3.46694 0
M  V30 5450 H 485.803 0.776274 -4.96974 0
M  V30 5451 H 485.503 -0.756206 -5.82714 0
M  V30 5452 H 487.027 0.134004 -6.10453 0
M  V30 5453 H 488.441 -2.0145 -5.36741 0
M  V30 5454 H 486.838 -2.8033 -5.30599 0
M  V30 5455 H 487.908 -2.88822 -3.895 0
M  V30 5456 N 489.251 1.34841 -0.815825 0
M  V30 5457 C 490.161 2.33425 -0.234462 0
M  V30 5458 C 491.177 1.62295 0.627413 0
M  V30 5459 O 492.353 1.94109 0.536987 0
M  V30 5460 C 489.418 3.41471 0.599849 0
M  V30 5461 C 488.479 4.28362 -0.283596 0
M  V30 5462 C 487.712 5.31248 0.51099 0
M  V30 5463 O 487.935 5.43056 1.7449 0
M  V30 5464 O 486.869 6.01812 -0.10297 0
M  V30 5465 H 490.695 2.84962 -1.05024 0
M  V30 5466 H 488.28 1.37774 -0.577809 0
M  V30 5467 H 490.162 4.07464 1.07475 0
M  V30 5468 H 488.837 2.9219 1.39308 0
M  V30 5469 H 487.744 3.65318 -0.805836 0
M  V30 5470 H 489.077 4.81066 -1.041 0
M  V30 5471 N 490.729 0.570148 1.46925 0
M  V30 5472 C 491.975 0.0510284 2.02736 0
M  V30 5473 C 492.308 -1.3006 1.44215 0
M  V30 5474 O 491.583 -1.84932 0.602521 0
M  V30 5475 C 491.866 -0.028215 3.60089 0
M  V30 5476 C 491.719 1.35142 4.29018 0
M  V30 5477 C 493.038 -0.735181 4.33916 0
M  V30 5478 H 490.157 0.0200178 0.736728 0
M  V30 5479 H 492.799 0.73493 1.75211 0
M  V30 5480 H 490.949 -0.610648 3.83671 0
M  V30 5481 H 492.621 1.97806 4.16738 0
M  V30 5482 H 490.864 1.9226 3.88868 0
M  V30 5483 H 491.535 1.24857 5.37694 0
M  V30 5484 H 494.011 -0.240519 4.15404 0
M  V30 5485 H 492.887 -0.759622 5.43618 0
M  V30 5486 H 493.148 -1.79397 4.04066 0
M  V30 5487 N 492.207 -1.54576 0.307264 0
M  V30 5488 C 493.454 -2.00263 -0.300167 0
M  V30 5489 C 493.782 -1.19561 -1.53413 0
M  V30 5490 O 493.037 -0.261487 -1.93945 0
M  V30 5491 C 493.336 -3.50572 -0.695253 0
M  V30 5492 C 493.002 -4.48771 0.437679 0
M  V30 5493 C 491.664 -4.7534 0.748681 0
M  V30 5494 C 494.016 -5.0721 1.19949 0
M  V30 5495 C 491.344 -5.5761 1.8245 0
M  V30 5496 C 493.696 -5.90651 2.26527 0
M  V30 5497 C 492.36 -6.15528 2.58227 0
M  V30 5498 H 491.63 -0.732814 -0.109839 0
M  V30 5499 H 494.277 -1.86664 0.427661 0
M  V30 5500 H 492.582 -3.61814 -1.50326 0
M  V30 5501 H 494.279 -3.83352 -1.17653 0
M  V30 5502 H 490.869 -4.282 0.185187 0
M  V30 5503 H 495.053 -4.86679 0.972474 0
M  V30 5504 H 490.309 -5.75121 2.07476 0
M  V30 5505 H 494.483 -6.34957 2.86011 0
M  V30 5506 H 492.11 -6.79066 3.4172 0
M  V30 5507 N 493.685 -0.035106 -1.57561 0
M  V30 5508 C 494.632 0.94474 -2.10578 0
M  V30 5509 C 495.602 1.3192 -1.00927 0
M  V30 5510 O 496.787 1.41147 -1.28382 0
M  V30 5511 C 493.927 2.21982 -2.64231 0
M  V30 5512 C 493.04 1.90128 -3.87911 0
M  V30 5513 C 492.175 3.11975 -4.29936 0
M  V30 5514 C 491.214 2.75968 -5.46359 0
M  V30 5515 N 490.351 3.90459 -5.83512 0
M  V30 5516 H 495.191 0.485717 -2.94015 0
M  V30 5517 H 492.728 0.228143 -1.4532 0
M  V30 5518 H 494.686 2.96572 -2.9343 0
M  V30 5519 H 493.316 2.6549 -1.83616 0
M  V30 5520 H 492.368 1.05755 -3.65404 0
M  V30 5521 H 493.68 1.59613 -4.72573 0
M  V30 5522 H 492.834 3.9488 -4.60603 0
M  V30 5523 H 491.573 3.45657 -3.44053 0
M  V30 5524 H 490.578 1.91478 -5.1538 0
M  V30 5525 H 491.803 2.43497 -6.33945 0
M  V30 5526 H 489.749 4.23971 -5.00584 0
M  V30 5527 H 489.666 3.63588 -6.62827 0
M  V30 5528 H 490.934 4.7405 -6.18787 0
M  V30 5529 O 495.202 1.61149 0.106394 0
M  V30 5530 H 495.893 1.7916 0.736293 0
M  V30 END ATOM
M  V30 BEGIN BOND
M  V30 END BOND
M  V30 END CTAB
M  END
$$$$
