drugbank_target|Q9X0L5 Aminotransferase, putative (DB01942)
 OpenBabel12092120233D

  0  0  0     0  0            999 V3000
M  V30 BEGIN CTAB
M  V30 COUNTS 6719 6788 0 0 0
M  V30 BEGIN ATOM
M  V30 1 H -0.908 1.98254 -0.117106 0
M  V30 2 N 0 1.576 0 0
M  V30 3 C 0.933 2.03868 1.02534 0
M  V30 4 C 1.911 0.928543 1.3348 0
M  V30 5 O 3.095 1.19667 1.45644 0
M  V30 6 C 0.222 2.43627 2.35294 0
M  V30 7 C -0.732 3.65373 2.2001 0
M  V30 8 S 0.101 5.13292 1.52614 0
M  V30 9 C 1.257 5.56322 2.86805 0
M  V30 10 H 1.49 2.90518 0.631377 0
M  V30 11 H -0.977 1.52953 0.210867 0
M  V30 12 H 0.981 2.67203 3.11629 0
M  V30 13 H -0.358 1.57376 2.7183 0
M  V30 14 H -1.165 3.90944 3.18086 0
M  V30 15 H -1.563 3.418 1.51819 0
M  V30 16 H 0.729 5.58782 3.83104 0
M  V30 17 H 1.672 6.56266 2.65933 0
M  V30 18 H 2.08 4.83886 2.90714 0
M  V30 19 N 1.4781 -0.272755 1.55222 0
M  V30 20 C 2.7241 -1.00581 1.761 0
M  V30 21 C 3.0571 -1.85932 0.560625 0
M  V30 22 O 2.3321 -1.89416 -0.441801 0
M  V30 23 C 2.6151 -1.88816 3.06628 0
M  V30 24 C 2.4681 -1.06457 4.37021 0
M  V30 25 C 3.7871 -2.8752 3.33197 0
M  V30 26 H 0.9061 -0.364244 0.640699 0
M  V30 27 H 3.5481 -0.278189 1.87952 0
M  V30 28 H 1.6981 -2.50856 2.96654 0
M  V30 29 H 3.3701 -0.464863 4.58952 0
M  V30 30 H 1.6131 -0.368043 4.32236 0
M  V30 31 H 2.2841 -1.71514 5.24678 0
M  V30 32 H 4.7601 -2.35615 3.42965 0
M  V30 33 H 3.6361 -3.46399 4.25792 0
M  V30 34 H 3.8971 -3.62657 2.52849 0
M  V30 35 N 2.9562 -1.48159 -0.537278 0
M  V30 36 C 4.2022 -1.56035 -1.29541 0
M  V30 37 C 4.5352 -0.230377 -1.92829 0
M  V30 38 O 3.8102 0.762952 -1.78911 0
M  V30 39 C 4.0932 -2.69323 -2.39034 0
M  V30 40 C 3.9462 -4.12002 -1.80485 0
M  V30 41 C 5.2652 -2.78408 -3.40847 0
M  V30 42 H 2.3842 -0.567992 -0.469632 0
M  V30 43 H 5.0262 -1.80302 -0.599277 0
M  V30 44 H 3.1762 -2.48763 -2.98412 0
M  V30 45 H 4.8482 -4.43981 -1.25215 0
M  V30 46 H 3.0912 -4.19344 -1.11055 0
M  V30 47 H 3.7622 -4.87077 -2.59731 0
M  V30 48 H 6.2382 -2.97012 -2.91416 0
M  V30 49 H 5.1142 -3.59416 -4.14863 0
M  V30 50 H 5.3752 -1.86269 -4.00944 0
M  V30 51 N 4.4343 0.785586 -1.36625 0
M  V30 52 C 5.3823 1.91978 -1.31329 0
M  V30 53 C 6.3763 1.68162 -0.204416 0
M  V30 54 O 7.5823 1.76122 -0.371645 0
M  V30 55 H 3.9573 0.631087 -0.408942 0
M  V30 56 H 5.9283 1.93562 -2.27104 0
M  V30 57 C 4.6773 3.29055 -1.12329 0
M  V30 58 H 4.0003 3.4795 -1.96903 0
M  V30 59 H 5.4403 4.08756 -1.12671 0
M  V30 60 C 3.8993 3.36461 0.171861 0
M  V30 61 O 4.4293 3.84576 1.16035 0
M  V30 62 N 2.6353 2.89782 0.217846 0
M  V30 63 H 2.1823 2.50819 -0.587183 0
M  V30 64 H 2.1403 2.95119 1.08408 0
M  V30 65 N 5.9124 1.20967 1.01018 0
M  V30 66 C 6.8424 0.988272 2.11555 0
M  V30 67 C 7.8234 -0.0849778 1.69888 0
M  V30 68 O 9.0084 0.0738202 1.9406 0
M  V30 69 C 6.1384 0.546528 3.42973 0
M  V30 70 C 5.0924 1.56375 3.9841 0
M  V30 71 C 4.4184 0.97842 5.25672 0
M  V30 72 C 5.7184 2.94922 4.31066 0
M  V30 73 H 7.4124 1.91276 2.30334 0
M  V30 74 H 4.9584 0.921073 1.1069 0
M  V30 75 H 6.9114 0.378839 4.19694 0
M  V30 76 H 5.6354 -0.413598 3.23971 0
M  V30 77 H 4.2944 1.71891 3.23804 0
M  V30 78 H 3.9424 0.0101688 5.02999 0
M  V30 79 H 3.6424 1.65784 5.63728 0
M  V30 80 H 5.1664 0.821939 6.05043 0
M  V30 81 H 6.5804 2.8288 4.9865 0
M  V30 82 H 4.9774 3.5983 4.80253 0
M  V30 83 H 6.0474 3.4616 3.39561 0
M  V30 84 N 7.3905 -1.2043 1.01659 0
M  V30 85 C 8.3005 -2.2689 0.596484 0
M  V30 86 C 9.3165 -1.70107 -0.36599 0
M  V30 87 O 10.4925 -2.00117 -0.226942 0
M  V30 88 C 7.5575 -3.4665 -0.0586659 0
M  V30 89 C 6.6185 -4.18662 0.949751 0
M  V30 90 C 5.8515 -5.32705 0.32577 0
M  V30 91 O 6.0745 -5.63656 -0.874509 0
M  V30 92 O 5.0085 -5.92803 1.04249 0
M  V30 93 H 8.8345 -2.65041 1.4828 0
M  V30 94 H 6.4195 -1.27048 0.786082 0
M  V30 95 H 8.3015 -4.19256 -0.424564 0
M  V30 96 H 6.9765 -3.10375 -0.91918 0
M  V30 97 H 5.8835 -3.48229 1.36702 0
M  V30 98 H 7.2165 -4.58878 1.78023 0
M  V30 99 N 8.8686 -0.792821 -1.36206 0
M  V30 100 C 10.1166 -0.366062 -1.98757 0
M  V30 101 C 10.4376 1.0668 -1.63231 0
M  V30 102 O 9.7076 1.73587 -0.907978 0
M  V30 103 H 8.2876 -0.132364 -0.735179 0
M  V30 104 H 10.9496 -1.01562 -1.66347 0
M  V30 105 H 10.0456 -0.460638 -3.08682 0
M  V30 106 N 10.3467 1.47872 -0.545128 0
M  V30 107 C 11.2937 2.29849 0.2093 0
M  V30 108 C 12.2637 1.38313 0.919707 0
M  V30 109 O 13.4487 1.67277 0.917772 0
M  V30 110 C 10.5887 3.22019 1.24088 0
M  V30 111 C 9.7017 4.2864 0.537778 0
M  V30 112 C 8.8367 5.07973 1.5536 0
M  V30 113 C 7.8757 6.06381 0.8348 0
M  V30 114 N 7.0127 6.78717 1.79688 0
M  V30 115 H 11.8527 2.93845 -0.49591 0
M  V30 116 H 9.3897 1.44848 -0.256389 0
M  V30 117 H 11.3477 3.73868 1.85144 0
M  V30 118 H 9.9777 2.59914 1.91428 0
M  V30 119 H 9.0297 3.7994 -0.187046 0
M  V30 120 H 10.3417 4.98793 -0.0258907 0
M  V30 121 H 9.4957 5.63912 2.23803 0
M  V30 122 H 8.2347 4.37693 2.15118 0
M  V30 123 H 7.2397 5.49631 0.136388 0
M  V30 124 H 8.4647 6.78665 0.24313 0
M  V30 125 H 6.4107 6.11177 2.38326 0
M  V30 126 H 6.3277 7.44998 1.28505 0
M  V30 127 H 7.5957 7.39237 2.47282 0
M  V30 128 N 11.8248 0.280983 1.55075 0
M  V30 129 C 13.0738 -0.334784 1.98902 0
M  V30 130 C 13.3868 -1.56534 1.17288 0
M  V30 131 O 14.5928 -2.25443 1.51287 0
M  V30 132 C 13.0488 -0.646994 3.54037 0
M  V30 133 C 12.6568 0.564085 4.44435 0
M  V30 134 C 14.4008 -1.22506 4.06439 0
M  V30 135 C 12.3078 0.226137 5.90967 0
M  V30 136 H 11.2378 -0.128866 0.742906 0
M  V30 137 H 13.8888 0.386556 1.79382 0
M  V30 138 H 12.2708 -1.42739 3.6938 0
M  V30 139 H 13.4448 1.34082 4.40861 0
M  V30 140 H 11.7598 1.0594 4.02698 0
M  V30 141 H 14.3568 -1.49182 5.13468 0
M  V30 142 H 14.6998 -2.16085 3.55827 0
M  V30 143 H 15.2328 -0.50682 3.94558 0
M  V30 144 H 11.9718 1.12996 6.45687 0
M  V30 145 H 11.4918 -0.513717 5.97596 0
M  V30 146 H 13.1708 -0.179539 6.46751 0
M  V30 147 N 13.3029 -1.57598 0.00835791 0
M  V30 148 C 14.5279 -1.95617 -0.689103 0
M  V30 149 C 14.9529 -0.883753 -1.66046 0
M  V30 150 O 14.3109 0.157352 -1.80616 0
M  V30 151 C 14.3589 -3.32736 -1.38994 0
M  V30 152 O 13.4629 -3.27631 -2.50463 0
M  V30 153 H 12.8039 -0.638379 -0.182668 0
M  V30 154 H 15.3339 -2.045 0.064036 0
M  V30 155 H 15.3439 -3.68494 -1.75147 0
M  V30 156 H 14.0189 -4.1034 -0.677778 0
M  V30 157 H 12.5959 -3.03561 -2.16576 0
M  V30 158 N 14.781 0.264519 -1.55364 0
M  V30 159 C 15.728 1.32717 -1.88825 0
M  V30 160 C 16.698 1.48675 -0.740605 0
M  V30 161 O 17.883 1.62945 -0.992657 0
M  V30 162 C 15.023 2.68089 -2.17307 0
M  V30 163 C 14.136 2.60284 -3.44785 0
M  V30 164 C 13.271 3.87892 -3.62924 0
M  V30 165 C 12.31 3.74631 -4.84064 0
M  V30 166 N 11.447 4.94092 -4.98816 0
M  V30 167 H 16.287 1.03481 -2.79456 0
M  V30 168 H 13.824 0.499757 -1.3835 0
M  V30 169 H 15.782 3.46864 -2.31821 0
M  V30 170 H 14.412 2.95509 -1.299 0
M  V30 171 H 13.464 1.73173 -3.38697 0
M  V30 172 H 14.776 2.46388 -4.33698 0
M  V30 173 H 13.93 4.75109 -3.77302 0
M  V30 174 H 12.669 4.04664 -2.7221 0
M  V30 175 H 11.674 2.85797 -4.69681 0
M  V30 176 H 12.899 3.5937 -5.76221 0
M  V30 177 H 10.845 5.11259 -4.11036 0
M  V30 178 H 10.762 4.8276 -5.81789 0
M  V30 179 H 12.03 5.82857 -5.17588 0
M  V30 180 N 16.2591 1.48442 0.529413 0
M  V30 181 C 17.5081 1.55742 1.28169 0
M  V30 182 C 17.8211 0.236511 1.94165 0
M  V30 183 O 19.0271 0.187761 2.7085 0
M  V30 184 C 17.4831 2.74667 2.32564 0
M  V30 185 C 17.0911 4.13402 1.72636 0
M  V30 186 C 18.8351 2.9128 3.08798 0
M  V30 187 C 16.7421 5.23587 2.74975 0
M  V30 188 H 15.6721 0.579796 0.48203 0
M  V30 189 H 18.3231 1.74776 0.559056 0
M  V30 190 H 16.7051 2.49067 3.07866 0
M  V30 191 H 17.8791 4.49022 1.03519 0
M  V30 192 H 16.1941 4.0191 1.08892 0
M  V30 193 H 18.7911 3.70767 3.85274 0
M  V30 194 H 19.1341 2.00757 3.64695 0
M  V30 195 H 19.6671 3.16782 2.40611 0
M  V30 196 H 16.4061 6.16076 2.23897 0
M  V30 197 H 15.9261 4.92454 3.42417 0
M  V30 198 H 17.6051 5.51724 3.37949 0
M  V30 199 N 17.7372 -0.778329 1.37039 0
M  V30 200 C 18.9852 -1.53361 1.31623 0
M  V30 201 C 19.3062 -1.94739 -0.100831 0
M  V30 202 O 18.5762 -1.65797 -1.04347 0
M  V30 203 H 17.1562 -0.568794 0.484234 0
M  V30 204 H 19.8182 -0.926742 1.71457 0
M  V30 205 H 18.9142 -2.43606 1.95096 0
M  V30 206 N 19.2153 -1.21501 -1.00376 0
M  V30 207 C 20.1473 -0.933174 -2.09343 0
M  V30 208 C 21.1603 0.0840896 -1.62583 0
M  V30 209 O 22.3493 -0.148563 -1.77881 0
M  V30 210 C 19.4493 -0.379869 -3.36764 0
M  V30 211 C 18.6223 -1.45176 -4.12605 0
M  V30 212 C 17.6813 -0.907476 -5.18316 0
M  V30 213 O 16.7073 -1.5912 -5.46507 0
M  V30 214 N 17.9093 0.276649 -5.7984 0
M  V30 215 H 20.6743 -1.87124 -2.34104 0
M  V30 216 H 18.2353 -1.12043 -1.16867 0
M  V30 217 H 20.2273 -0.00131488 -4.047 0
M  V30 218 H 18.7973 0.463048 -3.09151 0
M  V30 219 H 18.0173 -2.00411 -3.39454 0
M  V30 220 H 19.3053 -2.17328 -4.6005 0
M  V30 221 H 18.7033 0.849147 -5.59291 0
M  V30 222 H 17.2603 0.596702 -6.49063 0
M  V30 223 N 20.6934 1.19889 -1.02296 0
M  V30 224 C 21.6414 2.24938 -0.592081 0
M  V30 225 C 22.6354 1.65257 0.372357 0
M  V30 226 O 23.8414 1.78371 0.241583 0
M  V30 227 H 20.2164 0.731787 -0.173182 0
M  V30 228 H 22.1874 2.58603 -1.48885 0
M  V30 229 C 20.9364 3.47668 0.047351 0
M  V30 230 H 20.2594 3.93875 -0.685772 0
M  V30 231 H 21.6994 4.22852 0.311862 0
M  V30 232 C 20.1584 3.11136 1.29212 0
M  V30 233 O 20.6884 3.2325 2.38479 0
M  V30 234 N 18.8944 2.65625 1.17863 0
M  V30 235 H 18.4414 2.55968 0.289493 0
M  V30 236 H 18.3994 2.41553 2.01245 0
M  V30 237 N 22.1715 0.800033 1.35784 0
M  V30 238 C 23.1045 0.151499 2.27697 0
M  V30 239 C 24.0825 -0.678663 1.4776 0
M  V30 240 O 25.2665 -0.647358 1.77035 0
M  V30 241 C 22.3935 -0.790492 3.29346 0
M  V30 242 C 21.4395 -0.0407832 4.26481 0
M  V30 243 S 22.2725 1.29077 5.19711 0
M  V30 244 C 23.4285 0.353055 6.24903 0
M  V30 245 H 23.6615 0.930796 2.82353 0
M  V30 246 H 21.1945 0.594767 1.42485 0
M  V30 247 H 23.1525 -1.3285 3.88409 0
M  V30 248 H 21.8135 -1.54312 2.73581 0
M  V30 249 H 21.0065 -0.755971 4.98298 0
M  V30 250 H 20.6085 0.427063 3.71554 0
M  V30 251 H 22.9005 -0.464147 6.75908 0
M  V30 252 H 23.8435 1.04023 7.00418 0
M  V30 253 H 24.2515 -0.0483344 5.64479 0
M  V30 254 N 23.6496 -1.47581 0.552962 0
M  V30 255 C 24.5966 -2.29957 -0.197108 0
M  V30 256 C 25.5666 -1.38799 -0.912359 0
M  V30 257 O 26.7516 -1.67761 -0.908888 0
M  V30 258 C 23.8916 -3.22672 -1.22379 0
M  V30 259 C 23.0046 -4.28919 -0.515038 0
M  V30 260 C 22.1396 -5.0879 -1.52664 0
M  V30 261 C 21.1786 -6.06815 -0.802631 0
M  V30 262 N 20.3156 -6.7966 -1.76086 0
M  V30 263 H 25.1556 -2.93578 0.511486 0
M  V30 264 H 22.6926 -1.4471 0.264067 0
M  V30 265 H 24.6506 -3.74845 -1.83159 0
M  V30 266 H 23.2806 -2.60925 -1.90047 0
M  V30 267 H 22.3326 -3.79835 0.207192 0
M  V30 268 H 23.6446 -4.98773 0.0523425 0
M  V30 269 H 22.7986 -5.65091 -2.20809 0
M  V30 270 H 21.5376 -4.38828 -2.12794 0
M  V30 271 H 20.5426 -5.49695 -0.107238 0
M  V30 272 H 21.7676 -6.78784 -0.207135 0
M  V30 273 H 19.7136 -6.12432 -2.35081 0
M  V30 274 H 19.6306 -7.45669 -1.24552 0
M  V30 275 H 20.8986 -7.40538 -2.43359 0
M  V30 276 N 25.1277 -0.289203 -1.54924 0
M  V30 277 C 26.3527 0.329299 -2.04769 0
M  V30 278 C 26.7777 1.4763 -1.16564 0
M  V30 279 O 26.1357 1.80527 -0.167186 0
M  V30 280 C 26.1837 0.774438 -3.52186 0
M  V30 281 O 25.2877 1.88038 -3.67036 0
M  V30 282 H 24.6287 0.0659259 -0.660719 0
M  V30 283 H 27.1587 -0.42761 -2.00082 0
M  V30 284 H 27.1687 1.06642 -3.93816 0
M  V30 285 H 25.8437 -0.0646707 -4.1585 0
M  V30 286 H 24.4207 1.58985 -3.3731 0
M  V30 287 N 26.6058 1.57591 -0.0167156 0
M  V30 288 C 27.8308 1.9598 0.67872 0
M  V30 289 C 28.2558 0.892546 1.65575 0
M  V30 290 O 27.6138 -0.147772 1.80697 0
M  V30 291 C 27.6618 3.33468 1.37227 0
M  V30 292 O 26.7658 3.28954 2.48722 0
M  V30 293 H 26.1068 0.639339 0.17928 0
M  V30 294 H 28.6368 2.04463 -0.0748802 0
M  V30 295 H 28.6468 3.69417 1.7319 0
M  V30 296 H 27.3218 4.10694 0.656007 0
M  V30 297 H 25.8988 3.04705 2.14963 0
M  V30 298 N 28.0839 -0.256276 1.55502 0
M  V30 299 C 29.3329 -0.983486 1.76098 0
M  V30 300 C 29.6459 -1.86837 0.578896 0
M  V30 301 O 30.8519 -2.63163 0.667648 0
M  V30 302 C 29.3079 -1.79868 3.1173 0
M  V30 303 C 28.9159 -0.961648 4.37557 0
M  V30 304 C 30.6599 -2.51919 3.41668 0
M  V30 305 C 28.5669 -1.77219 5.64223 0
M  V30 306 H 27.4969 -0.370936 0.656447 0
M  V30 307 H 30.1479 -0.238492 1.81944 0
M  V30 308 H 28.5299 -2.58527 2.99966 0
M  V30 309 H 29.7039 -0.218048 4.60284 0
M  V30 310 H 28.0189 -0.354913 4.14885 0
M  V30 311 H 30.6159 -3.12998 4.33516 0
M  V30 312 H 30.9589 -3.23059 2.62562 0
M  V30 313 H 31.4919 -1.80278 3.54605 0
M  V30 314 H 28.2309 -1.10471 6.46124 0
M  V30 315 H 27.7509 -2.49132 5.45613 0
M  V30 316 H 29.4299 -2.34169 6.03137 0
M  V30 317 N 29.562 -1.4872 -0.521534 0
M  V30 318 C 30.811 -1.56419 -1.27341 0
M  V30 319 C 31.124 -0.246805 -1.94037 0
M  V30 320 O 32.33 -0.202122 -2.70747 0
M  V30 321 C 30.786 -2.75896 -2.31105 0
M  V30 322 C 30.394 -4.14311 -1.70441 0
M  V30 323 C 32.138 -2.92913 -3.07249 0
M  V30 324 C 30.045 -5.25038 -2.72194 0
M  V30 325 H 28.975 -0.582344 -0.478949 0
M  V30 326 H 31.626 -1.75071 -0.549779 0
M  V30 327 H 30.008 -2.50697 -3.06541 0
M  V30 328 H 31.182 -4.49564 -1.01136 0
M  V30 329 H 29.497 -4.02482 -1.06759 0
M  V30 330 H 32.094 -3.72805 -3.83302 0
M  V30 331 H 32.437 -2.02689 -3.63625 0
M  V30 332 H 32.97 -3.18054 -2.38928 0
M  V30 333 H 29.709 -6.17255 -2.20627 0
M  V30 334 H 29.229 -4.94263 -3.39801 0
M  V30 335 H 30.908 -5.53508 -3.35019 0
M  V30 336 N 31.0401 0.771051 -1.3745 0
M  V30 337 C 32.4561 1.07171 -1.18265 0
M  V30 338 C 32.6561 2.01491 -0.019287 0
M  V30 339 O 31.7121 2.44244 0.640408 0
M  V30 340 C 33.0251 1.66854 -2.50161 0
M  V30 341 C 34.5731 1.79109 -2.56689 0
M  V30 342 C 35.0481 2.42205 -3.88717 0
M  V30 343 N 36.5391 2.49655 -3.90162 0
M  V30 344 C 37.2741 2.9933 -4.8907 0
M  V30 345 N 36.7701 3.49172 -5.98374 0
M  V30 346 N 38.5631 2.9821 -4.76474 0
M  V30 347 H 30.7141 0.144796 -2.11906 0
M  V30 348 H 32.9771 0.126863 -0.939473 0
M  V30 349 H 32.6831 1.05017 -3.35655 0
M  V30 350 H 32.5571 2.6614 -2.673 0
M  V30 351 H 34.9441 2.40077 -1.71601 0
M  V30 352 H 35.0251 0.785757 -2.43433 0
M  V30 353 H 34.6691 1.81875 -4.74219 0
M  V30 354 H 34.5991 3.43345 -3.99276 0
M  V30 355 H 37.0901 2.14383 -3.11205 0
M  V30 356 H 37.4031 3.8548 -6.69795 0
M  V30 357 H 35.7481 3.47275 -6.02018 0
M  V30 358 H 38.9391 2.58572 -3.90203 0
M  V30 359 H 39.1121 3.36613 -5.53711 0
M  V30 360 N 32.5182 1.22032 0.997298 0
M  V30 361 C 33.4282 1.00271 2.12092 0
M  V30 362 C 34.4442 -0.047621 1.73935 0
M  V30 363 O 35.6202 0.144136 2.00884 0
M  V30 364 C 32.6852 0.578449 3.4184 0
M  V30 365 C 31.7462 1.70189 3.94125 0
M  V30 366 C 30.9792 1.29778 5.17681 0
M  V30 367 O 31.2022 0.174676 5.70132 0
M  V30 368 O 30.1362 2.11261 5.63607 0
M  V30 369 H 33.9622 1.94398 2.3333 0
M  V30 370 H 31.5472 1.00587 1.10465 0
M  V30 371 H 33.4292 0.351998 4.19927 0
M  V30 372 H 32.1042 -0.334019 3.21972 0
M  V30 373 H 31.0112 1.98282 3.1723 0
M  V30 374 H 32.3442 2.59206 4.18417 0
M  V30 375 N 33.9963 -1.19345 1.0293 0
M  V30 376 C 35.2453 -1.88363 0.721256 0
M  V30 377 C 35.5583 -1.80514 -0.753254 0
M  V30 378 O 36.7643 -2.44788 -1.17436 0
M  V30 379 C 35.2203 -3.37872 1.23978 0
M  V30 380 C 34.8283 -3.54278 2.74211 0
M  V30 381 C 36.5723 -4.12365 1.00775 0
M  V30 382 C 34.4793 -4.97682 3.19479 0
M  V30 383 H 33.4093 -0.705484 0.266098 0
M  V30 384 H 36.0603 -1.34928 1.24365 0
M  V30 385 H 34.4423 -3.90707 0.6453 0
M  V30 386 H 35.6163 -3.11769 3.39318 0
M  V30 387 H 33.9313 -2.93174 2.95699 0
M  V30 388 H 36.5283 -5.18119 1.32123 0
M  V30 389 H 36.8713 -4.16263 -0.0554308 0
M  V30 390 H 37.4043 -3.65668 1.56625 0
M  V30 391 H 34.1433 -4.98945 4.25128 0
M  V30 392 H 33.6633 -5.4095 2.591 0
M  V30 393 H 35.3423 -5.66337 3.12845 0
M  V30 394 N 35.4744 -0.807222 -1.35358 0
M  V30 395 C 36.4044 -0.232509 -2.3234 0
M  V30 396 C 37.3854 0.642386 -1.57504 0
M  V30 397 O 38.5704 0.572526 -1.85569 0
M  V30 398 C 35.7004 0.619238 -3.41735 0
M  V30 399 C 34.6544 -0.157215 -4.27711 0
M  V30 400 C 33.9804 0.816273 -5.28433 0
M  V30 401 C 35.2804 -1.35656 -5.04376 0
M  V30 402 H 36.9744 -1.04276 -2.80654 0
M  V30 403 H 34.5204 -0.50288 -1.34934 0
M  V30 404 H 36.4734 1.03137 -4.08584 0
M  V30 405 H 35.1974 1.46239 -2.92031 0
M  V30 406 H 33.8564 -0.550525 -3.62443 0
M  V30 407 H 33.5044 1.65494 -4.74996 0
M  V30 408 H 33.2044 0.301067 -5.86828 0
M  V30 409 H 34.7284 1.22659 -5.98153 0
M  V30 410 H 36.1424 -1.01927 -5.64166 0
M  V30 411 H 34.5394 -1.8063 -5.7227 0
M  V30 412 H 35.6094 -2.14288 -4.34981 0
M  V30 413 N 36.9525 1.47285 -0.560781 0
M  V30 414 C 37.8995 2.30058 0.18491 0
M  V30 415 C 38.8695 1.39281 0.904986 0
M  V30 416 O 40.0545 1.68241 0.899979 0
M  V30 417 C 37.1945 3.23317 1.20666 0
M  V30 418 C 36.3075 4.29186 0.492285 0
M  V30 419 C 35.4425 5.09592 1.49964 0
M  V30 420 C 34.4815 6.07232 0.770439 0
M  V30 421 N 33.6185 6.80584 1.72479 0
M  V30 422 H 38.4585 2.93302 -0.527048 0
M  V30 423 H 35.9955 1.44568 -0.271738 0
M  V30 424 H 37.9535 3.75811 1.81168 0
M  V30 425 H 36.5835 2.61929 1.88661 0
M  V30 426 H 35.6355 3.7972 -0.227333 0
M  V30 427 H 36.9475 4.98738 -0.0787929 0
M  V30 428 H 36.1015 5.66254 2.17809 0
M  V30 429 H 34.8405 4.3995 2.10464 0
M  V30 430 H 33.8455 5.49745 0.0780846 0
M  V30 431 H 35.0705 6.78884 0.171134 0
M  V30 432 H 33.0165 6.1367 2.3183 0
M  V30 433 H 32.9335 7.46319 1.20596 0
M  V30 434 H 34.2015 7.41818 2.39428 0
M  V30 435 N 38.4306 0.297415 1.54768 0
M  V30 436 C 39.6776 -0.312913 2.00068 0
M  V30 437 C 40.0056 -1.54171 1.18582 0
M  V30 438 O 39.2606 -1.94108 0.249133 0
M  V30 439 C 39.5596 -0.717561 3.50123 0
M  V30 440 C 39.2256 0.409095 4.4904 0
M  V30 441 C 37.8876 0.718399 4.75807 0
M  V30 442 C 40.2396 1.16717 5.07963 0
M  V30 443 C 37.5676 1.78896 5.5876 0
M  V30 444 C 39.9196 2.22762 5.92081 0
M  V30 445 C 38.5836 2.54303 6.1716 0
M  V30 446 H 37.8536 -0.114503 0.7321 0
M  V30 447 H 40.5006 0.415767 1.86932 0
M  V30 448 H 38.8056 -1.52627 3.60849 0
M  V30 449 H 40.5026 -1.20091 3.82595 0
M  V30 450 H 37.0926 0.157918 4.28309 0
M  V30 451 H 41.2766 0.941466 4.87289 0
M  V30 452 H 36.5326 2.0381 5.7643 0
M  V30 453 H 40.7066 2.81962 6.36765 0
M  V30 454 H 38.3336 3.3739 6.81229 0
M  V30 455 N 39.9087 -1.5758 0.0250728 0
M  V30 456 C 40.8717 -2.08896 -0.943139 0
M  V30 457 C 41.8717 -1.00321 -1.25668 0
M  V30 458 O 43.0617 -1.26495 -1.19769 0
M  V30 459 C 40.1937 -2.55143 -2.26086 0
M  V30 460 H 41.3867 -2.95723 -0.498775 0
M  V30 461 H 38.9397 -1.54703 -0.222888 0
M  V30 462 H 39.6747 -1.71633 -2.75159 0
M  V30 463 H 39.4597 -3.34461 -2.04641 0
M  V30 464 H 40.9497 -2.95083 -2.95492 0
M  V30 465 N 41.3868 0.248026 -1.55636 0
M  V30 466 C 42.3498 1.29044 -1.89421 0
M  V30 467 C 43.3498 1.41134 -0.770581 0
M  V30 468 O 44.5398 1.39854 -1.03858 0
M  V30 469 C 41.6718 2.66831 -2.12165 0
M  V30 470 H 42.8648 1.00305 -2.82629 0
M  V30 471 H 40.4178 0.487265 -1.48511 0
M  V30 472 H 41.1528 3.00711 -1.21422 0
M  V30 473 H 40.9378 2.59438 -2.93997 0
M  V30 474 H 42.4278 3.42103 -2.3949 0
M  V30 475 N 42.8649 1.48995 0.513639 0
M  V30 476 C 44.1419 1.48338 1.27495 0
M  V30 477 C 44.5219 0.204065 2.10111 0
M  V30 478 O 43.8699 -0.813881 2.13514 0
M  V30 479 C 44.0799 2.75498 2.14247 0
M  V30 480 C 45.4279 3.24484 2.73852 0
M  V30 481 O 46.4519 2.76528 2.24523 0
M  V30 482 O 45.3109 4.07974 3.6362 0
M  V30 483 H 42.4049 0.593149 0.576284 0
M  V30 484 H 44.9509 1.61246 0.528948 0
M  V30 485 H 43.7229 3.60109 1.53092 0
M  V30 486 H 43.3459 2.6539 2.96064 0
M  V30 487 N 44.343 -0.763751 1.37857 0
M  V30 488 C 45.29 -1.87726 1.34267 0
M  V30 489 C 46.26 -1.64807 0.206879 0
M  V30 490 O 47.445 -1.86613 0.397508 0
M  V30 491 C 44.585 -3.24896 1.16346 0
M  V30 492 C 43.698 -3.59716 2.39225 0
M  V30 493 C 42.833 -4.86137 2.14114 0
M  V30 494 C 41.872 -5.13711 3.32817 0
M  V30 495 N 41.009 -6.31323 3.07206 0
M  V30 496 H 45.849 -1.90129 2.29466 0
M  V30 497 H 43.386 -0.929433 1.14017 0
M  V30 498 H 45.344 -4.04036 1.03975 0
M  V30 499 H 43.974 -3.21847 0.247909 0
M  V30 500 H 43.026 -2.75498 2.62307 0
M  V30 501 H 44.338 -3.76027 3.27728 0
M  V30 502 H 43.492 -5.73198 1.9882 0
M  V30 503 H 42.231 -4.71945 1.22961 0
M  V30 504 H 41.236 -4.25123 3.48641 0
M  V30 505 H 42.461 -5.29807 4.24832 0
M  V30 506 H 40.407 -6.18474 2.1869 0
M  V30 507 H 40.324 -6.48087 3.89254 0
M  V30 508 H 41.592 -7.213 2.95546 0
M  V30 509 N 45.8211 -1.22559 -0.990812 0
M  V30 510 C 47.0981 -0.959875 -1.70428 0
M  V30 511 C 47.4781 0.524455 -2.04481 0
M  V30 512 O 46.8261 1.49302 -1.72977 0
M  V30 513 C 47.0361 -1.85955 -2.95333 0
M  V30 514 C 48.3841 -2.11687 -3.68068 0
M  V30 515 O 49.4081 -1.8342 -3.05345 0
M  V30 516 O 48.2671 -2.59572 -4.80921 0
M  V30 517 H 45.3611 -0.361154 -0.743974 0
M  V30 518 H 47.9071 -1.33554 -1.04697 0
M  V30 519 H 46.6791 -2.86346 -2.66687 0
M  V30 520 H 46.3021 -1.4856 -3.68803 0
M  V30 521 N 47.2992 1.18797 -1.03562 0
M  V30 522 C 48.2622 2.20464 -0.626769 0
M  V30 523 C 49.2622 1.57721 0.313173 0
M  V30 524 O 50.4522 1.73917 0.0992615 0
M  V30 525 C 47.5842 3.40802 0.0818498 0
M  V30 526 H 48.7772 2.58149 -1.5264 0
M  V30 527 H 46.3302 1.32593 -0.827578 0
M  V30 528 H 47.0652 3.08642 0.995518 0
M  V30 529 H 46.8502 3.8758 -0.593652 0
M  V30 530 H 48.3402 4.16092 0.354584 0
M  V30 531 N 48.7773 0.814389 1.34928 0
M  V30 532 C 50.0263 0.394871 1.97797 0
M  V30 533 C 50.3393 -1.04555 1.65311 0
M  V30 534 O 51.5453 -1.56856 2.21604 0
M  V30 535 C 50.0013 0.655103 3.53888 0
M  V30 536 C 49.6093 2.10858 3.95276 0
M  V30 537 C 51.3533 0.301329 4.23429 0
M  V30 538 C 49.2603 2.31415 5.44244 0
M  V30 539 H 48.1903 0.143913 0.740139 0
M  V30 540 H 50.8413 0.999544 1.53888 0
M  V30 541 H 49.2233 -0.0196253 3.95995 0
M  V30 542 H 50.3973 2.82176 3.64298 0
M  V30 543 H 48.7123 2.42297 3.38646 0
M  V30 544 H 51.3093 0.432869 5.32945 0
M  V30 545 H 51.6523 -0.75331 4.09428 0
M  V30 546 H 52.1853 0.930288 3.86769 0
M  V30 547 H 48.9243 3.35353 5.63222 0
M  V30 548 H 48.4443 1.6463 5.76764 0
M  V30 549 H 50.1233 2.13352 6.10811 0
M  V30 550 N 50.2554 -1.46986 0.568584 0
M  V30 551 C 51.4804 -2.07335 0.0520528 0
M  V30 552 C 51.9054 -1.41675 -1.23733 0
M  V30 553 O 51.2634 -0.495623 -1.74394 0
M  V30 554 C 51.3114 -3.60417 -0.11501 0
M  V30 555 O 50.4154 -3.95309 -1.17492 0
M  V30 556 H 49.7564 -0.661597 0.0564385 0
M  V30 557 H 52.2864 -1.88837 0.787507 0
M  V30 558 H 52.2964 -4.06698 -0.325644 0
M  V30 559 H 50.9714 -4.07601 0.826675 0
M  V30 560 H 49.5484 -3.60757 -0.943869 0
M  V30 561 N 51.7335 -0.305618 -1.54608 0
M  V30 562 C 52.9805 0.302298 -2.00231 0
M  V30 563 C 53.3085 1.5354 -1.19398 0
M  V30 564 O 52.5635 1.93973 -0.259423 0
M  V30 565 C 52.8625 0.698983 -3.50498 0
M  V30 566 C 52.5285 -0.432903 -4.48817 0
M  V30 567 C 51.1905 -0.743622 -4.75419 0
M  V30 568 C 53.5425 -1.19409 -5.07337 0
M  V30 569 C 50.8705 -1.81857 -5.57804 0
M  V30 570 C 53.2225 -2.25899 -5.90891 0
M  V30 571 C 51.8865 -2.57572 -6.15803 0
M  V30 572 H 51.1565 0.110619 -0.732697 0
M  V30 573 H 53.8035 -0.425674 -1.86709 0
M  V30 574 H 52.1085 1.50711 -3.61654 0
M  V30 575 H 53.8055 1.1806 -3.83227 0
M  V30 576 H 50.3955 -0.18063 -4.28219 0
M  V30 577 H 54.5795 -0.967295 -4.86782 0
M  V30 578 H 49.8355 -2.06864 -5.75341 0
M  V30 579 H 54.0095 -2.85335 -6.35261 0
M  V30 580 H 51.6365 -3.40998 -6.7943 0
M  V30 581 N 53.2116 1.57565 -0.0334293 0
M  V30 582 C 54.4596 1.91598 0.642999 0
M  V30 583 C 54.7806 0.910847 1.7242 0
M  V30 584 O 54.0506 -0.0469931 1.95844 0
M  V30 585 H 52.6306 0.707228 0.240496 0
M  V30 586 H 55.2926 1.94726 -0.0822488 0
M  V30 587 H 54.3886 2.92336 1.09298 0
M  V30 588 N 54.6897 -0.239769 1.55765 0
M  V30 589 C 55.9377 -0.964892 1.77579 0
M  V30 590 C 56.2587 -1.85582 0.598699 0
M  V30 591 O 55.5287 -1.92075 -0.385226 0
M  V30 592 H 54.1087 -0.359265 0.654933 0
M  V30 593 H 56.7707 -0.256001 1.93211 0
M  V30 594 H 55.8667 -1.58243 2.69009 0
M  V30 595 N 56.1678 -1.49265 -0.50573 0
M  V30 596 C 57.4158 -1.582 -1.25766 0
M  V30 597 C 57.7368 -0.268482 -1.93143 0
M  V30 598 O 57.0068 0.711833 -1.8251 0
M  V30 599 H 55.5868 -0.582873 -0.467191 0
M  V30 600 H 58.2488 -1.85865 -0.586525 0
M  V30 601 H 57.3448 -2.37563 -2.02412 0
M  V30 602 N 57.6459 0.756429 -1.3826 0
M  V30 603 C 58.8919 1.51772 -1.34511 0
M  V30 604 C 59.2249 1.94089 0.0656691 0
M  V30 605 O 58.4999 1.65221 1.02626 0
M  V30 606 C 58.7829 2.77226 -2.29821 0
M  V30 607 C 58.6359 2.41065 -3.79747 0
M  V30 608 C 59.9549 3.79236 -2.23312 0
M  V30 609 H 57.0739 0.550578 -0.489931 0
M  V30 610 H 59.7159 0.866607 -1.69086 0
M  V30 611 H 57.8659 3.32784 -2.00467 0
M  V30 612 H 59.5379 1.91303 -4.19763 0
M  V30 613 H 57.7809 1.7356 -3.97567 0
M  V30 614 H 58.4519 3.3081 -4.41892 0
M  V30 615 H 60.9279 3.3321 -2.49219 0
M  V30 616 H 59.8039 4.64714 -2.92116 0
M  V30 617 H 60.0649 4.24615 -1.23102 0
M  V30 618 N 59.124 1.23083 0.984299 0
M  V30 619 C 60.535 1.05609 1.5396 0
M  V30 620 C 60.886 -0.377793 1.92528 0
M  V30 621 O 60.011 -1.26398 1.75649 0
M  V30 622 C 60.606 1.91087 2.7977 0
M  V30 623 C 59.165 1.77885 3.31713 0
M  V30 624 C 58.312 1.87028 2.04733 0
M  V30 625 H 61.263 1.36802 0.804419 0
M  V30 626 H 61.284 1.43336 3.5247 0
M  V30 627 H 60.796 2.9544 2.51668 0
M  V30 628 H 58.897 0.762995 3.64704 0
M  V30 629 H 59.01 2.61047 4.01735 0
M  V30 630 H 57.374 1.30565 2.18689 0
M  V30 631 H 58.157 2.92929 1.79017 0
M  V30 632 N 60.6021 -1.18246 1.0419 0
M  V30 633 C 61.8791 -1.84121 0.660208 0
M  V30 634 C 62.2591 -1.92778 -0.860221 0
M  V30 635 O 61.6071 -1.45464 -1.76217 0
M  V30 636 C 61.8171 -3.22355 1.33747 0
M  V30 637 C 63.1651 -3.98376 1.46906 0
M  V30 638 O 64.1891 -3.31799 1.29568 0
M  V30 639 O 63.0481 -5.17665 1.75171 0
M  V30 640 H 60.1421 -0.794036 0.231161 0
M  V30 641 H 62.6881 -1.25628 1.14087 0
M  V30 642 H 61.4601 -3.10964 2.37522 0
M  V30 643 H 61.0831 -3.88506 0.845515 0
M  V30 644 N 62.0802 -0.821533 -1.34494 0
M  V30 645 C 63.4912 -0.467956 -1.8074 0
M  V30 646 C 63.8422 1.01151 -1.68116 0
M  V30 647 O 62.9672 1.78707 -1.22036 0
M  V30 648 C 63.5622 -0.842627 -3.28154 0
M  V30 649 C 62.1212 -0.541439 -3.72485 0
M  V30 650 C 61.2682 -1.06028 -2.56229 0
M  V30 651 H 64.2192 -1.01183 -1.22261 0
M  V30 652 H 64.2402 -0.145876 -3.8022 0
M  V30 653 H 63.7522 -1.91945 -3.37311 0
M  V30 654 H 61.8532 0.526034 -3.68868 0
M  V30 655 H 61.9662 -1.08453 -4.66663 0
M  V30 656 H 60.3302 -0.481892 -2.501 0
M  V30 657 H 61.1132 -2.14352 -2.68157 0
M  V30 658 N 63.5583 1.46682 -0.576371 0
M  V30 659 C 64.4683 2.34032 0.163141 0
M  V30 660 C 65.4843 1.49367 0.892501 0
M  V30 661 O 66.6603 1.82252 0.857106 0
M  V30 662 C 63.7253 3.26435 1.16795 0
M  V30 663 C 62.7863 4.26998 0.443944 0
M  V30 664 C 62.0193 5.14986 1.40088 0
M  V30 665 O 62.2423 5.05785 2.637 0
M  V30 666 O 61.1763 5.94906 0.914917 0
M  V30 667 H 65.0023 2.98607 -0.55388 0
M  V30 668 H 62.5873 1.45554 -0.336821 0
M  V30 669 H 64.4693 3.83459 1.74748 0
M  V30 670 H 63.1443 2.64465 1.86655 0
M  V30 671 H 62.0513 3.7368 -0.177271 0
M  V30 672 H 63.3843 4.91736 -0.213566 0
M  V30 673 N 65.0364 0.313813 1.54444 0
M  V30 674 C 66.2644 -0.293918 2.04802 0
M  V30 675 C 66.6794 -1.46537 1.19047 0
M  V30 676 O 66.0364 -1.81182 0.218939 0
M  V30 677 C 66.0874 -0.737806 3.53891 0
M  V30 678 O 65.8084 0.387038 4.36387 0
M  V30 679 C 67.3094 -1.40936 4.203 0
M  V30 680 H 64.5294 -0.0620057 0.668129 0
M  V30 681 H 67.0734 0.457169 1.99324 0
M  V30 682 H 65.2284 -1.43889 3.59687 0
M  V30 683 H 65.6424 0.0391274 5.24485 0
M  V30 684 H 67.1164 -1.67099 5.26101 0
M  V30 685 H 67.5934 -2.35355 3.70816 0
M  V30 686 H 68.1994 -0.751117 4.18615 0
M  V30 687 N 66.5145 -1.57545 0.0417849 0
M  V30 688 C 67.7615 -1.92317 -0.634082 0
M  V30 689 C 68.0895 -0.919334 -1.71402 0
M  V30 690 O 67.3445 0.0698253 -1.95575 0
M  V30 691 C 67.6435 -3.33794 -1.27735 0
M  V30 692 C 67.3095 -4.49716 -0.326543 0
M  V30 693 C 65.9715 -4.81156 -0.0648814 0
M  V30 694 C 68.3235 -5.20182 0.325623 0
M  V30 695 C 65.6515 -5.80414 0.856539 0
M  V30 696 C 68.0035 -6.20424 1.23518 0
M  V30 697 C 66.6675 -6.50298 1.5056 0
M  V30 698 H 65.9375 -0.703736 -0.232027 0
M  V30 699 H 68.5845 -1.91205 0.106259 0
M  V30 700 H 66.8895 -3.31228 -2.09274 0
M  V30 701 H 68.5865 -3.57975 -1.80707 0
M  V30 702 H 65.1765 -4.25176 -0.540665 0
M  V30 703 H 69.3605 -4.96112 0.136546 0
M  V30 704 H 64.6165 -6.019 1.07363 0
M  V30 705 H 68.7905 -6.74141 1.74664 0
M  V30 706 H 66.4175 -7.27025 2.22123 0
M  V30 707 N 67.9926 0.231505 -1.5589 0
M  V30 708 C 69.4036 0.799327 -1.68724 0
M  V30 709 C 69.7546 1.85398 -0.642022 0
M  V30 710 O 68.8796 2.1539 0.208784 0
M  V30 711 C 69.4746 1.45664 -3.05888 0
M  V30 712 C 68.0336 1.97197 -3.20609 0
M  V30 713 C 67.1806 0.828552 -2.64632 0
M  V30 714 H 70.1316 0.00702616 -1.58698 0
M  V30 715 H 70.1526 2.32517 -3.01191 0
M  V30 716 H 69.6646 0.688808 -3.81939 0
M  V30 717 H 67.7656 2.76813 -2.4941 0
M  V30 718 H 67.8786 2.15878 -4.27707 0
M  V30 719 H 66.2426 1.23321 -2.22854 0
M  V30 720 H 67.0256 0.0735544 -3.43221 0
M  V30 721 N 69.4707 1.49531 0.497807 0
M  V30 722 C 70.8867 1.36365 0.829266 0
M  V30 723 C 71.0867 0.399184 1.97506 0
M  V30 724 O 70.1427 -0.167977 2.51941 0
M  V30 725 C 71.4557 2.77153 1.16647 0
M  V30 726 C 73.0037 2.85877 1.27449 0
M  V30 727 C 73.4787 4.2744 1.64497 0
M  V30 728 N 74.9697 4.30265 1.7154 0
M  V30 729 C 75.7047 5.3677 2.01656 0
M  V30 730 N 75.2007 6.53516 2.29976 0
M  V30 731 N 76.9937 5.24189 2.02934 0
M  V30 732 H 69.1447 2.10831 -0.257703 0
M  V30 733 H 71.4077 0.946534 -0.0527091 0
M  V30 734 H 71.1137 3.49442 0.397872 0
M  V30 735 H 70.9877 3.12722 2.10915 0
M  V30 736 H 73.3747 2.13824 2.0338 0
M  V30 737 H 73.4557 2.53887 0.312244 0
M  V30 738 H 73.0997 5.00021 0.891151 0
M  V30 739 H 73.0297 4.56896 2.61827 0
M  V30 740 H 75.5207 3.4607 1.51802 0
M  V30 741 H 75.8337 7.30506 2.52153 0
M  V30 742 H 74.1787 6.56737 2.27425 0
M  V30 743 H 77.3697 4.31988 1.80289 0
M  V30 744 H 77.5427 6.07286 2.26071 0
M  V30 745 N 70.9488 -0.749086 1.3866 0
M  V30 746 C 71.8958 -1.86291 1.36251 0
M  V30 747 C 72.8658 -1.64578 0.224347 0
M  V30 748 O 74.0508 -1.86181 0.417279 0
M  V30 749 C 71.1908 -3.23644 1.19786 0
M  V30 750 C 70.3038 -3.57158 2.43027 0
M  V30 751 C 69.4388 -4.83838 2.19258 0
M  V30 752 C 68.4778 -5.10152 3.38247 0
M  V30 753 N 67.6148 -6.28029 3.13884 0
M  V30 754 H 72.4548 -1.87685 2.3147 0
M  V30 755 H 69.9918 -0.917287 1.14997 0
M  V30 756 H 71.9498 -4.0291 1.08254 0
M  V30 757 H 70.5798 -3.21566 0.282031 0
M  V30 758 H 69.6318 -2.72701 2.65214 0
M  V30 759 H 70.9438 -3.7253 3.31697 0
M  V30 760 H 70.0978 -5.71057 2.04888 0
M  V30 761 H 68.8368 -4.70614 1.2796 0
M  V30 762 H 67.8418 -4.21401 3.53131 0
M  V30 763 H 69.0668 -5.25271 4.30427 0
M  V30 764 H 67.0128 -6.1612 2.25238 0
M  V30 765 H 66.9298 -6.43922 3.96106 0
M  V30 766 H 68.1978 -7.18124 3.03179 0
M  V30 767 N 72.4269 -1.23603 -0.977757 0
M  V30 768 C 73.3369 -1.03632 -2.1047 0
M  V30 769 C 74.3529 0.0199435 -1.73989 0
M  V30 770 O 75.5289 -0.176076 -2.00629 0
M  V30 771 C 72.5939 -0.63276 -3.40877 0
M  V30 772 C 71.6549 -1.76437 -3.91367 0
M  V30 773 C 70.8879 -1.37997 -5.15551 0
M  V30 774 O 71.1109 -0.265357 -5.69782 0
M  V30 775 O 70.0449 -2.20201 -5.60174 0
M  V30 776 H 73.8709 -1.98086 -2.30208 0
M  V30 777 H 71.4559 -1.02332 -1.08851 0
M  V30 778 H 73.3379 -0.418761 -4.19314 0
M  V30 779 H 72.0129 0.282754 -3.22463 0
M  V30 780 H 70.9199 -2.03304 -3.14036 0
M  V30 781 H 72.2529 -2.6583 -4.14241 0
M  V30 782 N 73.905 1.17692 -1.04816 0
M  V30 783 C 74.835 2.23777 -0.666791 0
M  V30 784 C 75.816 1.66796 0.33361 0
M  V30 785 O 77.001 1.93039 0.212042 0
M  V30 786 C 74.131 3.47281 -0.0367933 0
M  V30 787 C 73.085 4.17059 -0.961546 0
M  V30 788 C 72.411 5.34342 -0.195626 0
M  V30 789 C 73.711 4.69713 -2.28402 0
M  V30 790 H 75.405 2.55933 -1.55367 0
M  V30 791 H 72.951 1.23019 -0.748484 0
M  V30 792 H 74.904 4.20706 0.241775 0
M  V30 793 H 73.628 3.14381 0.885004 0
M  V30 794 H 72.287 3.45541 -1.22462 0
M  V30 795 H 71.935 4.97692 0.728816 0
M  V30 796 H 71.635 5.81966 -0.811775 0
M  V30 797 H 73.159 6.10553 0.0757473 0
M  V30 798 H 74.573 5.34794 -2.06563 0
M  V30 799 H 72.97 5.279 -2.8538 0
M  V30 800 H 74.04 3.86726 -2.92525 0
M  V30 801 N 75.3831 0.828654 1.34056 0
M  V30 802 C 76.3461 0.259927 2.27721 0
M  V30 803 C 77.3461 -0.565478 1.50529 0
M  V30 804 O 78.5361 -0.38075 1.69988 0
M  V30 805 C 75.6681 -0.634944 3.34935 0
M  V30 806 H 76.8611 1.0863 2.79534 0
M  V30 807 H 74.4141 0.600951 1.44285 0
M  V30 808 H 75.1491 -1.48416 2.88346 0
M  V30 809 H 74.9341 -0.0444999 3.92075 0
M  V30 810 H 76.4241 -1.02648 4.04788 0
M  V30 811 N 76.8612 -1.46375 0.584142 0
M  V30 812 C 77.7712 -2.34115 -0.150728 0
M  V30 813 C 78.7872 -1.49838 -0.884567 0
M  V30 814 O 79.9632 -1.82704 -0.847429 0
M  V30 815 C 77.0282 -3.2705 -1.15062 0
M  V30 816 C 76.0892 -4.27228 -0.421293 0
M  V30 817 C 75.3222 -5.15722 -1.37355 0
M  V30 818 O 75.5452 -5.07176 -2.61014 0
M  V30 819 O 74.4792 -5.95383 -0.883355 0
M  V30 820 H 78.3052 -2.98309 0.569708 0
M  V30 821 H 75.8902 -1.45373 0.344535 0
M  V30 822 H 77.7722 -3.84381 -1.72712 0
M  V30 823 H 76.4472 -2.65451 -1.8525 0
M  V30 824 H 75.3542 -3.7358 0.197085 0
M  V30 825 H 76.6872 -4.91616 0.239641 0
M  V30 826 N 78.3393 -0.321999 -1.54275 0
M  V30 827 C 79.5883 0.281931 -1.9972 0
M  V30 828 C 79.9013 1.53369 -1.21397 0
M  V30 829 O 81.1073 2.21352 -1.57211 0
M  V30 830 C 79.5633 0.5529 -3.55628 0
M  V30 831 C 79.1713 -0.681721 -4.42783 0
M  V30 832 C 80.9153 1.11687 -4.09544 0
M  V30 833 C 78.8223 -0.382742 -5.9016 0
M  V30 834 H 77.7523 0.109124 -0.746062 0
M  V30 835 H 80.4033 -0.43398 -1.78294 0
M  V30 836 H 78.7853 1.32896 -3.73035 0
M  V30 837 H 79.9593 -1.45723 -4.37151 0
M  V30 838 H 78.2743 -1.1658 -3.99748 0
M  V30 839 H 80.8713 1.35515 -5.17242 0
M  V30 840 H 81.2143 2.06575 -3.61431 0
M  V30 841 H 81.7473 0.402032 -3.95763 0
M  V30 842 H 78.4863 -1.30076 -6.42464 0
M  V30 843 H 78.0063 0.355094 -5.98748 0
M  V30 844 H 79.6853 0.00800157 -6.47 0
M  V30 845 N 79.8174 1.5752 -0.0501392 0
M  V30 846 C 80.7804 2.1037 0.909786 0
M  V30 847 C 81.7804 1.02308 1.24056 0
M  V30 848 O 82.9704 1.28385 1.17741 0
M  V30 849 C 80.1024 2.58708 2.21998 0
M  V30 850 H 81.2954 2.96479 0.451665 0
M  V30 851 H 78.8484 1.55038 0.198248 0
M  V30 852 H 79.5834 1.75989 2.72394 0
M  V30 853 H 79.3684 3.37675 1.99295 0
M  V30 854 H 80.8584 2.99747 2.9076 0
M  V30 855 N 81.2955 -0.223234 1.56011 0
M  V30 856 C 82.2425 -1.27664 1.92277 0
M  V30 857 C 83.2125 -1.46659 0.779763 0
M  V30 858 O 84.3975 -1.60256 1.03551 0
M  V30 859 C 81.5375 -2.62234 2.24338 0
M  V30 860 C 80.6505 -2.51051 3.51564 0
M  V30 861 C 79.7855 -3.78133 3.7308 0
M  V30 862 C 78.8245 -3.61665 4.93827 0
M  V30 863 N 77.9615 -4.80693 5.11741 0
M  V30 864 H 82.8015 -0.960358 2.82101 0
M  V30 865 H 80.3385 -0.462901 1.39627 0
M  V30 866 H 82.2965 -3.40596 2.40936 0
M  V30 867 H 80.9265 -2.91961 1.3769 0
M  V30 868 H 79.9785 -1.64132 3.43169 0
M  V30 869 H 81.2905 -2.34803 4.40079 0
M  V30 870 H 80.4445 -4.64938 3.89766 0
M  V30 871 H 79.1835 -3.97304 2.82844 0
M  V30 872 H 78.1885 -2.73244 4.77093 0
M  V30 873 H 79.4135 -3.43966 5.85546 0
M  V30 874 H 77.3595 -5.00181 4.24446 0
M  V30 875 H 77.2765 -4.67165 5.94384 0
M  V30 876 H 78.5445 -5.6893 5.3286 0
M  V30 877 N 82.7736 -1.49793 -0.48987 0
M  V30 878 C 83.6836 -1.70036 -1.61632 0
M  V30 879 C 84.6996 -0.583102 -1.63939 0
M  V30 880 O 85.8756 -0.859169 -1.82154 0
M  V30 881 C 82.9406 -1.77277 -2.97949 0
M  V30 882 C 82.0016 -3.00918 -3.06181 0
M  V30 883 C 81.2346 -3.07804 -4.35996 0
M  V30 884 O 81.4576 -2.21982 -5.25433 0
M  V30 885 O 80.3916 -4.00369 -4.49431 0
M  V30 886 H 84.2176 -2.65486 -1.47482 0
M  V30 887 H 81.8026 -1.33666 -0.667362 0
M  V30 888 H 83.6846 -1.84329 -3.78947 0
M  V30 889 H 82.3596 -0.850076 -3.12339 0
M  V30 890 H 81.2666 -2.99377 -2.2433 0
M  V30 891 H 82.5996 -3.92704 -2.96723 0
M  V30 892 N 84.2517 0.741722 -1.39055 0
M  V30 893 C 85.5007 1.49656 -1.35225 0
M  V30 894 C 85.8137 1.95533 0.0512708 0
M  V30 895 O 87.0197 2.7067 0.212138 0
M  V30 896 C 85.4757 2.70389 -2.37525 0
M  V30 897 C 85.0837 2.31489 -3.83558 0
M  V30 898 C 86.8277 3.48236 -2.42759 0
M  V30 899 C 84.7347 3.48903 -4.77515 0
M  V30 900 H 83.6647 0.56197 -0.502699 0
M  V30 901 H 86.3157 0.809727 -1.64668 0
M  V30 902 H 84.6977 3.41113 -2.01142 0
M  V30 903 H 85.8717 1.68354 -4.28945 0
M  V30 904 H 84.1867 1.66749 -3.81554 0
M  V30 905 H 86.7837 4.35558 -3.1015 0
M  V30 906 H 87.1267 3.90229 -1.45008 0
M  V30 907 H 87.6597 2.84535 -2.78002 0
M  V30 908 H 84.3987 3.11966 -5.76504 0
M  V30 909 H 83.9187 4.11041 -4.36813 0
M  V30 910 H 85.5977 4.15328 -4.96096 0
M  V30 911 N 85.7298 1.2412 0.971189 0
M  V30 912 C 86.9788 1.07284 1.70801 0
M  V30 913 C 87.2918 -0.388902 1.91695 0
M  V30 914 O 88.4978 -0.677379 2.62914 0
M  V30 915 C 86.9538 1.87145 3.07416 0
M  V30 916 C 86.5618 3.37707 2.94377 0
M  V30 917 C 88.3058 1.78828 3.84995 0
M  V30 918 C 86.2128 4.09925 4.26281 0
M  V30 919 H 85.1428 0.397854 0.64049 0
M  V30 920 H 87.7938 1.4817 1.0825 0
M  V30 921 H 86.1758 1.39071 3.70777 0
M  V30 922 H 87.3498 3.93335 2.4005 0
M  V30 923 H 85.6648 3.46938 2.30267 0
M  V30 924 H 88.2618 2.30089 4.82662 0
M  V30 925 H 88.6048 0.75284 4.09436 0
M  V30 926 H 89.1378 2.24563 3.28354 0
M  V30 927 H 85.8768 5.13813 4.07033 0
M  V30 928 H 85.3968 3.59083 4.80437 0
M  V30 929 H 87.0758 4.1673 4.94919 0
M  V30 930 N 87.2079 -1.17134 1.05439 0
M  V30 931 C 88.1179 -2.24878 0.668365 0
M  V30 932 C 89.1339 -1.71186 -0.311687 0
M  V30 933 O 90.3099 -2.00738 -0.163161 0
M  V30 934 C 87.3749 -3.46662 0.051648 0
M  V30 935 C 86.4359 -4.15429 1.08246 0
M  V30 936 C 85.6689 -5.31399 0.495082 0
M  V30 937 O 85.8919 -5.66153 -0.694743 0
M  V30 938 O 84.8259 -5.89187 1.23056 0
M  V30 939 H 88.6519 -2.60189 1.56637 0
M  V30 940 H 86.2369 -1.24482 0.826104 0
M  V30 941 H 88.1189 -4.20394 -0.290966 0
M  V30 942 H 86.7939 -3.13142 -0.819971 0
M  V30 943 H 85.7009 -3.43704 1.47711 0
M  V30 944 H 87.0339 -4.52982 1.92532 0
M  V30 945 N 88.686 -0.835752 -1.33615 0
M  V30 946 C 89.633 -0.26473 -2.29277 0
M  V30 947 C 90.603 0.617712 -1.54187 0
M  V30 948 O 91.788 0.556641 -1.825 0
M  V30 949 C 88.928 0.556777 -3.40579 0
M  V30 950 C 88.041 -0.349339 -4.30585 0
M  V30 951 C 87.176 0.482969 -5.29 0
M  V30 952 C 86.215 -0.421732 -6.10645 0
M  V30 953 N 85.352 0.372262 -7.01112 0
M  V30 954 H 90.192 -1.08582 -2.77514 0
M  V30 955 H 87.729 -0.546927 -1.36554 0
M  V30 956 H 89.687 1.04852 -4.03809 0
M  V30 957 H 88.317 1.34286 -2.93542 0
M  V30 958 H 87.369 -0.959372 -3.68104 0
M  V30 959 H 88.681 -1.04445 -4.87742 0
M  V30 960 H 87.835 1.03866 -5.97743 0
M  V30 961 H 86.574 1.21153 -4.72412 0
M  V30 962 H 85.579 -0.989464 -5.40823 0
M  V30 963 H 86.804 -1.14861 -6.69316 0
M  V30 964 H 84.75 1.08426 -6.46977 0
M  V30 965 H 84.667 -0.264198 -7.55538 0
M  V30 966 H 85.935 0.910293 -7.74167 0
M  V30 967 N 90.1641 1.46063 -0.591896 0
M  V30 968 C 91.0741 2.34192 0.13831 0
M  V30 969 C 92.0901 1.50305 0.876608 0
M  V30 970 O 93.2661 1.8315 0.837728 0
M  V30 971 C 90.3311 3.27656 1.13326 0
M  V30 972 C 89.3921 4.27445 0.39863 0
M  V30 973 C 88.6251 5.16443 1.34618 0
M  V30 974 O 88.8481 5.08553 2.58321 0
M  V30 975 O 87.7821 5.95843 0.851768 0
M  V30 976 H 91.6081 2.98002 -0.58552 0
M  V30 977 H 89.1931 1.45188 -0.352239 0
M  V30 978 H 91.0751 3.85291 1.70671 0
M  V30 979 H 89.7501 2.6643 1.83839 0
M  V30 980 H 88.6571 3.73471 -0.216895 0
M  V30 981 H 89.9901 4.91482 -0.265709 0
M  V30 982 N 91.6422 0.330177 1.54103 0
M  V30 983 C 92.8722 -0.271784 2.04805 0
M  V30 984 C 93.2802 -1.45816 1.20559 0
M  V30 985 O 92.6232 -1.82247 0.2306 0
M  V30 986 C 92.6852 -0.763238 3.51305 0
M  V30 987 C 92.3492 0.301705 4.56003 0
M  V30 988 C 93.3462 1.13999 5.07248 0
M  V30 989 C 91.0312 0.451793 5.00264 0
M  V30 990 C 93.0252 2.11402 6.01322 0
M  V30 991 C 90.7122 1.42924 5.94151 0
M  V30 992 C 91.7102 2.25882 6.44567 0
M  V30 993 O 91.3982 3.21965 7.3661 0
M  V30 994 H 91.1302 -0.058693 0.673447 0
M  V30 995 H 93.6842 0.476395 1.99799 0
M  V30 996 H 91.9142 -1.56244 3.5373 0
M  V30 997 H 93.6032 -1.28427 3.85047 0
M  V30 998 H 94.3692 1.03505 4.73827 0
M  V30 999 H 90.2482 -0.184044 4.60632 0
M  V30 1000 H 93.7922 2.76192 6.40596 0
M  V30 1001 H 89.6892 1.53479 6.26988 0
M  V30 1002 H 90.4572 3.17281 7.54503 0
M  V30 1003 N 93.1203 -1.57491 0.0584922 0
M  V30 1004 C 94.0703 -2.08474 -0.923188 0
M  V30 1005 C 95.0543 -0.991479 -1.26722 0
M  V30 1006 O 96.2463 -1.25473 -1.24842 0
M  V30 1007 C 93.3753 -2.6392 -2.19548 0
M  V30 1008 C 92.4613 -3.80227 -1.87852 0
M  V30 1009 N 92.8523 -4.89714 -1.26546 0
M  V30 1010 C 91.1503 -3.89271 -2.17679 0
M  V30 1011 C 91.8513 -5.70689 -1.12644 0
M  V30 1012 N 90.8273 -5.18531 -1.63176 0
M  V30 1013 H 94.6293 -2.90517 -0.444653 0
M  V30 1014 H 92.1433 -1.61745 -0.145764 0
M  V30 1015 H 94.1403 -2.98752 -2.9078 0
M  V30 1016 H 92.8003 -1.83318 -2.68001 0
M  V30 1017 H 93.8113 -5.09358 -0.936757 0
M  V30 1018 H 90.4883 -3.19623 -2.68602 0
M  V30 1019 H 91.8783 -6.6875 -0.6499 0
M  V30 1020 N 94.5984 0.214957 -1.56127 0
M  V30 1021 C 95.8284 0.953707 -1.8327 0
M  V30 1022 C 96.2364 1.78181 -0.636262 0
M  V30 1023 O 95.5794 1.79191 0.404516 0
M  V30 1024 C 95.6414 1.91516 -3.0424 0
M  V30 1025 C 95.3054 1.27094 -4.38972 0
M  V30 1026 C 96.3024 0.657575 -5.15725 0
M  V30 1027 C 93.9874 1.28073 -4.85698 0
M  V30 1028 C 95.9814 0.0625968 -6.37369 0
M  V30 1029 C 93.6684 0.681914 -6.07283 0
M  V30 1030 C 94.6664 0.0739046 -6.8296 0
M  V30 1031 O 94.3544 -0.515582 -8.02245 0
M  V30 1032 H 94.0864 0.284764 -0.613095 0
M  V30 1033 H 96.6404 0.233283 -2.04071 0
M  V30 1034 H 94.8704 2.67475 -2.79274 0
M  V30 1035 H 96.5594 2.52001 -3.18198 0
M  V30 1036 H 97.3254 0.642288 -4.80728 0
M  V30 1037 H 93.2044 1.74337 -4.26764 0
M  V30 1038 H 96.7484 -0.412593 -6.96379 0
M  V30 1039 H 92.6454 0.694636 -6.41752 0
M  V30 1040 H 93.4134 -0.410544 -8.1747 0
M  V30 1041 N 96.0765 1.50051 0.48192 0
M  V30 1042 C 97.3045 1.64237 1.25832 0
M  V30 1043 C 97.7195 0.321336 1.86045 0
M  V30 1044 O 97.0765 -0.695478 1.68729 0
M  V30 1045 C 97.1275 2.72548 2.37487 0
M  V30 1046 O 96.8485 3.99529 1.79745 0
M  V30 1047 C 98.3495 2.9761 3.28547 0
M  V30 1048 H 95.5695 0.55237 0.380957 0
M  V30 1049 H 98.1135 1.96207 0.576467 0
M  V30 1050 H 96.2685 2.43303 3.01467 0
M  V30 1051 H 96.6825 4.59342 2.5319 0
M  V30 1052 H 98.1565 3.77084 4.03127 0
M  V30 1053 H 98.6335 2.0826 3.86684 0
M  V30 1054 H 99.2395 3.28345 2.70314 0
M  V30 1055 N 97.5546 -0.734337 1.39446 0
M  V30 1056 C 98.4846 -1.86155 1.40955 0
M  V30 1057 C 99.4656 -1.67898 0.272827 0
M  V30 1058 O 100.651 -1.88207 0.478743 0
M  V30 1059 C 97.7806 -3.23912 1.25294 0
M  V30 1060 C 96.7346 -3.56808 2.36373 0
M  V30 1061 C 96.0606 -4.93508 2.058 0
M  V30 1062 C 97.3606 -3.59713 3.78687 0
M  V30 1063 H 99.0546 -1.8515 2.35287 0
M  V30 1064 H 96.6006 -0.889367 1.13253 0
M  V30 1065 H 98.5536 -4.02443 1.2497 0
M  V30 1066 H 97.2776 -3.25446 0.274308 0
M  V30 1067 H 95.9366 -2.80606 2.35914 0
M  V30 1068 H 95.5846 -4.91623 1.06374 0
M  V30 1069 H 95.2846 -5.16486 2.80208 0
M  V30 1070 H 96.8086 -5.74396 2.07128 0
M  V30 1071 H 98.2226 -4.2832 3.81071 0
M  V30 1072 H 96.6196 -3.94209 4.52459 0
M  V30 1073 H 97.6896 -2.59504 4.09617 0
M  V30 1074 N 99.0327 -1.24633 -0.964593 0
M  V30 1075 C 99.9647 -0.999302 -2.06268 0
M  V30 1076 C 100.978 0.0323226 -1.62768 0
M  V30 1077 O 102.167 -0.205079 -1.77318 0
M  V30 1078 C 99.2667 -0.486816 -3.35385 0
M  V30 1079 C 98.4397 -1.5823 -4.07777 0
M  V30 1080 C 97.4987 -1.07191 -5.15166 0
M  V30 1081 O 96.5247 -1.76426 -5.41168 0
M  V30 1082 N 97.7267 0.0920373 -5.80427 0
M  V30 1083 H 100.492 -1.94477 -2.28033 0
M  V30 1084 H 98.0527 -1.15704 -1.13244 0
M  V30 1085 H 100.045 -0.130066 -4.04491 0
M  V30 1086 H 98.6147 0.364459 -3.10468 0
M  V30 1087 H 97.8347 -2.11109 -3.32906 0
M  V30 1088 H 99.1227 -2.31854 -4.52903 0
M  V30 1089 H 98.5207 0.670784 -5.61709 0
M  V30 1090 H 97.0777 0.389905 -6.50633 0
M  V30 1091 N 100.511 1.16574 -1.06058 0
M  V30 1092 C 101.741 1.90675 -0.795397 0
M  V30 1093 C 102.149 1.77547 0.653735 0
M  V30 1094 O 101.492 1.11611 1.45907 0
M  V30 1095 C 101.554 3.42011 -1.10764 0
M  V30 1096 C 101.218 3.78924 -2.55471 0
M  V30 1097 C 102.215 3.81042 -3.53699 0
M  V30 1098 C 99.8998 4.09626 -2.90708 0
M  V30 1099 C 101.894 4.13346 -4.85205 0
M  V30 1100 C 99.5808 4.41597 -4.22416 0
M  V30 1101 C 100.579 4.43436 -5.19474 0
M  V30 1102 O 100.267 4.74649 -6.48817 0
M  V30 1103 H 99.9988 0.611554 -0.288058 0
M  V30 1104 H 102.553 1.48711 -1.41683 0
M  V30 1105 H 100.783 3.84312 -0.429128 0
M  V30 1106 H 102.472 3.97384 -0.827077 0
M  V30 1107 H 103.238 3.57437 -3.27817 0
M  V30 1108 H 99.1168 4.07361 -2.15819 0
M  V30 1109 H 102.661 4.14696 -5.60957 0
M  V30 1110 H 98.5578 4.64667 -4.48056 0
M  V30 1111 H 99.3258 4.9247 -6.5377 0
M  V30 1112 N 101.989 0.842826 1.3317 0
M  V30 1113 C 103.214 0.453129 2.02389 0
M  V30 1114 C 103.639 -0.939105 1.6298 0
M  V30 1115 O 102.997 -1.61472 0.8244 0
M  V30 1116 C 103.045 0.586094 3.55805 0
M  V30 1117 O 102.149 -0.386029 4.10589 0
M  V30 1118 H 101.49 0.183664 0.638094 0
M  V30 1119 H 104.02 1.13875 1.69981 0
M  V30 1120 H 104.03 0.469209 4.05293 0
M  V30 1121 H 102.705 1.6014 3.83833 0
M  V30 1122 H 101.282 -0.226371 3.72212 0
M  V30 1123 N 103.467 -1.45747 0.599634 0
M  V30 1124 C 104.695 -2.06668 0.0978551 0
M  V30 1125 C 105.11 -1.44562 -1.21439 0
M  V30 1126 O 104.467 -0.556923 -1.73795 0
M  V30 1127 C 104.518 -3.61456 -0.0567044 0
M  V30 1128 O 104.239 -4.21242 1.20361 0
M  V30 1129 C 105.74 -4.39345 -0.590869 0
M  V30 1130 H 102.96 -0.667825 0.0651943 0
M  V30 1131 H 105.504 -1.87115 0.82511 0
M  V30 1132 H 103.659 -3.80378 -0.734251 0
M  V30 1133 H 104.073 -5.14323 1.02821 0
M  V30 1134 H 105.547 -5.48182 -0.648131 0
M  V30 1135 H 106.024 -4.08568 -1.61147 0
M  V30 1136 H 106.63 -4.25268 0.0523679 0
M  V30 1137 N 104.945 -0.338344 -1.53925 0
M  V30 1138 C 106.173 0.261298 -2.05243 0
M  V30 1139 C 106.588 1.44625 -1.21363 0
M  V30 1140 O 105.945 1.80811 -0.247736 0
M  V30 1141 C 105.996 0.681412 -3.5502 0
M  V30 1142 O 105.717 -0.456414 -4.35716 0
M  V30 1143 C 107.218 1.34232 -4.22489 0
M  V30 1144 H 104.438 0.0513685 -0.669031 0
M  V30 1145 H 106.982 -0.488822 -1.98572 0
M  V30 1146 H 105.137 1.38148 -3.61931 0
M  V30 1147 H 105.551 -0.122564 -5.24357 0
M  V30 1148 H 107.025 1.58708 -5.28693 0
M  V30 1149 H 107.502 2.29426 -3.74514 0
M  V30 1150 H 108.108 0.684424 -4.19757 0
M  V30 1151 N 106.423 1.57458 -0.0668435 0
M  V30 1152 C 107.333 2.15937 0.916975 0
M  V30 1153 C 108.349 1.12123 1.33058 0
M  V30 1154 O 109.525 1.44366 1.40429 0
M  V30 1155 C 106.59 2.70547 2.16807 0
M  V30 1156 C 105.651 3.89215 1.81135 0
M  V30 1157 C 104.884 4.41211 3.0028 0
M  V30 1158 O 105.107 3.92225 4.14144 0
M  V30 1159 O 104.041 5.32605 2.80384 0
M  V30 1160 H 107.867 3.00354 0.449561 0
M  V30 1161 H 105.452 1.48584 0.155949 0
M  V30 1162 H 107.334 3.0557 2.90181 0
M  V30 1163 H 106.009 1.89192 2.62656 0
M  V30 1164 H 104.916 3.59054 1.05028 0
M  V30 1165 H 106.249 4.71848 1.40073 0
M  V30 1166 N 107.901 -0.206675 1.56239 0
M  V30 1167 C 109.149 -0.927007 1.79586 0
M  V30 1168 C 109.47 -1.8427 0.637929 0
M  V30 1169 O 108.74 -1.92849 -0.344398 0
M  V30 1170 H 107.32 -0.345292 0.662407 0
M  V30 1171 H 109.982 -0.21496 1.93711 0
M  V30 1172 H 109.078 -1.52501 2.72305 0
M  V30 1173 N 109.379 -1.50304 -0.473955 0
M  V30 1174 C 110.656 -1.51667 -1.23518 0
M  V30 1175 C 111.036 -0.259701 -2.09496 0
M  V30 1176 O 110.384 0.756986 -2.15597 0
M  V30 1177 C 110.594 -2.81082 -2.06868 0
M  V30 1178 C 111.942 -3.31631 -2.65153 0
M  V30 1179 O 112.966 -2.82384 -2.17113 0
M  V30 1180 O 111.825 -4.17471 -3.52675 0
M  V30 1181 H 108.919 -0.60822 -0.560355 0
M  V30 1182 H 111.465 -1.62592 -0.486011 0
M  V30 1183 H 110.237 -3.64041 -1.4349 0
M  V30 1184 H 109.86 -2.73146 -2.88924 0
M  V30 1185 N 110.857 0.726932 -1.39834 0
M  V30 1186 C 112.268 1.30558 -1.3346 0
M  V30 1187 C 112.619 1.962 -0.00273003 0
M  V30 1188 O 111.744 1.96826 0.899371 0
M  V30 1189 C 112.339 2.37404 -2.41713 0
M  V30 1190 C 110.898 2.90921 -2.38835 0
M  V30 1191 C 110.045 1.64578 -2.2318 0
M  V30 1192 H 112.996 0.523862 -1.49804 0
M  V30 1193 H 113.017 3.17984 -2.08966 0
M  V30 1194 H 112.529 1.89599 -3.38635 0
M  V30 1195 H 110.63 3.42985 -1.45575 0
M  V30 1196 H 110.743 3.43487 -3.33997 0
M  V30 1197 H 109.107 1.89219 -1.70494 0
M  V30 1198 H 109.89 1.18814 -3.22084 0
M  V30 1199 N 112.336 1.25143 0.95797 0
M  V30 1200 C 113.582 1.09855 1.70469 0
M  V30 1201 C 113.915 -0.360187 1.90831 0
M  V30 1202 O 113.19 -1.26568 1.47685 0
M  V30 1203 C 113.473 1.8497 3.08963 0
M  V30 1204 C 113.326 3.38652 2.96032 0
M  V30 1205 C 114.645 1.63016 4.08795 0
M  V30 1206 H 111.764 0.400465 0.618706 0
M  V30 1207 H 114.406 1.53933 1.11376 0
M  V30 1208 H 112.556 1.47505 3.59409 0
M  V30 1209 H 114.228 3.85772 2.52938 0
M  V30 1210 H 112.471 3.66534 2.32025 0
M  V30 1211 H 113.142 3.8642 3.94187 0
M  V30 1212 H 115.618 1.95625 3.67247 0
M  V30 1213 H 114.494 2.18015 5.03747 0
M  V30 1214 H 114.755 0.570692 4.38401 0
M  V30 1215 N 113.814 -1.1601 1.06675 0
M  V30 1216 C 114.744 -2.22688 0.702307 0
M  V30 1217 C 115.725 -1.67306 -0.307032 0
M  V30 1218 O 116.91 -1.93352 -0.181305 0
M  V30 1219 C 114.04 -3.47178 0.092038 0
M  V30 1220 C 112.994 -4.15477 1.02777 0
M  V30 1221 C 112.32 -5.33963 0.28061 0
M  V30 1222 C 113.62 -4.66019 2.35846 0
M  V30 1223 H 115.314 -2.53429 1.59419 0
M  V30 1224 H 112.86 -1.21813 0.767961 0
M  V30 1225 H 114.813 -4.21037 -0.174814 0
M  V30 1226 H 113.537 -3.15749 -0.834877 0
M  V30 1227 H 112.196 -3.43549 1.27944 0
M  V30 1228 H 111.844 -4.98788 -0.649545 0
M  V30 1229 H 111.544 -5.806 0.904258 0
M  V30 1230 H 113.068 -6.10596 0.021396 0
M  V30 1231 H 114.482 -5.3144 2.15045 0
M  V30 1232 H 112.879 -5.23293 2.93743 0
M  V30 1233 H 113.949 -3.82023 2.98641 0
M  V30 1234 N 115.292 -0.849877 -1.32721 0
M  V30 1235 C 116.239 -0.289033 -2.28983 0
M  V30 1236 C 117.209 0.601324 -1.54833 0
M  V30 1237 O 118.394 0.537253 -1.8308 0
M  V30 1238 C 115.534 0.520623 -3.4115 0
M  V30 1239 C 114.647 -0.394989 -4.3019 0
M  V30 1240 C 113.782 0.426834 -5.29482 0
M  V30 1241 C 112.821 -0.486476 -6.10164 0
M  V30 1242 N 111.958 0.297879 -7.01468 0
M  V30 1243 H 116.798 -1.11519 -2.76347 0
M  V30 1244 H 114.335 -0.56138 -1.35967 0
M  V30 1245 H 116.293 1.00563 -4.04899 0
M  V30 1246 H 114.923 1.31165 -2.9495 0
M  V30 1247 H 113.975 -0.99836 -3.67065 0
M  V30 1248 H 115.287 -1.09612 -4.86607 0
M  V30 1249 H 114.441 0.975205 -5.98811 0
M  V30 1250 H 113.18 1.16136 -4.73671 0
M  V30 1251 H 112.185 -1.04677 -5.39743 0
M  V30 1252 H 113.41 -1.21953 -6.6806 0
M  V30 1253 H 111.356 1.01558 -6.48091 0
M  V30 1254 H 111.273 -0.344318 -7.55216 0
M  V30 1255 H 112.541 0.828131 -7.75089 0
M  V30 1256 N 116.77 1.45427 -0.607355 0
M  V30 1257 C 117.702 2.2871 0.149752 0
M  V30 1258 C 118.715 1.39937 0.831958 0
M  V30 1259 O 119.904 1.64313 0.697385 0
M  V30 1260 C 117.004 3.15673 1.23304 0
M  V30 1261 C 116.177 4.32722 0.637996 0
M  V30 1262 C 115.236 5.00895 1.61215 0
M  V30 1263 O 114.262 5.57697 1.13854 0
M  V30 1264 N 115.464 5.00159 2.94655 0
M  V30 1265 H 118.229 2.94328 -0.564882 0
M  V30 1266 H 115.79 1.55612 -0.446823 0
M  V30 1267 H 117.782 3.58144 1.88454 0
M  V30 1268 H 116.352 2.51965 1.8502 0
M  V30 1269 H 115.572 3.93734 -0.191572 0
M  V30 1270 H 116.86 5.08321 0.220665 0
M  V30 1271 H 116.258 4.553 3.35735 0
M  V30 1272 H 114.815 5.46495 3.55228 0
M  V30 1273 N 118.248 0.346503 1.53744 0
M  V30 1274 C 119.18 -0.543316 2.22667 0
M  V30 1275 C 120.193 -1.06159 1.23427 0
M  V30 1276 O 121.382 -0.971235 1.49764 0
M  V30 1277 C 118.482 -1.76076 2.89569 0
M  V30 1278 C 117.655 -1.37727 4.15151 0
M  V30 1279 C 116.714 -2.45471 4.65436 0
M  V30 1280 O 115.74 -2.08655 5.29577 0
M  V30 1281 N 116.942 -3.7677 4.41616 0
M  V30 1282 H 119.707 0.0469703 2.99663 0
M  V30 1283 H 117.268 0.170766 1.60997 0
M  V30 1284 H 119.26 -2.47593 3.20125 0
M  V30 1285 H 117.83 -2.25835 2.16142 0
M  V30 1286 H 117.05 -0.492746 3.91108 0
M  V30 1287 H 118.338 -1.09708 4.96832 0
M  V30 1288 H 117.736 -4.09467 3.90325 0
M  V30 1289 H 116.293 -4.44448 4.7677 0
M  V30 1290 N 119.726 -1.57421 0.075193 0
M  V30 1291 C 120.975 -1.92794 -0.592731 0
M  V30 1292 C 121.288 -0.957478 -1.70563 0
M  V30 1293 O 122.494 -1.20417 -2.43335 0
M  V30 1294 C 120.95 -3.42495 -1.10569 0
M  V30 1295 C 120.558 -4.47994 -0.0236121 0
M  V30 1296 C 122.302 -3.86864 -1.74748 0
M  V30 1297 C 120.209 -5.88829 -0.550803 0
M  V30 1298 H 119.139 -0.719591 -0.225177 0
M  V30 1299 H 121.79 -1.82902 0.147978 0
M  V30 1300 H 120.172 -3.47471 -1.89947 0
M  V30 1301 H 121.346 -4.54637 0.751099 0
M  V30 1302 H 119.661 -4.13113 0.522159 0
M  V30 1303 H 122.258 -4.8947 -2.15229 0
M  V30 1304 H 122.601 -3.24417 -2.60882 0
M  V30 1305 H 123.134 -3.84504 -1.01986 0
M  V30 1306 H 119.873 -6.54929 0.273457 0
M  V30 1307 H 119.393 -5.85698 -1.29296 0
M  V30 1308 H 121.072 -6.38811 -1.02613 0
M  V30 1309 N 121.204 0.198386 -1.56346 0
M  V30 1310 C 122.134 1.24865 -1.9731 0
M  V30 1311 C 123.115 1.47651 -0.844576 0
M  V30 1312 O 124.3 1.59444 -1.10866 0
M  V30 1313 C 121.43 2.59358 -2.30977 0
M  V30 1314 C 120.384 2.5119 -3.46537 0
M  V30 1315 C 119.71 3.89926 -3.65871 0
M  V30 1316 C 121.01 2.03977 -4.80823 0
M  V30 1317 H 122.704 0.908252 -2.85291 0
M  V30 1318 H 120.25 0.435462 -1.37258 0
M  V30 1319 H 122.203 3.33011 -2.58228 0
M  V30 1320 H 120.927 2.95132 -1.39874 0
M  V30 1321 H 119.586 1.79993 -3.19371 0
M  V30 1322 H 119.234 4.23046 -2.72105 0
M  V30 1323 H 118.934 3.85336 -4.4361 0
M  V30 1324 H 120.458 4.65205 -3.95495 0
M  V30 1325 H 121.872 2.67386 -5.07127 0
M  V30 1326 H 120.269 2.10397 -5.62008 0
M  V30 1327 H 121.339 0.992861 -4.74626 0
M  V30 1328 N 122.682 1.50554 0.465978 0
M  V30 1329 C 123.629 1.6979 1.56333 0
M  V30 1330 C 124.599 0.539239 1.57103 0
M  V30 1331 O 125.784 0.770401 1.74555 0
M  V30 1332 C 122.924 1.80273 2.94271 0
M  V30 1333 C 122.037 3.07674 3.0325 0
M  V30 1334 C 121.172 3.08922 4.32135 0
M  V30 1335 C 120.211 4.30755 4.34875 0
M  V30 1336 N 119.348 4.29714 5.55239 0
M  V30 1337 H 124.188 2.63472 1.39235 0
M  V30 1338 H 121.725 1.30602 0.676873 0
M  V30 1339 H 123.683 1.84332 3.74269 0
M  V30 1340 H 122.313 0.900258 3.09992 0
M  V30 1341 H 121.365 3.13062 2.16094 0
M  V30 1342 H 122.677 3.97642 3.01135 0
M  V30 1343 H 121.831 3.11738 5.20485 0
M  V30 1344 H 120.57 2.16792 4.36866 0
M  V30 1345 H 119.575 4.28146 3.44922 0
M  V30 1346 H 120.8 5.24117 4.31831 0
M  V30 1347 H 118.746 3.4044 5.60746 0
M  V30 1348 H 118.663 5.13456 5.54886 0
M  V30 1349 H 119.931 4.36683 6.457 0
M  V30 1350 N 124.16 -0.719506 1.40217 0
M  V30 1351 C 125.09 -1.8465 1.42922 0
M  V30 1352 C 126.071 -1.67599 0.29062 0
M  V30 1353 O 127.256 -1.87688 0.498677 0
M  V30 1354 C 124.386 -3.22565 1.28722 0
M  V30 1355 C 123.34 -3.54281 2.40144 0
M  V30 1356 C 122.666 -4.91298 2.11023 0
M  V30 1357 C 123.966 -3.55676 3.82481 0
M  V30 1358 H 125.66 -1.82644 2.37237 0
M  V30 1359 H 123.206 -0.877305 1.1419 0
M  V30 1360 H 125.159 -4.01095 1.29232 0
M  V30 1361 H 123.883 -3.25137 0.308811 0
M  V30 1362 H 122.542 -2.78088 2.38877 0
M  V30 1363 H 122.19 -4.90468 1.11582 0
M  V30 1364 H 121.89 -5.13485 2.8567 0
M  V30 1365 H 123.414 -5.72166 2.13209 0
M  V30 1366 H 124.828 -4.24254 3.85592 0
M  V30 1367 H 123.225 -3.89388 4.56614 0
M  V30 1368 H 124.295 -2.55144 4.12346 0
M  V30 1369 N 125.638 -1.25649 -0.95132 0
M  V30 1370 C 126.568 -1.08808 -2.06599 0
M  V30 1371 C 127.549 0.00382547 -1.701 0
M  V30 1372 O 128.734 -0.166325 -1.93486 0
M  V30 1373 C 125.864 -0.709542 -3.39975 0
M  V30 1374 C 124.818 -1.75206 -3.90496 0
M  V30 1375 C 124.144 -1.22811 -5.20405 0
M  V30 1376 C 125.444 -3.15153 -4.16504 0
M  V30 1377 H 127.138 -2.02048 -2.20946 0
M  V30 1378 H 124.684 -0.972835 -1.06169 0
M  V30 1379 H 126.637 -0.578649 -4.17408 0
M  V30 1380 H 125.361 0.258556 -3.25575 0
M  V30 1381 H 124.02 -1.87145 -3.15234 0
M  V30 1382 H 123.668 -0.250145 -5.02378 0
M  V30 1383 H 123.368 -1.92492 -5.55176 0
M  V30 1384 H 124.892 -1.10968 -6.00432 0
M  V30 1385 H 126.306 -3.06349 -4.84586 0
M  V30 1386 H 124.703 -3.82333 -4.62538 0
M  V30 1387 H 125.773 -3.61966 -3.22658 0
M  V30 1388 N 127.117 1.15442 -1.07289 0
M  V30 1389 C 128.027 2.23786 -0.704057 0
M  V30 1390 C 129.043 1.7166 0.284413 0
M  V30 1391 O 130.219 2.00972 0.131205 0
M  V30 1392 C 127.284 3.46535 -0.106792 0
M  V30 1393 C 126.345 4.13654 -1.14842 0
M  V30 1394 C 125.578 5.30544 -0.57956 0
M  V30 1395 O 125.801 5.67187 0.604585 0
M  V30 1396 O 124.735 5.87154 -1.32414 0
M  V30 1397 H 128.561 2.57664 -1.60757 0
M  V30 1398 H 126.146 1.23152 -0.845803 0
M  V30 1399 H 128.028 4.20804 0.224048 0
M  V30 1400 H 126.703 3.14407 0.770049 0
M  V30 1401 H 125.61 3.4131 -1.5316 0
M  V30 1402 H 126.943 4.49861 -1.99714 0
M  V30 1403 N 128.595 0.856903 1.32268 0
M  V30 1404 C 130.011 0.547061 1.49931 0
M  V30 1405 C 130.211 -0.921781 1.7918 0
M  V30 1406 O 129.267 -1.70469 1.8627 0
M  V30 1407 C 130.58 1.43599 2.64196 0
M  V30 1408 C 132.128 1.43665 2.78081 0
M  V30 1409 C 132.603 2.31085 3.95428 0
M  V30 1410 N 134.094 2.28893 4.02694 0
M  V30 1411 C 134.829 2.93262 4.92732 0
M  V30 1412 N 134.325 3.66751 5.87763 0
M  V30 1413 N 136.118 2.82638 4.85873 0
M  V30 1414 H 128.269 1.8075 1.11549 0
M  V30 1415 H 130.532 0.772144 0.549997 0
M  V30 1416 H 130.238 2.48058 2.49319 0
M  V30 1417 H 130.112 1.12502 3.60032 0
M  V30 1418 H 132.499 0.399701 2.92381 0
M  V30 1419 H 132.58 1.7878 1.82952 0
M  V30 1420 H 132.224 3.34849 3.81888 0
M  V30 1421 H 132.154 1.93302 4.89839 0
M  V30 1422 H 134.645 1.75466 3.34694 0
M  V30 1423 H 134.958 4.13027 6.53168 0
M  V30 1424 H 133.303 3.70859 5.87783 0
M  V30 1425 H 136.494 2.24774 4.10602 0
M  V30 1426 H 136.667 3.33084 5.55841 0
M  V30 1427 N 130.073 -1.45103 0.615059 0
M  V30 1428 C 131.006 -2.27717 -0.148408 0
M  V30 1429 C 131.984 -1.37584 -0.866572 0
M  V30 1430 O 133.168 -1.67017 -0.87393 0
M  V30 1431 C 130.295 -3.16136 -1.21557 0
M  V30 1432 C 129.341 -4.22263 -0.599712 0
M  V30 1433 S 130.174 -5.3215 0.598081 0
M  V30 1434 C 131.33 -6.24137 -0.469484 0
M  V30 1435 H 131.563 -2.92121 0.552483 0
M  V30 1436 H 129.096 -1.49054 0.402778 0
M  V30 1437 H 131.054 -3.67633 -1.82638 0
M  V30 1438 H 129.715 -2.50982 -1.88857 0
M  V30 1439 H 128.908 -4.84081 -1.4029 0
M  V30 1440 H 128.51 -3.73945 -0.063876 0
M  V30 1441 H 130.802 -6.63984 -1.34652 0
M  V30 1442 H 131.745 -7.0801 0.112725 0
M  V30 1443 H 132.153 -5.58971 -0.788168 0
M  V30 1444 N 131.551 -0.354651 -1.53558 0
M  V30 1445 C 132.781 0.239167 -2.05211 0
M  V30 1446 C 133.189 1.43879 -1.22863 0
M  V30 1447 O 132.532 1.81857 -0.259565 0
M  V30 1448 C 132.594 0.707251 -3.52474 0
M  V30 1449 C 132.258 -0.374212 -4.55465 0
M  V30 1450 C 133.255 -1.22054 -5.0537 0
M  V30 1451 C 130.94 -0.531323 -4.99482 0
M  V30 1452 C 132.934 -2.20942 -5.97882 0
M  V30 1453 C 130.621 -1.52358 -5.91802 0
M  V30 1454 C 131.619 -2.36108 -6.40892 0
M  V30 1455 O 131.307 -3.33643 -7.31394 0
M  V30 1456 H 131.039 0.0479716 -0.674296 0
M  V30 1457 H 133.593 -0.508121 -1.99016 0
M  V30 1458 H 131.823 1.50596 -3.56171 0
M  V30 1459 H 133.512 1.22285 -3.87042 0
M  V30 1460 H 134.278 -1.1103 -4.7212 0
M  V30 1461 H 130.157 0.110738 -4.60867 0
M  V30 1462 H 133.701 -2.86348 -6.36121 0
M  V30 1463 H 129.598 -1.63434 -6.24467 0
M  V30 1464 H 130.366 -3.29244 -7.4936 0
M  V30 1465 N 133.029 1.57378 -0.0835403 0
M  V30 1466 C 134.277 1.93547 0.581718 0
M  V30 1467 C 134.598 0.96524 1.69435 0
M  V30 1468 O 133.868 0.0153369 1.95894 0
M  V30 1469 H 132.448 0.714521 0.217874 0
M  V30 1470 H 135.11 1.94366 -0.144158 0
M  V30 1471 H 134.206 2.95665 0.999423 0
M  V30 1472 N 134.507 -0.190092 1.56449 0
M  V30 1473 C 135.756 -0.907912 1.80111 0
M  V30 1474 C 136.069 -1.84214 0.657619 0
M  V30 1475 O 137.275 -2.60094 0.778663 0
M  V30 1476 C 135.731 -1.66485 3.19078 0
M  V30 1477 C 135.339 -0.7752 4.41242 0
M  V30 1478 C 137.083 -2.37201 3.52045 0
M  V30 1479 C 134.99 -1.53129 5.71231 0
M  V30 1480 H 133.92 -0.34276 0.671589 0
M  V30 1481 H 136.571 -0.161109 1.82791 0
M  V30 1482 H 134.953 -2.45572 3.10661 0
M  V30 1483 H 136.127 -0.0226298 4.60794 0
M  V30 1484 H 134.442 -0.178627 4.16017 0
M  V30 1485 H 137.039 -2.94329 4.46402 0
M  V30 1486 H 137.382 -3.11632 2.76028 0
M  V30 1487 H 137.915 -1.65075 3.61932 0
M  V30 1488 H 134.654 -0.82967 6.50228 0
M  V30 1489 H 134.174 -2.25767 5.55688 0
M  V30 1490 H 135.853 -2.08377 6.12526 0
M  V30 1491 N 135.985 -1.50799 -0.457987 0
M  V30 1492 C 137.213 -1.66218 -1.23203 0
M  V30 1493 C 137.628 -0.350894 -1.85511 0
M  V30 1494 O 136.985 0.668546 -1.69814 0
M  V30 1495 C 137.036 -2.76291 -2.33121 0
M  V30 1496 O 136.757 -4.02338 -1.73366 0
M  V30 1497 C 138.258 -3.028 -3.2377 0
M  V30 1498 H 135.478 -0.558361 -0.372121 0
M  V30 1499 H 138.022 -1.97099 -0.545179 0
M  V30 1500 H 136.177 -2.48068 -2.97558 0
M  V30 1501 H 136.591 -4.63312 -2.4585 0
M  V30 1502 H 138.065 -3.8345 -3.97077 0
M  V30 1503 H 138.542 -2.14385 -3.83322 0
M  V30 1504 H 139.148 -3.32604 -2.65056 0
M  V30 1505 N 137.463 0.71206 -1.40597 0
M  V30 1506 C 138.711 1.46907 -1.38791 0
M  V30 1507 C 139.032 1.94998 0.00780391 0
M  V30 1508 O 138.302 1.70587 0.963174 0
M  V30 1509 H 136.882 0.545043 -0.51082 0
M  V30 1510 H 139.544 0.843882 -1.75683 0
M  V30 1511 H 138.64 2.34021 -2.06496 0
M  V30 1512 N 138.941 1.26152 0.944643 0
M  V30 1513 C 139.871 1.09902 2.06019 0
M  V30 1514 C 140.852 0.00519538 1.70099 0
M  V30 1515 O 142.037 0.176583 1.93396 0
M  V30 1516 C 139.167 0.727562 3.39594 0
M  V30 1517 C 138.121 1.77274 3.89561 0
M  V30 1518 C 137.447 1.25569 5.19747 0
M  V30 1519 C 138.747 3.17357 4.14827 0
M  V30 1520 H 140.441 2.03217 2.19871 0
M  V30 1521 H 137.987 0.978452 1.05652 0
M  V30 1522 H 139.94 0.600777 4.17095 0
M  V30 1523 H 138.664 -0.241287 3.25707 0
M  V30 1524 H 137.323 1.88814 3.14237 0
M  V30 1525 H 136.971 0.276783 5.02238 0
M  V30 1526 H 136.671 1.95433 5.54148 0
M  V30 1527 H 138.195 1.1415 5.99835 0
M  V30 1528 H 139.609 3.08914 4.82954 0
M  V30 1529 H 138.006 3.84781 4.60504 0
M  V30 1530 H 139.076 3.63673 3.20734 0
M  V30 1531 N 140.419 -1.14872 1.07899 0
M  V30 1532 C 141.696 -1.81928 0.71845 0
M  V30 1533 C 142.076 -1.95417 -0.798455 0
M  V30 1534 O 141.424 -1.50997 -1.715 0
M  V30 1535 C 141.634 -3.17937 1.43935 0
M  V30 1536 C 142.982 -3.93501 1.59506 0
M  V30 1537 O 144.006 -3.27509 1.40058 0
M  V30 1538 O 142.865 -5.1183 1.91551 0
M  V30 1539 H 139.959 -0.78628 0.256305 0
M  V30 1540 H 142.505 -1.21934 1.18026 0
M  V30 1541 H 141.277 -3.0325 2.47295 0
M  V30 1542 H 140.9 -3.85619 0.968687 0
M  V30 1543 N 141.898 -0.863906 -1.31812 0
M  V30 1544 C 142.808 -0.318461 -2.32428 0
M  V30 1545 C 143.824 0.568496 -1.64451 0
M  V30 1546 O 145 0.46666 -1.95919 0
M  V30 1547 C 142.065 0.476355 -3.43412 0
M  V30 1548 C 141.126 -0.43784 -4.27061 0
M  V30 1549 C 140.359 0.319138 -5.32745 0
M  V30 1550 O 140.582 1.54799 -5.48993 0
M  V30 1551 O 139.516 -0.319861 -6.01049 0
M  V30 1552 H 143.342 -1.15229 -2.80991 0
M  V30 1553 H 140.927 -0.627103 -1.35602 0
M  V30 1554 H 142.809 0.927156 -4.11074 0
M  V30 1555 H 141.484 1.28683 -2.97022 0
M  V30 1556 H 140.391 -0.937013 -3.62175 0
M  V30 1557 H 141.724 -1.21375 -4.77 0
M  V30 1558 N 143.376 1.44774 -0.622745 0
M  V30 1559 C 144.653 1.95522 -0.0551974 0
M  V30 1560 C 145.033 1.5649 1.41683 0
M  V30 1561 O 144.381 0.834848 2.12703 0
M  V30 1562 C 144.591 3.4796 -0.269242 0
M  V30 1563 C 145.939 4.24306 -0.158014 0
M  V30 1564 O 146.963 3.55637 -0.200162 0
M  V30 1565 O 145.822 5.46471 -0.0558693 0
M  V30 1566 H 142.916 0.826556 0.0271015 0
M  V30 1567 H 145.462 1.54866 -0.693864 0
M  V30 1568 H 144.234 3.6939 -1.29099 0
M  V30 1569 H 143.857 3.95543 0.403966 0
M  V30 1570 N 144.854 0.36279 1.53368 0
M  V30 1571 C 145.802 -0.500155 2.27159 0
M  V30 1572 C 146.796 -1.08575 1.3003 0
M  V30 1573 O 148.002 -1.02927 1.47668 0
M  V30 1574 H 144.377 -0.180009 0.730138 0
M  V30 1575 H 146.348 0.14401 2.98052 0
M  V30 1576 C 145.097 -1.62937 3.07159 0
M  V30 1577 H 144.42 -1.18806 3.8174 0
M  V30 1578 H 145.86 -2.20795 3.61975 0
M  V30 1579 C 144.319 -2.57007 2.17829 0
M  V30 1580 O 144.849 -3.59752 1.78721 0
M  V30 1581 N 143.055 -2.26131 1.82518 0
M  V30 1582 H 142.602 -1.42616 2.14519 0
M  V30 1583 H 142.56 -2.89327 1.23034 0
M  V30 1584 N 146.332 -1.57332 0.0918853 0
M  V30 1585 C 147.262 -2.16872 -0.865371 0
M  V30 1586 C 148.243 -1.10118 -1.29646 0
M  V30 1587 O 149.428 -1.38242 -1.36392 0
M  V30 1588 C 146.558 -2.74649 -2.12569 0
M  V30 1589 C 145.512 -3.86747 -1.83333 0
M  V30 1590 C 144.838 -4.31212 -3.16166 0
M  V30 1591 C 146.138 -5.10089 -1.1228 0
M  V30 1592 H 147.832 -2.97114 -0.369307 0
M  V30 1593 H 145.378 -1.42918 -0.176194 0
M  V30 1594 H 147.331 -3.14952 -2.7997 0
M  V30 1595 H 146.055 -1.91657 -2.64452 0
M  V30 1596 H 144.714 -3.46978 -1.18331 0
M  V30 1597 H 144.362 -3.45115 -3.6593 0
M  V30 1598 H 144.062 -5.06788 -2.97388 0
M  V30 1599 H 145.586 -4.74146 -3.84731 0
M  V30 1600 H 147 -5.47582 -1.69785 0
M  V30 1601 H 145.397 -5.91073 -1.03693 0
M  V30 1602 H 146.467 -4.84786 -0.105041 0
M  V30 1603 N 147.81 0.181792 -1.56548 0
M  V30 1604 C 149.059 0.898348 -1.8059 0
M  V30 1605 C 149.372 1.83862 -0.667379 0
M  V30 1606 O 150.578 2.59678 -0.792446 0
M  V30 1607 C 149.034 1.64791 -3.19956 0
M  V30 1608 C 148.642 0.751789 -4.41647 0
M  V30 1609 C 150.386 2.35331 -3.53298 0
M  V30 1610 C 148.293 1.50098 -5.72035 0
M  V30 1611 H 147.223 0.339194 -0.673397 0
M  V30 1612 H 149.874 0.151413 -1.82874 0
M  V30 1613 H 148.256 2.43921 -3.11959 0
M  V30 1614 H 149.43 -0.0018076 -4.608 0
M  V30 1615 H 147.745 0.156562 -4.16106 0
M  V30 1616 H 150.342 2.91958 -4.47956 0
M  V30 1617 H 150.685 3.10164 -2.77676 0
M  V30 1618 H 151.218 1.63154 -3.62803 0
M  V30 1619 H 147.957 0.795175 -6.50659 0
M  V30 1620 H 147.477 2.22817 -5.56878 0
M  V30 1621 H 149.156 2.05125 -6.13622 0
M  V30 1622 N 149.288 1.51039 0.449983 0
M  V30 1623 C 150.535 1.63081 1.20045 0
M  V30 1624 C 150.863 0.341024 1.91487 0
M  V30 1625 O 150.118 -0.674276 1.83717 0
M  V30 1626 C 150.417 2.77556 2.25161 0
M  V30 1627 C 150.083 4.17289 1.70823 0
M  V30 1628 C 148.745 4.55305 1.55725 0
M  V30 1629 C 151.097 5.04536 1.3074 0
M  V30 1630 C 148.425 5.78287 0.989999 0
M  V30 1631 C 150.777 6.28085 0.754482 0
M  V30 1632 C 149.441 6.64885 0.590308 0
M  V30 1633 H 148.711 0.596755 0.439277 0
M  V30 1634 H 151.358 1.85037 0.49333 0
M  V30 1635 H 149.663 2.49771 3.01863 0
M  V30 1636 H 151.36 2.84073 2.83026 0
M  V30 1637 H 147.95 3.8731 1.83546 0
M  V30 1638 H 152.134 4.75782 1.41229 0
M  V30 1639 H 147.39 6.05456 0.850451 0
M  V30 1640 H 151.564 6.95038 0.435324 0
M  V30 1641 H 149.191 7.60055 0.14862 0
M  V30 1642 N 150.766 -0.704594 1.40972 0
M  V30 1643 C 151.994 -1.49354 1.43182 0
M  V30 1644 C 152.409 -1.88768 0.0345508 0
M  V30 1645 O 151.766 -1.56184 -0.944081 0
M  V30 1646 C 151.817 -2.76187 2.33244 0
M  V30 1647 O 151.538 -2.38436 3.67532 0
M  V30 1648 C 153.039 -3.7 2.44162 0
M  V30 1649 H 150.259 -0.460559 0.487982 0
M  V30 1650 H 152.803 -0.868261 1.85153 0
M  V30 1651 H 150.958 -3.34974 1.94606 0
M  V30 1652 H 151.372 -3.20126 4.15475 0
M  V30 1653 H 152.846 -4.55803 3.11364 0
M  V30 1654 H 153.323 -4.13867 1.47006 0
M  V30 1655 H 153.929 -3.17121 2.83398 0
M  V30 1656 N 152.244 -1.26651 -0.937939 0
M  V30 1657 C 153.49 -1.12553 -1.687 0
M  V30 1658 C 153.823 0.329782 -1.91379 0
M  V30 1659 O 153.098 1.24202 -1.4968 0
M  V30 1660 C 153.381 -1.89862 -3.05981 0
M  V30 1661 C 153.234 -3.43318 -2.90607 0
M  V30 1662 C 154.553 -1.69499 -4.0615 0
M  V30 1663 H 151.672 -0.410257 -0.612257 0
M  V30 1664 H 154.314 -1.55685 -1.08913 0
M  V30 1665 H 152.464 -1.53204 -3.57017 0
M  V30 1666 H 154.136 -3.89747 -2.46769 0
M  V30 1667 H 152.379 -3.70179 -2.26164 0
M  V30 1668 H 153.05 -3.92642 -3.8799 0
M  V30 1669 H 155.526 -2.01442 -3.64088 0
M  V30 1670 H 154.402 -2.26002 -5.00214 0
M  V30 1671 H 154.663 -0.640365 -4.37438 0
M  V30 1672 N 153.722 1.14298 -1.08507 0
M  V30 1673 C 154.97 1.84993 -0.813763 0
M  V30 1674 C 155.291 1.83405 0.662393 0
M  V30 1675 O 154.561 1.28319 1.48024 0
M  V30 1676 H 153.141 0.684966 -0.298045 0
M  V30 1677 H 155.803 1.385 -1.37126 0
M  V30 1678 H 154.899 2.89788 -1.15884 0
M  V30 1679 N 155.201 0.870884 1.31352 0
M  V30 1680 C 156.426 0.495957 2.01383 0
M  V30 1681 C 156.851 -0.904324 1.64935 0
M  V30 1682 O 156.209 -1.59687 0.858466 0
M  V30 1683 C 156.257 0.661433 3.54482 0
M  V30 1684 O 155.361 -0.298851 4.11316 0
M  V30 1685 H 154.702 0.197158 0.634054 0
M  V30 1686 H 157.232 1.17455 1.67527 0
M  V30 1687 H 157.242 0.555072 4.04207 0
M  V30 1688 H 155.917 1.68246 3.8035 0
M  V30 1689 H 154.494 -0.147368 3.72609 0
M  V30 1690 N 156.679 -1.44442 0.630414 0
M  V30 1691 C 157.611 -2.2892 -0.113347 0
M  V30 1692 C 158.624 -1.41243 -0.80959 0
M  V30 1693 O 159.813 -1.65402 -0.671156 0
M  V30 1694 C 156.913 -3.17594 -1.18266 0
M  V30 1695 C 156.086 -4.33682 -0.569073 0
M  V30 1696 C 155.145 -5.03397 -1.53226 0
M  V30 1697 O 154.171 -5.59438 -1.04967 0
M  V30 1698 N 155.373 -5.04783 -2.86661 0
M  V30 1699 H 158.138 -2.93392 0.611636 0
M  V30 1700 H 155.699 -1.54881 0.471523 0
M  V30 1701 H 157.691 -3.61097 -1.82732 0
M  V30 1702 H 156.261 -2.54876 -1.80988 0
M  V30 1703 H 155.481 -3.9338 0.254187 0
M  V30 1704 H 156.769 -5.08608 -0.139767 0
M  V30 1705 H 156.167 -4.60584 -3.28449 0
M  V30 1706 H 154.724 -5.52077 -3.46489 0
M  V30 1707 N 158.157 -0.370918 -1.53173 0
M  V30 1708 C 159.089 0.507823 -2.23503 0
M  V30 1709 C 160.102 1.04182 -1.251 0
M  V30 1710 O 161.291 0.947286 -1.5129 0
M  V30 1711 C 158.391 1.71447 -2.92334 0
M  V30 1712 C 157.564 1.31105 -4.17289 0
M  V30 1713 C 156.623 2.38035 -4.69282 0
M  V30 1714 O 155.649 2.00204 -5.32829 0
M  V30 1715 N 156.851 3.69697 -4.47554 0
M  V30 1716 H 159.616 -0.0946382 -2.99551 0
M  V30 1717 H 157.177 -0.196358 -1.60705 0
M  V30 1718 H 159.169 2.42469 -3.24023 0
M  V30 1719 H 157.739 2.22368 -2.19707 0
M  V30 1720 H 156.959 0.430462 -3.91843 0
M  V30 1721 H 158.247 1.0179 -4.98514 0
M  V30 1722 H 157.645 4.03205 -3.9679 0
M  V30 1723 H 156.202 4.36807 -4.8378 0
M  V30 1724 N 159.635 1.57281 -0.100228 0
M  V30 1725 C 160.598 2.13158 0.842398 0
M  V30 1726 C 161.598 1.06202 1.20738 0
M  V30 1727 O 162.788 1.32066 1.13597 0
M  V30 1728 C 159.92 2.65639 2.13655 0
M  V30 1729 H 161.113 2.97766 0.357114 0
M  V30 1730 H 158.666 1.5559 0.148823 0
M  V30 1731 H 159.401 1.84566 2.66657 0
M  V30 1732 H 159.186 3.43844 1.88451 0
M  V30 1733 H 160.676 3.08846 2.81077 0
M  V30 1734 N 161.113 -0.173488 1.56642 0
M  V30 1735 C 162.043 -1.2171 1.99271 0
M  V30 1736 C 163.024 -1.46289 0.867959 0
M  V30 1737 O 164.209 -1.5766 1.13388 0
M  V30 1738 C 161.339 -2.55651 2.35074 0
M  V30 1739 C 160.293 -2.45645 3.50489 0
M  V30 1740 C 159.619 -3.84056 3.72028 0
M  V30 1741 C 160.919 -1.96302 4.84007 0
M  V30 1742 H 162.613 -0.86275 2.867 0
M  V30 1743 H 160.159 -0.413571 1.37933 0
M  V30 1744 H 162.112 -3.2886 2.63494 0
M  V30 1745 H 160.836 -2.92869 1.44552 0
M  V30 1746 H 159.495 -1.7489 3.22194 0
M  V30 1747 H 159.143 -4.18664 2.788 0
M  V30 1748 H 158.843 -3.7823 4.49684 0
M  V30 1749 H 160.367 -4.58854 4.02846 0
M  V30 1750 H 161.781 -2.59284 5.11317 0
M  V30 1751 H 160.178 -2.01429 5.65284 0
M  V30 1752 H 161.248 -0.917226 4.76146 0
M  V30 1753 N 162.591 -1.51276 -0.441967 0
M  V30 1754 C 163.868 -1.54252 -1.20273 0
M  V30 1755 C 164.248 -0.30408 -2.08898 0
M  V30 1756 O 163.596 0.711084 -2.17154 0
M  V30 1757 C 163.806 -2.85406 -2.00859 0
M  V30 1758 C 165.154 -3.37181 -2.58059 0
M  V30 1759 O 166.178 -2.86925 -2.11074 0
M  V30 1760 O 165.037 -4.24858 -3.43741 0
M  V30 1761 H 162.131 -0.619969 -0.547328 0
M  V30 1762 H 164.677 -1.63586 -0.451413 0
M  V30 1763 H 163.449 -3.67003 -1.35736 0
M  V30 1764 H 163.072 -2.79213 -2.83065 0
M  V30 1765 N 164.069 0.697108 -1.41344 0
M  V30 1766 C 164.999 1.82353 -1.45841 0
M  V30 1767 C 165.98 1.67115 -0.317247 0
M  V30 1768 O 167.165 1.86871 -0.528474 0
M  V30 1769 C 164.295 3.20476 -1.33838 0
M  V30 1770 C 163.249 3.50415 -2.4575 0
M  V30 1771 C 162.575 4.87878 -2.18813 0
M  V30 1772 C 163.875 3.49546 -3.88091 0
M  V30 1773 H 165.569 1.78846 -2.40113 0
M  V30 1774 H 163.115 0.859028 -1.15571 0
M  V30 1775 H 165.068 3.98988 -1.35596 0
M  V30 1776 H 163.792 3.24604 -0.360498 0
M  V30 1777 H 162.451 2.74253 -2.43271 0
M  V30 1778 H 162.099 4.8863 -1.19371 0
M  V30 1779 H 161.799 5.08875 -2.93803 0
M  V30 1780 H 163.323 5.68702 -2.22284 0
M  V30 1781 H 164.737 4.18066 -3.92293 0
M  V30 1782 H 163.134 3.82075 -4.62751 0
M  V30 1783 H 164.204 2.48552 -4.16353 0
M  V30 1784 N 165.547 1.27147 0.931209 0
M  V30 1785 C 166.796 1.12664 1.67302 0
M  V30 1786 C 167.109 -0.327718 1.92835 0
M  V30 1787 O 168.315 -0.593392 2.64936 0
M  V30 1788 C 166.771 1.9683 3.01307 0
M  V30 1789 C 166.379 3.46901 2.83485 0
M  V30 1790 C 168.123 1.90985 3.79111 0
M  V30 1791 C 166.03 4.23279 4.13024 0
M  V30 1792 H 164.96 0.41803 0.627509 0
M  V30 1793 H 167.611 1.51539 1.03481 0
M  V30 1794 H 165.993 1.50797 3.66164 0
M  V30 1795 H 167.167 4.00773 2.27415 0
M  V30 1796 H 165.482 3.54088 2.19113 0
M  V30 1797 H 168.079 2.45328 4.75098 0
M  V30 1798 H 168.422 0.882718 4.06834 0
M  V30 1799 H 168.955 2.34895 3.21044 0
M  V30 1800 H 165.694 5.26503 3.90481 0
M  V30 1801 H 165.214 3.74186 4.6877 0
M  V30 1802 H 166.893 4.32265 4.81411 0
M  V30 1803 N 167.025 -1.13721 1.09112 0
M  V30 1804 C 168.273 -1.84559 0.823562 0
M  V30 1805 C 168.594 -1.83754 -0.652658 0
M  V30 1806 O 167.864 -1.29102 -1.47342 0
M  V30 1807 H 166.444 -0.683376 0.301673 0
M  V30 1808 H 169.106 -1.37771 1.37859 0
M  V30 1809 H 168.202 -2.8917 1.17419 0
M  V30 1810 N 168.503 -0.877838 -1.30888 0
M  V30 1811 C 169.45 -0.337538 -2.28318 0
M  V30 1812 C 170.42 0.568346 -1.56074 0
M  V30 1813 O 171.605 0.498298 -1.84178 0
M  V30 1814 C 168.745 0.448142 -3.42178 0
M  V30 1815 C 167.858 -0.48615 -4.29256 0
M  V30 1816 C 166.993 0.314427 -5.30269 0
M  V30 1817 C 166.032 -0.615791 -6.08995 0
M  V30 1818 N 165.169 0.14902 -7.01942 0
M  V30 1819 H 170.009 -1.17356 -2.73919 0
M  V30 1820 H 167.546 -0.590094 -1.34745 0
M  V30 1821 H 169.504 0.919517 -4.06941 0
M  V30 1822 H 168.134 1.24879 -2.97666 0
M  V30 1823 H 167.186 -1.076 -3.64865 0
M  V30 1824 H 168.498 -1.19909 -4.84173 0
M  V30 1825 H 167.652 0.847969 -6.00745 0
M  V30 1826 H 166.391 1.06062 -4.76027 0
M  V30 1827 H 165.396 -1.16102 -5.37401 0
M  V30 1828 H 166.621 -1.36097 -6.65323 0
M  V30 1829 H 164.567 0.877884 -6.50099 0
M  V30 1830 H 164.484 -0.504433 -7.54315 0
M  V30 1831 H 165.752 0.663537 -7.76671 0
M  V30 1832 N 169.982 1.44106 -0.638065 0
M  V30 1833 C 170.912 2.33448 0.0494287 0
M  V30 1834 C 171.893 1.48606 0.827672 0
M  V30 1835 O 173.078 1.77308 0.792173 0
M  V30 1836 C 170.208 3.31771 1.02691 0
M  V30 1837 C 169.162 4.26485 0.359823 0
M  V30 1838 C 168.488 5.14729 1.44769 0
M  V30 1839 C 169.788 5.17056 -0.738296 0
M  V30 1840 H 171.482 2.91183 -0.696636 0
M  V30 1841 H 169.028 1.40014 -0.336456 0
M  V30 1842 H 170.981 3.93161 1.51666 0
M  V30 1843 H 169.705 2.7226 1.80395 0
M  V30 1844 H 168.364 3.66437 -0.10934 0
M  V30 1845 H 168.012 4.51566 2.21578 0
M  V30 1846 H 167.712 5.78913 1.00668 0
M  V30 1847 H 169.236 5.78991 1.93911 0
M  V30 1848 H 170.65 5.72342 -0.331354 0
M  V30 1849 H 169.047 5.89879 -1.10286 0
M  V30 1850 H 170.117 4.57652 -1.60258 0
M  V30 1851 N 171.46 0.379036 1.52974 0
M  V30 1852 C 172.707 -0.206421 2.01445 0
M  V30 1853 C 173.035 -1.47668 1.26587 0
M  V30 1854 O 172.29 -1.92514 0.351675 0
M  V30 1855 C 172.589 -0.53096 3.53434 0
M  V30 1856 C 172.255 0.646546 4.46241 0
M  V30 1857 C 170.917 0.969604 4.7133 0
M  V30 1858 C 173.269 1.43479 5.01062 0
M  V30 1859 C 170.597 2.08263 5.48492 0
M  V30 1860 C 172.949 2.53834 5.7944 0
M  V30 1861 C 171.613 2.86659 6.02812 0
M  V30 1862 H 170.883 -0.0755349 0.73714 0
M  V30 1863 H 173.53 0.514271 1.84465 0
M  V30 1864 H 171.835 -1.33285 3.68432 0
M  V30 1865 H 173.532 -0.996417 3.88423 0
M  V30 1866 H 170.122 0.384734 4.2687 0
M  V30 1867 H 174.306 1.19844 4.81613 0
M  V30 1868 H 169.562 2.34078 5.64816 0
M  V30 1869 H 173.736 3.15319 6.20924 0
M  V30 1870 H 171.363 3.73026 6.62387 0
M  V30 1871 N 172.938 -1.57226 0.108567 0
M  V30 1872 C 173.868 -2.17778 -0.84232 0
M  V30 1873 C 174.849 -1.11487 -1.2847 0
M  V30 1874 O 176.034 -1.39681 -1.34918 0
M  V30 1875 C 173.164 -2.76888 -2.09644 0
M  V30 1876 C 172.118 -3.88669 -1.79221 0
M  V30 1877 C 171.444 -4.34541 -3.11574 0
M  V30 1878 C 172.744 -5.11251 -1.06864 0
M  V30 1879 H 174.438 -2.97489 -0.337774 0
M  V30 1880 H 171.984 -1.43097 -0.161025 0
M  V30 1881 H 173.937 -3.17904 -2.76614 0
M  V30 1882 H 172.661 -1.94451 -2.62405 0
M  V30 1883 H 171.32 -3.48213 -1.14644 0
M  V30 1884 H 170.968 -3.48977 -3.62249 0
M  V30 1885 H 170.668 -5.09914 -2.91996 0
M  V30 1886 H 172.192 -4.782 -3.7968 0
M  V30 1887 H 173.606 -5.49352 -1.63968 0
M  V30 1888 H 172.003 -5.9214 -0.974178 0
M  V30 1889 H 173.073 -4.8487 -0.0536168 0
M  V30 1890 N 174.416 0.165178 -1.56732 0
M  V30 1891 C 175.693 0.908443 -1.73224 0
M  V30 1892 C 176.073 2.0013 -0.67165 0
M  V30 1893 O 175.421 2.26353 0.31253 0
M  V30 1894 C 175.631 1.46756 -3.16644 0
M  V30 1895 C 176.979 1.93809 -3.77787 0
M  V30 1896 O 178.003 1.56537 -3.1996 0
M  V30 1897 O 176.862 2.62486 -4.79336 0
M  V30 1898 H 173.956 0.428025 -0.707618 0
M  V30 1899 H 176.502 0.152526 -1.69013 0
M  V30 1900 H 175.274 0.68129 -3.85323 0
M  V30 1901 H 174.897 2.28749 -3.25207 0
M  V30 1902 N 175.894 1.51508 0.433938 0
M  V30 1903 C 177.171 1.54888 1.19453 0
M  V30 1904 C 177.551 0.315154 2.08734 0
M  V30 1905 O 176.899 -0.699558 2.17528 0
M  V30 1906 C 177.109 2.86467 1.99342 0
M  V30 1907 C 178.457 3.38545 2.56267 0
M  V30 1908 O 179.481 2.88041 2.0955 0
M  V30 1909 O 178.34 4.26675 3.41483 0
M  V30 1910 H 175.434 0.622863 0.544032 0
M  V30 1911 H 177.98 1.63823 0.442732 0
M  V30 1912 H 176.752 3.67718 1.33788 0
M  V30 1913 H 176.375 2.8071 2.8158 0
M  V30 1914 N 177.372 -0.689602 1.41712 0
M  V30 1915 C 178.282 -1.83314 1.46401 0
M  V30 1916 C 179.298 -1.7036 0.35405 0
M  V30 1917 O 180.474 -1.92171 0.602692 0
M  V30 1918 C 177.539 -3.19344 1.34982 0
M  V30 1919 C 176.6 -3.44363 2.56344 0
M  V30 1920 C 175.833 -4.73904 2.45461 0
M  V30 1921 O 176.056 -5.508 1.48241 0
M  V30 1922 O 174.99 -4.99839 3.35328 0
M  V30 1923 H 178.816 -1.82314 2.42889 0
M  V30 1924 H 176.401 -0.843438 1.23315 0
M  V30 1925 H 178.283 -4.00547 1.3092 0
M  V30 1926 H 176.958 -3.21014 0.41612 0
M  V30 1927 H 175.865 -2.63067 2.65982 0
M  V30 1928 H 177.198 -3.47512 3.48563 0
M  V30 1929 N 178.85 -1.27639 -0.924453 0
M  V30 1930 C 180.075 -1.17101 -1.71179 0
M  V30 1931 C 180.5 0.268134 -1.86179 0
M  V30 1932 O 179.858 1.19415 -1.36418 0
M  V30 1933 C 179.906 -1.86313 -3.08739 0
M  V30 1934 O 179.01 -1.16331 -3.95652 0
M  V30 1935 H 178.351 -0.407091 -0.524569 0
M  V30 1936 H 180.881 -1.68767 -1.15666 0
M  V30 1937 H 180.891 -1.938 -3.59034 0
M  V30 1938 H 179.566 -2.91001 -2.97138 0
M  V30 1939 H 178.143 -1.16935 -3.54091 0
M  V30 1940 N 180.328 1.1314 -1.09713 0
M  V30 1941 C 181.558 1.88048 -0.855656 0
M  V30 1942 C 181.966 1.79537 0.596919 0
M  V30 1943 O 181.309 1.16196 1.42282 0
M  V30 1944 C 181.371 3.38314 -1.21589 0
M  V30 1945 C 181.035 3.70605 -2.67397 0
M  V30 1946 C 182.032 3.69596 -3.65643 0
M  V30 1947 C 179.717 4.0017 -3.03593 0
M  V30 1948 C 181.711 3.977 -4.9811 0
M  V30 1949 C 179.398 4.27935 -4.36251 0
M  V30 1950 C 180.396 4.26685 -5.33318 0
M  V30 1951 O 180.084 4.53767 -6.63589 0
M  V30 1952 H 179.816 0.60208 -0.307368 0
M  V30 1953 H 182.37 1.44128 -1.46343 0
M  V30 1954 H 180.6 3.82752 -0.551177 0
M  V30 1955 H 182.289 3.94552 -0.953083 0
M  V30 1956 H 183.055 3.46826 -3.39023 0
M  V30 1957 H 178.934 4.00289 -2.2867 0
M  V30 1958 H 182.478 3.9664 -5.73866 0
M  V30 1959 H 178.375 4.50178 -4.62613 0
M  V30 1960 H 179.143 4.71422 -6.69107 0
M  V30 1961 N 181.806 0.884767 1.30421 0
M  V30 1962 C 183.046 0.509806 1.9794 0
M  V30 1963 C 183.41 -0.923736 1.68319 0
M  V30 1964 O 184.611 -1.40481 2.29169 0
M  V30 1965 C 182.882 0.776732 3.48858 0
M  V30 1966 S 184.441 0.503843 4.35898 0
M  V30 1967 H 181.259 0.189699 0.685227 0
M  V30 1968 H 183.861 1.14399 1.58535 0
M  V30 1969 H 182.565 1.81857 3.67908 0
M  V30 1970 H 182.096 0.1301 3.93185 0
M  V30 1971 H 184.111 -0.657625 4.91823 0
M  V30 1972 N 183.284 -1.43765 0.645699 0
M  V30 1973 C 184.53 -2.02197 0.156271 0
M  V30 1974 C 184.863 -1.50776 -1.22393 0
M  V30 1975 O 184.138 -0.697771 -1.81553 0
M  V30 1976 C 184.421 -3.59749 0.158872 0
M  V30 1977 C 184.274 -4.21419 1.57245 0
M  V30 1978 C 185.593 -4.37149 -0.50879 0
M  V30 1979 H 182.712 -0.734694 0.0582602 0
M  V30 1980 H 185.354 -1.71157 0.824951 0
M  V30 1981 H 183.504 -3.86325 -0.410525 0
M  V30 1982 H 185.176 -4.059 2.19186 0
M  V30 1983 H 183.419 -3.78356 2.122 0
M  V30 1984 H 184.09 -5.30482 1.52619 0
M  V30 1985 H 186.566 -4.16093 -0.024412 0
M  V30 1986 H 185.442 -5.4683 -0.476213 0
M  V30 1987 H 185.703 -4.12839 -1.58165 0
M  V30 1988 N 184.763 -0.387143 -1.52771 0
M  V30 1989 C 185.693 0.440551 -2.29306 0
M  V30 1990 C 186.674 1.06535 -1.32606 0
M  V30 1991 O 187.859 1.07853 -1.61497 0
M  V30 1992 C 184.989 1.56919 -3.09829 0
M  V30 1993 C 183.943 1.07054 -4.14395 0
M  V30 1994 C 183.269 2.29109 -4.83129 0
M  V30 1995 C 184.569 0.140015 -5.22112 0
M  V30 1996 H 186.263 -0.198026 -2.98744 0
M  V30 1997 H 183.809 -0.09668 -1.43675 0
M  V30 1998 H 185.762 2.15503 -3.62128 0
M  V30 1999 H 184.486 2.23532 -2.3812 0
M  V30 2000 H 183.145 0.507247 -3.63074 0
M  V30 2001 H 182.793 2.94227 -4.0797 0
M  V30 2002 H 182.493 1.96406 -5.53804 0
M  V30 2003 H 184.017 2.88339 -5.38231 0
M  V30 2004 H 185.431 0.633978 -5.69784 0
M  V30 2005 H 183.828 -0.0971485 -6.00021 0
M  V30 2006 H 184.898 -0.811711 -4.78058 0
M  V30 2007 N 186.241 1.57166 -0.116904 0
M  V30 2008 C 187.518 1.86645 0.585049 0
M  V30 2009 C 187.898 1.0177 1.84949 0
M  V30 2010 O 187.246 0.0960379 2.28298 0
M  V30 2011 C 187.456 3.37736 0.879507 0
M  V30 2012 C 188.804 4.06289 1.23348 0
M  V30 2013 O 189.828 3.42743 0.969836 0
M  V30 2014 O 188.687 5.18455 1.7282 0
M  V30 2015 H 185.781 0.772593 0.295007 0
M  V30 2016 H 188.327 1.69025 -0.151249 0
M  V30 2017 H 187.099 3.91296 -0.0166136 0
M  V30 2018 H 186.722 3.6078 1.67103 0
M  V30 2019 N 187.719 -0.156864 1.56817 0
M  V30 2020 C 188.996 -0.899244 1.73704 0
M  V30 2021 C 189.376 -1.99771 0.682254 0
M  V30 2022 O 188.724 -2.26515 -0.300522 0
M  V30 2023 C 188.934 -1.45075 3.17418 0
M  V30 2024 C 190.282 -1.91802 3.7881 0
M  V30 2025 O 191.306 -1.54838 3.20786 0
M  V30 2026 O 190.165 -2.5994 4.80722 0
M  V30 2027 H 187.259 -0.424267 0.709878 0
M  V30 2028 H 189.805 -0.143561 1.69092 0
M  V30 2029 H 188.577 -0.660846 3.85679 0
M  V30 2030 H 188.2 -2.27021 3.26416 0
M  V30 2031 N 189.197 -1.51736 -0.425897 0
M  V30 2032 C 190.608 -1.5732 -1.00536 0
M  V30 2033 C 190.959 -0.403537 -1.92005 0
M  V30 2034 O 190.084 0.478256 -2.11049 0
M  V30 2035 C 190.679 -2.85119 -1.8301 0
M  V30 2036 C 189.238 -2.93236 -2.35987 0
M  V30 2037 C 188.385 -2.52098 -1.15508 0
M  V30 2038 H 191.336 -1.57348 -0.206739 0
M  V30 2039 H 191.357 -2.69526 -2.68581 0
M  V30 2040 H 190.869 -3.7023 -1.16411 0
M  V30 2041 H 188.97 -2.12581 -3.06007 0
M  V30 2042 H 189.083 -3.9713 -2.68001 0
M  V30 2043 H 187.447 -2.05558 -1.50393 0
M  V30 2044 H 188.23 -3.39565 -0.505014 0
M  V30 2045 N 190.675 0.682077 -1.42076 0
M  V30 2046 C 191.638 1.77756 -1.44691 0
M  V30 2047 C 192.638 1.5726 -0.335535 0
M  V30 2048 O 193.828 1.63686 -0.596037 0
M  V30 2049 C 190.96 3.16301 -1.27146 0
M  V30 2050 H 192.153 1.76826 -2.42224 0
M  V30 2051 H 189.706 0.891012 -1.28416 0
M  V30 2052 H 190.441 3.22862 -0.305075 0
M  V30 2053 H 190.226 3.32581 -2.07683 0
M  V30 2054 H 191.716 3.96241 -1.31843 0
M  V30 2055 N 192.153 1.28127 0.917671 0
M  V30 2056 C 193.383 1.17722 1.6978 0
M  V30 2057 C 193.791 -0.267261 1.87303 0
M  V30 2058 O 193.134 -1.19286 1.39702 0
M  V30 2059 C 193.196 1.79958 3.11216 0
M  V30 2060 C 192.86 3.29187 3.16993 0
M  V30 2061 C 193.857 4.25679 2.98485 0
M  V30 2062 C 191.542 3.70075 3.39632 0
M  V30 2063 C 193.536 5.61035 3.02521 0
M  V30 2064 C 191.223 5.05557 3.433 0
M  V30 2065 C 192.221 6.00847 3.24764 0
M  V30 2066 O 191.909 7.33859 3.28187 0
M  V30 2067 H 191.641 0.409788 0.537634 0
M  V30 2068 H 194.195 1.69694 1.15728 0
M  V30 2069 H 192.425 1.22475 3.66793 0
M  V30 2070 H 194.114 1.64125 3.71238 0
M  V30 2071 H 194.88 3.95426 2.80826 0
M  V30 2072 H 190.759 2.96373 3.53106 0
M  V30 2073 H 194.303 6.35388 2.87971 0
M  V30 2074 H 190.2 5.35462 3.60486 0
M  V30 2075 H 190.968 7.42436 3.44575 0
M  V30 2076 N 193.631 -1.12557 1.10312 0
M  V30 2077 C 194.561 -2.20341 0.772798 0
M  V30 2078 C 195.542 -1.68198 -0.25365 0
M  V30 2079 O 196.727 -1.93831 -0.119699 0
M  V30 2080 C 193.857 -3.46709 0.202443 0
M  V30 2081 C 192.811 -4.11996 1.15943 0
M  V30 2082 C 192.137 -5.328 0.450345 0
M  V30 2083 C 193.437 -4.5828 2.50552 0
M  V30 2084 H 195.131 -2.48229 1.674 0
M  V30 2085 H 192.677 -1.19308 0.806326 0
M  V30 2086 H 194.63 -4.2138 -0.0407752 0
M  V30 2087 H 193.354 -3.18245 -0.734001 0
M  V30 2088 H 192.013 -3.39305 1.38808 0
M  V30 2089 H 191.661 -5.00602 -0.490531 0
M  V30 2090 H 191.361 -5.7743 1.08851 0
M  V30 2091 H 192.885 -6.10219 0.215642 0
M  V30 2092 H 194.299 -5.2433 2.31843 0
M  V30 2093 H 192.696 -5.13683 3.10242 0
M  V30 2094 H 193.766 -3.72329 3.10643 0
M  V30 2095 N 195.109 -0.891671 -1.2995 0
M  V30 2096 C 196.357 -0.512486 -1.95494 0
M  V30 2097 C 196.678 0.942776 -1.70695 0
M  V30 2098 O 195.948 1.66374 -1.03424 0
M  V30 2099 H 194.528 -0.186533 -0.723336 0
M  V30 2100 H 197.19 -1.13621 -1.58355 0
M  V30 2101 H 196.286 -0.688342 -3.04415 0
M  V30 2102 N 196.587 1.43421 -0.653314 0
M  V30 2103 C 197.55 2.29182 0.0287951 0
M  V30 2104 C 198.55 1.42213 0.750465 0
M  V30 2105 O 199.74 1.63843 0.591701 0
M  V30 2106 C 196.872 3.24278 1.05151 0
M  V30 2107 H 198.065 2.90985 -0.725786 0
M  V30 2108 H 195.618 1.50702 -0.414545 0
M  V30 2109 H 196.353 2.6737 1.83532 0
M  V30 2110 H 196.138 3.88396 0.537687 0
M  V30 2111 H 197.628 3.88647 1.52786 0
M  V30 2112 N 198.065 0.39524 1.52563 0
M  V30 2113 C 199.314 -0.186321 2.00838 0
M  V30 2114 C 199.627 -1.47402 1.28577 0
M  V30 2115 O 200.833 -2.13599 1.67593 0
M  V30 2116 C 199.289 -0.382595 3.57861 0
M  V30 2117 C 198.897 0.892202 4.39026 0
M  V30 2118 C 200.641 -0.9202 4.14406 0
M  V30 2119 C 198.548 0.66388 5.87662 0
M  V30 2120 H 197.478 -0.0734041 0.750418 0
M  V30 2121 H 200.129 0.518552 1.76021 0
M  V30 2122 H 198.511 -1.14946 3.7895 0
M  V30 2123 H 199.685 1.66414 4.29701 0
M  V30 2124 H 198 1.35519 3.9373 0
M  V30 2125 H 200.597 -1.10683 5.23119 0
M  V30 2126 H 200.94 -1.89096 3.70875 0
M  V30 2127 H 201.473 -0.212751 3.97231 0
M  V30 2128 H 198.212 1.6058 6.35527 0
M  V30 2129 H 197.732 -0.0690193 5.9976 0
M  V30 2130 H 199.411 0.300699 6.46301 0
M  V30 2131 N 199.544 -1.57102 0.125237 0
M  V30 2132 C 200.492 -2.16905 -0.839927 0
M  V30 2133 C 201.486 -1.11998 -1.27094 0
M  V30 2134 O 202.692 -1.3029 -1.24195 0
M  V30 2135 H 199.067 -0.694252 -0.288995 0
M  V30 2136 H 201.038 -2.96774 -0.311115 0
M  V30 2137 C 199.787 -2.78795 -2.07771 0
M  V30 2138 H 199.11 -3.59221 -1.755 0
M  V30 2139 H 200.55 -3.2417 -2.73295 0
M  V30 2140 C 199.009 -1.76193 -2.87155 0
M  V30 2141 O 199.539 -1.21909 -3.82755 0
M  V30 2142 N 197.745 -1.45991 -2.51267 0
M  V30 2143 H 197.292 -1.90325 -1.73592 0
M  V30 2144 H 197.25 -0.775844 -3.04677 0
M  V30 2145 N 201.022 0.148545 -1.56898 0
M  V30 2146 C 201.985 1.16736 -1.97244 0
M  V30 2147 C 202.985 1.35947 -0.858777 0
M  V30 2148 O 204.175 1.32966 -1.12542 0
M  V30 2149 C 201.307 2.52798 -2.28705 0
M  V30 2150 H 202.5 0.821279 -2.88435 0
M  V30 2151 H 200.053 0.391831 -1.51309 0
M  V30 2152 H 200.788 2.92381 -1.403 0
M  V30 2153 H 200.573 2.40216 -3.09901 0
M  V30 2154 H 202.063 3.26179 -2.60762 0
M  V30 2155 N 202.5 1.5196 0.417844 0
M  V30 2156 C 203.747 1.65591 1.16559 0
M  V30 2157 C 204.075 0.381565 1.90721 0
M  V30 2158 O 203.33 -0.635156 1.85106 0
M  V30 2159 C 203.629 2.82269 2.19223 0
M  V30 2160 C 203.295 4.20819 1.61933 0
M  V30 2161 C 201.957 4.58506 1.46033 0
M  V30 2162 C 204.309 5.07196 1.20008 0
M  V30 2163 C 201.637 5.80257 0.867113 0
M  V30 2164 C 203.989 6.29544 0.621086 0
M  V30 2165 C 202.653 6.65987 0.449144 0
M  V30 2166 H 201.923 0.605939 0.42652 0
M  V30 2167 H 204.57 1.86041 0.45397 0
M  V30 2168 H 202.875 2.56118 2.96498 0
M  V30 2169 H 204.572 2.90012 2.76936 0
M  V30 2170 H 201.162 3.91116 1.7529 0
M  V30 2171 H 205.346 4.7867 1.31105 0
M  V30 2172 H 200.602 6.07124 0.721833 0
M  V30 2173 H 204.776 6.95805 0.287798 0
M  V30 2174 H 202.403 7.60199 -0.012632 0
M  V30 2175 N 203.978 -0.674533 1.42435 0
M  V30 2176 C 205.394 -0.98769 1.25367 0
M  V30 2177 C 205.594 -2.00879 0.158044 0
M  V30 2178 O 204.65 -2.48075 -0.470633 0
M  V30 2179 C 205.963 -1.49224 2.6106 0
M  V30 2180 C 207.511 -1.61 2.68417 0
M  V30 2181 C 207.986 -2.14852 4.04478 0
M  V30 2182 N 209.477 -2.22185 4.06434 0
M  V30 2183 C 210.212 -2.64928 5.08528 0
M  V30 2184 N 209.708 -3.07121 6.21006 0
M  V30 2185 N 211.501 -2.64679 4.95885 0
M  V30 2186 H 203.652 0.00152503 2.124 0
M  V30 2187 H 205.915 -0.0618434 0.945981 0
M  V30 2188 H 205.621 -0.816453 3.42092 0
M  V30 2189 H 205.495 -2.47094 2.84999 0
M  V30 2190 H 207.882 -2.27686 1.87732 0
M  V30 2191 H 207.963 -0.616195 2.48267 0
M  V30 2192 H 207.607 -1.48775 4.85622 0
M  V30 2193 H 207.537 -3.15024 4.2198 0
M  V30 2194 H 210.028 -1.92435 3.25234 0
M  V30 2195 H 210.341 -3.38423 6.94759 0
M  V30 2196 H 208.686 -3.04978 6.24511 0
M  V30 2197 H 211.877 -2.31078 4.07088 0
M  V30 2198 H 212.05 -2.9767 5.75584 0
M  V30 2199 N 205.456 -1.28612 -0.910864 0
M  V30 2200 C 206.388 -1.08589 -2.01844 0
M  V30 2201 C 207.401 -0.0367419 -1.62759 0
M  V30 2202 O 208.59 -0.280101 -1.76289 0
M  V30 2203 C 205.69 -0.628626 -3.33019 0
M  V30 2204 C 204.863 -1.75382 -4.00699 0
M  V30 2205 C 203.922 -1.28945 -5.10156 0
M  V30 2206 O 202.948 -1.9922 -5.33198 0
M  V30 2207 N 204.15 -0.154224 -5.80295 0
M  V30 2208 H 206.915 -2.03973 -2.19579 0
M  V30 2209 H 204.476 -1.20403 -1.08234 0
M  V30 2210 H 206.468 -0.301508 -4.03575 0
M  V30 2211 H 205.038 0.232451 -3.11735 0
M  V30 2212 H 204.258 -2.25039 -3.23653 0
M  V30 2213 H 205.546 -2.50854 -4.42662 0
M  V30 2214 H 204.944 0.43194 -5.64049 0
M  V30 2215 H 203.501 0.113599 -6.51701 0
M  V30 2216 N 206.934 1.1197 -1.10907 0
M  V30 2217 C 208.164 1.8713 -0.875553 0
M  V30 2218 C 208.572 1.8016 0.577843 0
M  V30 2219 O 207.915 1.17699 1.41042 0
M  V30 2220 C 207.977 3.37005 -1.2517 0
M  V30 2221 C 207.641 3.67748 -2.71313 0
M  V30 2222 C 208.638 3.65698 -3.69542 0
M  V30 2223 C 206.323 3.96928 -3.07821 0
M  V30 2224 C 208.317 3.92395 -5.023 0
M  V30 2225 C 206.004 4.23284 -4.40765 0
M  V30 2226 C 207.002 4.21005 -5.37814 0
M  V30 2227 O 206.69 4.46704 -6.68364 0
M  V30 2228 H 206.422 0.598786 -0.313737 0
M  V30 2229 H 208.976 1.42568 -1.47863 0
M  V30 2230 H 207.206 3.82146 -0.591741 0
M  V30 2231 H 208.895 3.93519 -0.994877 0
M  V30 2232 H 209.661 3.43211 -3.42682 0
M  V30 2233 H 205.54 3.97841 -2.32902 0
M  V30 2234 H 209.084 3.90531 -5.78041 0
M  V30 2235 H 204.981 4.45246 -4.67361 0
M  V30 2236 H 205.749 4.64299 -6.74069 0
M  V30 2237 N 208.412 0.89855 1.29475 0
M  V30 2238 C 209.342 0.39201 2.30186 0
M  V30 2239 C 210.323 -0.532359 1.61555 0
M  V30 2240 O 211.508 -0.443331 1.89072 0
M  V30 2241 C 208.638 -0.382353 3.45189 0
M  V30 2242 C 207.592 0.451483 4.25612 0
M  V30 2243 C 206.918 -0.450307 5.328 0
M  V30 2244 C 208.218 1.70079 4.93832 0
M  V30 2245 H 209.912 1.23362 2.72804 0
M  V30 2246 H 207.458 0.594638 1.31149 0
M  V30 2247 H 209.411 -0.747451 4.14718 0
M  V30 2248 H 208.135 -1.25774 3.01411 0
M  V30 2249 H 206.794 0.798897 3.57789 0
M  V30 2250 H 206.442 -1.32379 4.85268 0
M  V30 2251 H 206.142 0.103902 5.87508 0
M  V30 2252 H 207.666 -0.811623 6.05182 0
M  V30 2253 H 209.08 1.40549 5.55805 0
M  V30 2254 H 207.477 2.19623 5.58467 0
M  V30 2255 H 208.547 2.43744 4.19186 0
M  V30 2256 N 209.89 -1.43072 0.660911 0
M  V30 2257 C 210.853 -2.29194 -0.0166406 0
M  V30 2258 C 211.853 -1.42609 -0.742912 0
M  V30 2259 O 213.043 -1.64155 -0.583004 0
M  V30 2260 C 210.175 -3.24831 -1.0343 0
M  V30 2261 H 211.368 -2.90596 0.741208 0
M  V30 2262 H 208.921 -1.5048 0.422532 0
M  V30 2263 H 209.656 -2.68339 -1.82111 0
M  V30 2264 H 209.441 -3.88676 -0.517082 0
M  V30 2265 H 210.931 -3.89451 -1.50723 0
M  V30 2266 N 211.368 -0.403325 -1.52352 0
M  V30 2267 C 212.316 0.439752 -2.28405 0
M  V30 2268 C 213.31 1.05089 -1.32863 0
M  V30 2269 O 214.516 0.989759 -1.50345 0
M  V30 2270 H 210.891 0.160587 -0.734653 0
M  V30 2271 H 212.862 -0.222983 -2.97566 0
M  V30 2272 C 211.611 1.54736 -3.11371 0
M  V30 2273 H 210.934 1.08643 -3.84755 0
M  V30 2274 H 212.374 2.1112 -3.67701 0
M  V30 2275 C 210.833 2.51141 -2.24566 0
M  V30 2276 O 211.363 3.54887 -1.88196 0
M  V30 2277 N 209.569 2.21213 -1.8845 0
M  V30 2278 H 209.116 1.36878 -2.18225 0
M  V30 2279 H 209.074 2.85963 -1.30662 0
M  V30 2280 N 212.846 1.57033 -0.133567 0
M  V30 2281 C 214.093 1.95686 0.520877 0
M  V30 2282 C 214.421 1.0177 1.6575 0
M  V30 2283 O 213.676 0.0443195 1.9565 0
M  V30 2284 C 213.975 3.40674 1.08057 0
M  V30 2285 C 213.641 4.50855 0.0637899 0
M  V30 2286 C 212.303 4.80716 -0.215757 0
M  V30 2287 C 214.655 5.17398 -0.62835 0
M  V30 2288 C 211.983 5.74433 -1.19348 0
M  V30 2289 C 214.335 6.12167 -1.5948 0
M  V30 2290 C 212.999 6.40414 -1.88218 0
M  V30 2291 H 212.269 0.716067 0.190602 0
M  V30 2292 H 214.916 1.9026 -0.217556 0
M  V30 2293 H 213.221 3.42865 1.89606 0
M  V30 2294 H 214.918 3.67902 1.59529 0
M  V30 2295 H 211.508 4.27605 0.291855 0
M  V30 2296 H 215.692 4.94472 -0.425562 0
M  V30 2297 H 210.948 5.94616 -1.42272 0
M  V30 2298 H 215.122 6.6281 -2.13671 0
M  V30 2299 H 212.749 7.12838 -2.64133 0
M  V30 2300 N 214.325 -0.140222 1.56975 0
M  V30 2301 C 215.571 -0.852949 1.83991 0
M  V30 2302 C 215.904 -1.80512 0.716187 0
M  V30 2303 O 215.179 -1.92479 -0.279681 0
M  V30 2304 C 215.462 -1.6215 3.21527 0
M  V30 2305 C 215.315 -0.690363 4.4447 0
M  V30 2306 C 216.634 -2.58247 3.56366 0
M  V30 2307 H 213.753 -0.308634 0.669264 0
M  V30 2308 H 216.395 -0.117898 1.89634 0
M  V30 2309 H 214.545 -2.24812 3.16847 0
M  V30 2310 H 216.217 -0.0742264 4.6124 0
M  V30 2311 H 214.46 -0.000396433 4.338 0
M  V30 2312 H 215.131 -1.2643 5.37326 0
M  V30 2313 H 217.607 -2.05701 3.61699 0
M  V30 2314 H 216.483 -3.09067 4.53617 0
M  V30 2315 H 216.744 -3.39923 2.82674 0
M  V30 2316 N 215.803 -1.52179 -0.40978 0
M  V30 2317 C 217.049 -1.66453 -1.15851 0
M  V30 2318 C 217.382 -0.392972 -1.90182 0
M  V30 2319 O 216.657 0.608579 -1.84734 0
M  V30 2320 C 216.94 -2.88612 -2.15349 0
M  V30 2321 C 216.793 -4.25815 -1.44918 0
M  V30 2322 C 218.112 -3.06294 -3.16026 0
M  V30 2323 H 215.231 -0.60575 -0.419805 0
M  V30 2324 H 217.873 -1.84732 -0.444314 0
M  V30 2325 H 216.023 -2.73158 -2.76255 0
M  V30 2326 H 217.695 -4.52995 -0.871365 0
M  V30 2327 H 215.938 -4.27247 -0.751159 0
M  V30 2328 H 216.609 -5.07337 -2.17516 0
M  V30 2329 H 219.085 -3.20641 -2.65195 0
M  V30 2330 H 217.961 -3.93283 -3.8291 0
M  V30 2331 H 218.222 -2.19579 -3.83715 0
M  V30 2332 N 217.281 0.66697 -1.42791 0
M  V30 2333 C 218.527 1.4291 -1.43891 0
M  V30 2334 C 218.86 1.94114 -0.0578972 0
M  V30 2335 O 218.135 1.71414 0.91911 0
M  V30 2336 C 218.418 2.62049 -2.46987 0
M  V30 2337 C 218.271 2.16426 -3.94309 0
M  V30 2338 C 219.59 3.64266 -2.46978 0
M  V30 2339 H 216.709 0.518306 -0.523954 0
M  V30 2340 H 219.351 0.757321 -1.74255 0
M  V30 2341 H 217.501 3.19361 -2.21225 0
M  V30 2342 H 219.173 1.64221 -4.31079 0
M  V30 2343 H 217.416 1.47925 -4.078 0
M  V30 2344 H 218.087 3.02038 -4.62036 0
M  V30 2345 H 220.563 3.16686 -2.69906 0
M  V30 2346 H 219.439 4.45196 -3.21079 0
M  V30 2347 H 219.7 4.15927 -1.49857 0
M  V30 2348 N 218.759 1.29093 0.90403 0
M  V30 2349 C 220.17 1.15186 1.46932 0
M  V30 2350 C 220.521 -0.254587 1.94541 0
M  V30 2351 O 219.646 -1.14972 1.83332 0
M  V30 2352 C 220.241 2.08492 2.67051 0
M  V30 2353 C 218.8 1.98621 3.19729 0
M  V30 2354 C 217.947 1.9967 1.92425 0
M  V30 2355 H 220.898 1.41641 0.715789 0
M  V30 2356 H 220.919 1.65461 3.42641 0
M  V30 2357 H 220.431 3.10847 2.3237 0
M  V30 2358 H 218.532 0.993389 3.59114 0
M  V30 2359 H 218.645 2.86068 3.8432 0
M  V30 2360 H 217.009 1.44208 2.09943 0
M  V30 2361 H 217.792 3.03721 1.60026 0
M  V30 2362 N 220.237 -1.11381 1.11499 0
M  V30 2363 C 221.167 -2.19509 0.796125 0
M  V30 2364 C 222.148 -1.68458 -0.235796 0
M  V30 2365 O 223.333 -1.93947 -0.0991344 0
M  V30 2366 C 220.463 -3.46475 0.239205 0
M  V30 2367 C 219.417 -4.10744 1.20307 0
M  V30 2368 C 218.743 -5.32293 0.50683 0
M  V30 2369 C 220.043 -4.55597 2.55399 0
M  V30 2370 H 221.737 -2.46439 1.70024 0
M  V30 2371 H 219.283 -1.18446 0.818935 0
M  V30 2372 H 221.236 -4.214 0.00392006 0
M  V30 2373 H 219.96 -3.19006 -0.700206 0
M  V30 2374 H 218.619 -3.37813 1.42399 0
M  V30 2375 H 218.267 -5.01095 -0.437408 0
M  V30 2376 H 217.967 -5.76243 1.1497 0
M  V30 2377 H 219.491 -6.09956 0.280351 0
M  V30 2378 H 220.905 -5.21841 2.37391 0
M  V30 2379 H 219.302 -5.10363 3.15673 0
M  V30 2380 H 220.372 -3.69013 3.14575 0
M  V30 2381 N 221.715 -0.905404 -1.28997 0
M  V30 2382 C 222.625 -0.392246 -2.31298 0
M  V30 2383 C 223.641 0.515889 -1.66176 0
M  V30 2384 O 224.817 0.404093 -1.97304 0
M  V30 2385 C 221.882 0.36686 -3.44754 0
M  V30 2386 C 220.943 -0.573485 -4.25452 0
M  V30 2387 C 220.176 0.149488 -5.33491 0
M  V30 2388 O 220.399 1.37255 -5.5364 0
M  V30 2389 O 219.333 -0.510919 -5.99728 0
M  V30 2390 H 223.159 -1.2411 -2.77183 0
M  V30 2391 H 220.744 -0.669926 -1.33538 0
M  V30 2392 H 222.626 0.795907 -4.13816 0
M  V30 2393 H 221.301 1.19169 -3.00966 0
M  V30 2394 H 220.208 -1.05176 -3.59011 0
M  V30 2395 H 221.541 -1.36489 -4.72897 0
M  V30 2396 N 223.193 1.4272 -0.668489 0
M  V30 2397 C 224.47 1.95248 -0.117373 0
M  V30 2398 C 224.85 1.60919 1.36632 0
M  V30 2399 O 224.198 0.902095 2.09939 0
M  V30 2400 C 224.408 3.46927 -0.379806 0
M  V30 2401 C 225.756 4.23588 -0.292923 0
M  V30 2402 O 226.78 3.5482 -0.313204 0
M  V30 2403 O 225.639 5.46017 -0.229697 0
M  V30 2404 H 222.733 0.827 0.00079152 0
M  V30 2405 H 225.279 1.52581 -0.742783 0
M  V30 2406 H 224.051 3.65096 -1.40786 0
M  V30 2407 H 223.674 3.96627 0.277923 0
M  V30 2408 N 224.671 0.411399 1.52136 0
M  V30 2409 C 225.948 -0.222308 1.94333 0
M  V30 2410 C 226.328 -1.6242 1.34844 0
M  V30 2411 O 225.676 -2.22384 0.525145 0
M  V30 2412 C 225.886 -0.226345 3.48265 0
M  V30 2413 C 227.234 -0.444592 4.22266 0
M  V30 2414 O 228.258 -0.305602 3.54887 0
M  V30 2415 O 227.117 -0.718749 5.41753 0
M  V30 2416 H 224.211 -0.143907 0.814383 0
M  V30 2417 H 226.757 0.467506 1.63133 0
M  V30 2418 H 225.529 0.75475 3.83952 0
M  V30 2419 H 225.152 -0.960163 3.85832 0
M  V30 2420 N 226.149 -1.5696 0.141893 0
M  V30 2421 C 227.397 -1.95573 -0.509484 0
M  V30 2422 C 227.718 -1.02746 -1.65736 0
M  V30 2423 O 226.988 -0.0880311 -1.95702 0
M  V30 2424 H 225.568 -0.722115 -0.191205 0
M  V30 2425 H 228.23 -1.93697 0.216196 0
M  V30 2426 H 227.326 -2.99171 -0.889 0
M  V30 2427 N 227.627 0.131896 -1.57047 0
M  V30 2428 C 228.56 1.19236 -1.94571 0
M  V30 2429 C 229.538 1.40782 -0.813576 0
M  V30 2430 O 230.722 1.55148 -1.07058 0
M  V30 2431 C 227.849 2.54858 -2.23081 0
M  V30 2432 C 226.895 2.49817 -3.45679 0
M  V30 2433 S 227.728 1.95036 -4.98719 0
M  V30 2434 C 228.884 3.32357 -5.30367 0
M  V30 2435 H 229.117 0.872297 -2.84215 0
M  V30 2436 H 226.65 0.338134 -1.50652 0
M  V30 2437 H 228.608 3.32898 -2.40185 0
M  V30 2438 H 227.269 2.84047 -1.34074 0
M  V30 2439 H 226.462 3.49688 -3.62952 0
M  V30 2440 H 226.064 1.79892 -3.27895 0
M  V30 2441 H 228.356 4.28525 -5.2476 0
M  V30 2442 H 229.299 3.19923 -6.31708 0
M  V30 2443 H 229.707 3.3019 -4.57859 0
M  V30 2444 N 229.106 1.52395 0.401703 0
M  V30 2445 C 230.383 1.57387 1.16141 0
M  V30 2446 C 230.763 0.359359 2.08019 0
M  V30 2447 O 230.111 -0.65326 2.18963 0
M  V30 2448 C 230.321 2.90631 1.93221 0
M  V30 2449 C 231.669 3.43904 2.49028 0
M  V30 2450 O 232.693 2.92421 2.03393 0
M  V30 2451 O 231.552 4.33823 3.32356 0
M  V30 2452 H 228.646 0.634262 0.530698 0
M  V30 2453 H 231.192 1.64725 0.407883 0
M  V30 2454 H 229.964 3.70473 1.25958 0
M  V30 2455 H 229.587 2.8662 2.75563 0
M  V30 2456 N 230.584 -0.659388 1.43143 0
M  V30 2457 C 231.514 -1.78422 1.50625 0
M  V30 2458 C 232.495 -1.66216 0.361443 0
M  V30 2459 O 233.68 -1.85404 0.577834 0
M  V30 2460 C 230.81 -3.16815 1.42287 0
M  V30 2461 C 229.764 -3.43777 2.54954 0
M  V30 2462 C 229.09 -4.81905 2.31671 0
M  V30 2463 C 230.39 -3.39134 3.97222 0
M  V30 2464 H 232.084 -1.72417 2.44771 0
M  V30 2465 H 229.63 -0.828084 1.17808 0
M  V30 2466 H 231.583 -3.95253 1.46127 0
M  V30 2467 H 230.307 -3.23534 0.446435 0
M  V30 2468 H 228.966 -2.67707 2.50457 0
M  V30 2469 H 228.614 -4.85294 1.32284 0
M  V30 2470 H 228.314 -5.00906 3.07192 0
M  V30 2471 H 229.838 -5.62609 2.37284 0
M  V30 2472 H 231.252 -4.07518 4.03239 0
M  V30 2473 H 229.649 -3.69671 4.72719 0
M  V30 2474 H 230.719 -2.37426 4.22797 0
M  V30 2475 N 232.062 -1.29571 -0.897171 0
M  V30 2476 C 233.01 -1.14802 -2.02295 0
M  V30 2477 C 234.004 -0.0629637 -1.69283 0
M  V30 2478 O 235.21 -0.222945 -1.78614 0
M  V30 2479 H 231.585 -0.354692 -0.663097 0
M  V30 2480 H 233.556 -2.10108 -2.11889 0
M  V30 2481 C 232.305 -0.843966 -3.37302 0
M  V30 2482 H 231.628 -1.67093 -3.63208 0
M  V30 2483 H 233.068 -0.780672 -4.16751 0
M  V30 2484 C 231.527 0.452843 -3.33843 0
M  V30 2485 O 232.057 1.47813 -3.73516 0
M  V30 2486 N 230.263 0.459601 -2.86943 0
M  V30 2487 H 229.81 -0.375213 -2.54853 0
M  V30 2488 H 229.768 1.32726 -2.85011 0
M  V30 2489 N 233.54 1.10788 -1.12088 0
M  V30 2490 C 234.786 1.82942 -0.875226 0
M  V30 2491 C 235.119 1.84779 0.597538 0
M  V30 2492 O 234.394 1.30578 1.44152 0
M  V30 2493 C 234.677 3.29789 -1.44606 0
M  V30 2494 C 234.53 3.36307 -2.98693 0
M  V30 2495 C 235.849 4.26064 -1.10261 0
M  V30 2496 H 232.968 0.664195 -0.319397 0
M  V30 2497 H 235.61 1.29867 -1.38689 0
M  V30 2498 H 233.76 3.75118 -1.01089 0
M  V30 2499 H 235.432 2.99487 -3.50864 0
M  V30 2500 H 233.675 2.76318 -3.34411 0
M  V30 2501 H 234.346 4.39694 -3.33726 0
M  V30 2502 H 236.822 3.88951 -1.4784 0
M  V30 2503 H 235.698 5.27183 -1.52869 0
M  V30 2504 H 235.959 4.42098 -0.0142953 0
M  V30 2505 N 235.018 0.912232 1.28515 0
M  V30 2506 C 235.948 0.416403 2.29757 0
M  V30 2507 C 236.929 -0.515194 1.6211 0
M  V30 2508 O 238.114 -0.423253 1.89532 0
M  V30 2509 C 235.244 -0.34572 3.45575 0
M  V30 2510 C 234.198 0.496599 4.25109 0
M  V30 2511 C 233.524 -0.393771 5.33248 0
M  V30 2512 C 234.824 1.75307 4.92001 0
M  V30 2513 H 236.518 1.26249 2.7148 0
M  V30 2514 H 234.064 0.608515 1.30511 0
M  V30 2515 H 236.017 -0.703422 4.15488 0
M  V30 2516 H 234.741 -1.2257 3.02728 0
M  V30 2517 H 233.4 0.8368 3.56922 0
M  V30 2518 H 233.048 -1.27225 4.86644 0
M  V30 2519 H 232.748 0.166209 5.87365 0
M  V30 2520 H 234.272 -0.747389 6.06009 0
M  V30 2521 H 235.686 1.46437 5.54283 0
M  V30 2522 H 234.083 2.25534 5.56106 0
M  V30 2523 H 235.153 2.48176 4.16577 0
M  V30 2524 N 236.496 -1.42363 0.676048 0
M  V30 2525 C 237.406 -2.346 -0.00153389 0
M  V30 2526 C 238.422 -1.5516 -0.787485 0
M  V30 2527 O 239.598 -1.87723 -0.729521 0
M  V30 2528 C 236.663 -3.33705 -0.940298 0
M  V30 2529 C 235.724 -4.29042 -0.148739 0
M  V30 2530 C 234.957 -5.23413 -1.04279 0
M  V30 2531 O 235.18 -5.22749 -2.28232 0
M  V30 2532 O 234.114 -5.99795 -0.502925 0
M  V30 2533 H 237.94 -2.94082 0.758268 0
M  V30 2534 H 235.525 -1.42888 0.436289 0
M  V30 2535 H 237.407 -3.94586 -1.47917 0
M  V30 2536 H 236.082 -2.76695 -1.67993 0
M  V30 2537 H 234.989 -3.71571 0.43427 0
M  V30 2538 H 236.322 -4.89097 0.551805 0
M  V30 2539 N 237.974 -0.419461 -1.51915 0
M  V30 2540 C 239.39 -0.0708431 -1.59443 0
M  V30 2541 C 239.59 1.41796 -1.43164 0
M  V30 2542 O 238.646 2.18596 -1.26381 0
M  V30 2543 C 239.959 -0.574991 -2.95151 0
M  V30 2544 C 241.507 -0.533867 -3.08413 0
M  V30 2545 C 241.982 -1.01469 -4.46618 0
M  V30 2546 N 243.473 -0.971939 -4.52888 0
M  V30 2547 C 244.208 -1.31505 -5.58116 0
M  V30 2548 N 243.704 -1.73014 -6.70849 0
M  V30 2549 N 245.497 -1.23436 -5.48379 0
M  V30 2550 H 237.648 -1.38836 -1.60743 0
M  V30 2551 H 239.911 -0.570998 -0.756747 0
M  V30 2552 H 239.617 -1.61597 -3.12377 0
M  V30 2553 H 239.491 0.00979777 -3.77199 0
M  V30 2554 H 241.878 0.498086 -2.90866 0
M  V30 2555 H 241.959 -1.15484 -2.28248 0
M  V30 2556 H 241.603 -2.04502 -4.6491 0
M  V30 2557 H 241.533 -0.370433 -5.25295 0
M  V30 2558 H 244.024 -0.666893 -3.71969 0
M  V30 2559 H 244.337 -1.97479 -7.47143 0
M  V30 2560 H 242.682 -1.76926 -6.72103 0
M  V30 2561 H 245.873 -0.908869 -4.59192 0
M  V30 2562 H 246.046 -1.50506 -6.30279 0
M  V30 2563 N 239.452 1.56882 -0.150215 0
M  V30 2564 C 240.399 2.16922 0.788244 0
M  V30 2565 C 241.369 1.10303 1.24187 0
M  V30 2566 O 242.554 1.38359 1.31383 0
M  V30 2567 C 239.694 2.79754 2.02068 0
M  V30 2568 C 238.807 4.00775 1.61257 0
M  V30 2569 C 237.942 4.51595 2.79705 0
M  V30 2570 C 236.981 5.65074 2.35282 0
M  V30 2571 N 236.118 6.10499 3.4675 0
M  V30 2572 H 240.958 2.96779 0.269444 0
M  V30 2573 H 238.495 1.46599 0.12128 0
M  V30 2574 H 240.453 3.14329 2.74323 0
M  V30 2575 H 239.083 2.02536 2.51354 0
M  V30 2576 H 238.135 3.72158 0.787553 0
M  V30 2577 H 239.447 4.82978 1.24633 0
M  V30 2578 H 238.601 4.88242 3.60145 0
M  V30 2579 H 237.34 3.68406 3.19576 0
M  V30 2580 H 236.345 5.28 1.53283 0
M  V30 2581 H 237.57 6.50052 1.96493 0
M  V30 2582 H 235.516 5.30243 3.86236 0
M  V30 2583 H 235.433 6.87637 3.14152 0
M  V30 2584 H 236.701 6.51791 4.27537 0
M  V30 2585 N 240.93 -0.123565 1.57115 0
M  V30 2586 C 241.86 -1.15309 2.03042 0
M  V30 2587 C 242.841 -1.43454 0.914061 0
M  V30 2588 O 244.026 -1.53973 1.18347 0
M  V30 2589 C 241.156 -2.48043 2.43089 0
M  V30 2590 C 240.11 -2.3437 3.58127 0
M  V30 2591 C 239.436 -3.72026 3.84059 0
M  V30 2592 C 240.736 -1.80804 4.90007 0
M  V30 2593 H 242.43 -0.771102 2.893 0
M  V30 2594 H 239.976 -0.369479 1.39179 0
M  V30 2595 H 241.929 -3.20311 2.73823 0
M  V30 2596 H 240.653 -2.88122 1.53796 0
M  V30 2597 H 239.312 -1.64551 3.27595 0
M  V30 2598 H 238.96 -4.09582 2.91979 0
M  V30 2599 H 238.66 -3.63732 4.6149 0
M  V30 2600 H 240.184 -4.45806 4.1724 0
M  V30 2601 H 241.598 -2.42886 5.19307 0
M  V30 2602 H 239.995 -1.83343 5.71407 0
M  V30 2603 H 241.065 -0.76528 4.78823 0
M  V30 2604 N 242.408 -1.52605 -0.393616 0
M  V30 2605 C 243.633 -1.71592 -1.16495 0
M  V30 2606 C 244.058 -0.43133 -1.83088 0
M  V30 2607 O 243.416 0.612523 -1.7064 0
M  V30 2608 C 243.464 -2.86318 -2.19213 0
M  V30 2609 O 242.568 -2.52969 -3.257 0
M  V30 2610 H 241.909 -0.570734 -0.33935 0
M  V30 2611 H 244.439 -1.99377 -0.459324 0
M  V30 2612 H 244.449 -3.1168 -2.63286 0
M  V30 2613 H 243.124 -3.79511 -1.7013 0
M  V30 2614 H 241.701 -2.38332 -2.86797 0
M  V30 2615 N 243.887 0.651787 -1.4349 0
M  V30 2616 C 244.797 1.79368 -1.5121 0
M  V30 2617 C 245.813 1.69361 -0.399093 0
M  V30 2618 O 246.989 1.90505 -0.653431 0
M  V30 2619 C 244.054 3.15653 -1.43401 0
M  V30 2620 C 243.115 3.37446 -2.65384 0
M  V30 2621 C 242.348 4.67229 -2.57939 0
M  V30 2622 O 242.571 5.46676 -1.62792 0
M  V30 2623 O 241.505 4.90773 -3.48462 0
M  V30 2624 H 245.331 1.7581 -2.47638 0
M  V30 2625 H 242.916 0.810447 -1.25507 0
M  V30 2626 H 244.798 3.96935 -1.41494 0
M  V30 2627 H 243.473 3.19798 -0.501085 0
M  V30 2628 H 242.38 2.55923 -2.72863 0
M  V30 2629 H 243.713 3.38148 -3.57654 0
M  V30 2630 N 245.365 1.30045 0.890287 0
M  V30 2631 C 246.612 1.18561 1.64163 0
M  V30 2632 C 246.94 -0.260852 1.92743 0
M  V30 2633 O 246.195 -1.20376 1.54299 0
M  V30 2634 C 246.494 1.95409 2.99249 0
M  V30 2635 C 246.16 3.45066 2.90242 0
M  V30 2636 C 244.822 3.85878 2.87492 0
M  V30 2637 C 247.174 4.4039 2.78758 0
M  V30 2638 C 244.502 5.20314 2.7109 0
M  V30 2639 C 246.854 5.74928 2.63894 0
M  V30 2640 C 245.518 6.14986 2.59516 0
M  V30 2641 H 244.788 0.433846 0.600715 0
M  V30 2642 H 247.435 1.61088 1.03552 0
M  V30 2643 H 245.74 1.45501 3.63781 0
M  V30 2644 H 247.437 1.8392 3.56334 0
M  V30 2645 H 244.027 3.12631 2.93189 0
M  V30 2646 H 248.211 4.09806 2.79952 0
M  V30 2647 H 243.467 5.50449 2.66112 0
M  V30 2648 H 247.641 6.48434 2.53981 0
M  V30 2649 H 245.268 7.19104 2.46565 0
M  V30 2650 N 246.843 -1.10192 1.12674 0
M  V30 2651 C 248.12 -1.78717 0.794965 0
M  V30 2652 C 248.5 -1.98628 -0.714853 0
M  V30 2653 O 247.848 -1.58135 -1.64941 0
M  V30 2654 C 248.058 -3.11546 1.5729 0
M  V30 2655 C 249.406 -3.86382 1.76052 0
M  V30 2656 O 250.43 -3.21274 1.53823 0
M  V30 2657 O 249.289 -5.03246 2.13087 0
M  V30 2658 H 246.383 -0.774702 0.289423 0
M  V30 2659 H 248.929 -1.16819 1.23091 0
M  V30 2660 H 247.701 -2.92489 2.59935 0
M  V30 2661 H 247.324 -3.81164 1.13137 0
M  V30 2662 N 248.321 -0.919034 -1.28029 0
M  V30 2663 C 249.268 -0.410005 -2.27129 0
M  V30 2664 C 250.238 0.518405 -1.57803 0
M  V30 2665 O 251.423 0.439451 -1.8567 0
M  V30 2666 C 248.563 0.339054 -3.4343 0
M  V30 2667 C 247.676 -0.622468 -4.27492 0
M  V30 2668 C 246.811 0.145567 -5.31001 0
M  V30 2669 C 245.85 -0.809226 -6.06727 0
M  V30 2670 N 244.987 -0.0743728 -7.02061 0
M  V30 2671 H 249.827 -1.26011 -2.70047 0
M  V30 2672 H 247.364 -0.632663 -1.328 0
M  V30 2673 H 249.322 0.789586 -4.0966 0
M  V30 2674 H 247.952 1.15346 -3.01488 0
M  V30 2675 H 247.004 -1.19153 -3.61257 0
M  V30 2676 H 248.316 -1.35252 -4.80113 0
M  V30 2677 H 247.47 0.656417 -6.03139 0
M  V30 2678 H 246.209 0.908643 -4.79161 0
M  V30 2679 H 245.214 -1.3314 -5.33436 0
M  V30 2680 H 246.439 -1.57194 -6.60656 0
M  V30 2681 H 244.385 0.670616 -6.52563 0
M  V30 2682 H 244.302 -0.744157 -7.52329 0
M  V30 2683 H 245.57 0.416109 -7.78389 0
M  V30 2684 N 249.799 1.42003 -0.683588 0
M  V30 2685 C 250.747 2.326 0.000815408 0
M  V30 2686 C 251.741 1.50308 0.781278 0
M  V30 2687 O 252.947 1.66322 0.688251 0
M  V30 2688 H 249.322 0.751758 0.0190616 0
M  V30 2689 H 251.293 2.88011 -0.780528 0
M  V30 2690 C 250.042 3.34978 0.93195 0
M  V30 2691 H 249.365 3.98345 0.340817 0
M  V30 2692 H 250.805 4.00936 1.37936 0
M  V30 2693 C 249.264 2.67925 2.04249 0
M  V30 2694 O 249.794 2.51788 3.12995 0
M  V30 2695 N 248 2.2681 1.81675 0
M  V30 2696 H 247.547 2.40135 0.932363 0
M  V30 2697 H 247.505 1.8228 2.56167 0
M  V30 2698 N 251.277 0.427512 1.51691 0
M  V30 2699 C 252.525 -0.141948 2.01601 0
M  V30 2700 C 252.846 -1.44067 1.31414 0
M  V30 2701 O 252.116 -1.90763 0.445658 0
M  V30 2702 H 250.696 -0.0554468 0.744939 0
M  V30 2703 H 253.358 0.567968 1.86441 0
M  V30 2704 H 252.454 -0.324913 3.10404 0
M  V30 2705 N 252.755 -1.56801 0.158532 0
M  V30 2706 C 253.702 -2.17337 -0.776729 0
M  V30 2707 C 254.672 -1.1096 -1.23601 0
M  V30 2708 O 255.857 -1.39054 -1.30647 0
M  V30 2709 C 252.997 -2.80822 -2.00582 0
M  V30 2710 C 252.11 -4.01624 -1.59129 0
M  V30 2711 C 251.245 -4.53072 -2.77306 0
M  V30 2712 C 250.284 -5.66314 -2.32282 0
M  V30 2713 N 249.421 -6.12329 -3.43508 0
M  V30 2714 H 254.261 -2.96918 -0.253701 0
M  V30 2715 H 251.798 -1.46661 -0.113504 0
M  V30 2716 H 253.756 -3.15779 -2.72652 0
M  V30 2717 H 252.386 -2.03866 -2.50277 0
M  V30 2718 H 251.438 -3.72571 -0.767806 0
M  V30 2719 H 252.75 -4.83633 -1.2207 0
M  V30 2720 H 251.904 -4.90145 -3.57551 0
M  V30 2721 H 250.643 -3.70095 -3.17617 0
M  V30 2722 H 249.648 -5.28806 -1.5048 0
M  V30 2723 H 250.873 -6.51085 -1.93043 0
M  V30 2724 H 248.819 -5.32284 -3.83418 0
M  V30 2725 H 248.736 -6.89293 -3.105 0
M  V30 2726 H 250.004 -6.5405 -4.24075 0
M  V30 2727 N 254.233 0.115231 -1.57178 0
M  V30 2728 C 255.482 0.820945 -1.84237 0
M  V30 2729 C 255.795 1.80866 -0.744761 0
M  V30 2730 O 257.001 2.56083 -0.901871 0
M  V30 2731 C 255.457 1.51072 -3.26658 0
M  V30 2732 C 255.065 0.563795 -4.44438 0
M  V30 2733 C 256.809 2.20134 -3.62962 0
M  V30 2734 C 254.716 1.25701 -5.77887 0
M  V30 2735 H 253.646 0.310328 -0.687177 0
M  V30 2736 H 256.297 0.0737134 -1.83352 0
M  V30 2737 H 254.679 2.30471 -3.22024 0
M  V30 2738 H 255.853 -0.197247 -4.60378 0
M  V30 2739 H 254.168 -0.0200638 -4.16395 0
M  V30 2740 H 256.765 2.72696 -4.59936 0
M  V30 2741 H 257.108 2.98107 -2.90582 0
M  V30 2742 H 257.641 1.47619 -3.69396 0
M  V30 2743 H 254.38 0.518493 -6.53446 0
M  V30 2744 H 253.9 1.98997 -5.65827 0
M  V30 2745 H 255.579 1.78915 -6.2177 0
M  V30 2746 N 255.711 1.52812 0.385517 0
M  V30 2747 C 256.658 1.77838 1.47113 0
M  V30 2748 C 257.628 0.621757 1.54024 0
M  V30 2749 O 258.813 0.861846 1.70226 0
M  V30 2750 C 255.953 1.95618 2.84302 0
M  V30 2751 C 255.066 3.23316 2.86515 0
M  V30 2752 C 254.201 3.31394 4.15152 0
M  V30 2753 C 253.24 4.53201 4.1143 0
M  V30 2754 N 252.377 4.58542 5.3168 0
M  V30 2755 H 257.217 2.70482 1.25073 0
M  V30 2756 H 254.754 1.34006 0.606692 0
M  V30 2757 H 256.712 2.03912 3.63972 0
M  V30 2758 H 255.342 1.06331 3.04784 0
M  V30 2759 H 254.394 3.24076 1.99195 0
M  V30 2760 H 255.706 4.13045 2.79634 0
M  V30 2761 H 254.86 3.3889 5.03228 0
M  V30 2762 H 253.599 2.39645 4.24761 0
M  V30 2763 H 252.604 4.45827 3.21742 0
M  V30 2764 H 253.829 5.46271 4.03442 0
M  V30 2765 H 251.775 3.69686 5.41912 0
M  V30 2766 H 251.692 5.42148 5.26889 0
M  V30 2767 H 252.96 4.70296 6.21644 0
M  V30 2768 N 257.189 -0.644168 1.43834 0
M  V30 2769 C 258.121 -1.76955 1.45669 0
M  V30 2770 C 259.134 -1.58956 0.351666 0
M  V30 2771 O 260.323 -1.6751 0.616644 0
M  V30 2772 C 257.423 -3.14507 1.26248 0
M  V30 2773 C 256.596 -3.59083 2.49757 0
M  V30 2774 C 255.655 -4.75467 2.25427 0
M  V30 2775 O 254.681 -4.84444 2.98836 0
M  V30 2776 N 255.883 -5.66289 1.27661 0
M  V30 2777 H 258.648 -1.75856 2.42682 0
M  V30 2778 H 256.209 -0.828312 1.39106 0
M  V30 2779 H 258.201 -3.90067 1.0784 0
M  V30 2780 H 256.771 -3.10325 0.376478 0
M  V30 2781 H 255.991 -2.7387 2.8353 0
M  V30 2782 H 257.279 -3.85613 3.31934 0
M  V30 2783 H 256.677 -5.61718 0.670064 0
M  V30 2784 H 255.234 -6.41533 1.15234 0
M  V30 2785 N 258.668 -1.30515 -0.883378 0
M  V30 2786 C 259.914 -1.19607 -1.63774 0
M  V30 2787 C 260.247 0.248314 -1.92606 0
M  V30 2788 O 259.522 1.17742 -1.54813 0
M  V30 2789 C 259.805 -2.02669 -2.97653 0
M  V30 2790 C 259.658 -3.55335 -2.75784 0
M  V30 2791 C 260.977 -1.86573 -3.98596 0
M  V30 2792 H 258.096 -0.435856 -0.594305 0
M  V30 2793 H 260.738 -1.60165 -1.02212 0
M  V30 2794 H 258.888 -1.68208 -3.50197 0
M  V30 2795 H 260.56 -3.99863 -2.30016 0
M  V30 2796 H 258.803 -3.79438 -2.1026 0
M  V30 2797 H 259.474 -4.08745 -3.70988 0
M  V30 2798 H 261.95 -2.16703 -3.55217 0
M  V30 2799 H 260.826 -2.47014 -4.90179 0
M  V30 2800 H 261.087 -0.825321 -4.34328 0
M  V30 2801 N 260.146 1.09593 -1.13257 0
M  V30 2802 C 261.093 2.1618 -0.808381 0
M  V30 2803 C 262.063 1.64517 0.228754 0
M  V30 2804 O 263.248 1.9053 0.101381 0
M  V30 2805 C 260.388 3.43973 -0.278675 0
M  V30 2806 C 259.501 4.09545 -1.37466 0
M  V30 2807 C 258.636 5.25088 -0.803479 0
M  V30 2808 C 257.675 5.82579 -1.87799 0
M  V30 2809 N 256.812 6.89486 -1.32488 0
M  V30 2810 H 261.652 2.43254 -1.72138 0
M  V30 2811 H 259.189 1.19392 -0.859294 0
M  V30 2812 H 261.147 4.17174 0.0465583 0
M  V30 2813 H 259.777 3.17223 0.597459 0
M  V30 2814 H 258.829 3.34226 -1.81652 0
M  V30 2815 H 260.141 4.48307 -2.18684 0
M  V30 2816 H 259.295 6.05178 -0.429427 0
M  V30 2817 H 258.034 4.87684 0.0397956 0
M  V30 2818 H 257.039 5.01152 -2.26113 0
M  V30 2819 H 258.264 6.22045 -2.72463 0
M  V30 2820 H 256.21 6.54064 -0.503575 0
M  V30 2821 H 256.127 7.27007 -2.07355 0
M  V30 2822 H 257.395 7.73336 -0.978336 0
M  V30 2823 N 261.624 0.925811 1.2754 0
M  V30 2824 C 262.871 0.565255 1.94451 0
M  V30 2825 C 263.199 -0.89316 1.7278 0
M  V30 2826 O 262.454 -1.65213 1.04895 0
M  V30 2827 C 262.753 0.835296 3.47502 0
M  V30 2828 C 262.419 2.27515 3.89291 0
M  V30 2829 C 261.081 2.66879 4.00411 0
M  V30 2830 C 263.433 3.21158 4.10496 0
M  V30 2831 C 260.761 3.99014 4.30122 0
M  V30 2832 C 263.113 4.52871 4.4169 0
M  V30 2833 C 261.777 4.92072 4.51023 0
M  V30 2834 H 261.047 0.206841 0.711546 0
M  V30 2835 H 263.694 1.16942 1.51647 0
M  V30 2836 H 261.999 0.148442 3.91519 0
M  V30 2837 H 263.696 0.535322 3.97411 0
M  V30 2838 H 260.286 1.95976 3.81171 0
M  V30 2839 H 264.47 2.9195 4.01346 0
M  V30 2840 H 259.726 4.2907 4.35556 0
M  V30 2841 H 263.9 5.25436 4.57045 0
M  V30 2842 H 261.527 5.9449 4.738 0
M  V30 2843 N 263.102 -1.41638 0.69111 0
M  V30 2844 C 264.351 -2.00526 0.217318 0
M  V30 2845 C 264.664 -1.55353 -1.18848 0
M  V30 2846 O 265.87 -2.06769 -1.75951 0
M  V30 2847 C 264.326 -3.58313 0.337639 0
M  V30 2848 C 263.934 -4.12469 1.74852 0
M  V30 2849 C 265.678 -4.24431 -0.0766066 0
M  V30 2850 C 263.585 -5.62675 1.82074 0
M  V30 2851 H 262.515 -0.750008 0.0774893 0
M  V30 2852 H 265.166 -1.6217 0.858661 0
M  V30 2853 H 263.548 -3.9425 -0.371879 0
M  V30 2854 H 264.722 -3.8796 2.48644 0
M  V30 2855 H 263.037 -3.58861 2.11205 0
M  V30 2856 H 265.634 -5.34683 -0.0430284 0
M  V30 2857 H 265.977 -4.01101 -1.1146 0
M  V30 2858 H 266.51 -3.93512 0.582476 0
M  V30 2859 H 263.249 -5.90826 2.83911 0
M  V30 2860 H 262.769 -5.89124 1.12661 0
M  V30 2861 H 264.448 -6.27371 1.58159 0
M  V30 2862 N 264.58 -0.43555 -1.51462 0
M  V30 2863 C 265.81 0.130053 -2.0619 0
M  V30 2864 C 266.218 1.37164 -1.30317 0
M  V30 2865 O 265.561 1.80225 -0.355598 0
M  V30 2866 C 265.623 0.519418 -3.55728 0
M  V30 2867 C 265.287 -0.615119 -4.52841 0
M  V30 2868 C 266.284 -1.48671 -4.9819 0
M  V30 2869 C 263.969 -0.795341 -4.95963 0
M  V30 2870 C 265.963 -2.52324 -5.8533 0
M  V30 2871 C 263.65 -1.83514 -5.82894 0
M  V30 2872 C 264.648 -2.69748 -6.27475 0
M  V30 2873 O 264.336 -3.71944 -7.1268 0
M  V30 2874 H 264.068 0.0121612 -0.675891 0
M  V30 2875 H 266.622 -0.6129 -1.96043 0
M  V30 2876 H 264.852 1.31505 -3.63653 0
M  V30 2877 H 266.541 1.01597 -3.92979 0
M  V30 2878 H 267.307 -1.359 -4.65571 0
M  V30 2879 H 263.186 -0.133713 -4.60806 0
M  V30 2880 H 266.73 -3.19665 -6.20048 0
M  V30 2881 H 262.627 -1.96306 -6.14926 0
M  V30 2882 H 263.395 -3.68503 -7.30854 0
M  V30 2883 N 266.058 1.56714 -0.166846 0
M  V30 2884 C 267.304 1.97039 0.479962 0
M  V30 2885 C 267.637 1.05264 1.63197 0
M  V30 2886 O 266.912 0.0988833 1.94248 0
M  V30 2887 C 267.195 3.46867 0.967212 0
M  V30 2888 C 267.048 4.49421 -0.18466 0
M  V30 2889 C 268.367 3.9968 1.84238 0
M  V30 2890 H 265.486 0.71641 0.172992 0
M  V30 2891 H 268.128 1.8832 -0.252079 0
M  V30 2892 H 266.278 3.54428 1.59101 0
M  V30 2893 H 267.95 4.53924 -0.821621 0
M  V30 2894 H 266.193 4.25573 -0.840837 0
M  V30 2895 H 266.864 5.51644 0.198317 0
M  V30 2896 H 269.34 3.94723 1.31655 0
M  V30 2897 H 268.216 5.04941 2.15234 0
M  V30 2898 H 268.477 3.43226 2.78654 0
M  V30 2899 N 267.536 -0.106894 1.57237 0
M  V30 2900 C 268.782 -0.81373 1.85759 0
M  V30 2901 C 269.115 -1.78952 0.754315 0
M  V30 2902 O 268.39 -1.93029 -0.23879 0
M  V30 2903 C 268.673 -1.55293 3.24894 0
M  V30 2904 C 268.526 -0.595929 4.45835 0
M  V30 2905 C 269.845 -2.5063 3.61763 0
M  V30 2906 H 266.964 -0.294369 0.67566 0
M  V30 2907 H 269.606 -0.0776472 1.89841 0
M  V30 2908 H 267.756 -2.1804 3.21544 0
M  V30 2909 H 269.428 0.0236262 4.61294 0
M  V30 2910 H 267.671 0.0916191 4.33703 0
M  V30 2911 H 268.342 -1.15004 5.39887 0
M  V30 2912 H 270.818 -1.97982 3.65981 0
M  V30 2913 H 269.694 -2.99376 4.60071 0
M  V30 2914 H 269.955 -3.3385 2.89821 0
M  V30 2915 N 269.014 -1.53014 -0.377408 0
M  V30 2916 C 270.239 -1.72818 -1.14668 0
M  V30 2917 C 270.664 -0.450725 -1.8262 0
M  V30 2918 O 270.022 0.59439 -1.7128 0
M  V30 2919 C 270.07 -2.88627 -2.16164 0
M  V30 2920 O 269.174 -2.56409 -3.22998 0
M  V30 2921 H 268.515 -0.574301 -0.333278 0
M  V30 2922 H 271.045 -1.99853 -0.438152 0
M  V30 2923 H 271.055 -3.14455 -2.59966 0
M  V30 2924 H 269.73 -3.81294 -1.66095 0
M  V30 2925 H 268.307 -2.4136 -2.84253 0
M  V30 2926 N 270.492 0.636531 -1.44174 0
M  V30 2927 C 271.44 1.76995 -1.50915 0
M  V30 2928 C 272.434 1.65053 -0.381295 0
M  V30 2929 O 273.64 1.71197 -0.55601 0
M  V30 2930 H 270.015 0.584247 -0.473455 0
M  V30 2931 H 271.986 1.68432 -2.4632 0
M  V30 2932 C 270.735 3.15314 -1.46534 0
M  V30 2933 H 270.058 3.25149 -2.32633 0
M  V30 2934 H 271.498 3.9453 -1.55312 0
M  V30 2935 C 269.957 3.3639 -0.185305 0
M  V30 2936 O 270.487 3.94699 0.746688 0
M  V30 2937 N 268.693 2.9046 -0.0901606 0
M  V30 2938 H 268.24 2.43193 -0.849416 0
M  V30 2939 H 268.198 3.04937 0.765553 0
M  V30 2940 N 271.97 1.30982 0.876444 0
M  V30 2941 C 273.217 1.20296 1.62896 0
M  V30 2942 C 273.545 -0.240395 1.93009 0
M  V30 2943 O 272.8 -1.18733 1.55567 0
M  V30 2944 C 273.099 1.98572 2.9716 0
M  V30 2945 C 272.765 3.48125 2.86566 0
M  V30 2946 C 271.427 3.88905 2.83383 0
M  V30 2947 C 273.779 4.43322 2.74071 0
M  V30 2948 C 271.107 5.2316 2.65556 0
M  V30 2949 C 273.459 5.77695 2.57781 0
M  V30 2950 C 272.123 6.17704 2.52979 0
M  V30 2951 H 271.393 0.440193 0.59608 0
M  V30 2952 H 274.04 1.62177 1.01837 0
M  V30 2953 H 272.345 1.49352 3.62217 0
M  V30 2954 H 274.042 1.8769 3.54364 0
M  V30 2955 H 270.632 3.15723 2.89856 0
M  V30 2956 H 274.816 4.12752 2.75589 0
M  V30 2957 H 270.072 5.53241 2.60259 0
M  V30 2958 H 274.246 6.51091 2.47089 0
M  V30 2959 H 271.873 7.21678 2.38924 0
M  V30 2960 N 273.449 -1.08991 1.13837 0
M  V30 2961 C 274.399 -2.1393 0.788535 0
M  V30 2962 C 275.383 -1.59396 -0.219516 0
M  V30 2963 O 276.575 -1.76985 -0.0227557 0
M  V30 2964 C 273.704 -3.42305 0.261147 0
M  V30 2965 C 272.79 -4.03736 1.29837 0
M  V30 2966 N 273.181 -4.39659 2.50067 0
M  V30 2967 C 271.479 -4.30993 1.1472 0
M  V30 2968 C 272.18 -4.88113 3.16419 0
M  V30 2969 N 271.156 -4.85846 2.43832 0
M  V30 2970 H 274.958 -2.39516 1.70322 0
M  V30 2971 H 272.472 -1.26263 1.02134 0
M  V30 2972 H 274.469 -4.16899 -0.0077405 0
M  V30 2973 H 273.129 -3.18172 -0.647805 0
M  V30 2974 H 274.14 -4.30878 2.8734 0
M  V30 2975 H 270.817 -4.16444 0.296773 0
M  V30 2976 H 272.207 -5.25336 4.18894 0
M  V30 2977 N 274.927 -0.932562 -1.27047 0
M  V30 2978 C 275.875 -0.42603 -2.28665 0
M  V30 2979 C 276.869 0.49219 -1.62092 0
M  V30 2980 O 278.075 0.371355 -1.76128 0
M  V30 2981 H 274.45 -0.119213 -0.742491 0
M  V30 2982 H 276.421 -1.29579 -2.68797 0
M  V30 2983 C 275.17 0.301426 -3.46391 0
M  V30 2984 H 274.493 -0.39595 -3.97834 0
M  V30 2985 H 275.933 0.6202 -4.1944 0
M  V30 2986 C 274.392 1.51616 -3.00856 0
M  V30 2987 O 274.922 2.61476 -3.04948 0
M  V30 2988 N 273.128 1.36969 -2.56296 0
M  V30 2989 H 272.675 0.475873 -2.53166 0
M  V30 2990 H 272.633 2.18368 -2.26192 0
M  V30 2991 N 276.405 1.4127 -0.698611 0
M  V30 2992 C 277.816 1.84187 -0.305289 0
M  V30 2993 C 278.167 1.58449 1.15708 0
M  V30 2994 O 277.292 1.05651 1.88856 0
M  V30 2995 C 277.887 3.3435 -0.547314 0
M  V30 2996 C 276.446 3.75826 -0.207878 0
M  V30 2997 C 275.593 2.64647 -0.828099 0
M  V30 2998 H 278.544 1.30778 -0.89904 0
M  V30 2999 H 278.565 3.8001 0.192998 0
M  V30 3000 H 278.077 3.53051 -1.61172 0
M  V30 3001 H 276.178 3.62725 0.852143 0
M  V30 3002 H 276.291 4.74462 -0.665021 0
M  V30 3003 H 274.655 2.53395 -0.257458 0
M  V30 3004 H 275.438 2.86165 -1.89643 0
M  V30 3005 N 277.883 0.443576 1.51229 0
M  V30 3006 C 278.846 -0.353132 2.26463 0
M  V30 3007 C 279.846 -0.944338 1.3015 0
M  V30 3008 O 281.036 -0.817813 1.5381 0
M  V30 3009 C 278.168 -1.50023 3.06114 0
M  V30 3010 H 279.361 0.3063 2.98332 0
M  V30 3011 H 276.914 0.196902 1.55055 0
M  V30 3012 H 277.649 -2.19553 2.38677 0
M  V30 3013 H 277.434 -1.08241 3.76864 0
M  V30 3014 H 278.924 -2.06296 3.63087 0
M  V30 3015 N 279.361 -1.56624 0.175154 0
M  V30 3016 C 280.609 -1.96609 -0.467885 0
M  V30 3017 C 280.93 -1.06238 -1.63519 0
M  V30 3018 O 280.2 -0.129523 -1.95471 0
M  V30 3019 H 278.78 -0.726008 -0.175845 0
M  V30 3020 H 281.442 -1.93195 0.257234 0
M  V30 3021 H 280.538 -3.00989 -0.825342 0
M  V30 3022 N 280.839 0.0985539 -1.57292 0
M  V30 3023 C 282.085 0.803867 -1.86188 0
M  V30 3024 C 282.418 1.78549 -0.763794 0
M  V30 3025 O 281.693 1.93153 0.22855 0
M  V30 3026 C 281.976 1.53568 -3.25713 0
M  V30 3027 C 281.829 0.572277 -4.46145 0
M  V30 3028 C 283.148 2.48708 -3.63087 0
M  V30 3029 H 280.267 0.290781 -0.677211 0
M  V30 3030 H 282.909 0.0675783 -1.8988 0
M  V30 3031 H 281.059 2.16332 -3.22696 0
M  V30 3032 H 282.731 -0.0480894 -4.61275 0
M  V30 3033 H 280.974 -0.114618 -4.33649 0
M  V30 3034 H 281.645 1.12139 -5.40489 0
M  V30 3035 H 284.121 1.96039 -3.67026 0
M  V30 3036 H 282.997 2.96932 -4.61652 0
M  V30 3037 H 283.258 3.32309 -2.91588 0
M  V30 3038 N 282.317 1.53212 0.369288 0
M  V30 3039 C 283.545 1.73119 1.13303 0
M  V30 3040 C 283.96 0.458455 1.83149 0
M  V30 3041 O 283.317 -0.568403 1.73423 0
M  V30 3042 C 283.368 2.89413 2.16616 0
M  V30 3043 O 283.089 4.11761 1.49614 0
M  V30 3044 C 284.59 3.21161 3.05566 0
M  V30 3045 H 281.81 0.579107 0.338934 0
M  V30 3046 H 284.354 1.99942 0.429338 0
M  V30 3047 H 282.509 2.64994 2.82589 0
M  V30 3048 H 282.923 4.76858 2.18419 0
M  V30 3049 H 284.397 4.05949 3.74045 0
M  V30 3050 H 284.874 2.36369 3.70171 0
M  V30 3051 H 285.48 3.47492 2.45213 0
M  V30 3052 N 283.795 -0.628877 1.44509 0
M  V30 3053 C 285.023 -1.41554 1.50897 0
M  V30 3054 C 285.438 -1.8832 0.134564 0
M  V30 3055 O 284.795 -1.60969 -0.859965 0
M  V30 3056 C 284.846 -2.63435 2.47556 0
M  V30 3057 O 284.567 -2.18619 3.79654 0
M  V30 3058 C 286.068 -3.56537 2.63431 0
M  V30 3059 H 283.288 -0.434044 0.511709 0
M  V30 3060 H 285.832 -0.768895 1.89495 0
M  V30 3061 H 283.987 -3.24187 2.12089 0
M  V30 3062 H 284.401 -2.97652 4.31861 0
M  V30 3063 H 285.875 -4.38657 3.35088 0
M  V30 3064 H 286.352 -4.05493 1.68738 0
M  V30 3065 H 286.958 -3.01653 2.9981 0
M  V30 3066 N 285.273 -1.31445 -0.869486 0
M  V30 3067 C 286.498 -1.24256 -1.66058 0
M  V30 3068 C 286.923 0.188928 -1.87149 0
M  V30 3069 O 286.281 1.13522 -1.4136 0
M  V30 3070 C 286.329 -1.9924 -3.00559 0
M  V30 3071 O 285.433 -1.33007 -3.90362 0
M  V30 3072 H 284.774 -0.428973 -0.506831 0
M  V30 3073 H 287.304 -1.73521 -1.08404 0
M  V30 3074 H 287.314 -2.08854 -3.50491 0
M  V30 3075 H 285.989 -3.03342 -2.84528 0
M  V30 3076 H 284.566 -1.31848 -3.48813 0
M  V30 3077 N 286.751 1.08385 -1.14413 0
M  V30 3078 C 287.681 2.17321 -0.854044 0
M  V30 3079 C 288.662 1.69024 0.191049 0
M  V30 3080 O 289.847 1.94141 0.0476779 0
M  V30 3081 C 286.977 3.45719 -0.330983 0
M  V30 3082 C 285.931 4.07409 -1.31155 0
M  V30 3083 C 285.257 5.30762 -0.64778 0
M  V30 3084 C 286.557 4.48665 -2.67388 0
M  V30 3085 H 288.251 2.41845 -1.76498 0
M  V30 3086 H 285.797 1.16233 -0.850051 0
M  V30 3087 H 287.75 4.21241 -0.115645 0
M  V30 3088 H 286.474 3.2075 0.615381 0
M  V30 3089 H 285.133 3.33919 -1.51306 0
M  V30 3090 H 284.781 5.02078 0.304398 0
M  V30 3091 H 284.481 5.72992 -1.30207 0
M  V30 3092 H 286.005 6.08998 -0.441972 0
M  V30 3093 H 287.419 5.15364 -2.51143 0
M  V30 3094 H 285.816 5.01814 -3.29093 0
M  V30 3095 H 286.886 3.60543 -3.24248 0
M  V30 3096 N 288.23 0.939286 1.26551 0
M  V30 3097 C 289.14 0.453432 2.30176 0
M  V30 3098 C 290.156 -0.471649 1.67486 0
M  V30 3099 O 291.332 -0.35164 1.98306 0
M  V30 3100 C 288.397 -0.275326 3.45605 0
M  V30 3101 C 287.458 0.686084 4.23782 0
M  V30 3102 C 286.691 -0.00798994 5.33699 0
M  V30 3103 O 286.914 -1.22528 5.57085 0
M  V30 3104 O 285.848 0.669746 5.98162 0
M  V30 3105 H 289.674 1.31416 2.73795 0
M  V30 3106 H 287.259 0.705095 1.31715 0
M  V30 3107 H 289.141 -0.685911 4.1578 0
M  V30 3108 H 287.816 -1.11147 3.0402 0
M  V30 3109 H 286.723 1.14658 3.56096 0
M  V30 3110 H 288.056 1.48979 4.69112 0
M  V30 3111 N 289.708 -1.40897 0.706093 0
M  V30 3112 C 290.655 -2.30751 0.0474474 0
M  V30 3113 C 291.625 -1.47678 -0.76029 0
M  V30 3114 O 292.81 -1.76441 -0.726177 0
M  V30 3115 C 289.95 -3.33815 -0.875309 0
M  V30 3116 C 289.063 -4.31961 -0.0580623 0
M  V30 3117 C 288.198 -5.22093 -0.979425 0
M  V30 3118 C 287.237 -6.11902 -0.155706 0
M  V30 3119 N 286.374 -6.94482 -1.03144 0
M  V30 3120 H 291.214 -2.86513 0.819413 0
M  V30 3121 H 288.751 -1.41102 0.415783 0
M  V30 3122 H 290.709 -3.92129 -1.42446 0
M  V30 3123 H 289.339 -2.79579 -1.61356 0
M  V30 3124 H 288.391 -3.75507 0.608147 0
M  V30 3125 H 289.703 -4.95415 0.580082 0
M  V30 3126 H 288.857 -5.85292 -1.59744 0
M  V30 3127 H 287.596 -4.5889 -1.65141 0
M  V30 3128 H 286.601 -5.47742 0.475309 0
M  V30 3129 H 287.826 -6.77162 0.512635 0
M  V30 3130 H 285.772 -6.33877 -1.68924 0
M  V30 3131 H 285.689 -7.54665 -0.449108 0
M  V30 3132 H 286.957 -7.6214 -1.63593 0
M  V30 3133 N 291.186 -0.45159 -1.50991 0
M  V30 3134 C 292.602 -0.104647 -1.59257 0
M  V30 3135 C 292.802 1.38728 -1.4614 0
M  V30 3136 O 291.858 2.15866 -1.30989 0
M  V30 3137 C 293.171 -0.637468 -2.93865 0
M  V30 3138 C 294.719 -0.599166 -3.07212 0
M  V30 3139 C 295.194 -1.1092 -4.44366 0
M  V30 3140 N 296.685 -1.06778 -4.50725 0
M  V30 3141 C 297.42 -1.43314 -5.55201 0
M  V30 3142 N 296.916 -1.87204 -6.67028 0
M  V30 3143 N 298.709 -1.3504 -5.45638 0
M  V30 3144 H 290.86 -1.42214 -1.57762 0
M  V30 3145 H 293.123 -0.586921 -0.744465 0
M  V30 3146 H 292.829 -1.68187 -3.08879 0
M  V30 3147 H 292.703 -0.0702139 -3.77135 0
M  V30 3148 H 295.09 0.436277 -2.91857 0
M  V30 3149 H 295.171 -1.20299 -2.25747 0
M  V30 3150 H 294.815 -2.14318 -4.60467 0
M  V30 3151 H 294.745 -0.481773 -5.24392 0
M  V30 3152 H 297.236 -0.745643 -3.70471 0
M  V30 3153 H 297.549 -2.13282 -7.42786 0
M  V30 3154 H 295.894 -1.91142 -6.68199 0
M  V30 3155 H 299.085 -1.00607 -4.57161 0
M  V30 3156 H 299.258 -1.63841 -6.26945 0
M  V30 3157 N 292.664 1.56529 -0.183458 0
M  V30 3158 C 293.611 2.18546 0.742055 0
M  V30 3159 C 294.581 1.12912 1.2182 0
M  V30 3160 O 295.766 1.41115 1.28418 0
M  V30 3161 C 292.906 2.83977 1.96089 0
M  V30 3162 C 292.019 4.04105 1.52719 0
M  V30 3163 C 291.154 4.57427 2.70063 0
M  V30 3164 C 290.193 5.69938 2.23243 0
M  V30 3165 N 289.33 6.17717 3.33722 0
M  V30 3166 H 294.17 2.97284 0.206432 0
M  V30 3167 H 291.707 1.46823 0.0901571 0
M  V30 3168 H 293.665 3.20077 2.67594 0
M  V30 3169 H 292.295 2.07822 2.47002 0
M  V30 3170 H 291.347 3.73745 0.708436 0
M  V30 3171 H 292.659 4.85513 1.1436 0
M  V30 3172 H 291.813 4.95772 3.49708 0
M  V30 3173 H 290.552 3.75101 3.11689 0
M  V30 3174 H 289.557 5.31133 1.42048 0
M  V30 3175 H 290.782 6.54073 1.82661 0
M  V30 3176 H 288.728 5.38317 3.74902 0
M  V30 3177 H 288.645 6.94146 2.99495 0
M  V30 3178 H 289.913 6.60713 4.13616 0
M  V30 3179 N 294.142 -0.090211 1.57342 0
M  V30 3180 C 295.105 -1.09335 2.01441 0
M  V30 3181 C 296.105 -1.32666 0.908641 0
M  V30 3182 O 297.295 -1.28697 1.174 0
M  V30 3183 C 294.427 -2.44136 2.3793 0
M  V30 3184 H 295.62 -0.713662 2.91285 0
M  V30 3185 H 293.173 -0.335404 1.52659 0
M  V30 3186 H 293.908 -2.86972 1.51055 0
M  V30 3187 H 293.693 -2.28548 3.18603 0
M  V30 3188 H 295.183 -3.16277 2.72688 0
M  V30 3189 N 295.62 -1.53406 -0.361157 0
M  V30 3190 C 296.55 -1.83136 -1.44857 0
M  V30 3191 C 297.531 -0.685174 -1.5569 0
M  V30 3192 O 298.716 -0.93544 -1.70186 0
M  V30 3193 C 295.846 -2.02522 -2.82138 0
M  V30 3194 C 294.8 -3.18302 -2.86126 0
M  V30 3195 C 294.126 -3.22989 -4.26125 0
M  V30 3196 C 295.426 -4.56796 -2.53248 0
M  V30 3197 H 297.12 -2.74201 -1.20226 0
M  V30 3198 H 294.666 -1.31938 -0.576922 0
M  V30 3199 H 296.619 -2.21904 -3.58241 0
M  V30 3200 H 295.343 -1.08172 -3.08166 0
M  V30 3201 H 294.002 -2.98747 -2.12475 0
M  V30 3202 H 293.65 -2.26267 -4.49235 0
M  V30 3203 H 293.35 -4.00781 -4.29708 0
M  V30 3204 H 294.874 -3.44559 -5.04094 0
M  V30 3205 H 296.288 -4.7631 -3.19064 0
M  V30 3206 H 294.685 -5.36862 -2.68141 0
M  V30 3207 H 295.755 -4.61606 -1.48484 0
M  V30 3208 N 297.098 0.621204 -1.44841 0
M  V30 3209 C 298.344 1.3826 -1.48365 0
M  V30 3210 C 298.677 1.93831 -0.119624 0
M  V30 3211 O 297.952 1.74251 0.864111 0
M  V30 3212 C 298.235 2.54058 -2.55199 0
M  V30 3213 C 298.088 2.03772 -4.00995 0
M  V30 3214 C 299.407 3.56225 -2.58442 0
M  V30 3215 H 296.526 0.501374 -0.540179 0
M  V30 3216 H 299.168 0.7015 -1.76576 0
M  V30 3217 H 297.318 3.12162 -2.31274 0
M  V30 3218 H 298.99 1.50423 -4.36086 0
M  V30 3219 H 297.233 1.34876 -4.12299 0
M  V30 3220 H 297.904 2.87185 -4.71411 0
M  V30 3221 H 300.38 3.07939 -2.79844 0
M  V30 3222 H 299.256 4.34756 -3.3508 0
M  V30 3223 H 299.517 4.10949 -1.63013 0
M  V30 3224 N 298.576 1.31904 0.862503 0
M  V30 3225 C 299.486 1.22161 2.00285 0
M  V30 3226 C 300.502 0.136785 1.73462 0
M  V30 3227 O 301.678 0.355994 1.98229 0
M  V30 3228 C 298.743 0.937093 3.33796 0
M  V30 3229 C 297.804 2.10957 3.73893 0
M  V30 3230 C 297.037 1.83853 5.01033 0
M  V30 3231 O 297.26 0.777274 5.65079 0
M  V30 3232 O 296.194 2.69741 5.38074 0
M  V30 3233 H 300.02 2.18008 2.11439 0
M  V30 3234 H 297.605 1.11716 0.991957 0
M  V30 3235 H 299.487 0.794583 4.13841 0
M  V30 3236 H 298.162 0.00871894 3.23699 0
M  V30 3237 H 297.069 2.30752 2.94456 0
M  V30 3238 H 298.402 3.02046 3.88625 0
M  V30 3239 N 300.054 -1.07777 1.14986 0
M  V30 3240 C 301.303 -1.79669 0.916617 0
M  V30 3241 C 301.616 -1.87474 -0.557917 0
M  V30 3242 O 302.822 -2.55845 -0.908617 0
M  V30 3243 C 301.278 -3.22848 1.59051 0
M  V30 3244 C 300.886 -3.23257 3.10176 0
M  V30 3245 C 302.63 -3.99379 1.43864 0
M  V30 3246 C 300.537 -4.61063 3.70372 0
M  V30 3247 H 299.467 -0.673349 0.33929 0
M  V30 3248 H 302.118 -1.21003 1.37951 0
M  V30 3249 H 300.5 -3.8168 1.0553 0
M  V30 3250 H 301.674 -2.74095 3.70417 0
M  V30 3251 H 299.989 -2.60222 3.25074 0
M  V30 3252 H 302.586 -5.0122 1.86232 0
M  V30 3253 H 302.929 -4.14511 0.385564 0
M  V30 3254 H 303.462 -3.47032 1.94457 0
M  V30 3255 H 300.201 -4.51135 4.7556 0
M  V30 3256 H 299.721 -5.1048 3.14913 0
M  V30 3257 H 301.4 -5.30034 3.71043 0
M  V30 3258 N 301.532 -0.945985 -1.26051 0
M  V30 3259 C 302.495 -0.463897 -2.24456 0
M  V30 3260 C 303.495 0.427655 -1.55009 0
M  V30 3261 O 304.685 0.226157 -1.72726 0
M  V30 3262 C 301.817 0.330812 -3.39291 0
M  V30 3263 H 303.01 -1.33357 -2.68619 0
M  V30 3264 H 300.563 -0.728416 -1.38289 0
M  V30 3265 H 301.298 1.21852 -3.00537 0
M  V30 3266 H 301.083 -0.308679 -3.90883 0
M  V30 3267 H 302.573 0.657865 -4.12386 0
M  V30 3268 N 303.011 1.40521 -0.713556 0
M  V30 3269 C 303.921 2.34522 -0.0606667 0
M  V30 3270 C 304.937 1.57193 0.74607 0
M  V30 3271 O 306.113 1.89591 0.679493 0
M  V30 3272 C 303.178 3.36081 0.851491 0
M  V30 3273 C 302.239 4.29286 0.0349339 0
M  V30 3274 C 301.472 5.25994 0.903649 0
M  V30 3275 O 301.695 5.28616 2.14292 0
M  V30 3276 O 300.629 6.00918 0.343723 0
M  V30 3277 H 304.455 2.91968 -0.835972 0
M  V30 3278 H 302.04 1.41681 -0.47402 0
M  V30 3279 H 303.922 3.98369 1.37404 0
M  V30 3280 H 302.597 2.81052 1.60598 0
M  V30 3281 H 301.504 3.70289 -0.532633 0
M  V30 3282 H 302.837 4.87462 -0.681287 0
M  V30 3283 N 304.489 0.459591 1.5075 0
M  V30 3284 C 305.436 -0.340524 2.28274 0
M  V30 3285 C 306.406 -0.997371 1.32822 0
M  V30 3286 O 307.591 -1.01202 1.61749 0
M  V30 3287 C 304.731 -1.42317 3.14388 0
M  V30 3288 C 303.844 -0.782251 4.24859 0
M  V30 3289 C 302.979 -1.84182 4.98247 0
M  V30 3290 C 302.018 -1.18053 6.00608 0
M  V30 3291 N 301.155 -2.18244 6.67319 0
M  V30 3292 H 305.995 0.326899 2.96202 0
M  V30 3293 H 303.532 0.173057 1.46078 0
M  V30 3294 H 305.49 -2.06241 3.62658 0
M  V30 3295 H 304.12 -2.05992 2.4853 0
M  V30 3296 H 303.172 -0.0307404 3.80388 0
M  V30 3297 H 304.484 -0.259663 4.98124 0
M  V30 3298 H 303.638 -2.55714 5.50177 0
M  V30 3299 H 302.377 -2.39819 4.24662 0
M  V30 3300 H 301.382 -0.450776 5.47949 0
M  V30 3301 H 302.607 -0.631202 6.7616 0
M  V30 3302 H 300.553 -2.72919 5.96533 0
M  V30 3303 H 300.47 -1.70938 7.36421 0
M  V30 3304 H 301.738 -2.89191 7.23871 0
M  V30 3305 N 305.967 -1.56429 0.191757 0
M  V30 3306 C 307.197 -2.01574 -0.452928 0
M  V30 3307 C 307.605 -1.07107 -1.55964 0
M  V30 3308 O 306.948 -0.067534 -1.83576 0
M  V30 3309 C 307.01 -3.43121 -1.07278 0
M  V30 3310 C 306.674 -4.56879 -0.105214 0
M  V30 3311 C 307.671 -5.15379 0.684149 0
M  V30 3312 C 305.356 -5.023 0.00489824 0
M  V30 3313 C 307.35 -6.17746 1.57062 0
M  V30 3314 C 305.037 -6.04511 0.894935 0
M  V30 3315 C 306.035 -6.62108 1.67637 0
M  V30 3316 O 305.723 -7.62335 2.55149 0
M  V30 3317 H 305.455 -0.665554 -0.118379 0
M  V30 3318 H 308.009 -2.03245 0.296737 0
M  V30 3319 H 306.239 -3.38425 -1.87097 0
M  V30 3320 H 307.928 -3.72093 -1.62177 0
M  V30 3321 H 308.694 -4.81157 0.609365 0
M  V30 3322 H 304.573 -4.57168 -0.593156 0
M  V30 3323 H 308.117 -6.6263 2.181 0
M  V30 3324 H 304.014 -6.38157 0.970847 0
M  V30 3325 H 304.782 -7.79741 2.48892 0
M  V30 3326 N 307.445 0.0818655 -1.57387 0
M  V30 3327 C 308.722 0.815343 -1.77796 0
M  V30 3328 C 309.102 1.96289 -0.77679 0
M  V30 3329 O 308.45 2.27691 0.192106 0
M  V30 3330 C 308.66 1.29765 -3.23978 0
M  V30 3331 C 310.008 1.7351 -3.8753 0
M  V30 3332 O 311.032 1.39356 -3.27808 0
M  V30 3333 O 309.891 2.36708 -4.92576 0
M  V30 3334 H 306.985 0.389914 -0.729312 0
M  V30 3335 H 309.531 0.0627213 -1.69584 0
M  V30 3336 H 308.303 0.47608 -3.88393 0
M  V30 3337 H 307.926 2.11189 -3.36875 0
M  V30 3338 N 308.923 1.53595 0.353017 0
M  V30 3339 C 309.853 1.83902 1.43883 0
M  V30 3340 C 310.834 0.693421 1.55324 0
M  V30 3341 O 312.019 0.944452 1.69687 0
M  V30 3342 C 309.149 2.04016 2.8106 0
M  V30 3343 C 308.103 3.19814 2.84434 0
M  V30 3344 C 307.429 3.25244 4.24406 0
M  V30 3345 C 308.729 4.58133 2.50822 0
M  V30 3346 H 310.423 2.74835 1.1877 0
M  V30 3347 H 307.969 1.32242 0.569917 0
M  V30 3348 H 309.922 2.238 3.57059 0
M  V30 3349 H 308.646 1.09804 3.07588 0
M  V30 3350 H 307.305 2.9987 2.10887 0
M  V30 3351 H 306.953 2.28646 4.48029 0
M  V30 3352 H 306.653 4.03054 4.27576 0
M  V30 3353 H 308.177 3.47228 5.0226 0
M  V30 3354 H 309.591 4.77995 3.16534 0
M  V30 3355 H 307.988 5.38276 2.6529 0
M  V30 3356 H 309.058 4.62387 1.46034 0
M  V30 3357 N 310.401 -0.613514 1.45168 0
M  V30 3358 C 311.648 -1.37268 1.48875 0
M  V30 3359 C 311.976 -1.94077 0.128161 0
M  V30 3360 O 311.231 -1.75178 -0.872416 0
M  V30 3361 C 311.53 -2.54347 2.51083 0
M  V30 3362 C 311.196 -2.1572 3.95949 0
M  V30 3363 C 309.858 -2.04899 4.35396 0
M  V30 3364 C 312.21 -1.85485 4.87078 0
M  V30 3365 C 309.538 -1.62057 5.63875 0
M  V30 3366 C 311.89 -1.4413 6.15962 0
M  V30 3367 C 310.554 -1.31863 6.54346 0
M  V30 3368 H 309.824 -0.502299 0.544773 0
M  V30 3369 H 312.471 -0.694021 1.78481 0
M  V30 3370 H 310.776 -3.27524 2.15024 0
M  V30 3371 H 312.473 -3.12577 2.51191 0
M  V30 3372 H 309.063 -2.25066 3.64751 0
M  V30 3373 H 313.247 -1.92745 4.57343 0
M  V30 3374 H 308.503 -1.51177 5.92415 0
M  V30 3375 H 312.677 -1.19778 6.86022 0
M  V30 3376 H 310.304 -0.984392 7.538 0
M  V30 3377 N 311.879 -1.3236 -0.855495 0
M  V30 3378 C 313.128 -1.22226 -1.60448 0
M  V30 3379 C 313.441 0.214733 -1.94418 0
M  V30 3380 O 314.647 0.437917 -2.67945 0
M  V30 3381 C 313.103 -2.14063 -2.89318 0
M  V30 3382 C 312.711 -3.62839 -2.62777 0
M  V30 3383 C 314.455 -2.12764 -3.67331 0
M  V30 3384 C 312.362 -4.4664 -3.87643 0
M  V30 3385 H 311.292 -0.453904 -0.602069 0
M  V30 3386 H 313.943 -1.57314 -0.944698 0
M  V30 3387 H 312.325 -1.71889 -3.5675 0
M  V30 3388 H 313.499 -4.1335 -2.03662 0
M  V30 3389 H 311.814 -3.66261 -1.98096 0
M  V30 3390 H 314.411 -2.72611 -4.59987 0
M  V30 3391 H 314.754 -1.11841 -4.00995 0
M  V30 3392 H 315.287 -2.53214 -3.06802 0
M  V30 3393 H 312.026 -5.48373 -3.5912 0
M  V30 3394 H 311.546 -4.0088 -4.46156 0
M  V30 3395 H 313.225 -4.59597 -4.55389 0
M  V30 3396 N 313.357 1.07166 -1.15556 0
M  V30 3397 C 314.603 1.80065 -0.932984 0
M  V30 3398 C 314.936 1.86586 0.53845 0
M  V30 3399 O 314.211 1.35098 1.39924 0
M  V30 3400 C 314.494 3.25022 -1.55025 0
M  V30 3401 C 314.347 3.26634 -3.09242 0
M  V30 3402 C 315.666 4.22341 -1.2376 0
M  V30 3403 H 312.785 0.653697 -0.340366 0
M  V30 3404 H 315.427 1.25389 -1.4275 0
M  V30 3405 H 313.577 3.71712 -1.12972 0
M  V30 3406 H 315.249 2.88173 -3.60214 0
M  V30 3407 H 313.492 2.65539 -3.43033 0
M  V30 3408 H 314.163 4.28854 -3.47546 0
M  V30 3409 H 316.639 3.8405 -1.60139 0
M  V30 3410 H 315.515 5.22053 -1.69564 0
M  V30 3411 H 315.776 4.41828 -0.154938 0
M  V30 3412 N 314.835 0.952656 1.25548 0
M  V30 3413 C 315.745 0.47782 2.29682 0
M  V30 3414 C 316.761 -0.453859 1.67977 0
M  V30 3415 O 317.937 -0.330587 1.98668 0
M  V30 3416 C 315.002 -0.238655 3.45878 0
M  V30 3417 C 314.063 0.730994 4.23031 0
M  V30 3418 C 313.296 0.0486165 5.33678 0
M  V30 3419 O 313.519 -1.16612 5.58353 0
M  V30 3420 O 312.453 0.733152 5.97418 0
M  V30 3421 H 316.279 1.34312 2.72386 0
M  V30 3422 H 313.864 0.719026 1.30959 0
M  V30 3423 H 315.746 -0.641774 4.16484 0
M  V30 3424 H 314.421 -1.07916 3.05181 0
M  V30 3425 H 313.328 1.18428 3.5486 0
M  V30 3426 H 314.661 1.53946 4.67506 0
M  V30 3427 N 316.313 -1.40141 0.720998 0
M  V30 3428 C 317.59 -1.94677 0.189757 0
M  V30 3429 C 317.97 -1.65879 -1.30566 0
M  V30 3430 O 317.318 -0.979391 -2.06447 0
M  V30 3431 C 317.528 -3.45279 0.508304 0
M  V30 3432 C 318.876 -4.22209 0.449934 0
M  V30 3433 O 319.9 -3.53413 0.444677 0
M  V30 3434 O 318.759 -5.44788 0.432189 0
M  V30 3435 H 315.853 -0.826459 0.0299026 0
M  V30 3436 H 318.399 -1.49719 0.7989 0
M  V30 3437 H 317.171 -3.59619 1.54239 0
M  V30 3438 H 316.794 -3.97386 -0.130525 0
M  V30 3439 N 317.792 -0.46758 -1.50504 0
M  V30 3440 C 319.069 0.15003 -1.95024 0
M  V30 3441 C 319.449 1.57304 -1.40779 0
M  V30 3442 O 318.797 2.20281 -0.607319 0
M  V30 3443 C 319.007 0.0969324 -3.48865 0
M  V30 3444 C 320.355 0.287565 -4.23625 0
M  V30 3445 O 321.379 0.173678 -3.55776 0
M  V30 3446 O 320.238 0.517186 -5.44047 0
M  V30 3447 H 317.332 0.113582 -0.819163 0
M  V30 3448 H 319.878 -0.52773 -1.61286 0
M  V30 3449 H 318.65 -0.896732 -3.80886 0
M  V30 3450 H 318.273 0.816303 -3.8913 0
M  V30 3451 N 319.27 1.56325 -0.20005 0
M  V30 3452 C 320.681 1.8408 0.31167 0
M  V30 3453 C 321.032 1.12087 1.61031 0
M  V30 3454 O 320.157 0.38332 2.12978 0
M  V30 3455 C 320.752 3.33932 0.57226 0
M  V30 3456 C 319.311 3.6208 1.02834 0
M  V30 3457 C 318.458 2.77186 0.079634 0
M  V30 3458 H 321.409 1.52939 -0.423729 0
M  V30 3459 H 321.43 3.52971 1.42096 0
M  V30 3460 H 320.942 3.86303 -0.37308 0
M  V30 3461 H 319.043 3.15147 1.98778 0
M  V30 3462 H 319.156 4.7023 0.917624 0
M  V30 3463 H 317.52 2.47951 0.582448 0
M  V30 3464 H 318.303 3.32347 -0.860238 0
M  V30 3465 N 320.748 -0.0735177 1.57428 0
M  V30 3466 C 321.978 -0.78483 1.91112 0
M  V30 3467 C 322.386 -1.71729 0.7941 0
M  V30 3468 O 321.729 -1.82105 -0.241542 0
M  V30 3469 C 321.791 -1.63346 3.20247 0
M  V30 3470 C 321.455 -0.870557 4.48632 0
M  V30 3471 C 322.452 -0.19058 5.19551 0
M  V30 3472 C 320.137 -0.838242 4.95256 0
M  V30 3473 C 322.131 0.511503 6.35344 0
M  V30 3474 C 319.818 -0.132386 6.10957 0
M  V30 3475 C 320.816 0.541288 6.80852 0
M  V30 3476 O 320.504 1.23578 7.94345 0
M  V30 3477 H 320.236 -0.228408 0.636244 0
M  V30 3478 H 322.79 -0.0486039 2.05342 0
M  V30 3479 H 321.02 -2.41245 3.02222 0
M  V30 3480 H 322.709 -2.22329 3.39595 0
M  V30 3481 H 323.475 -0.206864 4.84559 0
M  V30 3482 H 319.354 -1.35206 4.40727 0
M  V30 3483 H 322.898 1.03789 6.89836 0
M  V30 3484 H 318.795 -0.114023 6.45399 0
M  V30 3485 H 319.563 1.14487 8.10454 0
M  V30 3486 N 322.226 -1.5378 -0.344866 0
M  V30 3487 C 323.474 -1.70625 -1.08311 0
M  V30 3488 C 323.795 -0.471447 -1.89215 0
M  V30 3489 O 323.065 0.514616 -1.8902 0
M  V30 3490 H 321.645 -0.629058 -0.402859 0
M  V30 3491 H 324.307 -1.9103 -0.386459 0
M  V30 3492 H 323.403 -2.57656 -1.76124 0
M  V30 3493 N 323.704 0.605807 -1.45491 0
M  V30 3494 C 324.667 1.69836 -1.5391 0
M  V30 3495 C 325.667 1.55261 -0.418424 0
M  V30 3496 O 326.857 1.60296 -0.681965 0
M  V30 3497 C 323.989 3.09117 -1.43734 0
M  V30 3498 H 325.182 1.63738 -2.51257 0
M  V30 3499 H 322.735 0.821689 -1.32959 0
M  V30 3500 H 323.47 3.20791 -0.475788 0
M  V30 3501 H 323.255 3.21104 -2.25021 0
M  V30 3502 H 324.745 3.88696 -1.52661 0
M  V30 3503 N 325.182 1.32811 0.848464 0
M  V30 3504 C 326.112 1.24882 1.97299 0
M  V30 3505 C 327.093 0.131357 1.69592 0
M  V30 3506 O 328.278 0.319553 1.91553 0
M  V30 3507 C 325.408 0.97746 3.33261 0
M  V30 3508 C 324.362 2.05682 3.75338 0
M  V30 3509 C 323.688 1.63777 5.09 0
M  V30 3510 C 324.988 3.47254 3.90144 0
M  V30 3511 H 326.682 2.18966 2.04191 0
M  V30 3512 H 324.228 1.05413 0.981029 0
M  V30 3513 H 326.181 0.908513 4.1149 0
M  V30 3514 H 324.905 0.000980011 3.266 0
M  V30 3515 H 323.564 2.11603 2.99366 0
M  V30 3516 H 323.212 0.648569 4.98801 0
M  V30 3517 H 322.912 2.36 5.38124 0
M  V30 3518 H 324.436 1.5833 5.89715 0
M  V30 3519 H 325.85 3.43888 4.58709 0
M  V30 3520 H 324.247 4.1788 4.30693 0
M  V30 3521 H 325.317 3.86462 2.92874 0
M  V30 3522 N 326.66 -1.06551 1.16123 0
M  V30 3523 C 328.076 -1.3142 0.905585 0
M  V30 3524 C 328.276 -1.96571 -0.442964 0
M  V30 3525 O 327.332 -2.23068 -1.18308 0
M  V30 3526 C 328.645 -2.19741 2.05267 0
M  V30 3527 C 330.193 -2.33165 2.08813 0
M  V30 3528 C 330.668 -3.24838 3.22868 0
M  V30 3529 N 332.159 -3.32421 3.22568 0
M  V30 3530 C 332.894 -4.0344 4.0746 0
M  V30 3531 N 332.39 -4.77003 5.02434 0
M  V30 3532 N 334.183 -3.99464 3.95456 0
M  V30 3533 H 326.334 -0.626548 2.02949 0
M  V30 3534 H 328.597 -0.338777 0.8854 0
M  V30 3535 H 328.303 -1.79142 3.02657 0
M  V30 3536 H 328.177 -3.20313 1.99198 0
M  V30 3537 H 330.564 -2.73013 1.12018 0
M  V30 3538 H 330.645 -1.3227 2.18948 0
M  V30 3539 H 330.289 -2.85708 4.19921 0
M  V30 3540 H 330.219 -4.25707 3.0997 0
M  V30 3541 H 332.71 -2.79994 2.53795 0
M  V30 3542 H 333.023 -5.28712 5.63634 0
M  V30 3543 H 331.368 -4.75992 5.06415 0
M  V30 3544 H 334.559 -3.4111 3.20564 0
M  V30 3545 H 334.732 -4.54544 4.61837 0
M  V30 3546 N 328.138 -0.959301 -1.25041 0
M  V30 3547 C 329.368 -0.63303 -1.96663 0
M  V30 3548 C 329.776 0.800031 -1.71453 0
M  V30 3549 O 329.119 1.54736 -0.99008 0
M  V30 3550 C 329.181 -0.817523 -3.50081 0
M  V30 3551 C 328.845 -2.22863 -3.98975 0
M  V30 3552 C 329.842 -3.20569 -4.09306 0
M  V30 3553 C 327.527 -2.55407 -4.32519 0
M  V30 3554 C 329.521 -4.4891 -4.52503 0
M  V30 3555 C 327.208 -3.83976 -4.754 0
M  V30 3556 C 328.206 -4.8054 -4.85356 0
M  V30 3557 O 327.894 -6.06817 -5.27284 0
M  V30 3558 H 327.626 -0.235866 -0.633516 0
M  V30 3559 H 330.18 -1.2874 -1.60047 0
M  V30 3560 H 328.41 -0.105992 -3.86555 0
M  V30 3561 H 330.099 -0.491604 -4.02912 0
M  V30 3562 H 330.865 -2.96753 -3.83618 0
M  V30 3563 H 326.744 -1.8097 -4.23994 0
M  V30 3564 H 330.288 -5.24283 -4.60188 0
M  V30 3565 H 326.185 -4.07596 -5.00535 0
M  V30 3566 H 326.953 -6.10262 -5.45457 0
M  V30 3567 N 329.616 1.39756 -0.72842 0
M  V30 3568 C 330.526 2.34444 -0.0855374 0
M  V30 3569 C 331.542 1.57976 0.729356 0
M  V30 3570 O 332.718 1.90301 0.659346 0
M  V30 3571 C 329.783 3.36965 0.815798 0
M  V30 3572 C 328.844 4.29299 -0.0105996 0
M  V30 3573 C 328.077 5.26923 0.84781 0
M  V30 3574 O 328.3 5.30859 2.08673 0
M  V30 3575 O 327.234 6.01249 0.279969 0
M  V30 3576 H 331.06 2.91065 -0.866892 0
M  V30 3577 H 328.645 1.4117 -0.48902 0
M  V30 3578 H 330.527 3.99804 1.33171 0
M  V30 3579 H 329.202 2.82739 1.57608 0
M  V30 3580 H 328.109 3.69703 -0.571877 0
M  V30 3581 H 329.442 4.86712 -0.73295 0
M  V30 3582 N 331.094 0.475555 1.50254 0
M  V30 3583 C 332.342 -0.077738 2.0195 0
M  V30 3584 C 332.663 -1.39813 1.35931 0
M  V30 3585 O 331.933 -1.89249 0.506123 0
M  V30 3586 H 330.513 -0.031719 0.746326 0
M  V30 3587 H 333.175 0.626995 1.84539 0
M  V30 3588 H 332.271 -0.225995 3.11281 0
M  V30 3589 N 332.573 -1.56217 0.208337 0
M  V30 3590 C 333.483 -2.23316 -0.718836 0
M  V30 3591 C 334.499 -1.23648 -1.22422 0
M  V30 3592 O 335.675 -1.56423 -1.26861 0
M  V30 3593 C 332.74 -2.88968 -1.91568 0
M  V30 3594 C 331.801 -4.03943 -1.45357 0
M  V30 3595 C 331.034 -4.66455 -2.59337 0
M  V30 3596 O 331.257 -4.27919 -3.77149 0
M  V30 3597 O 330.191 -5.55686 -2.31293 0
M  V30 3598 H 334.017 -3.03182 -0.177315 0
M  V30 3599 H 331.602 -1.49384 -0.0215402 0
M  V30 3600 H 333.484 -3.30455 -2.61491 0
M  V30 3601 H 332.159 -2.12071 -2.44556 0
M  V30 3602 H 331.066 -3.67052 -0.722746 0
M  V30 3603 H 332.399 -4.82543 -0.970219 0
M  V30 3604 N 334.051 0.0651679 -1.57465 0
M  V30 3605 C 335.279 0.775808 -1.91804 0
M  V30 3606 C 335.694 1.70782 -0.804916 0
M  V30 3607 O 335.051 1.81153 0.221311 0
M  V30 3608 C 335.102 1.56381 -3.25925 0
M  V30 3609 O 334.823 0.669248 -4.32958 0
M  V30 3610 C 336.324 2.37485 -3.7432 0
M  V30 3611 H 333.544 0.2202 -0.63384 0
M  V30 3612 H 336.088 0.0334587 -2.04473 0
M  V30 3613 H 334.243 2.25837 -3.14764 0
M  V30 3614 H 334.657 1.21801 -5.10162 0
M  V30 3615 H 336.131 2.88223 -4.70778 0
M  V30 3616 H 336.608 3.17307 -3.03666 0
M  V30 3617 H 337.214 1.73173 -3.88447 0
M  V30 3618 N 335.529 1.53961 0.336706 0
M  V30 3619 C 336.775 1.7179 1.07777 0
M  V30 3620 C 337.108 0.483263 1.88091 0
M  V30 3621 O 336.383 -0.519747 1.87427 0
M  V30 3622 C 336.666 2.98558 2.01334 0
M  V30 3623 C 336.519 4.32245 1.24437 0
M  V30 3624 C 337.838 3.21023 3.01052 0
M  V30 3625 H 334.957 0.625089 0.390426 0
M  V30 3626 H 337.599 1.86641 0.35567 0
M  V30 3627 H 335.749 2.86028 2.62908 0
M  V30 3628 H 337.421 4.56637 0.654243 0
M  V30 3629 H 335.664 4.30344 0.546458 0
M  V30 3630 H 336.335 5.17137 1.93063 0
M  V30 3631 H 338.811 3.32929 2.49595 0
M  V30 3632 H 337.687 4.11104 3.6371 0
M  V30 3633 H 337.948 2.37637 3.72802 0
M  V30 3634 N 337.007 -0.598083 1.45811 0
M  V30 3635 C 338.284 -1.35777 1.40797 0
M  V30 3636 C 338.664 -2.10935 0.083462 0
M  V30 3637 O 338.012 -2.08505 -0.934763 0
M  V30 3638 C 338.222 -2.29666 2.62783 0
M  V30 3639 C 339.57 -2.91977 3.08277 0
M  V30 3640 O 340.594 -2.39984 2.63223 0
M  V30 3641 O 339.453 -3.86376 3.86491 0
M  V30 3642 H 336.547 -0.609291 0.55919 0
M  V30 3643 H 339.093 -0.620379 1.57954 0
M  V30 3644 H 337.865 -1.73454 3.50756 0
M  V30 3645 H 337.488 -3.1077 2.48008 0
M  V30 3646 N 338.485 -1.33259 -0.841409 0
M  V30 3647 C 339.896 -1.22066 -1.41269 0
M  V30 3648 C 340.247 0.161479 -1.95534 0
M  V30 3649 O 339.372 1.06094 -1.88608 0
M  V30 3650 C 339.967 -2.20996 -2.568 0
M  V30 3651 C 338.526 -2.13649 -3.09888 0
M  V30 3652 C 337.673 -2.08623 -1.82679 0
M  V30 3653 H 340.624 -1.44895 -0.647395 0
M  V30 3654 H 340.645 -1.81621 -3.34356 0
M  V30 3655 H 340.157 -3.2158 -2.17274 0
M  V30 3656 H 338.258 -1.16359 -3.53965 0
M  V30 3657 H 338.371 -3.04079 -3.70234 0
M  V30 3658 H 336.735 -1.54061 -2.02824 0
M  V30 3659 H 337.518 -3.1101 -1.45353 0
M  V30 3660 N 339.963 1.05934 -1.16686 0
M  V30 3661 C 341.212 1.78188 -0.945085 0
M  V30 3662 C 341.525 1.88338 0.528021 0
M  V30 3663 O 342.731 2.57258 0.867799 0
M  V30 3664 C 341.187 3.20277 -1.64167 0
M  V30 3665 C 340.795 3.18281 -3.15279 0
M  V30 3666 C 342.539 3.97039 -1.502 0
M  V30 3667 C 340.446 4.55112 -3.7766 0
M  V30 3668 H 339.376 0.667866 -0.349959 0
M  V30 3669 H 342.027 1.18794 -1.39858 0
M  V30 3670 H 340.409 3.79952 -1.11589 0
M  V30 3671 H 341.583 2.68167 -3.74731 0
M  V30 3672 H 339.898 2.55018 -3.29173 0
M  V30 3673 H 342.495 4.98194 -1.94183 0
M  V30 3674 H 342.838 4.13845 -0.451461 0
M  V30 3675 H 343.371 3.43894 -1.99954 0
M  V30 3676 H 340.11 4.43512 -4.82677 0
M  V30 3677 H 339.63 5.05406 -3.22994 0
M  V30 3678 H 341.309 5.24064 -3.79428 0
M  V30 3679 N 341.441 0.965919 1.2453 0
M  V30 3680 C 342.688 0.626831 1.92554 0
M  V30 3681 C 343.016 -0.837739 1.75534 0
M  V30 3682 O 342.271 -1.61793 1.10098 0
M  V30 3683 C 342.57 0.945428 3.44669 0
M  V30 3684 C 342.236 2.39785 3.81856 0
M  V30 3685 C 340.898 2.79483 3.91718 0
M  V30 3686 C 343.25 3.34055 4.00071 0
M  V30 3687 C 340.578 4.12496 4.1721 0
M  V30 3688 C 342.93 4.66694 4.27059 0
M  V30 3689 C 341.594 5.06172 4.3514 0
M  V30 3690 H 340.864 0.229374 0.704605 0
M  V30 3691 H 343.511 1.21707 1.4785 0
M  V30 3692 H 341.816 0.272926 3.90848 0
M  V30 3693 H 343.513 0.661484 3.95507 0
M  V30 3694 H 340.103 2.08003 3.74743 0
M  V30 3695 H 344.287 3.04571 3.91855 0
M  V30 3696 H 339.543 4.42709 4.21685 0
M  V30 3697 H 343.717 5.3971 4.40097 0
M  V30 3698 H 341.344 6.09262 4.54646 0
M  V30 3699 N 342.919 -1.39368 0.735821 0
M  V30 3700 C 343.866 -2.30599 0.0963825 0
M  V30 3701 C 344.836 -1.49257 -0.728794 0
M  V30 3702 O 346.021 -1.77941 -0.688588 0
M  V30 3703 C 343.161 -3.35596 -0.804305 0
M  V30 3704 C 342.274 -4.31987 0.0335761 0
M  V30 3705 C 341.409 -5.24053 -0.868461 0
M  V30 3706 C 340.448 -6.12095 -0.0258776 0
M  V30 3707 N 339.585 -6.96514 -0.883893 0
M  V30 3708 H 344.425 -2.8471 0.880002 0
M  V30 3709 H 341.962 -1.40188 0.445619 0
M  V30 3710 H 343.92 -3.95062 -1.34096 0
M  V30 3711 H 342.55 -2.82938 -1.55389 0
M  V30 3712 H 341.602 -3.74133 0.68766 0
M  V30 3713 H 342.914 -4.94074 0.685036 0
M  V30 3714 H 342.068 -5.88549 -1.47293 0
M  V30 3715 H 340.807 -4.62289 -1.5537 0
M  V30 3716 H 339.812 -5.4661 0.591386 0
M  V30 3717 H 341.037 -6.75923 0.656156 0
M  V30 3718 H 338.983 -6.37318 -1.55441 0
M  V30 3719 H 338.9 -7.55448 -0.288931 0
M  V30 3720 H 340.168 -7.65439 -1.4739 0
M  V30 3721 N 344.397 -0.483516 -1.5 0
M  V30 3722 C 345.646 0.0689102 -2.01582 0
M  V30 3723 C 345.959 1.39655 -1.36952 0
M  V30 3724 O 347.165 2.03465 -1.79762 0
M  V30 3725 C 345.621 0.173302 -3.59483 0
M  V30 3726 C 345.229 -1.14665 -4.33077 0
M  V30 3727 C 346.973 0.677024 -4.19066 0
M  V30 3728 C 344.88 -1.00537 -5.82792 0
M  V30 3729 H 343.81 0.0295277 -0.753422 0
M  V30 3730 H 346.461 -0.620295 -1.72698 0
M  V30 3731 H 344.843 0.926569 -3.85007 0
M  V30 3732 H 346.017 -1.91184 -4.19268 0
M  V30 3733 H 344.332 -1.58244 -3.85159 0
M  V30 3734 H 346.929 0.799952 -5.28682 0
M  V30 3735 H 347.272 1.67151 -3.81269 0
M  V30 3736 H 347.805 -0.0192083 -3.97795 0
M  V30 3737 H 344.544 -1.9736 -6.25083 0
M  V30 3738 H 344.064 -0.280776 -5.99142 0
M  V30 3739 H 345.743 -0.677 -6.43448 0
M  V30 3740 N 345.875 1.56104 -0.216619 0
M  V30 3741 C 347.123 1.97781 0.415593 0
M  V30 3742 C 347.444 1.10536 1.60645 0
M  V30 3743 O 346.714 0.181303 1.95059 0
M  V30 3744 H 345.294 0.730415 0.156534 0
M  V30 3745 H 347.956 1.92445 -0.308366 0
M  V30 3746 H 347.052 3.03072 0.74525 0
M  V30 3747 N 347.353 -0.0568162 1.57498 0
M  V30 3748 C 348.601 -0.751617 1.87604 0
M  V30 3749 C 348.922 -1.77351 0.81066 0
M  V30 3750 O 348.192 -1.95254 -0.159018 0
M  V30 3751 H 346.772 -0.280583 0.692302 0
M  V30 3752 H 349.434 -0.0293483 1.94878 0
M  V30 3753 H 348.53 -1.25852 2.856 0
M  V30 3754 N 348.832 -1.54138 -0.328536 0
M  V30 3755 C 350.243 -1.63395 -0.903272 0
M  V30 3756 C 350.594 -0.524828 -1.8905 0
M  V30 3757 O 349.719 0.343068 -2.13663 0
M  V30 3758 C 350.314 -2.9618 -1.64507 0
M  V30 3759 C 348.873 -3.0765 -2.1686 0
M  V30 3760 C 348.02 -2.58933 -0.992416 0
M  V30 3761 H 350.971 -1.58344 -0.106253 0
M  V30 3762 H 350.992 -2.86061 -2.50897 0
M  V30 3763 H 350.504 -3.76884 -0.926302 0
M  V30 3764 H 348.605 -2.31611 -2.91868 0
M  V30 3765 H 348.718 -4.1337 -2.42202 0
M  V30 3766 H 347.082 -2.14706 -1.37016 0
M  V30 3767 H 347.865 -3.42089 -0.288041 0
M  V30 3768 N 350.31 0.590341 -1.46126 0
M  V30 3769 C 351.22 1.72793 -1.58681 0
M  V30 3770 C 352.236 1.67516 -0.470566 0
M  V30 3771 O 353.412 1.87562 -0.733642 0
M  V30 3772 C 350.477 3.09287 -1.5666 0
M  V30 3773 C 349.538 3.25886 -2.79458 0
M  V30 3774 C 348.771 4.55869 -2.77524 0
M  V30 3775 O 348.994 5.3928 -1.85832 0
M  V30 3776 O 347.928 4.75552 -3.68964 0
M  V30 3777 H 351.754 1.65149 -2.54872 0
M  V30 3778 H 349.339 0.756486 -1.28832 0
M  V30 3779 H 351.221 3.90577 -1.58202 0
M  V30 3780 H 349.896 3.17385 -0.636271 0
M  V30 3781 H 348.803 2.44119 -2.83472 0
M  V30 3782 H 350.136 3.22675 -3.71674 0
M  V30 3783 N 351.788 1.33704 0.83433 0
M  V30 3784 C 353.204 1.13137 1.12571 0
M  V30 3785 C 353.404 -0.0747261 2.01361 0
M  V30 3786 O 352.46 -0.753647 2.4099 0
M  V30 3787 C 353.773 2.42105 1.78342 0
M  V30 3788 C 355.321 2.48054 1.90888 0
M  V30 3789 C 355.796 3.76995 2.60075 0
M  V30 3790 N 357.287 3.78092 2.67584 0
M  V30 3791 C 358.022 4.74574 3.21818 0
M  V30 3792 N 357.518 5.81434 3.76705 0
M  V30 3793 N 359.311 4.62044 3.20112 0
M  V30 3794 H 351.462 2.11 0.243489 0
M  V30 3795 H 353.725 0.932532 0.17055 0
M  V30 3796 H 353.431 3.30391 1.20561 0
M  V30 3797 H 353.305 2.54594 2.7832 0
M  V30 3798 H 355.692 1.60215 2.47821 0
M  V30 3799 H 355.773 2.39502 0.898459 0
M  V30 3800 H 355.417 4.65219 2.03799 0
M  V30 3801 H 355.347 3.82825 3.61597 0
M  V30 3802 H 357.838 3.00865 2.28667 0
M  V30 3803 H 358.151 6.51084 4.16305 0
M  V30 3804 H 356.496 5.85163 3.7498 0
M  V30 3805 H 359.687 3.77716 2.76493 0
M  V30 3806 H 359.86 5.37406 3.62076 0
M  V30 3807 N 353.266 -1.05314 1.17247 0
M  V30 3808 C 354.512 -1.78557 0.961513 0
M  V30 3809 C 354.845 -1.87419 -0.508697 0
M  V30 3810 O 354.12 -1.37307 -1.37757 0
M  V30 3811 C 354.403 -3.22514 1.60176 0
M  V30 3812 C 354.256 -3.21673 3.14399 0
M  V30 3813 C 355.575 -4.20318 1.30463 0
M  V30 3814 H 352.694 -0.6482 0.350723 0
M  V30 3815 H 355.336 -1.23102 1.44727 0
M  V30 3816 H 353.486 -3.69867 1.18871 0
M  V30 3817 H 355.158 -2.82405 3.64753 0
M  V30 3818 H 353.401 -2.60048 3.47214 0
M  V30 3819 H 354.072 -4.23271 3.54324 0
M  V30 3820 H 356.548 -3.81454 1.66229 0
M  V30 3821 H 355.424 -5.19289 1.77848 0
M  V30 3822 H 355.685 -4.41526 0.22521 0
M  V30 3823 N 354.744 -0.972509 -1.24016 0
M  V30 3824 C 355.99 -0.637978 -1.92504 0
M  V30 3825 C 356.323 0.825383 -1.75787 0
M  V30 3826 O 355.598 1.59442 -1.11393 0
M  V30 3827 C 355.881 -1.01942 -3.45369 0
M  V30 3828 C 355.734 -2.53983 -3.71231 0
M  V30 3829 C 357.053 -0.55751 -4.36555 0
M  V30 3830 H 354.172 -0.233248 -0.699117 0
M  V30 3831 H 356.814 -1.21238 -1.46292 0
M  V30 3832 H 354.964 -0.530656 -3.84859 0
M  V30 3833 H 356.636 -3.10374 -3.41271 0
M  V30 3834 H 354.879 -2.96968 -3.16216 0
M  V30 3835 H 355.55 -2.75723 -4.78206 0
M  V30 3836 H 358.026 -0.977029 -4.04467 0
M  V30 3837 H 356.902 -0.85292 -5.42233 0
M  V30 3838 H 357.163 0.542328 -4.38761 0
M  V30 3839 N 356.222 1.38976 -0.743202 0
M  V30 3840 C 357.152 2.33171 -0.123873 0
M  V30 3841 C 358.133 1.54336 0.71516 0
M  V30 3842 O 359.318 1.82696 0.658467 0
M  V30 3843 C 356.448 3.38474 0.777978 0
M  V30 3844 C 355.402 4.27979 0.0424758 0
M  V30 3845 C 354.728 5.2405 1.06189 0
M  V30 3846 C 356.028 5.10155 -1.1198 0
M  V30 3847 H 357.722 2.85213 -0.910709 0
M  V30 3848 H 355.268 1.37133 -0.439388 0
M  V30 3849 H 357.221 4.03328 1.22084 0
M  V30 3850 H 355.945 2.84891 1.59702 0
M  V30 3851 H 354.604 3.64616 -0.380853 0
M  V30 3852 H 354.252 4.66758 1.87472 0
M  V30 3853 H 353.952 5.84785 0.574485 0
M  V30 3854 H 355.476 5.9178 1.50428 0
M  V30 3855 H 356.89 5.68307 -0.75499 0
M  V30 3856 H 355.287 5.80073 -1.53738 0
M  V30 3857 H 356.357 4.44504 -1.93764 0
M  V30 3858 N 357.7 0.491464 1.49741 0
M  V30 3859 C 358.63 -0.28154 2.31796 0
M  V30 3860 C 359.611 -0.971473 1.3963 0
M  V30 3861 O 360.796 -0.964719 1.68543 0
M  V30 3862 C 357.926 -1.35203 3.19902 0
M  V30 3863 C 356.88 -0.782529 4.20786 0
M  V30 3864 C 356.206 -1.95283 4.97764 0
M  V30 3865 C 357.506 0.21999 5.21837 0
M  V30 3866 H 359.2 0.403355 2.96671 0
M  V30 3867 H 356.746 0.195425 1.42668 0
M  V30 3868 H 358.699 -1.90045 3.76113 0
M  V30 3869 H 357.423 -2.06598 2.52953 0
M  V30 3870 H 356.082 -0.255928 3.65706 0
M  V30 3871 H 355.73 -2.65423 4.2727 0
M  V30 3872 H 355.43 -1.57789 5.66018 0
M  V30 3873 H 356.954 -2.50577 5.56816 0
M  V30 3874 H 358.368 -0.23996 5.72798 0
M  V30 3875 H 356.765 0.51026 5.97927 0
M  V30 3876 H 357.835 1.13911 4.7133 0
M  V30 3877 N 359.178 -1.55987 0.224894 0
M  V30 3878 C 360.126 -2.21808 -0.700283 0
M  V30 3879 C 361.12 -1.19854 -1.19714 0
M  V30 3880 O 362.326 -1.37925 -1.15658 0
M  V30 3881 H 358.701 -0.711226 -0.244258 0
M  V30 3882 H 360.672 -2.98152 -0.121749 0
M  V30 3883 C 359.421 -2.91444 -1.8962 0
M  V30 3884 H 358.744 -3.69655 -1.52299 0
M  V30 3885 H 360.184 -3.40894 -2.52125 0
M  V30 3886 C 358.643 -1.94098 -2.75368 0
M  V30 3887 O 359.173 -1.46004 -3.74227 0
M  V30 3888 N 357.379 -1.61675 -2.41474 0
M  V30 3889 H 356.926 -2.00979 -1.61137 0
M  V30 3890 H 356.884 -0.968036 -2.99126 0
M  V30 3891 N 360.656 0.0484629 -1.57525 0
M  V30 3892 C 361.884 0.755421 -1.92616 0
M  V30 3893 C 362.299 1.69919 -0.822984 0
M  V30 3894 O 361.656 1.81378 0.202085 0
M  V30 3895 C 361.707 1.52915 -3.27566 0
M  V30 3896 O 361.428 0.62329 -4.33644 0
M  V30 3897 C 362.929 2.33502 -3.76818 0
M  V30 3898 H 360.149 0.213465 -0.63614 0
M  V30 3899 H 362.693 0.0117698 -2.04497 0
M  V30 3900 H 360.848 2.22486 -3.17142 0
M  V30 3901 H 361.262 1.16383 -5.11425 0
M  V30 3902 H 362.736 2.83214 -4.73808 0
M  V30 3903 H 363.213 3.14068 -3.07014 0
M  V30 3904 H 363.819 1.69043 -3.90262 0
M  V30 3905 N 362.134 1.5431 0.320358 0
M  V30 3906 C 363.381 1.72668 1.05792 0
M  V30 3907 C 363.709 0.502084 1.87908 0
M  V30 3908 O 362.964 -0.516149 1.88771 0
M  V30 3909 C 363.263 2.95639 2.00828 0
M  V30 3910 C 362.929 4.30265 1.34843 0
M  V30 3911 C 361.591 4.66865 1.16578 0
M  V30 3912 C 363.943 5.13801 0.875095 0
M  V30 3913 C 361.271 5.84597 0.496336 0
M  V30 3914 C 363.623 6.32219 0.219463 0
M  V30 3915 C 362.287 6.67495 0.0246915 0
M  V30 3916 H 361.557 0.631837 0.387121 0
M  V30 3917 H 364.204 1.88552 0.334735 0
M  V30 3918 H 362.509 2.74456 2.79609 0
M  V30 3919 H 364.206 3.07038 2.57932 0
M  V30 3920 H 360.796 4.01472 1.50061 0
M  V30 3921 H 364.98 4.86039 1.00398 0
M  V30 3922 H 360.236 6.10486 0.334264 0
M  V30 3923 H 364.41 6.96227 -0.155291 0
M  V30 3924 H 362.037 7.5858 -0.496065 0
M  V30 3925 N 363.613 -0.582584 1.46437 0
M  V30 3926 C 364.838 -1.37168 1.55563 0
M  V30 3927 C 365.263 -1.87061 0.19743 0
M  V30 3928 O 364.621 -1.61572 -0.822451 0
M  V30 3929 C 364.669 -2.53511 2.56446 0
M  V30 3930 O 363.773 -3.54953 2.09958 0
M  V30 3931 H 363.114 -0.408494 0.523477 0
M  V30 3932 H 365.644 -0.706646 1.9201 0
M  V30 3933 H 365.654 -3.00426 2.76058 0
M  V30 3934 H 364.329 -2.16549 3.55076 0
M  V30 3935 H 362.906 -3.14516 2.00334 0
M  V30 3936 N 365.091 -1.34144 -0.827227 0
M  V30 3937 C 366.038 -1.25364 -1.93785 0
M  V30 3938 C 367.008 -0.129774 -1.65592 0
M  V30 3939 O 368.193 -0.310024 -1.88264 0
M  V30 3940 C 365.333 -1.01064 -3.2997 0
M  V30 3941 C 364.446 -2.22185 -3.70484 0
M  V30 3942 C 363.581 -1.91203 -4.95595 0
M  V30 3943 C 362.62 -3.08491 -5.28677 0
M  V30 3944 N 361.757 -2.77421 -6.44967 0
M  V30 3945 H 366.597 -2.20347 -2.00627 0
M  V30 3946 H 364.134 -1.09558 -0.981608 0
M  V30 3947 H 366.092 -0.850139 -4.08446 0
M  V30 3948 H 364.722 -0.0975026 -3.22653 0
M  V30 3949 H 363.774 -2.4917 -2.87434 0
M  V30 3950 H 365.086 -3.0983 -3.90905 0
M  V30 3951 H 364.24 -1.71864 -5.81848 0
M  V30 3952 H 362.979 -1.00812 -4.77167 0
M  V30 3953 H 361.984 -3.28431 -4.40923 0
M  V30 3954 H 363.209 -3.99655 -5.49047 0
M  V30 3955 H 361.155 -1.89601 -6.28003 0
M  V30 3956 H 361.072 -3.58598 -6.6554 0
M  V30 3957 H 362.34 -2.61577 -7.34301 0
M  V30 3958 N 366.569 1.04691 -1.17803 0
M  V30 3959 C 367.815 1.78045 -0.970969 0
M  V30 3960 C 368.148 1.87686 0.498751 0
M  V30 3961 O 367.423 1.38035 1.37027 0
M  V30 3962 C 367.706 3.2166 -1.61884 0
M  V30 3963 C 367.559 3.20001 -3.161 0
M  V30 3964 C 368.878 4.1962 -1.3269 0
M  V30 3965 H 365.997 0.64633 -0.354155 0
M  V30 3966 H 368.639 1.22333 -1.45378 0
M  V30 3967 H 366.789 3.69232 -1.20831 0
M  V30 3968 H 368.461 2.80467 -3.66246 0
M  V30 3969 H 366.704 2.58203 -3.48588 0
M  V30 3970 H 367.375 4.21386 -3.56564 0
M  V30 3971 H 369.851 3.80567 -1.68249 0
M  V30 3972 H 368.727 5.18339 -1.80599 0
M  V30 3973 H 368.988 4.414 -0.248622 0
M  V30 3974 N 368.047 0.979072 1.23499 0
M  V30 3975 C 368.977 0.537606 2.27227 0
M  V30 3976 C 369.958 -0.428539 1.64613 0
M  V30 3977 O 371.143 -0.322191 1.91509 0
M  V30 3978 C 368.273 -0.162052 3.46922 0
M  V30 3979 C 367.227 0.721242 4.21879 0
M  V30 3980 C 366.553 -0.110555 5.34586 0
M  V30 3981 C 367.853 2.01141 4.82016 0
M  V30 3982 H 369.547 1.40462 2.64406 0
M  V30 3983 H 367.093 0.67684 1.27102 0
M  V30 3984 H 369.046 -0.482192 4.18632 0
M  V30 3985 H 367.77 -1.06351 3.08799 0
M  V30 3986 H 366.429 1.02482 3.51984 0
M  V30 3987 H 366.077 -1.0125 4.92704 0
M  V30 3988 H 365.777 0.477325 5.85658 0
M  V30 3989 H 367.301 -0.425107 6.09118 0
M  V30 3990 H 368.715 1.75612 5.45741 0
M  V30 3991 H 367.112 2.54695 5.43369 0
M  V30 3992 H 368.182 2.69909 4.02836 0
M  V30 3993 N 369.525 -1.3858 0.750561 0
M  V30 3994 C 370.488 -2.28836 0.129152 0
M  V30 3995 C 371.488 -1.47045 -0.650714 0
M  V30 3996 O 372.678 -1.6753 -0.477428 0
M  V30 3997 C 369.81 -3.30751 -0.825622 0
M  V30 3998 H 371.003 -2.85294 0.924516 0
M  V30 3999 H 368.556 -1.47489 0.517376 0
M  V30 4000 H 369.291 -2.79378 -1.64677 0
M  V30 4001 H 369.076 -3.91177 -0.268852 0
M  V30 4002 H 370.566 -3.98249 -1.2565 0
M  V30 4003 N 371.003 -0.499398 -1.49478 0
M  V30 4004 C 372.414 -0.051215 -1.8663 0
M  V30 4005 C 372.765 1.36238 -1.41186 0
M  V30 4006 O 371.89 2.01502 -0.789051 0
M  V30 4007 C 372.485 -0.0861651 -3.3869 0
M  V30 4008 C 371.044 0.30667 -3.75149 0
M  V30 4009 C 370.191 -0.459397 -2.73468 0
M  V30 4010 H 373.142 -0.712264 -1.41818 0
M  V30 4011 H 373.163 0.709507 -3.73826 0
M  V30 4012 H 372.675 -1.11512 -3.71735 0
M  V30 4013 H 370.776 1.33892 -3.47712 0
M  V30 4014 H 370.889 -0.0116669 -4.79099 0
M  V30 4015 H 369.253 0.0905645 -2.54539 0
M  V30 4016 H 370.036 -1.4884 -3.09357 0
M  V30 4017 N 372.481 1.55866 -0.233164 0
M  V30 4018 C 373.729 1.9821 0.394593 0
M  V30 4019 C 374.05 1.12234 1.59463 0
M  V30 4020 O 373.32 0.201981 1.94856 0
M  V30 4021 H 371.9 0.732034 0.148778 0
M  V30 4022 H 374.562 1.92107 -0.32876 0
M  V30 4023 H 373.658 3.03845 0.713063 0
M  V30 4024 N 373.959 -0.0401083 1.57549 0
M  V30 4025 C 374.889 -1.04384 2.08869 0
M  V30 4026 C 375.87 -1.38407 0.988817 0
M  V30 4027 O 377.055 -1.47483 1.26342 0
M  V30 4028 C 374.185 -2.34808 2.55895 0
M  V30 4029 C 373.139 -2.15057 3.70047 0
M  V30 4030 C 372.465 -3.51145 4.03239 0
M  V30 4031 C 373.765 -1.54576 4.98902 0
M  V30 4032 H 375.459 -0.616666 2.92981 0
M  V30 4033 H 373.005 -0.295184 1.40942 0
M  V30 4034 H 374.958 -3.05346 2.90417 0
M  V30 4035 H 373.682 -2.79565 1.68853 0
M  V30 4036 H 372.341 -1.46954 3.35857 0
M  V30 4037 H 371.989 -3.93529 3.13279 0
M  V30 4038 H 371.689 -3.38758 4.80122 0
M  V30 4039 H 373.213 -4.23062 4.40285 0
M  V30 4040 H 374.627 -2.15017 5.31451 0
M  V30 4041 H 373.024 -1.52796 5.80322 0
M  V30 4042 H 374.094 -0.51039 4.82206 0
M  V30 4043 N 375.437 -1.54477 -0.31217 0
M  V30 4044 C 376.853 -1.45442 -0.657185 0
M  V30 4045 C 377.053 -0.63653 -1.91182 0
M  V30 4046 O 376.109 -0.139815 -2.52113 0
M  V30 4047 C 377.422 -2.89287 -0.82058 0
M  V30 4048 C 378.97 -2.9926 -0.917188 0
M  V30 4049 C 379.445 -4.44279 -1.11267 0
M  V30 4050 N 380.936 -4.4794 -1.17914 0
M  V30 4051 C 381.671 -5.57318 -1.34848 0
M  V30 4052 N 381.167 -6.76642 -1.48752 0
M  V30 4053 N 382.96 -5.44986 -1.37647 0
M  V30 4054 H 375.111 -2.06129 0.512313 0
M  V30 4055 H 377.374 -0.933088 0.167485 0
M  V30 4056 H 377.08 -3.51687 0.0302604 0
M  V30 4057 H 376.954 -3.36061 -1.71298 0
M  V30 4058 H 379.341 -2.36981 -1.75852 0
M  V30 4059 H 379.422 -2.558 -0.00101257 0
M  V30 4060 H 379.066 -5.07149 -0.27614 0
M  V30 4061 H 378.996 -4.85359 -2.04289 0
M  V30 4062 H 381.487 -3.61969 -1.08567 0
M  V30 4063 H 381.8 -7.55758 -1.61397 0
M  V30 4064 H 380.145 -6.79529 -1.45828 0
M  V30 4065 H 383.336 -4.50715 -1.26388 0
M  V30 4066 H 383.509 -6.3028 -1.50501 0
M  V30 4067 N 376.915 0.57481 -1.46744 0
M  V30 4068 C 378.164 1.32898 -1.51727 0
M  V30 4069 C 378.477 1.948 -0.176692 0
M  V30 4070 O 379.683 2.71299 -0.104385 0
M  V30 4071 C 378.139 2.40901 -2.67385 0
M  V30 4072 C 377.747 1.85266 -4.07898 0
M  V30 4073 C 379.491 3.17609 -2.81646 0
M  V30 4074 C 377.398 2.90945 -5.14883 0
M  V30 4075 H 376.328 0.499631 -0.564699 0
M  V30 4076 H 378.979 0.612536 -1.72975 0
M  V30 4077 H 377.361 3.15379 -2.39483 0
M  V30 4078 H 378.535 1.17278 -4.45626 0
M  V30 4079 H 376.85 1.21199 -3.98371 0
M  V30 4080 H 379.447 3.96493 -3.58744 0
M  V30 4081 H 379.79 3.70696 -1.89448 0
M  V30 4082 H 380.323 2.50239 -3.09233 0
M  V30 4083 H 377.062 2.42736 -6.089 0
M  V30 4084 H 376.582 3.57398 -4.81691 0
M  V30 4085 H 378.261 3.54755 -5.41071 0
M  V30 4086 N 378.394 1.34581 0.820102 0
M  V30 4087 C 379.642 1.26845 1.57336 0
M  V30 4088 C 379.963 -0.160667 1.94337 0
M  V30 4089 O 379.233 -1.09396 1.6251 0
M  V30 4090 H 377.813 0.466514 0.583415 0
M  V30 4091 H 380.475 1.68526 0.979027 0
M  V30 4092 H 379.571 1.87513 2.4949 0
M  V30 4093 N 379.872 -1.04064 1.18357 0
M  V30 4094 C 380.805 -2.11618 0.854 0
M  V30 4095 C 381.783 -1.61555 -0.184043 0
M  V30 4096 O 382.967 -1.88395 -0.0630048 0
M  V30 4097 C 380.094 -3.37574 0.27597 0
M  V30 4098 C 379.14 -4.06485 1.2912 0
M  V30 4099 S 379.973 -4.53543 2.84709 0
M  V30 4100 C 381.129 -5.82732 2.28417 0
M  V30 4101 H 381.362 -2.39247 1.76488 0
M  V30 4102 H 378.895 -1.16832 1.00944 0
M  V30 4103 H 380.853 -4.10468 -0.051026 0
M  V30 4104 H 379.514 -3.0806 -0.613028 0
M  V30 4105 H 378.707 -4.97024 0.835633 0
M  V30 4106 H 378.309 -3.39708 1.56443 0
M  V30 4107 H 380.601 -6.56677 1.66677 0
M  V30 4108 H 381.544 -6.33052 3.17256 0
M  V30 4109 H 381.952 -5.37838 1.71436 0
M  V30 4110 N 381.35 -0.985608 -1.22978 0
M  V30 4111 C 382.596 -0.65836 -1.91816 0
M  V30 4112 C 382.929 0.806692 -1.76653 0
M  V30 4113 O 382.204 1.58252 -1.13078 0
M  V30 4114 C 382.487 -1.056 -3.44268 0
M  V30 4115 C 382.34 -2.57906 -3.68516 0
M  V30 4116 C 383.659 -0.603781 -4.35939 0
M  V30 4117 H 380.778 -0.24065 -0.696604 0
M  V30 4118 H 383.42 -1.22783 -1.44998 0
M  V30 4119 H 381.57 -0.571445 -3.84274 0
M  V30 4120 H 383.242 -3.13976 -3.3796 0
M  V30 4121 H 381.485 -3.00305 -3.13048 0
M  V30 4122 H 382.156 -2.80779 -4.75255 0
M  V30 4123 H 384.632 -1.01987 -4.03408 0
M  V30 4124 H 383.508 -0.910383 -5.41298 0
M  V30 4125 H 383.769 0.495761 -4.39312 0
M  V30 4126 N 382.828 1.3818 -0.7579 0
M  V30 4127 C 383.791 2.28764 -0.141286 0
M  V30 4128 C 384.791 1.47388 0.642907 0
M  V30 4129 O 385.981 1.67781 0.468536 0
M  V30 4130 C 383.113 3.31184 0.808069 0
M  V30 4131 H 384.306 2.848 -0.939633 0
M  V30 4132 H 381.859 1.47212 -0.525191 0
M  V30 4133 H 382.594 2.80247 1.63193 0
M  V30 4134 H 382.379 3.91314 0.248104 0
M  V30 4135 H 383.869 3.98909 1.23536 0
M  V30 4136 N 384.306 0.507319 1.49211 0
M  V30 4137 C 385.554 -0.0348839 2.0207 0
M  V30 4138 C 385.875 -1.36898 1.38866 0
M  V30 4139 O 385.145 -1.88133 0.546151 0
M  V30 4140 H 383.725 -0.0158812 0.746831 0
M  V30 4141 H 386.387 0.665998 1.83168 0
M  V30 4142 H 385.483 -0.159917 3.1169 0
M  V30 4143 N 385.784 -1.5574 0.241426 0
M  V30 4144 C 387.009 -2.0366 -0.392111 0
M  V30 4145 C 387.434 -1.11969 -1.51144 0
M  V30 4146 O 386.792 -0.111594 -1.80956 0
M  V30 4147 C 386.84 -3.49638 -0.882371 0
M  V30 4148 O 385.944 -3.6108 -1.99235 0
M  V30 4149 H 385.285 -0.658379 -0.0862122 0
M  V30 4150 H 387.815 -2.01302 0.365881 0
M  V30 4151 H 387.825 -3.90351 -1.18702 0
M  V30 4152 H 386.5 -4.15852 -0.0632361 0
M  V30 4153 H 385.077 -3.32262 -1.69282 0
M  V30 4154 N 387.262 0.0317525 -1.57568 0
M  V30 4155 C 388.209 1.0332 -2.06382 0
M  V30 4156 C 389.179 1.36082 -0.952414 0
M  V30 4157 O 390.364 1.46466 -1.2228 0
M  V30 4158 C 387.504 2.32989 -2.54578 0
M  V30 4159 C 386.617 2.0641 -3.79498 0
M  V30 4160 C 385.752 3.2993 -4.16317 0
M  V30 4161 C 384.791 2.98893 -5.34162 0
M  V30 4162 N 383.928 4.14857 -5.66426 0
M  V30 4163 H 388.768 0.609982 -2.9169 0
M  V30 4164 H 386.305 0.289573 -1.44222 0
M  V30 4165 H 388.263 3.0875 -2.80587 0
M  V30 4166 H 386.893 2.73039 -1.7219 0
M  V30 4167 H 385.945 1.21158 -3.6059 0
M  V30 4168 H 387.257 1.79513 -4.65378 0
M  V30 4169 H 386.411 4.1406 -4.4344 0
M  V30 4170 H 385.15 3.59938 -3.29083 0
M  V30 4171 H 384.155 2.13164 -5.06795 0
M  V30 4172 H 385.38 2.70165 -6.23047 0
M  V30 4173 H 383.326 4.44821 -4.82151 0
M  V30 4174 H 383.243 3.91374 -6.4681 0
M  V30 4175 H 384.511 4.99868 -5.98124 0
M  V30 4176 N 388.74 1.54641 0.303973 0
M  V30 4177 C 389.65 1.88439 1.39743 0
M  V30 4178 C 390.666 0.778239 1.55626 0
M  V30 4179 O 391.842 1.07442 1.70347 0
M  V30 4180 C 388.907 2.12212 2.74166 0
M  V30 4181 C 387.968 3.35936 2.67293 0
M  V30 4182 C 387.201 3.58566 3.95305 0
M  V30 4183 O 387.424 2.84263 4.9452 0
M  V30 4184 O 386.358 4.52078 3.97378 0
M  V30 4185 H 390.184 2.81458 1.14083 0
M  V30 4186 H 387.769 1.40793 0.499768 0
M  V30 4187 H 389.651 2.29067 3.53704 0
M  V30 4188 H 388.326 1.22379 2.99675 0
M  V30 4189 H 387.233 3.24448 1.86237 0
M  V30 4190 H 388.566 4.2589 2.46736 0
M  V30 4191 N 390.218 -0.567019 1.47046 0
M  V30 4192 C 391.465 -1.32462 1.53167 0
M  V30 4193 C 391.793 -1.93571 0.189841 0
M  V30 4194 O 391.048 -1.77865 -0.816243 0
M  V30 4195 C 391.347 -2.4623 2.59047 0
M  V30 4196 C 391.013 -2.03014 4.02612 0
M  V30 4197 C 389.675 -1.90944 4.41694 0
M  V30 4198 C 392.027 -1.69895 4.92732 0
M  V30 4199 C 389.355 -1.44035 5.68745 0
M  V30 4200 C 391.707 -1.2446 6.20236 0
M  V30 4201 C 390.371 -1.10979 6.5821 0
M  V30 4202 H 389.641 -0.484713 0.560477 0
M  V30 4203 H 392.288 -0.636888 1.80599 0
M  V30 4204 H 390.593 -3.20517 2.25335 0
M  V30 4205 H 392.29 -3.04427 2.61008 0
M  V30 4206 H 388.88 -2.13348 3.71726 0
M  V30 4207 H 393.064 -1.78098 4.63244 0
M  V30 4208 H 388.32 -1.32254 5.96925 0
M  V30 4209 H 392.494 -0.978924 6.89485 0
M  V30 4210 H 390.121 -0.744078 7.5655 0
M  V30 4211 N 391.696 -1.35014 -0.812953 0
M  V30 4212 C 392.945 -1.27269 -1.56479 0
M  V30 4213 C 393.258 0.152771 -1.95002 0
M  V30 4214 O 394.464 0.352451 -2.69203 0
M  V30 4215 C 392.92 -2.23159 -2.82362 0
M  V30 4216 C 392.528 -3.71016 -2.511 0
M  V30 4217 C 394.272 -2.24342 -3.60376 0
M  V30 4218 C 392.179 -4.58746 -3.73237 0
M  V30 4219 H 391.109 -0.472829 -0.587324 0
M  V30 4220 H 393.76 -1.6024 -0.894171 0
M  V30 4221 H 392.142 -1.83151 -3.51101 0
M  V30 4222 H 393.316 -4.1962 -1.90409 0
M  V30 4223 H 391.631 -3.72378 -1.86343 0
M  V30 4224 H 394.228 -2.87107 -4.51081 0
M  V30 4225 H 394.571 -1.24542 -3.97234 0
M  V30 4226 H 395.104 -2.62846 -2.98591 0
M  V30 4227 H 391.843 -5.59521 -3.41492 0
M  V30 4228 H 391.363 -4.14871 -4.33176 0
M  V30 4229 H 393.042 -4.73852 -4.40537 0
M  V30 4230 N 393.175 1.03435 -1.18907 0
M  V30 4231 C 394.591 1.28973 -0.940111 0
M  V30 4232 C 394.791 1.97676 0.390691 0
M  V30 4233 O 393.847 2.26127 1.12352 0
M  V30 4234 C 395.16 2.14221 -2.11021 0
M  V30 4235 C 396.708 2.27547 -2.14922 0
M  V30 4236 C 397.183 3.16164 -3.31367 0
M  V30 4237 N 398.674 3.23752 -3.31269 0
M  V30 4238 C 399.409 3.92495 -4.18014 0
M  V30 4239 N 398.905 4.63515 -5.14904 0
M  V30 4240 N 400.698 3.88838 -4.05908 0
M  V30 4241 H 392.849 0.57252 -2.04538 0
M  V30 4242 H 395.112 0.315184 -0.894071 0
M  V30 4243 H 394.818 1.71054 -3.073 0
M  V30 4244 H 394.692 3.14919 -2.0762 0
M  V30 4245 H 397.079 2.69947 -1.19217 0
M  V30 4246 H 397.16 1.26418 -2.22378 0
M  V30 4247 H 396.804 2.74474 -4.27348 0
M  V30 4248 H 396.734 4.17339 -3.21148 0
M  V30 4249 H 399.225 2.73167 -2.61129 0
M  V30 4250 H 399.538 5.13583 -5.77453 0
M  V30 4251 H 397.883 4.62398 -5.18857 0
M  V30 4252 H 401.074 3.32491 -3.29495 0
M  V30 4253 H 401.247 4.4214 -4.73726 0
M  V30 4254 N 394.653 0.992116 1.22453 0
M  V30 4255 C 395.6 0.541731 2.24352 0
M  V30 4256 C 396.57 -0.425519 1.60557 0
M  V30 4257 O 397.755 -0.330453 1.87917 0
M  V30 4258 C 394.895 -0.138248 3.44823 0
M  V30 4259 C 394.008 0.870649 4.23136 0
M  V30 4260 C 393.143 0.164269 5.30946 0
M  V30 4261 C 392.182 1.16159 6.00977 0
M  V30 4262 N 391.319 0.483568 7.00433 0
M  V30 4263 H 396.159 1.41541 2.62241 0
M  V30 4264 H 393.696 0.709013 1.28885 0
M  V30 4265 H 395.654 -0.5494 4.13567 0
M  V30 4266 H 394.284 -0.975721 3.077 0
M  V30 4267 H 393.336 1.40013 3.53696 0
M  V30 4268 H 394.648 1.63014 4.7141 0
M  V30 4269 H 393.802 -0.303653 6.0594 0
M  V30 4270 H 392.541 -0.627733 4.83643 0
M  V30 4271 H 391.546 1.64015 5.24766 0
M  V30 4272 H 392.771 1.95445 6.50368 0
M  V30 4273 H 390.717 -0.289012 6.55363 0
M  V30 4274 H 390.634 1.18152 7.4671 0
M  V30 4275 H 391.902 0.0384219 7.79491 0
M  V30 4276 N 396.131 -1.37776 0.765217 0
M  V30 4277 C 397.38 -1.99092 0.323307 0
M  V30 4278 C 397.693 -1.61434 -1.10446 0
M  V30 4279 O 398.899 -2.15805 -1.64743 0
M  V30 4280 C 397.355 -3.56019 0.527098 0
M  V30 4281 C 396.963 -4.0262 1.96471 0
M  V30 4282 C 398.707 -4.2424 0.148483 0
M  V30 4283 C 396.614 -5.52233 2.11644 0
M  V30 4284 H 395.544 -0.744846 0.117137 0
M  V30 4285 H 398.195 -1.57391 0.943417 0
M  V30 4286 H 396.577 -3.95667 -0.162372 0
M  V30 4287 H 397.751 -3.74234 2.68859 0
M  V30 4288 H 396.066 -3.47161 2.29931 0
M  V30 4289 H 398.663 -5.34159 0.240456 0
M  V30 4290 H 399.006 -4.06446 -0.900422 0
M  V30 4291 H 399.539 -3.89872 0.79025 0
M  V30 4292 H 396.278 -5.74945 3.1483 0
M  V30 4293 H 395.798 -5.82324 1.4373 0
M  V30 4294 H 397.477 -6.18106 1.91193 0
M  V30 4295 N 397.609 -0.515225 -1.4894 0
M  V30 4296 C 398.855 0.0242508 -2.02785 0
M  V30 4297 C 399.188 1.35323 -1.39289 0
M  V30 4298 O 398.463 1.87041 -0.533469 0
M  V30 4299 C 398.746 0.16184 -3.59736 0
M  V30 4300 C 398.599 -1.19127 -4.33738 0
M  V30 4301 C 399.918 0.895719 -4.30888 0
M  V30 4302 H 397.037 0.00733914 -0.736963 0
M  V30 4303 H 399.679 -0.669395 -1.77818 0
M  V30 4304 H 397.829 0.752624 -3.8114 0
M  V30 4305 H 399.501 -1.82202 -4.23792 0
M  V30 4306 H 397.744 -1.77695 -3.95736 0
M  V30 4307 H 398.415 -1.04815 -5.41957 0
M  V30 4308 H 400.891 0.394528 -4.14225 0
M  V30 4309 H 399.767 0.960859 -5.40425 0
M  V30 4310 H 400.028 1.9427 -3.97129 0
M  V30 4311 N 399.087 1.5561 -0.249682 0
M  V30 4312 C 400.019 2.18834 0.681496 0
M  V30 4313 C 401.032 1.16546 1.1367 0
M  V30 4314 O 402.221 1.43397 1.06299 0
M  V30 4315 C 399.321 2.77992 1.9384 0
M  V30 4316 C 398.494 4.05725 1.63419 0
M  V30 4317 C 397.553 4.49174 2.74096 0
M  V30 4318 O 396.579 5.15492 2.41364 0
M  V30 4319 N 397.781 4.17191 4.03649 0
M  V30 4320 H 400.546 2.9937 0.140514 0
M  V30 4321 H 398.107 1.6175 -0.0697541 0
M  V30 4322 H 400.099 3.04015 2.67127 0
M  V30 4323 H 398.669 2.01596 2.38909 0
M  V30 4324 H 397.889 3.87261 0.736358 0
M  V30 4325 H 399.177 4.88999 1.40562 0
M  V30 4326 H 398.575 3.63955 4.33074 0
M  V30 4327 H 397.132 4.48043 4.73393 0
M  V30 4328 N 400.565 -0.0233959 1.57583 0
M  V30 4329 C 401.528 -1.00693 2.05897 0
M  V30 4330 C 402.528 -1.28693 0.964092 0
M  V30 4331 O 403.718 -1.23602 1.22753 0
M  V30 4332 C 400.85 -2.33825 2.4807 0
M  V30 4333 H 402.043 -0.589476 2.9405 0
M  V30 4334 H 399.596 -0.270354 1.53944 0
M  V30 4335 H 400.331 -2.80307 1.6309 0
M  V30 4336 H 400.116 -2.1483 3.2801 0
M  V30 4337 H 401.606 -3.04426 2.85857 0
M  V30 4338 N 402.043 -1.548 -0.295768 0
M  V30 4339 C 402.99 -1.86113 -1.36494 0
M  V30 4340 C 403.96 -0.7105 -1.50137 0
M  V30 4341 O 405.145 -0.959626 -1.64912 0
M  V30 4342 C 402.285 -2.11861 -2.72413 0
M  V30 4343 C 401.398 -3.39471 -2.67177 0
M  V30 4344 C 400.533 -3.55035 -3.95125 0
M  V30 4345 C 399.572 -4.76418 -3.84308 0
M  V30 4346 N 398.709 -4.8876 -5.04042 0
M  V30 4347 H 403.549 -2.77314 -1.09091 0
M  V30 4348 H 401.086 -1.37315 -0.52753 0
M  V30 4349 H 403.044 -2.24786 -3.51464 0
M  V30 4350 H 401.674 -1.2392 -2.98066 0
M  V30 4351 H 400.726 -3.35139 -1.79962 0
M  V30 4352 H 402.038 -4.28646 -2.55076 0
M  V30 4353 H 401.192 -3.67653 -4.82614 0
M  V30 4354 H 399.931 -2.64002 -4.10066 0
M  V30 4355 H 398.936 -4.63827 -2.95202 0
M  V30 4356 H 400.161 -5.68863 -3.70906 0
M  V30 4357 H 398.107 -4.00652 -5.19436 0
M  V30 4358 H 398.024 -5.71945 -4.94384 0
M  V30 4359 H 399.292 -5.0574 -5.93167 0
M  V30 4360 N 403.521 0.559213 -1.47345 0
M  V30 4361 C 404.453 1.68161 -1.55738 0
M  V30 4362 C 405.466 1.56636 -0.443744 0
M  V30 4363 O 406.655 1.6363 -0.713258 0
M  V30 4364 C 403.755 3.06611 -1.4437 0
M  V30 4365 C 402.928 3.4391 -2.70268 0
M  V30 4366 C 401.987 4.61515 -2.52765 0
M  V30 4367 O 401.013 4.66197 -3.26572 0
M  V30 4368 N 402.215 5.57883 -1.6046 0
M  V30 4369 H 404.98 1.61408 -2.52522 0
M  V30 4370 H 402.541 0.7458 -1.43699 0
M  V30 4371 H 404.533 3.83117 -1.30398 0
M  V30 4372 H 403.103 3.07602 -0.556766 0
M  V30 4373 H 402.323 2.56873 -2.99015 0
M  V30 4374 H 403.611 3.65605 -3.53851 0
M  V30 4375 H 403.009 5.56855 -0.996422 0
M  V30 4376 H 401.566 6.33723 -1.52441 0
M  V30 4377 N 404.999 1.35443 0.805782 0
M  V30 4378 C 406.224 1.32037 1.59941 0
M  V30 4379 C 406.649 -0.0994215 1.87837 0
M  V30 4380 O 406.007 -1.06648 1.46615 0
M  V30 4381 C 406.055 2.13354 2.90711 0
M  V30 4382 O 405.159 1.5148 3.83572 0
M  V30 4383 H 404.5 0.452666 0.485787 0
M  V30 4384 H 407.03 1.78496 1.00002 0
M  V30 4385 H 407.04 2.25338 3.40128 0
M  V30 4386 H 405.715 3.16572 2.69732 0
M  V30 4387 H 404.292 1.4834 3.42125 0
M  V30 4388 N 406.477 -1.02803 1.19454 0
M  V30 4389 C 407.44 -2.09264 0.934955 0
M  V30 4390 C 408.44 -1.60576 -0.0849015 0
M  V30 4391 O 409.63 -1.73554 0.149933 0
M  V30 4392 C 406.762 -3.38482 0.40531 0
M  V30 4393 H 407.955 -2.33726 1.87916 0
M  V30 4394 H 405.508 -1.19426 1.00832 0
M  V30 4395 H 406.243 -3.19689 -0.544899 0
M  V30 4396 H 406.028 -3.75142 1.14065 0
M  V30 4397 H 407.518 -4.16894 0.242806 0
M  V30 4398 N 407.956 -0.998596 -1.21925 0
M  V30 4399 C 409.233 -0.593401 -1.86382 0
M  V30 4400 C 409.613 0.92916 -1.89552 0
M  V30 4401 O 408.961 1.81347 -1.39017 0
M  V30 4402 C 409.171 -1.22039 -3.26967 0
M  V30 4403 C 410.519 -1.32449 -4.03413 0
M  V30 4404 O 411.543 -1.17522 -3.36254 0
M  V30 4405 O 410.402 -1.56395 -5.23644 0
M  V30 4406 H 407.496 -0.202385 -0.801854 0
M  V30 4407 H 410.042 -1.09484 -1.29659 0
M  V30 4408 H 408.814 -2.26158 -3.19325 0
M  V30 4409 H 408.437 -0.704906 -3.91301 0
M  V30 4410 N 409.434 1.37368 -0.772513 0
M  V30 4411 C 410.364 2.32856 -0.173304 0
M  V30 4412 C 411.345 1.55818 0.682262 0
M  V30 4413 O 412.53 1.84052 0.619566 0
M  V30 4414 C 409.66 3.40048 0.706007 0
M  V30 4415 C 408.614 4.27973 -0.0483144 0
M  V30 4416 C 407.94 5.26184 0.950491 0
M  V30 4417 C 409.24 5.07665 -1.22776 0
M  V30 4418 H 410.934 2.83217 -0.971002 0
M  V30 4419 H 408.48 1.3617 -0.468377 0
M  V30 4420 H 410.433 4.05827 1.13501 0
M  V30 4421 H 409.157 2.88214 1.53623 0
M  V30 4422 H 407.816 3.63726 -0.458107 0
M  V30 4423 H 407.464 4.7063 1.77529 0
M  V30 4424 H 407.164 5.85872 0.450314 0
M  V30 4425 H 408.688 5.94838 1.37842 0
M  V30 4426 H 410.102 5.66578 -0.875366 0
M  V30 4427 H 408.499 5.76681 -1.66007 0
M  V30 4428 H 409.569 4.40294 -2.03149 0
M  V30 4429 N 410.912 0.523116 1.48665 0
M  V30 4430 C 412.152 -0.0115588 2.04397 0
M  V30 4431 C 412.516 -1.32225 1.39214 0
M  V30 4432 O 413.717 -1.94253 1.85793 0
M  V30 4433 C 411.988 -0.138119 3.57133 0
M  V30 4434 S 413.547 -0.623849 4.34343 0
M  V30 4435 H 410.365 0.00877706 0.710946 0
M  V30 4436 H 412.967 0.702116 1.82457 0
M  V30 4437 H 411.671 0.820748 4.02109 0
M  V30 4438 H 411.202 -0.876377 3.83514 0
M  V30 4439 H 413.217 -1.8895 4.58816 0
M  V30 4440 N 412.39 -1.55475 0.257931 0
M  V30 4441 C 413.615 -2.04064 -0.370488 0
M  V30 4442 C 414.04 -1.13565 -1.49948 0
M  V30 4443 O 413.398 -0.130781 -1.80828 0
M  V30 4444 C 413.446 -3.50554 -0.845237 0
M  V30 4445 O 412.55 -3.63173 -1.95394 0
M  V30 4446 H 411.891 -0.659257 -0.0792243 0
M  V30 4447 H 414.421 -2.00903 0.387212 0
M  V30 4448 H 414.431 -3.91588 -1.14555 0
M  V30 4449 H 413.106 -4.15896 -0.0191259 0
M  V30 4450 H 411.683 -3.34039 -1.65748 0
M  V30 4451 N 413.868 0.0150385 -1.57593 0
M  V30 4452 C 415.279 0.559832 -1.78109 0
M  V30 4453 C 415.63 1.74814 -0.890756 0
M  V30 4454 O 414.755 2.16216 -0.0892482 0
M  V30 4455 C 415.35 1.02238 -3.23006 0
M  V30 4456 C 413.909 1.51258 -3.44671 0
M  V30 4457 C 413.056 0.456955 -2.73509 0
M  V30 4458 H 416.007 -0.211169 -1.57289 0
M  V30 4459 H 416.028 1.88912 -3.30292 0
M  V30 4460 H 415.54 0.157302 -3.87781 0
M  V30 4461 H 413.641 2.39905 -2.8509 0
M  V30 4462 H 413.754 1.55042 -4.5332 0
M  V30 4463 H 412.118 0.915196 -2.37689 0
M  V30 4464 H 412.901 -0.398896 -3.40975 0
M  V30 4465 N 415.346 1.54954 0.287554 0
M  V30 4466 C 416.309 1.86076 1.33823 0
M  V30 4467 C 417.309 0.734414 1.43049 0
M  V30 4468 O 418.499 1.00266 1.42452 0
M  V30 4469 C 415.631 2.05305 2.72144 0
M  V30 4470 H 416.824 2.79984 1.07465 0
M  V30 4471 H 414.377 1.47223 0.524902 0
M  V30 4472 H 415.112 1.1373 3.03704 0
M  V30 4473 H 414.897 2.873 2.66836 0
M  V30 4474 H 416.387 2.30706 3.48087 0
M  V30 4475 N 416.824 -0.551391 1.4764 0
M  V30 4476 C 418.073 -1.30467 1.53822 0
M  V30 4477 C 418.386 -1.94495 0.207661 0
M  V30 4478 O 419.592 -2.71099 0.147533 0
M  V30 4479 C 418.048 -2.36616 2.71184 0
M  V30 4480 C 417.656 -1.78754 4.10793 0
M  V30 4481 C 419.4 -3.13088 2.86663 0
M  V30 4482 C 417.307 -2.82717 5.19447 0
M  V30 4483 H 416.237 -0.490584 0.572576 0
M  V30 4484 H 418.888 -0.58494 1.73927 0
M  V30 4485 H 417.27 -3.11529 2.4447 0
M  V30 4486 H 418.444 -1.10173 4.47435 0
M  V30 4487 H 416.759 -1.14846 4.00249 0
M  V30 4488 H 419.356 -3.90736 3.65007 0
M  V30 4489 H 419.699 -3.67635 1.95321 0
M  V30 4490 H 420.232 -2.45288 3.13175 0
M  V30 4491 H 416.971 -2.33018 6.12685 0
M  V30 4492 H 416.491 -3.4969 4.87316 0
M  V30 4493 H 418.17 -3.46102 5.46646 0
M  V30 4494 N 418.302 -1.35869 -0.798587 0
M  V30 4495 C 419.53 -1.32722 -1.58722 0
M  V30 4496 C 419.945 0.0935631 -1.88568 0
M  V30 4497 O 419.302 1.04784 -1.49421 0
M  V30 4498 C 419.353 -2.13974 -2.91371 0
M  V30 4499 O 419.074 -3.50514 -2.62815 0
M  V30 4500 C 420.575 -2.18504 -3.85708 0
M  V30 4501 H 417.795 -0.45562 -0.492596 0
M  V30 4502 H 420.339 -1.78837 -0.991843 0
M  V30 4503 H 418.494 -1.71438 -3.47402 0
M  V30 4504 H 418.908 -3.92806 -3.47568 0
M  V30 4505 H 420.382 -2.79732 -4.75872 0
M  V30 4506 H 420.859 -1.18597 -4.22885 0
M  V30 4507 H 421.465 -2.61236 -3.35612 0
M  V30 4508 N 419.78 1.02168 -1.19998 0
M  V30 4509 C 420.73 2.08969 -0.911921 0
M  V30 4510 C 421.714 1.60404 0.12621 0
M  V30 4511 O 422.906 1.76817 -0.0804706 0
M  V30 4512 C 420.035 3.402 -0.460277 0
M  V30 4513 C 419.121 3.9548 -1.53155 0
M  V30 4514 N 419.512 4.24332 -2.75275 0
M  V30 4515 C 417.81 4.23572 -1.39653 0
M  V30 4516 C 418.511 4.68834 -3.44339 0
M  V30 4517 N 417.487 4.70804 -2.71744 0
M  V30 4518 H 421.289 2.29178 -1.83997 0
M  V30 4519 H 418.803 1.20094 -1.09322 0
M  V30 4520 H 420.8 4.16235 -0.235337 0
M  V30 4521 H 419.46 3.21408 0.4612 0
M  V30 4522 H 420.471 4.13393 -3.11973 0
M  V30 4523 H 417.148 4.14005 -0.539067 0
M  V30 4524 H 418.538 5.00019 -4.4881 0
M  V30 4525 N 421.258 1.00505 1.21394 0
M  V30 4526 C 422.674 0.717873 1.42544 0
M  V30 4527 C 422.874 -0.706936 1.88692 0
M  V30 4528 O 421.93 -1.47627 2.04847 0
M  V30 4529 C 423.243 1.73377 2.45684 0
M  V30 4530 C 424.791 1.75059 2.59467 0
M  V30 4531 C 425.266 2.75545 3.6584 0
M  V30 4532 N 426.757 2.74213 3.73311 0
M  V30 4533 C 427.492 3.48626 4.55245 0
M  V30 4534 N 426.988 4.32678 5.41075 0
M  V30 4535 N 428.781 3.37276 4.49668 0
M  V30 4536 H 420.932 1.92506 0.897503 0
M  V30 4537 H 423.195 0.830919 0.456375 0
M  V30 4538 H 422.901 2.75395 2.18748 0
M  V30 4539 H 422.775 1.53647 3.44489 0
M  V30 4540 H 425.162 0.737337 2.8574 0
M  V30 4541 H 425.243 1.98861 1.60897 0
M  V30 4542 H 424.887 3.77028 3.40313 0
M  V30 4543 H 424.817 2.49009 4.64007 0
M  V30 4544 H 427.308 2.13234 3.11993 0
M  V30 4545 H 427.621 4.86253 6.00648 0
M  V30 4546 H 425.966 4.3676 5.40616 0
M  V30 4547 H 429.157 2.71043 3.81646 0
M  V30 4548 H 429.33 3.95524 5.13288 0
M  V30 4549 N 422.737 -1.36956 0.779787 0
M  V30 4550 C 423.667 -2.32761 0.185651 0
M  V30 4551 C 424.648 -1.56177 -0.673989 0
M  V30 4552 O 425.833 -1.84378 -0.609797 0
M  V30 4553 C 422.963 -3.40418 -0.687964 0
M  V30 4554 C 421.917 -4.27941 0.0710102 0
M  V30 4555 C 421.243 -5.26681 -0.922573 0
M  V30 4556 C 422.543 -5.07006 1.25467 0
M  V30 4557 H 424.237 -2.82698 0.986008 0
M  V30 4558 H 421.783 -1.3592 0.475592 0
M  V30 4559 H 423.736 -4.06423 -1.11348 0
M  V30 4560 H 422.46 -2.89025 -1.52093 0
M  V30 4561 H 421.119 -3.63478 0.47739 0
M  V30 4562 H 420.767 -4.71565 -1.7503 0
M  V30 4563 H 420.467 -5.86103 -0.419237 0
M  V30 4564 H 421.991 -5.9556 -1.34686 0
M  V30 4565 H 423.405 -5.66105 0.905401 0
M  V30 4566 H 421.802 -5.75793 1.69063 0
M  V30 4567 H 422.872 -4.3921 2.05481 0
M  V30 4568 N 424.215 -0.530993 -1.48385 0
M  V30 4569 C 425.178 0.220497 -2.28137 0
M  V30 4570 C 426.178 0.866851 -1.35434 0
M  V30 4571 O 427.368 0.726746 -1.58316 0
M  V30 4572 C 424.5 1.31921 -3.1434 0
M  V30 4573 H 425.693 -0.479714 -2.96038 0
M  V30 4574 H 423.246 -0.286968 -1.53643 0
M  V30 4575 H 423.981 2.05264 -2.51072 0
M  V30 4576 H 423.766 0.86085 -3.82533 0
M  V30 4577 H 425.256 1.84776 -3.74497 0
M  V30 4578 N 425.693 1.55336 -0.266172 0
M  V30 4579 C 426.656 2.20878 0.612001 0
M  V30 4580 C 427.656 1.18388 1.08816 0
M  V30 4581 O 428.846 1.4335 0.989774 0
M  V30 4582 C 425.978 2.86765 1.84332 0
M  V30 4583 H 427.171 2.99873 0.0398718 0
M  V30 4584 H 424.724 1.56291 -0.0167309 0
M  V30 4585 H 425.459 2.11759 2.45619 0
M  V30 4586 H 425.244 3.61862 1.5099 0
M  V30 4587 H 426.734 3.36867 2.46801 0
M  V30 4588 N 427.171 -0.0066808 1.57599 0
M  V30 4589 C 428.587 -0.36267 1.55425 0
M  V30 4590 C 428.787 -1.75209 0.995187 0
M  V30 4591 O 427.843 -2.44616 0.626058 0
M  V30 4592 C 429.156 -0.244017 2.99708 0
M  V30 4593 C 430.704 -0.319451 3.11366 0
M  V30 4594 C 431.179 -0.229998 4.57422 0
M  V30 4595 N 432.67 -0.288105 4.62303 0
M  V30 4596 C 433.405 -0.242127 5.72889 0
M  V30 4597 N 432.901 -0.147133 6.92644 0
M  V30 4598 N 434.694 -0.293502 5.61333 0
M  V30 4599 H 426.845 0.902314 1.92281 0
M  V30 4600 H 429.108 0.34525 0.882896 0
M  V30 4601 H 428.814 0.711678 3.44424 0
M  V30 4602 H 428.688 -1.02877 3.629 0
M  V30 4603 H 431.075 -1.26559 2.66584 0
M  V30 4604 H 431.156 0.495055 2.50964 0
M  V30 4605 H 430.8 0.712566 5.02877 0
M  V30 4606 H 430.73 -1.0629 5.15761 0
M  V30 4607 H 433.221 -0.363126 3.76151 0
M  V30 4608 H 433.534 -0.117763 7.7271 0
M  V30 4609 H 431.879 -0.112857 6.94908 0
M  V30 4610 H 435.07 -0.365864 4.66668 0
M  V30 4611 H 435.243 -0.254204 6.47501 0
M  V30 4612 N 428.649 -1.55105 -0.279332 0
M  V30 4613 C 429.879 -1.7917 -1.02867 0
M  V30 4614 C 430.287 -0.56204 -1.80659 0
M  V30 4615 O 429.63 0.478266 -1.77365 0
M  V30 4616 C 429.692 -2.96061 -2.03932 0
M  V30 4617 C 429.356 -4.33341 -1.45137 0
M  V30 4618 C 430.353 -5.12565 -0.870266 0
M  V30 4619 C 428.038 -4.79987 -1.48048 0
M  V30 4620 C 430.032 -6.36565 -0.326097 0
M  V30 4621 C 427.719 -6.03944 -0.932443 0
M  V30 4622 C 428.717 -6.8207 -0.356247 0
M  V30 4623 O 428.405 -8.03691 0.183412 0
M  V30 4624 H 428.137 -0.600796 -0.309872 0
M  V30 4625 H 430.691 -2.02932 -0.317468 0
M  V30 4626 H 428.921 -2.67975 -2.78794 0
M  V30 4627 H 430.61 -3.07506 -2.64943 0
M  V30 4628 H 431.376 -4.77661 -0.840521 0
M  V30 4629 H 427.255 -4.1919 -1.91835 0
M  V30 4630 H 430.799 -6.97489 0.124286 0
M  V30 4631 H 426.696 -6.3833 -0.959407 0
M  V30 4632 H 427.464 -8.18468 0.0721681 0
M  V30 4633 N 430.127 0.543554 -1.4793 0
M  V30 4634 C 431.057 1.65888 -1.64327 0
M  V30 4635 C 432.038 1.62818 -0.492383 0
M  V30 4636 O 433.223 1.80226 -0.723338 0
M  V30 4637 C 430.353 3.04506 -1.67013 0
M  V30 4638 C 429.307 3.2243 -2.81466 0
M  V30 4639 C 428.633 4.61972 -2.69233 0
M  V30 4640 C 429.933 3.06496 -4.22915 0
M  V30 4641 H 431.627 1.52421 -2.57698 0
M  V30 4642 H 429.173 0.731849 -1.24016 0
M  V30 4643 H 431.126 3.82391 -1.77074 0
M  V30 4644 H 429.85 3.18964 -0.70212 0
M  V30 4645 H 428.509 2.46957 -2.70938 0
M  V30 4646 H 428.157 4.73247 -1.7043 0
M  V30 4647 H 427.857 4.74911 -3.46025 0
M  V30 4648 H 429.381 5.41974 -2.81242 0
M  V30 4649 H 430.795 3.74186 -4.34348 0
M  V30 4650 H 429.192 3.30938 -5.006 0
M  V30 4651 H 430.262 2.03077 -4.40327 0
M  V30 4652 N 431.605 1.3629 0.791371 0
M  V30 4653 C 432.515 1.32606 1.93527 0
M  V30 4654 C 433.531 0.228541 1.72493 0
M  V30 4655 O 434.707 0.460571 1.96063 0
M  V30 4656 C 431.772 1.11271 3.28359 0
M  V30 4657 C 430.833 2.3048 3.62185 0
M  V30 4658 C 430.066 2.10154 4.90583 0
M  V30 4659 O 430.289 1.07572 5.60165 0
M  V30 4660 O 429.223 2.97884 5.23019 0
M  V30 4661 H 433.049 2.28909 1.99585 0
M  V30 4662 H 430.634 1.16818 0.931344 0
M  V30 4663 H 432.516 1.01283 4.09047 0
M  V30 4664 H 431.191 0.180292 3.23198 0
M  V30 4665 H 430.098 2.46036 2.81811 0
M  V30 4666 H 431.431 3.22221 3.72068 0
M  V30 4667 N 433.083 -1.0153 1.20538 0
M  V30 4668 C 434.499 -1.27461 0.96051 0
M  V30 4669 C 434.699 -1.98273 -0.359193 0
M  V30 4670 O 433.755 -2.27886 -1.0874 0
M  V30 4671 C 435.068 -2.10837 2.14402 0
M  V30 4672 C 436.616 -2.24099 2.18515 0
M  V30 4673 C 437.091 -3.10852 3.36355 0
M  V30 4674 N 438.582 -3.18441 3.36377 0
M  V30 4675 C 439.317 -3.85795 4.24205 0
M  V30 4676 N 438.813 -4.55264 5.22213 0
M  V30 4677 N 440.606 -3.82331 4.12043 0
M  V30 4678 H 432.757 -0.539907 2.05423 0
M  V30 4679 H 435.02 -0.30092 0.898972 0
M  V30 4680 H 434.726 -1.66144 3.09983 0
M  V30 4681 H 434.6 -3.11576 2.12604 0
M  V30 4682 H 436.987 -2.68016 1.23497 0
M  V30 4683 H 437.068 -1.22865 2.24361 0
M  V30 4684 H 436.712 -2.6764 4.31661 0
M  V30 4685 H 436.642 -4.12177 3.27746 0
M  V30 4686 H 439.133 -2.68978 2.65442 0
M  V30 4687 H 439.446 -5.04331 5.85551 0
M  V30 4688 H 437.791 -4.54085 5.26148 0
M  V30 4689 H 440.982 -3.27207 3.34743 0
M  V30 4690 H 441.155 -4.34547 4.807 0
M  V30 4691 N 434.561 -1.01147 -1.20859 0
M  V30 4692 C 435.791 -0.715872 -1.93801 0
M  V30 4693 C 436.199 0.726592 -1.74692 0
M  V30 4694 O 435.542 1.50397 -1.05482 0
M  V30 4695 C 435.604 -0.965269 -3.46299 0
M  V30 4696 C 435.268 -2.39584 -3.89164 0
M  V30 4697 C 436.265 -3.3764 -3.95342 0
M  V30 4698 C 433.95 -2.73522 -4.21297 0
M  V30 4699 C 435.944 -4.67698 -4.33056 0
M  V30 4700 C 433.631 -4.03794 -4.58687 0
M  V30 4701 C 434.629 -5.00693 -4.64538 0
M  V30 4702 O 434.317 -6.28635 -5.01072 0
M  V30 4703 H 434.049 -0.262524 -0.622942 0
M  V30 4704 H 436.603 -1.35413 -1.54443 0
M  V30 4705 H 434.833 -0.269847 -3.85757 0
M  V30 4706 H 436.522 -0.662051 -4.00464 0
M  V30 4707 H 437.288 -3.12757 -3.70686 0
M  V30 4708 H 433.167 -1.9879 -4.15937 0
M  V30 4709 H 436.711 -5.4333 -4.37537 0
M  V30 4710 H 432.608 -4.28459 -4.82797 0
M  V30 4711 H 433.376 -6.32847 -5.19083 0
M  V30 4712 N 436.039 1.36541 -0.78704 0
M  V30 4713 C 437.316 1.9355 -0.282424 0
M  V30 4714 C 437.696 1.71919 1.22503 0
M  V30 4715 O 437.044 1.07677 2.01539 0
M  V30 4716 C 437.254 3.4246 -0.672462 0
M  V30 4717 C 438.602 4.19582 -0.650863 0
M  V30 4718 O 439.626 3.50889 -0.612789 0
M  V30 4719 O 438.485 5.42106 -0.691623 0
M  V30 4720 H 435.579 0.824091 -0.0693 0
M  V30 4721 H 438.125 1.45736 -0.869423 0
M  V30 4722 H 436.897 3.51851 -1.71221 0
M  V30 4723 H 436.52 3.97556 -0.0592211 0
M  V30 4724 N 437.518 0.538854 1.48102 0
M  V30 4725 C 438.448 -0.207654 2.32575 0
M  V30 4726 C 439.429 -0.926559 1.4265 0
M  V30 4727 O 440.614 -0.91061 1.71527 0
M  V30 4728 C 437.744 -1.24957 3.24042 0
M  V30 4729 C 436.698 -0.648263 4.23062 0
M  V30 4730 C 436.024 -1.79348 5.03725 0
M  V30 4731 C 437.324 0.385897 5.20872 0
M  V30 4732 H 439.018 0.497534 2.95237 0
M  V30 4733 H 436.564 0.240715 1.41974 0
M  V30 4734 H 438.517 -1.77983 3.81969 0
M  V30 4735 H 437.241 -1.98446 2.59397 0
M  V30 4736 H 435.9 -0.139452 3.66335 0
M  V30 4737 H 435.548 -2.51696 4.35498 0
M  V30 4738 H 435.248 -1.39702 5.70751 0
M  V30 4739 H 436.772 -2.32735 5.64506 0
M  V30 4740 H 438.186 -0.057607 5.73271 0
M  V30 4741 H 436.583 0.700227 5.96001 0
M  V30 4742 H 437.653 1.28848 4.67468 0
M  V30 4743 N 438.996 -1.55193 0.274407 0
M  V30 4744 C 439.926 -2.25471 -0.607032 0
M  V30 4745 C 440.907 -1.24461 -1.15946 0
M  V30 4746 O 442.092 -1.53179 -1.19373 0
M  V30 4747 C 439.222 -2.97526 -1.79153 0
M  V30 4748 C 438.176 -4.05459 -1.37067 0
M  V30 4749 C 437.502 -4.65084 -2.6382 0
M  V30 4750 C 438.802 -5.19691 -0.521389 0
M  V30 4751 H 440.496 -2.99393 -0.0209343 0
M  V30 4752 H 438.042 -1.43997 -0.00862866 0
M  V30 4753 H 439.995 -3.45402 -2.41404 0
M  V30 4754 H 438.719 -2.21138 -2.40344 0
M  V30 4755 H 437.378 -3.58393 -0.771355 0
M  V30 4756 H 437.026 -3.85365 -3.23268 0
M  V30 4757 H 436.726 -5.37961 -2.36372 0
M  V30 4758 H 438.25 -5.15708 -3.26921 0
M  V30 4759 H 439.664 -5.63623 -1.04889 0
M  V30 4760 H 438.061 -5.99126 -0.341825 0
M  V30 4761 H 439.131 -4.82713 0.46 0
M  V30 4762 N 440.474 -0.00167713 -1.576 0
M  V30 4763 C 441.384 1.00548 -2.1196 0
M  V30 4764 C 442.4 1.3758 -1.06526 0
M  V30 4765 O 443.576 1.46278 -1.38436 0
M  V30 4766 C 440.641 2.27809 -2.6135 0
M  V30 4767 C 439.702 1.97074 -3.81393 0
M  V30 4768 C 438.935 3.18267 -4.28417 0
M  V30 4769 O 439.158 4.30009 -3.74765 0
M  V30 4770 O 438.092 3.02167 -5.20556 0
M  V30 4771 H 441.918 0.573373 -2.98238 0
M  V30 4772 H 439.503 0.217255 -1.47812 0
M  V30 4773 H 441.385 3.02568 -2.93309 0
M  V30 4774 H 440.06 2.70254 -1.78169 0
M  V30 4775 H 438.967 1.19785 -3.54404 0
M  V30 4776 H 440.3 1.59464 -4.65652 0
M  V30 4777 N 441.952 1.55251 0.271103 0
M  V30 4778 C 442.884 1.84675 1.35749 0
M  V30 4779 C 443.897 0.731366 1.45447 0
M  V30 4780 O 445.086 1.00924 1.4723 0
M  V30 4781 C 442.186 1.99638 2.73857 0
M  V30 4782 C 441.359 3.30312 2.86727 0
M  V30 4783 C 440.418 3.35318 4.05522 0
M  V30 4784 O 439.444 4.08682 3.96191 0
M  V30 4785 N 440.646 2.62857 5.17577 0
M  V30 4786 H 443.411 2.78445 1.10853 0
M  V30 4787 H 440.972 1.55191 0.461218 0
M  V30 4788 H 442.964 2.00355 3.51625 0
M  V30 4789 H 441.534 1.12725 2.91568 0
M  V30 4790 H 440.754 3.42118 1.95829 0
M  V30 4791 H 442.042 4.16488 2.92258 0
M  V30 4792 H 441.44 2.02939 5.28046 0
M  V30 4793 H 439.997 2.69295 5.93568 0
M  V30 4794 N 443.43 -0.535701 1.48216 0
M  V30 4795 C 444.36 -1.65014 1.65204 0
M  V30 4796 C 445.341 -1.62554 0.501011 0
M  V30 4797 O 446.526 -1.7984 0.732886 0
M  V30 4798 C 443.656 -3.03616 1.68626 0
M  V30 4799 C 442.61 -3.20932 2.83172 0
M  V30 4800 C 441.936 -4.60537 2.71679 0
M  V30 4801 C 443.236 -3.04249 4.24535 0
M  V30 4802 H 444.93 -1.51053 2.58502 0
M  V30 4803 H 442.476 -0.725262 1.24402 0
M  V30 4804 H 444.429 -3.81446 1.79099 0
M  V30 4805 H 443.153 -3.18587 0.719026 0
M  V30 4806 H 441.812 -2.45517 2.72244 0
M  V30 4807 H 441.46 -4.72336 1.72937 0
M  V30 4808 H 441.16 -4.73069 3.48538 0
M  V30 4809 H 442.684 -5.40475 2.84112 0
M  V30 4810 H 444.098 -3.71877 4.36326 0
M  V30 4811 H 442.495 -3.28278 5.02348 0
M  V30 4812 H 443.565 -2.00739 4.41397 0
M  V30 4813 N 444.908 -1.36708 -0.784132 0
M  V30 4814 C 445.855 -1.31466 -1.89698 0
M  V30 4815 C 446.825 -0.18239 -1.65096 0
M  V30 4816 O 448.01 -0.369762 -1.87183 0
M  V30 4817 C 445.15 -1.1151 -3.26588 0
M  V30 4818 C 444.263 -2.33859 -3.63227 0
M  V30 4819 C 443.398 -2.06873 -4.89262 0
M  V30 4820 C 442.437 -3.25154 -5.18595 0
M  V30 4821 N 441.574 -2.978 -6.35814 0
M  V30 4822 H 446.414 -2.26619 -1.93515 0
M  V30 4823 H 443.951 -1.12625 -0.946256 0
M  V30 4824 H 445.909 -0.979653 -4.05535 0
M  V30 4825 H 444.539 -0.200103 -3.22179 0
M  V30 4826 H 443.591 -2.58188 -2.79362 0
M  V30 4827 H 444.903 -3.22109 -3.8085 0
M  V30 4828 H 444.057 -1.90289 -5.76086 0
M  V30 4829 H 442.796 -1.15942 -4.73718 0
M  V30 4830 H 441.801 -3.42292 -4.30251 0
M  V30 4831 H 443.026 -4.1692 -5.36055 0
M  V30 4832 H 440.972 -2.09485 -6.21653 0
M  V30 4833 H 440.889 -3.7959 -6.53794 0
M  V30 4834 H 442.157 -2.84805 -7.25607 0
M  V30 4835 N 446.386 1.0089 -1.21074 0
M  V30 4836 C 447.797 1.56056 -1.02486 0
M  V30 4837 C 448.148 1.91728 0.416506 0
M  V30 4838 O 447.273 1.73066 1.29912 0
M  V30 4839 C 447.868 2.83563 -1.85411 0
M  V30 4840 C 446.427 3.3523 -1.71166 0
M  V30 4841 C 445.574 2.0846 -1.82865 0
M  V30 4842 H 448.525 0.831818 -1.35154 0
M  V30 4843 H 448.546 3.55286 -1.36205 0
M  V30 4844 H 448.058 2.57569 -2.9031 0
M  V30 4845 H 446.159 3.66167 -0.689361 0
M  V30 4846 H 446.272 4.06913 -2.52901 0
M  V30 4847 H 444.636 2.21275 -1.26132 0
M  V30 4848 H 445.419 1.84883 -2.89263 0
M  V30 4849 N 447.864 1.01787 1.20321 0
M  V30 4850 C 449.092 0.727194 1.937 0
M  V30 4851 C 449.507 -0.712305 1.74848 0
M  V30 4852 O 448.864 -1.48327 1.06327 0
M  V30 4853 C 448.915 1.05497 3.45764 0
M  V30 4854 O 448.636 2.43794 3.64 0
M  V30 4855 C 450.137 0.785534 4.36285 0
M  V30 4856 H 447.357 0.266939 0.615617 0
M  V30 4857 H 449.901 1.35939 1.52777 0
M  V30 4858 H 448.056 0.468158 3.84561 0
M  V30 4859 H 448.47 2.55656 4.57974 0
M  V30 4860 H 449.944 1.06495 5.4163 0
M  V30 4861 H 450.421 -0.280273 4.38305 0
M  V30 4862 H 451.027 1.35456 4.03152 0
M  V30 4863 N 449.342 -1.36122 0.79427 0
M  V30 4864 C 450.591 -1.98361 0.365464 0
M  V30 4865 C 450.904 -1.6374 -1.06997 0
M  V30 4866 O 452.11 -2.19251 -1.60129 0
M  V30 4867 C 450.566 -3.54821 0.602496 0
M  V30 4868 C 450.174 -3.98362 2.04967 0
M  V30 4869 C 451.918 -4.2383 0.238437 0
M  V30 4870 C 449.825 -5.47619 2.2331 0
M  V30 4871 H 448.755 -0.742193 0.13291 0
M  V30 4872 H 451.406 -1.55354 0.976589 0
M  V30 4873 H 449.788 -3.95922 -0.078409 0
M  V30 4874 H 450.962 -3.68447 2.76737 0
M  V30 4875 H 449.277 -3.42206 2.37243 0
M  V30 4876 H 451.874 -5.33529 0.353705 0
M  V30 4877 H 452.217 -4.08264 -0.814006 0
M  V30 4878 H 452.75 -3.88108 0.872769 0
M  V30 4879 H 449.489 -5.68138 3.26955 0
M  V30 4880 H 449.009 -5.79145 1.5605 0
M  V30 4881 H 450.688 -6.13911 2.0426 0
M  V30 4882 N 450.82 -0.546701 -1.47814 0
M  V30 4883 C 451.73 0.21026 -2.33656 0
M  V30 4884 C 452.746 0.922413 -1.47538 0
M  V30 4885 O 453.922 0.893652 -1.80488 0
M  V30 4886 C 450.987 1.23348 -3.24016 0
M  V30 4887 C 450.048 0.529883 -4.26017 0
M  V30 4888 C 449.281 1.50435 -5.12059 0
M  V30 4889 O 449.504 2.73837 -5.00369 0
M  V30 4890 O 448.438 1.03459 -5.92942 0
M  V30 4891 H 452.264 -0.493605 -2.99662 0
M  V30 4892 H 449.849 -0.307427 -1.46203 0
M  V30 4893 H 451.731 1.82438 -3.79861 0
M  V30 4894 H 450.406 1.91945 -2.60651 0
M  V30 4895 H 449.313 -0.101948 -3.73961 0
M  V30 4896 H 450.646 -0.11445 -4.92067 0
M  V30 4897 N 452.299 1.55045 -0.282633 0
M  V30 4898 C 453.229 2.2579 0.595066 0
M  V30 4899 C 454.21 1.25074 1.15284 0
M  V30 4900 O 455.395 1.5381 1.18559 0
M  V30 4901 C 452.525 2.98472 1.77572 0
M  V30 4902 C 451.479 4.0618 1.34914 0
M  V30 4903 C 450.805 4.66477 2.6135 0
M  V30 4904 C 452.105 5.1996 0.493821 0
M  V30 4905 H 453.799 2.994 0.00505653 0
M  V30 4906 H 451.345 1.44 0.000992001 0
M  V30 4907 H 453.298 3.46677 2.39568 0
M  V30 4908 H 452.022 2.2241 2.39168 0
M  V30 4909 H 450.681 3.58797 0.752338 0
M  V30 4910 H 450.329 3.87074 3.2122 0
M  V30 4911 H 450.029 5.39207 2.33516 0
M  V30 4912 H 451.553 5.17435 3.24181 0
M  V30 4913 H 452.967 5.64172 1.01898 0
M  V30 4914 H 451.364 5.99299 0.310047 0
M  V30 4915 H 452.434 4.82462 -0.485593 0
M  V30 4916 N 453.777 0.010035 1.57597 0
M  V30 4917 C 455.007 -0.682422 1.95004 0
M  V30 4918 C 455.415 -1.67278 0.884014 0
M  V30 4919 O 454.758 -1.83129 -0.144672 0
M  V30 4920 C 454.82 -1.46141 3.28456 0
M  V30 4921 C 454.484 -0.631523 4.52615 0
M  V30 4922 C 455.481 0.0850905 5.1983 0
M  V30 4923 C 453.166 -0.574539 4.99003 0
M  V30 4924 C 455.16 0.847566 6.3174 0
M  V30 4925 C 452.847 0.191655 6.10799 0
M  V30 4926 C 453.845 0.901432 6.77025 0
M  V30 4927 O 453.533 1.65511 7.86677 0
M  V30 4928 H 453.265 -0.194361 0.647456 0
M  V30 4929 H 455.819 0.060312 2.05311 0
M  V30 4930 H 454.049 -2.24885 3.14585 0
M  V30 4931 H 455.738 -2.04016 3.50902 0
M  V30 4932 H 456.504 0.0502812 4.84974 0
M  V30 4933 H 452.383 -1.11654 4.47274 0
M  V30 4934 H 455.927 1.4021 6.83364 0
M  V30 4935 H 451.824 0.228249 6.45096 0
M  V30 4936 H 452.592 1.57287 8.03245 0
M  V30 4937 N 455.255 -1.55392 -0.262866 0
M  V30 4938 C 456.671 -1.47459 -0.610582 0
M  V30 4939 C 456.871 -0.697031 -1.8906 0
M  V30 4940 O 455.927 -0.219952 -2.5154 0
M  V30 4941 C 457.24 -2.91751 -0.728131 0
M  V30 4942 C 458.788 -3.02027 -0.821517 0
M  V30 4943 C 459.263 -4.47594 -0.97076 0
M  V30 4944 N 460.754 -4.51465 -1.03603 0
M  V30 4945 C 461.489 -5.61326 -1.17049 0
M  V30 4946 N 460.985 -6.81032 -1.2715 0
M  V30 4947 N 462.778 -5.49089 -1.20239 0
M  V30 4948 H 454.929 -2.04395 0.577632 0
M  V30 4949 H 457.192 -0.927287 0.197086 0
M  V30 4950 H 456.898 -3.51413 0.142132 0
M  V30 4951 H 456.772 -3.4134 -1.6052 0
M  V30 4952 H 459.159 -2.42456 -1.68224 0
M  V30 4953 H 459.24 -2.55674 0.0803688 0
M  V30 4954 H 458.884 -5.07771 -0.114655 0
M  V30 4955 H 458.814 -4.91613 -1.88745 0
M  V30 4956 H 461.305 -3.6524 -0.96996 0
M  V30 4957 H 461.618 -7.60511 -1.37271 0
M  V30 4958 H 459.963 -6.83824 -1.24136 0
M  V30 4959 H 463.154 -4.54507 -1.11985 0
M  V30 4960 H 463.327 -6.34749 -1.30373 0
M  V30 4961 N 456.733 0.527833 -1.48498 0
M  V30 4962 C 458.149 0.856571 -1.34666 0
M  V30 4963 C 458.349 1.98271 -0.35931 0
M  V30 4964 O 457.405 2.51551 0.218703 0
M  V30 4965 C 458.718 1.22207 -2.74747 0
M  V30 4966 C 460.266 1.33183 -2.83251 0
M  V30 4967 C 460.741 1.73075 -4.24039 0
M  V30 4968 N 462.232 1.80174 -4.26722 0
M  V30 4969 C 462.967 2.1243 -5.32598 0
M  V30 4970 N 462.463 2.43096 -6.4875 0
M  V30 4971 N 464.256 2.13454 -5.19994 0
M  V30 4972 H 456.407 -0.215174 -2.11307 0
M  V30 4973 H 458.67 -0.0336281 -0.947403 0
M  V30 4974 H 458.376 0.468195 -3.4857 0
M  V30 4975 H 458.25 2.17173 -3.08409 0
M  V30 4976 H 460.637 2.07647 -2.09683 0
M  V30 4977 H 460.718 0.363333 -2.53206 0
M  V30 4978 H 460.362 0.991712 -4.98124 0
M  V30 4979 H 460.292 2.70979 -4.51529 0
M  V30 4980 H 462.783 1.58744 -3.42942 0
M  V30 4981 H 463.096 2.6682 -7.25277 0
M  V30 4982 H 461.441 2.40611 -6.52021 0
M  V30 4983 H 464.632 1.88956 -4.28268 0
M  V30 4984 H 464.805 2.38261 -6.02608 0
M  V30 4985 N 458.211 1.37122 0.776871 0
M  V30 4986 C 459.158 1.3247 1.88998 0
M  V30 4987 C 460.128 0.191143 1.64997 0
M  V30 4988 O 461.313 0.379683 1.86984 0
M  V30 4989 C 458.453 1.13241 3.25992 0
M  V30 4990 C 457.566 2.35782 3.61982 0
M  V30 4991 C 456.701 2.09465 4.88158 0
M  V30 4992 C 455.74 3.279 5.16864 0
M  V30 4993 N 454.877 3.01167 6.34226 0
M  V30 4994 H 459.717 2.27642 1.9231 0
M  V30 4995 H 457.254 1.13125 0.94027 0
M  V30 4996 H 459.212 1.00115 4.0501 0
M  V30 4997 H 457.842 0.217186 3.22069 0
M  V30 4998 H 456.894 2.59666 2.77989 0
M  V30 4999 H 458.206 3.24125 3.79137 0
M  V30 5000 H 457.36 1.93341 5.75069 0
M  V30 5001 H 456.099 1.18452 4.73097 0
M  V30 5002 H 455.104 3.44569 4.2843 0
M  V30 5003 H 456.329 4.19757 5.33836 0
M  V30 5004 H 454.275 2.12779 6.20533 0
M  V30 5005 H 454.192 3.83052 6.51772 0
M  V30 5006 H 455.46 2.88649 7.24087 0
M  V30 5007 N 459.689 -1.00246 1.21608 0
M  V30 5008 C 461.105 -1.26435 0.973975 0
M  V30 5009 C 461.305 -1.98642 -0.338143 0
M  V30 5010 O 460.361 -2.29026 -1.06317 0
M  V30 5011 C 461.674 -2.08551 2.16626 0
M  V30 5012 C 463.222 -2.21769 2.20879 0
M  V30 5013 C 463.697 -3.07267 3.39633 0
M  V30 5014 N 465.188 -3.14855 3.39736 0
M  V30 5015 C 465.923 -3.81274 4.28273 0
M  V30 5016 N 465.419 -4.497 5.27012 0
M  V30 5017 N 467.212 -3.7794 4.16074 0
M  V30 5018 H 459.363 -0.518089 2.05984 0
M  V30 5019 H 461.626 -0.291368 0.902113 0
M  V30 5020 H 461.332 -1.62847 3.11727 0
M  V30 5021 H 461.206 -3.09303 2.15897 0
M  V30 5022 H 463.593 -2.66691 1.26332 0
M  V30 5023 H 463.674 -1.20478 2.25652 0
M  V30 5024 H 463.318 -2.63047 4.34475 0
M  V30 5025 H 463.248 -4.08678 3.321 0
M  V30 5026 H 465.739 -2.66147 2.6828 0
M  V30 5027 H 466.052 -4.98092 5.90867 0
M  V30 5028 H 464.397 -4.48479 5.30935 0
M  V30 5029 H 467.588 -3.23638 3.38195 0
M  V30 5030 H 467.761 -4.29424 4.85282 0
M  V30 5031 N 461.167 -1.02423 -1.1978 0
M  V30 5032 C 462.395 -0.737456 -1.93311 0
M  V30 5033 C 462.81 0.703023 -1.75223 0
M  V30 5034 O 462.167 1.47761 -1.07112 0
M  V30 5035 C 462.218 -1.0733 -3.45199 0
M  V30 5036 O 461.939 -2.4572 -3.62702 0
M  V30 5037 C 463.44 -0.80866 -4.35862 0
M  V30 5038 H 460.66 -0.2702 -0.614193 0
M  V30 5039 H 463.204 -1.36747 -1.52054 0
M  V30 5040 H 461.359 -0.488545 -3.84307 0
M  V30 5041 H 461.773 -2.58081 -4.56612 0
M  V30 5042 H 463.247 -1.09365 -5.41057 0
M  V30 5043 H 463.724 0.257025 -4.38447 0
M  V30 5044 H 464.33 -1.37592 -4.02428 0
M  V30 5045 N 462.645 1.35699 -0.801477 0
M  V30 5046 C 463.891 1.99208 -0.380022 0
M  V30 5047 C 464.224 1.63445 1.04878 0
M  V30 5048 O 463.499 0.895223 1.72673 0
M  V30 5049 C 463.782 3.55755 -0.557708 0
M  V30 5050 C 463.635 4.01332 -2.03107 0
M  V30 5051 C 464.954 4.40096 0.0197968 0
M  V30 5052 H 462.073 0.723667 -0.139552 0
M  V30 5053 H 464.715 1.60928 -1.01006 0
M  V30 5054 H 462.865 3.88494 -0.0213741 0
M  V30 5055 H 464.537 3.79026 -2.62939 0
M  V30 5056 H 462.78 3.52429 -2.52936 0
M  V30 5057 H 463.451 5.10234 -2.1063 0
M  V30 5058 H 465.927 4.13786 -0.438179 0
M  V30 5059 H 464.803 5.48735 -0.134477 0
M  V30 5060 H 465.064 4.2786 1.11303 0
M  V30 5061 N 464.123 0.554532 1.47522 0
M  V30 5062 C 465.056 -0.242442 2.26908 0
M  V30 5063 C 466.034 -0.922722 1.33883 0
M  V30 5064 O 467.218 -0.942244 1.63261 0
M  V30 5065 C 464.345 -1.34525 3.10839 0
M  V30 5066 C 463.391 -0.773805 4.19422 0
M  V30 5067 S 464.224 0.377525 5.34168 0
M  V30 5068 C 465.38 -0.727164 6.21662 0
M  V30 5069 H 465.613 0.431218 2.94156 0
M  V30 5070 H 463.146 0.3408 1.50592 0
M  V30 5071 H 465.104 -1.97683 3.59766 0
M  V30 5072 H 463.765 -1.99073 2.42958 0
M  V30 5073 H 462.958 -1.60187 4.77866 0
M  V30 5074 H 462.56 -0.218448 3.73361 0
M  V30 5075 H 464.852 -1.61992 6.57849 0
M  V30 5076 H 465.795 -0.180135 7.07871 0
M  V30 5077 H 466.203 -1.01863 5.55233 0
M  V30 5078 N 465.601 -1.54893 0.290851 0
M  V30 5079 C 466.531 -2.26103 -0.583084 0
M  V30 5080 C 467.512 -1.25684 -1.14619 0
M  V30 5081 O 468.697 -1.54436 -1.17741 0
M  V30 5082 C 465.827 -2.99409 -1.75987 0
M  V30 5083 C 464.781 -4.0689 -1.32758 0
M  V30 5084 C 464.107 -4.67856 -2.58872 0
M  V30 5085 C 465.407 -5.20215 -0.46624 0
M  V30 5086 H 467.101 -2.99398 0.0108214 0
M  V30 5087 H 464.647 -1.43998 0.00664468 0
M  V30 5088 H 466.6 -3.47943 -2.37727 0
M  V30 5089 H 465.324 -2.23675 -2.37985 0
M  V30 5090 H 463.983 -3.59191 -0.733299 0
M  V30 5091 H 463.631 -3.88772 -3.19163 0
M  V30 5092 H 463.331 -5.40438 -2.30653 0
M  V30 5093 H 464.855 -5.19147 -3.21433 0
M  V30 5094 H 466.269 -5.64704 -0.989047 0
M  V30 5095 H 464.666 -5.99455 -0.27826 0
M  V30 5096 H 465.736 -4.82198 0.511173 0
M  V30 5097 N 467.08 -0.0183926 -1.57589 0
M  V30 5098 C 468.028 0.985111 -2.10709 0
M  V30 5099 C 469.022 1.34397 -1.0312 0
M  V30 5100 O 470.228 1.32746 -1.21567 0
M  V30 5101 H 466.603 0.335418 -0.673052 0
M  V30 5102 H 468.574 0.511689 -2.9398 0
M  V30 5103 C 467.323 2.26202 -2.64061 0
M  V30 5104 H 466.646 1.9946 -3.4649 0
M  V30 5105 H 468.086 2.94652 -3.04887 0
M  V30 5106 C 466.545 2.98444 -1.5631 0
M  V30 5107 O 467.075 3.90142 -0.956674 0
M  V30 5108 N 465.281 2.6059 -1.28612 0
M  V30 5109 H 464.828 1.86101 -1.78112 0
M  V30 5110 H 464.786 3.09238 -0.567406 0
M  V30 5111 N 468.558 1.5553 0.254621 0
M  V30 5112 C 469.521 1.88872 1.29846 0
M  V30 5113 C 470.521 0.764591 1.41459 0
M  V30 5114 O 471.711 1.03265 1.40293 0
M  V30 5115 C 468.843 2.11032 2.67728 0
M  V30 5116 H 470.036 2.82201 1.01502 0
M  V30 5117 H 467.589 1.48303 0.493556 0
M  V30 5118 H 468.324 1.20146 3.01223 0
M  V30 5119 H 468.109 2.92895 2.60682 0
M  V30 5120 H 469.599 2.38038 3.43115 0
M  V30 5121 N 470.036 -0.519951 1.48776 0
M  V30 5122 C 470.966 -1.63253 1.66945 0
M  V30 5123 C 471.947 -1.62014 0.518224 0
M  V30 5124 O 473.132 -1.79053 0.751919 0
M  V30 5125 C 470.262 -3.0181 1.71836 0
M  V30 5126 C 469.216 -3.17911 2.8656 0
M  V30 5127 C 468.542 -4.5763 2.76548 0
M  V30 5128 C 469.842 -2.99729 4.27738 0
M  V30 5129 H 471.536 -1.48302 2.6009 0
M  V30 5130 H 469.082 -0.712026 1.25165 0
M  V30 5131 H 471.035 -3.79525 1.83135 0
M  V30 5132 H 469.759 -3.17806 0.752775 0
M  V30 5133 H 468.418 -2.42616 2.74833 0
M  V30 5134 H 468.066 -4.70476 1.77937 0
M  V30 5135 H 467.766 -4.69346 3.53536 0
M  V30 5136 H 469.29 -5.37431 2.89828 0
M  V30 5137 H 470.704 -3.67228 4.40246 0
M  V30 5138 H 469.101 -3.22932 5.05801 0
M  V30 5139 H 470.171 -1.96047 4.43502 0
M  V30 5140 N 471.514 -1.37532 -0.769588 0
M  V30 5141 C 472.424 -1.35668 -1.91393 0
M  V30 5142 C 473.44 -0.255954 -1.72107 0
M  V30 5143 O 474.616 -0.491704 -1.95305 0
M  V30 5144 C 471.681 -1.16481 -3.26547 0
M  V30 5145 C 470.742 -2.36212 -3.58472 0
M  V30 5146 C 469.975 -2.17932 -4.87177 0
M  V30 5147 O 470.198 -1.1647 -5.58382 0
M  V30 5148 O 469.132 -3.06167 -5.18214 0
M  V30 5149 H 472.958 -2.32055 -1.95918 0
M  V30 5150 H 470.543 -1.18284 -0.912641 0
M  V30 5151 H 472.425 -1.07778 -4.07384 0
M  V30 5152 H 471.1 -0.231687 -3.2287 0
M  V30 5153 H 470.007 -2.50488 -2.77861 0
M  V30 5154 H 471.34 -3.281 -3.66894 0
M  V30 5155 N 472.992 0.995999 -1.22138 0
M  V30 5156 C 473.902 2.11985 -1.00496 0
M  V30 5157 C 474.918 1.7394 0.0457701 0
M  V30 5158 O 476.094 2.00868 -0.146273 0
M  V30 5159 C 473.159 3.41779 -0.582086 0
M  V30 5160 C 472.22 3.93943 -1.70608 0
M  V30 5161 C 471.453 5.17542 -1.30328 0
M  V30 5162 O 471.676 5.70114 -0.180743 0
M  V30 5163 O 470.61 5.63382 -2.11861 0
M  V30 5164 H 474.436 2.33123 -1.94647 0
M  V30 5165 H 472.021 1.10358 -1.00705 0
M  V30 5166 H 473.903 4.1989 -0.356467 0
M  V30 5167 H 472.578 3.22007 0.330592 0
M  V30 5168 H 471.485 3.17019 -1.98619 0
M  V30 5169 H 472.818 4.18141 -2.59651 0
M  V30 5170 N 474.47 1.03057 1.19235 0
M  V30 5171 C 475.7 0.746613 1.92638 0
M  V30 5172 C 476.108 -0.698708 1.75826 0
M  V30 5173 O 475.451 -1.487 1.07861 0
M  V30 5174 C 475.513 1.02024 3.44719 0
M  V30 5175 C 475.177 2.45745 3.85303 0
M  V30 5176 C 476.174 3.43887 3.8992 0
M  V30 5177 C 473.859 2.8019 4.16892 0
M  V30 5178 C 475.853 4.74529 4.2556 0
M  V30 5179 C 473.54 4.1104 4.52205 0
M  V30 5180 C 474.538 5.0802 4.56513 0
M  V30 5181 O 474.226 6.36527 4.91008 0
M  V30 5182 H 473.958 0.272401 0.618687 0
M  V30 5183 H 476.512 1.37853 1.52269 0
M  V30 5184 H 474.742 0.331184 3.85279 0
M  V30 5185 H 476.431 0.725677 3.9936 0
M  V30 5186 H 477.197 3.18614 3.65664 0
M  V30 5187 H 473.076 2.05382 4.12722 0
M  V30 5188 H 476.62 5.50222 4.28838 0
M  V30 5189 H 472.517 4.36086 4.7592 0
M  V30 5190 H 473.285 6.41025 5.08949 0
M  V30 5191 N 475.948 -1.35272 0.808662 0
M  V30 5192 C 477.195 -1.98709 0.390003 0
M  V30 5193 C 477.523 -1.64148 -1.04335 0
M  V30 5194 O 476.778 -0.897797 -1.73891 0
M  V30 5195 C 477.077 -3.53556 0.522798 0
M  V30 5196 C 476.743 -4.0799 1.91977 0
M  V30 5197 C 475.405 -4.22568 2.30195 0
M  V30 5198 C 477.757 -4.37442 2.83361 0
M  V30 5199 C 475.085 -4.63918 3.59162 0
M  V30 5200 C 477.437 -4.80232 4.11776 0
M  V30 5201 C 476.101 -4.93016 4.49991 0
M  V30 5202 H 475.371 -0.727127 0.142712 0
M  V30 5203 H 478.018 -1.6145 1.02985 0
M  V30 5204 H 476.323 -3.91287 -0.200494 0
M  V30 5205 H 478.02 -4.00598 0.179608 0
M  V30 5206 H 474.61 -3.97096 1.61284 0
M  V30 5207 H 478.794 -4.25731 2.55083 0
M  V30 5208 H 474.05 -4.72005 3.88615 0
M  V30 5209 H 478.224 -5.01982 4.82687 0
M  V30 5210 H 475.851 -5.24814 5.49976 0
M  V30 5211 N 477.426 -0.562348 -1.47226 0
M  V30 5212 C 478.651 -0.0432632 -2.07355 0
M  V30 5213 C 479.076 1.24332 -1.41149 0
M  V30 5214 O 478.434 1.74603 -0.488226 0
M  V30 5215 C 478.482 0.130288 -3.60365 0
M  V30 5216 O 477.586 1.19166 -3.94808 0
M  V30 5217 H 476.927 -0.0536334 -0.66183 0
M  V30 5218 H 479.457 -0.779495 -1.89169 0
M  V30 5219 H 479.467 0.342881 -4.06557 0
M  V30 5220 H 478.142 -0.809389 -4.07948 0
M  V30 5221 H 476.719 0.959153 -3.60354 0
M  V30 5222 N 478.904 1.54736 -0.299062 0
M  V30 5223 C 480.181 1.92187 0.363802 0
M  V30 5224 C 480.561 1.22607 1.71845 0
M  V30 5225 O 479.909 0.361141 2.25628 0
M  V30 5226 C 480.119 3.45678 0.480377 0
M  V30 5227 C 481.467 4.17885 0.752147 0
M  V30 5228 O 482.491 3.51702 0.564264 0
M  V30 5229 O 481.35 5.35048 1.11294 0
M  V30 5230 H 478.444 0.801681 0.203066 0
M  V30 5231 H 480.99 1.66115 -0.346978 0
M  V30 5232 H 479.762 3.88443 -0.471999 0
M  V30 5233 H 479.385 3.77779 1.2397 0
M  V30 5234 N 480.382 0.0267497 1.57577 0
M  V30 5235 C 481.631 -0.651736 1.9088 0
M  V30 5236 C 481.944 -1.73427 0.904576 0
M  V30 5237 O 483.15 -2.46923 1.12877 0
M  V30 5238 C 481.606 -1.21048 3.38933 0
M  V30 5239 C 481.214 -0.161362 4.47709 0
M  V30 5240 C 482.958 -1.86562 3.81307 0
M  V30 5241 C 480.865 -0.731611 5.86857 0
M  V30 5242 H 479.795 -0.247198 0.712326 0
M  V30 5243 H 482.446 0.0916641 1.83271 0
M  V30 5244 H 480.828 -2.00542 3.41466 0
M  V30 5245 H 482.002 0.61094 4.56732 0
M  V30 5246 H 480.317 0.394877 4.14523 0
M  V30 5247 H 482.914 -2.30178 4.8262 0
M  V30 5248 H 483.257 -2.70735 3.16241 0
M  V30 5249 H 483.79 -1.13762 3.81186 0
M  V30 5250 H 480.529 0.0719329 6.55461 0
M  V30 5251 H 480.049 -1.47245 5.81445 0
M  V30 5252 H 481.728 -1.22208 6.35354 0
M  V30 5253 N 481.861 -1.55662 -0.24637 0
M  V30 5254 C 483.272 -1.67953 -0.81539 0
M  V30 5255 C 483.623 -0.624302 -1.86002 0
M  V30 5256 O 482.748 0.229328 -2.15181 0
M  V30 5257 C 483.343 -3.04484 -1.48576 0
M  V30 5258 C 481.902 -3.18713 -2.00248 0
M  V30 5259 C 481.049 -2.6383 -0.853766 0
M  V30 5260 H 484 -1.58685 -0.0221692 0
M  V30 5261 H 484.021 -2.98959 -2.3538 0
M  V30 5262 H 483.533 -3.81264 -0.725222 0
M  V30 5263 H 481.634 -2.46757 -2.79181 0
M  V30 5264 H 481.747 -4.25628 -2.1995 0
M  V30 5265 H 480.111 -2.21667 -1.25442 0
M  V30 5266 H 480.894 -3.43135 -0.106302 0
M  V30 5267 N 483.339 0.512053 -1.4905 0
M  V30 5268 C 484.587 1.26436 -1.57665 0
M  V30 5269 C 484.908 1.93255 -0.260293 0
M  V30 5270 O 484.178 1.82206 0.719564 0
M  V30 5271 H 482.758 0.469658 -0.580888 0
M  V30 5272 H 485.42 0.594398 -1.85615 0
M  V30 5273 H 484.516 2.03417 -2.36702 0
M  V30 5274 N 484.817 1.37938 0.762283 0
M  V30 5275 C 486.063 1.33866 1.52341 0
M  V30 5276 C 486.396 -0.0738961 1.94059 0
M  V30 5277 O 485.671 -1.03326 1.64785 0
M  V30 5278 C 485.954 2.28644 2.78197 0
M  V30 5279 C 485.807 3.78722 2.42672 0
M  V30 5280 C 487.126 2.21702 3.80179 0
M  V30 5281 H 484.245 0.487593 0.55265 0
M  V30 5282 H 486.887 1.68717 0.873767 0
M  V30 5283 H 485.037 1.99055 3.33631 0
M  V30 5284 H 486.709 4.18948 1.93081 0
M  V30 5285 H 484.952 3.96827 1.75244 0
M  V30 5286 H 485.623 4.40486 3.3268 0
M  V30 5287 H 488.099 2.47805 3.34263 0
M  V30 5288 H 486.975 2.90143 4.65949 0
M  V30 5289 H 487.236 1.21301 4.25133 0
M  V30 5290 N 486.295 -0.989507 1.22664 0
M  V30 5291 C 487.242 -2.08024 0.999733 0
M  V30 5292 C 488.212 -1.65909 -0.0797047 0
M  V30 5293 O 489.397 -1.90669 0.0705715 0
M  V30 5294 C 486.537 -3.40067 0.587234 0
M  V30 5295 C 485.65 -3.95505 1.73781 0
M  V30 5296 C 484.785 -5.15722 1.27297 0
M  V30 5297 C 483.824 -5.63305 2.39488 0
M  V30 5298 N 482.961 -6.74758 1.94026 0
M  V30 5299 H 487.801 -2.26768 1.9334 0
M  V30 5300 H 485.338 -1.11171 0.963297 0
M  V30 5301 H 487.296 -4.15899 0.329227 0
M  V30 5302 H 485.926 -3.21314 -0.309426 0
M  V30 5303 H 484.978 -3.16513 2.11006 0
M  V30 5304 H 486.29 -4.26797 2.58158 0
M  V30 5305 H 485.444 -5.98854 0.972546 0
M  V30 5306 H 484.183 -4.86061 0.399445 0
M  V30 5307 H 483.188 -4.78759 2.70315 0
M  V30 5308 H 484.413 -5.94988 3.27362 0
M  V30 5309 H 482.359 -6.46874 1.09041 0
M  V30 5310 H 482.276 -7.05386 2.71968 0
M  V30 5311 H 483.544 -7.61387 1.67062 0
M  V30 5312 N 487.773 -1.03688 -1.18687 0
M  V30 5313 C 489.019 -0.74888 -1.89112 0
M  V30 5314 C 489.374 0.715345 -1.78607 0
M  V30 5315 O 488.667 1.51498 -1.17299 0
M  V30 5316 C 488.861 -1.14477 -3.3857 0
M  V30 5317 C 488.69 -2.64594 -3.63621 0
M  V30 5318 C 487.46 -3.31685 -3.812 0
M  V30 5319 C 489.658 -3.62811 -3.64517 0
M  V30 5320 N 487.64 -4.70822 -3.93955 0
M  V30 5321 C 489.011 -4.87603 -3.8294 0
M  V30 5322 C 491.066 -3.56495 -3.47585 0
M  V30 5323 C 489.769 -6.0684 -3.86184 0
M  V30 5324 C 491.795 -4.75155 -3.52111 0
M  V30 5325 C 491.157 -5.98765 -3.71026 0
M  V30 5326 H 487.256 -0.32603 -0.710794 0
M  V30 5327 H 489.84 -1.3258 -1.42586 0
M  V30 5328 H 488.011 -0.595974 -3.838 0
M  V30 5329 H 489.743 -0.808187 -3.96548 0
M  V30 5330 H 486.498 -2.82091 -3.80423 0
M  V30 5331 H 486.922 -5.43122 -4.04163 0
M  V30 5332 H 491.564 -2.61907 -3.31911 0
M  V30 5333 H 489.282 -7.01788 -4.00648 0
M  V30 5334 H 492.868 -4.71905 -3.40289 0
M  V30 5335 H 491.748 -6.89047 -3.74412 0
M  V30 5336 N 489.251 1.34841 -0.815825 0
M  V30 5337 C 490.497 1.98793 -0.401129 0
M  V30 5338 C 490.83 1.64548 1.03139 0
M  V30 5339 O 490.105 0.913487 1.71714 0
M  V30 5340 C 490.388 3.55143 -0.595409 0
M  V30 5341 C 490.241 3.99155 -2.07352 0
M  V30 5342 C 491.56 4.40092 -0.0268823 0
M  V30 5343 H 488.679 0.722146 -0.14722 0
M  V30 5344 H 491.321 1.59847 -1.02707 0
M  V30 5345 H 489.471 3.8845 -0.0625779 0
M  V30 5346 H 491.143 3.76216 -2.66945 0
M  V30 5347 H 489.386 3.49726 -2.56659 0
M  V30 5348 H 490.057 5.07971 -2.1603 0
M  V30 5349 H 492.533 4.13298 -0.482042 0
M  V30 5350 H 491.409 5.48562 -0.19267 0
M  V30 5351 H 491.67 4.29016 1.06759 0
M  V30 5352 N 490.729 0.570148 1.46925 0
M  V30 5353 C 491.676 -0.170257 2.30171 0
M  V30 5354 C 492.646 -0.896099 1.39855 0
M  V30 5355 O 493.831 -0.889248 1.68811 0
M  V30 5356 C 490.971 -1.18605 3.24079 0
M  V30 5357 C 490.084 -0.464947 4.29491 0
M  V30 5358 C 489.219 -1.46716 5.10537 0
M  V30 5359 C 488.258 -0.731758 6.0771 0
M  V30 5360 N 487.395 -1.68142 6.81669 0
M  V30 5361 H 492.235 0.545713 2.92961 0
M  V30 5362 H 489.772 0.280938 1.44392 0
M  V30 5363 H 491.73 -1.78771 3.76957 0
M  V30 5364 H 490.36 -1.86989 2.63125 0
M  V30 5365 H 489.412 0.251506 3.79568 0
M  V30 5366 H 490.724 0.110548 4.98677 0
M  V30 5367 H 489.878 -2.14199 5.6763 0
M  V30 5368 H 488.617 -2.07658 4.41282 0
M  V30 5369 H 487.622 -0.0430787 5.49783 0
M  V30 5370 H 488.847 -0.127904 6.7898 0
M  V30 5371 H 486.793 -2.27918 6.15134 0
M  V30 5372 H 486.71 -1.15841 7.47072 0
M  V30 5373 H 487.978 -2.347 7.43328 0
M  V30 5374 N 492.207 -1.54576 0.307264 0
M  V30 5375 C 493.432 -2.05139 -0.305379 0
M  V30 5376 C 493.857 -1.18278 -1.46259 0
M  V30 5377 O 493.215 -0.188243 -1.8032 0
M  V30 5378 C 493.263 -3.53066 -0.733283 0
M  V30 5379 O 492.367 -3.69206 -1.83741 0
M  V30 5380 H 491.708 -0.661444 -0.0582105 0
M  V30 5381 H 494.238 -1.99569 0.450931 0
M  V30 5382 H 494.248 -3.95034 -1.02039 0
M  V30 5383 H 492.923 -4.15746 0.113198 0
M  V30 5384 H 491.5 -3.39143 -1.55037 0
M  V30 5385 N 493.685 -0.035106 -1.57561 0
M  V30 5386 C 494.595 0.960295 -2.14046 0
M  V30 5387 C 495.611 1.3529 -1.0942 0
M  V30 5388 O 496.787 1.43309 -1.41508 0
M  V30 5389 C 493.852 2.22214 -2.66124 0
M  V30 5390 C 492.913 1.8894 -3.85487 0
M  V30 5391 C 492.146 3.09109 -4.35072 0
M  V30 5392 O 492.369 4.21963 -3.83802 0
M  V30 5393 O 491.303 2.91058 -5.26848 0
M  V30 5394 H 495.129 0.509983 -2.99387 0
M  V30 5395 H 492.714 0.185853 -1.48239 0
M  V30 5396 H 494.596 2.96279 -2.99661 0
M  V30 5397 H 493.271 2.66414 -1.83862 0
M  V30 5398 H 492.178 1.12241 -3.56865 0
M  V30 5399 H 493.511 1.49551 -4.6893 0
M  V30 5400 N 495.163 1.55791 0.238111 0
M  V30 5401 C 496.411 1.77681 0.963001 0
M  V30 5402 C 496.732 0.600674 1.85518 0
M  V30 5403 O 496.002 -0.383182 1.92116 0
M  V30 5404 H 494.582 0.655315 0.358568 0
M  V30 5405 H 497.244 1.93239 0.253945 0
M  V30 5406 H 496.34 2.69177 1.57956 0
M  V30 5407 N 496.642 -0.504142 1.49319 0
M  V30 5408 C 497.89 -1.25598 1.58334 0
M  V30 5409 C 498.211 -1.93114 0.270538 0
M  V30 5410 O 497.481 -1.82585 -0.709891 0
M  V30 5411 H 496.061 -0.466571 0.58337 0
M  V30 5412 H 498.723 -0.584547 1.85928 0
M  V30 5413 H 497.819 -2.02159 2.37778 0
M  V30 5414 N 498.12 -1.38341 -0.754957 0
M  V30 5415 C 499.05 -1.38176 -1.88227 0
M  V30 5416 C 500.031 -0.247873 -1.68284 0
M  V30 5417 O 501.216 -0.45075 -1.88896 0
M  V30 5418 C 498.346 -1.20471 -3.25736 0
M  V30 5419 C 497.3 -2.3105 -3.60278 0
M  V30 5420 C 496.626 -1.98452 -4.96509 0
M  V30 5421 C 497.926 -3.73305 -3.65295 0
M  V30 5422 H 499.62 -2.32512 -1.88622 0
M  V30 5423 H 497.166 -1.1192 -0.906082 0
M  V30 5424 H 499.119 -1.18982 -4.04254 0
M  V30 5425 H 497.843 -0.225965 -3.25817 0
M  V30 5426 H 496.502 -2.31723 -2.84078 0
M  V30 5427 H 496.15 -0.990641 -4.93148 0
M  V30 5428 H 495.85 -2.7251 -5.20588 0
M  V30 5429 H 497.374 -1.98578 -5.77407 0
M  V30 5430 H 498.788 -3.7467 -4.3393 0
M  V30 5431 H 497.185 -4.46557 -4.00883 0
M  V30 5432 H 498.255 -4.05719 -2.65556 0
M  V30 5433 N 499.598 0.982988 -1.23187 0
M  V30 5434 C 500.845 1.72392 -1.06241 0
M  V30 5435 C 501.173 1.9032 0.40108 0
M  V30 5436 O 500.428 1.45084 1.31336 0
M  V30 5437 C 500.727 3.12736 -1.73006 0
M  V30 5438 C 500.393 3.14695 -3.22921 0
M  V30 5439 C 499.055 3.14937 -3.63824 0
M  V30 5440 C 501.407 3.10211 -4.1883 0
M  V30 5441 C 498.735 3.08408 -4.99101 0
M  V30 5442 C 501.087 3.05224 -5.54095 0
M  V30 5443 C 499.751 3.03787 -5.94365 0
M  V30 5444 H 499.021 0.630829 -0.388762 0
M  V30 5445 H 501.668 1.15053 -1.53085 0
M  V30 5446 H 499.973 3.73446 -1.18514 0
M  V30 5447 H 501.67 3.68828 -1.57374 0
M  V30 5448 H 498.26 3.15262 -2.90358 0
M  V30 5449 H 502.444 3.09166 -3.8824 0
M  V30 5450 H 497.7 3.05646 -5.29519 0
M  V30 5451 H 501.874 3.00712 -6.28128 0
M  V30 5452 H 499.501 2.98483 -6.99151 0
M  V30 5453 N 501.076 1.04316 1.18135 0
M  V30 5454 C 502.325 0.74319 1.87509 0
M  V30 5455 C 502.638 -0.732136 1.81381 0
M  V30 5456 O 503.844 -1.14572 2.46141 0
M  V30 5457 C 502.3 1.27913 3.36402 0
M  V30 5458 C 501.908 2.78326 3.51053 0
M  V30 5459 C 503.652 1.0558 4.11161 0
M  V30 5460 C 501.559 3.25266 4.93919 0
M  V30 5461 H 500.489 0.274313 0.702331 0
M  V30 5462 H 503.14 1.25931 1.33467 0
M  V30 5463 H 501.522 0.690853 3.89927 0
M  V30 5464 H 502.696 3.42933 3.07788 0
M  V30 5465 H 501.011 2.991 2.89704 0
M  V30 5466 H 503.608 1.38161 5.16542 0
M  V30 5467 H 503.951 -0.00684729 4.16299 0
M  V30 5468 H 504.484 1.60882 3.63816 0
M  V30 5469 H 501.223 4.30922 4.9395 0
M  V30 5470 H 500.743 2.65396 5.3789 0
M  V30 5471 H 502.422 3.19433 5.62647 0
M  V30 5472 N 502.554 -1.34406 0.822964 0
M  V30 5473 C 503.8 -1.98999 0.420847 0
M  V30 5474 C 504.155 -1.64067 -1.00498 0
M  V30 5475 O 503.448 -0.902071 -1.69036 0
M  V30 5476 C 503.642 -3.52981 0.560268 0
M  V30 5477 C 503.471 -4.02873 1.99809 0
M  V30 5478 C 502.241 -4.31463 2.62998 0
M  V30 5479 C 504.439 -4.20241 2.96483 0
M  V30 5480 N 502.421 -4.6739 3.9802 0
M  V30 5481 C 503.792 -4.59348 4.16413 0
M  V30 5482 C 505.847 -4.02489 2.93098 0
M  V30 5483 C 504.55 -4.82559 5.33413 0
M  V30 5484 C 506.576 -4.26866 4.09315 0
M  V30 5485 C 505.938 -4.6626 5.27997 0
M  V30 5486 H 502.037 -0.755432 0.202104 0
M  V30 5487 H 504.621 -1.62815 1.06767 0
M  V30 5488 H 502.792 -3.88359 -0.0566596 0
M  V30 5489 H 504.524 -4.04487 0.131146 0
M  V30 5490 H 501.279 -4.22373 2.14238 0
M  V30 5491 H 501.703 -4.89588 4.67582 0
M  V30 5492 H 506.345 -3.71161 2.02483 0
M  V30 5493 H 504.063 -5.12754 6.24587 0
M  V30 5494 H 507.649 -4.14667 4.08096 0
M  V30 5495 H 506.529 -4.84752 6.16429 0
M  V30 5496 N 504.032 -0.577932 -1.46621 0
M  V30 5497 C 504.962 0.145917 -2.33044 0
M  V30 5498 C 505.943 0.888412 -1.45056 0
M  V30 5499 O 507.128 0.864812 -1.73881 0
M  V30 5500 C 504.258 1.16322 -3.27241 0
M  V30 5501 C 503.212 0.535868 -4.24632 0
M  V30 5502 C 502.538 1.65929 -5.08303 0
M  V30 5503 C 503.838 -0.523861 -5.19666 0
M  V30 5504 H 505.532 -0.575636 -2.93814 0
M  V30 5505 H 503.078 -0.278272 -1.41286 0
M  V30 5506 H 505.031 1.67793 -3.86553 0
M  V30 5507 H 503.755 1.91498 -2.64567 0
M  V30 5508 H 502.414 0.0422759 -3.66576 0
M  V30 5509 H 502.062 2.40061 -4.42018 0
M  V30 5510 H 501.762 1.2452 -5.74255 0
M  V30 5511 H 503.286 2.17686 -5.70478 0
M  V30 5512 H 504.7 -0.0944059 -5.73222 0
M  V30 5513 H 503.097 -0.858 -5.93935 0
M  V30 5514 H 504.167 -1.41197 -4.63887 0
M  V30 5515 N 505.51 1.54411 -0.315457 0
M  V30 5516 C 506.738 2.04833 0.291738 0
M  V30 5517 C 507.153 1.19203 1.46411 0
M  V30 5518 O 506.51 0.220867 1.81159 0
M  V30 5519 C 506.561 3.53969 0.73404 0
M  V30 5520 O 506.282 4.36346 -0.391682 0
M  V30 5521 C 507.783 4.2045 1.40489 0
M  V30 5522 H 505.003 0.668195 0.0612947 0
M  V30 5523 H 507.547 1.99276 -0.45929 0
M  V30 5524 H 505.702 3.5984 1.43506 0
M  V30 5525 H 506.116 5.24481 -0.0447088 0
M  V30 5526 H 507.59 5.26278 1.66539 0
M  V30 5527 H 508.067 3.71067 2.3496 0
M  V30 5528 H 508.673 4.18694 0.746662 0
M  V30 5529 N 506.988 0.0434614 1.5754 0
M  V30 5530 C 507.918 -0.931651 2.14109 0
M  V30 5531 C 508.899 -1.32971 1.06079 0
M  V30 5532 O 510.084 -1.40579 1.33982 0
M  V30 5533 C 507.214 -2.20914 2.67982 0
M  V30 5534 C 506.168 -1.95139 3.80926 0
M  V30 5535 C 505.494 -3.29276 4.21285 0
M  V30 5536 C 506.794 -1.27913 5.06395 0
M  V30 5537 H 508.488 -0.460497 2.95837 0
M  V30 5538 H 506.034 -0.220058 1.42309 0
M  V30 5539 H 507.987 -2.89522 3.06194 0
M  V30 5540 H 506.711 -2.70221 1.83434 0
M  V30 5541 H 505.37 -1.28945 3.43175 0
M  V30 5542 H 505.018 -3.76369 3.33699 0
M  V30 5543 H 504.718 -3.12831 4.97404 0
M  V30 5544 H 506.242 -3.99129 4.62091 0
M  V30 5545 H 507.656 -1.86544 5.42102 0
M  V30 5546 H 506.053 -1.2182 5.87605 0
M  V30 5547 H 507.123 -0.254066 4.84234 0
M  V30 5548 N 508.466 -1.55915 -0.229846 0
M  V30 5549 C 509.877 -1.68809 -0.797531 0
M  V30 5550 C 510.228 -0.643995 -1.8533 0
M  V30 5551 O 509.353 0.206492 -2.15413 0
M  V30 5552 C 509.948 -3.06043 -1.45338 0
M  V30 5553 C 508.507 -3.20819 -1.96856 0
M  V30 5554 C 507.654 -2.6472 -0.825736 0
M  V30 5555 H 510.605 -1.58699 -0.00533733 0
M  V30 5556 H 510.626 -3.01438 -2.32196 0
M  V30 5557 H 510.138 -3.82012 -0.684743 0
M  V30 5558 H 508.239 -2.49704 -2.76548 0
M  V30 5559 H 508.352 -4.27937 -2.15423 0
M  V30 5560 H 506.716 -2.22985 -1.23084 0
M  V30 5561 H 507.499 -3.43229 -0.0699019 0
M  V30 5562 N 509.944 0.496216 -1.49584 0
M  V30 5563 C 510.854 1.62352 -1.69349 0
M  V30 5564 C 511.87 1.64184 -0.576147 0
M  V30 5565 O 513.046 1.82517 -0.85144 0
M  V30 5566 C 510.111 2.98698 -1.76013 0
M  V30 5567 C 509.172 3.07454 -2.99617 0
M  V30 5568 C 508.405 4.37296 -3.05953 0
M  V30 5569 O 508.628 5.2637 -2.19752 0
M  V30 5570 O 507.562 4.51124 -3.9846 0
M  V30 5571 H 511.388 1.48606 -2.64859 0
M  V30 5572 H 508.973 0.673022 -1.33382 0
M  V30 5573 H 510.855 3.79725 -1.82721 0
M  V30 5574 H 509.53 3.12696 -0.836828 0
M  V30 5575 H 508.437 2.25597 -2.98424 0
M  V30 5576 H 509.77 2.98385 -3.91443 0
M  V30 5577 N 511.423 1.38739 0.74761 0
M  V30 5578 C 512.671 1.35007 1.50391 0
M  V30 5579 C 512.992 -0.0574274 1.94915 0
M  V30 5580 O 512.262 -1.00628 1.6808 0
M  V30 5581 H 510.842 0.496784 0.557866 0
M  V30 5582 H 513.504 1.73479 0.888319 0
M  V30 5583 H 512.6 2.00474 2.392 0
M  V30 5584 N 512.901 -0.976442 1.23707 0
M  V30 5585 C 514.148 -1.71827 1.07153 0
M  V30 5586 C 514.476 -1.9053 -0.390982 0
M  V30 5587 O 513.731 -1.45779 -1.30564 0
M  V30 5588 C 514.03 -3.11814 1.74662 0
M  V30 5589 C 513.696 -3.12978 3.24585 0
M  V30 5590 C 512.358 -3.13003 3.6549 0
M  V30 5591 C 514.71 -3.07986 4.20469 0
M  V30 5592 C 512.038 -3.05757 5.00729 0
M  V30 5593 C 514.39 -3.02282 5.55705 0
M  V30 5594 C 513.054 -3.00631 5.95968 0
M  V30 5595 H 512.324 -0.628758 0.392102 0
M  V30 5596 H 514.971 -1.14239 1.53693 0
M  V30 5597 H 513.276 -3.72812 1.20492 0
M  V30 5598 H 514.973 -3.67989 1.59328 0
M  V30 5599 H 511.563 -3.13718 2.92026 0
M  V30 5600 H 515.747 -3.07103 3.89874 0
M  V30 5601 H 511.003 -3.02834 5.31132 0
M  V30 5602 H 515.177 -2.97376 6.29714 0
M  V30 5603 H 512.804 -2.94771 7.00724 0
M  V30 5604 N 514.379 -1.04941 -1.1758 0
M  V30 5605 C 515.656 -0.671918 -1.83697 0
M  V30 5606 C 516.036 0.847929 -1.93322 0
M  V30 5607 O 515.384 1.75287 -1.46583 0
M  V30 5608 C 515.594 -1.35797 -3.21497 0
M  V30 5609 C 516.942 -1.4944 -3.97433 0
M  V30 5610 O 517.966 -1.31678 -3.30967 0
M  V30 5611 O 516.825 -1.78463 -5.1654 0
M  V30 5612 H 513.919 -0.236212 -0.792548 0
M  V30 5613 H 516.465 -1.14884 -1.24899 0
M  V30 5614 H 515.237 -2.39498 -3.09446 0
M  V30 5615 H 514.86 -0.870236 -3.8796 0
M  V30 5616 N 515.857 1.33968 -0.830081 0
M  V30 5617 C 517.085 2.0228 -0.434773 0
M  V30 5618 C 517.5 1.62487 0.961419 0
M  V30 5619 O 516.857 0.833849 1.62337 0
M  V30 5620 C 516.908 3.5751 -0.535625 0
M  V30 5621 O 516.629 3.95864 -1.87679 0
M  V30 5622 C 518.13 4.43091 -0.136137 0
M  V30 5623 H 515.35 0.648151 -0.173613 0
M  V30 5624 H 517.894 1.71089 -1.12022 0
M  V30 5625 H 516.049 3.87266 0.101817 0
M  V30 5626 H 516.463 4.9056 -1.85609 0
M  V30 5627 H 517.937 5.51398 -0.257772 0
M  V30 5628 H 518.414 4.29433 0.921076 0
M  V30 5629 H 519.02 4.18677 -0.747662 0
M  V30 5630 N 517.335 0.585699 1.46312 0
M  V30 5631 C 518.581 0.0808731 2.03239 0
M  V30 5632 C 518.936 -1.26609 1.44872 0
M  V30 5633 O 518.229 -1.81779 0.60556 0
M  V30 5634 C 518.423 -0.0401312 3.57377 0
M  V30 5635 C 518.252 1.29356 4.30694 0
M  V30 5636 C 517.022 1.86849 4.69484 0
M  V30 5637 C 519.22 2.21742 4.64042 0
M  V30 5638 N 517.202 3.13926 5.27564 0
M  V30 5639 C 518.573 3.33408 5.22723 0
M  V30 5640 C 520.628 2.21386 4.45974 0
M  V30 5641 C 519.331 4.44852 5.65242 0
M  V30 5642 C 521.357 3.31862 4.89511 0
M  V30 5643 C 520.719 4.42248 5.48266 0
M  V30 5644 H 516.818 0.072443 0.778637 0
M  V30 5645 H 519.402 0.779254 1.78426 0
M  V30 5646 H 517.573 -0.707686 3.81898 0
M  V30 5647 H 519.305 -0.549615 4.00951 0
M  V30 5648 H 516.06 1.40307 4.52339 0
M  V30 5649 H 516.484 3.78775 5.61122 0
M  V30 5650 H 521.126 1.37314 3.99881 0
M  V30 5651 H 518.844 5.29665 6.10312 0
M  V30 5652 H 522.43 3.32708 4.7728 0
M  V30 5653 H 521.31 5.26323 5.81338 0
M  V30 5654 N 518.813 -1.54241 0.323641 0
M  V30 5655 C 519.723 -2.28033 -0.551205 0
M  V30 5656 C 520.739 -1.32388 -1.12913 0
M  V30 5657 O 521.915 -1.65403 -1.14908 0
M  V30 5658 C 518.98 -3.02382 -1.69606 0
M  V30 5659 C 518.041 -4.13612 -1.14993 0
M  V30 5660 C 517.274 -4.84407 -2.24022 0
M  V30 5661 O 517.497 -4.54716 -3.44368 0
M  V30 5662 O 516.431 -5.71312 -1.89436 0
M  V30 5663 H 520.257 -3.03662 0.048066 0
M  V30 5664 H 517.842 -1.49133 0.0893289 0
M  V30 5665 H 519.724 -3.48941 -2.36259 0
M  V30 5666 H 518.399 -2.29628 -2.28151 0
M  V30 5667 H 517.306 -3.71402 -0.448484 0
M  V30 5668 H 518.639 -4.8841 -0.609608 0
M  V30 5669 N 520.291 -0.0518155 -1.57515 0
M  V30 5670 C 521.224 0.957758 -2.07129 0
M  V30 5671 C 522.202 1.30355 -0.971927 0
M  V30 5672 O 523.386 1.41631 -1.2439 0
M  V30 5673 C 520.513 2.27157 -2.51232 0
M  V30 5674 C 519.559 2.07879 -3.72409 0
M  V30 5675 S 520.392 1.35656 -5.18033 0
M  V30 5676 C 521.548 2.68359 -5.65451 0
M  V30 5677 H 521.781 0.53552 -2.92437 0
M  V30 5678 H 519.314 0.160465 -1.53564 0
M  V30 5679 H 521.272 3.02676 -2.77304 0
M  V30 5680 H 519.933 2.66509 -1.66228 0
M  V30 5681 H 519.126 3.05061 -4.01191 0
M  V30 5682 H 518.728 1.40499 -3.46606 0
M  V30 5683 H 521.02 3.64526 -5.71076 0
M  V30 5684 H 521.963 2.44213 -6.64654 0
M  V30 5685 H 522.371 2.74647 -4.93183 0
M  V30 5686 N 521.769 1.56035 0.221574 0
M  V30 5687 C 523.016 1.79047 0.94597 0
M  V30 5688 C 523.344 0.62057 1.84334 0
M  V30 5689 O 522.599 -0.395053 1.91671 0
M  V30 5690 C 522.898 3.07813 1.8162 0
M  V30 5691 C 522.564 4.3797 1.07206 0
M  V30 5692 C 521.226 4.73334 0.866508 0
M  V30 5693 C 523.578 5.18326 0.546565 0
M  V30 5694 C 520.906 5.8657 0.123549 0
M  V30 5695 C 523.258 6.32335 -0.18305 0
M  V30 5696 C 521.922 6.66301 -0.399861 0
M  V30 5697 H 521.192 0.655178 0.346155 0
M  V30 5698 H 523.839 1.90299 0.214146 0
M  V30 5699 H 522.144 2.91682 2.61589 0
M  V30 5700 H 523.841 3.2282 2.37884 0
M  V30 5701 H 520.431 4.10202 1.24226 0
M  V30 5702 H 524.615 4.9144 0.692847 0
M  V30 5703 H 519.871 6.11376 -0.0546591 0
M  V30 5704 H 524.045 6.9383 -0.59775 0
M  V30 5705 H 521.672 7.53889 -0.977489 0
M  V30 5706 N 523.247 -0.488276 1.49845 0
M  V30 5707 C 524.157 -1.61451 1.70207 0
M  V30 5708 C 525.173 -1.63877 0.584846 0
M  V30 5709 O 526.349 -1.82063 0.861107 0
M  V30 5710 C 523.414 -2.9776 1.77594 0
M  V30 5711 C 522.475 -3.05861 3.01243 0
M  V30 5712 C 521.708 -4.35668 3.08268 0
M  V30 5713 O 521.931 -5.25197 2.22541 0
M  V30 5714 O 520.865 -4.49005 4.00847 0
M  V30 5715 H 524.691 -1.47199 2.65643 0
M  V30 5716 H 522.276 -0.665939 1.33737 0
M  V30 5717 H 524.158 -3.7875 1.84732 0
M  V30 5718 H 522.833 -3.12248 0.8534 0
M  V30 5719 H 521.74 -2.24012 2.99616 0
M  V30 5720 H 523.073 -2.96304 3.9302 0
M  V30 5721 N 524.725 -1.39134 -0.740242 0
M  V30 5722 C 525.955 -1.39132 -1.52728 0
M  V30 5723 C 526.363 0.0173133 -1.89192 0
M  V30 5724 O 525.706 0.997715 -1.54244 0
M  V30 5725 C 525.768 -2.1952 -2.84695 0
M  V30 5726 C 525.432 -3.68203 -2.70695 0
M  V30 5727 C 526.429 -4.61401 -2.39593 0
M  V30 5728 C 524.114 -4.11724 -2.8773 0
M  V30 5729 C 526.108 -5.96102 -2.25701 0
M  V30 5730 C 523.795 -5.46503 -2.73456 0
M  V30 5731 C 524.793 -6.38506 -2.42486 0
M  V30 5732 O 524.481 -7.70803 -2.28295 0
M  V30 5733 H 524.213 -0.477263 -0.478744 0
M  V30 5734 H 526.767 -1.83504 -0.922799 0
M  V30 5735 H 524.997 -1.69888 -3.47383 0
M  V30 5736 H 526.686 -2.1176 -3.46284 0
M  V30 5737 H 527.452 -4.29079 -2.26088 0
M  V30 5738 H 523.331 -3.4045 -3.10829 0
M  V30 5739 H 526.875 -6.6788 -2.0145 0
M  V30 5740 H 522.772 -5.78417 -2.86538 0
M  V30 5741 H 523.54 -7.8147 -2.43405 0
M  V30 5742 N 526.204 0.969867 -1.24223 0
M  V30 5743 C 527.167 2.04564 -1.03373 0
M  V30 5744 C 528.167 1.60798 0.00819206 0
M  V30 5745 O 529.357 1.72641 -0.232567 0
M  V30 5746 C 526.489 3.36163 -0.566343 0
M  V30 5747 H 527.682 2.24494 -1.98853 0
M  V30 5748 H 525.235 1.1448 -1.06415 0
M  V30 5749 H 525.97 3.21925 0.391751 0
M  V30 5750 H 525.755 3.69273 -1.31834 0
M  V30 5751 H 527.245 4.1526 -0.441435 0
M  V30 5752 N 527.682 1.05563 1.17022 0
M  V30 5753 C 528.629 0.659893 2.21165 0
M  V30 5754 C 529.599 -0.339813 1.62587 0
M  V30 5755 O 530.784 -0.230378 1.89404 0
M  V30 5756 C 527.924 0.0447297 3.45071 0
M  V30 5757 C 527.037 1.09372 4.17926 0
M  V30 5758 C 526.172 0.445481 5.29329 0
M  V30 5759 C 525.211 1.47852 5.93975 0
M  V30 5760 N 524.348 0.854172 6.96885 0
M  V30 5761 H 529.188 1.55243 2.54369 0
M  V30 5762 H 526.725 0.776336 1.24946 0
M  V30 5763 H 528.683 -0.329404 4.15898 0
M  V30 5764 H 527.313 -0.811244 3.1244 0
M  V30 5765 H 526.365 1.58564 3.45777 0
M  V30 5766 H 527.677 1.87773 4.62107 0
M  V30 5767 H 526.831 0.0179688 6.06697 0
M  V30 5768 H 525.57 -0.370481 4.86291 0
M  V30 5769 H 524.575 1.91601 5.15334 0
M  V30 5770 H 525.8 2.29645 6.39093 0
M  V30 5771 H 523.746 0.0587882 6.55974 0
M  V30 5772 H 523.663 1.57567 7.39397 0
M  V30 5773 H 524.931 0.451559 7.78191 0
M  V30 5774 N 529.16 -1.33526 0.837174 0
M  V30 5775 C 530.576 -1.50727 0.524743 0
M  V30 5776 C 530.776 -1.77792 -0.948279 0
M  V30 5777 O 529.832 -1.83719 -1.73216 0
M  V30 5778 C 531.145 -2.66299 1.39661 0
M  V30 5779 C 532.693 -2.80183 1.39521 0
M  V30 5780 C 533.168 -3.98815 2.25189 0
M  V30 5781 N 534.659 -4.06047 2.2289 0
M  V30 5782 C 535.394 -4.97032 2.85915 0
M  V30 5783 N 534.89 -5.93143 3.57985 0
M  V30 5784 N 536.683 -4.90015 2.75394 0
M  V30 5785 H 528.834 -1.1422 1.79074 0
M  V30 5786 H 531.097 -0.561399 0.763894 0
M  V30 5787 H 530.803 -2.52974 2.4433 0
M  V30 5788 H 530.677 -3.61663 1.07145 0
M  V30 5789 H 533.064 -2.92942 0.356253 0
M  V30 5790 H 533.145 -1.85586 1.76044 0
M  V30 5791 H 532.789 -3.86817 3.29143 0
M  V30 5792 H 532.719 -4.92654 1.86009 0
M  V30 5793 H 535.21 -3.37262 1.70478 0
M  V30 5794 H 535.523 -6.59227 4.03286 0
M  V30 5795 H 533.868 -5.93223 3.62093 0
M  V30 5796 H 537.059 -4.13894 2.18654 0
M  V30 5797 H 537.232 -5.60724 3.24796 0
M  V30 5798 N 530.638 -0.59345 -1.46 0
M  V30 5799 C 531.585 0.133618 -2.30413 0
M  V30 5800 C 532.555 0.873736 -1.41262 0
M  V30 5801 O 533.74 0.862279 -1.70204 0
M  V30 5802 C 530.88 1.13434 -3.25924 0
M  V30 5803 C 529.993 0.39656 -4.30176 0
M  V30 5804 C 529.128 1.38575 -5.12806 0
M  V30 5805 C 528.167 0.634984 -6.08797 0
M  V30 5806 N 527.304 1.57276 -6.84258 0
M  V30 5807 H 532.144 -0.592252 -2.92055 0
M  V30 5808 H 529.681 -0.303874 -1.43927 0
M  V30 5809 H 531.639 1.72752 -3.79753 0
M  V30 5810 H 530.269 1.82779 -2.66067 0
M  V30 5811 H 529.321 -0.311861 -3.79119 0
M  V30 5812 H 530.633 -0.189869 -4.98438 0
M  V30 5813 H 529.787 2.05141 -5.70966 0
M  V30 5814 H 528.526 2.00611 -4.44529 0
M  V30 5815 H 527.531 -0.0443925 -5.49782 0
M  V30 5816 H 528.756 0.0198678 -6.79097 0
M  V30 5817 H 526.702 2.18103 -6.18682 0
M  V30 5818 H 526.619 1.03941 -7.48821 0
M  V30 5819 H 527.887 2.22844 -7.46968 0
M  V30 5820 N 532.116 1.54067 -0.331816 0
M  V30 5821 C 533.063 2.24623 0.530372 0
M  V30 5822 C 534.033 1.24009 1.10503 0
M  V30 5823 O 535.218 1.52712 1.14384 0
M  V30 5824 C 532.358 3.01374 1.68129 0
M  V30 5825 C 531.471 4.16821 1.13507 0
M  V30 5826 C 530.606 4.81085 2.25234 0
M  V30 5827 C 529.645 5.88621 1.67903 0
M  V30 5828 N 528.782 6.46713 2.73326 0
M  V30 5829 H 533.622 2.97898 -0.0778607 0
M  V30 5830 H 531.159 1.47014 -0.0501965 0
M  V30 5831 H 533.117 3.44125 2.35868 0
M  V30 5832 H 531.747 2.30419 2.26069 0
M  V30 5833 H 530.799 3.78796 0.348979 0
M  V30 5834 H 532.111 4.94203 0.675633 0
M  V30 5835 H 531.265 5.26846 3.00862 0
M  V30 5836 H 530.004 4.03102 2.74518 0
M  V30 5837 H 529.009 5.42254 0.907773 0
M  V30 5838 H 530.234 6.68506 1.19487 0
M  V30 5839 H 528.18 5.71599 3.21886 0
M  V30 5840 H 528.097 7.19532 2.3197 0
M  V30 5841 H 529.365 6.97129 3.48758 0
M  V30 5842 N 533.594 0.0601682 1.57485 0
M  V30 5843 C 534.84 -0.612501 1.93329 0
M  V30 5844 C 535.173 -1.6996 0.939526 0
M  V30 5845 O 534.448 -1.94472 -0.0330957 0
M  V30 5846 C 534.731 -1.20025 3.39508 0
M  V30 5847 C 534.584 -0.12059 4.49638 0
M  V30 5848 C 535.903 -2.10923 3.86264 0
M  V30 5849 H 533.022 -0.221185 0.703027 0
M  V30 5850 H 535.664 0.123768 1.89596 0
M  V30 5851 H 533.814 -1.82774 3.42821 0
M  V30 5852 H 535.486 0.51185 4.58452 0
M  V30 5853 H 533.729 0.550251 4.30296 0
M  V30 5854 H 534.4 -0.572019 5.49028 0
M  V30 5855 H 536.876 -1.58124 3.84884 0
M  V30 5856 H 535.752 -2.48987 4.8918 0
M  V30 5857 H 536.013 -3.01292 3.23536 0
M  V30 5858 N 535.072 -1.5615 -0.213296 0
M  V30 5859 C 536.319 -1.79546 -0.936462 0
M  V30 5860 C 536.647 -0.630337 -1.84003 0
M  V30 5861 O 535.902 0.384883 -1.91878 0
M  V30 5862 C 536.201 -3.08772 -1.79985 0
M  V30 5863 C 535.867 -4.38532 -1.04882 0
M  V30 5864 C 534.529 -4.73787 -0.841393 0
M  V30 5865 C 536.881 -5.18609 -0.51907 0
M  V30 5866 C 534.209 -5.86627 -0.0924403 0
M  V30 5867 C 536.561 -6.32229 0.216581 0
M  V30 5868 C 535.225 -6.6608 0.435191 0
M  V30 5869 H 534.495 -0.657004 -0.342676 0
M  V30 5870 H 537.142 -1.9041 -0.204051 0
M  V30 5871 H 535.447 -2.93065 -2.60038 0
M  V30 5872 H 537.144 -3.24077 -2.36168 0
M  V30 5873 H 533.734 -4.10855 -1.22048 0
M  V30 5874 H 537.918 -4.91801 -0.666775 0
M  V30 5875 H 533.174 -6.11338 0.087081 0
M  V30 5876 H 537.348 -6.93503 0.634538 0
M  V30 5877 H 534.975 -7.5336 1.01746 0
M  V30 5878 N 536.55 0.480323 -1.50102 0
M  V30 5879 C 537.78 1.25475 -1.64133 0
M  V30 5880 C 538.188 1.8647 -0.320272 0
M  V30 5881 O 537.531 1.69561 0.70673 0
M  V30 5882 C 537.593 2.40996 -2.6676 0
M  V30 5883 C 537.257 2.00711 -4.10565 0
M  V30 5884 C 538.254 1.53492 -4.96725 0
M  V30 5885 C 535.939 2.09714 -4.56427 0
M  V30 5886 C 537.933 1.15806 -6.26792 0
M  V30 5887 C 535.62 1.7164 -5.86501 0
M  V30 5888 C 536.618 1.24763 -6.71508 0
M  V30 5889 O 536.306 0.872122 -7.99155 0
M  V30 5890 H 536.038 0.385983 -0.554971 0
M  V30 5891 H 538.592 0.580848 -1.97016 0
M  V30 5892 H 536.822 3.11528 -2.291 0
M  V30 5893 H 538.511 3.02981 -2.70106 0
M  V30 5894 H 539.277 1.45966 -4.62514 0
M  V30 5895 H 535.156 2.4515 -3.90413 0
M  V30 5896 H 538.7 0.791465 -6.93096 0
M  V30 5897 H 534.597 1.78822 -6.20236 0
M  V30 5898 H 535.365 1.00178 -8.12346 0
M  V30 5899 N 538.028 1.39524 0.732853 0
M  V30 5900 C 539.274 1.37068 1.49467 0
M  V30 5901 C 539.607 -0.0327166 1.94172 0
M  V30 5902 O 538.882 -0.998071 1.66939 0
M  V30 5903 C 539.165 2.34494 2.73285 0
M  V30 5904 C 539.018 3.83784 2.34585 0
M  V30 5905 C 540.337 2.29717 3.75391 0
M  V30 5906 H 537.456 0.499206 0.542183 0
M  V30 5907 H 540.098 1.70532 0.837783 0
M  V30 5908 H 538.248 2.06087 3.29333 0
M  V30 5909 H 539.92 4.22949 1.84151 0
M  V30 5910 H 538.163 4.00455 1.66787 0
M  V30 5911 H 538.834 4.47444 3.23262 0
M  V30 5912 H 541.31 2.54839 3.28932 0
M  V30 5913 H 540.186 2.99962 4.59689 0
M  V30 5914 H 540.447 1.30291 4.22465 0
M  V30 5915 N 539.506 -0.963266 1.24736 0
M  V30 5916 C 540.917 -1.52145 1.08207 0
M  V30 5917 C 541.268 -1.93142 -0.345061 0
M  V30 5918 O 540.393 -1.77769 -1.23399 0
M  V30 5919 C 540.988 -2.76486 1.95808 0
M  V30 5920 C 539.547 -3.28646 1.8349 0
M  V30 5921 C 538.694 -2.01529 1.90476 0
M  V30 5922 H 541.645 -0.781083 1.38148 0
M  V30 5923 H 541.666 -3.49986 1.49297 0
M  V30 5924 H 541.178 -2.46617 2.99669 0
M  V30 5925 H 539.279 -3.63357 0.824787 0
M  V30 5926 H 539.392 -3.97246 2.67829 0
M  V30 5927 H 537.756 -2.16442 1.34258 0
M  V30 5928 H 538.539 -1.7402 2.95926 0
M  V30 5929 N 540.985 -1.06182 -1.16461 0
M  V30 5930 C 542.233 -0.776326 -1.86595 0
M  V30 5931 C 542.554 0.69921 -1.82033 0
M  V30 5932 O 541.824 1.50579 -1.2531 0
M  V30 5933 H 540.404 -0.284184 -0.690832 0
M  V30 5934 H 543.066 -1.34308 -1.41235 0
M  V30 5935 H 542.162 -1.10022 -2.92064 0
M  V30 5936 N 542.463 1.3308 -0.844243 0
M  V30 5937 C 543.879 1.50447 -0.532729 0
M  V30 5938 C 544.079 1.78292 0.938837 0
M  V30 5939 O 543.135 1.84635 1.72239 0
M  V30 5940 C 544.448 2.65555 -1.41072 0
M  V30 5941 C 545.996 2.7944 -1.41005 0
M  V30 5942 C 546.471 3.97616 -2.27301 0
M  V30 5943 N 547.962 4.0486 -2.2504 0
M  V30 5944 C 548.697 4.95508 -2.88547 0
M  V30 5945 N 548.193 5.91236 -3.61126 0
M  V30 5946 N 549.986 4.88548 -2.77989 0
M  V30 5947 H 542.137 1.13269 -1.79677 0
M  V30 5948 H 544.4 0.55734 -0.766861 0
M  V30 5949 H 544.106 2.51675 -2.45668 0
M  V30 5950 H 543.98 3.61089 -1.09061 0
M  V30 5951 H 546.367 2.92749 -0.371784 0
M  V30 5952 H 546.448 1.8465 -1.77026 0
M  V30 5953 H 546.092 3.85066 -3.3119 0
M  V30 5954 H 546.022 4.91661 -1.88619 0
M  V30 5955 H 548.513 3.36353 -1.72264 0
M  V30 5956 H 548.826 6.57079 -4.06776 0
M  V30 5957 H 547.171 5.91295 -3.65234 0
M  V30 5958 H 550.362 4.12729 -2.20846 0
M  V30 5959 H 550.535 5.58994 -3.27765 0
M  V30 5960 N 543.941 0.601185 1.45683 0
M  V30 5961 C 545.187 0.0940202 2.02582 0
M  V30 5962 C 545.52 -1.26972 1.46941 0
M  V30 5963 O 544.795 -1.83613 0.641612 0
M  V30 5964 C 545.078 0.0481715 3.60068 0
M  V30 5965 C 544.931 1.44212 4.26055 0
M  V30 5966 C 546.25 -0.642975 4.35378 0
M  V30 5967 H 543.369 0.0356404 0.736138 0
M  V30 5968 H 546.011 0.771929 1.73612 0
M  V30 5969 H 544.161 -0.529128 3.8488 0
M  V30 5970 H 545.833 2.06601 4.12449 0
M  V30 5971 H 544.076 2.00465 3.84703 0
M  V30 5972 H 544.747 1.36234 5.34925 0
M  V30 5973 H 547.223 -0.152351 4.15821 0
M  V30 5974 H 546.099 -0.644141 5.45107 0
M  V30 5975 H 546.36 -1.70785 4.0778 0
M  V30 5976 N 545.419 -1.53889 0.339982 0
M  V30 5977 C 546.666 -2.00855 -0.257621 0
M  V30 5978 C 546.994 -1.22788 -1.50842 0
M  V30 5979 O 546.249 -0.302567 -1.93347 0
M  V30 5980 C 546.548 -3.51968 -0.620735 0
M  V30 5981 C 546.214 -4.47741 0.532771 0
M  V30 5982 C 544.876 -4.73645 0.849339 0
M  V30 5983 C 547.228 -5.04551 1.3068 0
M  V30 5984 C 544.556 -5.53614 1.94237 0
M  V30 5985 C 546.908 -5.85713 2.39005 0
M  V30 5986 C 545.572 -6.09912 2.71225 0
M  V30 5987 H 544.842 -0.734979 -0.0942703 0
M  V30 5988 H 547.489 -1.85714 0.467159 0
M  V30 5989 H 545.794 -3.64921 -1.42618 0
M  V30 5990 H 547.491 -3.85762 -1.09495 0
M  V30 5991 H 544.081 -4.27711 0.275973 0
M  V30 5992 H 548.265 -4.84507 1.07549 0
M  V30 5993 H 543.521 -5.7059 2.19628 0
M  V30 5994 H 547.695 -6.28748 2.99415 0
M  V30 5995 H 545.322 -6.71665 3.56047 0
M  V30 5996 N 546.897 -0.0685191 -1.57451 0
M  V30 5997 C 547.844 0.899861 -2.12535 0
M  V30 5998 C 548.814 1.29749 -1.03703 0
M  V30 5999 O 549.999 1.38392 -1.31348 0
M  V30 6000 C 547.139 2.16328 -2.6888 0
M  V30 6001 C 546.252 1.81857 -3.91857 0
M  V30 6002 C 545.387 3.02786 -4.36457 0
M  V30 6003 C 544.426 2.64317 -5.5209 0
M  V30 6004 N 543.563 3.77994 -5.91663 0
M  V30 6005 H 548.403 0.423243 -2.94979 0
M  V30 6006 H 545.94 0.197268 -1.45771 0
M  V30 6007 H 547.898 2.90281 -2.99655 0
M  V30 6008 H 546.528 2.61536 -1.89206 0
M  V30 6009 H 545.58 0.979808 -3.67565 0
M  V30 6010 H 546.892 1.49553 -4.75852 0
M  V30 6011 H 546.046 3.85021 -4.68875 0
M  V30 6012 H 544.785 3.38281 -3.51308 0
M  V30 6013 H 543.79 1.80503 -5.19325 0
M  V30 6014 H 545.015 2.29995 -6.38967 0
M  V30 6015 H 542.961 4.13258 -5.09464 0
M  V30 6016 H 542.878 3.49447 -6.7039 0
M  V30 6017 H 544.146 4.60818 -6.28703 0
M  V30 6018 N 548.375 1.56261 0.205012 0
M  V30 6019 C 549.621 1.80306 0.9283 0
M  V30 6020 C 549.954 0.640932 1.83319 0
M  V30 6021 O 549.229 -0.359032 1.91158 0
M  V30 6022 C 549.512 3.14547 1.75306 0
M  V30 6023 C 549.365 4.41236 0.873562 0
M  V30 6024 C 550.684 3.45382 2.72762 0
M  V30 6025 H 547.803 0.655929 0.336044 0
M  V30 6026 H 550.445 1.88984 0.196211 0
M  V30 6027 H 548.595 3.0728 2.37721 0
M  V30 6028 H 550.267 4.60539 0.264887 0
M  V30 6029 H 548.51 4.33427 0.179773 0
M  V30 6030 H 549.181 5.31639 1.48541 0
M  V30 6031 H 551.657 3.52884 2.20481 0
M  V30 6032 H 550.533 4.40449 3.2756 0
M  V30 6033 H 550.794 2.68377 3.51321 0
M  V30 6034 N 549.853 -0.472356 1.50355 0
M  V30 6035 C 551.083 -1.24603 1.64796 0
M  V30 6036 C 551.491 -1.86297 0.330156 0
M  V30 6037 O 550.834 -1.69934 -0.697728 0
M  V30 6038 C 550.896 -2.39578 2.68035 0
M  V30 6039 C 550.56 -1.98531 4.11624 0
M  V30 6040 C 551.557 -1.50856 4.97532 0
M  V30 6041 C 549.242 -2.0729 4.57532 0
M  V30 6042 C 551.236 -1.12481 6.27397 0
M  V30 6043 C 548.923 -1.68527 5.87403 0
M  V30 6044 C 549.921 -1.212 6.7216 0
M  V30 6045 O 549.609 -0.829728 7.99607 0
M  V30 6046 H 549.341 -0.383035 0.55701 0
M  V30 6047 H 551.895 -0.570392 1.97321 0
M  V30 6048 H 550.125 -3.10309 2.30749 0
M  V30 6049 H 551.814 -3.01544 2.71709 0
M  V30 6050 H 552.58 -1.43511 4.63281 0
M  V30 6051 H 548.459 -2.43076 3.91708 0
M  V30 6052 H 552.003 -0.754698 6.93506 0
M  V30 6053 H 547.9 -1.7553 6.21176 0
M  V30 6054 H 548.668 -0.958689 8.12866 0
M  V30 6055 N 551.331 -1.39911 -0.725443 0
M  V30 6056 C 552.608 -1.28158 -1.47766 0
M  V30 6057 C 552.988 0.104545 -2.10841 0
M  V30 6058 O 552.336 1.11657 -1.99361 0
M  V30 6059 C 552.546 -2.41306 -2.52135 0
M  V30 6060 C 553.894 -2.81076 -3.18247 0
M  V30 6061 O 554.918 -2.40827 -2.62452 0
M  V30 6062 O 553.777 -3.50581 -4.19231 0
M  V30 6063 H 550.871 -0.502761 -0.656628 0
M  V30 6064 H 553.417 -1.51808 -0.758456 0
M  V30 6065 H 552.189 -3.33932 -2.03974 0
M  V30 6066 H 551.812 -2.19374 -3.31603 0
M  V30 6067 N 552.809 0.956637 -1.25245 0
M  V30 6068 C 553.719 2.0868 -1.0719 0
M  V30 6069 C 554.735 1.73997 -0.00959074 0
M  V30 6070 O 555.911 2.00301 -0.210104 0
M  V30 6071 C 552.976 3.39754 -0.690526 0
M  V30 6072 C 552.037 3.88316 -1.83055 0
M  V30 6073 C 551.27 5.13134 -1.46728 0
M  V30 6074 O 551.493 5.6925 -0.362029 0
M  V30 6075 O 550.427 5.56356 -2.29677 0
M  V30 6076 H 554.253 2.26813 -2.01965 0
M  V30 6077 H 551.838 1.07098 -1.04165 0
M  V30 6078 H 553.72 4.18543 -0.489871 0
M  V30 6079 H 552.395 3.22896 0.227981 0
M  V30 6080 H 551.302 3.1054 -2.08604 0
M  V30 6081 H 552.635 4.09669 -2.72822 0
M  V30 6082 N 554.287 1.06798 1.15896 0
M  V30 6083 C 555.698 0.811355 1.68149 0
M  V30 6084 C 556.049 -0.664339 1.8461 0
M  V30 6085 O 555.174 -1.51485 1.54535 0
M  V30 6086 C 555.769 1.46624 3.05429 0
M  V30 6087 C 554.328 1.25726 3.54781 0
M  V30 6088 C 553.475 1.53949 2.3064 0
M  V30 6089 H 556.426 1.23078 1.00187 0
M  V30 6090 H 556.447 0.88437 3.7008 0
M  V30 6091 H 555.959 2.54025 2.93416 0
M  V30 6092 H 554.06 0.20322 3.72045 0
M  V30 6093 H 554.173 1.97354 4.36564 0
M  V30 6094 H 552.537 0.96025 2.35905 0
M  V30 6095 H 553.32 2.6252 2.2122 0
M  V30 6096 N 555.766 -1.3263 0.851289 0
M  V30 6097 C 556.991 -2.02097 0.466006 0
M  V30 6098 C 557.416 -1.63574 -0.928709 0
M  V30 6099 O 556.774 -0.834665 -1.60944 0
M  V30 6100 C 556.822 -3.55425 0.608737 0
M  V30 6101 O 555.926 -4.10827 -0.359878 0
M  V30 6102 H 555.267 -0.636911 0.187724 0
M  V30 6103 H 557.797 -1.69253 1.14955 0
M  V30 6104 H 557.807 -4.04986 0.495006 0
M  V30 6105 H 556.482 -3.82806 1.62581 0
M  V30 6106 H 555.059 -3.72349 -0.202666 0
M  V30 6107 N 557.244 -0.608902 -1.45362 0
M  V30 6108 C 558.655 -0.189511 -1.85736 0
M  V30 6109 C 559.006 1.2539 -1.50903 0
M  V30 6110 O 558.131 1.95094 -0.936347 0
M  V30 6111 C 558.726 -0.33716 -3.37118 0
M  V30 6112 C 557.285 0.0275487 -3.7639 0
M  V30 6113 C 556.432 -0.660983 -2.69307 0
M  V30 6114 H 559.383 -0.815499 -1.36144 0
M  V30 6115 H 559.404 0.430257 -3.7806 0
M  V30 6116 H 558.916 -1.38779 -3.62439 0
M  V30 6117 H 557.017 1.0773 -3.56686 0
M  V30 6118 H 557.13 -0.367018 -4.77692 0
M  V30 6119 H 555.494 -0.0984958 -2.54509 0
M  V30 6120 H 556.277 -1.71377 -2.97464 0
M  V30 6121 N 558.722 1.53707 -0.348139 0
M  V30 6122 C 559.947 2.05877 0.250883 0
M  V30 6123 C 560.372 1.22115 1.43072 0
M  V30 6124 O 559.73 0.235986 1.79758 0
M  V30 6125 C 559.778 3.54886 0.639416 0
M  V30 6126 O 558.882 3.73948 1.73888 0
M  V30 6127 H 558.223 0.662754 0.040653 0
M  V30 6128 H 560.753 1.98303 -0.503685 0
M  V30 6129 H 560.763 3.97601 0.915295 0
M  V30 6130 H 559.438 4.153 -0.223386 0
M  V30 6131 H 558.015 3.43134 1.45991 0
M  V30 6132 N 560.2 0.0768682 1.57412 0
M  V30 6133 C 561.133 -0.924685 2.08626 0
M  V30 6134 C 562.111 -1.28792 0.992542 0
M  V30 6135 O 563.295 -1.39634 1.26628 0
M  V30 6136 C 560.422 -2.23131 2.54814 0
M  V30 6137 C 559.468 -2.01928 3.75669 0
M  V30 6138 S 560.301 -1.27397 5.20125 0
M  V30 6139 C 561.457 -2.59329 5.69648 0
M  V30 6140 H 561.69 -0.488928 2.93252 0
M  V30 6141 H 559.223 -0.136014 1.538 0
M  V30 6142 H 561.181 -2.98226 2.82084 0
M  V30 6143 H 559.842 -2.63831 1.70447 0
M  V30 6144 H 559.035 -2.98639 4.05993 0
M  V30 6145 H 558.637 -1.34967 3.48798 0
M  V30 6146 H 560.929 -3.55394 5.76803 0
M  V30 6147 H 561.872 -2.33608 6.68456 0
M  V30 6148 H 562.28 -2.66767 4.9749 0
M  V30 6149 N 561.678 -1.56367 -0.196722 0
M  V30 6150 C 563.094 -1.49916 -0.54749 0
M  V30 6151 C 563.294 -0.77659 -1.85934 0
M  V30 6152 O 562.35 -0.32644 -2.50381 0
M  V30 6153 C 563.663 -2.94577 -0.603734 0
M  V30 6154 C 565.211 -3.05239 -0.692677 0
M  V30 6155 C 565.686 -4.51308 -0.780046 0
M  V30 6156 N 567.177 -4.55453 -0.843616 0
M  V30 6157 C 567.912 -5.65786 -0.931358 0
M  V30 6158 N 567.408 -6.85812 -0.981503 0
M  V30 6159 N 569.201 -5.53695 -0.968421 0
M  V30 6160 H 561.352 -2.01761 0.663803 0
M  V30 6161 H 563.615 -0.918094 0.236238 0
M  V30 6162 H 563.321 -3.50494 0.29105 0
M  V30 6163 H 563.195 -3.47841 -1.45898 0
M  V30 6164 H 565.582 -2.49372 -1.57789 0
M  V30 6165 H 565.663 -2.55103 0.188736 0
M  V30 6166 H 565.307 -5.078 0.100811 0
M  V30 6167 H 565.237 -4.99176 -1.67724 0
M  V30 6168 H 567.728 -3.69025 -0.814176 0
M  V30 6169 H 568.041 -7.65648 -1.04892 0
M  V30 6170 H 566.386 -6.88474 -0.950208 0
M  V30 6171 H 569.577 -4.58848 -0.926072 0
M  V30 6172 H 569.75 -6.39708 -1.03334 0
M  V30 6173 N 563.156 0.464375 -1.50603 0
M  V30 6174 C 564.086 1.56944 -1.72889 0
M  V30 6175 C 565.067 1.59979 -0.577997 0
M  V30 6176 O 566.252 1.76138 -0.817855 0
M  V30 6177 C 563.382 2.95225 -1.8292 0
M  V30 6178 C 562.336 3.07056 -2.98162 0
M  V30 6179 C 561.662 4.47051 -2.93343 0
M  V30 6180 C 562.962 2.83648 -4.38567 0
M  V30 6181 H 564.656 1.38547 -2.65415 0
M  V30 6182 H 562.202 0.665082 -1.27721 0
M  V30 6183 H 564.155 3.72467 -1.97095 0
M  V30 6184 H 562.879 3.14793 -0.870209 0
M  V30 6185 H 561.538 2.32248 -2.83648 0
M  V30 6186 H 561.186 4.63547 -1.95276 0
M  V30 6187 H 560.886 4.55902 -3.70712 0
M  V30 6188 H 562.41 5.26304 -3.09575 0
M  V30 6189 H 563.824 3.50636 -4.53572 0
M  V30 6190 H 562.221 3.03937 -5.17438 0
M  V30 6191 H 563.291 1.79451 -4.50472 0
M  V30 6192 N 564.634 1.40294 0.718013 0
M  V30 6193 C 565.859 1.41941 1.5122 0
M  V30 6194 C 566.284 0.0202371 1.88089 0
M  V30 6195 O 565.642 -0.971078 1.53101 0
M  V30 6196 C 565.69 2.3141 2.76554 0
M  V30 6197 O 564.794 1.75567 3.73162 0
M  V30 6198 H 564.135 0.482644 0.456016 0
M  V30 6199 H 566.665 1.84494 0.884478 0
M  V30 6200 H 566.675 2.46513 3.25108 0
M  V30 6201 H 565.35 3.33085 2.49053 0
M  V30 6202 H 563.927 1.69798 3.31999 0
M  V30 6203 N 566.112 -0.949982 1.2575 0
M  V30 6204 C 567.359 -1.69515 1.10774 0
M  V30 6205 C 567.687 -1.91316 -0.350479 0
M  V30 6206 O 566.942 -1.48515 -1.27443 0
M  V30 6207 C 567.241 -3.08039 1.81237 0
M  V30 6208 C 566.907 -3.06023 3.31151 0
M  V30 6209 C 565.569 -3.0518 3.72047 0
M  V30 6210 C 567.921 -2.98998 4.26907 0
M  V30 6211 C 565.249 -2.95067 5.07102 0
M  V30 6212 C 567.601 -2.90426 5.61992 0
M  V30 6213 C 566.265 -2.87922 6.0221 0
M  V30 6214 H 565.535 -0.6203 0.405351 0
M  V30 6215 H 568.182 -1.10953 1.56082 0
M  V30 6216 H 566.487 -3.70172 1.28373 0
M  V30 6217 H 568.184 -3.64526 1.67098 0
M  V30 6218 H 564.774 -3.07453 2.98614 0
M  V30 6219 H 568.958 -2.98764 3.963 0
M  V30 6220 H 564.214 -2.915 5.37436 0
M  V30 6221 H 568.388 -2.83952 6.35881 0
M  V30 6222 H 566.015 -2.79841 7.06819 0
M  V30 6223 N 567.59 -1.07411 -1.15328 0
M  V30 6224 C 568.83 -0.807011 -1.87794 0
M  V30 6225 C 569.194 0.654987 -1.80482 0
M  V30 6226 O 570.395 1.03716 -2.47985 0
M  V30 6227 C 568.666 -1.30198 -3.32841 0
M  V30 6228 S 570.225 -1.16564 -4.23034 0
M  V30 6229 H 567.043 -0.292429 -0.648079 0
M  V30 6230 H 569.645 -1.37334 -1.39139 0
M  V30 6231 H 568.349 -2.3607 -3.35707 0
M  V30 6232 H 567.88 -0.730881 -3.86551 0
M  V30 6233 H 569.895 -0.103557 -4.96092 0
M  V30 6234 N 569.068 1.32177 -0.85831 0
M  V30 6235 C 569.998 2.31282 -0.321041 0
M  V30 6236 C 570.979 1.59841 0.581786 0
M  V30 6237 O 572.164 1.87619 0.501262 0
M  V30 6238 C 569.294 3.4385 0.48832 0
M  V30 6239 C 568.248 4.26799 -0.320391 0
M  V30 6240 C 567.574 5.31164 0.613934 0
M  V30 6241 C 568.874 4.98829 -1.54813 0
M  V30 6242 H 570.568 2.76469 -1.14915 0
M  V30 6243 H 568.114 1.32916 -0.554028 0
M  V30 6244 H 570.067 4.12224 0.874626 0
M  V30 6245 H 568.791 2.97401 1.34983 0
M  V30 6246 H 567.45 3.60077 -0.688497 0
M  V30 6247 H 567.098 4.80967 1.47239 0
M  V30 6248 H 566.798 5.8755 0.0768097 0
M  V30 6249 H 568.322 6.024 0.997336 0
M  V30 6250 H 569.736 5.59864 -1.23392 0
M  V30 6251 H 568.133 5.64957 -2.02346 0
M  V30 6252 H 569.203 4.26483 -2.30739 0
M  V30 6253 N 570.547 0.616602 1.45037 0
M  V30 6254 C 571.958 0.199359 1.85633 0
M  V30 6255 C 572.309 -1.24588 1.51566 0
M  V30 6256 O 571.434 -1.94594 0.94668 0
M  V30 6257 C 572.029 0.355033 3.36935 0
M  V30 6258 C 570.588 -0.00758748 3.76399 0
M  V30 6259 C 569.735 0.675256 2.68953 0
M  V30 6260 H 572.686 0.822708 1.3571 0
M  V30 6261 H 572.707 -0.410201 3.78282 0
M  V30 6262 H 572.219 1.40699 3.61698 0
M  V30 6263 H 570.32 -1.05837 3.57252 0
M  V30 6264 H 570.433 0.392346 4.77491 0
M  V30 6265 H 568.797 0.111992 2.54454 0
M  V30 6266 H 569.58 1.72952 2.96551 0
M  V30 6267 N 572.025 -1.5352 0.356285 0
M  V30 6268 C 573.436 -1.86282 -0.12492 0
M  V30 6269 C 573.787 -1.27717 -1.48939 0
M  V30 6270 O 572.912 -0.595614 -2.08042 0
M  V30 6271 C 573.507 -3.37995 -0.23345 0
M  V30 6272 C 572.066 -3.70588 -0.658899 0
M  V30 6273 C 571.213 -2.76581 0.199596 0
M  V30 6274 H 574.164 -1.47901 0.575423 0
M  V30 6275 H 574.185 -3.65475 -1.0587 0
M  V30 6276 H 573.697 -3.8059 0.759776 0
M  V30 6277 H 571.798 -3.33544 -1.66069 0
M  V30 6278 H 571.911 -4.77076 -0.439957 0
M  V30 6279 H 570.275 -2.52552 -0.330076 0
M  V30 6280 H 571.058 -3.22008 1.19019 0
M  V30 6281 N 573.503 -0.0852151 -1.57369 0
M  V30 6282 C 574.78 0.622534 -1.85429 0
M  V30 6283 C 575.16 1.86962 -0.980229 0
M  V30 6284 O 574.508 2.28445 -0.0500219 0
M  V30 6285 C 574.718 0.947374 -3.35896 0
M  V30 6286 C 576.066 1.31509 -4.03721 0
M  V30 6287 O 577.09 1.03869 -3.40719 0
M  V30 6288 O 575.949 1.83231 -5.14868 0
M  V30 6289 H 573.043 0.310513 -0.766492 0
M  V30 6290 H 575.589 -0.117164 -1.69295 0
M  V30 6291 H 574.361 0.0622264 -3.91251 0
M  V30 6292 H 573.984 1.74338 -3.5734 0
M  V30 6293 N 574.981 1.5647 0.188427 0
M  V30 6294 C 575.891 1.98285 1.2538 0
M  V30 6295 C 576.907 0.891535 1.49424 0
M  V30 6296 O 578.083 1.19782 1.61908 0
M  V30 6297 C 575.148 2.31965 2.57669 0
M  V30 6298 C 574.209 3.54838 2.41638 0
M  V30 6299 C 573.442 3.86901 3.67618 0
M  V30 6300 O 573.665 3.20163 4.72072 0
M  V30 6301 O 572.599 4.80309 3.62749 0
M  V30 6302 H 576.425 2.89145 0.928912 0
M  V30 6303 H 574.01 1.44112 0.393955 0
M  V30 6304 H 575.892 2.54673 3.35737 0
M  V30 6305 H 574.567 1.44271 2.89771 0
M  V30 6306 H 573.474 3.37369 1.61658 0
M  V30 6307 H 574.807 4.43019 2.14465 0
M  V30 6308 N 576.459 -0.456382 1.50847 0
M  V30 6309 C 577.406 -1.55249 1.70782 0
M  V30 6310 C 578.376 -1.56757 0.549231 0
M  V30 6311 O 579.561 -1.74061 0.7815 0
M  V30 6312 C 576.701 -2.93118 1.82143 0
M  V30 6313 C 575.814 -3.01285 3.09598 0
M  V30 6314 C 574.949 -4.30159 3.11667 0
M  V30 6315 C 573.988 -4.32124 4.33515 0
M  V30 6316 N 573.125 -5.52492 4.3324 0
M  V30 6317 H 577.965 -1.37555 2.64353 0
M  V30 6318 H 575.502 -0.668543 1.3103 0
M  V30 6319 H 577.46 -3.73088 1.86711 0
M  V30 6320 H 576.09 -3.09413 0.919978 0
M  V30 6321 H 575.142 -2.14096 3.14431 0
M  V30 6322 H 576.454 -2.98597 3.99551 0
M  V30 6323 H 575.608 -5.18489 3.15046 0
M  V30 6324 H 574.347 -4.35477 2.1957 0
M  V30 6325 H 573.352 -3.42189 4.30333 0
M  V30 6326 H 574.577 -4.28485 5.26856 0
M  V30 6327 H 572.523 -5.58567 3.44004 0
M  V30 6328 H 572.44 -5.51605 5.16979 0
M  V30 6329 H 573.708 -6.42906 4.40786 0
M  V30 6330 N 577.937 -1.40673 -0.710563 0
M  V30 6331 C 579.186 -1.38525 -1.46607 0
M  V30 6332 C 579.499 0.0077024 -1.95598 0
M  V30 6333 O 580.705 0.151792 -2.71075 0
M  V30 6334 C 579.161 -2.43489 -2.6503 0
M  V30 6335 C 578.769 -3.88619 -2.22888 0
M  V30 6336 C 580.513 -2.50456 -3.42742 0
M  V30 6337 C 578.42 -4.85168 -3.3818 0
M  V30 6338 H 577.35 -0.515092 -0.550632 0
M  V30 6339 H 580.001 -1.66431 -0.772846 0
M  V30 6340 H 578.383 -2.0869 -3.36548 0
M  V30 6341 H 579.557 -4.32588 -1.58758 0
M  V30 6342 H 577.872 -3.85174 -1.58208 0
M  V30 6343 H 580.469 -3.19776 -4.28541 0
M  V30 6344 H 580.812 -1.53665 -3.86902 0
M  V30 6345 H 581.345 -2.84271 -2.78271 0
M  V30 6346 H 578.084 -5.8331 -2.99047 0
M  V30 6347 H 577.604 -4.4586 -4.01209 0
M  V30 6348 H 579.283 -5.05225 -4.04174 0
M  V30 6349 N 579.415 0.9433 -1.26252 0
M  V30 6350 C 580.661 1.69175 -1.11837 0
M  V30 6351 C 580.994 1.91238 0.337891 0
M  V30 6352 O 580.269 1.49152 1.24836 0
M  V30 6353 C 580.552 3.06783 -1.88563 0
M  V30 6354 C 580.405 2.9206 -3.42083 0
M  V30 6355 C 581.724 4.06865 -1.67776 0
M  V30 6356 H 578.843 0.61399 -0.407658 0
M  V30 6357 H 581.485 1.09572 -1.55222 0
M  V30 6358 H 579.635 3.57663 -1.51689 0
M  V30 6359 H 581.307 2.48419 -3.88698 0
M  V30 6360 H 579.55 2.27731 -3.69217 0
M  V30 6361 H 580.221 3.89651 -3.90994 0
M  V30 6362 H 582.697 3.64939 -1.99897 0
M  V30 6363 H 581.573 5.01168 -2.23879 0
M  V30 6364 H 581.834 4.37705 -0.621816 0
M  V30 6365 N 580.893 1.08022 1.14757 0
M  V30 6366 C 581.803 0.718292 2.23333 0
M  V30 6367 C 582.819 -0.273477 1.71837 0
M  V30 6368 O 583.995 -0.118406 2.01052 0
M  V30 6369 C 581.06 0.128855 3.4646 0
M  V30 6370 C 580.121 1.17473 4.12915 0
M  V30 6371 C 579.354 0.61333 5.30164 0
M  V30 6372 O 579.577 -0.568458 5.6756 0
M  V30 6373 O 578.511 1.3615 5.86299 0
M  V30 6374 H 582.337 1.62394 2.56636 0
M  V30 6375 H 579.922 0.853628 1.22611 0
M  V30 6376 H 581.804 -0.197249 4.20938 0
M  V30 6377 H 580.479 -0.750014 3.14891 0
M  V30 6378 H 579.386 1.5533 3.40328 0
M  V30 6379 H 580.719 2.02574 4.48581 0
M  V30 6380 N 582.371 -1.3172 0.865308 0
M  V30 6381 C 583.619 -1.96487 0.472995 0
M  V30 6382 C 583.94 -1.68761 -0.976975 0
M  V30 6383 O 583.21 -1.00051 -1.68424 0
M  V30 6384 H 581.79 -0.726947 0.171922 0
M  V30 6385 H 584.452 -1.60612 1.10407 0
M  V30 6386 H 583.548 -3.0574 0.62687 0
M  V30 6387 N 583.85 -0.624285 -1.44708 0
M  V30 6388 C 585.099 -0.123539 -2.01321 0
M  V30 6389 C 585.412 1.25966 -1.49639 0
M  V30 6390 O 586.618 1.85405 -1.98336 0
M  V30 6391 C 585.074 -0.170124 -3.59498 0
M  V30 6392 C 584.682 -1.55421 -4.20176 0
M  V30 6393 C 586.426 0.274513 -4.23611 0
M  V30 6394 C 584.332 -1.55628 -5.70556 0
M  V30 6395 H 583.263 -0.0424183 -0.752806 0
M  V30 6396 H 585.913 -0.782076 -1.65999 0
M  V30 6397 H 584.296 0.555385 -3.92086 0
M  V30 6398 H 585.47 -2.30276 -3.99136 0
M  V30 6399 H 583.784 -1.94235 -3.68323 0
M  V30 6400 H 586.382 0.292402 -5.339 0
M  V30 6401 H 586.725 1.3005 -3.95465 0
M  V30 6402 H 587.258 -0.398275 -3.95801 0
M  V30 6403 H 583.997 -2.56041 -6.03426 0
M  V30 6404 H 583.517 -0.850563 -5.93739 0
M  V30 6405 H 585.196 -1.28721 -6.34066 0
M  V30 6406 N 585.328 1.53329 -0.364422 0
M  V30 6407 C 586.275 2.25698 0.482607 0
M  V30 6408 C 587.245 1.26325 1.07848 0
M  V30 6409 O 588.43 1.55104 1.11119 0
M  V30 6410 C 585.57 3.04873 1.61699 0
M  V30 6411 C 584.683 4.19135 1.0464 0
M  V30 6412 C 583.818 4.85754 2.14979 0
M  V30 6413 C 582.857 5.9205 1.5538 0
M  V30 6414 N 581.994 6.52365 2.59547 0
M  V30 6415 H 586.834 2.97666 -0.141032 0
M  V30 6416 H 584.371 1.46875 -0.0813692 0
M  V30 6417 H 586.329 3.49051 2.28516 0
M  V30 6418 H 584.959 2.35162 2.2113 0
M  V30 6419 H 584.011 3.79451 0.268553 0
M  V30 6420 H 585.323 4.95525 0.570653 0
M  V30 6421 H 584.477 5.3311 2.89619 0
M  V30 6422 H 583.216 4.08834 2.65906 0
M  V30 6423 H 582.221 5.44058 0.792549 0
M  V30 6424 H 583.446 6.7089 1.0528 0
M  V30 6425 H 581.392 5.78298 3.09689 0
M  V30 6426 H 581.309 7.2429 2.16655 0
M  V30 6427 H 582.577 7.0437 3.33892 0
M  V30 6428 N 586.806 0.0935595 1.57322 0
M  V30 6429 C 588.222 -0.263091 1.57417 0
M  V30 6430 C 588.422 -1.68526 1.1046 0
M  V30 6431 O 587.478 -2.40139 0.780357 0
M  V30 6432 C 588.791 -0.0529201 3.00653 0
M  V30 6433 C 590.339 -0.120788 3.12767 0
M  V30 6434 C 590.814 0.0613707 4.57959 0
M  V30 6435 N 592.305 0.00648534 4.632 0
M  V30 6436 C 593.04 0.122699 5.73269 0
M  V30 6437 N 592.536 0.29366 6.92177 0
M  V30 6438 N 594.329 0.0640787 5.62063 0
M  V30 6439 H 586.48 1.02277 1.86154 0
M  V30 6440 H 588.743 0.4007 0.859153 0
M  V30 6441 H 588.449 0.929279 3.39201 0
M  V30 6442 H 588.323 -0.795899 3.68708 0
M  V30 6443 H 590.71 -1.09349 2.74093 0
M  V30 6444 H 590.791 0.653656 2.47307 0
M  V30 6445 H 590.435 1.03093 4.97327 0
M  V30 6446 H 590.365 -0.732748 5.21477 0
M  V30 6447 H 592.856 -0.123173 3.77699 0
M  V30 6448 H 593.169 0.37389 7.71895 0
M  V30 6449 H 591.514 0.329307 6.94219 0
M  V30 6450 H 594.705 -0.0683396 4.6805 0
M  V30 6451 H 594.878 0.158097 6.47807 0
M  V30 6452 N 588.284 -1.56567 -0.180126 0
M  V30 6453 C 589.214 -1.98753 -1.22553 0
M  V30 6454 C 590.195 -0.86175 -1.46656 0
M  V30 6455 O 591.38 -1.12719 -1.58139 0
M  V30 6456 C 588.51 -2.33988 -2.56645 0
M  V30 6457 C 587.464 -3.49445 -2.47128 0
M  V30 6458 C 586.79 -3.70397 -3.8563 0
M  V30 6459 C 588.09 -4.83171 -1.98352 0
M  V30 6460 H 589.784 -2.86332 -0.874896 0
M  V30 6461 H 587.33 -1.37757 -0.419414 0
M  V30 6462 H 589.283 -2.62097 -3.29974 0
M  V30 6463 H 588.007 -1.43309 -2.93479 0
M  V30 6464 H 586.666 -3.2145 -1.76254 0
M  V30 6465 H 586.314 -2.77023 -4.19842 0
M  V30 6466 H 586.014 -4.48077 -3.80132 0
M  V30 6467 H 587.538 -4.00897 -4.60558 0
M  V30 6468 H 588.952 -5.10213 -2.61449 0
M  V30 6469 H 587.349 -5.64425 -2.03823 0
M  V30 6470 H 588.419 -4.75753 -0.937402 0
M  V30 6471 N 589.762 0.448376 -1.51087 0
M  V30 6472 C 591.178 0.783984 -1.39017 0
M  V30 6473 C 591.378 1.96087 -0.463904 0
M  V30 6474 O 590.434 2.52357 0.0850534 0
M  V30 6475 C 591.747 1.07471 -2.80839 0
M  V30 6476 C 593.295 1.17981 -2.89913 0
M  V30 6477 C 593.77 1.50354 -4.32617 0
M  V30 6478 N 595.261 1.57301 -4.35673 0
M  V30 6479 C 595.996 1.839 -5.4311 0
M  V30 6480 N 595.492 2.08365 -6.60724 0
M  V30 6481 N 597.285 1.8559 -5.30578 0
M  V30 6482 H 589.436 -0.326881 -2.0987 0
M  V30 6483 H 591.699 -0.0838006 -0.944289 0
M  V30 6484 H 591.405 0.282768 -3.50561 0
M  V30 6485 H 591.279 2.00519 -3.19487 0
M  V30 6486 H 593.666 1.9624 -2.20395 0
M  V30 6487 H 593.747 0.228603 -2.54776 0
M  V30 6488 H 593.391 0.726273 -5.0268 0
M  V30 6489 H 593.321 2.46663 -4.65258 0
M  V30 6490 H 595.812 1.40342 -3.50874 0
M  V30 6491 H 596.125 2.27999 -7.38401 0
M  V30 6492 H 594.47 2.0571 -6.63859 0
M  V30 6493 H 597.661 1.65989 -4.37682 0
M  V30 6494 H 597.834 2.05983 -6.1439 0
M  V30 6495 N 591.24 1.41047 0.703093 0
M  V30 6496 C 592.15 1.44645 1.84703 0
M  V30 6497 C 593.166 0.337778 1.7069 0
M  V30 6498 O 594.342 0.584327 1.92737 0
M  V30 6499 C 591.407 1.31928 3.20618 0
M  V30 6500 C 590.468 2.53047 3.46794 0
M  V30 6501 C 589.701 2.40927 4.76224 0
M  V30 6502 O 589.924 1.42978 5.5219 0
M  V30 6503 O 588.858 3.30543 5.03016 0
M  V30 6504 H 592.684 2.41139 1.84624 0
M  V30 6505 H 590.269 1.22504 0.855167 0
M  V30 6506 H 592.151 1.27092 4.01778 0
M  V30 6507 H 590.826 0.385469 3.21397 0
M  V30 6508 H 589.733 2.6346 2.65593 0
M  V30 6509 H 591.066 3.45231 3.50822 0
M  V30 6510 N 592.718 -0.936591 1.26751 0
M  V30 6511 C 593.964 -1.6858 1.12733 0
M  V30 6512 C 594.297 -1.91414 -0.327745 0
M  V30 6513 O 593.572 -1.49812 -1.24043 0
M  V30 6514 C 593.855 -3.05779 1.90187 0
M  V30 6515 C 593.708 -2.90242 3.43627 0
M  V30 6516 C 595.027 -4.0597 1.69931 0
M  V30 6517 H 592.146 -0.61182 0.410908 0
M  V30 6518 H 594.788 -1.08747 1.55801 0
M  V30 6519 H 592.938 -3.56853 1.53584 0
M  V30 6520 H 594.61 -2.46354 3.9001 0
M  V30 6521 H 592.853 -2.2577 3.70419 0
M  V30 6522 H 593.524 -3.87572 3.93055 0
M  V30 6523 H 596 -3.63874 2.0183 0
M  V30 6524 H 594.876 -4.99974 2.26534 0
M  V30 6525 H 595.137 -4.37369 0.64502 0
M  V30 6526 N 594.196 -1.08629 -1.14182 0
M  V30 6527 C 595.442 -0.818556 -1.85546 0
M  V30 6528 C 595.775 0.654076 -1.82854 0
M  V30 6529 O 595.05 1.48099 -1.26083 0
M  V30 6530 C 595.333 -1.34397 -3.3408 0
M  V30 6531 C 595.186 -2.8821 -3.45333 0
M  V30 6532 C 596.505 -0.971069 -4.29253 0
M  V30 6533 H 593.624 -0.298821 -0.673702 0
M  V30 6534 H 596.266 -1.34629 -1.34071 0
M  V30 6535 H 594.416 -0.895064 -3.78049 0
M  V30 6536 H 596.088 -3.41488 -3.10134 0
M  V30 6537 H 594.331 -3.25756 -2.86471 0
M  V30 6538 H 595.002 -3.20047 -4.49749 0
M  V30 6539 H 597.478 -1.35809 -3.93313 0
M  V30 6540 H 596.354 -1.36586 -5.31635 0
M  V30 6541 H 596.615 0.121659 -4.41933 0
M  V30 6542 N 595.674 1.31259 -0.872281 0
M  V30 6543 C 596.604 2.30929 -0.345554 0
M  V30 6544 C 597.585 1.60449 0.5648 0
M  V30 6545 O 598.77 1.8814 0.481335 0
M  V30 6546 C 595.9 3.44348 0.451823 0
M  V30 6547 C 594.854 4.26435 -0.365641 0
M  V30 6548 C 594.18 5.31785 0.557562 0
M  V30 6549 C 595.48 4.97159 -1.60095 0
M  V30 6550 H 597.174 2.75234 -1.17841 0
M  V30 6551 H 594.72 1.3232 -0.568094 0
M  V30 6552 H 596.673 4.13128 0.830854 0
M  V30 6553 H 595.397 2.98816 1.31821 0
M  V30 6554 H 594.056 3.59326 -0.726649 0
M  V30 6555 H 593.704 4.82502 1.4213 0
M  V30 6556 H 593.404 5.87598 0.0144878 0
M  V30 6557 H 594.928 6.03424 0.933387 0
M  V30 6558 H 596.342 5.58523 -1.29323 0
M  V30 6559 H 594.739 5.62779 -2.08327 0
M  V30 6560 H 595.809 4.24012 -2.35249 0
M  V30 6561 N 597.152 0.631951 1.44375 0
M  V30 6562 C 598.062 -0.073674 2.34484 0
M  V30 6563 C 599.078 -0.834825 1.52665 0
M  V30 6564 O 600.254 -0.786902 1.85391 0
M  V30 6565 C 597.319 -1.04247 3.30656 0
M  V30 6566 C 596.38 -0.280602 4.28382 0
M  V30 6567 C 595.613 -1.20325 5.19959 0
M  V30 6568 O 595.836 -2.44199 5.15484 0
M  V30 6569 O 594.77 -0.687128 5.97965 0
M  V30 6570 H 598.596 0.667477 2.96274 0
M  V30 6571 H 596.181 0.392144 1.44162 0
M  V30 6572 H 598.063 -1.59981 3.89851 0
M  V30 6573 H 596.738 -1.76422 2.71398 0
M  V30 6574 H 595.645 0.319804 3.72731 0
M  V30 6575 H 596.978 0.401144 4.90563 0
M  V30 6576 N 598.631 -1.53133 0.372548 0
M  V30 6577 C 599.861 -2.05476 -0.215202 0
M  V30 6578 C 600.269 -1.24534 -1.42436 0
M  V30 6579 O 599.612 -0.280771 -1.81542 0
M  V30 6580 C 599.674 -3.53276 -0.666068 0
M  V30 6581 C 599.338 -4.54998 0.427342 0
M  V30 6582 C 600.335 -5.03911 1.27944 0
M  V30 6583 C 598.02 -4.98828 0.589579 0
M  V30 6584 C 600.014 -5.95263 2.27905 0
M  V30 6585 C 597.701 -5.89984 1.59255 0
M  V30 6586 C 598.699 -6.38093 2.43571 0
M  V30 6587 O 598.387 -7.27451 3.42156 0
M  V30 6588 H 598.119 -0.67481 -0.040099 0
M  V30 6589 H 600.673 -1.98409 0.531312 0
M  V30 6590 H 598.903 -3.57904 -1.4643 0
M  V30 6591 H 600.592 -3.88442 -1.1776 0
M  V30 6592 H 601.358 -4.70792 1.16532 0
M  V30 6593 H 597.237 -4.60965 -0.0569456 0
M  V30 6594 H 600.781 -6.32736 2.93753 0
M  V30 6595 H 596.678 -6.22518 1.70711 0
M  V30 6596 H 597.446 -7.45467 3.37967 0
M  V30 6597 N 600.109 -0.101901 -1.5727 0
M  V30 6598 C 601.357 0.559091 -1.94213 0
M  V30 6599 C 601.678 1.68297 -0.984948 0
M  V30 6600 O 600.948 1.95863 -0.0381975 0
M  V30 6601 H 599.528 0.20952 -0.717015 0
M  V30 6602 H 602.19 -0.166831 -1.94185 0
M  V30 6603 H 601.286 0.96485 -2.96811 0
M  V30 6604 N 601.587 1.56661 0.17182 0
M  V30 6605 C 602.534 1.96371 1.21273 0
M  V30 6606 C 603.504 0.82756 1.44016 0
M  V30 6607 O 604.689 1.08764 1.56764 0
M  V30 6608 C 601.829 2.32838 2.54716 0
M  V30 6609 C 600.942 3.59628 2.39356 0
M  V30 6610 C 600.077 3.85311 3.65662 0
M  V30 6611 C 599.116 5.0545 3.45234 0
M  V30 6612 N 598.253 5.27268 4.63608 0
M  V30 6613 H 603.093 2.85106 0.86709 0
M  V30 6614 H 600.63 1.41073 0.416744 0
M  V30 6615 H 602.588 2.52004 3.3249 0
M  V30 6616 H 601.218 1.47214 2.87277 0
M  V30 6617 H 600.27 3.4838 1.52761 0
M  V30 6618 H 601.582 4.4756 2.20207 0
M  V30 6619 H 600.736 4.04841 4.51872 0
M  V30 6620 H 599.475 2.95753 3.8779 0
M  V30 6621 H 598.48 4.85819 2.5741 0
M  V30 6622 H 599.705 5.96538 3.24529 0
M  V30 6623 H 597.651 4.40662 4.85956 0
M  V30 6624 H 597.568 6.09422 4.4737 0
M  V30 6625 H 598.836 5.51277 5.51103 0
M  V30 6626 N 603.065 -0.440357 1.51323 0
M  V30 6627 C 603.975 -1.55955 1.75258 0
M  V30 6628 C 604.991 -1.61933 0.636687 0
M  V30 6629 O 606.167 -1.79231 0.918593 0
M  V30 6630 C 603.232 -2.9196 1.86977 0
M  V30 6631 C 602.293 -2.96122 3.10822 0
M  V30 6632 C 601.526 -4.2564 3.21973 0
M  V30 6633 O 601.749 -5.17851 2.39137 0
M  V30 6634 O 600.683 -4.36025 4.14929 0
M  V30 6635 H 604.509 -1.38673 2.70191 0
M  V30 6636 H 602.094 -0.623055 1.35788 0
M  V30 6637 H 603.976 -3.72682 1.96688 0
M  V30 6638 H 602.651 -3.09375 0.952307 0
M  V30 6639 H 601.558 -2.14366 3.06591 0
M  V30 6640 H 602.891 -2.83651 4.02247 0
M  V30 6641 N 604.543 -1.41418 -0.695603 0
M  V30 6642 C 605.49 -1.43264 -1.80954 0
M  V30 6643 C 606.46 -0.287016 -1.63601 0
M  V30 6644 O 607.645 -0.488054 -1.84452 0
M  V30 6645 C 604.785 -1.32054 -3.18835 0
M  V30 6646 C 603.898 -2.56485 -3.4762 0
M  V30 6647 C 603.033 -2.3757 -4.75115 0
M  V30 6648 C 602.072 -3.57477 -4.96867 0
M  V30 6649 N 601.209 -3.37632 -6.15588 0
M  V30 6650 H 606.049 -2.38467 -1.78711 0
M  V30 6651 H 603.586 -1.18415 -0.872715 0
M  V30 6652 H 605.544 -1.23558 -3.98484 0
M  V30 6653 H 604.174 -0.404592 -3.20254 0
M  V30 6654 H 603.226 -2.75432 -2.62376 0
M  V30 6655 H 604.538 -3.45678 -3.59594 0
M  V30 6656 H 603.692 -2.2654 -5.62818 0
M  V30 6657 H 602.431 -1.45834 -4.65386 0
M  V30 6658 H 601.436 -3.68961 -4.07612 0
M  V30 6659 H 602.661 -4.50167 -5.08455 0
M  V30 6660 H 600.607 -2.48596 -6.07072 0
M  V30 6661 H 600.524 -4.20401 -6.2833 0
M  V30 6662 H 601.792 -3.30375 -7.06026 0
M  V30 6663 N 606.021 0.929856 -1.27246 0
M  V30 6664 C 606.971 2.01629 -1.06442 0
M  V30 6665 C 607.955 1.60899 0.00687842 0
M  V30 6666 O 609.147 1.75733 -0.211407 0
M  V30 6667 C 606.276 3.35849 -0.711361 0
M  V30 6668 C 605.362 3.8303 -1.82069 0
M  V30 6669 N 605.753 4.02743 -3.05993 0
M  V30 6670 C 604.051 4.12046 -1.70687 0
M  V30 6671 C 604.752 4.42001 -3.78167 0
M  V30 6672 N 603.728 4.4935 -3.05918 0
M  V30 6673 H 607.53 2.14898 -2.00489 0
M  V30 6674 H 605.044 1.11654 -1.17929 0
M  V30 6675 H 607.041 4.13343 -0.543442 0
M  V30 6676 H 605.701 3.23944 0.221517 0
M  V30 6677 H 606.712 3.89112 -3.41778 0
M  V30 6678 H 603.389 4.08866 -0.844681 0
M  V30 6679 H 604.779 4.6535 -4.84664 0
M  V30 6680 N 607.499 1.09233 1.13605 0
M  V30 6681 C 608.429 0.751738 2.21068 0
M  V30 6682 C 609.41 -0.269688 1.67948 0
M  V30 6683 O 610.595 -0.13819 1.93708 0
M  V30 6684 C 607.725 0.16935 3.46887 0
M  V30 6685 C 606.679 1.12007 4.13084 0
M  V30 6686 C 606.005 0.399483 5.33206 0
M  V30 6687 C 607.305 2.46168 4.6065 0
M  V30 6688 H 608.999 1.65024 2.49815 0
M  V30 6689 H 606.545 0.794905 1.20072 0
M  V30 6690 H 608.498 -0.0809824 4.21322 0
M  V30 6691 H 607.222 -0.764335 3.1753 0
M  V30 6692 H 605.881 1.35564 3.40614 0
M  V30 6693 H 605.529 -0.538277 5.00112 0
M  V30 6694 H 605.229 1.03337 5.78442 0
M  V30 6695 H 606.753 0.157403 6.10397 0
M  V30 6696 H 608.167 2.26829 5.26518 0
M  V30 6697 H 606.564 3.05326 5.1662 0
M  V30 6698 H 607.634 3.07076 3.75276 0
M  V30 6699 N 608.977 -1.30795 0.87923 0
M  V30 6700 C 609.907 -2.30742 0.357796 0
M  V30 6701 C 610.888 -1.60747 -0.556283 0
M  V30 6702 O 612.073 -1.88393 -0.47135 0
M  V30 6703 C 609.203 -3.44583 -0.433555 0
M  V30 6704 C 608.157 -4.26235 0.388251 0
M  V30 6705 C 607.483 -5.32073 -0.529352 0
M  V30 6706 C 608.783 -4.96303 1.62729 0
M  V30 6707 H 610.477 -2.74605 1.19299 0
M  V30 6708 H 608.023 -1.32017 0.575104 0
M  V30 6709 H 609.976 -4.13563 -0.808934 0
M  V30 6710 H 608.7 -2.99511 -1.30234 0
M  V30 6711 H 607.359 -3.58936 0.745695 0
M  V30 6712 H 607.007 -4.83249 -1.39569 0
M  V30 6713 H 606.707 -5.87598 0.0166741 0
M  V30 6714 H 608.231 -6.0391 -0.901373 0
M  V30 6715 H 609.645 -5.5783 1.32283 0
M  V30 6716 H 608.042 -5.61666 2.11309 0
M  V30 6717 H 609.112 -4.22758 2.37494 0
M  V30 6718 O 610.494 -0.779418 -1.41447 0
M  V30 6719 H 611.185 -0.346083 -1.90583 0
M  V30 END ATOM
M  V30 BEGIN BOND
M  V30 END BOND
M  V30 END CTAB
M  END
$$$$
