drugbank_target|Q9X1F0 Glycerol uptake operon antiterminator regulatory protein (DB04272)
 OpenBabel12092120293D

  0  0  0     0  0            999 V3000
M  V30 BEGIN CTAB
M  V30 COUNTS 2807 2829 0 0 0
M  V30 BEGIN ATOM
M  V30 1 H -0.908 1.98254 -0.117106 0
M  V30 2 N 0 1.576 0 0
M  V30 3 C 0.933 2.03868 1.02534 0
M  V30 4 C 1.911 0.928543 1.3348 0
M  V30 5 O 3.095 1.19667 1.45644 0
M  V30 6 C 0.222 2.43627 2.35294 0
M  V30 7 C -0.732 3.65373 2.2001 0
M  V30 8 S 0.101 5.13292 1.52614 0
M  V30 9 C 1.257 5.56322 2.86805 0
M  V30 10 H 1.49 2.90518 0.631377 0
M  V30 11 H -0.977 1.52953 0.210867 0
M  V30 12 H 0.981 2.67203 3.11629 0
M  V30 13 H -0.358 1.57376 2.7183 0
M  V30 14 H -1.165 3.90944 3.18086 0
M  V30 15 H -1.563 3.418 1.51819 0
M  V30 16 H 0.729 5.58782 3.83104 0
M  V30 17 H 1.672 6.56266 2.65933 0
M  V30 18 H 2.08 4.83886 2.90714 0
M  V30 19 N 1.4781 -0.272755 1.55222 0
M  V30 20 C 2.7251 -1.00433 1.7584 0
M  V30 21 C 3.0531 -1.86275 0.559629 0
M  V30 22 O 2.3081 -1.90269 -0.457857 0
M  V30 23 C 2.6071 -1.91642 3.01675 0
M  V30 24 C 2.2731 -1.21548 4.34208 0
M  V30 25 C 0.9351 -1.02166 4.70229 0
M  V30 26 C 3.2871 -0.716684 5.16249 0
M  V30 27 C 0.6151 -0.316334 5.85847 0
M  V30 28 C 2.9671 -0.0249476 6.32595 0
M  V30 29 C 1.6311 0.180579 6.67256 0
M  V30 30 H 0.9011 -0.367509 0.643443 0
M  V30 31 H 3.5481 -0.276596 1.89492 0
M  V30 32 H 1.8531 -2.71037 2.82924 0
M  V30 33 H 3.5501 -2.48369 3.14824 0
M  V30 34 H 0.1401 -1.37645 4.05896 0
M  V30 35 H 4.3241 -0.854047 4.88896 0
M  V30 36 H -0.4199 -0.146378 6.11225 0
M  V30 37 H 3.7541 0.369311 6.9542 0
M  V30 38 H 1.3811 0.729098 7.56696 0
M  V30 39 N 2.9562 -1.48159 -0.537278 0
M  V30 40 C 3.9032 -1.62138 -1.64256 0
M  V30 41 C 4.8732 -0.463668 -1.59497 0
M  V30 42 O 6.0582 -0.686241 -1.78032 0
M  V30 43 C 3.1982 -1.66028 -3.02537 0
M  V30 44 C 2.3112 -2.92855 -3.17585 0
M  V30 45 C 1.4462 -2.87952 -4.46382 0
M  V30 46 C 0.4852 -4.09516 -4.54932 0
M  V30 47 N -0.3778 -4.02733 -5.75109 0
M  V30 48 H 4.4622 -2.56529 -1.51647 0
M  V30 49 H 1.9992 -1.27224 -0.738414 0
M  V30 50 H 3.9572 -1.66265 -3.82638 0
M  V30 51 H 2.5872 -0.751331 -3.13934 0
M  V30 52 H 1.6392 -3.02395 -2.30784 0
M  V30 53 H 2.9512 -3.82822 -3.19764 0
M  V30 54 H 2.1052 -2.8655 -5.34765 0
M  V30 55 H 0.8442 -1.95702 -4.46712 0
M  V30 56 H -0.1508 -4.11201 -3.64957 0
M  V30 57 H 1.0742 -5.02917 -4.56346 0
M  V30 58 H -0.9798 -3.13299 -5.76351 0
M  V30 59 H -1.0628 -4.86397 -5.78752 0
M  V30 60 H 0.2052 -4.05379 -6.65799 0
M  V30 61 N 4.4343 0.785586 -1.36625 0
M  V30 62 C 5.6823 1.54057 -1.30808 0
M  V30 63 C 6.0033 1.94683 0.111157 0
M  V30 64 O 5.2733 1.65241 1.05224 0
M  V30 65 H 3.8533 0.571354 -0.481211 0
M  V30 66 H 6.5153 0.935821 -1.70963 0
M  V30 67 H 5.6113 2.44637 -1.93801 0
M  V30 68 N 5.9124 1.20967 1.01018 0
M  V30 69 C 7.1614 1.01796 1.74128 0
M  V30 70 C 7.4744 -0.449691 1.90361 0
M  V30 71 O 8.6804 -0.76068 2.60626 0
M  V30 72 C 7.1364 1.7727 3.13215 0
M  V30 73 C 6.7444 3.28171 3.04972 0
M  V30 74 C 8.4884 1.66489 3.90489 0
M  V30 75 C 6.3954 3.96156 4.39107 0
M  V30 76 H 5.3254 0.377276 0.652824 0
M  V30 77 H 7.9764 1.44651 1.12909 0
M  V30 78 H 6.3584 1.27205 3.75013 0
M  V30 79 H 7.5324 3.85499 2.52443 0
M  V30 80 H 5.8474 3.39437 2.41188 0
M  V30 81 H 8.4444 2.14617 4.89738 0
M  V30 82 H 8.7874 0.6222 4.11624 0
M  V30 83 H 9.3204 2.14003 3.35332 0
M  V30 84 H 6.0594 5.00604 4.23174 0
M  V30 85 H 5.5794 3.43617 4.91617 0
M  V30 86 H 7.2584 4.00774 5.07926 0
M  V30 87 N 7.3905 -1.2043 1.01659 0
M  V30 88 C 8.6395 -1.89118 0.701237 0
M  V30 89 C 8.9525 -1.79705 -0.772358 0
M  V30 90 O 10.1585 -2.43528 -1.20026 0
M  V30 91 C 8.6145 -3.39168 1.20388 0
M  V30 92 C 8.2225 -3.57166 2.70438 0
M  V30 93 C 9.9665 -4.1341 0.963953 0
M  V30 94 C 7.8735 -5.01042 3.14183 0
M  V30 95 H 6.8035 -0.708267 0.2586 0
M  V30 96 H 9.4545 -1.36239 1.22927 0
M  V30 97 H 7.8365 -3.91369 0.603824 0
M  V30 98 H 9.0105 -3.15351 3.35992 0
M  V30 99 H 7.3255 -2.96294 2.92572 0
M  V30 100 H 9.9225 -5.19491 1.26621 0
M  V30 101 H 10.2655 -4.16181 -0.099578 0
M  V30 102 H 10.7985 -3.67309 1.52738 0
M  V30 103 H 7.5375 -5.03426 4.19812 0
M  V30 104 H 7.0575 -5.43668 2.53348 0
M  V30 105 H 8.7365 -5.69623 3.0682 0
M  V30 106 N 8.8686 -0.792821 -1.36206 0
M  V30 107 C 9.8316 -0.199459 -2.2833 0
M  V30 108 C 10.8316 0.605189 -1.48977 0
M  V30 109 O 12.0216 0.425685 -1.68919 0
M  V30 110 C 9.1536 0.723523 -3.33134 0
M  V30 111 H 10.3466 -1.01181 -2.82316 0
M  V30 112 H 7.8996 -0.562485 -1.45828 0
M  V30 113 H 8.6346 1.56008 -2.84309 0
M  V30 114 H 8.4196 0.148436 -3.91819 0
M  V30 115 H 9.9096 1.13344 -4.01924 0
M  V30 116 N 10.3467 1.47872 -0.545128 0
M  V30 117 C 11.3097 2.28337 0.198717 0
M  V30 118 C 12.3097 1.36255 0.853888 0
M  V30 119 O 13.4997 1.59003 0.711606 0
M  V30 120 C 10.6317 3.15585 1.28915 0
M  V30 121 H 11.8247 2.95567 -0.507941 0
M  V30 122 H 9.3777 1.53362 -0.301616 0
M  V30 123 H 10.1127 2.53019 2.02859 0
M  V30 124 H 9.8977 3.83337 0.824309 0
M  V30 125 H 11.3877 3.76243 1.81194 0
M  V30 126 N 11.8248 0.280983 1.55075 0
M  V30 127 C 12.7548 -0.597469 2.25727 0
M  V30 128 C 13.7358 -1.15417 1.24952 0
M  V30 129 O 14.9208 -1.18722 1.53684 0
M  V30 130 C 12.0508 -1.7789 2.98283 0
M  V30 131 C 11.0048 -1.35347 4.06036 0
M  V30 132 C 10.3308 -2.61846 4.66198 0
M  V30 133 C 11.6308 -0.499354 5.19907 0
M  V30 134 H 13.3248 -0.00824265 2.99399 0
M  V30 135 H 10.8708 -0.0025244 1.44 0
M  V30 136 H 12.8238 -2.39937 3.46422 0
M  V30 137 H 11.5478 -2.39405 2.22155 0
M  V30 138 H 10.2068 -0.756156 3.58717 0
M  V30 139 H 9.8548 -3.21632 3.86732 0
M  V30 140 H 9.5548 -2.3409 5.38958 0
M  V30 141 H 11.0788 -3.24732 5.1709 0
M  V30 142 H 12.4928 -1.02498 5.64063 0
M  V30 143 H 10.8898 -0.316424 5.99265 0
M  V30 144 H 11.9598 0.480459 4.82514 0
M  V30 145 N 13.3029 -1.57598 0.00835791 0
M  V30 146 C 14.5489 -1.92046 -0.670055 0
M  V30 147 C 14.9039 -0.88351 -1.70915 0
M  V30 148 O 14.1969 0.103223 -1.91322 0
M  V30 149 C 14.3909 -3.3101 -1.34787 0
M  V30 150 C 14.2199 -4.48126 -0.375945 0
M  V30 151 C 12.9899 -5.05297 0.0166914 0
M  V30 152 C 15.1879 -5.1303 0.361272 0
M  V30 153 N 13.1699 -6.05931 0.985952 0
M  V30 154 C 14.5409 -6.08571 1.18495 0
M  V30 155 C 16.5959 -4.9609 0.42421 0
M  V30 156 C 15.2989 -6.88996 2.06584 0
M  V30 157 C 17.3249 -5.77107 1.29236 0
M  V30 158 C 16.6869 -6.72248 2.10386 0
M  V30 159 H 12.7859 -0.75096 -0.218136 0
M  V30 160 H 15.3699 -1.94572 0.0706669 0
M  V30 161 H 13.5409 -3.29342 -2.05884 0
M  V30 162 H 15.2729 -3.52864 -1.98164 0
M  V30 163 H 12.0279 -4.72279 -0.353435 0
M  V30 164 H 12.4519 -6.60932 1.4662 0
M  V30 165 H 17.0939 -4.22378 -0.188915 0
M  V30 166 H 14.8119 -7.62028 2.6896 0
M  V30 167 H 18.3979 -5.66038 1.34508 0
M  V30 168 H 17.2779 -7.33846 2.76476 0
M  V30 169 N 14.781 0.264519 -1.55364 0
M  V30 170 C 16.058 1.01677 -1.67096 0
M  V30 171 C 16.438 2.03996 -0.543015 0
M  V30 172 O 15.786 2.23907 0.45585 0
M  V30 173 C 15.996 1.66596 -3.0667 0
M  V30 174 C 17.344 2.17442 -3.64697 0
M  V30 175 O 18.368 1.76568 -3.09358 0
M  V30 176 O 17.227 2.92439 -4.61673 0
M  V30 177 H 14.321 0.472161 -0.678965 0
M  V30 178 H 16.867 0.259703 -1.67701 0
M  V30 179 H 15.639 0.924962 -3.80211 0
M  V30 180 H 15.262 2.48968 -3.10001 0
M  V30 181 N 16.2591 1.48442 0.529413 0
M  V30 182 C 17.1921 1.57577 1.65059 0
M  V30 183 C 18.1701 0.426198 1.56915 0
M  V30 184 O 19.3541 0.637877 1.77379 0
M  V30 185 C 16.4811 1.5043 3.03461 0
M  V30 186 C 15.5271 2.70235 3.29962 0
M  V30 187 S 16.3601 4.32198 3.16172 0
M  V30 188 C 17.5161 4.2765 4.57019 0
M  V30 189 H 17.7491 2.52427 1.5706 0
M  V30 190 H 15.2821 1.36982 0.712417 0
M  V30 191 H 17.2401 1.46992 3.8328 0
M  V30 192 H 15.9011 0.569167 3.089 0
M  V30 193 H 15.0941 2.61374 4.30929 0
M  V30 194 H 14.6961 2.70938 2.57815 0
M  V30 195 H 16.9881 3.97618 5.48549 0
M  V30 196 H 17.9311 5.28797 4.70934 0
M  V30 197 H 18.3391 3.5811 4.36368 0
M  V30 198 N 17.7372 -0.778329 1.37039 0
M  V30 199 C 19.0142 -1.52551 1.22424 0
M  V30 200 C 19.3942 -2.10288 -0.184964 0
M  V30 201 O 18.7422 -1.94953 -1.19187 0
M  V30 202 C 18.9522 -2.61164 2.31504 0
M  V30 203 C 20.3002 -3.28746 2.68721 0
M  V30 204 O 21.3242 -2.71455 2.30631 0
M  V30 205 O 20.1832 -4.3231 3.3432 0
M  V30 206 H 17.2772 -0.675343 0.477326 0
M  V30 207 H 19.8232 -0.815859 1.48801 0
M  V30 208 H 18.5952 -2.16574 3.25901 0
M  V30 209 H 18.2182 -3.39737 2.06554 0
M  V30 210 N 19.2153 -1.21501 -1.00376 0
M  V30 211 C 20.4403 -1.05977 -1.78279 0
M  V30 212 C 20.8653 0.385994 -1.84097 0
M  V30 213 O 20.2233 1.27849 -1.28547 0
M  V30 214 C 20.2713 -1.66302 -3.19963 0
M  V30 215 O 19.3753 -0.909333 -4.0225 0
M  V30 216 H 18.7163 -0.372906 -0.549397 0
M  V30 217 H 21.2463 -1.6107 -1.26165 0
M  V30 218 H 21.2563 -1.70574 -3.70632 0
M  V30 219 H 19.9313 -2.71515 -3.15043 0
M  V30 220 H 18.5083 -0.941795 -3.60811 0
M  V30 221 N 20.6934 1.19889 -1.02296 0
M  V30 222 C 21.9424 1.88743 -0.711257 0
M  V30 223 C 22.2554 1.80112 0.762817 0
M  V30 224 O 23.4614 2.44161 1.18733 0
M  V30 225 C 21.9174 3.38525 -1.22185 0
M  V30 226 C 21.5254 3.55727 -2.72328 0
M  V30 227 C 23.2694 4.12893 -0.985864 0
M  V30 228 C 21.1764 4.99369 -3.16835 0
M  V30 229 H 20.1064 0.706885 -0.262353 0
M  V30 230 H 22.7574 1.35586 -1.23648 0
M  V30 231 H 21.1394 3.91044 -0.624571 0
M  V30 232 H 22.3134 3.13564 -3.3766 0
M  V30 233 H 20.6284 2.94739 -2.9414 0
M  V30 234 H 23.2254 5.18813 -1.29374 0
M  V30 235 H 23.5684 4.16228 0.0775055 0
M  V30 236 H 24.1014 3.66494 -1.54684 0
M  V30 237 H 20.8404 5.01193 -4.22476 0
M  V30 238 H 20.3604 5.42317 -2.56228 0
M  V30 239 H 22.0394 5.67988 -3.09837 0
M  V30 240 N 22.1715 0.800033 1.35784 0
M  V30 241 C 23.4195 0.376597 1.9856 0
M  V30 242 C 23.7405 -1.05812 1.63795 0
M  V30 243 O 23.0105 -1.73103 0.917171 0
M  V30 244 H 21.5905 0.136261 0.734467 0
M  V30 245 H 24.2525 1.02442 1.65806 0
M  V30 246 H 23.3485 0.477002 3.08433 0
M  V30 247 N 23.6496 -1.47581 0.552962 0
M  V30 248 C 24.5596 -2.33743 -0.200353 0
M  V30 249 C 25.5756 -1.47928 -0.916151 0
M  V30 250 O 26.7516 -1.80865 -0.885993 0
M  V30 251 C 23.8166 -3.24536 -1.21973 0
M  V30 252 C 22.8776 -4.26238 -0.511819 0
M  V30 253 C 22.1106 -5.12693 -1.48263 0
M  V30 254 O 22.3336 -5.01525 -2.71714 0
M  V30 255 O 21.2676 -5.93375 -1.00945 0
M  V30 256 H 25.0936 -2.9945 0.506304 0
M  V30 257 H 22.6786 -1.46071 0.313622 0
M  V30 258 H 24.5606 -3.80631 -1.80827 0
M  V30 259 H 23.2356 -2.61462 -1.90839 0
M  V30 260 H 22.1426 -3.73914 0.117799 0
M  V30 261 H 23.4756 -4.92014 0.135308 0
M  V30 262 N 25.1277 -0.289203 -1.54924 0
M  V30 263 C 26.3767 0.324231 -1.99077 0
M  V30 264 C 26.6897 1.5591 -1.18117 0
M  V30 265 O 27.8957 2.24637 -1.52481 0
M  V30 266 C 26.3517 0.628209 -3.54375 0
M  V30 267 C 25.9597 -0.587647 -4.44129 0
M  V30 268 C 27.7037 1.20349 -4.07083 0
M  V30 269 C 25.6107 -0.257475 -5.90839 0
M  V30 270 H 24.5407 0.124924 -0.743579 0
M  V30 271 H 27.1917 -0.396063 -1.79175 0
M  V30 272 H 25.5737 1.40778 -3.70132 0
M  V30 273 H 26.7477 -1.36418 -4.40144 0
M  V30 274 H 25.0627 -1.08074 -4.0213 0
M  V30 275 H 27.6597 1.46456 -5.14252 0
M  V30 276 H 28.0027 2.14195 -3.56968 0
M  V30 277 H 28.5357 0.485889 -3.94821 0
M  V30 278 H 25.2747 -1.16419 -6.45079 0
M  V30 279 H 24.7947 0.482018 -5.9786 0
M  V30 280 H 26.4737 0.145238 -6.46837 0
M  V30 281 N 26.6058 1.57591 -0.0167156 0
M  V30 282 C 27.5158 2.1291 0.98521 0
M  V30 283 C 28.5318 1.07834 1.36557 0
M  V30 284 O 29.7078 1.39826 1.44951 0
M  V30 285 C 26.7728 2.63512 2.25305 0
M  V30 286 C 25.8338 3.83256 1.93426 0
M  V30 287 C 25.0668 4.31435 3.14165 0
M  V30 288 O 25.2898 3.78851 4.26413 0
M  V30 289 O 24.2238 5.23416 2.97186 0
M  V30 290 H 28.0498 2.98772 0.544888 0
M  V30 291 H 25.6348 1.48012 0.203141 0
M  V30 292 H 27.5168 2.96183 2.99756 0
M  V30 293 H 26.1918 1.8074 2.68542 0
M  V30 294 H 25.0988 3.55531 1.16398 0
M  V30 295 H 26.4318 4.67153 1.55013 0
M  V30 296 N 28.0839 -0.256276 1.55502 0
M  V30 297 C 29.4949 -0.826068 1.67431 0
M  V30 298 C 29.8459 -1.86396 0.612446 0
M  V30 299 O 28.9709 -2.15031 -0.243025 0
M  V30 300 C 29.5659 -1.50512 3.03532 0
M  V30 301 C 28.1249 -2.02273 3.17431 0
M  V30 302 C 27.2719 -0.870548 2.63281 0
M  V30 303 H 30.2229 -0.0322728 1.58667 0
M  V30 304 H 30.2439 -2.37279 2.97454 0
M  V30 305 H 29.7559 -0.749484 3.80794 0
M  V30 306 H 27.8569 -2.80746 2.44974 0
M  V30 307 H 27.9699 -2.22655 4.24219 0
M  V30 308 H 26.3339 -1.26851 2.20864 0
M  V30 309 H 27.1169 -0.128149 3.43061 0
M  V30 310 N 29.562 -1.4872 -0.521534 0
M  V30 311 C 30.839 -1.4766 -1.2828 0
M  V30 312 C 31.219 -0.19292 -2.10217 0
M  V30 313 O 30.567 0.825193 -2.13079 0
M  V30 314 C 30.777 -2.74358 -2.15705 0
M  V30 315 C 32.125 -3.23028 -2.75569 0
M  V30 316 O 33.149 -2.75333 -2.25987 0
M  V30 317 O 32.008 -4.0604 -3.65778 0
M  V30 318 H 29.102 -0.590085 -0.579421 0
M  V30 319 H 31.648 -1.60963 -0.537492 0
M  V30 320 H 30.42 -3.59292 -1.54999 0
M  V30 321 H 30.043 -2.63816 -2.97467 0
M  V30 322 N 31.0401 0.771051 -1.3745 0
M  V30 323 C 32.2861 1.5319 -1.32894 0
M  V30 324 C 32.6191 1.94008 0.0862511 0
M  V30 325 O 31.8941 1.64124 1.04373 0
M  V30 326 C 32.1771 2.79648 -2.26868 0
M  V30 327 C 32.0301 2.45079 -3.77169 0
M  V30 328 C 33.3491 3.81583 -2.19277 0
M  V30 329 H 30.4681 0.555744 -0.484064 0
M  V30 330 H 33.1101 0.884492 -1.68157 0
M  V30 331 H 31.2601 3.34891 -1.96926 0
M  V30 332 H 32.9321 1.95745 -4.1771 0
M  V30 333 H 31.1751 1.77767 -3.95704 0
M  V30 334 H 31.8461 3.35478 -4.38359 0
M  V30 335 H 34.3221 3.35835 -2.45671 0
M  V30 336 H 33.1981 4.67787 -2.87171 0
M  V30 337 H 33.4591 4.25897 -1.18592 0
M  V30 338 N 32.5182 1.22032 0.997298 0
M  V30 339 C 33.7642 1.04376 1.73878 0
M  V30 340 C 34.0972 -0.420716 1.89588 0
M  V30 341 O 33.3722 -1.31202 1.43583 0
M  V30 342 C 33.6552 1.75047 3.14691 0
M  V30 343 C 33.5082 3.29062 3.06656 0
M  V30 344 C 34.8272 1.49928 4.13775 0
M  V30 345 H 31.9462 0.380578 0.631133 0
M  V30 346 H 34.5882 1.50312 1.16217 0
M  V30 347 H 32.7382 1.35996 3.63919 0
M  V30 348 H 34.4102 3.7753 2.65083 0
M  V30 349 H 32.6532 3.58967 2.43568 0
M  V30 350 H 33.3242 3.73683 4.06282 0
M  V30 351 H 35.8002 1.83842 3.73285 0
M  V30 352 H 34.6762 2.01878 5.10428 0
M  V30 353 H 34.9372 0.430929 4.39995 0
M  V30 354 N 33.9963 -1.19345 1.0293 0
M  V30 355 C 35.2433 -1.89038 0.726008 0
M  V30 356 C 35.5713 -1.79649 -0.745427 0
M  V30 357 O 34.8263 -1.18354 -1.55855 0
M  V30 358 C 35.1253 -3.39292 1.12319 0
M  V30 359 C 34.7913 -3.68885 2.59297 0
M  V30 360 C 33.4533 -3.76671 2.99453 0
M  V30 361 C 35.8053 -3.82178 3.54386 0
M  V30 362 C 33.1333 -3.9522 4.33611 0
M  V30 363 C 35.4853 -4.0224 4.88248 0
M  V30 364 C 34.1493 -4.08259 5.28092 0
M  V30 365 H 33.4193 -0.691739 0.265665 0
M  V30 366 H 36.0663 -1.41328 1.29223 0
M  V30 367 H 34.3713 -3.88903 0.475584 0
M  V30 368 H 36.0683 -3.91536 0.866037 0
M  V30 369 H 32.6583 -3.63433 2.27189 0
M  V30 370 H 36.8423 -3.75505 3.24514 0
M  V30 371 H 32.0983 -3.98119 4.64016 0
M  V30 372 H 36.2723 -4.11468 5.61843 0
M  V30 373 H 33.8993 -4.22384 6.32057 0
M  V30 374 N 35.4744 -0.807222 -1.35358 0
M  V30 375 C 36.4044 -0.232509 -2.3234 0
M  V30 376 C 37.3854 0.642386 -1.57504 0
M  V30 377 O 38.5704 0.572526 -1.85569 0
M  V30 378 C 35.7004 0.619238 -3.41735 0
M  V30 379 C 34.6544 -0.157215 -4.27711 0
M  V30 380 C 33.9804 0.816273 -5.28433 0
M  V30 381 C 35.2804 -1.35656 -5.04376 0
M  V30 382 H 36.9744 -1.04276 -2.80654 0
M  V30 383 H 34.5204 -0.50288 -1.34934 0
M  V30 384 H 36.4734 1.03137 -4.08584 0
M  V30 385 H 35.1974 1.46239 -2.92031 0
M  V30 386 H 33.8564 -0.550525 -3.62443 0
M  V30 387 H 33.5044 1.65494 -4.74996 0
M  V30 388 H 33.2044 0.301067 -5.86828 0
M  V30 389 H 34.7284 1.22659 -5.98153 0
M  V30 390 H 36.1424 -1.01927 -5.64166 0
M  V30 391 H 34.5394 -1.8063 -5.7227 0
M  V30 392 H 35.6094 -2.14288 -4.34981 0
M  V30 393 N 36.9525 1.47285 -0.560781 0
M  V30 394 C 37.8825 2.32857 0.173105 0
M  V30 395 C 38.8635 1.44009 0.905281 0
M  V30 396 O 40.0485 1.7286 0.885046 0
M  V30 397 C 37.1785 3.25861 1.20133 0
M  V30 398 C 36.1325 4.23978 0.585388 0
M  V30 399 C 35.4585 5.06332 1.7185 0
M  V30 400 C 36.7585 5.20242 -0.463178 0
M  V30 401 H 38.4525 2.94466 -0.541307 0
M  V30 402 H 35.9985 1.41601 -0.261764 0
M  V30 403 H 37.9515 3.84569 1.72293 0
M  V30 404 H 36.6755 2.62315 1.94573 0
M  V30 405 H 35.3345 3.66501 0.085054 0
M  V30 406 H 34.9825 4.39186 2.45203 0
M  V30 407 H 34.6825 5.72762 1.31213 0
M  V30 408 H 36.2065 5.67899 2.24329 0
M  V30 409 H 37.6205 5.73293 -0.027502 0
M  V30 410 H 36.0175 5.94896 -0.788627 0
M  V30 411 H 37.0875 4.65504 -1.35773 0
M  V30 412 N 38.4306 0.297415 1.54768 0
M  V30 413 C 39.3776 -0.580276 2.23386 0
M  V30 414 C 40.3476 -1.13238 1.21517 0
M  V30 415 O 41.5326 -1.17757 1.50126 0
M  V30 416 C 38.6726 -1.74801 2.97555 0
M  V30 417 C 37.7856 -1.22764 4.1419 0
M  V30 418 C 36.9206 -2.35895 4.75949 0
M  V30 419 C 35.9596 -1.80974 5.84735 0
M  V30 420 N 35.0966 -2.87664 6.40464 0
M  V30 421 H 39.9366 0.0114833 2.97998 0
M  V30 422 H 37.4736 0.0174361 1.4709 0
M  V30 423 H 39.4316 -2.43475 3.38786 0
M  V30 424 H 38.0616 -2.31145 2.25326 0
M  V30 425 H 37.1136 -0.433271 3.77924 0
M  V30 426 H 38.4256 -0.785551 4.92575 0
M  V30 427 H 37.5796 -3.12523 5.20014 0
M  V30 428 H 36.3186 -2.83429 3.96887 0
M  V30 429 H 35.3236 -1.02834 5.40097 0
M  V30 430 H 36.5486 -1.34348 6.65678 0
M  V30 431 H 34.4946 -3.34538 5.64287 0
M  V30 432 H 34.4116 -2.4794 7.14186 0
M  V30 433 H 35.6796 -3.642 6.89187 0
M  V30 434 N 39.9087 -1.5758 0.0250728 0
M  V30 435 C 41.1337 -1.96337 -0.668317 0
M  V30 436 C 41.5587 -0.901314 -1.651 0
M  V30 437 O 40.9167 0.138187 -1.80773 0
M  V30 438 C 40.9647 -3.34191 -1.35457 0
M  V30 439 O 40.0687 -3.30269 -2.46974 0
M  V30 440 H 39.4097 -0.640281 -0.175887 0
M  V30 441 H 41.9397 -2.0442 0.0857224 0
M  V30 442 H 41.9497 -3.70331 -1.71228 0
M  V30 443 H 40.6247 -4.11036 -0.634218 0
M  V30 444 H 39.2017 -3.05841 -2.13344 0
M  V30 445 N 41.3868 0.248026 -1.55636 0
M  V30 446 C 42.6638 0.998988 -1.68165 0
M  V30 447 C 43.0438 2.03409 -0.564621 0
M  V30 448 O 42.3918 2.24378 0.432076 0
M  V30 449 C 42.6018 1.63334 -3.0842 0
M  V30 450 C 43.9498 2.13562 -3.66983 0
M  V30 451 O 44.9738 1.73277 -3.11213 0
M  V30 452 O 43.8328 2.87526 -4.64749 0
M  V30 453 H 40.9268 0.464933 -0.683935 0
M  V30 454 H 43.4728 0.241902 -1.67967 0
M  V30 455 H 42.2448 0.884583 -3.8117 0
M  V30 456 H 41.8678 2.45666 -3.12624 0
M  V30 457 N 42.8649 1.48995 0.513639 0
M  V30 458 C 44.1139 1.57093 1.2651 0
M  V30 459 C 44.4269 0.257091 1.93903 0
M  V30 460 O 45.6329 0.216478 2.70636 0
M  V30 461 C 44.0889 2.77118 2.29638 0
M  V30 462 C 43.6969 4.15209 1.68241 0
M  V30 463 C 45.4409 2.94538 3.05692 0
M  V30 464 C 43.3479 5.26474 2.69406 0
M  V30 465 H 42.2779 0.584876 0.475854 0
M  V30 466 H 44.9289 1.7536 0.540487 0
M  V30 467 H 43.3109 2.52319 3.05207 0
M  V30 468 H 44.4849 4.50094 0.987505 0
M  V30 469 H 42.7999 4.03042 1.04623 0
M  V30 470 H 45.3969 3.74832 3.8132 0
M  V30 471 H 45.7399 2.04614 3.62545 0
M  V30 472 H 46.2729 3.19316 2.37238 0
M  V30 473 H 43.0119 6.18417 2.17351 0
M  V30 474 H 42.5319 4.96058 3.37175 0
M  V30 475 H 44.2109 5.55277 3.32078 0
M  V30 476 N 44.343 -0.763751 1.37857 0
M  V30 477 C 45.273 -1.89103 1.36975 0
M  V30 478 C 46.254 -1.68439 0.237152 0
M  V30 479 O 47.439 -1.8918 0.438713 0
M  V30 480 C 44.569 -3.26496 1.18395 0
M  V30 481 C 43.523 -3.61741 2.28751 0
M  V30 482 C 42.849 -4.97762 1.95286 0
M  V30 483 C 44.149 -3.67665 3.70972 0
M  V30 484 H 45.843 -1.90099 2.31307 0
M  V30 485 H 43.389 -0.91319 1.11341 0
M  V30 486 H 45.342 -4.05003 1.16406 0
M  V30 487 H 44.066 -3.25955 0.205215 0
M  V30 488 H 42.725 -2.85547 2.29909 0
M  V30 489 H 42.373 -4.93769 0.959221 0
M  V30 490 H 42.073 -5.22313 2.69189 0
M  V30 491 H 43.597 -5.7866 1.94898 0
M  V30 492 H 45.011 -4.36307 3.719 0
M  V30 493 H 43.408 -4.03718 4.43995 0
M  V30 494 H 44.478 -2.68134 4.0402 0
M  V30 495 N 45.8211 -1.22559 -0.990812 0
M  V30 496 C 46.7691 -0.994798 -2.10253 0
M  V30 497 C 47.7631 0.0627798 -1.69284 0
M  V30 498 O 48.9691 -0.0898392 -1.79776 0
M  V30 499 H 45.3441 -0.304527 -0.687581 0
M  V30 500 H 47.3151 -1.93812 -2.26891 0
M  V30 501 C 46.0641 -0.591439 -3.42633 0
M  V30 502 H 45.3871 -1.3969 -3.74602 0
M  V30 503 H 46.8271 -0.469385 -4.21394 0
M  V30 504 C 45.2861 0.699232 -3.29564 0
M  V30 505 O 45.8161 1.75112 -3.61523 0
M  V30 506 N 44.0221 0.671182 -2.82743 0
M  V30 507 H 43.5691 -0.185136 -2.56934 0
M  V30 508 H 43.5271 1.53502 -2.7438 0
M  V30 509 N 47.2992 1.18797 -1.03562 0
M  V30 510 C 48.2292 2.24472 -0.643019 0
M  V30 511 C 49.2102 1.66433 0.351283 0
M  V30 512 O 50.3952 1.92803 0.232505 0
M  V30 513 C 47.5252 3.473 4.24935e-05 0
M  V30 514 C 46.4792 4.18055 -0.917257 0
M  V30 515 C 45.8052 5.34519 -0.138941 0
M  V30 516 C 47.1052 4.72109 -2.23407 0
M  V30 517 H 48.7992 2.57566 -1.52643 0
M  V30 518 H 46.3452 1.23806 -0.735394 0
M  V30 519 H 48.2982 4.20426 0.286383 0
M  V30 520 H 47.0222 3.13424 0.918299 0
M  V30 521 H 45.6812 3.46821 -1.1879 0
M  V30 522 H 45.3292 4.96891 0.781562 0
M  V30 523 H 45.0292 5.82794 -0.750005 0
M  V30 524 H 46.5532 6.10438 0.1405 0
M  V30 525 H 47.9672 5.36955 -2.00879 0
M  V30 526 H 46.3642 5.30897 -2.79765 0
M  V30 527 H 47.4342 3.89807 -2.88407 0
M  V30 528 N 48.7773 0.814389 1.34928 0
M  V30 529 C 49.7243 0.22822 2.29669 0
M  V30 530 C 50.6943 -0.642164 1.53184 0
M  V30 531 O 51.8793 -0.585605 1.81591 0
M  V30 532 C 49.0193 -0.61089 3.3965 0
M  V30 533 C 48.1323 0.280792 4.31086 0
M  V30 534 C 47.2673 -0.567067 5.28165 0
M  V30 535 C 46.3063 0.324531 6.11239 0
M  V30 536 N 45.4433 -0.483756 7.00431 0
M  V30 537 H 50.2833 1.04153 2.79206 0
M  V30 538 H 47.8203 0.525133 1.37407 0
M  V30 539 H 49.7783 -1.11263 4.0209 0
M  V30 540 H 48.4083 -1.38939 2.91369 0
M  V30 541 H 47.4603 0.900688 3.69583 0
M  V30 542 H 48.7723 0.966723 4.89342 0
M  V30 543 H 47.9263 -1.13363 5.96015 0
M  V30 544 H 46.6653 -1.28654 4.70425 0
M  V30 545 H 45.6703 0.903298 5.42329 0
M  V30 546 H 46.8953 1.04198 6.71059 0
M  V30 547 H 44.8413 -1.18706 6.45171 0
M  V30 548 H 44.7583 0.143965 7.55863 0
M  V30 549 H 46.0263 -1.03334 7.7262 0
M  V30 550 N 50.2554 -1.46986 0.568584 0
M  V30 551 C 51.5024 -2.02441 0.0487986 0
M  V30 552 C 51.8304 -1.44169 -1.30559 0
M  V30 553 O 51.0854 -0.591213 -1.86556 0
M  V30 554 C 51.3844 -3.57306 -0.081836 0
M  V30 555 C 51.0504 -4.34552 1.20313 0
M  V30 556 C 49.7124 -4.55376 1.5552 0
M  V30 557 C 52.0644 -4.79016 2.05411 0
M  V30 558 C 49.3924 -5.17913 2.7565 0
M  V30 559 C 51.7444 -5.42879 3.24754 0
M  V30 560 C 50.4084 -5.61933 3.60261 0
M  V30 561 H 49.6784 -0.740785 0.0178567 0
M  V30 562 H 52.3254 -1.76525 0.742384 0
M  V30 563 H 50.6304 -3.8228 -0.858463 0
M  V30 564 H 52.3274 -3.97876 -0.499546 0
M  V30 565 H 48.9174 -4.18631 0.919014 0
M  V30 566 H 53.1014 -4.62696 1.79516 0
M  V30 567 H 48.3574 -5.30858 3.03315 0
M  V30 568 H 52.5314 -5.76293 3.90973 0
M  V30 569 H 50.1584 -6.10161 4.53439 0
M  V30 570 N 51.7335 -0.305618 -1.54608 0
M  V30 571 C 52.6835 0.583595 -2.20405 0
M  V30 572 C 53.6675 1.09539 -1.17856 0
M  V30 573 O 54.8595 1.0354 -1.43557 0
M  V30 574 C 51.9885 1.75277 -2.95183 0
M  V30 575 C 51.0745 1.25672 -4.05052 0
M  V30 576 N 51.4655 0.478998 -5.03527 0
M  V30 577 C 49.7635 1.53704 -4.18678 0
M  V30 578 C 50.4645 0.214269 -5.81305 0
M  V30 579 N 49.4405 0.795374 -5.3775 0
M  V30 580 H 53.2425 -0.0180946 -2.93894 0
M  V30 581 H 50.7565 -0.110601 -1.62023 0
M  V30 582 H 52.7535 2.4014 -3.40791 0
M  V30 583 H 51.4135 2.35812 -2.23211 0
M  V30 584 H 52.4245 0.123473 -5.17753 0
M  V30 585 H 49.1015 2.14954 -3.57912 0
M  V30 586 H 50.4915 -0.410656 -6.70644 0
M  V30 587 N 53.2116 1.57565 -0.0334293 0
M  V30 588 C 54.1416 2.13511 0.945265 0
M  V30 589 C 55.1226 1.05231 1.33643 0
M  V30 590 O 56.3076 1.33084 1.41429 0
M  V30 591 C 53.4376 2.6657 2.22616 0
M  V30 592 C 52.3916 3.79676 1.97561 0
M  V30 593 C 51.7176 4.1918 3.31952 0
M  V30 594 C 53.0176 5.0557 1.31135 0
M  V30 595 H 54.7116 2.95538 0.479325 0
M  V30 596 H 52.2576 1.42166 0.229115 0
M  V30 597 H 54.2106 3.04344 2.91466 0
M  V30 598 H 52.9346 1.8171 2.71384 0
M  V30 599 H 51.5936 3.42347 1.31127 0
M  V30 600 H 51.2416 3.31296 3.78487 0
M  V30 601 H 50.9416 4.95402 3.15992 0
M  V30 602 H 52.4656 4.59541 4.02063 0
M  V30 603 H 53.8796 5.40903 1.89992 0
M  V30 604 H 52.2766 5.86818 1.25559 0
M  V30 605 H 53.3466 4.84062 0.284894 0
M  V30 606 N 54.6897 -0.239769 1.55765 0
M  V30 607 C 55.6367 -1.29696 1.90913 0
M  V30 608 C 56.6067 -1.47478 0.764164 0
M  V30 609 O 57.7917 -1.61345 1.01845 0
M  V30 610 C 54.9317 -2.64598 2.21544 0
M  V30 611 C 54.0447 -2.54765 3.48882 0
M  V30 612 C 53.1797 -3.82069 3.69049 0
M  V30 613 C 52.2187 -3.66883 4.89963 0
M  V30 614 N 51.3557 -4.86094 5.06614 0
M  V30 615 H 56.1957 -0.990224 2.81067 0
M  V30 616 H 53.7327 -0.477684 1.39128 0
M  V30 617 H 55.6907 -3.43132 2.3731 0
M  V30 618 H 54.3207 -2.93405 1.34585 0
M  V30 619 H 53.3727 -1.67763 3.41409 0
M  V30 620 H 54.6847 -2.39457 4.37563 0
M  V30 621 H 53.8387 -4.69046 3.84812 0
M  V30 622 H 52.5777 -4.00282 2.78614 0
M  V30 623 H 51.5827 -2.78289 4.74168 0
M  V30 624 H 52.8077 -3.50157 5.81865 0
M  V30 625 H 50.7537 -5.04655 4.19117 0
M  V30 626 H 50.6707 -4.73443 5.89396 0
M  V30 627 H 51.9387 -5.74549 5.26795 0
M  V30 628 N 56.1678 -1.49265 -0.50573 0
M  V30 629 C 57.4168 -1.57761 -1.25675 0
M  V30 630 C 57.7298 -0.267371 -1.93764 0
M  V30 631 O 58.9358 -0.230827 -2.70517 0
M  V30 632 C 57.3918 -2.78332 -2.28165 0
M  V30 633 C 56.9998 -4.16096 -1.66037 0
M  V30 634 C 58.7438 -2.96155 -3.04125 0
M  V30 635 C 56.6508 -5.27895 -2.6661 0
M  V30 636 H 55.5808 -0.587391 -0.472745 0
M  V30 637 H 58.2318 -1.75644 -0.53118 0
M  V30 638 H 56.6138 -2.53934 -3.03865 0
M  V30 639 H 57.7878 -4.50612 -0.963622 0
M  V30 640 H 56.1028 -4.03591 -1.02484 0
M  V30 641 H 58.6998 -3.76849 -3.79327 0
M  V30 642 H 59.0428 -2.06534 -3.61455 0
M  V30 643 H 59.5758 -3.2057 -2.35541 0
M  V30 644 H 56.3148 -6.1956 -2.14068 0
M  V30 645 H 55.8348 -4.97839 -3.34539 0
M  V30 646 H 57.5138 -5.57031 -3.29129 0
M  V30 647 N 57.6459 0.756429 -1.3826 0
M  V30 648 C 58.5759 1.88374 -1.37976 0
M  V30 649 C 59.5569 1.68311 -0.246082 0
M  V30 650 O 60.7419 1.88944 -0.44874 0
M  V30 651 C 57.8719 3.25864 -1.20125 0
M  V30 652 C 56.8259 3.60523 -2.30666 0
M  V30 653 C 56.1519 4.9672 -1.97923 0
M  V30 654 C 57.4519 3.65692 -3.72916 0
M  V30 655 H 59.1459 1.88869 -2.32312 0
M  V30 656 H 56.6919 0.907272 -1.11824 0
M  V30 657 H 58.6449 4.0438 -1.18552 0
M  V30 658 H 57.3689 3.25841 -0.222498 0
M  V30 659 H 56.0279 2.84324 -2.3142 0
M  V30 660 H 55.6759 4.93253 -0.985393 0
M  V30 661 H 55.3759 5.20878 -2.71955 0
M  V30 662 H 56.8999 5.77618 -1.97964 0
M  V30 663 H 58.3139 4.34328 -3.74208 0
M  V30 664 H 56.7109 4.01358 -4.4613 0
M  V30 665 H 57.7809 2.65987 -4.05436 0
M  V30 666 N 59.124 1.23083 0.984299 0
M  V30 667 C 60.071 1.00854 2.07598 0
M  V30 668 C 61.041 -0.0726709 1.65941 0
M  V30 669 O 62.226 0.0786535 1.90638 0
M  V30 670 C 59.366 0.601645 3.39815 0
M  V30 671 C 58.479 1.75456 3.94765 0
M  V30 672 C 57.614 1.29482 5.15177 0
M  V30 673 C 56.653 2.41873 5.62284 0
M  V30 674 N 55.79 1.96885 6.73929 0
M  V30 675 H 60.63 1.943 2.25946 0
M  V30 676 H 58.167 0.968001 1.10762 0
M  V30 677 H 60.125 0.346854 4.15756 0
M  V30 678 H 58.755 -0.295803 3.21442 0
M  V30 679 H 57.807 2.12346 3.15616 0
M  V30 680 H 59.119 2.59965 4.25699 0
M  V30 681 H 58.273 0.997923 5.98437 0
M  V30 682 H 57.012 0.420046 4.85888 0
M  V30 683 H 56.017 2.72342 4.77608 0
M  V30 684 H 57.242 3.29881 5.93595 0
M  V30 685 H 55.188 1.11782 6.46406 0
M  V30 686 H 55.105 2.74956 7.04227 0
M  V30 687 H 56.373 1.70289 7.60672 0
M  V30 688 N 60.6021 -1.18246 1.0419 0
M  V30 689 C 61.8791 -1.84121 0.660208 0
M  V30 690 C 62.2591 -1.92778 -0.860221 0
M  V30 691 O 61.6071 -1.45464 -1.76217 0
M  V30 692 C 61.8171 -3.22355 1.33747 0
M  V30 693 C 63.1651 -3.98376 1.46906 0
M  V30 694 O 64.1891 -3.31799 1.29568 0
M  V30 695 O 63.0481 -5.17665 1.75171 0
M  V30 696 H 60.1421 -0.794036 0.231161 0
M  V30 697 H 62.6881 -1.25628 1.14087 0
M  V30 698 H 61.4601 -3.10964 2.37522 0
M  V30 699 H 61.0831 -3.88506 0.845515 0
M  V30 700 N 62.0802 -0.821533 -1.34494 0
M  V30 701 C 63.4962 -0.507117 -1.51329 0
M  V30 702 C 63.6962 0.968964 -1.76673 0
M  V30 703 O 62.7522 1.75348 -1.81685 0
M  V30 704 C 64.0652 -1.36544 -2.67911 0
M  V30 705 C 65.6132 -1.36242 -2.81793 0
M  V30 706 C 66.0882 -2.2052 -4.01416 0
M  V30 707 N 67.5792 -2.18136 -4.08621 0
M  V30 708 C 68.3142 -2.80095 -5.00334 0
M  V30 709 N 67.8102 -3.51039 -5.9728 0
M  V30 710 N 69.6032 -2.69656 -4.93196 0
M  V30 711 H 61.7542 -1.77729 -1.16302 0
M  V30 712 H 64.0172 -0.757291 -0.570276 0
M  V30 713 H 63.7232 -2.41361 -2.55808 0
M  V30 714 H 63.5972 -1.02917 -3.62888 0
M  V30 715 H 65.9842 -0.322041 -2.93338 0
M  V30 716 H 66.0652 -1.73866 -1.87628 0
M  V30 717 H 65.7092 -3.24607 -3.90631 0
M  V30 718 H 65.6392 -1.80247 -4.94791 0
M  V30 719 H 68.1302 -1.6653 -3.39229 0
M  V30 720 H 68.4432 -3.95565 -6.63889 0
M  V30 721 H 66.7882 -3.55145 -5.97409 0
M  V30 722 H 69.9792 -2.13808 -4.16418 0
M  V30 723 H 70.1522 -3.1823 -5.64476 0
M  V30 724 N 63.5583 1.46682 -0.576371 0
M  V30 725 C 64.8063 2.02013 -0.0594163 0
M  V30 726 C 65.1273 1.45101 1.30271 0
M  V30 727 O 64.3973 0.633317 1.8538 0
M  V30 728 H 62.9773 0.746759 -0.0189745 0
M  V30 729 H 65.6393 1.79862 -0.750717 0
M  V30 730 H 64.7353 3.12097 0.014345 0
M  V30 731 N 65.0364 0.313813 1.54444 0
M  V30 732 C 65.9834 -0.55655 2.23989 0
M  V30 733 C 66.9534 -1.11943 1.22711 0
M  V30 734 O 68.1384 -1.16158 1.51367 0
M  V30 735 C 65.2784 -1.71635 2.99392 0
M  V30 736 C 64.3914 -1.18364 4.15468 0
M  V30 737 C 63.5264 -2.30834 4.78424 0
M  V30 738 C 62.5654 -1.74762 5.86622 0
M  V30 739 N 61.7024 -2.80855 6.43479 0
M  V30 740 H 66.5424 0.0430893 2.97969 0
M  V30 741 H 64.0794 0.0330359 1.47063 0
M  V30 742 H 66.0374 -2.39868 3.41349 0
M  V30 743 H 64.6674 -2.28742 2.27765 0
M  V30 744 H 63.7194 -0.393163 3.78363 0
M  V30 745 H 65.0314 -0.733262 4.93381 0
M  V30 746 H 64.1854 -3.0699 5.23299 0
M  V30 747 H 62.9244 -2.79204 3.99871 0
M  V30 748 H 61.9294 -0.970995 5.41158 0
M  V30 749 H 63.1544 -1.2728 6.67066 0
M  V30 750 H 61.1004 -3.28535 5.67804 0
M  V30 751 H 61.0174 -2.40351 7.16776 0
M  V30 752 H 62.2854 -3.5687 6.93011 0
M  V30 753 N 66.5145 -1.57545 0.0417849 0
M  V30 754 C 67.7425 -1.96624 -0.643928 0
M  V30 755 C 68.1575 -0.918897 -1.64929 0
M  V30 756 O 67.5145 0.0979323 -1.82237 0
M  V30 757 C 67.5655 -3.35781 -1.33914 0
M  V30 758 O 67.2865 -4.365 -0.374048 0
M  V30 759 C 68.7875 -3.89566 -2.1155 0
M  V30 760 H 66.0075 -0.647316 -0.176702 0
M  V30 761 H 68.5515 -2.04229 0.105304 0
M  V30 762 H 66.7065 -3.29357 -2.03968 0
M  V30 763 H 67.1205 -5.17248 -0.869179 0
M  V30 764 H 68.5945 -4.89242 -2.55628 0
M  V30 765 H 69.0715 -3.24488 -2.9598 0
M  V30 766 H 69.6775 -3.99298 -1.46427 0
M  V30 767 N 67.9926 0.231505 -1.5589 0
M  V30 768 C 69.2386 0.95877 -1.78705 0
M  V30 769 C 69.5716 1.8438 -0.609725 0
M  V30 770 O 68.8466 1.90521 0.391426 0
M  V30 771 C 69.1296 1.8062 -3.11526 0
M  V30 772 C 68.9826 0.948328 -4.39689 0
M  V30 773 C 70.3016 2.78585 -3.40703 0
M  V30 774 H 67.4206 0.347129 -0.650131 0
M  V30 775 H 70.0626 0.228259 -1.88624 0
M  V30 776 H 68.2126 2.42902 -3.03201 0
M  V30 777 H 69.8846 0.343016 -4.60023 0
M  V30 778 H 68.1276 0.253314 -4.3306 0
M  V30 779 H 68.7986 1.57543 -5.29041 0
M  V30 780 H 71.2746 2.26439 -3.49091 0
M  V30 781 H 70.1506 3.34988 -4.34826 0
M  V30 782 H 70.4116 3.55825 -2.62375 0
M  V30 783 N 69.4707 1.49531 0.497807 0
M  V30 784 C 70.7177 1.59179 1.25173 0
M  V30 785 C 71.0457 0.279932 1.92475 0
M  V30 786 O 70.3007 -0.732383 1.81479 0
M  V30 787 C 70.5997 2.70252 2.33878 0
M  V30 788 C 70.2657 4.11644 1.84012 0
M  V30 789 C 68.9277 4.50121 1.70132 0
M  V30 790 C 71.2797 5.00121 1.46725 0
M  V30 791 C 68.6077 5.74845 1.17348 0
M  V30 792 C 70.9597 6.25366 0.95392 0
M  V30 793 C 69.6237 6.6267 0.801538 0
M  V30 794 H 68.8937 0.582478 0.45804 0
M  V30 795 H 71.5407 1.83373 0.551948 0
M  V30 796 H 69.8457 2.40041 3.09657 0
M  V30 797 H 71.5427 2.74925 2.9192 0
M  V30 798 H 68.1327 3.81274 1.95775 0
M  V30 799 H 72.3167 4.71048 1.56294 0
M  V30 800 H 67.5727 6.02444 1.04264 0
M  V30 801 H 71.7467 6.93301 0.656225 0
M  V30 802 H 69.3737 7.59197 0.390351 0
M  V30 803 N 70.9488 -0.749086 1.3866 0
M  V30 804 C 72.1948 -1.51056 1.35314 0
M  V30 805 C 72.5278 -1.94121 -0.0553751 0
M  V30 806 O 71.8028 -1.65763 -1.01749 0
M  V30 807 C 72.0858 -2.76003 2.31288 0
M  V30 808 C 71.9388 -2.39047 3.8102 0
M  V30 809 C 73.2578 -3.78046 2.2532 0
M  V30 810 H 70.3768 -0.547972 0.492844 0
M  V30 811 H 73.0188 -0.857628 1.69543 0
M  V30 812 H 71.1688 -3.31716 2.02229 0
M  V30 813 H 72.8408 -1.89074 4.20771 0
M  V30 814 H 71.0838 -1.71449 3.98482 0
M  V30 815 H 71.7548 -3.28462 4.4364 0
M  V30 816 H 74.2308 -3.31884 2.50983 0
M  V30 817 H 73.1068 -4.63159 2.94576 0
M  V30 818 H 73.3678 -4.23957 1.25352 0
M  V30 819 N 72.4269 -1.23603 -0.977757 0
M  V30 820 C 73.7039 -0.977897 -1.69401 0
M  V30 821 C 74.0839 0.502738 -2.05026 0
M  V30 822 O 73.4319 1.47459 -1.74551 0
M  V30 823 C 73.6419 -1.89077 -2.93345 0
M  V30 824 C 74.9899 -2.15579 -3.65802 0
M  V30 825 O 76.0139 -1.86648 -3.03383 0
M  V30 826 O 74.8729 -2.64658 -4.78141 0
M  V30 827 H 71.9669 -0.369025 -0.740101 0
M  V30 828 H 74.5129 -1.34657 -1.03274 0
M  V30 829 H 73.2849 -2.89158 -2.63634 0
M  V30 830 H 72.9079 -1.52463 -3.67207 0
M  V30 831 N 73.905 1.17692 -1.04816 0
M  V30 832 C 74.838 2.20436 -0.590173 0
M  V30 833 C 75.816 1.58115 0.379244 0
M  V30 834 O 77 1.86228 0.291762 0
M  V30 835 C 74.127 3.38424 0.136817 0
M  V30 836 C 73.173 4.19176 -0.787023 0
M  V30 837 S 74.006 4.84815 -2.27409 0
M  V30 838 C 75.162 6.06195 -1.55817 0
M  V30 839 H 75.395 2.58944 -1.46067 0
M  V30 840 H 72.928 1.28246 -0.859784 0
M  V30 841 H 74.886 4.06798 0.550076 0
M  V30 842 H 73.547 2.98312 0.983299 0
M  V30 843 H 72.74 5.03499 -0.224681 0
M  V30 844 H 72.342 3.56219 -1.13947 0
M  V30 845 H 74.634 6.72078 -0.855387 0
M  V30 846 H 75.577 6.6695 -2.37873 0
M  V30 847 H 75.985 5.54701 -1.04722 0
M  V30 848 N 75.3831 0.828654 1.34056 0
M  V30 849 C 76.6601 0.341809 1.9259 0
M  V30 850 C 77.0401 -1.17158 1.75605 0
M  V30 851 O 76.3881 -1.98132 1.13824 0
M  V30 852 C 76.5981 0.777453 3.4023 0
M  V30 853 C 77.9461 0.779579 4.17382 0
M  V30 854 O 78.9701 0.7204 3.48839 0
M  V30 855 O 77.8291 0.857996 5.39723 0
M  V30 856 H 74.9231 0.0946085 0.821571 0
M  V30 857 H 77.4691 0.913827 1.42994 0
M  V30 858 H 76.2411 1.8196 3.46419 0
M  V30 859 H 75.8641 0.181444 3.97186 0
M  V30 860 N 76.8612 -1.46375 0.584142 0
M  V30 861 C 78.1082 -2.02378 0.0702675 0
M  V30 862 C 78.4362 -1.45545 -1.29023 0
M  V30 863 O 77.6912 -0.610967 -1.85918 0
M  V30 864 C 77.9902 -3.57373 -0.0439342 0
M  V30 865 C 77.6562 -4.33252 1.24915 0
M  V30 866 C 76.3182 -4.53701 1.60341 0
M  V30 867 C 78.6702 -4.7681 2.1048 0
M  V30 868 C 75.9982 -5.1496 2.81128 0
M  V30 869 C 78.3502 -5.39404 3.30494 0
M  V30 870 C 77.0142 -5.5808 3.66201 0
M  V30 871 H 76.2842 -0.740554 0.0257127 0
M  V30 872 H 78.9312 -1.75727 0.761065 0
M  V30 873 H 77.2362 -3.83169 -0.817869 0
M  V30 874 H 78.9332 -3.98384 -0.457318 0
M  V30 875 H 75.5232 -4.17633 0.963364 0
M  V30 876 H 79.7072 -4.60766 1.84414 0
M  V30 877 H 74.9632 -5.27611 3.08928 0
M  V30 878 H 79.1372 -5.72114 3.97063 0
M  V30 879 H 76.7642 -6.05318 4.59885 0
M  V30 880 N 78.3393 -0.321999 -1.54275 0
M  V30 881 C 79.5853 0.281461 -2.00837 0
M  V30 882 C 79.9183 1.51909 -1.20985 0
M  V30 883 O 79.1933 1.923 -0.291733 0
M  V30 884 C 79.4763 0.617162 -3.54772 0
M  V30 885 C 79.3293 -0.631064 -4.45351 0
M  V30 886 C 80.6483 1.43542 -4.16033 0
M  V30 887 H 77.7673 0.100826 -0.730071 0
M  V30 888 H 80.4093 -0.438268 -1.84876 0
M  V30 889 H 78.5593 1.23034 -3.68504 0
M  V30 890 H 80.2313 -1.26934 -4.43492 0
M  V30 891 H 78.4743 -1.26025 -4.15091 0
M  V30 892 H 79.1453 -0.351735 -5.50878 0
M  V30 893 H 81.6213 0.917134 -4.05867 0
M  V30 894 H 80.4973 1.63907 -5.23856 0
M  V30 895 H 80.7583 2.43108 -3.69257 0
M  V30 896 N 79.8174 1.5752 -0.0501392 0
M  V30 897 C 80.7654 2.12651 0.942459 0
M  V30 898 C 81.7594 1.05807 1.32292 0
M  V30 899 O 82.9654 1.24217 1.3027 0
M  V30 900 H 79.3404 0.679673 0.321789 0
M  V30 901 H 81.3114 2.94951 0.452356 0
M  V30 902 C 80.0604 2.68565 2.20836 0
M  V30 903 H 79.3834 3.50439 1.92439 0
M  V30 904 H 80.8234 3.10761 2.8845 0
M  V30 905 C 79.2824 1.62291 2.95234 0
M  V30 906 O 79.8124 1.03508 3.88135 0
M  V30 907 N 78.0184 1.33836 2.57946 0
M  V30 908 H 77.5654 1.81826 1.82475 0
M  V30 909 H 77.5234 0.629595 3.08032 0
M  V30 910 N 81.2955 -0.223234 1.56011 0
M  V30 911 C 82.5435 -0.946003 1.78592 0
M  V30 912 C 82.8645 -1.84936 0.618349 0
M  V30 913 O 82.1345 -1.92473 -0.364833 0
M  V30 914 H 80.7145 -0.352298 0.658707 0
M  V30 915 H 83.3765 -0.235494 1.93472 0
M  V30 916 H 82.4725 -1.55381 2.70672 0
M  V30 917 N 82.7736 -1.49793 -0.48987 0
M  V30 918 C 83.7036 -1.70201 -1.59856 0
M  V30 919 C 84.6846 -0.55076 -1.60937 0
M  V30 920 O 85.8696 -0.787841 -1.77501 0
M  V30 921 C 82.9996 -1.77882 -2.98287 0
M  V30 922 C 81.9536 -2.92907 -3.12073 0
M  V30 923 C 81.2796 -2.85712 -4.51965 0
M  V30 924 C 82.5796 -4.3369 -2.91051 0
M  V30 925 H 84.2736 -2.63025 -1.43032 0
M  V30 926 H 81.8196 -1.26574 -0.686664 0
M  V30 927 H 83.7726 -1.90744 -3.75759 0
M  V30 928 H 82.4966 -0.816653 -3.16225 0
M  V30 929 H 81.1556 -2.79665 -2.37029 0
M  V30 930 H 80.8036 -1.8738 -4.66795 0
M  V30 931 H 80.5036 -3.62921 -4.62128 0
M  V30 932 H 82.0276 -3.00598 -5.31482 0
M  V30 933 H 83.4416 -4.47555 -3.58284 0
M  V30 934 H 81.8386 -5.12205 -3.12675 0
M  V30 935 H 82.9086 -4.47362 -1.87071 0
M  V30 936 N 84.2517 0.741722 -1.39055 0
M  V30 937 C 85.4997 1.49818 -1.35643 0
M  V30 938 C 85.8207 1.94938 0.0491642 0
M  V30 939 O 85.0907 1.68505 0.999141 0
M  V30 940 H 83.6707 0.555755 -0.499144 0
M  V30 941 H 86.3327 0.880957 -1.73854 0
M  V30 942 H 85.4287 2.38348 -2.01486 0
M  V30 943 N 85.7298 1.2412 0.971189 0
M  V30 944 C 86.6398 1.04747 2.09917 0
M  V30 945 C 87.6558 -0.0107162 1.73997 0
M  V30 946 O 88.8318 0.186714 2.00533 0
M  V30 947 C 85.8968 0.650828 3.40537 0
M  V30 948 C 84.9578 1.7851 3.90426 0
M  V30 949 C 84.1908 1.40729 5.14812 0
M  V30 950 O 84.4138 0.29557 5.69634 0
M  V30 951 O 83.3478 2.23168 5.58999 0
M  V30 952 H 87.1738 1.99304 2.29154 0
M  V30 953 H 84.7588 1.02908 1.08307 0
M  V30 954 H 86.6408 0.440992 4.19086 0
M  V30 955 H 85.3158 -0.265649 3.22608 0
M  V30 956 H 84.2228 2.04966 3.12953 0
M  V30 957 H 85.5558 2.68023 4.12825 0
M  V30 958 N 87.2079 -1.17134 1.05439 0
M  V30 959 C 88.4559 -1.87085 0.764429 0
M  V30 960 C 88.7769 -1.81584 -0.710787 0
M  V30 961 O 88.0469 -1.24349 -1.51374 0
M  V30 962 H 86.6269 -0.692627 0.279779 0
M  V30 963 H 89.2889 -1.42087 1.33406 0
M  V30 964 H 88.3849 -2.92759 1.0816 0
M  V30 965 N 88.686 -0.835752 -1.33615 0
M  V30 966 C 89.596 -0.269088 -2.33052 0
M  V30 967 C 90.612 0.603251 -1.63208 0
M  V30 968 O 91.788 0.508112 -1.94885 0
M  V30 969 C 88.853 0.549091 -3.42324 0
M  V30 970 C 87.914 -0.347156 -4.27894 0
M  V30 971 C 87.147 0.43207 -5.31948 0
M  V30 972 O 87.37 1.66409 -5.45586 0
M  V30 973 O 86.304 -0.192298 -6.01593 0
M  V30 974 H 90.13 -1.09243 -2.83372 0
M  V30 975 H 87.715 -0.598198 -1.36901 0
M  V30 976 H 89.597 1.01414 -4.09015 0
M  V30 977 H 88.272 1.34955 -2.94226 0
M  V30 978 H 87.179 -0.859979 -3.64081 0
M  V30 979 H 88.512 -1.1123 -4.79467 0
M  V30 980 N 90.1641 1.46063 -0.591896 0
M  V30 981 C 91.0741 2.34192 0.13831 0
M  V30 982 C 92.0901 1.50305 0.876608 0
M  V30 983 O 93.2661 1.8315 0.837728 0
M  V30 984 C 90.3311 3.27656 1.13326 0
M  V30 985 C 89.3921 4.27445 0.39863 0
M  V30 986 C 88.6251 5.16443 1.34618 0
M  V30 987 O 88.8481 5.08553 2.58321 0
M  V30 988 O 87.7821 5.95843 0.851768 0
M  V30 989 H 91.6081 2.98002 -0.58552 0
M  V30 990 H 89.1931 1.45188 -0.352239 0
M  V30 991 H 91.0751 3.85291 1.70671 0
M  V30 992 H 89.7501 2.6643 1.83839 0
M  V30 993 H 88.6571 3.73471 -0.216895 0
M  V30 994 H 89.9901 4.91482 -0.265709 0
M  V30 995 N 91.6422 0.330177 1.54103 0
M  V30 996 C 92.6052 -0.520144 2.2322 0
M  V30 997 C 93.6052 -1.03828 1.22786 0
M  V30 998 O 94.7952 -0.929652 1.4732 0
M  V30 999 C 91.9272 -1.72317 2.94142 0
M  V30 1000 H 93.1202 0.0841605 2.99782 0
M  V30 1001 H 90.6732 0.0813433 1.56088 0
M  V30 1002 H 91.4082 -2.36653 2.21734 0
M  V30 1003 H 91.1932 -1.35898 3.67796 0
M  V30 1004 H 92.6832 -2.3266 3.46784 0
M  V30 1005 N 93.1203 -1.57491 0.0584922 0
M  V30 1006 C 94.3693 -1.92155 -0.613146 0
M  V30 1007 C 94.6823 -0.939334 -1.71569 0
M  V30 1008 O 95.8883 -1.17829 -2.44599 0
M  V30 1009 C 94.3443 -3.41303 -1.14195 0
M  V30 1010 C 93.9523 -4.47944 -0.0711265 0
M  V30 1011 C 95.6963 -3.84988 -1.78841 0
M  V30 1012 C 93.6033 -5.88212 -0.613225 0
M  V30 1013 H 92.5333 -0.717162 -0.232796 0
M  V30 1014 H 95.1843 -1.83049 0.12857 0
M  V30 1015 H 93.5663 -3.45437 -1.93621 0
M  V30 1016 H 94.7403 -4.55408 0.702836 0
M  V30 1017 H 93.0553 -4.13644 0.478313 0
M  V30 1018 H 95.6523 -4.87159 -2.20408 0
M  V30 1019 H 95.9953 -3.21632 -2.64308 0
M  V30 1020 H 96.5283 -3.83401 -1.06059 0
M  V30 1021 H 93.2673 -6.55183 0.203978 0
M  V30 1022 H 92.7873 -5.84294 -1.35501 0
M  V30 1023 H 94.4663 -6.37687 -1.09383 0
M  V30 1024 N 94.5984 0.214957 -1.56127 0
M  V30 1025 C 95.5284 1.2695 -1.95974 0
M  V30 1026 C 96.5094 1.48539 -0.828868 0
M  V30 1027 O 97.6944 1.60611 -1.09168 0
M  V30 1028 C 94.8244 2.61794 -2.28214 0
M  V30 1029 C 93.7784 2.54851 -3.43853 0
M  V30 1030 C 93.1044 3.93785 -3.61715 0
M  V30 1031 C 94.4044 2.09065 -4.78632 0
M  V30 1032 H 96.0984 0.93846 -2.84312 0
M  V30 1033 H 93.6444 0.449996 -1.36788 0
M  V30 1034 H 95.5974 3.35731 -2.54682 0
M  V30 1035 H 94.3214 2.96599 -1.36736 0
M  V30 1036 H 92.9804 1.8337 -3.17444 0
M  V30 1037 H 92.6284 4.25908 -2.67602 0
M  V30 1038 H 92.3284 3.90019 -4.39498 0
M  V30 1039 H 93.8524 4.69374 -3.90539 0
M  V30 1040 H 95.2664 2.7275 -5.04262 0
M  V30 1041 H 93.6634 2.16346 -5.59745 0
M  V30 1042 H 94.7334 1.04315 -4.73547 0
M  V30 1043 N 96.0765 1.50051 0.48192 0
M  V30 1044 C 97.3235 1.60498 1.23477 0
M  V30 1045 C 97.6515 0.300331 1.92167 0
M  V30 1046 O 96.9065 -0.713094 1.82246 0
M  V30 1047 C 97.2055 2.72717 2.30998 0
M  V30 1048 C 96.8715 4.13572 1.79636 0
M  V30 1049 C 95.5335 4.519 1.65348 0
M  V30 1050 C 97.8855 5.01649 1.41412 0
M  V30 1051 C 95.2135 5.76057 1.11244 0
M  V30 1052 C 97.5655 6.26343 0.887538 0
M  V30 1053 C 96.2295 6.63483 0.731207 0
M  V30 1054 H 95.4995 0.587303 0.451836 0
M  V30 1055 H 98.1465 1.83948 0.532468 0
M  V30 1056 H 96.4515 2.43312 3.07094 0
M  V30 1057 H 98.1485 2.78006 2.88988 0
M  V30 1058 H 94.7385 3.83329 1.91721 0
M  V30 1059 H 98.9225 4.72679 1.51289 0
M  V30 1060 H 94.1785 6.03516 0.978686 0
M  V30 1061 H 98.3525 6.93958 0.582654 0
M  V30 1062 H 95.9795 7.59568 0.309806 0
M  V30 1063 N 97.5546 -0.734337 1.39446 0
M  V30 1064 C 98.8006 -1.49613 1.36908 0
M  V30 1065 C 99.1336 -1.94169 -0.0347829 0
M  V30 1066 O 98.4086 -1.66833 -0.999847 0
M  V30 1067 C 98.6916 -2.73534 2.34203 0
M  V30 1068 C 98.5446 -2.34993 3.83534 0
M  V30 1069 C 99.8636 -3.75635 2.29317 0
M  V30 1070 H 96.9826 -0.542714 0.498629 0
M  V30 1071 H 99.6246 -0.839597 1.70443 0
M  V30 1072 H 97.7746 -3.29553 2.05736 0
M  V30 1073 H 99.4466 -1.84601 4.22753 0
M  V30 1074 H 97.6896 -1.67213 4.00278 0
M  V30 1075 H 98.3606 -3.23738 4.47099 0
M  V30 1076 H 100.837 -3.29203 2.54489 0
M  V30 1077 H 99.7126 -4.60008 2.99472 0
M  V30 1078 H 99.9736 -4.22603 1.29842 0
M  V30 1079 N 99.0327 -1.24633 -0.964593 0
M  V30 1080 C 99.9797 -1.04144 -2.05968 0
M  V30 1081 C 100.95 0.046262 -1.66036 0
M  V30 1082 O 102.135 -0.108972 -1.90489 0
M  V30 1083 C 99.2747 -0.65563 -3.38815 0
M  V30 1084 C 98.3877 -1.81714 -3.91923 0
M  V30 1085 C 97.5227 -1.37662 -5.13052 0
M  V30 1086 C 96.5617 -2.50788 -5.58365 0
M  V30 1087 N 95.6987 -2.07582 -6.70712 0
M  V30 1088 H 100.539 -1.9787 -2.22827 0
M  V30 1089 H 98.0757 -0.9855 -1.09208 0
M  V30 1090 H 100.034 -0.412954 -4.15151 0
M  V30 1091 H 98.6637 0.244627 -3.21872 0
M  V30 1092 H 97.7157 -2.1734 -3.12198 0
M  V30 1093 H 99.0277 -2.66705 -4.21509 0
M  V30 1094 H 98.1817 -1.093 -5.96773 0
M  V30 1095 H 96.9207 -0.497293 -4.85158 0
M  V30 1096 H 95.9257 -2.79906 -4.73215 0
M  V30 1097 H 97.1507 -3.39283 -5.88272 0
M  V30 1098 H 95.0967 -1.22051 -6.44546 0
M  V30 1099 H 95.0137 -2.86125 -6.99763 0
M  V30 1100 H 96.2817 -1.82369 -7.57867 0
M  V30 1101 N 100.511 1.16574 -1.06058 0
M  V30 1102 C 101.458 2.20883 -0.669263 0
M  V30 1103 C 102.428 1.62729 0.332918 0
M  V30 1104 O 103.613 1.895 0.222346 0
M  V30 1105 C 100.753 3.45049 -0.0593572 0
M  V30 1106 C 99.8658 4.17458 -1.11143 0
M  V30 1107 C 99.0008 5.29135 -0.467916 0
M  V30 1108 C 98.0398 5.93343 -1.50369 0
M  V30 1109 N 97.1768 6.96516 -0.883706 0
M  V30 1110 H 102.017 2.53709 -1.5632 0
M  V30 1111 H 99.5538 1.24616 -0.781625 0
M  V30 1112 H 101.512 4.16033 0.311771 0
M  V30 1113 H 100.142 3.12781 0.797992 0
M  V30 1114 H 99.1938 3.45101 -1.60029 0
M  V30 1115 H 100.506 4.61307 -1.89731 0
M  V30 1116 H 99.6598 6.06684 -0.0436871 0
M  V30 1117 H 98.3988 4.86443 0.349864 0
M  V30 1118 H 97.4038 5.14517 -1.93784 0
M  V30 1119 H 98.6288 6.38114 -2.32352 0
M  V30 1120 H 96.5748 6.55943 -0.086595 0
M  V30 1121 H 96.4918 7.38723 -1.607 0
M  V30 1122 H 97.7598 7.77993 -0.484543 0
M  V30 1123 N 101.989 0.842826 1.3317 0
M  V30 1124 C 102.952 0.284065 2.27433 0
M  V30 1125 C 103.952 -0.54948 1.5112 0
M  V30 1126 O 105.142 -0.362699 1.70382 0
M  V30 1127 C 102.274 -0.599384 3.35589 0
M  V30 1128 H 103.467 1.11589 2.78366 0
M  V30 1129 H 101.02 0.616221 1.4364 0
M  V30 1130 H 101.755 -1.45349 2.89904 0
M  V30 1131 H 101.54 -0.00291266 3.921 0
M  V30 1132 H 103.03 -0.983488 4.05854 0
M  V30 1133 N 103.467 -1.45747 0.599634 0
M  V30 1134 C 104.715 -2.01893 0.0915472 0
M  V30 1135 C 105.036 -1.47155 -1.27946 0
M  V30 1136 O 104.306 -0.66273 -1.84349 0
M  V30 1137 H 102.886 -0.746363 0.0308524 0
M  V30 1138 H 105.548 -1.78645 0.779237 0
M  V30 1139 H 104.644 -3.1208 0.0353086 0
M  V30 1140 N 104.945 -0.338344 -1.53925 0
M  V30 1141 C 105.908 0.508299 -2.23493 0
M  V30 1142 C 106.908 1.03175 -1.23335 0
M  V30 1143 O 108.098 0.921826 -1.47811 0
M  V30 1144 C 105.23 1.70754 -2.95052 0
M  V30 1145 H 106.423 -0.100058 -2.99733 0
M  V30 1146 H 103.976 -0.0896198 -1.56043 0
M  V30 1147 H 104.711 2.35474 -2.22986 0
M  V30 1148 H 104.496 1.33946 -3.68512 0
M  V30 1149 H 105.986 2.30818 -3.48013 0
M  V30 1150 N 106.423 1.57458 -0.0668435 0
M  V30 1151 C 107.7 1.8469 0.644132 0
M  V30 1152 C 108.08 0.958343 1.88093 0
M  V30 1153 O 107.428 0.0233579 2.28488 0
M  V30 1154 C 107.638 3.34767 0.986509 0
M  V30 1155 C 108.986 4.02159 1.36212 0
M  V30 1156 O 110.01 3.39484 1.07839 0
M  V30 1157 O 108.869 5.12694 1.89227 0
M  V30 1158 H 105.963 0.762816 0.319437 0
M  V30 1159 H 108.509 1.6942 -0.0973986 0
M  V30 1160 H 107.281 3.91151 0.107883 0
M  V30 1161 H 106.904 3.55281 1.78497 0
M  V30 1162 N 107.901 -0.206675 1.56239 0
M  V30 1163 C 109.149 -0.927007 1.79586 0
M  V30 1164 C 109.47 -1.8427 0.637929 0
M  V30 1165 O 108.74 -1.92849 -0.344398 0
M  V30 1166 H 107.32 -0.345292 0.662407 0
M  V30 1167 H 109.982 -0.21496 1.93711 0
M  V30 1168 H 109.078 -1.52501 2.72305 0
M  V30 1169 N 109.379 -1.50304 -0.473955 0
M  V30 1170 C 110.628 -1.60392 -1.22301 0
M  V30 1171 C 110.941 -0.308411 -1.93153 0
M  V30 1172 O 112.147 -0.288156 -2.69966 0
M  V30 1173 C 110.603 -2.83109 -2.2221 0
M  V30 1174 C 110.211 -4.19524 -1.57173 0
M  V30 1175 C 111.955 -3.0254 -2.97775 0
M  V30 1176 C 109.862 -5.33431 -2.55353 0
M  V30 1177 H 108.792 -0.597286 -0.460179 0
M  V30 1178 H 111.443 -1.76731 -0.493803 0
M  V30 1179 H 109.825 -2.60322 -2.9841 0
M  V30 1180 H 110.999 -4.52554 -0.867824 0
M  V30 1181 H 109.314 -4.05674 -0.939002 0
M  V30 1182 H 111.911 -3.84811 -3.71248 0
M  V30 1183 H 112.254 -2.14154 -3.56992 0
M  V30 1184 H 112.787 -3.25494 -2.28688 0
M  V30 1185 H 109.526 -6.23962 -2.00878 0
M  V30 1186 H 109.046 -5.04823 -3.23904 0
M  V30 1187 H 110.725 -5.63887 -3.17239 0
M  V30 1188 N 110.857 0.726932 -1.39834 0
M  V30 1189 C 112.106 1.48214 -1.36805 0
M  V30 1190 C 112.419 1.95576 0.0305291 0
M  V30 1191 O 113.625 2.7088 0.183417 0
M  V30 1192 C 112.081 2.67854 -2.40379 0
M  V30 1193 C 111.689 2.27408 -3.85992 0
M  V30 1194 C 113.433 3.45641 -2.46439 0
M  V30 1195 C 111.34 3.43819 -4.81189 0
M  V30 1196 H 110.27 0.556606 -0.508631 0
M  V30 1197 H 112.921 0.792216 -1.65518 0
M  V30 1198 H 111.303 3.3896 -2.04749 0
M  V30 1199 H 112.477 1.63795 -4.30706 0
M  V30 1200 H 110.792 1.62692 -3.83302 0
M  V30 1201 H 113.389 4.32244 -3.14753 0
M  V30 1202 H 113.732 3.88669 -1.49139 0
M  V30 1203 H 114.265 2.8157 -2.81004 0
M  V30 1204 H 111.004 3.05834 -5.79781 0
M  V30 1205 H 110.524 4.06385 -4.41148 0
M  V30 1206 H 112.203 4.10043 -5.00474 0
M  V30 1207 N 112.336 1.25143 0.95797 0
M  V30 1208 C 113.564 1.12424 1.73691 0
M  V30 1209 C 113.979 -0.322304 1.86029 0
M  V30 1210 O 113.336 -1.22186 1.35561 0
M  V30 1211 C 113.387 1.76933 3.15241 0
M  V30 1212 O 113.108 3.15932 3.03511 0
M  V30 1213 C 114.609 1.6995 4.09429 0
M  V30 1214 H 111.829 0.3923 0.544373 0
M  V30 1215 H 114.373 1.6544 1.20207 0
M  V30 1216 H 112.528 1.27895 3.6568 0
M  V30 1217 H 112.942 3.47598 3.9278 0
M  V30 1218 H 114.416 2.19753 5.06372 0
M  V30 1219 H 114.893 0.662619 4.34173 0
M  V30 1220 H 115.499 2.18461 3.64904 0
M  V30 1221 N 113.814 -1.1601 1.06675 0
M  V30 1222 C 115.063 -1.85973 0.780818 0
M  V30 1223 C 115.376 -1.82819 -0.695444 0
M  V30 1224 O 116.582 -2.484 -1.09589 0
M  V30 1225 C 115.038 -3.33757 1.34665 0
M  V30 1226 C 114.646 -3.45374 2.85343 0
M  V30 1227 C 116.39 -4.0895 1.13843 0
M  V30 1228 C 114.297 -4.87266 3.35151 0
M  V30 1229 H 113.227 -0.696661 0.288407 0
M  V30 1230 H 115.878 -1.30903 1.28595 0
M  V30 1231 H 114.26 -3.88456 0.769274 0
M  V30 1232 H 115.434 -3.00816 3.49065 0
M  V30 1233 H 113.749 -2.83619 3.04876 0
M  V30 1234 H 116.346 -5.13654 1.4854 0
M  V30 1235 H 116.689 -4.16229 0.0770282 0
M  V30 1236 H 117.222 -3.605 1.68179 0
M  V30 1237 H 113.961 -4.85168 4.40786 0
M  V30 1238 H 113.481 -5.32433 2.76179 0
M  V30 1239 H 115.16 -5.56097 3.30704 0
M  V30 1240 N 115.292 -0.849877 -1.32721 0
M  V30 1241 C 116.239 -0.289033 -2.28983 0
M  V30 1242 C 117.209 0.601324 -1.54833 0
M  V30 1243 O 118.394 0.537253 -1.8308 0
M  V30 1244 C 115.534 0.520623 -3.4115 0
M  V30 1245 C 114.647 -0.394989 -4.3019 0
M  V30 1246 C 113.782 0.426834 -5.29482 0
M  V30 1247 C 112.821 -0.486476 -6.10164 0
M  V30 1248 N 111.958 0.297879 -7.01468 0
M  V30 1249 H 116.798 -1.11519 -2.76347 0
M  V30 1250 H 114.335 -0.56138 -1.35967 0
M  V30 1251 H 116.293 1.00563 -4.04899 0
M  V30 1252 H 114.923 1.31165 -2.9495 0
M  V30 1253 H 113.975 -0.99836 -3.67065 0
M  V30 1254 H 115.287 -1.09612 -4.86607 0
M  V30 1255 H 114.441 0.975205 -5.98811 0
M  V30 1256 H 113.18 1.16136 -4.73671 0
M  V30 1257 H 112.185 -1.04677 -5.39743 0
M  V30 1258 H 113.41 -1.21953 -6.6806 0
M  V30 1259 H 111.356 1.01558 -6.48091 0
M  V30 1260 H 111.273 -0.344318 -7.55216 0
M  V30 1261 H 112.541 0.828131 -7.75089 0
M  V30 1262 N 116.77 1.45427 -0.607355 0
M  V30 1263 C 118.181 1.85756 -0.187535 0
M  V30 1264 C 118.532 1.5077 1.25551 0
M  V30 1265 O 117.657 0.93427 1.95193 0
M  V30 1266 C 118.252 3.37154 -0.333572 0
M  V30 1267 C 116.811 3.76387 0.0315542 0
M  V30 1268 C 115.958 2.69377 -0.658117 0
M  V30 1269 H 118.909 1.36231 -0.81405 0
M  V30 1270 H 118.93 3.78014 0.43428 0
M  V30 1271 H 118.442 3.62586 -1.38393 0
M  V30 1272 H 116.543 3.56571 1.0811 0
M  V30 1273 H 116.656 4.77731 -0.361935 0
M  V30 1274 H 115.02 2.5452 -0.0957873 0
M  V30 1275 H 115.803 2.97646 -1.7106 0
M  V30 1276 N 118.248 0.346503 1.53744 0
M  V30 1277 C 119.195 -0.508914 2.25119 0
M  V30 1278 C 120.165 -1.09315 1.25058 0
M  V30 1279 O 121.35 -1.12921 1.53797 0
M  V30 1280 C 118.49 -1.65246 3.02965 0
M  V30 1281 C 117.603 -1.09525 4.17886 0
M  V30 1282 C 116.738 -2.20634 4.83212 0
M  V30 1283 C 115.777 -1.62279 5.90196 0
M  V30 1284 N 114.914 -2.67143 6.49291 0
M  V30 1285 H 119.754 0.106283 2.9781 0
M  V30 1286 H 117.291 0.0642227 1.4696 0
M  V30 1287 H 119.249 -2.32574 3.4636 0
M  V30 1288 H 117.879 -2.2386 2.32565 0
M  V30 1289 H 116.931 -0.312818 3.79112 0
M  V30 1290 H 118.243 -0.628444 4.94825 0
M  V30 1291 H 117.397 -2.95821 5.29693 0
M  V30 1292 H 116.136 -2.70659 4.05703 0
M  V30 1293 H 115.141 -0.855989 5.43096 0
M  V30 1294 H 116.366 -1.13102 6.69615 0
M  V30 1295 H 114.312 -3.16417 5.74645 0
M  V30 1296 H 114.229 -2.25093 7.21713 0
M  V30 1297 H 115.497 -3.4209 7.00425 0
M  V30 1298 N 119.726 -1.57421 0.075193 0
M  V30 1299 C 120.674 -2.14124 -0.908508 0
M  V30 1300 C 121.668 -1.07898 -1.30592 0
M  V30 1301 O 122.874 -1.26273 -1.28277 0
M  V30 1302 H 119.249 -0.684707 -0.310935 0
M  V30 1303 H 121.22 -2.95634 -0.405374 0
M  V30 1304 C 119.969 -2.72044 -2.16535 0
M  V30 1305 H 119.292 -3.53456 -1.86839 0
M  V30 1306 H 120.732 -3.15311 -2.83469 0
M  V30 1307 C 119.191 -1.66968 -2.92615 0
M  V30 1308 O 119.721 -1.0967 -3.86439 0
M  V30 1309 N 117.927 -1.37923 -2.55784 0
M  V30 1310 H 117.474 -1.84706 -1.79559 0
M  V30 1311 H 117.432 -0.67852 -3.06991 0
M  V30 1312 N 121.204 0.198386 -1.56346 0
M  V30 1313 C 122.434 0.934215 -1.84271 0
M  V30 1314 C 122.842 1.77496 -0.655125 0
M  V30 1315 O 122.185 1.7961 0.385488 0
M  V30 1316 C 122.247 1.88278 -3.06254 0
M  V30 1317 C 121.911 1.22431 -4.40295 0
M  V30 1318 C 122.908 0.602839 -5.16393 0
M  V30 1319 C 120.593 1.22915 -4.87029 0
M  V30 1320 C 122.587 -0.0050083 -6.374 0
M  V30 1321 C 120.274 0.617465 -6.07973 0
M  V30 1322 C 121.272 0.00146341 -6.83 0
M  V30 1323 O 120.96 -0.600642 -8.01653 0
M  V30 1324 H 120.692 0.278245 -0.616081 0
M  V30 1325 H 123.246 0.211626 -2.04307 0
M  V30 1326 H 121.476 2.64498 -2.82095 0
M  V30 1327 H 123.165 2.48612 -3.20853 0
M  V30 1328 H 123.931 0.591265 -4.81382 0
M  V30 1329 H 119.81 1.69801 -4.28589 0
M  V30 1330 H 123.354 -0.48643 -6.95902 0
M  V30 1331 H 119.251 0.62653 -6.42452 0
M  V30 1332 H 120.019 -0.497225 -8.16988 0
M  V30 1333 N 122.682 1.50554 0.465978 0
M  V30 1334 C 123.928 1.62038 1.21949 0
M  V30 1335 C 124.261 0.322116 1.9151 0
M  V30 1336 O 123.536 -0.676723 1.82348 0
M  V30 1337 C 123.819 2.80421 2.25912 0
M  V30 1338 C 123.672 4.20144 1.60622 0
M  V30 1339 C 124.991 2.94354 3.27176 0
M  V30 1340 H 122.11 0.589752 0.441998 0
M  V30 1341 H 124.752 1.82956 0.51257 0
M  V30 1342 H 122.902 2.62717 2.86203 0
M  V30 1343 H 124.574 4.49449 1.03889 0
M  V30 1344 H 122.817 4.24165 0.909211 0
M  V30 1345 H 123.488 4.98914 2.36196 0
M  V30 1346 H 125.964 3.10578 2.76913 0
M  V30 1347 H 124.84 3.788 3.97242 0
M  V30 1348 H 125.101 2.05186 3.916 0
M  V30 1349 N 124.16 -0.719506 1.40217 0
M  V30 1350 C 125.406 -1.48152 1.38488 0
M  V30 1351 C 125.739 -1.94195 -0.0141867 0
M  V30 1352 O 125.014 -1.67884 -0.982096 0
M  V30 1353 C 125.297 -2.71035 2.37091 0
M  V30 1354 C 125.15 -2.30912 3.86005 0
M  V30 1355 C 126.469 -3.73182 2.33288 0
M  V30 1356 H 123.588 -0.537395 0.504357 0
M  V30 1357 H 126.23 -0.821472 1.71324 0
M  V30 1358 H 124.38 -3.27352 2.0922 0
M  V30 1359 H 126.052 -1.80107 4.24687 0
M  V30 1360 H 124.295 -1.62958 4.02029 0
M  V30 1361 H 124.966 -3.18978 4.50508 0
M  V30 1362 H 127.442 -3.26485 2.57966 0
M  V30 1363 H 126.318 -4.56806 3.04334 0
M  V30 1364 H 126.579 -4.21202 1.34317 0
M  V30 1365 N 125.638 -1.25649 -0.95132 0
M  V30 1366 C 126.601 -1.06399 -2.03007 0
M  V30 1367 C 127.601 -0.0156794 -1.60792 0
M  V30 1368 O 128.791 -0.25817 -1.72276 0
M  V30 1369 C 125.923 -0.616184 -3.35285 0
M  V30 1370 H 127.116 -2.02164 -2.21517 0
M  V30 1371 H 124.669 -1.08103 -1.12887 0
M  V30 1372 H 125.404 0.343917 -3.22471 0
M  V30 1373 H 125.189 -1.37301 -3.67275 0
M  V30 1374 H 126.679 -0.503032 -4.14559 0
M  V30 1375 N 127.117 1.15442 -1.07289 0
M  V30 1376 C 128.064 2.20161 -0.692653 0
M  V30 1377 C 129.034 1.63073 0.31564 0
M  V30 1378 O 130.219 1.89725 0.202235 0
M  V30 1379 C 127.359 3.44967 -0.0959509 0
M  V30 1380 C 126.472 4.16256 -1.15564 0
M  V30 1381 C 125.607 5.28609 -0.524011 0
M  V30 1382 C 124.646 5.91715 -1.56653 0
M  V30 1383 N 123.783 6.9554 -0.957531 0
M  V30 1384 H 128.623 2.52037 -1.59002 0
M  V30 1385 H 126.16 1.2378 -0.794798 0
M  V30 1386 H 128.118 4.16341 0.267628 0
M  V30 1387 H 126.748 3.1361 0.764772 0
M  V30 1388 H 125.8 3.43385 -1.6368 0
M  V30 1389 H 127.112 4.59268 -1.94613 0
M  V30 1390 H 126.266 6.06604 -0.108032 0
M  V30 1391 H 125.005 4.86787 0.29825 0
M  V30 1392 H 124.01 5.12433 -1.9923 0
M  V30 1393 H 125.235 6.35614 -2.39107 0
M  V30 1394 H 123.181 6.55814 -0.156162 0
M  V30 1395 H 123.098 7.36977 -1.68526 0
M  V30 1396 H 124.366 7.77435 -0.567032 0
M  V30 1397 N 128.595 0.856903 1.32268 0
M  V30 1398 C 129.542 0.301172 2.28827 0
M  V30 1399 C 130.512 -0.593104 1.5515 0
M  V30 1400 O 131.697 -0.527537 1.83362 0
M  V30 1401 C 128.837 -0.502523 3.41422 0
M  V30 1402 C 127.95 0.417797 4.29975 0
M  V30 1403 C 127.085 -0.398749 5.29701 0
M  V30 1404 C 126.124 0.518827 6.09897 0
M  V30 1405 N 125.261 -0.260674 7.01616 0
M  V30 1406 H 130.101 1.12983 2.75751 0
M  V30 1407 H 127.638 0.568582 1.35667 0
M  V30 1408 H 129.596 -0.984141 4.05426 0
M  V30 1409 H 128.226 -1.29599 2.95642 0
M  V30 1410 H 127.278 1.01781 3.66531 0
M  V30 1411 H 128.59 1.12191 4.86019 0
M  V30 1412 H 127.744 -0.943435 5.9932 0
M  V30 1413 H 126.483 -1.13622 4.7428 0
M  V30 1414 H 125.488 1.07538 5.39181 0
M  V30 1415 H 126.713 1.25495 6.67404 0
M  V30 1416 H 124.659 -0.981198 6.4862 0
M  V30 1417 H 124.576 0.384364 7.55022 0
M  V30 1418 H 125.844 -0.787014 7.75517 0
M  V30 1419 N 130.073 -1.45103 0.615059 0
M  V30 1420 C 131.021 -2.32331 -0.111791 0
M  V30 1421 C 132.015 -1.46409 -0.852102 0
M  V30 1422 O 133.221 -1.62849 -0.766821 0
M  V30 1423 H 129.596 -0.749993 -0.0549072 0
M  V30 1424 H 131.567 -2.91407 0.642225 0
M  V30 1425 C 130.316 -3.3015 -1.09071 0
M  V30 1426 H 129.639 -3.96265 -0.530485 0
M  V30 1427 H 131.079 -3.93898 -1.56908 0
M  V30 1428 C 129.538 -2.57875 -2.168 0
M  V30 1429 O 130.068 -2.36567 -3.24652 0
M  V30 1430 N 128.274 -2.17884 -1.92289 0
M  V30 1431 H 127.821 -2.35413 -1.04587 0
M  V30 1432 H 127.779 -1.6985 -2.64572 0
M  V30 1433 N 131.551 -0.354651 -1.53558 0
M  V30 1434 C 132.799 0.237972 -2.00694 0
M  V30 1435 C 133.12 1.50173 -1.24391 0
M  V30 1436 O 132.39 1.92673 -0.354135 0
M  V30 1437 H 130.97 0.0909256 -0.741446 0
M  V30 1438 H 133.632 -0.478368 -1.88938 0
M  V30 1439 H 132.728 0.47264 -3.085 0
M  V30 1440 N 133.029 1.57378 -0.0835403 0
M  V30 1441 C 134.278 1.93106 0.582498 0
M  V30 1442 C 134.591 0.96651 1.70053 0
M  V30 1443 O 135.797 1.21705 2.42693 0
M  V30 1444 C 134.253 3.43076 1.08751 0
M  V30 1445 C 133.861 4.48 -0.000146404 0
M  V30 1446 C 135.605 3.87785 1.72694 0
M  V30 1447 C 133.512 5.89113 0.519568 0
M  V30 1448 H 132.442 0.720775 0.221358 0
M  V30 1449 H 135.093 1.82821 -0.157675 0
M  V30 1450 H 133.475 3.48474 1.88101 0
M  V30 1451 H 134.649 4.54233 -0.775199 0
M  V30 1452 H 132.964 4.1283 -0.54406 0
M  V30 1453 H 135.561 4.90604 2.1263 0
M  V30 1454 H 135.904 3.25796 2.59158 0
M  V30 1455 H 136.437 3.8504 0.999457 0
M  V30 1456 H 133.176 6.54775 -0.308186 0
M  V30 1457 H 132.696 5.86376 1.26188 0
M  V30 1458 H 134.375 6.39346 0.992237 0
M  V30 1459 N 134.507 -0.190092 1.56449 0
M  V30 1460 C 135.918 -0.754312 1.70784 0
M  V30 1461 C 136.269 -1.83631 0.690951 0
M  V30 1462 O 135.394 -2.15868 -0.151604 0
M  V30 1463 C 135.989 -1.37503 3.09642 0
M  V30 1464 C 134.548 -1.88628 3.25725 0
M  V30 1465 C 133.695 -0.758098 2.66736 0
M  V30 1466 H 136.646 0.0350524 1.58661 0
M  V30 1467 H 136.667 -2.2445 3.0725 0
M  V30 1468 H 136.179 -0.587302 3.83631 0
M  V30 1469 H 134.28 -2.70103 2.56661 0
M  V30 1470 H 134.393 -2.04462 4.3328 0
M  V30 1471 H 132.757 -1.17369 2.26046 0
M  V30 1472 H 133.54 0.0174705 3.43296 0
M  V30 1473 N 135.985 -1.50799 -0.457987 0
M  V30 1474 C 136.948 -1.7005 -1.53674 0
M  V30 1475 C 137.948 -0.570881 -1.50325 0
M  V30 1476 O 139.138 -0.838126 -1.52712 0
M  V30 1477 C 136.27 -1.73788 -2.93276 0
M  V30 1478 H 137.463 -2.66306 -1.37917 0
M  V30 1479 H 135.016 -1.40477 -0.685271 0
M  V30 1480 H 135.751 -0.792717 -3.14462 0
M  V30 1481 H 135.536 -2.55864 -2.97113 0
M  V30 1482 H 137.026 -1.90591 -3.71571 0
M  V30 1483 N 137.463 0.71206 -1.40597 0
M  V30 1484 C 138.709 1.47416 -1.39271 0
M  V30 1485 C 139.042 1.942 0.00388791 0
M  V30 1486 O 138.317 1.68403 0.973179 0
M  V30 1487 C 138.6 2.69774 -2.38525 0
M  V30 1488 C 138.453 2.28861 -3.87224 0
M  V30 1489 C 139.772 3.71939 -2.35264 0
M  V30 1490 H 136.891 0.534713 -0.5072 0
M  V30 1491 H 139.533 0.812375 -1.71757 0
M  V30 1492 H 137.683 3.26238 -2.10953 0
M  V30 1493 H 139.355 1.77852 -4.25636 0
M  V30 1494 H 137.598 1.60824 -4.02887 0
M  V30 1495 H 138.269 3.16584 -4.52193 0
M  V30 1496 H 140.745 3.25113 -2.59694 0
M  V30 1497 H 139.621 4.55186 -3.06753 0
M  V30 1498 H 139.882 4.20484 -1.36549 0
M  V30 1499 N 138.941 1.26152 0.944643 0
M  V30 1500 C 139.871 1.09902 2.06019 0
M  V30 1501 C 140.852 0.00519538 1.70099 0
M  V30 1502 O 142.037 0.176583 1.93396 0
M  V30 1503 C 139.167 0.727562 3.39594 0
M  V30 1504 C 138.121 1.77274 3.89561 0
M  V30 1505 C 137.447 1.25569 5.19747 0
M  V30 1506 C 138.747 3.17357 4.14827 0
M  V30 1507 H 140.441 2.03217 2.19871 0
M  V30 1508 H 137.987 0.978452 1.05652 0
M  V30 1509 H 139.94 0.600777 4.17095 0
M  V30 1510 H 138.664 -0.241287 3.25707 0
M  V30 1511 H 137.323 1.88814 3.14237 0
M  V30 1512 H 136.971 0.276783 5.02238 0
M  V30 1513 H 136.671 1.95433 5.54148 0
M  V30 1514 H 138.195 1.1415 5.99835 0
M  V30 1515 H 139.609 3.08914 4.82954 0
M  V30 1516 H 138.006 3.84781 4.60504 0
M  V30 1517 H 139.076 3.63673 3.20734 0
M  V30 1518 N 140.419 -1.14872 1.07899 0
M  V30 1519 C 141.835 -1.37776 0.805606 0
M  V30 1520 C 142.035 -1.92743 -0.587555 0
M  V30 1521 O 141.091 -2.13678 -1.34528 0
M  V30 1522 C 142.404 -2.34361 1.88402 0
M  V30 1523 C 143.952 -2.48012 1.90942 0
M  V30 1524 C 144.427 -3.47893 2.97883 0
M  V30 1525 N 145.918 -3.55433 2.97021 0
M  V30 1526 C 146.653 -4.32553 3.76412 0
M  V30 1527 N 146.149 -5.12959 4.65666 0
M  V30 1528 N 147.942 -4.27697 3.64735 0
M  V30 1529 H 140.093 -0.775365 1.97742 0
M  V30 1530 H 142.356 -0.403521 0.857831 0
M  V30 1531 H 142.062 -2.01098 2.88535 0
M  V30 1532 H 141.936 -3.34206 1.74889 0
M  V30 1533 H 144.323 -2.8057 0.914579 0
M  V30 1534 H 144.404 -1.48147 2.08534 0
M  V30 1535 H 144.048 -3.16069 3.97571 0
M  V30 1536 H 143.978 -4.47527 2.77538 0
M  V30 1537 H 146.469 -2.98048 2.32326 0
M  V30 1538 H 146.782 -5.69065 5.22862 0
M  V30 1539 H 145.127 -5.12245 4.69712 0
M  V30 1540 H 148.318 -3.63949 2.94378 0
M  V30 1541 H 148.491 -4.8755 4.26848 0
M  V30 1542 N 141.898 -0.863906 -1.31812 0
M  V30 1543 C 143.145 -0.471836 -1.96926 0
M  V30 1544 C 143.473 0.974578 -1.68322 0
M  V30 1545 O 142.728 1.7003 -0.968933 0
M  V30 1546 C 143.027 -0.668547 -3.51091 0
M  V30 1547 C 142.693 -2.08683 -3.99703 0
M  V30 1548 C 141.355 -2.47471 -4.12688 0
M  V30 1549 C 143.707 -3.01207 -4.25351 0
M  V30 1550 C 141.035 -3.78037 -4.4867 0
M  V30 1551 C 143.387 -4.31282 -4.62794 0
M  V30 1552 C 142.051 -4.69992 -4.73987 0
M  V30 1553 H 141.321 -0.172657 -0.720604 0
M  V30 1554 H 143.968 -1.09573 -1.57054 0
M  V30 1555 H 142.273 0.0385252 -3.91781 0
M  V30 1556 H 143.97 -0.345102 -3.99512 0
M  V30 1557 H 140.56 -1.77566 -3.90087 0
M  V30 1558 H 144.744 -2.72469 -4.14819 0
M  V30 1559 H 140 -4.078 -4.55532 0
M  V30 1560 H 144.174 -5.03031 -4.81594 0
M  V30 1561 H 141.801 -5.71207 -5.01624 0
M  V30 1562 N 143.376 1.44774 -0.622745 0
M  V30 1563 C 144.623 2.02121 -0.1239 0
M  V30 1564 C 144.951 1.48915 1.25118 0
M  V30 1565 O 144.206 0.660045 1.84233 0
M  V30 1566 C 144.505 3.57364 -0.0508323 0
M  V30 1567 C 144.171 4.29787 -1.36358 0
M  V30 1568 C 142.833 4.4929 -1.72314 0
M  V30 1569 C 145.185 4.71062 -2.23048 0
M  V30 1570 C 142.513 5.07325 -2.94682 0
M  V30 1571 C 144.865 5.30452 -3.44679 0
M  V30 1572 C 143.529 5.48175 -3.80868 0
M  V30 1573 H 142.799 0.739612 -0.0453381 0
M  V30 1574 H 145.446 1.73648 -0.807389 0
M  V30 1575 H 143.751 3.85202 0.715991 0
M  V30 1576 H 145.448 3.99456 0.351533 0
M  V30 1577 H 142.038 4.14932 -1.07375 0
M  V30 1578 H 146.222 4.55715 -1.96565 0
M  V30 1579 H 141.478 5.19235 -3.22809 0
M  V30 1580 H 145.652 5.61385 -4.12092 0
M  V30 1581 H 143.279 5.92912 -4.75773 0
M  V30 1582 N 144.854 0.36279 1.53368 0
M  V30 1583 C 145.817 -0.472679 2.24273 0
M  V30 1584 C 146.817 -1.012 1.24961 0
M  V30 1585 O 148.007 -0.898194 1.49259 0
M  V30 1586 C 145.139 -1.66039 2.97731 0
M  V30 1587 H 146.332 0.14773 2.99536 0
M  V30 1588 H 143.885 0.114434 1.55881 0
M  V30 1589 H 144.62 -2.31896 2.26704 0
M  V30 1590 H 144.405 -1.28066 3.70596 0
M  V30 1591 H 145.895 -2.25252 3.51641 0
M  V30 1592 N 146.332 -1.57332 0.0918853 0
M  V30 1593 C 147.262 -2.16872 -0.865371 0
M  V30 1594 C 148.243 -1.10118 -1.29646 0
M  V30 1595 O 149.428 -1.38242 -1.36392 0
M  V30 1596 C 146.558 -2.74649 -2.12569 0
M  V30 1597 C 145.512 -3.86747 -1.83333 0
M  V30 1598 C 144.838 -4.31212 -3.16166 0
M  V30 1599 C 146.138 -5.10089 -1.1228 0
M  V30 1600 H 147.832 -2.97114 -0.369307 0
M  V30 1601 H 145.378 -1.42918 -0.176194 0
M  V30 1602 H 147.331 -3.14952 -2.7997 0
M  V30 1603 H 146.055 -1.91657 -2.64452 0
M  V30 1604 H 144.714 -3.46978 -1.18331 0
M  V30 1605 H 144.362 -3.45115 -3.6593 0
M  V30 1606 H 144.062 -5.06788 -2.97388 0
M  V30 1607 H 145.586 -4.74146 -3.84731 0
M  V30 1608 H 147 -5.47582 -1.69785 0
M  V30 1609 H 145.397 -5.91073 -1.03693 0
M  V30 1610 H 146.467 -4.84786 -0.105041 0
M  V30 1611 N 147.81 0.181792 -1.56548 0
M  V30 1612 C 149.087 0.926765 -1.72251 0
M  V30 1613 C 149.467 2.00831 -0.650386 0
M  V30 1614 O 148.815 2.26008 0.336521 0
M  V30 1615 C 149.025 1.50106 -3.1507 0
M  V30 1616 C 150.373 1.97805 -3.75711 0
M  V30 1617 O 151.397 1.59922 -3.18282 0
M  V30 1618 O 150.256 2.67555 -4.76525 0
M  V30 1619 H 147.35 0.435506 -0.703039 0
M  V30 1620 H 149.896 0.170443 -1.68842 0
M  V30 1621 H 148.668 0.72212 -3.84579 0
M  V30 1622 H 148.291 2.32186 -3.22763 0
M  V30 1623 N 149.288 1.51039 0.449983 0
M  V30 1624 C 150.513 1.6715 1.22783 0
M  V30 1625 C 150.938 0.363081 1.84563 0
M  V30 1626 O 150.296 -0.675433 1.68249 0
M  V30 1627 C 150.344 2.77985 2.29689 0
M  V30 1628 O 149.448 2.40707 3.34864 0
M  V30 1629 H 148.789 0.557746 0.360299 0
M  V30 1630 H 151.319 1.97535 0.533005 0
M  V30 1631 H 151.329 3.01693 2.74673 0
M  V30 1632 H 150.004 3.72935 1.84098 0
M  V30 1633 H 148.581 2.27523 2.95445 0
M  V30 1634 N 150.766 -0.704594 1.40972 0
M  V30 1635 C 151.713 -1.81862 1.42109 0
M  V30 1636 C 152.683 -1.63781 0.276593 0
M  V30 1637 O 153.868 -1.84759 0.4763 0
M  V30 1638 C 151.008 -3.19669 1.30022 0
M  V30 1639 C 150.121 -3.49246 2.54267 0
M  V30 1640 C 149.256 -4.76618 2.3454 0
M  V30 1641 C 148.295 -4.99133 3.54306 0
M  V30 1642 N 147.432 -6.17726 3.33706 0
M  V30 1643 H 152.272 -1.80226 2.37324 0
M  V30 1644 H 149.809 -0.880238 1.17857 0
M  V30 1645 H 151.767 -3.99263 1.21018 0
M  V30 1646 H 150.397 -3.20506 0.384192 0
M  V30 1647 H 149.449 -2.64125 2.73756 0
M  V30 1648 H 150.761 -3.61788 3.43381 0
M  V30 1649 H 149.915 -5.64249 2.22952 0
M  V30 1650 H 148.654 -4.66305 1.42867 0
M  V30 1651 H 147.659 -4.09953 3.66359 0
M  V30 1652 H 148.884 -5.11311 4.4692 0
M  V30 1653 H 146.83 -6.08642 2.44725 0
M  V30 1654 H 146.747 -6.30995 4.16391 0
M  V30 1655 H 148.015 -7.08115 3.25873 0
M  V30 1656 N 152.244 -1.26651 -0.937939 0
M  V30 1657 C 153.207 -1.08546 -2.01867 0
M  V30 1658 C 154.207 -0.0327327 -1.60767 0
M  V30 1659 O 155.397 -0.276427 -1.71993 0
M  V30 1660 C 152.529 -0.651711 -3.34613 0
M  V30 1661 H 153.722 -2.04502 -2.1936 0
M  V30 1662 H 151.275 -1.09294 -1.11734 0
M  V30 1663 H 152.01 0.309696 -3.22818 0
M  V30 1664 H 151.795 -1.41189 -3.65798 0
M  V30 1665 H 153.285 -0.546973 -4.14002 0
M  V30 1666 N 153.722 1.14298 -1.08507 0
M  V30 1667 C 154.968 1.85633 -0.816581 0
M  V30 1668 C 155.301 1.82784 0.656021 0
M  V30 1669 O 154.576 1.25926 1.48233 0
M  V30 1670 C 154.859 3.34223 -1.34041 0
M  V30 1671 C 154.712 3.45639 -2.87843 0
M  V30 1672 C 156.031 4.29356 -0.9665 0
M  V30 1673 H 153.15 0.67402 -0.298104 0
M  V30 1674 H 155.792 1.34214 -1.34487 0
M  V30 1675 H 153.942 3.78144 -0.89104 0
M  V30 1676 H 155.614 3.10498 -3.41158 0
M  V30 1677 H 153.857 2.86817 -3.25451 0
M  V30 1678 H 154.528 4.50089 -3.19569 0
M  V30 1679 H 157.004 3.93457 -1.35391 0
M  V30 1680 H 155.88 5.3178 -1.3602 0
M  V30 1681 H 156.141 4.41919 0.126362 0
M  V30 1682 N 155.201 0.870884 1.31352 0
M  V30 1683 C 156.111 0.330783 2.32256 0
M  V30 1684 C 157.127 -0.559767 1.6475 0
M  V30 1685 O 158.303 -0.456263 1.96164 0
M  V30 1686 C 155.368 -0.458137 3.4366 0
M  V30 1687 C 154.429 0.460482 4.26823 0
M  V30 1688 C 153.662 -0.290881 5.32907 0
M  V30 1689 O 153.885 -1.51885 5.49806 0
M  V30 1690 O 152.819 0.351732 6.00871 0
M  V30 1691 H 156.645 1.16718 2.80376 0
M  V30 1692 H 154.23 0.634285 1.35267 0
M  V30 1693 H 156.112 -0.905343 4.1156 0
M  V30 1694 H 154.787 -1.27106 2.97701 0
M  V30 1695 H 153.694 0.956207 3.61673 0
M  V30 1696 H 155.027 1.23903 4.7635 0
M  V30 1697 N 156.679 -1.44442 0.630414 0
M  V30 1698 C 158.095 -1.56832 0.295973 0
M  V30 1699 C 158.295 -1.61806 -1.20088 0
M  V30 1700 O 157.351 -1.5607 -1.9849 0
M  V30 1701 C 158.664 -2.84031 0.987264 0
M  V30 1702 C 160.212 -2.97742 0.96534 0
M  V30 1703 C 160.687 -4.27743 1.63708 0
M  V30 1704 N 162.178 -4.34555 1.60364 0
M  V30 1705 C 162.913 -5.33862 2.09234 0
M  V30 1706 N 162.409 -6.39578 2.66292 0
M  V30 1707 N 164.202 -5.25366 1.99867 0
M  V30 1708 H 156.353 -1.39457 1.60205 0
M  V30 1709 H 158.616 -0.668237 0.672431 0
M  V30 1710 H 158.322 -2.86338 2.04215 0
M  V30 1711 H 158.196 -3.73534 0.524588 0
M  V30 1712 H 160.583 -2.94989 -0.0810639 0
M  V30 1713 H 160.664 -2.09589 1.4665 0
M  V30 1714 H 160.308 -4.31255 2.68293 0
M  V30 1715 H 160.238 -5.14752 1.11076 0
M  V30 1716 H 162.729 -3.58772 1.18705 0
M  V30 1717 H 163.042 -7.11637 3.01317 0
M  V30 1718 H 161.387 -6.40265 2.70343 0
M  V30 1719 H 164.578 -4.41688 1.55013 0
M  V30 1720 H 164.751 -6.02606 2.38265 0
M  V30 1721 N 158.157 -0.370918 -1.53173 0
M  V30 1722 C 159.405 0.216673 -2.00935 0
M  V30 1723 C 159.726 1.48845 -1.25977 0
M  V30 1724 O 158.996 1.92286 -0.374551 0
M  V30 1725 H 157.576 0.0830565 -0.742368 0
M  V30 1726 H 160.238 -0.49838 -1.8842 0
M  V30 1727 H 159.334 0.439893 -3.08984 0
M  V30 1728 N 159.635 1.57281 -0.100228 0
M  V30 1729 C 160.884 1.93713 0.561984 0
M  V30 1730 C 161.197 0.984492 1.69018 0
M  V30 1731 O 162.403 1.24273 2.41389 0
M  V30 1732 C 160.859 3.4421 1.05106 0
M  V30 1733 C 160.467 4.47975 -0.0476628 0
M  V30 1734 C 162.211 3.89595 1.68571 0
M  V30 1735 C 160.118 5.89631 0.457055 0
M  V30 1736 H 159.048 0.723082 0.2137 0
M  V30 1737 H 161.699 1.82644 -0.177057 0
M  V30 1738 H 160.081 3.50449 1.84395 0
M  V30 1739 H 161.255 4.53385 -0.823333 0
M  V30 1740 H 159.57 4.1223 -0.587816 0
M  V30 1741 H 162.167 4.92832 2.07414 0
M  V30 1742 H 162.51 3.28526 2.55688 0
M  V30 1743 H 163.043 3.86078 0.958562 0
M  V30 1744 H 159.782 6.54411 -0.377616 0
M  V30 1745 H 159.302 5.87681 1.19962 0
M  V30 1746 H 160.981 6.40363 0.92437 0
M  V30 1747 N 161.113 -0.173488 1.56642 0
M  V30 1748 C 162.023 -1.23482 1.99473 0
M  V30 1749 C 163.039 -1.48567 0.905752 0
M  V30 1750 O 164.215 -1.60758 1.21321 0
M  V30 1751 C 161.28 -2.55444 2.34413 0
M  V30 1752 C 160.341 -2.38241 3.57127 0
M  V30 1753 C 159.574 -3.63909 3.90392 0
M  V30 1754 O 159.797 -4.68996 3.24653 0
M  V30 1755 O 158.731 -3.58149 4.83749 0
M  V30 1756 H 162.557 -0.901279 2.90018 0
M  V30 1757 H 160.142 -0.380185 1.44482 0
M  V30 1758 H 162.024 -3.33292 2.57865 0
M  V30 1759 H 160.699 -2.88382 1.4703 0
M  V30 1760 H 159.606 -1.58431 3.38896 0
M  V30 1761 H 160.939 -2.10228 4.45045 0
M  V30 1762 N 162.591 -1.51276 -0.441967 0
M  V30 1763 C 163.523 -1.68444 -1.55433 0
M  V30 1764 C 164.536 -0.565187 -1.52674 0
M  V30 1765 O 165.725 -0.839356 -1.57534 0
M  V30 1766 C 162.825 -1.67966 -2.94348 0
M  V30 1767 C 161.998 -2.964 -3.21661 0
M  V30 1768 C 161.057 -2.88171 -4.40277 0
M  V30 1769 O 160.083 -3.62119 -4.39157 0
M  V30 1770 N 161.285 -2.03706 -5.43584 0
M  V30 1771 H 164.05 -2.644 -1.41112 0
M  V30 1772 H 161.611 -1.49104 -0.630838 0
M  V30 1773 H 163.603 -1.60035 -3.71713 0
M  V30 1774 H 162.173 -0.796225 -3.0229 0
M  V30 1775 H 161.393 -3.18234 -2.32638 0
M  V30 1776 H 162.681 -3.81427 -3.36736 0
M  V30 1777 H 162.079 -1.42995 -5.47329 0
M  V30 1778 H 160.636 -2.01658 -6.1982 0
M  V30 1779 N 164.069 0.697108 -1.41344 0
M  V30 1780 C 165.318 1.45279 -1.39918 0
M  V30 1781 C 165.631 1.95597 -0.0109624 0
M  V30 1782 O 166.837 2.71208 0.125919 0
M  V30 1783 C 165.293 2.62695 -2.46007 0
M  V30 1784 C 164.901 2.19169 -3.90729 0
M  V30 1785 C 166.645 3.40336 -2.53715 0
M  V30 1786 C 164.552 3.33535 -4.88373 0
M  V30 1787 H 163.482 0.545692 -0.520323 0
M  V30 1788 H 166.133 0.756929 -1.67161 0
M  V30 1789 H 164.515 3.34541 -2.11892 0
M  V30 1790 H 165.689 1.54623 -4.34083 0
M  V30 1791 H 164.004 1.54525 -3.86666 0
M  V30 1792 H 166.601 4.2547 -3.2385 0
M  V30 1793 H 166.944 3.85418 -1.5735 0
M  V30 1794 H 167.477 2.75546 -2.86913 0
M  V30 1795 H 164.216 2.93468 -5.86137 0
M  V30 1796 H 163.736 3.96936 -4.49668 0
M  V30 1797 H 165.415 3.99335 -5.09059 0
M  V30 1798 N 165.547 1.27147 0.931209 0
M  V30 1799 C 166.457 1.11372 2.06478 0
M  V30 1800 C 167.473 0.044645 1.73943 0
M  V30 1801 O 168.649 0.250417 1.99837 0
M  V30 1802 C 165.714 0.758838 3.38294 0
M  V30 1803 C 164.775 1.90841 3.84549 0
M  V30 1804 C 164.008 1.57036 5.10074 0
M  V30 1805 O 164.231 0.476645 5.68405 0
M  V30 1806 O 163.165 2.40839 5.51616 0
M  V30 1807 H 166.991 2.06493 2.22698 0
M  V30 1808 H 164.576 1.06301 1.04978 0
M  V30 1809 H 166.458 0.574098 4.17471 0
M  V30 1810 H 165.133 -0.162879 3.2329 0
M  V30 1811 H 164.04 2.14819 3.06274 0
M  V30 1812 H 165.373 2.81021 4.04089 0
M  V30 1813 N 167.025 -1.13721 1.09112 0
M  V30 1814 C 168.253 -1.88773 0.846899 0
M  V30 1815 C 168.668 -1.7896 -0.601572 0
M  V30 1816 O 168.025 -1.15394 -1.41388 0
M  V30 1817 C 168.076 -3.3849 1.26913 0
M  V30 1818 O 167.797 -3.48043 2.66079 0
M  V30 1819 C 169.298 -4.30518 1.05682 0
M  V30 1820 H 166.518 -0.59772 0.304914 0
M  V30 1821 H 169.062 -1.43977 1.45227 0
M  V30 1822 H 167.217 -3.80881 0.707723 0
M  V30 1823 H 167.631 -4.4109 2.83795 0
M  V30 1824 H 169.105 -5.3391 1.40156 0
M  V30 1825 H 169.582 -4.392 -0.00563416 0
M  V30 1826 H 170.188 -3.93893 1.60402 0
M  V30 1827 N 168.503 -0.877838 -1.30888 0
M  V30 1828 C 169.433 -0.35534 -2.3078 0
M  V30 1829 C 170.414 0.557994 -1.60687 0
M  V30 1830 O 171.599 0.473355 -1.88343 0
M  V30 1831 C 168.729 0.437221 -3.44537 0
M  V30 1832 C 167.683 -0.383715 -4.26276 0
M  V30 1833 C 167.009 0.535014 -5.32017 0
M  V30 1834 C 168.309 -1.62201 -4.96476 0
M  V30 1835 H 170.003 -1.19007 -2.74732 0
M  V30 1836 H 167.549 -0.573698 -1.32078 0
M  V30 1837 H 169.502 0.813334 -4.13477 0
M  V30 1838 H 168.226 1.30553 -2.99372 0
M  V30 1839 H 166.885 -0.741874 -3.59015 0
M  V30 1840 H 166.533 1.40083 -4.831 0
M  V30 1841 H 166.233 -0.0104211 -5.87599 0
M  V30 1842 H 167.757 0.907799 -6.03814 0
M  V30 1843 H 169.171 -1.31689 -5.5797 0
M  V30 1844 H 167.568 -2.10711 -5.61891 0
M  V30 1845 H 168.638 -2.37044 -4.23011 0
M  V30 1846 N 169.982 1.44106 -0.638065 0
M  V30 1847 C 171.23 2.01579 -0.145043 0
M  V30 1848 C 171.551 1.50496 1.24 0
M  V30 1849 O 170.821 0.711374 1.82527 0
M  V30 1850 H 169.401 0.745282 -0.05063 0
M  V30 1851 H 172.063 1.76516 -0.826327 0
M  V30 1852 H 171.159 3.11877 -0.118039 0
M  V30 1853 N 171.46 0.379036 1.52974 0
M  V30 1854 C 172.706 -0.206727 2.01744 0
M  V30 1855 C 173.039 -1.47314 1.26539 0
M  V30 1856 O 172.314 -1.91084 0.362903 0
M  V30 1857 C 172.597 -0.485066 3.56818 0
M  V30 1858 C 172.45 0.795919 4.42702 0
M  V30 1859 C 173.769 -1.28003 4.21074 0
M  V30 1860 H 170.888 -0.0736607 0.73331 0
M  V30 1861 H 173.53 0.506581 1.83122 0
M  V30 1862 H 171.68 -1.09272 3.72816 0
M  V30 1863 H 173.352 1.43307 4.38476 0
M  V30 1864 H 171.595 1.41344 4.10127 0
M  V30 1865 H 172.266 0.555947 5.49193 0
M  V30 1866 H 174.742 -0.765867 4.08991 0
M  V30 1867 H 173.618 -1.44352 5.29579 0
M  V30 1868 H 173.879 -2.29236 3.78026 0
M  V30 1869 N 172.938 -1.57226 0.108567 0
M  V30 1870 C 174.215 -1.86333 -0.594939 0
M  V30 1871 C 174.595 -1.00788 -1.85486 0
M  V30 1872 O 173.943 -0.0839293 -2.28346 0
M  V30 1873 C 174.153 -3.37265 -0.897405 0
M  V30 1874 C 175.501 -4.05629 -1.25501 0
M  V30 1875 O 176.525 -3.42224 -0.987998 0
M  V30 1876 O 175.384 -5.17531 -1.75567 0
M  V30 1877 H 172.478 -0.771018 -0.2991 0
M  V30 1878 H 175.024 -1.69102 0.142283 0
M  V30 1879 H 173.796 -3.913 -0.00413806 0
M  V30 1880 H 173.419 -3.59889 -1.69014 0
M  V30 1881 N 174.416 0.165178 -1.56732 0
M  V30 1882 C 175.662 0.882112 -1.82611 0
M  V30 1883 C 175.995 1.81628 -0.687378 0
M  V30 1884 O 175.27 1.92009 0.310267 0
M  V30 1885 C 175.553 1.67245 -3.18906 0
M  V30 1886 C 175.406 0.760987 -4.43316 0
M  V30 1887 C 176.725 2.63884 -3.52212 0
M  V30 1888 H 173.844 0.319242 -0.664269 0
M  V30 1889 H 176.486 0.148052 -1.89422 0
M  V30 1890 H 174.636 2.29824 -3.1323 0
M  V30 1891 H 176.308 0.147596 -4.61064 0
M  V30 1892 H 174.551 0.0694102 -4.33744 0
M  V30 1893 H 175.222 1.34962 -5.35247 0
M  V30 1894 H 177.698 2.11429 -3.58381 0
M  V30 1895 H 176.574 3.16245 -4.48643 0
M  V30 1896 H 176.835 3.44377 -2.77231 0
M  V30 1897 N 175.894 1.51508 0.433938 0
M  V30 1898 C 177.14 1.64588 1.18484 0
M  V30 1899 C 177.473 0.362666 1.90784 0
M  V30 1900 O 176.748 -0.637892 1.83742 0
M  V30 1901 C 177.031 2.85149 2.19913 0
M  V30 1902 C 176.884 4.23456 1.51674 0
M  V30 1903 C 178.203 3.01227 3.20858 0
M  V30 1904 H 175.322 0.598994 0.429389 0
M  V30 1905 H 177.964 1.84002 0.473647 0
M  V30 1906 H 176.114 2.68729 2.80566 0
M  V30 1907 H 177.786 4.51552 0.943322 0
M  V30 1908 H 176.029 4.25998 0.819035 0
M  V30 1909 H 176.7 5.03812 2.2556 0
M  V30 1910 H 179.176 3.16382 2.70263 0
M  V30 1911 H 178.052 3.87141 3.89118 0
M  V30 1912 H 178.313 2.13447 3.8716 0
M  V30 1913 N 177.372 -0.689602 1.41712 0
M  V30 1914 C 178.282 -1.83314 1.46401 0
M  V30 1915 C 179.298 -1.7036 0.35405 0
M  V30 1916 O 180.474 -1.92171 0.602692 0
M  V30 1917 C 177.539 -3.19344 1.34982 0
M  V30 1918 C 176.6 -3.44363 2.56344 0
M  V30 1919 C 175.833 -4.73904 2.45461 0
M  V30 1920 O 176.056 -5.508 1.48241 0
M  V30 1921 O 174.99 -4.99839 3.35328 0
M  V30 1922 H 178.816 -1.82314 2.42889 0
M  V30 1923 H 176.401 -0.843438 1.23315 0
M  V30 1924 H 178.283 -4.00547 1.3092 0
M  V30 1925 H 176.958 -3.21014 0.41612 0
M  V30 1926 H 175.865 -2.63067 2.65982 0
M  V30 1927 H 177.198 -3.47512 3.48563 0
M  V30 1928 N 178.85 -1.27639 -0.924453 0
M  V30 1929 C 180.096 -1.14336 -1.67497 0
M  V30 1930 C 180.429 0.309465 -1.91718 0
M  V30 1931 O 179.704 1.22608 -1.50989 0
M  V30 1932 C 179.987 -1.93096 -3.0395 0
M  V30 1933 C 179.84 -3.46381 -2.8695 0
M  V30 1934 C 181.159 -1.73798 -4.0433 0
M  V30 1935 H 178.278 -0.416728 -0.607871 0
M  V30 1936 H 180.92 -1.56832 -1.07256 0
M  V30 1937 H 179.07 -1.56982 -3.55372 0
M  V30 1938 H 180.742 -3.92343 -2.42621 0
M  V30 1939 H 178.985 -3.72557 -2.22225 0
M  V30 1940 H 179.656 -3.96735 -3.83804 0
M  V30 1941 H 182.132 -2.05293 -3.61931 0
M  V30 1942 H 181.008 -2.31294 -4.97789 0
M  V30 1943 H 181.269 -0.686725 -4.36734 0
M  V30 1944 N 180.328 1.1314 -1.09713 0
M  V30 1945 C 181.258 2.20748 -0.761102 0
M  V30 1946 C 182.239 1.68061 0.262566 0
M  V30 1947 O 183.424 1.93765 0.129977 0
M  V30 1948 C 180.554 3.46812 -0.184054 0
M  V30 1949 C 179.508 4.12606 -1.13757 0
M  V30 1950 C 178.834 5.33031 -0.422083 0
M  V30 1951 C 180.134 4.59603 -2.48118 0
M  V30 1952 H 181.828 2.49113 -1.66082 0
M  V30 1953 H 179.374 1.19734 -0.799987 0
M  V30 1954 H 181.327 4.21353 0.0631215 0
M  V30 1955 H 180.051 3.17851 0.750868 0
M  V30 1956 H 178.71 3.40036 -1.37007 0
M  V30 1957 H 178.358 5.00335 0.517072 0
M  V30 1958 H 178.058 5.77999 -1.05788 0
M  V30 1959 H 179.582 6.10325 -0.183277 0
M  V30 1960 H 180.996 5.25552 -2.29059 0
M  V30 1961 H 179.393 5.15321 -3.07514 0
M  V30 1962 H 180.463 3.73971 -3.08665 0
M  V30 1963 N 181.806 0.884767 1.30421 0
M  V30 1964 C 183.217 0.553656 1.78302 0
M  V30 1965 C 183.568 -0.930153 1.7275 0
M  V30 1966 O 182.693 -1.72681 1.30423 0
M  V30 1967 C 183.288 0.998234 3.2376 0
M  V30 1968 C 181.847 0.71854 3.69478 0
M  V30 1969 C 180.994 1.18132 2.50879 0
M  V30 1970 H 183.945 1.06901 1.17294 0
M  V30 1971 H 183.966 0.327118 3.79091 0
M  V30 1972 H 183.478 2.0782 3.27769 0
M  V30 1973 H 181.579 -0.349444 3.70958 0
M  V30 1974 H 181.692 1.30595 4.60958 0
M  V30 1975 H 180.056 0.600669 2.47516 0
M  V30 1976 H 180.839 2.26902 2.57624 0
M  V30 1977 N 183.284 -1.43765 0.645699 0
M  V30 1978 C 184.532 -2.01499 0.155731 0
M  V30 1979 C 184.853 -1.51151 -1.232 0
M  V30 1980 O 184.123 -0.721044 -1.82148 0
M  V30 1981 H 182.703 -0.745003 0.0545817 0
M  V30 1982 H 185.365 -1.76075 0.835677 0
M  V30 1983 H 184.461 -3.1181 0.134577 0
M  V30 1984 N 184.763 -0.387143 -1.52771 0
M  V30 1985 C 185.726 0.436939 -2.24997 0
M  V30 1986 C 186.726 0.991991 -1.26555 0
M  V30 1987 O 187.916 0.874335 -1.50669 0
M  V30 1988 C 185.048 1.61281 -3.00335 0
M  V30 1989 H 186.241 -0.195365 -2.99263 0
M  V30 1990 H 183.794 -0.139218 -1.55679 0
M  V30 1991 H 184.529 2.2826 -2.30364 0
M  V30 1992 H 184.314 1.22154 -3.72587 0
M  V30 1993 H 185.804 2.19629 -3.5518 0
M  V30 1994 N 186.241 1.57166 -0.116904 0
M  V30 1995 C 187.487 1.95412 0.542405 0
M  V30 1996 C 187.82 1.00019 1.66463 0
M  V30 1997 O 187.095 0.0370346 1.94465 0
M  V30 1998 C 187.378 3.43615 1.07708 0
M  V30 1999 C 187.231 4.49781 -0.0415868 0
M  V30 2000 C 188.55 3.93616 1.96861 0
M  V30 2001 H 185.669 0.710543 0.195696 0
M  V30 2002 H 188.311 1.89027 -0.192038 0
M  V30 2003 H 186.461 3.49187 1.70296 0
M  V30 2004 H 188.133 4.56308 -0.676793 0
M  V30 2005 H 186.376 4.28033 -0.705019 0
M  V30 2006 H 187.047 5.50733 0.373717 0
M  V30 2007 H 189.523 3.90335 1.44146 0
M  V30 2008 H 188.399 4.97838 2.3119 0
M  V30 2009 H 188.66 3.34188 2.89432 0
M  V30 2010 N 187.719 -0.156864 1.56817 0
M  V30 2011 C 188.682 -1.17781 1.96622 0
M  V30 2012 C 189.682 -1.36401 0.851555 0
M  V30 2013 O 190.872 -1.33561 1.11836 0
M  V30 2014 C 188.004 -2.54008 2.27361 0
M  V30 2015 H 189.197 -0.836564 2.87996 0
M  V30 2016 H 186.75 -0.39985 1.51099 0
M  V30 2017 H 187.485 -2.9312 1.38748 0
M  V30 2018 H 187.27 -2.41856 3.08623 0
M  V30 2019 H 188.76 -3.27558 2.59029 0
M  V30 2020 N 189.197 -1.51736 -0.425897 0
M  V30 2021 C 190.608 -1.5732 -1.00536 0
M  V30 2022 C 190.959 -0.403537 -1.92005 0
M  V30 2023 O 190.084 0.478256 -2.11049 0
M  V30 2024 C 190.679 -2.85119 -1.8301 0
M  V30 2025 C 189.238 -2.93236 -2.35987 0
M  V30 2026 C 188.385 -2.52098 -1.15508 0
M  V30 2027 H 191.336 -1.57348 -0.206739 0
M  V30 2028 H 191.357 -2.69526 -2.68581 0
M  V30 2029 H 190.869 -3.7023 -1.16411 0
M  V30 2030 H 188.97 -2.12581 -3.06007 0
M  V30 2031 H 189.083 -3.9713 -2.68001 0
M  V30 2032 H 187.447 -2.05558 -1.50393 0
M  V30 2033 H 188.23 -3.39565 -0.505014 0
M  V30 2034 N 190.675 0.682077 -1.42076 0
M  V30 2035 C 191.622 1.79578 -1.44984 0
M  V30 2036 C 192.592 1.6332 -0.302614 0
M  V30 2037 O 193.777 1.83978 -0.505633 0
M  V30 2038 C 190.917 3.1756 -1.35091 0
M  V30 2039 C 190.03 3.45156 -2.59791 0
M  V30 2040 C 189.165 4.72826 -2.42093 0
M  V30 2041 C 188.204 4.93433 -3.62202 0
M  V30 2042 N 187.341 6.12338 -3.43491 0
M  V30 2043 H 192.181 1.76427 -2.40161 0
M  V30 2044 H 189.718 0.861376 -1.19242 0
M  V30 2045 H 191.676 3.97287 -1.27354 0
M  V30 2046 H 190.306 3.19854 -0.435133 0
M  V30 2047 H 189.358 2.59736 -2.77923 0
M  V30 2048 H 190.67 3.5628 -3.49094 0
M  V30 2049 H 189.824 5.60631 -2.319 0
M  V30 2050 H 188.563 4.63973 -1.50268 0
M  V30 2051 H 187.568 4.04073 -3.72834 0
M  V30 2052 H 188.793 5.04136 -4.54998 0
M  V30 2053 H 186.739 6.04672 -2.54377 0
M  V30 2054 H 186.656 6.2429 -4.26377 0
M  V30 2055 H 187.924 7.02841 -3.37097 0
M  V30 2056 N 192.153 1.28127 0.917671 0
M  V30 2057 C 193.399 1.15223 1.66888 0
M  V30 2058 C 193.732 -0.299293 1.9188 0
M  V30 2059 O 193.007 -1.21805 1.51637 0
M  V30 2060 C 193.29 1.94706 3.02922 0
M  V30 2061 C 193.143 3.47898 2.85109 0
M  V30 2062 C 194.462 1.75939 4.03402 0
M  V30 2063 H 191.581 0.419946 0.605652 0
M  V30 2064 H 194.223 1.57398 1.06423 0
M  V30 2065 H 192.373 1.58864 3.54534 0
M  V30 2066 H 194.045 3.93624 2.40537 0
M  V30 2067 H 192.288 3.7373 2.20246 0
M  V30 2068 H 192.959 3.98765 3.81694 0
M  V30 2069 H 195.435 2.07209 3.60837 0
M  V30 2070 H 194.311 2.33931 4.96556 0
M  V30 2071 H 194.572 0.709877 4.36364 0
M  V30 2072 N 193.631 -1.12557 1.10312 0
M  V30 2073 C 194.594 -2.16434 0.75424 0
M  V30 2074 C 195.594 -1.59278 -0.220685 0
M  V30 2075 O 196.784 -1.742 0.00230591 0
M  V30 2076 C 193.916 -3.40699 0.116987 0
M  V30 2077 H 195.109 -2.48811 1.67431 0
M  V30 2078 H 192.662 -1.27542 0.903475 0
M  V30 2079 H 193.397 -3.13921 -0.813877 0
M  V30 2080 H 193.182 -3.83459 0.818613 0
M  V30 2081 H 194.672 -4.17451 -0.111387 0
M  V30 2082 N 195.109 -0.891671 -1.2995 0
M  V30 2083 C 196.525 -0.58662 -1.48428 0
M  V30 2084 C 196.725 0.873951 -1.81561 0
M  V30 2085 O 195.781 1.65471 -1.90724 0
M  V30 2086 C 197.094 -1.50553 -2.60296 0
M  V30 2087 C 198.642 -1.50988 -2.74175 0
M  V30 2088 C 199.117 -2.41488 -3.89163 0
M  V30 2089 N 200.608 -2.39489 -3.96483 0
M  V30 2090 C 201.343 -3.06223 -4.84784 0
M  V30 2091 N 200.839 -3.82206 -5.77833 0
M  V30 2092 N 202.632 -2.95421 -4.78208 0
M  V30 2093 H 194.783 -1.83644 -1.06718 0
M  V30 2094 H 197.046 -0.786455 -0.529332 0
M  V30 2095 H 196.752 -2.54581 -2.42654 0
M  V30 2096 H 196.626 -1.22008 -3.56923 0
M  V30 2097 H 199.013 -0.47708 -2.91218 0
M  V30 2098 H 199.094 -1.83567 -1.78148 0
M  V30 2099 H 198.738 -3.44857 -3.72876 0
M  V30 2100 H 198.668 -2.06222 -4.84541 0
M  V30 2101 H 201.159 -1.84278 -3.29924 0
M  V30 2102 H 201.472 -4.302 -6.41988 0
M  V30 2103 H 199.817 -3.86313 -5.77743 0
M  V30 2104 H 203.008 -2.35581 -4.04499 0
M  V30 2105 H 203.181 -3.47704 -5.46814 0
M  V30 2106 N 196.587 1.43421 -0.653314 0
M  V30 2107 C 197.534 2.30768 0.0382271 0
M  V30 2108 C 198.504 1.44755 0.814576 0
M  V30 2109 O 199.689 1.73624 0.791162 0
M  V30 2110 C 196.829 3.30336 0.998599 0
M  V30 2111 C 195.942 4.31448 0.218342 0
M  V30 2112 C 195.077 5.18098 1.17252 0
M  V30 2113 C 194.116 6.10902 0.382702 0
M  V30 2114 N 193.253 6.90176 1.28848 0
M  V30 2115 H 198.093 2.89357 -0.712511 0
M  V30 2116 H 195.63 1.42548 -0.363128 0
M  V30 2117 H 197.588 3.86572 1.56901 0
M  V30 2118 H 196.218 2.73397 1.71621 0
M  V30 2119 H 195.27 3.77506 -0.46836 0
M  V30 2120 H 196.582 4.97227 -0.395812 0
M  V30 2121 H 195.736 5.7896 1.81356 0
M  V30 2122 H 194.475 4.52444 1.82058 0
M  V30 2123 H 193.48 5.49128 -0.27169 0
M  V30 2124 H 194.705 6.78598 -0.260957 0
M  V30 2125 H 192.651 6.27171 1.92334 0
M  V30 2126 H 192.568 7.52478 0.728887 0
M  V30 2127 H 193.836 7.55543 1.91766 0
M  V30 2128 N 198.065 0.39524 1.52563 0
M  V30 2129 C 199.314 -0.186321 2.00838 0
M  V30 2130 C 199.627 -1.47402 1.28577 0
M  V30 2131 O 200.833 -2.13599 1.67593 0
M  V30 2132 C 199.289 -0.382595 3.57861 0
M  V30 2133 C 198.897 0.892202 4.39026 0
M  V30 2134 C 200.641 -0.9202 4.14406 0
M  V30 2135 C 198.548 0.66388 5.87662 0
M  V30 2136 H 197.478 -0.0734041 0.750418 0
M  V30 2137 H 200.129 0.518552 1.76021 0
M  V30 2138 H 198.511 -1.14946 3.7895 0
M  V30 2139 H 199.685 1.66414 4.29701 0
M  V30 2140 H 198 1.35519 3.9373 0
M  V30 2141 H 200.597 -1.10683 5.23119 0
M  V30 2142 H 200.94 -1.89096 3.70875 0
M  V30 2143 H 201.473 -0.212751 3.97231 0
M  V30 2144 H 198.212 1.6058 6.35527 0
M  V30 2145 H 197.732 -0.0690193 5.9976 0
M  V30 2146 H 199.411 0.300699 6.46301 0
M  V30 2147 N 199.544 -1.57102 0.125237 0
M  V30 2148 C 200.955 -1.82384 -0.399142 0
M  V30 2149 C 201.306 -1.04276 -1.66195 0
M  V30 2150 O 200.431 -0.281269 -2.14564 0
M  V30 2151 C 201.026 -3.30821 -0.730932 0
M  V30 2152 C 199.585 -3.56762 -1.19992 0
M  V30 2153 C 198.732 -2.7649 -0.211792 0
M  V30 2154 H 201.683 -1.54786 0.350277 0
M  V30 2155 H 201.704 -3.4579 -1.58775 0
M  V30 2156 H 201.216 -3.87643 0.188345 0
M  V30 2157 H 199.317 -3.05305 -2.13588 0
M  V30 2158 H 199.43 -4.65317 -1.14093 0
M  V30 2159 H 197.794 -2.4489 -0.700085 0
M  V30 2160 H 198.577 -3.36073 0.700691 0
M  V30 2161 N 201.022 0.148545 -1.56898 0
M  V30 2162 C 202.27 0.859717 -1.82902 0
M  V30 2163 C 202.591 1.81775 -0.70588 0
M  V30 2164 O 201.861 1.93994 0.272586 0
M  V30 2165 H 200.441 0.320469 -0.674766 0
M  V30 2166 H 203.103 0.142918 -1.94375 0
M  V30 2167 H 202.199 1.4229 -2.77777 0
M  V30 2168 N 202.5 1.5196 0.417844 0
M  V30 2169 C 203.916 1.40569 0.755816 0
M  V30 2170 C 204.116 0.503316 1.95113 0
M  V30 2171 O 203.172 -0.0341925 2.52477 0
M  V30 2172 C 204.485 2.82947 1.01791 0
M  V30 2173 C 206.033 2.92231 1.12116 0
M  V30 2174 C 206.508 4.35559 1.41608 0
M  V30 2175 N 207.999 4.38753 1.48491 0
M  V30 2176 C 208.734 5.46705 1.7292 0
M  V30 2177 N 208.23 6.64788 1.95011 0
M  V30 2178 N 210.023 5.34209 1.74863 0
M  V30 2179 H 202.174 2.09168 -0.369098 0
M  V30 2180 H 204.437 0.942409 -0.102809 0
M  V30 2181 H 204.143 3.5106 0.212081 0
M  V30 2182 H 204.017 3.23462 1.94042 0
M  V30 2183 H 206.404 2.24304 1.9176 0
M  V30 2184 H 206.485 2.55185 0.177225 0
M  V30 2185 H 206.129 5.04042 0.624848 0
M  V30 2186 H 206.059 4.70133 2.37239 0
M  V30 2187 H 208.55 3.5363 1.33244 0
M  V30 2188 H 208.863 7.42845 2.13076 0
M  V30 2189 H 207.208 6.67869 1.92293 0
M  V30 2190 H 210.399 4.40937 1.57137 0
M  V30 2191 H 210.572 6.18415 1.93563 0
M  V30 2192 N 203.978 -0.674533 1.42435 0
M  V30 2193 C 205.206 -1.46283 1.46317 0
M  V30 2194 C 205.621 -1.88653 0.0745836 0
M  V30 2195 O 204.978 -1.58151 -0.91074 0
M  V30 2196 C 205.029 -2.71178 2.3905 0
M  V30 2197 O 204.75 -2.30586 3.72507 0
M  V30 2198 C 206.251 -3.64738 2.51955 0
M  V30 2199 H 203.471 -0.450104 0.497642 0
M  V30 2200 H 206.015 -0.828792 1.86953 0
M  V30 2201 H 204.17 -3.3077 2.01667 0
M  V30 2202 H 204.584 -3.11241 4.22172 0
M  V30 2203 H 206.058 -4.49096 3.20962 0
M  V30 2204 H 206.535 -4.10656 1.55752 0
M  V30 2205 H 207.141 -3.11038 2.90061 0
M  V30 2206 N 205.456 -1.28612 -0.910864 0
M  V30 2207 C 206.702 -1.16106 -1.66274 0
M  V30 2208 C 207.035 0.289113 -1.92036 0
M  V30 2209 O 206.31 1.21 -1.52281 0
M  V30 2210 C 206.593 -1.96309 -3.01885 0
M  V30 2211 C 206.446 -3.49405 -2.8326 0
M  V30 2212 C 207.765 -1.78076 -4.02463 0
M  V30 2213 H 204.884 -0.423152 -0.603417 0
M  V30 2214 H 207.526 -1.57961 -1.05586 0
M  V30 2215 H 205.676 -1.60742 -3.53687 0
M  V30 2216 H 207.348 -3.94894 -2.38446 0
M  V30 2217 H 205.591 -3.74893 -2.18261 0
M  V30 2218 H 206.262 -4.00784 -3.79574 0
M  V30 2219 H 208.738 -2.0912 -3.59733 0
M  V30 2220 H 207.614 -2.36561 -4.95308 0
M  V30 2221 H 207.875 -0.733008 -4.35981 0
M  V30 2222 N 206.934 1.1197 -1.10907 0
M  V30 2223 C 208.183 1.82947 -0.849302 0
M  V30 2224 C 208.496 1.85275 0.627112 0
M  V30 2225 O 209.702 2.52296 1.00295 0
M  V30 2226 C 208.158 3.28529 -1.46959 0
M  V30 2227 C 207.766 3.34546 -2.97965 0
M  V30 2228 C 209.51 4.04443 -1.28942 0
M  V30 2229 C 207.417 4.74491 -3.53004 0
M  V30 2230 H 206.347 0.685477 -0.314065 0
M  V30 2231 H 208.998 1.2604 -1.33365 0
M  V30 2232 H 207.38 3.85333 -0.912917 0
M  V30 2233 H 208.554 2.87654 -3.59989 0
M  V30 2234 H 206.869 2.72108 -3.15192 0
M  V30 2235 H 209.466 5.07787 -1.67502 0
M  V30 2236 H 209.809 4.15656 -0.231456 0
M  V30 2237 H 210.342 3.5401 -1.81443 0
M  V30 2238 H 207.081 4.68474 -4.58489 0
M  V30 2239 H 206.601 5.21816 -2.9575 0
M  V30 2240 H 208.28 5.4344 -3.51115 0
M  V30 2241 N 208.412 0.89855 1.29475 0
M  V30 2242 C 209.375 0.380272 2.26023 0
M  V30 2243 C 210.375 -0.484891 1.53315 0
M  V30 2244 O 211.565 -0.290108 1.71767 0
M  V30 2245 C 208.697 -0.45651 3.3783 0
M  V30 2246 H 209.89 1.23295 2.73383 0
M  V30 2247 H 207.443 0.676589 1.40897 0
M  V30 2248 H 208.178 -1.32922 2.95808 0
M  V30 2249 H 207.963 0.163393 3.91759 0
M  V30 2250 H 209.453 -0.810466 4.0966 0
M  V30 2251 N 209.89 -1.43072 0.660911 0
M  V30 2252 C 210.853 -2.29194 -0.0166406 0
M  V30 2253 C 211.853 -1.42609 -0.742912 0
M  V30 2254 O 213.043 -1.64155 -0.583004 0
M  V30 2255 C 210.175 -3.24831 -1.0343 0
M  V30 2256 H 211.368 -2.90596 0.741208 0
M  V30 2257 H 208.921 -1.5048 0.422532 0
M  V30 2258 H 209.656 -2.68339 -1.82111 0
M  V30 2259 H 209.441 -3.88676 -0.517082 0
M  V30 2260 H 210.931 -3.89451 -1.50723 0
M  V30 2261 N 211.368 -0.403325 -1.52352 0
M  V30 2262 C 212.616 0.174003 -2.0135 0
M  V30 2263 C 212.937 1.46139 -1.29106 0
M  V30 2264 O 212.207 1.91448 -0.415253 0
M  V30 2265 H 210.787 0.0672911 -0.743963 0
M  V30 2266 H 213.449 -0.538235 -1.87321 0
M  V30 2267 H 212.545 0.374254 -3.09848 0
M  V30 2268 N 212.846 1.57033 -0.133567 0
M  V30 2269 C 213.776 2.1909 0.807567 0
M  V30 2270 C 214.757 1.13517 1.26681 0
M  V30 2271 O 215.942 1.41809 1.32679 0
M  V30 2272 C 213.072 2.80188 2.05212 0
M  V30 2273 C 212.026 3.91471 1.73015 0
M  V30 2274 C 211.352 4.39443 3.04622 0
M  V30 2275 C 212.652 5.12886 0.987168 0
M  V30 2276 H 214.346 2.97988 0.290403 0
M  V30 2277 H 211.892 1.43335 0.138239 0
M  V30 2278 H 213.845 3.22264 2.71521 0
M  V30 2279 H 212.569 1.98601 2.59278 0
M  V30 2280 H 211.228 3.49993 1.0909 0
M  V30 2281 H 210.876 3.54695 3.56651 0
M  V30 2282 H 210.576 5.14495 2.83847 0
M  V30 2283 H 212.1 4.8418 3.72024 0
M  V30 2284 H 213.514 5.51891 1.55208 0
M  V30 2285 H 211.911 5.93615 0.87985 0
M  V30 2286 H 212.981 4.84894 -0.0235286 0
M  V30 2287 N 214.325 -0.140222 1.56975 0
M  V30 2288 C 215.571 -0.852949 1.83991 0
M  V30 2289 C 215.904 -1.80512 0.716187 0
M  V30 2290 O 215.179 -1.92479 -0.279681 0
M  V30 2291 C 215.462 -1.6215 3.21527 0
M  V30 2292 C 215.315 -0.690363 4.4447 0
M  V30 2293 C 216.634 -2.58247 3.56366 0
M  V30 2294 H 213.753 -0.308634 0.669264 0
M  V30 2295 H 216.395 -0.117898 1.89634 0
M  V30 2296 H 214.545 -2.24812 3.16847 0
M  V30 2297 H 216.217 -0.0742264 4.6124 0
M  V30 2298 H 214.46 -0.000396433 4.338 0
M  V30 2299 H 215.131 -1.2643 5.37326 0
M  V30 2300 H 217.607 -2.05701 3.61699 0
M  V30 2301 H 216.483 -3.09067 4.53617 0
M  V30 2302 H 216.744 -3.39923 2.82674 0
M  V30 2303 N 215.803 -1.52179 -0.40978 0
M  V30 2304 C 216.713 -1.78364 -1.52392 0
M  V30 2305 C 217.729 -0.669183 -1.60617 0
M  V30 2306 O 218.905 -0.954518 -1.77344 0
M  V30 2307 C 215.97 -1.92822 -2.88133 0
M  V30 2308 C 215.031 -3.16725 -2.898 0
M  V30 2309 C 214.264 -3.30483 -4.19067 0
M  V30 2310 O 214.487 -2.49522 -5.12928 0
M  V30 2311 O 213.421 -4.2363 -4.27576 0
M  V30 2312 H 217.247 -2.72931 -1.33201 0
M  V30 2313 H 214.832 -1.37016 -0.59557 0
M  V30 2314 H 216.714 -2.04157 -3.68643 0
M  V30 2315 H 215.389 -1.01444 -3.07393 0
M  V30 2316 H 214.296 -3.10848 -2.08146 0
M  V30 2317 H 215.629 -4.07881 -2.75489 0
M  V30 2318 N 217.281 0.66697 -1.42791 0
M  V30 2319 C 218.509 1.45505 -1.47091 0
M  V30 2320 C 218.924 1.8861 -0.0845873 0
M  V30 2321 O 218.281 1.58632 0.90234 0
M  V30 2322 C 218.332 2.69906 -2.40485 0
M  V30 2323 O 218.053 2.28608 -3.73725 0
M  V30 2324 C 219.554 3.63396 -2.53886 0
M  V30 2325 H 216.774 0.447459 -0.500022 0
M  V30 2326 H 219.318 0.818866 -1.8739 0
M  V30 2327 H 217.473 3.29696 -2.03419 0
M  V30 2328 H 217.887 3.08997 -4.23817 0
M  V30 2329 H 219.361 4.47387 -3.2334 0
M  V30 2330 H 219.838 4.09824 -1.57927 0
M  V30 2331 H 220.444 3.09495 -2.91706 0
M  V30 2332 N 218.759 1.29093 0.90403 0
M  V30 2333 C 219.669 1.15727 2.0407 0
M  V30 2334 C 220.685 0.0815308 1.73809 0
M  V30 2335 O 221.861 0.292749 1.99261 0
M  V30 2336 C 218.926 0.830424 3.36608 0
M  V30 2337 C 217.987 1.98955 3.80415 0
M  V30 2338 C 217.22 1.6782 5.06628 0
M  V30 2339 O 217.443 0.597105 5.67266 0
M  V30 2340 O 216.377 2.52486 5.46383 0
M  V30 2341 H 220.203 2.11171 2.18267 0
M  V30 2342 H 217.788 1.08504 1.027 0
M  V30 2343 H 219.67 0.662521 4.16159 0
M  V30 2344 H 218.345 -0.0942678 3.23563 0
M  V30 2345 H 217.252 2.21267 3.01648 0
M  V30 2346 H 218.585 2.89529 3.98037 0
M  V30 2347 N 220.237 -1.11381 1.11499 0
M  V30 2348 C 221.147 -2.21019 0.786628 0
M  V30 2349 C 222.163 -1.72597 -0.220507 0
M  V30 2350 O 223.339 -2.01321 -0.0565251 0
M  V30 2351 C 220.404 -3.459 0.235333 0
M  V30 2352 C 219.465 -4.09107 1.30115 0
M  V30 2353 C 218.698 -5.28027 0.776068 0
M  V30 2354 O 218.921 -5.6904 -0.393661 0
M  V30 2355 O 217.855 -5.81835 1.54114 0
M  V30 2356 H 221.681 -2.51521 1.70209 0
M  V30 2357 H 219.266 -1.19928 0.890928 0
M  V30 2358 H 221.148 -4.21346 -0.067715 0
M  V30 2359 H 219.823 -3.17049 -0.652828 0
M  V30 2360 H 218.73 -3.35391 1.65722 0
M  V30 2361 H 220.063 -4.42139 2.16273 0
M  V30 2362 N 221.715 -0.905404 -1.28997 0
M  V30 2363 C 222.625 -0.392246 -2.31298 0
M  V30 2364 C 223.641 0.515889 -1.66176 0
M  V30 2365 O 224.817 0.404093 -1.97304 0
M  V30 2366 C 221.882 0.36686 -3.44754 0
M  V30 2367 C 220.943 -0.573485 -4.25452 0
M  V30 2368 C 220.176 0.149488 -5.33491 0
M  V30 2369 O 220.399 1.37255 -5.5364 0
M  V30 2370 O 219.333 -0.510919 -5.99728 0
M  V30 2371 H 223.159 -1.2411 -2.77183 0
M  V30 2372 H 220.744 -0.669926 -1.33538 0
M  V30 2373 H 222.626 0.795907 -4.13816 0
M  V30 2374 H 221.301 1.19169 -3.00966 0
M  V30 2375 H 220.208 -1.05176 -3.59011 0
M  V30 2376 H 221.541 -1.36489 -4.72897 0
M  V30 2377 N 223.193 1.4272 -0.668489 0
M  V30 2378 C 224.156 2.292 0.00448567 0
M  V30 2379 C 225.156 1.43001 0.735339 0
M  V30 2380 O 226.346 1.64461 0.57429 0
M  V30 2381 C 223.478 3.25375 1.01705 0
M  V30 2382 H 224.671 2.90199 -0.756608 0
M  V30 2383 H 222.224 1.50254 -0.430506 0
M  V30 2384 H 222.959 2.69301 1.80686 0
M  V30 2385 H 222.744 3.88944 0.496463 0
M  V30 2386 H 224.234 3.90245 1.48655 0
M  V30 2387 N 224.671 0.411399 1.52136 0
M  V30 2388 C 226.087 0.0623865 1.59478 0
M  V30 2389 C 226.287 -1.42554 1.4241 0
M  V30 2390 O 225.343 -2.19263 1.2522 0
M  V30 2391 C 226.656 0.559331 2.95452 0
M  V30 2392 C 228.204 0.517503 3.08692 0
M  V30 2393 C 228.679 0.990994 4.4715 0
M  V30 2394 N 230.17 0.947908 4.53397 0
M  V30 2395 C 230.905 1.28544 5.58806 0
M  V30 2396 N 230.401 1.69454 6.71757 0
M  V30 2397 N 232.194 1.20526 5.49026 0
M  V30 2398 H 224.345 1.37982 1.61477 0
M  V30 2399 H 226.608 0.566977 0.759764 0
M  V30 2400 H 226.314 1.59938 3.1323 0
M  V30 2401 H 226.188 -0.0298014 3.77188 0
M  V30 2402 H 228.575 -0.513505 2.90598 0
M  V30 2403 H 228.656 1.14272 2.28857 0
M  V30 2404 H 228.3 2.02034 4.65988 0
M  V30 2405 H 228.23 0.34257 5.25485 0
M  V30 2406 H 230.721 0.647157 3.72317 0
M  V30 2407 H 231.034 1.93513 7.48179 0
M  V30 2408 H 229.379 1.73359 6.73032 0
M  V30 2409 H 232.57 0.884505 4.59667 0
M  V30 2410 H 232.743 1.47161 6.31069 0
M  V30 2411 N 226.149 -1.5696 0.141893 0
M  V30 2412 C 227.059 -2.20066 -0.812905 0
M  V30 2413 C 228.075 -1.18344 -1.27557 0
M  V30 2414 O 229.251 -1.50902 -1.33381 0
M  V30 2415 C 226.316 -2.80583 -2.03652 0
M  V30 2416 C 225.377 -3.97414 -1.62359 0
M  V30 2417 C 224.61 -4.55036 -2.78887 0
M  V30 2418 O 224.833 -4.11538 -3.94959 0
M  V30 2419 O 223.767 -5.45376 -2.54653 0
M  V30 2420 H 227.593 -3.02157 -0.305746 0
M  V30 2421 H 225.178 -1.49159 -0.0848799 0
M  V30 2422 H 227.06 -3.19067 -2.75272 0
M  V30 2423 H 225.735 -2.01508 -2.5333 0
M  V30 2424 H 224.642 -3.63656 -0.877775 0
M  V30 2425 H 225.975 -4.77994 -1.17401 0
M  V30 2426 N 227.627 0.131896 -1.57047 0
M  V30 2427 C 228.876 0.84044 -1.83356 0
M  V30 2428 C 229.189 1.81646 -0.725535 0
M  V30 2429 O 230.395 2.57025 -0.874659 0
M  V30 2430 C 228.851 1.54528 -3.25037 0
M  V30 2431 C 228.459 0.610902 -4.43815 0
M  V30 2432 C 230.203 2.23972 -3.60606 0
M  V30 2433 C 228.11 1.31823 -5.76521 0
M  V30 2434 H 227.04 0.317599 -0.683847 0
M  V30 2435 H 229.691 0.0931561 -1.83263 0
M  V30 2436 H 228.073 2.33873 -3.19561 0
M  V30 2437 H 229.247 -0.148407 -4.60561 0
M  V30 2438 H 227.562 0.0241016 -4.16393 0
M  V30 2439 H 230.159 2.77558 -4.57018 0
M  V30 2440 H 230.502 3.01173 -2.87403 0
M  V30 2441 H 231.035 1.51529 -3.6781 0
M  V30 2442 H 227.774 0.587771 -6.52859 0
M  V30 2443 H 227.294 2.04987 -5.63685 0
M  V30 2444 H 228.973 1.855 -6.19838 0
M  V30 2445 N 229.106 1.52395 0.401703 0
M  V30 2446 C 230.036 1.79231 1.49661 0
M  V30 2447 C 231.017 0.643654 1.57452 0
M  V30 2448 O 232.202 0.889989 1.72606 0
M  V30 2449 C 229.332 1.94971 2.87409 0
M  V30 2450 C 228.286 3.10604 2.94465 0
M  V30 2451 C 227.612 3.11577 4.34538 0
M  V30 2452 C 228.912 4.49921 2.6527 0
M  V30 2453 H 230.606 2.70917 1.27454 0
M  V30 2454 H 228.152 1.30362 0.6117 0
M  V30 2455 H 230.105 2.12328 3.63999 0
M  V30 2456 H 228.829 0.999632 3.10926 0
M  V30 2457 H 227.488 2.93009 2.20321 0
M  V30 2458 H 227.136 2.14277 4.55076 0
M  V30 2459 H 226.836 3.89247 4.40183 0
M  V30 2460 H 228.36 3.31073 5.13053 0
M  V30 2461 H 229.774 4.67683 3.31581 0
M  V30 2462 H 228.171 5.29564 2.82281 0
M  V30 2463 H 229.241 4.57507 1.60671 0
M  V30 2464 N 230.584 -0.659388 1.43143 0
M  V30 2465 C 231.531 -1.77249 1.47822 0
M  V30 2466 C 232.501 -1.62818 0.328558 0
M  V30 2467 O 233.686 -1.83151 0.534838 0
M  V30 2468 C 230.826 -3.15371 1.40126 0
M  V30 2469 C 229.939 -3.4098 2.65249 0
M  V30 2470 C 229.074 -4.68915 2.49584 0
M  V30 2471 C 228.113 -4.87608 3.70006 0
M  V30 2472 N 227.25 -6.06796 3.53189 0
M  V30 2473 H 232.09 -1.72584 2.42938 0
M  V30 2474 H 229.627 -0.842297 1.20598 0
M  V30 2475 H 231.585 -3.9521 1.33659 0
M  V30 2476 H 230.215 -3.19121 0.485964 0
M  V30 2477 H 229.267 -2.55282 2.8202 0
M  V30 2478 H 230.579 -3.50681 3.54717 0
M  V30 2479 H 229.733 -5.56871 2.4079 0
M  V30 2480 H 228.472 -4.61524 1.5763 0
M  V30 2481 H 227.477 -3.9809 3.79215 0
M  V30 2482 H 228.702 -4.96834 4.62961 0
M  V30 2483 H 226.648 -6.00549 2.63965 0
M  V30 2484 H 226.565 -6.17428 4.36255 0
M  V30 2485 H 227.833 -6.9739 3.48236 0
M  V30 2486 N 232.062 -1.29571 -0.897171 0
M  V30 2487 C 233.012 -1.11539 -1.98855 0
M  V30 2488 C 233.996 -0.0340716 -1.60864 0
M  V30 2489 O 235.188 -0.256062 -1.75138 0
M  V30 2490 C 232.317 -0.796603 -3.3393 0
M  V30 2491 C 231.403 -1.91758 -3.78272 0
M  V30 2492 N 231.794 -3.16143 -3.94826 0
M  V30 2493 C 230.092 -1.81119 -4.07568 0
M  V30 2494 C 230.793 -3.89293 -4.32233 0
M  V30 2495 N 229.769 -3.17255 -4.41419 0
M  V30 2496 H 233.571 -2.05894 -2.09726 0
M  V30 2497 H 231.085 -1.20732 -1.08616 0
M  V30 2498 H 233.082 -0.648459 -4.11826 0
M  V30 2499 H 231.742 0.139003 -3.24402 0
M  V30 2500 H 232.753 -3.5157 -3.80288 0
M  V30 2501 H 229.43 -0.948461 -4.06584 0
M  V30 2502 H 230.82 -4.9635 -4.52865 0
M  V30 2503 N 233.54 1.10788 -1.12088 0
M  V30 2504 C 234.786 1.82942 -0.875226 0
M  V30 2505 C 235.119 1.84779 0.597538 0
M  V30 2506 O 234.394 1.30578 1.44152 0
M  V30 2507 C 234.677 3.29789 -1.44606 0
M  V30 2508 C 234.53 3.36307 -2.98693 0
M  V30 2509 C 235.849 4.26064 -1.10261 0
M  V30 2510 H 232.968 0.664195 -0.319397 0
M  V30 2511 H 235.61 1.29867 -1.38689 0
M  V30 2512 H 233.76 3.75118 -1.01089 0
M  V30 2513 H 235.432 2.99487 -3.50864 0
M  V30 2514 H 233.675 2.76318 -3.34411 0
M  V30 2515 H 234.346 4.39694 -3.33726 0
M  V30 2516 H 236.822 3.88951 -1.4784 0
M  V30 2517 H 235.698 5.27183 -1.52869 0
M  V30 2518 H 235.959 4.42098 -0.0142953 0
M  V30 2519 N 235.018 0.912232 1.28515 0
M  V30 2520 C 236.243 0.559774 1.99703 0
M  V30 2521 C 236.668 -0.851393 1.67729 0
M  V30 2522 O 236.026 -1.56875 0.908834 0
M  V30 2523 C 236.074 0.773874 3.52198 0
M  V30 2524 O 235.178 -0.167842 4.12058 0
M  V30 2525 H 234.519 0.21723 0.627461 0
M  V30 2526 H 237.049 1.22725 1.63706 0
M  V30 2527 H 237.059 0.683386 4.02236 0
M  V30 2528 H 235.734 1.80261 3.74805 0
M  V30 2529 H 234.311 -0.0287509 3.72889 0
M  V30 2530 N 236.496 -1.42363 0.676048 0
M  V30 2531 C 237.459 -2.29199 0.00766941 0
M  V30 2532 C 238.459 -1.43389 -0.727745 0
M  V30 2533 O 239.649 -1.64764 -0.56556 0
M  V30 2534 C 236.781 -3.2591 -0.999785 0
M  V30 2535 H 237.974 -2.89794 0.771988 0
M  V30 2536 H 235.527 -1.50024 0.438468 0
M  V30 2537 H 236.262 -2.70256 -1.79255 0
M  V30 2538 H 236.047 -3.89202 -0.475829 0
M  V30 2539 H 237.537 -3.91028 -1.46583 0
M  V30 2540 N 237.974 -0.419461 -1.51915 0
M  V30 2541 C 239.223 0.154346 -2.01109 0
M  V30 2542 C 239.536 1.45338 -1.30905 0
M  V30 2543 O 240.742 2.10906 -1.7097 0
M  V30 2544 C 239.198 0.325615 -3.58424 0
M  V30 2545 C 238.806 -0.961934 -4.37551 0
M  V30 2546 C 240.55 0.854155 -4.15818 0
M  V30 2547 C 238.457 -0.757287 -5.86531 0
M  V30 2548 H 237.387 0.0614563 -0.751491 0
M  V30 2549 H 240.038 -0.54649 -1.75173 0
M  V30 2550 H 238.42 1.08903 -3.80731 0
M  V30 2551 H 239.594 -1.7323 -4.26999 0
M  V30 2552 H 237.909 -1.41766 -3.91524 0
M  V30 2553 H 240.506 1.02346 -5.24814 0
M  V30 2554 H 240.849 1.83172 -3.73837 0
M  V30 2555 H 241.382 0.149528 -3.97519 0
M  V30 2556 H 238.121 -1.70671 -6.32892 0
M  V30 2557 H 237.641 -0.0264061 -5.99794 0
M  V30 2558 H 239.32 -0.403482 -6.45741 0
M  V30 2559 N 239.452 1.56882 -0.150215 0
M  V30 2560 C 240.677 2.01027 0.510184 0
M  V30 2561 C 241.102 1.02966 1.57415 0
M  V30 2562 O 240.46 0.00590158 1.81299 0
M  V30 2563 C 240.508 3.43899 1.08472 0
M  V30 2564 O 239.612 3.4885 2.19948 0
M  V30 2565 H 238.953 0.652233 0.124451 0
M  V30 2566 H 241.483 2.03093 -0.247894 0
M  V30 2567 H 241.493 3.82766 1.41259 0
M  V30 2568 H 240.168 4.14776 0.305582 0
M  V30 2569 H 238.745 3.21827 1.88366 0
M  V30 2570 N 240.93 -0.123565 1.57115 0
M  V30 2571 C 242.158 -0.846461 1.88793 0
M  V30 2572 C 242.573 -1.73652 0.740976 0
M  V30 2573 O 241.93 -1.80207 -0.288393 0
M  V30 2574 C 241.981 -1.6837 3.19897 0
M  V30 2575 O 241.702 -0.829477 4.30176 0
M  V30 2576 C 243.203 -2.51214 3.65248 0
M  V30 2577 H 240.423 -0.243573 0.625231 0
M  V30 2578 H 242.967 -0.109324 2.04208 0
M  V30 2579 H 241.122 -2.37364 3.06165 0
M  V30 2580 H 241.536 -1.40651 5.0529 0
M  V30 2581 H 243.01 -3.05497 4.59756 0
M  V30 2582 H 243.487 -3.28359 2.9168 0
M  V30 2583 H 244.093 -1.8747 3.81752 0
M  V30 2584 N 242.408 -1.52605 -0.393616 0
M  V30 2585 C 243.633 -1.71592 -1.16495 0
M  V30 2586 C 244.058 -0.43133 -1.83088 0
M  V30 2587 O 243.416 0.612523 -1.7064 0
M  V30 2588 C 243.464 -2.86318 -2.19213 0
M  V30 2589 O 242.568 -2.52969 -3.257 0
M  V30 2590 H 241.909 -0.570734 -0.33935 0
M  V30 2591 H 244.439 -1.99377 -0.459324 0
M  V30 2592 H 244.449 -3.1168 -2.63286 0
M  V30 2593 H 243.124 -3.79511 -1.7013 0
M  V30 2594 H 241.701 -2.38332 -2.86797 0
M  V30 2595 N 243.887 0.651787 -1.4349 0
M  V30 2596 C 245.112 1.44434 -1.48841 0
M  V30 2597 C 245.537 1.8779 -0.107955 0
M  V30 2598 O 244.895 1.57464 0.898602 0
M  V30 2599 C 244.943 2.65458 -2.44059 0
M  V30 2600 O 244.047 3.64566 -1.92784 0
M  V30 2601 H 243.388 0.433005 -0.503391 0
M  V30 2602 H 245.918 0.797451 -1.88419 0
M  V30 2603 H 245.928 3.13255 -2.6141 0
M  V30 2604 H 244.603 2.33244 -3.4434 0
M  V30 2605 H 243.18 3.23716 -1.851 0
M  V30 2606 N 245.365 1.30045 0.890287 0
M  V30 2607 C 246.781 1.08261 1.17268 0
M  V30 2608 C 246.981 -0.160063 2.00863 0
M  V30 2609 O 246.037 -0.855181 2.37577 0
M  V30 2610 C 247.35 2.34323 1.8845 0
M  V30 2611 C 248.898 2.39735 2.01237 0
M  V30 2612 C 249.373 3.65625 2.7583 0
M  V30 2613 N 250.864 3.66402 2.83379 0
M  V30 2614 C 251.599 4.60498 3.41657 0
M  V30 2615 N 251.095 5.64933 4.01026 0
M  V30 2616 N 252.888 4.48051 3.39421 0
M  V30 2617 H 245.039 2.09777 0.332762 0
M  V30 2618 H 247.302 0.92446 0.209948 0
M  V30 2619 H 247.008 3.2498 1.34465 0
M  V30 2620 H 246.882 2.4256 2.88867 0
M  V30 2621 H 249.269 1.4956 2.54393 0
M  V30 2622 H 249.35 2.35476 0.999232 0
M  V30 2623 H 248.994 4.56156 2.23347 0
M  V30 2624 H 248.924 3.67144 3.77509 0
M  V30 2625 H 251.415 2.90896 2.41222 0
M  V30 2626 H 251.728 6.32841 4.43545 0
M  V30 2627 H 250.073 5.68732 3.99461 0
M  V30 2628 H 253.264 3.65649 2.92264 0
M  V30 2629 H 253.437 5.21565 3.84544 0
M  V30 2630 N 246.843 -1.10192 1.12674 0
M  V30 2631 C 248.092 -1.81573 0.8783 0
M  V30 2632 C 248.405 -1.86249 -0.597557 0
M  V30 2633 O 249.611 -2.5386 -0.962681 0
M  V30 2634 C 248.067 -3.26149 1.52167 0
M  V30 2635 C 247.675 -3.29763 3.03249 0
M  V30 2636 C 249.419 -4.0234 1.3536 0
M  V30 2637 C 247.326 -4.68815 3.60508 0
M  V30 2638 H 246.256 -0.680394 0.324931 0
M  V30 2639 H 248.907 -1.23902 1.35353 0
M  V30 2640 H 247.289 -3.83832 0.974104 0
M  V30 2641 H 248.463 -2.8189 3.6452 0
M  V30 2642 H 246.778 -2.67059 3.19481 0
M  V30 2643 H 249.375 -5.05058 1.75559 0
M  V30 2644 H 249.718 -4.15235 0.297554 0
M  V30 2645 H 250.251 -3.51079 1.87052 0
M  V30 2646 H 246.99 -4.61121 4.65884 0
M  V30 2647 H 246.51 -5.17045 3.04014 0
M  V30 2648 H 248.189 -5.37785 3.59717 0
M  V30 2649 N 248.321 -0.919034 -1.28029 0
M  V30 2650 C 249.251 -0.428581 -2.29533 0
M  V30 2651 C 250.232 0.50659 -1.62381 0
M  V30 2652 O 251.417 0.413195 -1.89753 0
M  V30 2653 C 248.547 0.327388 -3.45753 0
M  V30 2654 C 247.501 -0.519137 -4.2484 0
M  V30 2655 C 246.827 0.365486 -5.33449 0
M  V30 2656 C 248.127 -1.77914 -4.91064 0
M  V30 2657 H 249.821 -1.27687 -2.70807 0
M  V30 2658 H 247.367 -0.615428 -1.30186 0
M  V30 2659 H 249.32 0.681378 -4.15855 0
M  V30 2660 H 248.044 1.20963 -3.03374 0
M  V30 2661 H 246.703 -0.855717 -3.56473 0
M  V30 2662 H 246.351 1.24642 -4.87312 0
M  V30 2663 H 246.051 -0.197356 -5.87268 0
M  V30 2664 H 247.575 0.715241 -6.06396 0
M  V30 2665 H 248.989 -1.49374 -5.53498 0
M  V30 2666 H 247.386 -2.2848 -5.54903 0
M  V30 2667 H 248.456 -2.50382 -4.15255 0
M  V30 2668 N 249.799 1.42003 -0.683588 0
M  V30 2669 C 251.045 2.02223 -0.218536 0
M  V30 2670 C 251.4 1.53126 1.16492 0
M  V30 2671 O 250.693 0.727459 1.77253 0
M  V30 2672 C 250.887 3.56827 -0.202357 0
M  V30 2673 C 250.716 4.20928 -1.5827 0
M  V30 2674 C 249.486 4.5573 -2.18262 0
M  V30 2675 C 251.684 4.47933 -2.52706 0
M  V30 2676 N 249.666 5.05056 -3.48986 0
M  V30 2677 C 251.037 4.98906 -3.68094 0
M  V30 2678 C 253.092 4.29931 -2.51125 0
M  V30 2679 C 251.795 5.33768 -4.82166 0
M  V30 2680 C 253.821 4.65875 -3.643 0
M  V30 2681 C 253.183 5.17008 -4.78417 0
M  V30 2682 H 249.282 0.771931 -0.125088 0
M  V30 2683 H 251.866 1.72729 -0.898479 0
M  V30 2684 H 250.037 3.85819 0.447029 0
M  V30 2685 H 251.769 4.03755 0.276399 0
M  V30 2686 H 248.524 4.41781 -1.70665 0
M  V30 2687 H 248.948 5.34139 -4.15962 0
M  V30 2688 H 253.59 3.89647 -1.6412 0
M  V30 2689 H 251.308 5.72981 -5.6984 0
M  V30 2690 H 254.894 4.53615 -3.64314 0
M  V30 2691 H 253.774 5.44301 -5.64541 0
M  V30 2692 N 251.277 0.427512 1.51691 0
M  V30 2693 C 252.224 -0.388867 2.275 0
M  V30 2694 C 253.194 -1.02532 1.30677 0
M  V30 2695 O 254.379 -1.0461 1.59566 0
M  V30 2696 C 251.519 -1.48954 3.11298 0
M  V30 2697 C 250.632 -0.872194 4.23104 0
M  V30 2698 C 249.767 -1.94709 4.94228 0
M  V30 2699 C 248.806 -1.30766 5.97969 0
M  V30 2700 N 247.943 -2.32349 6.62539 0
M  V30 2701 H 252.783 0.263997 2.96828 0
M  V30 2702 H 250.32 0.142033 1.46413 0
M  V30 2703 H 252.278 -2.13887 3.58201 0
M  V30 2704 H 250.908 -2.11217 2.44105 0
M  V30 2705 H 249.96 -0.111419 3.80237 0
M  V30 2706 H 251.272 -0.365264 4.97461 0
M  V30 2707 H 250.426 -2.67327 5.44629 0
M  V30 2708 H 249.165 -2.48773 4.1948 0
M  V30 2709 H 248.17 -0.566902 5.4687 0
M  V30 2710 H 249.395 -0.774483 6.74669 0
M  V30 2711 H 247.341 -2.85511 5.90609 0
M  V30 2712 H 247.258 -1.8652 7.3263 0
M  V30 2713 H 248.526 -3.04481 7.17574 0
M  V30 2714 N 252.755 -1.56801 0.158532 0
M  V30 2715 C 253.688 -2.13148 -0.815065 0
M  V30 2716 C 254.666 -1.0581 -1.23462 0
M  V30 2717 O 255.85 -1.3371 -1.32868 0
M  V30 2718 C 252.977 -2.6606 -2.09594 0
M  V30 2719 C 252.023 -3.85651 -1.82141 0
M  V30 2720 S 252.856 -5.26041 -1.00207 0
M  V30 2721 C 254.012 -5.8235 -2.29389 0
M  V30 2722 H 254.245 -2.95396 -0.335937 0
M  V30 2723 H 251.778 -1.54299 -0.0559391 0
M  V30 2724 H 253.736 -2.97195 -2.8317 0
M  V30 2725 H 252.397 -1.83921 -2.54621 0
M  V30 2726 H 251.59 -4.20958 -2.77147 0
M  V30 2727 H 251.192 -3.55338 -1.16667 0
M  V30 2728 H 253.484 -5.94485 -3.24952 0
M  V30 2729 H 254.427 -6.79688 -1.9857 0
M  V30 2730 H 254.835 -5.10675 -2.40564 0
M  V30 2731 N 254.233 0.115231 -1.57178 0
M  V30 2732 C 255.18 1.14115 -2.00615 0
M  V30 2733 C 256.15 1.40939 -0.878941 0
M  V30 2734 O 257.335 1.52741 -1.14345 0
M  V30 2735 C 254.475 2.46156 -2.4187 0
M  V30 2736 C 253.588 2.26236 -3.68024 0
M  V30 2737 C 252.723 3.51534 -3.98243 0
M  V30 2738 C 251.762 3.26787 -5.17568 0
M  V30 2739 N 250.899 4.44298 -5.43639 0
M  V30 2740 H 255.739 0.763743 -2.88047 0
M  V30 2741 H 253.276 0.365615 -1.42484 0
M  V30 2742 H 255.234 3.23189 -2.63827 0
M  V30 2743 H 253.864 2.81783 -1.57475 0
M  V30 2744 H 252.916 1.40102 -3.5366 0
M  V30 2745 H 254.228 2.03929 -4.55208 0
M  V30 2746 H 253.382 4.36984 -4.20868 0
M  V30 2747 H 252.121 3.76876 -3.09541 0
M  V30 2748 H 251.126 2.39729 -4.94783 0
M  V30 2749 H 252.351 3.02812 -6.0785 0
M  V30 2750 H 250.297 4.69754 -4.57895 0
M  V30 2751 H 250.214 4.25109 -6.25154 0
M  V30 2752 H 251.482 5.3087 -5.70786 0
M  V30 2753 N 255.711 1.52812 0.385517 0
M  V30 2754 C 256.958 1.68026 1.1302 0
M  V30 2755 C 257.286 0.421934 1.89868 0
M  V30 2756 O 256.541 -0.595749 1.86412 0
M  V30 2757 C 256.84 2.86856 2.13187 0
M  V30 2758 C 256.506 4.24159 1.5297 0
M  V30 2759 C 255.168 4.61501 1.36274 0
M  V30 2760 C 257.52 5.09627 1.09223 0
M  V30 2761 C 254.848 5.81966 0.743837 0
M  V30 2762 C 257.2 6.30719 0.487411 0
M  V30 2763 C 255.864 6.6679 0.307777 0
M  V30 2764 H 255.134 0.614849 0.413571 0
M  V30 2765 H 257.781 1.86962 0.414405 0
M  V30 2766 H 256.086 2.6235 2.90998 0
M  V30 2767 H 257.783 2.95821 2.70722 0
M  V30 2768 H 254.373 3.94746 1.66954 0
M  V30 2769 H 258.557 4.81343 1.20922 0
M  V30 2770 H 253.813 6.08519 0.592891 0
M  V30 2771 H 257.987 6.96259 0.140143 0
M  V30 2772 H 255.614 7.60001 -0.173879 0
M  V30 2773 N 257.189 -0.644168 1.43834 0
M  V30 2774 C 258.119 -1.76814 1.52509 0
M  V30 2775 C 259.1 -1.65823 0.379052 0
M  V30 2776 O 260.285 -1.84781 0.597466 0
M  V30 2777 C 257.415 -3.15288 1.4564 0
M  V30 2778 C 256.369 -3.41053 2.58586 0
M  V30 2779 C 255.695 -4.79421 2.36769 0
M  V30 2780 C 256.995 -3.34902 4.00797 0
M  V30 2781 H 258.689 -1.69812 2.46586 0
M  V30 2782 H 256.235 -0.815542 1.1868 0
M  V30 2783 H 258.188 -3.93681 1.50311 0
M  V30 2784 H 256.912 -3.23043 0.480725 0
M  V30 2785 H 255.571 -2.65035 2.53282 0
M  V30 2786 H 255.219 -4.83863 1.37424 0
M  V30 2787 H 254.919 -4.9762 3.12487 0
M  V30 2788 H 256.443 -5.6006 2.43238 0
M  V30 2789 H 257.857 -4.03218 4.07539 0
M  V30 2790 H 256.254 -3.64637 4.76613 0
M  V30 2791 H 257.324 -2.32928 4.25291 0
M  V30 2792 N 258.668 -1.30515 -0.883378 0
M  V30 2793 C 260.079 -1.17509 -1.45081 0
M  V30 2794 C 260.43 0.223605 -1.94922 0
M  V30 2795 O 259.555 1.12041 -1.85137 0
M  V30 2796 C 260.15 -2.12715 -2.63701 0
M  V30 2797 C 258.709 -2.03682 -3.16529 0
M  V30 2798 C 257.856 -2.02706 -1.89224 0
M  V30 2799 H 260.807 -1.42762 -0.693165 0
M  V30 2800 H 260.828 -1.70891 -3.39965 0
M  V30 2801 H 260.34 -3.14505 -2.27395 0
M  V30 2802 H 258.441 -1.05039 -3.57488 0
M  V30 2803 H 258.554 -2.92146 -3.7972 0
M  V30 2804 H 256.918 -1.4753 -2.07622 0
M  V30 2805 H 257.701 -3.06229 -1.55174 0
M  V30 2806 O 260.185 1.01953 -1.25251 0
M  V30 2807 H 260.876 1.63744 -1.03478 0
M  V30 END ATOM
M  V30 BEGIN BOND
M  V30 END BOND
M  V30 END CTAB
M  END
$$$$
